/media/chris/experiments/cd1a-new-docking/inputs/ligands/7sh4_ligand.pdb


 56 55  0  0  0  0  0  0  0  0999 V2000
  -35.2578   61.3871   65.5444 C   0  0  0  0  0  0  0  0  0  0  0  0
  -36.0296   61.2035   64.2683 C   0  0  0  0  0  0  0  0  0  0  0  0
  -37.2409   60.5387   64.6854 O   0  0  0  0  0  0  0  0  0  0  0  0
  -38.4574   61.9378   63.4357 O   0  0  0  0  0  0  0  0  0  0  0  0
  -38.3867   61.0000   64.1834 C   0  0  0  0  0  0  0  0  0  0  0  0
  -39.5418   60.1232   64.5732 C   0  0  0  0  0  0  0  0  0  0  0  0
  -40.7167   60.1807   63.6117 C   0  0  0  0  0  0  0  0  0  0  0  0
  -41.9820   60.6986   64.2624 C   0  0  0  0  0  0  0  0  0  0  0  0
  -43.2048   60.6363   63.3756 C   0  0  0  0  0  0  0  0  0  0  0  0
  -44.3802   61.4157   63.9298 C   0  0  0  0  0  0  0  0  0  0  0  0
  -45.1639   60.6504   64.9678 C   0  0  0  0  0  0  0  0  0  0  0  0
  -46.2783   59.8287   64.3759 C   0  0  0  0  0  0  0  0  0  0  0  0
  -47.6541   60.2757   64.8180 C   0  0  0  0  0  0  0  0  0  0  0  0
  -48.7674   59.5615   64.0785 C   0  0  0  0  0  0  0  0  0  0  0  0
  -49.8572   60.4796   63.5661 C   0  0  0  0  0  0  0  0  0  0  0  0
  -51.0178   59.7474   62.9022 C   0  0  0  0  0  0  0  0  0  0  0  0
  -50.7471   58.2797   62.6327 C   0  0  0  0  0  0  0  0  0  0  0  0
  -50.7264   57.9323   61.1582 C   0  0  0  0  0  0  0  0  0  0  0  0
  -49.3936   57.3716   60.6820 C   0  0  0  0  0  0  0  0  0  0  0  0
  -48.7402   58.2013   59.5912 C   0  0  0  0  0  0  0  0  0  0  0  0
  -47.8119   57.7554   57.2944 C   0  0  0  0  0  0  0  0  0  0  0  0
  -47.6957   57.4653   58.7738 C   0  0  0  0  0  0  0  0  0  0  0  0
  -35.1677   62.8365   65.9480 C   0  0  0  0  0  0  0  0  0  0  0  0
  -34.8943   63.6306   64.7720 O   0  0  0  0  0  0  0  0  0  0  0  0
  -33.5294   64.4424   64.5716 P   0  0  0  0  0  0  0  0  0  0  0  0
  -33.4742   65.5058   65.5977 O   0  0  0  0  0  0  0  0  0  0  0  0
  -32.4172   63.4644   64.4987 O   0  0  0  0  0  0  0  0  0  0  0  0
  -32.3174   63.0238   65.3570 H   0  0  0  0  0  0  0  0  0  0  0  0
  -33.6602   65.1427   63.1450 O   0  0  0  0  0  0  0  0  0  0  0  0
  -33.8573   64.3405   61.9628 C   0  0  0  0  0  0  0  0  0  0  0  0
  -35.6723   63.7889   60.4985 O   0  0  0  0  0  0  0  0  0  0  0  0
  -35.0713   64.8599   61.2323 C   0  0  0  0  0  0  0  0  0  0  0  0
  -35.0151   63.3964   59.9026 H   0  0  0  0  0  0  0  0  0  0  0  0
  -36.7603   64.4813   62.9122 O   0  0  0  0  0  0  0  0  0  0  0  0
  -36.0810   65.4830   62.1660 C   0  0  0  0  0  0  0  0  0  0  0  0
  -37.4034   64.9003   63.5052 H   0  0  0  0  0  0  0  0  0  0  0  0
  -33.9301   60.7897   65.3708 O   0  0  0  0  0  0  0  0  0  0  0  0
  -33.6798   60.8670   63.1366 O   0  0  0  0  0  0  0  0  0  0  0  0
  -33.6555   60.2513   64.1671 C   0  0  0  0  0  0  0  0  0  0  0  0
  -33.2989   58.8007   64.2700 C   0  0  0  0  0  0  0  0  0  0  0  0
  -34.5339   57.9371   64.5064 C   0  0  0  0  0  0  0  0  0  0  0  0
  -35.3800   57.7181   63.2629 C   0  0  0  0  0  0  0  0  0  0  0  0
  -36.8732   57.6145   63.5520 C   0  0  0  0  0  0  0  0  0  0  0  0
  -37.7470   57.6747   62.3130 C   0  0  0  0  0  0  0  0  0  0  0  0
  -37.2167   58.5876   61.2036 C   0  0  0  0  0  0  0  0  0  0  0  0
  -38.2862   59.3615   60.4298 C   0  0  0  0  0  0  0  0  0  0  0  0
  -38.6695   58.6730   59.1542 C   0  0  0  0  0  0  0  0  0  0  0  0
  -39.8706   58.2400   58.8234 C   0  0  0  0  0  0  0  0  0  0  0  0
  -41.1083   58.3477   59.6569 C   0  0  0  0  0  0  0  0  0  0  0  0
  -41.3915   57.0729   60.4463 C   0  0  0  0  0  0  0  0  0  0  0  0
  -41.7929   57.3257   61.8888 C   0  0  0  0  0  0  0  0  0  0  0  0
  -41.1790   56.3455   62.8736 C   0  0  0  0  0  0  0  0  0  0  0  0
  -41.5618   56.5875   64.3242 C   0  0  0  0  0  0  0  0  0  0  0  0
  -43.0639   56.6723   64.5480 C   0  0  0  0  0  0  0  0  0  0  0  0
  -43.4702   57.5467   65.7177 C   0  0  0  0  0  0  0  0  0  0  0  0
  -42.2979   57.9859   66.5501 C   0  0  0  0  0  0  0  0  0  0  0  0
 21 22  1  0  0  0
  4  5  2  0  0  0
 25 24  1  0  0  0
 25 26  2  0  0  0
 25 27  1  0  0  0
 25 29  1  0  0  0
 22 20  1  0  0  0
  3  5  1  0  0  0
  3  2  1  0  0  0
 20 19  1  0  0  0
 24 23  1  0  0  0
 19 18  1  0  0  0
 18 17  1  0  0  0
 27 28  1  0  0  0
 17 16  1  0  0  0
 29 30  1  0  0  0
 16 15  1  0  0  0
 34 35  1  0  0  0
 34 36  1  0  0  0
 15 14  1  0  0  0
 31 32  1  0  0  0
 31 33  1  0  0  0
 14 13  1  0  0  0
 37  1  1  0  0  0
 37 39  1  0  0  0
 13 12  1  0  0  0
 38 39  2  0  0  0
 12 11  1  0  0  0
 11 10  1  0  0  0
 10  9  1  0  0  0
  9  8  1  0  0  0
  8  7  1  0  0  0
  7  6  1  0  0  0
  6  5  1  0  0  0
  2  1  1  0  0  0
  1 23  1  0  0  0
 30 32  1  0  0  0
 32 35  1  0  0  0
 39 40  1  0  0  0
 40 41  1  0  0  0
 41 42  1  0  0  0
 42 43  1  0  0  0
 43 44  1  0  0  0
 44 45  1  0  0  0
 45 46  1  0  0  0
 46 47  1  0  0  0
 47 48  2  0  0  0
 48 49  1  0  0  0
 49 50  1  0  0  0
 50 51  1  0  0  0
 51 52  1  0  0  0
 52 53  1  0  0  0
 53 54  1  0  0  0
 54 55  1  0  0  0
 55 56  1  0  0  0
M  CHG 1  26  -1
M  END
> <minimizedAffinity>
-7.98350

> <CNNscore>
0.2803525329

> <CNNaffinity>
7.2786474228

> <CNN_VS>
2.0405871868

> <CNNaffinity_variance>
1.1513741016

$$$$
/media/chris/experiments/cd1a-new-docking/inputs/ligands/7sh4_ligand.pdb


 56 55  0  0  0  0  0  0  0  0999 V2000
  -46.4952   59.6465   65.3820 C   0  0  0  0  0  0  0  0  0  0  0  0
  -45.6214   60.6070   64.6260 C   0  0  0  0  0  0  0  0  0  0  0  0
  -44.4993   60.8260   65.5070 O   0  0  0  0  0  0  0  0  0  0  0  0
  -42.5927   61.9891   65.6135 O   0  0  0  0  0  0  0  0  0  0  0  0
  -43.4140   61.3884   64.9746 C   0  0  0  0  0  0  0  0  0  0  0  0
  -43.2965   61.0640   63.5131 C   0  0  0  0  0  0  0  0  0  0  0  0
  -42.3828   62.0007   62.7411 C   0  0  0  0  0  0  0  0  0  0  0  0
  -42.1594   61.5553   61.3112 C   0  0  0  0  0  0  0  0  0  0  0  0
  -41.3760   60.2691   61.1784 C   0  0  0  0  0  0  0  0  0  0  0  0
  -40.9422   59.9828   59.7550 C   0  0  0  0  0  0  0  0  0  0  0  0
  -40.3624   58.6008   59.5775 C   0  0  0  0  0  0  0  0  0  0  0  0
  -38.9082   58.6187   59.1868 C   0  0  0  0  0  0  0  0  0  0  0  0
  -37.9685   58.6515   60.3716 C   0  0  0  0  0  0  0  0  0  0  0  0
  -38.3663   57.6766   61.4614 C   0  0  0  0  0  0  0  0  0  0  0  0
  -37.3536   57.5541   62.5807 C   0  0  0  0  0  0  0  0  0  0  0  0
  -36.0471   58.2924   62.3128 C   0  0  0  0  0  0  0  0  0  0  0  0
  -34.8876   57.8242   63.1711 C   0  0  0  0  0  0  0  0  0  0  0  0
  -33.5353   58.2611   62.6460 C   0  0  0  0  0  0  0  0  0  0  0  0
  -32.8496   59.3033   63.5185 C   0  0  0  0  0  0  0  0  0  0  0  0
  -32.6720   60.6470   62.8343 C   0  0  0  0  0  0  0  0  0  0  0  0
  -30.8375   60.9248   61.1334 C   0  0  0  0  0  0  0  0  0  0  0  0
  -31.2300   61.0483   62.5883 C   0  0  0  0  0  0  0  0  0  0  0  0
  -47.8701   60.2102   65.6342 C   0  0  0  0  0  0  0  0  0  0  0  0
  -48.6101   60.2044   64.3929 O   0  0  0  0  0  0  0  0  0  0  0  0
  -50.0934   59.6155   64.2701 P   0  0  0  0  0  0  0  0  0  0  0  0
  -50.1244   58.3060   64.9565 O   0  0  0  0  0  0  0  0  0  0  0  0
  -51.0449   60.6681   64.7005 O   0  0  0  0  0  0  0  0  0  0  0  0
  -50.9274   60.8426   65.6474 H   0  0  0  0  0  0  0  0  0  0  0  0
  -50.3182   59.3590   62.7124 O   0  0  0  0  0  0  0  0  0  0  0  0
  -50.5087   58.0160   62.2225 C   0  0  0  0  0  0  0  0  0  0  0  0
  -49.8183   56.5247   60.4784 O   0  0  0  0  0  0  0  0  0  0  0  0
  -49.5091   57.7654   61.1202 C   0  0  0  0  0  0  0  0  0  0  0  0
  -49.8348   55.8143   61.1388 H   0  0  0  0  0  0  0  0  0  0  0  0
  -49.3677   58.3631   58.7875 O   0  0  0  0  0  0  0  0  0  0  0  0
  -49.4794   58.8835   60.1060 C   0  0  0  0  0  0  0  0  0  0  0  0
  -49.3503   59.0951   58.1514 H   0  0  0  0  0  0  0  0  0  0  0  0
  -45.8172   59.2923   66.6329 O   0  0  0  0  0  0  0  0  0  0  0  0
  -45.9397   57.4249   67.8810 O   0  0  0  0  0  0  0  0  0  0  0  0
  -45.6152   57.9816   66.8679 C   0  0  0  0  0  0  0  0  0  0  0  0
  -44.9558   57.2995   65.7095 C   0  0  0  0  0  0  0  0  0  0  0  0
  -43.4456   57.5139   65.7206 C   0  0  0  0  0  0  0  0  0  0  0  0
  -42.7158   56.8172   64.5840 C   0  0  0  0  0  0  0  0  0  0  0  0
  -41.7359   57.7206   63.8440 C   0  0  0  0  0  0  0  0  0  0  0  0
  -40.4425   57.9744   64.5958 C   0  0  0  0  0  0  0  0  0  0  0  0
  -40.2819   59.4035   65.1222 C   0  0  0  0  0  0  0  0  0  0  0  0
  -38.9515   60.0780   64.7808 C   0  0  0  0  0  0  0  0  0  0  0  0
  -39.0274   60.8642   63.5064 C   0  0  0  0  0  0  0  0  0  0  0  0
  -38.0647   61.5886   62.9697 C   0  0  0  0  0  0  0  0  0  0  0  0
  -36.6877   61.7763   63.5236 C   0  0  0  0  0  0  0  0  0  0  0  0
  -36.6238   62.8962   64.5581 C   0  0  0  0  0  0  0  0  0  0  0  0
  -35.6659   64.0146   64.1871 C   0  0  0  0  0  0  0  0  0  0  0  0
  -34.2562   63.8104   64.7146 C   0  0  0  0  0  0  0  0  0  0  0  0
  -33.1568   64.1903   63.7365 C   0  0  0  0  0  0  0  0  0  0  0  0
  -33.6659   64.4627   62.3293 C   0  0  0  0  0  0  0  0  0  0  0  0
  -32.6232   64.2792   61.2443 C   0  0  0  0  0  0  0  0  0  0  0  0
  -31.3433   65.0107   61.5382 C   0  0  0  0  0  0  0  0  0  0  0  0
 21 22  1  0  0  0
  4  5  2  0  0  0
 25 24  1  0  0  0
 25 26  2  0  0  0
 25 27  1  0  0  0
 25 29  1  0  0  0
 22 20  1  0  0  0
  3  5  1  0  0  0
  3  2  1  0  0  0
 20 19  1  0  0  0
 24 23  1  0  0  0
 19 18  1  0  0  0
 18 17  1  0  0  0
 27 28  1  0  0  0
 17 16  1  0  0  0
 29 30  1  0  0  0
 16 15  1  0  0  0
 34 35  1  0  0  0
 34 36  1  0  0  0
 15 14  1  0  0  0
 31 32  1  0  0  0
 31 33  1  0  0  0
 14 13  1  0  0  0
 37  1  1  0  0  0
 37 39  1  0  0  0
 13 12  1  0  0  0
 38 39  2  0  0  0
 12 11  1  0  0  0
 11 10  1  0  0  0
 10  9  1  0  0  0
  9  8  1  0  0  0
  8  7  1  0  0  0
  7  6  1  0  0  0
  6  5  1  0  0  0
  2  1  1  0  0  0
  1 23  1  0  0  0
 30 32  1  0  0  0
 32 35  1  0  0  0
 39 40  1  0  0  0
 40 41  1  0  0  0
 41 42  1  0  0  0
 42 43  1  0  0  0
 43 44  1  0  0  0
 44 45  1  0  0  0
 45 46  1  0  0  0
 46 47  1  0  0  0
 47 48  2  0  0  0
 48 49  1  0  0  0
 49 50  1  0  0  0
 50 51  1  0  0  0
 51 52  1  0  0  0
 52 53  1  0  0  0
 53 54  1  0  0  0
 54 55  1  0  0  0
 55 56  1  0  0  0
M  CHG 1  26  -1
M  END
> <minimizedAffinity>
-7.52752

> <CNNscore>
0.2623498142

> <CNNaffinity>
7.3001532555

> <CNN_VS>
1.9151937962

> <CNNaffinity_variance>
1.8619709015

$$$$
/media/chris/experiments/cd1a-new-docking/inputs/ligands/7sh4_ligand.pdb


 56 55  0  0  0  0  0  0  0  0999 V2000
  -43.0942   57.8722   64.8347 C   0  0  0  0  0  0  0  0  0  0  0  0
  -42.4749   56.8601   63.9130 C   0  0  0  0  0  0  0  0  0  0  0  0
  -42.4444   57.5261   62.6329 O   0  0  0  0  0  0  0  0  0  0  0  0
  -41.0544   55.9881   61.7950 O   0  0  0  0  0  0  0  0  0  0  0  0
  -41.5664   57.0735   61.7372 C   0  0  0  0  0  0  0  0  0  0  0  0
  -41.4059   58.0396   60.5989 C   0  0  0  0  0  0  0  0  0  0  0  0
  -40.5913   57.4986   59.4361 C   0  0  0  0  0  0  0  0  0  0  0  0
  -39.4559   58.4178   59.0378 C   0  0  0  0  0  0  0  0  0  0  0  0
  -38.8991   59.2432   60.1755 C   0  0  0  0  0  0  0  0  0  0  0  0
  -37.6416   58.6506   60.7786 C   0  0  0  0  0  0  0  0  0  0  0  0
  -37.9150   57.7615   61.9670 C   0  0  0  0  0  0  0  0  0  0  0  0
  -36.7254   57.6157   62.8786 C   0  0  0  0  0  0  0  0  0  0  0  0
  -35.4768   58.2848   62.3481 C   0  0  0  0  0  0  0  0  0  0  0  0
  -34.2047   57.6544   62.8778 C   0  0  0  0  0  0  0  0  0  0  0  0
  -33.2465   58.6384   63.5157 C   0  0  0  0  0  0  0  0  0  0  0  0
  -33.5925   58.9878   64.9586 C   0  0  0  0  0  0  0  0  0  0  0  0
  -33.8651   60.4622   65.1872 C   0  0  0  0  0  0  0  0  0  0  0  0
  -35.2976   60.8614   64.8975 C   0  0  0  0  0  0  0  0  0  0  0  0
  -35.4305   61.8946   63.7875 C   0  0  0  0  0  0  0  0  0  0  0  0
  -35.3122   63.3279   64.2739 C   0  0  0  0  0  0  0  0  0  0  0  0
  -36.2068   64.1639   62.0747 C   0  0  0  0  0  0  0  0  0  0  0  0
  -36.2339   64.3121   63.5792 C   0  0  0  0  0  0  0  0  0  0  0  0
  -42.1268   58.3434   65.8902 C   0  0  0  0  0  0  0  0  0  0  0  0
  -41.0036   58.9799   65.2409 O   0  0  0  0  0  0  0  0  0  0  0  0
  -40.4900   60.4439   65.6339 P   0  0  0  0  0  0  0  0  0  0  0  0
  -41.4964   61.0579   66.5266 O   0  0  0  0  0  0  0  0  0  0  0  0
  -39.0905   60.3296   66.1104 O   0  0  0  0  0  0  0  0  0  0  0  0
  -39.0718   59.8311   66.9422 H   0  0  0  0  0  0  0  0  0  0  0  0
  -40.4769   61.2676   64.2686 O   0  0  0  0  0  0  0  0  0  0  0  0
  -41.1342   60.7371   63.0996 C   0  0  0  0  0  0  0  0  0  0  0  0
  -42.6894   62.2665   64.0921 O   0  0  0  0  0  0  0  0  0  0  0  0
  -42.5016   61.3669   62.9956 C   0  0  0  0  0  0  0  0  0  0  0  0
  -42.5580   61.7905   64.9271 H   0  0  0  0  0  0  0  0  0  0  0  0
  -41.9309   61.4895   60.6552 O   0  0  0  0  0  0  0  0  0  0  0  0
  -42.7025   62.0918   61.6865 C   0  0  0  0  0  0  0  0  0  0  0  0
  -42.0731   61.9681   59.8236 H   0  0  0  0  0  0  0  0  0  0  0  0
  -44.2974   57.2806   65.4282 O   0  0  0  0  0  0  0  0  0  0  0  0
  -45.5997   57.9750   67.1259 O   0  0  0  0  0  0  0  0  0  0  0  0
  -45.1666   58.1250   66.0161 C   0  0  0  0  0  0  0  0  0  0  0  0
  -45.5129   59.2804   65.1289 C   0  0  0  0  0  0  0  0  0  0  0  0
  -46.8297   59.0467   64.3954 C   0  0  0  0  0  0  0  0  0  0  0  0
  -47.9260   60.0312   64.7681 C   0  0  0  0  0  0  0  0  0  0  0  0
  -48.8420   59.5316   65.8795 C   0  0  0  0  0  0  0  0  0  0  0  0
  -50.3208   59.6612   65.5650 C   0  0  0  0  0  0  0  0  0  0  0  0
  -50.6541   60.6963   64.4867 C   0  0  0  0  0  0  0  0  0  0  0  0
  -51.5212   60.1819   63.3356 C   0  0  0  0  0  0  0  0  0  0  0  0
  -51.1919   58.7658   62.9696 C   0  0  0  0  0  0  0  0  0  0  0  0
  -50.2453   58.3660   62.1427 C   0  0  0  0  0  0  0  0  0  0  0  0
  -49.2963   59.2480   61.3946 C   0  0  0  0  0  0  0  0  0  0  0  0
  -49.3242   58.9903   59.8909 C   0  0  0  0  0  0  0  0  0  0  0  0
  -49.8113   57.6007   59.5197 C   0  0  0  0  0  0  0  0  0  0  0  0
  -48.8258   56.4969   59.8632 C   0  0  0  0  0  0  0  0  0  0  0  0
  -47.5304   56.5401   59.0698 C   0  0  0  0  0  0  0  0  0  0  0  0
  -47.7088   56.1923   57.5998 C   0  0  0  0  0  0  0  0  0  0  0  0
  -47.7844   57.3954   56.6807 C   0  0  0  0  0  0  0  0  0  0  0  0
  -46.9024   58.5267   57.1300 C   0  0  0  0  0  0  0  0  0  0  0  0
 21 22  1  0  0  0
  4  5  2  0  0  0
 25 24  1  0  0  0
 25 26  2  0  0  0
 25 27  1  0  0  0
 25 29  1  0  0  0
 22 20  1  0  0  0
  3  5  1  0  0  0
  3  2  1  0  0  0
 20 19  1  0  0  0
 24 23  1  0  0  0
 19 18  1  0  0  0
 18 17  1  0  0  0
 27 28  1  0  0  0
 17 16  1  0  0  0
 29 30  1  0  0  0
 16 15  1  0  0  0
 34 35  1  0  0  0
 34 36  1  0  0  0
 15 14  1  0  0  0
 31 32  1  0  0  0
 31 33  1  0  0  0
 14 13  1  0  0  0
 37  1  1  0  0  0
 37 39  1  0  0  0
 13 12  1  0  0  0
 38 39  2  0  0  0
 12 11  1  0  0  0
 11 10  1  0  0  0
 10  9  1  0  0  0
  9  8  1  0  0  0
  8  7  1  0  0  0
  7  6  1  0  0  0
  6  5  1  0  0  0
  2  1  1  0  0  0
  1 23  1  0  0  0
 30 32  1  0  0  0
 32 35  1  0  0  0
 39 40  1  0  0  0
 40 41  1  0  0  0
 41 42  1  0  0  0
 42 43  1  0  0  0
 43 44  1  0  0  0
 44 45  1  0  0  0
 45 46  1  0  0  0
 46 47  1  0  0  0
 47 48  2  0  0  0
 48 49  1  0  0  0
 49 50  1  0  0  0
 50 51  1  0  0  0
 51 52  1  0  0  0
 52 53  1  0  0  0
 53 54  1  0  0  0
 54 55  1  0  0  0
 55 56  1  0  0  0
M  CHG 1  26  -1
M  END
> <minimizedAffinity>
-8.52247

> <CNNscore>
0.2567693591

> <CNNaffinity>
7.1708121300

> <CNN_VS>
1.8412448168

> <CNNaffinity_variance>
1.9085614681

$$$$
/media/chris/experiments/cd1a-new-docking/inputs/ligands/7sh4_ligand.pdb


 56 55  0  0  0  0  0  0  0  0999 V2000
  -41.8282   60.3715   62.3593 C   0  0  0  0  0  0  0  0  0  0  0  0
  -41.7457   58.9901   61.7740 C   0  0  0  0  0  0  0  0  0  0  0  0
  -41.2007   59.2020   60.4544 O   0  0  0  0  0  0  0  0  0  0  0  0
  -40.9224   57.0448   59.9363 O   0  0  0  0  0  0  0  0  0  0  0  0
  -40.5403   58.1834   59.9029 C   0  0  0  0  0  0  0  0  0  0  0  0
  -39.3406   58.6648   59.1388 C   0  0  0  0  0  0  0  0  0  0  0  0
  -38.2089   59.1728   60.0161 C   0  0  0  0  0  0  0  0  0  0  0  0
  -37.6721   58.1116   60.9533 C   0  0  0  0  0  0  0  0  0  0  0  0
  -36.7884   58.6488   62.0561 C   0  0  0  0  0  0  0  0  0  0  0  0
  -36.5163   57.6325   63.1467 C   0  0  0  0  0  0  0  0  0  0  0  0
  -35.2499   57.9136   63.9179 C   0  0  0  0  0  0  0  0  0  0  0  0
  -34.1481   58.4718   63.0564 C   0  0  0  0  0  0  0  0  0  0  0  0
  -32.7858   58.4128   63.7110 C   0  0  0  0  0  0  0  0  0  0  0  0
  -31.8629   59.5197   63.2426 C   0  0  0  0  0  0  0  0  0  0  0  0
  -32.1518   60.0131   61.8403 C   0  0  0  0  0  0  0  0  0  0  0  0
  -31.3563   61.2528   61.4475 C   0  0  0  0  0  0  0  0  0  0  0  0
  -32.1100   62.5549   61.6387 C   0  0  0  0  0  0  0  0  0  0  0  0
  -31.5059   63.4495   62.7017 C   0  0  0  0  0  0  0  0  0  0  0  0
  -32.3103   63.4911   63.9934 C   0  0  0  0  0  0  0  0  0  0  0  0
  -33.7319   62.9804   63.8409 C   0  0  0  0  0  0  0  0  0  0  0  0
  -35.5678   61.4698   64.6676 C   0  0  0  0  0  0  0  0  0  0  0  0
  -34.1687   61.9916   64.9051 C   0  0  0  0  0  0  0  0  0  0  0  0
  -40.4720   60.9062   62.7420 C   0  0  0  0  0  0  0  0  0  0  0  0
  -39.7315   59.8606   63.4105 O   0  0  0  0  0  0  0  0  0  0  0  0
  -39.7150   59.6909   65.0020 P   0  0  0  0  0  0  0  0  0  0  0  0
  -38.3334   59.3606   65.4130 O   0  0  0  0  0  0  0  0  0  0  0  0
  -40.3713   60.8786   65.5996 O   0  0  0  0  0  0  0  0  0  0  0  0
  -39.8306   61.6660   65.4308 H   0  0  0  0  0  0  0  0  0  0  0  0
  -40.6330   58.4217   65.3008 O   0  0  0  0  0  0  0  0  0  0  0  0
  -41.8505   58.5742   66.0585 C   0  0  0  0  0  0  0  0  0  0  0  0
  -43.8912   57.4513   66.6216 O   0  0  0  0  0  0  0  0  0  0  0  0
  -42.6198   57.2779   65.9890 C   0  0  0  0  0  0  0  0  0  0  0  0
  -43.7601   57.7615   67.5314 H   0  0  0  0  0  0  0  0  0  0  0  0
  -42.0051   55.6460   64.3223 O   0  0  0  0  0  0  0  0  0  0  0  0
  -42.8052   56.7949   64.5705 C   0  0  0  0  0  0  0  0  0  0  0  0
  -42.1377   55.3511   63.4079 H   0  0  0  0  0  0  0  0  0  0  0  0
  -42.7388   60.3324   63.5079 O   0  0  0  0  0  0  0  0  0  0  0  0
  -42.5861   62.4784   64.1647 O   0  0  0  0  0  0  0  0  0  0  0  0
  -43.2498   61.5077   63.9222 C   0  0  0  0  0  0  0  0  0  0  0  0
  -44.7429   61.4642   64.0260 C   0  0  0  0  0  0  0  0  0  0  0  0
  -45.2275   60.1171   64.5529 C   0  0  0  0  0  0  0  0  0  0  0  0
  -45.6068   60.1313   66.0246 C   0  0  0  0  0  0  0  0  0  0  0  0
  -46.8970   59.3786   66.3289 C   0  0  0  0  0  0  0  0  0  0  0  0
  -48.1258   60.2657   66.4034 C   0  0  0  0  0  0  0  0  0  0  0  0
  -48.9558   60.3130   65.1173 C   0  0  0  0  0  0  0  0  0  0  0  0
  -50.4026   59.8348   65.2576 C   0  0  0  0  0  0  0  0  0  0  0  0
  -51.2560   60.2711   64.1047 C   0  0  0  0  0  0  0  0  0  0  0  0
  -51.4341   59.6256   62.9684 C   0  0  0  0  0  0  0  0  0  0  0  0
  -50.8188   58.3150   62.5919 C   0  0  0  0  0  0  0  0  0  0  0  0
  -49.4943   58.4842   61.8532 C   0  0  0  0  0  0  0  0  0  0  0  0
  -49.6145   59.2683   60.5583 C   0  0  0  0  0  0  0  0  0  0  0  0
  -50.0470   58.4240   59.3719 C   0  0  0  0  0  0  0  0  0  0  0  0
  -48.9390   57.5826   58.7606 C   0  0  0  0  0  0  0  0  0  0  0  0
  -47.7581   58.4037   58.2657 C   0  0  0  0  0  0  0  0  0  0  0  0
  -46.9208   57.7137   57.2070 C   0  0  0  0  0  0  0  0  0  0  0  0
  -47.1761   56.2339   57.1370 C   0  0  0  0  0  0  0  0  0  0  0  0
 21 22  1  0  0  0
  4  5  2  0  0  0
 25 24  1  0  0  0
 25 26  2  0  0  0
 25 27  1  0  0  0
 25 29  1  0  0  0
 22 20  1  0  0  0
  3  5  1  0  0  0
  3  2  1  0  0  0
 20 19  1  0  0  0
 24 23  1  0  0  0
 19 18  1  0  0  0
 18 17  1  0  0  0
 27 28  1  0  0  0
 17 16  1  0  0  0
 29 30  1  0  0  0
 16 15  1  0  0  0
 34 35  1  0  0  0
 34 36  1  0  0  0
 15 14  1  0  0  0
 31 32  1  0  0  0
 31 33  1  0  0  0
 14 13  1  0  0  0
 37  1  1  0  0  0
 37 39  1  0  0  0
 13 12  1  0  0  0
 38 39  2  0  0  0
 12 11  1  0  0  0
 11 10  1  0  0  0
 10  9  1  0  0  0
  9  8  1  0  0  0
  8  7  1  0  0  0
  7  6  1  0  0  0
  6  5  1  0  0  0
  2  1  1  0  0  0
  1 23  1  0  0  0
 30 32  1  0  0  0
 32 35  1  0  0  0
 39 40  1  0  0  0
 40 41  1  0  0  0
 41 42  1  0  0  0
 42 43  1  0  0  0
 43 44  1  0  0  0
 44 45  1  0  0  0
 45 46  1  0  0  0
 46 47  1  0  0  0
 47 48  2  0  0  0
 48 49  1  0  0  0
 49 50  1  0  0  0
 50 51  1  0  0  0
 51 52  1  0  0  0
 52 53  1  0  0  0
 53 54  1  0  0  0
 54 55  1  0  0  0
 55 56  1  0  0  0
M  CHG 1  26  -1
M  END
> <minimizedAffinity>
-8.44875

> <CNNscore>
0.2503192723

> <CNNaffinity>
6.8647794724

> <CNN_VS>
1.7183866501

> <CNNaffinity_variance>
1.2655448914

$$$$
/media/chris/experiments/cd1a-new-docking/inputs/ligands/7sh4_ligand.pdb


 56 55  0  0  0  0  0  0  0  0999 V2000
  -37.0416   60.9915   65.3535 C   0  0  0  0  0  0  0  0  0  0  0  0
  -38.1662   60.3877   66.1462 C   0  0  0  0  0  0  0  0  0  0  0  0
  -39.3187   61.1705   65.7692 O   0  0  0  0  0  0  0  0  0  0  0  0
  -40.3348   60.2153   64.0215 O   0  0  0  0  0  0  0  0  0  0  0  0
  -40.3250   60.5207   65.1835 C   0  0  0  0  0  0  0  0  0  0  0  0
  -41.3679   60.1187   66.1863 C   0  0  0  0  0  0  0  0  0  0  0  0
  -42.3775   61.2091   66.5026 C   0  0  0  0  0  0  0  0  0  0  0  0
  -43.2748   61.5360   65.3276 C   0  0  0  0  0  0  0  0  0  0  0  0
  -44.4172   60.5653   65.1318 C   0  0  0  0  0  0  0  0  0  0  0  0
  -45.5936   61.1739   64.3959 C   0  0  0  0  0  0  0  0  0  0  0  0
  -46.7288   60.2023   64.1841 C   0  0  0  0  0  0  0  0  0  0  0  0
  -48.0844   60.8341   64.3594 C   0  0  0  0  0  0  0  0  0  0  0  0
  -48.8309   60.3269   65.5733 C   0  0  0  0  0  0  0  0  0  0  0  0
  -49.9709   59.3960   65.2126 C   0  0  0  0  0  0  0  0  0  0  0  0
  -51.0852   60.0580   64.4295 C   0  0  0  0  0  0  0  0  0  0  0  0
  -51.2719   59.4926   63.0261 C   0  0  0  0  0  0  0  0  0  0  0  0
  -50.3006   58.3820   62.6749 C   0  0  0  0  0  0  0  0  0  0  0  0
  -49.3731   58.7335   61.5298 C   0  0  0  0  0  0  0  0  0  0  0  0
  -49.6666   57.9651   60.2488 C   0  0  0  0  0  0  0  0  0  0  0  0
  -48.9176   58.4929   59.0382 C   0  0  0  0  0  0  0  0  0  0  0  0
  -47.0963   58.1556   57.3338 C   0  0  0  0  0  0  0  0  0  0  0  0
  -47.7268   57.6548   58.6136 C   0  0  0  0  0  0  0  0  0  0  0  0
  -37.3015   62.4363   65.0122 C   0  0  0  0  0  0  0  0  0  0  0  0
  -36.1213   62.9855   64.3844 O   0  0  0  0  0  0  0  0  0  0  0  0
  -36.1351   63.6161   62.9134 P   0  0  0  0  0  0  0  0  0  0  0  0
  -36.8830   62.6973   62.0283 O   0  0  0  0  0  0  0  0  0  0  0  0
  -36.5835   65.0254   63.0195 O   0  0  0  0  0  0  0  0  0  0  0  0
  -37.5100   65.0492   63.3058 H   0  0  0  0  0  0  0  0  0  0  0  0
  -34.6118   63.6209   62.4417 O   0  0  0  0  0  0  0  0  0  0  0  0
  -33.5533   63.6005   63.4210 C   0  0  0  0  0  0  0  0  0  0  0  0
  -33.3536   61.3635   62.5851 O   0  0  0  0  0  0  0  0  0  0  0  0
  -32.6040   62.4805   63.0723 C   0  0  0  0  0  0  0  0  0  0  0  0
  -34.0137   61.1037   63.2467 H   0  0  0  0  0  0  0  0  0  0  0  0
  -32.1962   63.4334   60.8941 O   0  0  0  0  0  0  0  0  0  0  0  0
  -31.5708   62.8988   62.0538 C   0  0  0  0  0  0  0  0  0  0  0  0
  -31.5176   63.6960   60.2529 H   0  0  0  0  0  0  0  0  0  0  0  0
  -36.8369   60.1790   64.1502 O   0  0  0  0  0  0  0  0  0  0  0  0
  -34.7192   59.5377   64.5552 O   0  0  0  0  0  0  0  0  0  0  0  0
  -35.8316   59.2832   64.1821 C   0  0  0  0  0  0  0  0  0  0  0  0
  -36.2716   57.9302   63.7151 C   0  0  0  0  0  0  0  0  0  0  0  0
  -37.7595   57.9114   63.3796 C   0  0  0  0  0  0  0  0  0  0  0  0
  -38.0615   57.5371   61.9378 C   0  0  0  0  0  0  0  0  0  0  0  0
  -37.3041   58.3796   60.9177 C   0  0  0  0  0  0  0  0  0  0  0  0
  -38.1751   58.9298   59.8036 C   0  0  0  0  0  0  0  0  0  0  0  0
  -39.1386   60.0383   60.2372 C   0  0  0  0  0  0  0  0  0  0  0  0
  -40.6088   59.7970   59.8883 C   0  0  0  0  0  0  0  0  0  0  0  0
  -40.8697   58.3741   59.4943 C   0  0  0  0  0  0  0  0  0  0  0  0
  -41.4135   57.4362   60.2453 C   0  0  0  0  0  0  0  0  0  0  0  0
  -41.8875   57.5985   61.6550 C   0  0  0  0  0  0  0  0  0  0  0  0
  -41.3182   56.5330   62.5871 C   0  0  0  0  0  0  0  0  0  0  0  0
  -41.4163   56.8951   64.0586 C   0  0  0  0  0  0  0  0  0  0  0  0
  -42.6501   56.3336   64.7440 C   0  0  0  0  0  0  0  0  0  0  0  0
  -43.7721   57.3391   64.9433 C   0  0  0  0  0  0  0  0  0  0  0  0
  -44.2479   57.4378   66.3846 C   0  0  0  0  0  0  0  0  0  0  0  0
  -45.7543   57.5066   66.5391 C   0  0  0  0  0  0  0  0  0  0  0  0
  -46.1914   58.5677   67.5101 C   0  0  0  0  0  0  0  0  0  0  0  0
 21 22  1  0  0  0
  4  5  2  0  0  0
 25 24  1  0  0  0
 25 26  2  0  0  0
 25 27  1  0  0  0
 25 29  1  0  0  0
 22 20  1  0  0  0
  3  5  1  0  0  0
  3  2  1  0  0  0
 20 19  1  0  0  0
 24 23  1  0  0  0
 19 18  1  0  0  0
 18 17  1  0  0  0
 27 28  1  0  0  0
 17 16  1  0  0  0
 29 30  1  0  0  0
 16 15  1  0  0  0
 34 35  1  0  0  0
 34 36  1  0  0  0
 15 14  1  0  0  0
 31 32  1  0  0  0
 31 33  1  0  0  0
 14 13  1  0  0  0
 37  1  1  0  0  0
 37 39  1  0  0  0
 13 12  1  0  0  0
 38 39  2  0  0  0
 12 11  1  0  0  0
 11 10  1  0  0  0
 10  9  1  0  0  0
  9  8  1  0  0  0
  8  7  1  0  0  0
  7  6  1  0  0  0
  6  5  1  0  0  0
  2  1  1  0  0  0
  1 23  1  0  0  0
 30 32  1  0  0  0
 32 35  1  0  0  0
 39 40  1  0  0  0
 40 41  1  0  0  0
 41 42  1  0  0  0
 42 43  1  0  0  0
 43 44  1  0  0  0
 44 45  1  0  0  0
 45 46  1  0  0  0
 46 47  1  0  0  0
 47 48  2  0  0  0
 48 49  1  0  0  0
 49 50  1  0  0  0
 50 51  1  0  0  0
 51 52  1  0  0  0
 52 53  1  0  0  0
 53 54  1  0  0  0
 54 55  1  0  0  0
 55 56  1  0  0  0
M  CHG 1  26  -1
M  END
> <minimizedAffinity>
-8.45641

> <CNNscore>
0.2451389879

> <CNNaffinity>
7.3949608803

> <CNN_VS>
1.8127932549

> <CNNaffinity_variance>
1.3566143513

$$$$
/media/chris/experiments/cd1a-new-docking/inputs/ligands/7sh4_ligand.pdb


 56 55  0  0  0  0  0  0  0  0999 V2000
  -37.5885   61.3593   64.5901 C   0  0  0  0  0  0  0  0  0  0  0  0
  -36.5288   60.3725   64.9911 C   0  0  0  0  0  0  0  0  0  0  0  0
  -36.3984   59.5128   63.8391 O   0  0  0  0  0  0  0  0  0  0  0  0
  -36.1766   57.4656   64.7105 O   0  0  0  0  0  0  0  0  0  0  0  0
  -36.7549   58.2373   63.9938 C   0  0  0  0  0  0  0  0  0  0  0  0
  -38.0308   57.9379   63.2608 C   0  0  0  0  0  0  0  0  0  0  0  0
  -37.8269   57.3750   61.8644 C   0  0  0  0  0  0  0  0  0  0  0  0
  -37.7560   58.4523   60.8027 C   0  0  0  0  0  0  0  0  0  0  0  0
  -38.5571   59.6933   61.1251 C   0  0  0  0  0  0  0  0  0  0  0  0
  -39.5428   60.0630   60.0352 C   0  0  0  0  0  0  0  0  0  0  0  0
  -40.8999   59.4298   60.2221 C   0  0  0  0  0  0  0  0  0  0  0  0
  -41.1305   58.2530   59.3113 C   0  0  0  0  0  0  0  0  0  0  0  0
  -41.3694   56.9569   60.0537 C   0  0  0  0  0  0  0  0  0  0  0  0
  -41.4167   57.1435   61.5568 C   0  0  0  0  0  0  0  0  0  0  0  0
  -41.3834   55.8487   62.3415 C   0  0  0  0  0  0  0  0  0  0  0  0
  -41.5020   56.0391   63.8493 C   0  0  0  0  0  0  0  0  0  0  0  0
  -42.5129   57.0926   64.2598 C   0  0  0  0  0  0  0  0  0  0  0  0
  -42.3570   57.5491   65.6960 C   0  0  0  0  0  0  0  0  0  0  0  0
  -43.6717   57.6181   66.4604 C   0  0  0  0  0  0  0  0  0  0  0  0
  -44.8956   57.4211   65.5837 C   0  0  0  0  0  0  0  0  0  0  0  0
  -46.3135   58.5603   67.3237 C   0  0  0  0  0  0  0  0  0  0  0  0
  -46.2171   57.4263   66.3283 C   0  0  0  0  0  0  0  0  0  0  0  0
  -37.0250   62.7416   64.3814 C   0  0  0  0  0  0  0  0  0  0  0  0
  -36.7517   62.9248   62.9742 O   0  0  0  0  0  0  0  0  0  0  0  0
  -35.9349   64.1782   62.4052 P   0  0  0  0  0  0  0  0  0  0  0  0
  -35.7799   63.9993   60.9455 O   0  0  0  0  0  0  0  0  0  0  0  0
  -36.5799   65.4156   62.9067 O   0  0  0  0  0  0  0  0  0  0  0  0
  -37.4638   65.5005   62.5164 H   0  0  0  0  0  0  0  0  0  0  0  0
  -34.4886   64.0761   63.0688 O   0  0  0  0  0  0  0  0  0  0  0  0
  -34.1830   64.8391   64.2539 C   0  0  0  0  0  0  0  0  0  0  0  0
  -33.6109   62.6294   64.9835 O   0  0  0  0  0  0  0  0  0  0  0  0
  -34.1185   63.8915   65.4265 C   0  0  0  0  0  0  0  0  0  0  0  0
  -34.1637   62.2943   64.2602 H   0  0  0  0  0  0  0  0  0  0  0  0
  -33.2658   63.5273   67.6533 O   0  0  0  0  0  0  0  0  0  0  0  0
  -33.2691   64.4283   66.5534 C   0  0  0  0  0  0  0  0  0  0  0  0
  -32.7158   63.8889   68.3657 H   0  0  0  0  0  0  0  0  0  0  0  0
  -38.6379   61.3512   65.6141 O   0  0  0  0  0  0  0  0  0  0  0  0
  -40.3282   59.9658   66.1467 O   0  0  0  0  0  0  0  0  0  0  0  0
  -39.7517   60.6446   65.3415 C   0  0  0  0  0  0  0  0  0  0  0  0
  -40.1940   60.8213   63.9219 C   0  0  0  0  0  0  0  0  0  0  0  0
  -41.6841   60.5372   63.7614 C   0  0  0  0  0  0  0  0  0  0  0  0
  -42.5833   61.6092   64.3550 C   0  0  0  0  0  0  0  0  0  0  0  0
  -43.8881   61.0640   64.9242 C   0  0  0  0  0  0  0  0  0  0  0  0
  -45.1040   61.3496   64.0626 C   0  0  0  0  0  0  0  0  0  0  0  0
  -46.3712   60.5980   64.4805 C   0  0  0  0  0  0  0  0  0  0  0  0
  -47.6731   61.1300   63.8774 C   0  0  0  0  0  0  0  0  0  0  0  0
  -48.8815   60.6247   64.6070 C   0  0  0  0  0  0  0  0  0  0  0  0
  -49.9483   60.0649   64.0702 C   0  0  0  0  0  0  0  0  0  0  0  0
  -50.1752   59.8149   62.6128 C   0  0  0  0  0  0  0  0  0  0  0  0
  -51.1946   58.7070   62.3638 C   0  0  0  0  0  0  0  0  0  0  0  0
  -50.7875   57.7397   61.2662 C   0  0  0  0  0  0  0  0  0  0  0  0
  -49.3176   57.8246   60.8927 C   0  0  0  0  0  0  0  0  0  0  0  0
  -48.7963   56.6292   60.1123 C   0  0  0  0  0  0  0  0  0  0  0  0
  -47.6541   56.9736   59.1687 C   0  0  0  0  0  0  0  0  0  0  0  0
  -47.8627   58.2511   58.3798 C   0  0  0  0  0  0  0  0  0  0  0  0
  -47.0210   58.3103   57.1357 C   0  0  0  0  0  0  0  0  0  0  0  0
 21 22  1  0  0  0
  4  5  2  0  0  0
 25 24  1  0  0  0
 25 26  2  0  0  0
 25 27  1  0  0  0
 25 29  1  0  0  0
 22 20  1  0  0  0
  3  5  1  0  0  0
  3  2  1  0  0  0
 20 19  1  0  0  0
 24 23  1  0  0  0
 19 18  1  0  0  0
 18 17  1  0  0  0
 27 28  1  0  0  0
 17 16  1  0  0  0
 29 30  1  0  0  0
 16 15  1  0  0  0
 34 35  1  0  0  0
 34 36  1  0  0  0
 15 14  1  0  0  0
 31 32  1  0  0  0
 31 33  1  0  0  0
 14 13  1  0  0  0
 37  1  1  0  0  0
 37 39  1  0  0  0
 13 12  1  0  0  0
 38 39  2  0  0  0
 12 11  1  0  0  0
 11 10  1  0  0  0
 10  9  1  0  0  0
  9  8  1  0  0  0
  8  7  1  0  0  0
  7  6  1  0  0  0
  6  5  1  0  0  0
  2  1  1  0  0  0
  1 23  1  0  0  0
 30 32  1  0  0  0
 32 35  1  0  0  0
 39 40  1  0  0  0
 40 41  1  0  0  0
 41 42  1  0  0  0
 42 43  1  0  0  0
 43 44  1  0  0  0
 44 45  1  0  0  0
 45 46  1  0  0  0
 46 47  1  0  0  0
 47 48  2  0  0  0
 48 49  1  0  0  0
 49 50  1  0  0  0
 50 51  1  0  0  0
 51 52  1  0  0  0
 52 53  1  0  0  0
 53 54  1  0  0  0
 54 55  1  0  0  0
 55 56  1  0  0  0
M  CHG 1  26  -1
M  END
> <minimizedAffinity>
-8.31570

> <CNNscore>
0.2153015286

> <CNNaffinity>
7.5757751465

> <CNN_VS>
1.6310759783

> <CNNaffinity_variance>
0.8018697500

$$$$
/media/chris/experiments/cd1a-new-docking/inputs/ligands/7sh4_ligand.pdb


 56 55  0  0  0  0  0  0  0  0999 V2000
  -45.9505   59.4198   66.2151 C   0  0  0  0  0  0  0  0  0  0  0  0
  -45.6833   57.9510   66.0450 C   0  0  0  0  0  0  0  0  0  0  0  0
  -44.6846   57.8959   65.0044 O   0  0  0  0  0  0  0  0  0  0  0  0
  -42.9951   57.5687   66.4320 O   0  0  0  0  0  0  0  0  0  0  0  0
  -43.4840   57.4257   65.3438 C   0  0  0  0  0  0  0  0  0  0  0  0
  -42.8931   56.5985   64.2385 C   0  0  0  0  0  0  0  0  0  0  0  0
  -41.3835   56.4461   64.3165 C   0  0  0  0  0  0  0  0  0  0  0  0
  -40.6932   56.7692   63.0082 C   0  0  0  0  0  0  0  0  0  0  0  0
  -41.6138   57.3159   61.9408 C   0  0  0  0  0  0  0  0  0  0  0  0
  -41.3974   56.6744   60.5851 C   0  0  0  0  0  0  0  0  0  0  0  0
  -40.9136   57.6476   59.5380 C   0  0  0  0  0  0  0  0  0  0  0  0
  -40.6554   59.0249   60.0894 C   0  0  0  0  0  0  0  0  0  0  0  0
  -39.3078   59.5870   59.6943 C   0  0  0  0  0  0  0  0  0  0  0  0
  -38.1591   58.6740   60.0727 C   0  0  0  0  0  0  0  0  0  0  0  0
  -38.0588   58.3897   61.5567 C   0  0  0  0  0  0  0  0  0  0  0  0
  -36.6897   58.6983   62.1519 C   0  0  0  0  0  0  0  0  0  0  0  0
  -36.2172   57.6798   63.1715 C   0  0  0  0  0  0  0  0  0  0  0  0
  -34.8637   58.0084   63.7678 C   0  0  0  0  0  0  0  0  0  0  0  0
  -33.7174   57.9091   62.7710 C   0  0  0  0  0  0  0  0  0  0  0  0
  -32.4400   58.5789   63.2450 C   0  0  0  0  0  0  0  0  0  0  0  0
  -30.6872   60.2246   62.5001 C   0  0  0  0  0  0  0  0  0  0  0  0
  -32.1661   59.9351   62.6233 C   0  0  0  0  0  0  0  0  0  0  0  0
  -47.4038   59.7019   66.4977 C   0  0  0  0  0  0  0  0  0  0  0  0
  -48.2063   59.0879   65.4646 O   0  0  0  0  0  0  0  0  0  0  0  0
  -49.6132   59.6850   64.9892 P   0  0  0  0  0  0  0  0  0  0  0  0
  -50.5221   59.6994   66.1556 O   0  0  0  0  0  0  0  0  0  0  0  0
  -49.3560   60.9564   64.2708 O   0  0  0  0  0  0  0  0  0  0  0  0
  -49.0072   61.6142   64.8925 H   0  0  0  0  0  0  0  0  0  0  0  0
  -50.1837   58.6334   63.9349 O   0  0  0  0  0  0  0  0  0  0  0  0
  -50.7177   59.0912   62.6759 C   0  0  0  0  0  0  0  0  0  0  0  0
  -51.2387   57.3553   61.1082 O   0  0  0  0  0  0  0  0  0  0  0  0
  -50.1852   58.2000   61.5809 C   0  0  0  0  0  0  0  0  0  0  0  0
  -51.6103   56.8551   61.8517 H   0  0  0  0  0  0  0  0  0  0  0  0
  -50.1428   58.5578   59.1958 O   0  0  0  0  0  0  0  0  0  0  0  0
  -49.5946   58.9869   60.4356 C   0  0  0  0  0  0  0  0  0  0  0  0
  -49.7520   59.0740   58.4735 H   0  0  0  0  0  0  0  0  0  0  0  0
  -45.4881   60.1156   65.0101 O   0  0  0  0  0  0  0  0  0  0  0  0
  -43.7415   60.9700   66.1413 O   0  0  0  0  0  0  0  0  0  0  0  0
  -44.3573   60.8393   65.1190 C   0  0  0  0  0  0  0  0  0  0  0  0
  -43.9512   61.4445   63.8110 C   0  0  0  0  0  0  0  0  0  0  0  0
  -42.9506   60.5608   63.0730 C   0  0  0  0  0  0  0  0  0  0  0  0
  -41.7319   61.3079   62.5569 C   0  0  0  0  0  0  0  0  0  0  0  0
  -40.4274   60.8767   63.2175 C   0  0  0  0  0  0  0  0  0  0  0  0
  -40.6168   60.0820   64.4961 C   0  0  0  0  0  0  0  0  0  0  0  0
  -39.3244   59.5149   65.0906 C   0  0  0  0  0  0  0  0  0  0  0  0
  -38.4698   60.5182   65.8682 C   0  0  0  0  0  0  0  0  0  0  0  0
  -37.0293   60.4729   65.4549 C   0  0  0  0  0  0  0  0  0  0  0  0
  -36.3853   61.3782   64.7441 C   0  0  0  0  0  0  0  0  0  0  0  0
  -36.9616   62.6471   64.2002 C   0  0  0  0  0  0  0  0  0  0  0  0
  -36.1595   63.8765   64.6169 C   0  0  0  0  0  0  0  0  0  0  0  0
  -35.9230   63.9712   66.1140 C   0  0  0  0  0  0  0  0  0  0  0  0
  -34.4916   63.6724   66.5254 C   0  0  0  0  0  0  0  0  0  0  0  0
  -33.6505   64.9039   66.8182 C   0  0  0  0  0  0  0  0  0  0  0  0
  -32.5590   65.1505   65.7879 C   0  0  0  0  0  0  0  0  0  0  0  0
  -32.8094   66.3463   64.8905 C   0  0  0  0  0  0  0  0  0  0  0  0
  -33.1875   65.9530   63.4898 C   0  0  0  0  0  0  0  0  0  0  0  0
 21 22  1  0  0  0
  4  5  2  0  0  0
 25 24  1  0  0  0
 25 26  2  0  0  0
 25 27  1  0  0  0
 25 29  1  0  0  0
 22 20  1  0  0  0
  3  5  1  0  0  0
  3  2  1  0  0  0
 20 19  1  0  0  0
 24 23  1  0  0  0
 19 18  1  0  0  0
 18 17  1  0  0  0
 27 28  1  0  0  0
 17 16  1  0  0  0
 29 30  1  0  0  0
 16 15  1  0  0  0
 34 35  1  0  0  0
 34 36  1  0  0  0
 15 14  1  0  0  0
 31 32  1  0  0  0
 31 33  1  0  0  0
 14 13  1  0  0  0
 37  1  1  0  0  0
 37 39  1  0  0  0
 13 12  1  0  0  0
 38 39  2  0  0  0
 12 11  1  0  0  0
 11 10  1  0  0  0
 10  9  1  0  0  0
  9  8  1  0  0  0
  8  7  1  0  0  0
  7  6  1  0  0  0
  6  5  1  0  0  0
  2  1  1  0  0  0
  1 23  1  0  0  0
 30 32  1  0  0  0
 32 35  1  0  0  0
 39 40  1  0  0  0
 40 41  1  0  0  0
 41 42  1  0  0  0
 42 43  1  0  0  0
 43 44  1  0  0  0
 44 45  1  0  0  0
 45 46  1  0  0  0
 46 47  1  0  0  0
 47 48  2  0  0  0
 48 49  1  0  0  0
 49 50  1  0  0  0
 50 51  1  0  0  0
 51 52  1  0  0  0
 52 53  1  0  0  0
 53 54  1  0  0  0
 54 55  1  0  0  0
 55 56  1  0  0  0
M  CHG 1  26  -1
M  END
> <minimizedAffinity>
-7.47310

> <CNNscore>
0.2044285089

> <CNNaffinity>
7.1261224747

> <CNN_VS>
1.4567825794

> <CNNaffinity_variance>
1.7672134638

$$$$
/media/chris/experiments/cd1a-new-docking/inputs/ligands/7sh4_ligand.pdb


 56 55  0  0  0  0  0  0  0  0999 V2000
  -39.2641   60.1174   61.5302 C   0  0  0  0  0  0  0  0  0  0  0  0
  -39.4376   58.7072   62.0189 C   0  0  0  0  0  0  0  0  0  0  0  0
  -40.0766   58.0313   60.9152 O   0  0  0  0  0  0  0  0  0  0  0  0
  -41.3650   56.2452   60.5290 O   0  0  0  0  0  0  0  0  0  0  0  0
  -41.0620   57.1844   61.2144 C   0  0  0  0  0  0  0  0  0  0  0  0
  -41.6458   57.4865   62.5645 C   0  0  0  0  0  0  0  0  0  0  0  0
  -41.7897   56.2710   63.4645 C   0  0  0  0  0  0  0  0  0  0  0  0
  -42.6407   56.5440   64.6868 C   0  0  0  0  0  0  0  0  0  0  0  0
  -43.6542   57.6504   64.5012 C   0  0  0  0  0  0  0  0  0  0  0  0
  -44.7536   57.6290   65.5438 C   0  0  0  0  0  0  0  0  0  0  0  0
  -45.8617   58.6130   65.2587 C   0  0  0  0  0  0  0  0  0  0  0  0
  -46.4322   59.2344   66.5061 C   0  0  0  0  0  0  0  0  0  0  0  0
  -47.8569   59.7147   66.3402 C   0  0  0  0  0  0  0  0  0  0  0  0
  -48.4777   59.2649   65.0331 C   0  0  0  0  0  0  0  0  0  0  0  0
  -49.9460   58.9086   65.1367 C   0  0  0  0  0  0  0  0  0  0  0  0
  -50.8657   59.8605   64.3805 C   0  0  0  0  0  0  0  0  0  0  0  0
  -51.1767   59.4205   62.9628 C   0  0  0  0  0  0  0  0  0  0  0  0
  -50.2790   60.0601   61.9234 C   0  0  0  0  0  0  0  0  0  0  0  0
  -49.4519   59.0573   61.1312 C   0  0  0  0  0  0  0  0  0  0  0  0
  -50.2545   58.2919   60.0943 C   0  0  0  0  0  0  0  0  0  0  0  0
  -48.1884   58.4960   58.6712 C   0  0  0  0  0  0  0  0  0  0  0  0
  -49.4306   57.6886   58.9727 C   0  0  0  0  0  0  0  0  0  0  0  0
  -37.9176   60.6837   61.9017 C   0  0  0  0  0  0  0  0  0  0  0  0
  -38.1168   61.8739   62.6967 O   0  0  0  0  0  0  0  0  0  0  0  0
  -36.9080   62.6850   63.3620 P   0  0  0  0  0  0  0  0  0  0  0  0
  -35.6856   61.8607   63.2476 O   0  0  0  0  0  0  0  0  0  0  0  0
  -36.9006   64.0533   62.7907 O   0  0  0  0  0  0  0  0  0  0  0  0
  -36.6772   64.0088   61.8478 H   0  0  0  0  0  0  0  0  0  0  0  0
  -37.2786   62.8020   64.9086 O   0  0  0  0  0  0  0  0  0  0  0  0
  -36.3101   62.4353   65.9123 C   0  0  0  0  0  0  0  0  0  0  0  0
  -36.0630   64.1830   67.5331 O   0  0  0  0  0  0  0  0  0  0  0  0
  -35.5390   63.6719   66.3038 C   0  0  0  0  0  0  0  0  0  0  0  0
  -37.0137   64.3488   67.4353 H   0  0  0  0  0  0  0  0  0  0  0  0
  -33.6255   63.6416   67.7721 O   0  0  0  0  0  0  0  0  0  0  0  0
  -34.0586   63.4077   66.4381 C   0  0  0  0  0  0  0  0  0  0  0  0
  -32.6737   63.4667   67.8384 H   0  0  0  0  0  0  0  0  0  0  0  0
  -40.3602   60.9300   62.0669 O   0  0  0  0  0  0  0  0  0  0  0  0
  -41.3790   60.9550   60.0615 O   0  0  0  0  0  0  0  0  0  0  0  0
  -41.3913   61.1873   61.2394 C   0  0  0  0  0  0  0  0  0  0  0  0
  -42.5590   61.7793   61.9662 C   0  0  0  0  0  0  0  0  0  0  0  0
  -43.0806   60.8374   63.0467 C   0  0  0  0  0  0  0  0  0  0  0  0
  -43.8005   61.5428   64.1843 C   0  0  0  0  0  0  0  0  0  0  0  0
  -42.9224   61.7794   65.4078 C   0  0  0  0  0  0  0  0  0  0  0  0
  -42.9226   60.6302   66.3987 C   0  0  0  0  0  0  0  0  0  0  0  0
  -41.5414   60.0312   66.6791 C   0  0  0  0  0  0  0  0  0  0  0  0
  -40.7242   59.6683   65.4373 C   0  0  0  0  0  0  0  0  0  0  0  0
  -39.3257   60.2045   65.5049 C   0  0  0  0  0  0  0  0  0  0  0  0
  -38.2099   59.5084   65.4048 C   0  0  0  0  0  0  0  0  0  0  0  0
  -38.1072   58.0299   65.2003 C   0  0  0  0  0  0  0  0  0  0  0  0
  -36.7206   57.6024   64.7280 C   0  0  0  0  0  0  0  0  0  0  0  0
  -35.7336   58.7510   64.6166 C   0  0  0  0  0  0  0  0  0  0  0  0
  -34.2811   58.3197   64.7234 C   0  0  0  0  0  0  0  0  0  0  0  0
  -33.2782   59.3667   64.2679 C   0  0  0  0  0  0  0  0  0  0  0  0
  -32.3073   58.8570   63.2137 C   0  0  0  0  0  0  0  0  0  0  0  0
  -31.4364   59.9339   62.5977 C   0  0  0  0  0  0  0  0  0  0  0  0
  -32.1806   61.2183   62.3600 C   0  0  0  0  0  0  0  0  0  0  0  0
 21 22  1  0  0  0
  4  5  2  0  0  0
 25 24  1  0  0  0
 25 26  2  0  0  0
 25 27  1  0  0  0
 25 29  1  0  0  0
 22 20  1  0  0  0
  3  5  1  0  0  0
  3  2  1  0  0  0
 20 19  1  0  0  0
 24 23  1  0  0  0
 19 18  1  0  0  0
 18 17  1  0  0  0
 27 28  1  0  0  0
 17 16  1  0  0  0
 29 30  1  0  0  0
 16 15  1  0  0  0
 34 35  1  0  0  0
 34 36  1  0  0  0
 15 14  1  0  0  0
 31 32  1  0  0  0
 31 33  1  0  0  0
 14 13  1  0  0  0
 37  1  1  0  0  0
 37 39  1  0  0  0
 13 12  1  0  0  0
 38 39  2  0  0  0
 12 11  1  0  0  0
 11 10  1  0  0  0
 10  9  1  0  0  0
  9  8  1  0  0  0
  8  7  1  0  0  0
  7  6  1  0  0  0
  6  5  1  0  0  0
  2  1  1  0  0  0
  1 23  1  0  0  0
 30 32  1  0  0  0
 32 35  1  0  0  0
 39 40  1  0  0  0
 40 41  1  0  0  0
 41 42  1  0  0  0
 42 43  1  0  0  0
 43 44  1  0  0  0
 44 45  1  0  0  0
 45 46  1  0  0  0
 46 47  1  0  0  0
 47 48  2  0  0  0
 48 49  1  0  0  0
 49 50  1  0  0  0
 50 51  1  0  0  0
 51 52  1  0  0  0
 52 53  1  0  0  0
 53 54  1  0  0  0
 54 55  1  0  0  0
 55 56  1  0  0  0
M  CHG 1  26  -1
M  END
> <minimizedAffinity>
-8.36689

> <CNNscore>
0.2000457644

> <CNNaffinity>
7.1548981667

> <CNN_VS>
1.4313070774

> <CNNaffinity_variance>
1.7945537567

$$$$
/media/chris/experiments/cd1a-new-docking/inputs/ligands/7sh4_ligand.pdb


 56 55  0  0  0  0  0  0  0  0999 V2000
  -41.9313   58.5728   65.0435 C   0  0  0  0  0  0  0  0  0  0  0  0
  -42.6721   57.7231   66.0369 C   0  0  0  0  0  0  0  0  0  0  0  0
  -44.0305   57.7196   65.5490 O   0  0  0  0  0  0  0  0  0  0  0  0
  -45.3016   57.3066   67.3416 O   0  0  0  0  0  0  0  0  0  0  0  0
  -44.9883   58.0197   66.4267 C   0  0  0  0  0  0  0  0  0  0  0  0
  -45.5237   59.4032   66.1936 C   0  0  0  0  0  0  0  0  0  0  0  0
  -47.0388   59.4759   66.1073 C   0  0  0  0  0  0  0  0  0  0  0  0
  -47.6134   58.5282   65.0757 C   0  0  0  0  0  0  0  0  0  0  0  0
  -49.1085   58.3302   65.1812 C   0  0  0  0  0  0  0  0  0  0  0  0
  -49.8175   59.5004   65.8324 C   0  0  0  0  0  0  0  0  0  0  0  0
  -50.2215   60.5718   64.8493 C   0  0  0  0  0  0  0  0  0  0  0  0
  -51.5185   60.2674   64.1474 C   0  0  0  0  0  0  0  0  0  0  0  0
  -51.3353   59.8246   62.7127 C   0  0  0  0  0  0  0  0  0  0  0  0
  -50.0453   60.3348   62.1029 C   0  0  0  0  0  0  0  0  0  0  0  0
  -49.5710   59.5389   60.9050 C   0  0  0  0  0  0  0  0  0  0  0  0
  -48.8945   58.2222   61.2689 C   0  0  0  0  0  0  0  0  0  0  0  0
  -49.6108   56.9945   60.7396 C   0  0  0  0  0  0  0  0  0  0  0  0
  -48.7133   56.0718   59.9406 C   0  0  0  0  0  0  0  0  0  0  0  0
  -47.8895   56.7893   58.8804 C   0  0  0  0  0  0  0  0  0  0  0  0
  -48.6152   56.9574   57.5575 C   0  0  0  0  0  0  0  0  0  0  0  0
  -46.5996   58.3872   57.0792 C   0  0  0  0  0  0  0  0  0  0  0  0
  -47.8727   57.7868   56.5271 C   0  0  0  0  0  0  0  0  0  0  0  0
  -42.6460   58.6482   63.7186 C   0  0  0  0  0  0  0  0  0  0  0  0
  -42.8596   60.0377   63.3838 O   0  0  0  0  0  0  0  0  0  0  0  0
  -41.8655   60.8657   62.4415 P   0  0  0  0  0  0  0  0  0  0  0  0
  -42.6780   61.7773   61.6075 O   0  0  0  0  0  0  0  0  0  0  0  0
  -40.7959   61.4414   63.2918 O   0  0  0  0  0  0  0  0  0  0  0  0
  -41.1783   62.1040   63.8880 H   0  0  0  0  0  0  0  0  0  0  0  0
  -41.1973   59.7841   61.4789 O   0  0  0  0  0  0  0  0  0  0  0  0
  -40.9447   60.1070   60.0962 C   0  0  0  0  0  0  0  0  0  0  0  0
  -38.7378   60.3034   61.0090 O   0  0  0  0  0  0  0  0  0  0  0  0
  -39.4679   59.9454   59.8319 C   0  0  0  0  0  0  0  0  0  0  0  0
  -38.9750   61.2057   61.2748 H   0  0  0  0  0  0  0  0  0  0  0  0
  -40.2609   57.7064   59.4116 O   0  0  0  0  0  0  0  0  0  0  0  0
  -39.1107   58.5423   59.4038 C   0  0  0  0  0  0  0  0  0  0  0  0
  -40.0118   56.8110   59.1341 H   0  0  0  0  0  0  0  0  0  0  0  0
  -40.5749   58.0354   64.8973 O   0  0  0  0  0  0  0  0  0  0  0  0
  -39.5920   59.9050   65.6711 O   0  0  0  0  0  0  0  0  0  0  0  0
  -39.5570   58.9117   64.9975 C   0  0  0  0  0  0  0  0  0  0  0  0
  -38.3723   58.4899   64.1846 C   0  0  0  0  0  0  0  0  0  0  0  0
  -37.3081   57.8245   65.0514 C   0  0  0  0  0  0  0  0  0  0  0  0
  -35.8830   58.1252   64.6172 C   0  0  0  0  0  0  0  0  0  0  0  0
  -35.6512   57.9477   63.1210 C   0  0  0  0  0  0  0  0  0  0  0  0
  -34.1873   57.8898   62.7261 C   0  0  0  0  0  0  0  0  0  0  0  0
  -33.2151   58.3492   63.8165 C   0  0  0  0  0  0  0  0  0  0  0  0
  -32.5599   59.7106   63.5739 C   0  0  0  0  0  0  0  0  0  0  0  0
  -32.0540   59.8517   62.1696 C   0  0  0  0  0  0  0  0  0  0  0  0
  -31.5503   60.9396   61.6197 C   0  0  0  0  0  0  0  0  0  0  0  0
  -31.3767   62.2669   62.2876 C   0  0  0  0  0  0  0  0  0  0  0  0
  -32.6541   63.1013   62.2658 C   0  0  0  0  0  0  0  0  0  0  0  0
  -32.5732   64.3617   63.1089 C   0  0  0  0  0  0  0  0  0  0  0  0
  -32.6349   64.1004   64.6040 C   0  0  0  0  0  0  0  0  0  0  0  0
  -34.0199   63.7561   65.1264 C   0  0  0  0  0  0  0  0  0  0  0  0
  -34.1171   62.3529   65.7052 C   0  0  0  0  0  0  0  0  0  0  0  0
  -35.3737   61.6027   65.3099 C   0  0  0  0  0  0  0  0  0  0  0  0
  -35.7167   61.7685   63.8557 C   0  0  0  0  0  0  0  0  0  0  0  0
 21 22  1  0  0  0
  4  5  2  0  0  0
 25 24  1  0  0  0
 25 26  2  0  0  0
 25 27  1  0  0  0
 25 29  1  0  0  0
 22 20  1  0  0  0
  3  5  1  0  0  0
  3  2  1  0  0  0
 20 19  1  0  0  0
 24 23  1  0  0  0
 19 18  1  0  0  0
 18 17  1  0  0  0
 27 28  1  0  0  0
 17 16  1  0  0  0
 29 30  1  0  0  0
 16 15  1  0  0  0
 34 35  1  0  0  0
 34 36  1  0  0  0
 15 14  1  0  0  0
 31 32  1  0  0  0
 31 33  1  0  0  0
 14 13  1  0  0  0
 37  1  1  0  0  0
 37 39  1  0  0  0
 13 12  1  0  0  0
 38 39  2  0  0  0
 12 11  1  0  0  0
 11 10  1  0  0  0
 10  9  1  0  0  0
  9  8  1  0  0  0
  8  7  1  0  0  0
  7  6  1  0  0  0
  6  5  1  0  0  0
  2  1  1  0  0  0
  1 23  1  0  0  0
 30 32  1  0  0  0
 32 35  1  0  0  0
 39 40  1  0  0  0
 40 41  1  0  0  0
 41 42  1  0  0  0
 42 43  1  0  0  0
 43 44  1  0  0  0
 44 45  1  0  0  0
 45 46  1  0  0  0
 46 47  1  0  0  0
 47 48  2  0  0  0
 48 49  1  0  0  0
 49 50  1  0  0  0
 50 51  1  0  0  0
 51 52  1  0  0  0
 52 53  1  0  0  0
 53 54  1  0  0  0
 54 55  1  0  0  0
 55 56  1  0  0  0
M  CHG 1  26  -1
M  END
> <minimizedAffinity>
-7.90103

> <CNNscore>
0.1935498267

> <CNNaffinity>
6.5710616112

> <CNN_VS>
1.2718278170

> <CNNaffinity_variance>
0.9945071936

$$$$
