/media/chris/experiments/cd1a-new-docking/inputs/ligands/7sh4_ligand.pdb


 56 55  0  0  0  0  0  0  0  0999 V2000
  -41.0693   60.1934   64.6423 C   0  0  0  0  0  0  0  0  0  0  0  0
  -40.9005   58.9558   63.8071 C   0  0  0  0  0  0  0  0  0  0  0  0
  -41.7776   57.9927   64.4286 O   0  0  0  0  0  0  0  0  0  0  0  0
  -42.2609   55.8122   64.5356 O   0  0  0  0  0  0  0  0  0  0  0  0
  -41.6467   56.7219   64.0468 C   0  0  0  0  0  0  0  0  0  0  0  0
  -40.7372   56.6035   62.8578 C   0  0  0  0  0  0  0  0  0  0  0  0
  -41.3017   55.7614   61.7261 C   0  0  0  0  0  0  0  0  0  0  0  0
  -41.2212   56.4550   60.3827 C   0  0  0  0  0  0  0  0  0  0  0  0
  -41.7714   57.8633   60.3790 C   0  0  0  0  0  0  0  0  0  0  0  0
  -40.8292   58.8668   59.7454 C   0  0  0  0  0  0  0  0  0  0  0  0
  -39.6360   58.2241   59.0815 C   0  0  0  0  0  0  0  0  0  0  0  0
  -38.3489   58.9602   59.3449 C   0  0  0  0  0  0  0  0  0  0  0  0
  -38.1623   59.3428   60.7963 C   0  0  0  0  0  0  0  0  0  0  0  0
  -37.6387   58.1986   61.6406 C   0  0  0  0  0  0  0  0  0  0  0  0
  -36.1893   58.3477   62.0531 C   0  0  0  0  0  0  0  0  0  0  0  0
  -35.8428   57.6347   63.3552 C   0  0  0  0  0  0  0  0  0  0  0  0
  -34.6028   58.1739   64.0420 C   0  0  0  0  0  0  0  0  0  0  0  0
  -33.3658   58.1353   63.1681 C   0  0  0  0  0  0  0  0  0  0  0  0
  -32.4113   59.2962   63.4099 C   0  0  0  0  0  0  0  0  0  0  0  0
  -32.1289   60.1200   62.1662 C   0  0  0  0  0  0  0  0  0  0  0  0
  -33.1267   61.9575   63.5676 C   0  0  0  0  0  0  0  0  0  0  0  0
  -32.3132   61.6156   62.3400 C   0  0  0  0  0  0  0  0  0  0  0  0
  -40.2075   60.1640   65.8785 C   0  0  0  0  0  0  0  0  0  0  0  0
  -39.3669   61.3394   65.8875 O   0  0  0  0  0  0  0  0  0  0  0  0
  -37.9032   61.3641   65.2402 P   0  0  0  0  0  0  0  0  0  0  0  0
  -37.3253   60.0085   65.3634 O   0  0  0  0  0  0  0  0  0  0  0  0
  -38.0045   61.9756   63.8932 O   0  0  0  0  0  0  0  0  0  0  0  0
  -38.5204   61.3947   63.3123 H   0  0  0  0  0  0  0  0  0  0  0  0
  -37.0504   62.3471   66.1616 O   0  0  0  0  0  0  0  0  0  0  0  0
  -36.2030   63.3468   65.5596 C   0  0  0  0  0  0  0  0  0  0  0  0
  -36.1994   63.8104   67.9107 O   0  0  0  0  0  0  0  0  0  0  0  0
  -35.6689   64.2390   66.6530 C   0  0  0  0  0  0  0  0  0  0  0  0
  -37.1685   63.8075   67.8686 H   0  0  0  0  0  0  0  0  0  0  0  0
  -33.6790   63.2707   67.6130 O   0  0  0  0  0  0  0  0  0  0  0  0
  -34.1597   64.2495   66.7005 C   0  0  0  0  0  0  0  0  0  0  0  0
  -32.7094   63.2926   67.6296 H   0  0  0  0  0  0  0  0  0  0  0  0
  -42.4901   60.3349   64.9757 O   0  0  0  0  0  0  0  0  0  0  0  0
  -42.5638   62.3937   64.0724 O   0  0  0  0  0  0  0  0  0  0  0  0
  -43.1259   61.4188   64.4910 C   0  0  0  0  0  0  0  0  0  0  0  0
  -44.6141   61.2549   64.5194 C   0  0  0  0  0  0  0  0  0  0  0  0
  -45.0134   59.8531   64.9689 C   0  0  0  0  0  0  0  0  0  0  0  0
  -45.5007   59.7824   66.4069 C   0  0  0  0  0  0  0  0  0  0  0  0
  -46.5132   58.6698   66.6536 C   0  0  0  0  0  0  0  0  0  0  0  0
  -47.4791   58.4487   65.5045 C   0  0  0  0  0  0  0  0  0  0  0  0
  -48.8189   59.1758   65.6499 C   0  0  0  0  0  0  0  0  0  0  0  0
  -48.8836   60.5590   64.9987 C   0  0  0  0  0  0  0  0  0  0  0  0
  -48.5184   60.5166   63.5452 C   0  0  0  0  0  0  0  0  0  0  0  0
  -49.3110   60.1879   62.5435 C   0  0  0  0  0  0  0  0  0  0  0  0
  -50.7487   59.7880   62.6501 C   0  0  0  0  0  0  0  0  0  0  0  0
  -50.9682   58.3128   62.3269 C   0  0  0  0  0  0  0  0  0  0  0  0
  -50.5982   57.9394   60.9022 C   0  0  0  0  0  0  0  0  0  0  0  0
  -49.6074   56.7918   60.8104 C   0  0  0  0  0  0  0  0  0  0  0  0
  -48.4949   56.9999   59.7962 C   0  0  0  0  0  0  0  0  0  0  0  0
  -48.8848   57.9210   58.6502 C   0  0  0  0  0  0  0  0  0  0  0  0
  -47.7312   58.7159   58.0711 C   0  0  0  0  0  0  0  0  0  0  0  0
  -46.8634   57.8984   57.1555 C   0  0  0  0  0  0  0  0  0  0  0  0
 21 22  1  0  0  0
  4  5  2  0  0  0
 25 24  1  0  0  0
 25 26  2  0  0  0
 25 27  1  0  0  0
 25 29  1  0  0  0
 22 20  1  0  0  0
  3  5  1  0  0  0
  3  2  1  0  0  0
 20 19  1  0  0  0
 24 23  1  0  0  0
 19 18  1  0  0  0
 18 17  1  0  0  0
 27 28  1  0  0  0
 17 16  1  0  0  0
 29 30  1  0  0  0
 16 15  1  0  0  0
 34 35  1  0  0  0
 34 36  1  0  0  0
 15 14  1  0  0  0
 31 32  1  0  0  0
 31 33  1  0  0  0
 14 13  1  0  0  0
 37  1  1  0  0  0
 37 39  1  0  0  0
 13 12  1  0  0  0
 38 39  2  0  0  0
 12 11  1  0  0  0
 11 10  1  0  0  0
 10  9  1  0  0  0
  9  8  1  0  0  0
  8  7  1  0  0  0
  7  6  1  0  0  0
  6  5  1  0  0  0
  2  1  1  0  0  0
  1 23  1  0  0  0
 30 32  1  0  0  0
 32 35  1  0  0  0
 39 40  1  0  0  0
 40 41  1  0  0  0
 41 42  1  0  0  0
 42 43  1  0  0  0
 43 44  1  0  0  0
 44 45  1  0  0  0
 45 46  1  0  0  0
 46 47  1  0  0  0
 47 48  2  0  0  0
 48 49  1  0  0  0
 49 50  1  0  0  0
 50 51  1  0  0  0
 51 52  1  0  0  0
 52 53  1  0  0  0
 53 54  1  0  0  0
 54 55  1  0  0  0
 55 56  1  0  0  0
M  CHG 1  26  -1
M  END
> <minimizedAffinity>
-8.93121

> <CNNscore>
0.4437839687

> <CNNaffinity>
7.4632606506

> <CNN_VS>
3.3120753765

> <CNNaffinity_variance>
1.3533927202

$$$$
/media/chris/experiments/cd1a-new-docking/inputs/ligands/7sh4_ligand.pdb


 56 55  0  0  0  0  0  0  0  0999 V2000
  -40.4232   59.9928   64.2084 C   0  0  0  0  0  0  0  0  0  0  0  0
  -40.7239   60.6440   62.8881 C   0  0  0  0  0  0  0  0  0  0  0  0
  -42.1465   60.4630   62.7254 O   0  0  0  0  0  0  0  0  0  0  0  0
  -42.7025   62.3315   61.6303 O   0  0  0  0  0  0  0  0  0  0  0  0
  -42.8775   61.5619   62.5363 C   0  0  0  0  0  0  0  0  0  0  0  0
  -44.0099   61.6362   63.5197 C   0  0  0  0  0  0  0  0  0  0  0  0
  -43.5809   61.5038   64.9712 C   0  0  0  0  0  0  0  0  0  0  0  0
  -44.1907   60.2986   65.6553 C   0  0  0  0  0  0  0  0  0  0  0  0
  -45.7003   60.2469   65.5892 C   0  0  0  0  0  0  0  0  0  0  0  0
  -46.2375   58.8455   65.3803 C   0  0  0  0  0  0  0  0  0  0  0  0
  -47.6486   58.8238   64.8460 C   0  0  0  0  0  0  0  0  0  0  0  0
  -48.4910   59.9601   65.3627 C   0  0  0  0  0  0  0  0  0  0  0  0
  -49.5779   60.3871   64.4013 C   0  0  0  0  0  0  0  0  0  0  0  0
  -49.0819   60.5115   62.9749 C   0  0  0  0  0  0  0  0  0  0  0  0
  -50.0988   60.1043   61.9292 C   0  0  0  0  0  0  0  0  0  0  0  0
  -50.6765   58.7098   62.1419 C   0  0  0  0  0  0  0  0  0  0  0  0
  -50.6550   57.8380   60.9011 C   0  0  0  0  0  0  0  0  0  0  0  0
  -49.5753   56.7756   60.9305 C   0  0  0  0  0  0  0  0  0  0  0  0
  -48.5643   56.9015   59.7993 C   0  0  0  0  0  0  0  0  0  0  0  0
  -48.9165   57.9762   58.7864 C   0  0  0  0  0  0  0  0  0  0  0  0
  -47.0024   57.5932   57.1971 C   0  0  0  0  0  0  0  0  0  0  0  0
  -47.7270   58.5902   58.0728 C   0  0  0  0  0  0  0  0  0  0  0  0
  -39.3724   60.7448   64.9843 C   0  0  0  0  0  0  0  0  0  0  0  0
  -38.1142   60.6452   64.2805 O   0  0  0  0  0  0  0  0  0  0  0  0
  -37.1111   61.8818   64.1175 P   0  0  0  0  0  0  0  0  0  0  0  0
  -35.7501   61.3427   63.9077 O   0  0  0  0  0  0  0  0  0  0  0  0
  -37.6762   62.8039   63.1033 O   0  0  0  0  0  0  0  0  0  0  0  0
  -37.6748   62.3703   62.2355 H   0  0  0  0  0  0  0  0  0  0  0  0
  -37.1312   62.6302   65.5254 O   0  0  0  0  0  0  0  0  0  0  0  0
  -36.5160   63.9275   65.6618 C   0  0  0  0  0  0  0  0  0  0  0  0
  -36.0524   62.8095   67.7301 O   0  0  0  0  0  0  0  0  0  0  0  0
  -35.6824   63.9289   66.9196 C   0  0  0  0  0  0  0  0  0  0  0  0
  -37.0048   62.8422   67.9111 H   0  0  0  0  0  0  0  0  0  0  0  0
  -33.4908   63.2986   67.7058 O   0  0  0  0  0  0  0  0  0  0  0  0
  -34.2014   63.8940   66.6277 C   0  0  0  0  0  0  0  0  0  0  0  0
  -32.5430   63.2853   67.5001 H   0  0  0  0  0  0  0  0  0  0  0  0
  -40.0217   58.6050   63.9577 O   0  0  0  0  0  0  0  0  0  0  0  0
  -41.6112   57.5686   65.1658 O   0  0  0  0  0  0  0  0  0  0  0  0
  -40.9517   57.6533   64.1660 C   0  0  0  0  0  0  0  0  0  0  0  0
  -41.0772   56.7267   62.9964 C   0  0  0  0  0  0  0  0  0  0  0  0
  -41.8560   57.3711   61.8541 C   0  0  0  0  0  0  0  0  0  0  0  0
  -41.2012   57.2070   60.4923 C   0  0  0  0  0  0  0  0  0  0  0  0
  -40.6566   58.5093   59.9166 C   0  0  0  0  0  0  0  0  0  0  0  0
  -39.5076   58.3208   58.9437 C   0  0  0  0  0  0  0  0  0  0  0  0
  -38.1759   58.9175   59.4078 C   0  0  0  0  0  0  0  0  0  0  0  0
  -38.0319   59.0911   60.9213 C   0  0  0  0  0  0  0  0  0  0  0  0
  -37.8868   57.7775   61.6293 C   0  0  0  0  0  0  0  0  0  0  0  0
  -36.8772   57.4001   62.3895 C   0  0  0  0  0  0  0  0  0  0  0  0
  -35.6601   58.2101   62.7066 C   0  0  0  0  0  0  0  0  0  0  0  0
  -35.0968   57.8975   64.0900 C   0  0  0  0  0  0  0  0  0  0  0  0
  -33.7721   58.5821   64.3776 C   0  0  0  0  0  0  0  0  0  0  0  0
  -32.6650   58.1986   63.4109 C   0  0  0  0  0  0  0  0  0  0  0  0
  -31.7549   59.3470   63.0081 C   0  0  0  0  0  0  0  0  0  0  0  0
  -32.4716   60.6858   62.9211 C   0  0  0  0  0  0  0  0  0  0  0  0
  -31.6331   61.8032   62.3327 C   0  0  0  0  0  0  0  0  0  0  0  0
  -30.9280   61.3973   61.0686 C   0  0  0  0  0  0  0  0  0  0  0  0
 21 22  1  0  0  0
  4  5  2  0  0  0
 25 24  1  0  0  0
 25 26  2  0  0  0
 25 27  1  0  0  0
 25 29  1  0  0  0
 22 20  1  0  0  0
  3  5  1  0  0  0
  3  2  1  0  0  0
 20 19  1  0  0  0
 24 23  1  0  0  0
 19 18  1  0  0  0
 18 17  1  0  0  0
 27 28  1  0  0  0
 17 16  1  0  0  0
 29 30  1  0  0  0
 16 15  1  0  0  0
 34 35  1  0  0  0
 34 36  1  0  0  0
 15 14  1  0  0  0
 31 32  1  0  0  0
 31 33  1  0  0  0
 14 13  1  0  0  0
 37  1  1  0  0  0
 37 39  1  0  0  0
 13 12  1  0  0  0
 38 39  2  0  0  0
 12 11  1  0  0  0
 11 10  1  0  0  0
 10  9  1  0  0  0
  9  8  1  0  0  0
  8  7  1  0  0  0
  7  6  1  0  0  0
  6  5  1  0  0  0
  2  1  1  0  0  0
  1 23  1  0  0  0
 30 32  1  0  0  0
 32 35  1  0  0  0
 39 40  1  0  0  0
 40 41  1  0  0  0
 41 42  1  0  0  0
 42 43  1  0  0  0
 43 44  1  0  0  0
 44 45  1  0  0  0
 45 46  1  0  0  0
 46 47  1  0  0  0
 47 48  2  0  0  0
 48 49  1  0  0  0
 49 50  1  0  0  0
 50 51  1  0  0  0
 51 52  1  0  0  0
 52 53  1  0  0  0
 53 54  1  0  0  0
 54 55  1  0  0  0
 55 56  1  0  0  0
M  CHG 1  26  -1
M  END
> <minimizedAffinity>
-8.52978

> <CNNscore>
0.4208059013

> <CNNaffinity>
7.3263778687

> <CNN_VS>
3.0829830170

> <CNNaffinity_variance>
1.2918179035

$$$$
/media/chris/experiments/cd1a-new-docking/inputs/ligands/7sh4_ligand.pdb


 56 55  0  0  0  0  0  0  0  0999 V2000
  -39.9545   59.6658   64.5851 C   0  0  0  0  0  0  0  0  0  0  0  0
  -40.5811   58.3271   64.8549 C   0  0  0  0  0  0  0  0  0  0  0  0
  -41.6487   58.6215   65.7805 O   0  0  0  0  0  0  0  0  0  0  0  0
  -43.4003   57.4868   66.5829 O   0  0  0  0  0  0  0  0  0  0  0  0
  -42.7715   57.9138   65.6524 C   0  0  0  0  0  0  0  0  0  0  0  0
  -43.2021   57.8348   64.2160 C   0  0  0  0  0  0  0  0  0  0  0  0
  -44.4955   58.5728   63.9145 C   0  0  0  0  0  0  0  0  0  0  0  0
  -44.6254   59.8681   64.6876 C   0  0  0  0  0  0  0  0  0  0  0  0
  -46.0498   60.3435   64.8645 C   0  0  0  0  0  0  0  0  0  0  0  0
  -47.0754   59.3347   64.3886 C   0  0  0  0  0  0  0  0  0  0  0  0
  -47.9189   58.7727   65.5067 C   0  0  0  0  0  0  0  0  0  0  0  0
  -49.0381   59.6921   65.9187 C   0  0  0  0  0  0  0  0  0  0  0  0
  -50.3800   59.3010   65.3404 C   0  0  0  0  0  0  0  0  0  0  0  0
  -50.9417   60.3508   64.4030 C   0  0  0  0  0  0  0  0  0  0  0  0
  -51.0813   59.8870   62.9682 C   0  0  0  0  0  0  0  0  0  0  0  0
  -50.8238   58.3970   62.7746 C   0  0  0  0  0  0  0  0  0  0  0  0
  -50.6277   57.9884   61.3273 C   0  0  0  0  0  0  0  0  0  0  0  0
  -49.3082   58.4518   60.7446 C   0  0  0  0  0  0  0  0  0  0  0  0
  -49.0959   58.0248   59.2989 C   0  0  0  0  0  0  0  0  0  0  0  0
  -48.1621   56.8373   59.1468 C   0  0  0  0  0  0  0  0  0  0  0  0
  -47.1731   58.3081   57.3594 C   0  0  0  0  0  0  0  0  0  0  0  0
  -47.0021   57.0598   58.1951 C   0  0  0  0  0  0  0  0  0  0  0  0
  -38.7975   59.9461   65.5096 C   0  0  0  0  0  0  0  0  0  0  0  0
  -38.5529   61.3702   65.5300 O   0  0  0  0  0  0  0  0  0  0  0  0
  -37.2138   62.0287   64.9511 P   0  0  0  0  0  0  0  0  0  0  0  0
  -36.0843   61.1318   65.2778 O   0  0  0  0  0  0  0  0  0  0  0  0
  -37.4516   62.3868   63.5320 O   0  0  0  0  0  0  0  0  0  0  0  0
  -37.5732   61.5780   63.0104 H   0  0  0  0  0  0  0  0  0  0  0  0
  -37.0195   63.3819   65.7720 O   0  0  0  0  0  0  0  0  0  0  0  0
  -35.8329   64.1786   65.5794 C   0  0  0  0  0  0  0  0  0  0  0  0
  -35.0418   63.0343   67.5307 O   0  0  0  0  0  0  0  0  0  0  0  0
  -35.1335   64.3196   66.9091 C   0  0  0  0  0  0  0  0  0  0  0  0
  -35.9289   62.6506   67.6122 H   0  0  0  0  0  0  0  0  0  0  0  0
  -33.4443   65.7147   67.9186 O   0  0  0  0  0  0  0  0  0  0  0  0
  -33.7601   64.9323   66.7741 C   0  0  0  0  0  0  0  0  0  0  0  0
  -32.5601   66.0992   67.8134 H   0  0  0  0  0  0  0  0  0  0  0  0
  -40.9953   60.6929   64.6932 O   0  0  0  0  0  0  0  0  0  0  0  0
  -42.3366   62.0226   63.4714 O   0  0  0  0  0  0  0  0  0  0  0  0
  -41.4009   61.2740   63.5479 C   0  0  0  0  0  0  0  0  0  0  0  0
  -40.5358   60.8901   62.3876 C   0  0  0  0  0  0  0  0  0  0  0  0
  -41.3701   60.4262   61.1979 C   0  0  0  0  0  0  0  0  0  0  0  0
  -41.5097   58.9162   61.0944 C   0  0  0  0  0  0  0  0  0  0  0  0
  -41.3809   58.3881   59.6702 C   0  0  0  0  0  0  0  0  0  0  0  0
  -40.0377   57.7505   59.3678 C   0  0  0  0  0  0  0  0  0  0  0  0
  -38.9015   58.7465   59.1193 C   0  0  0  0  0  0  0  0  0  0  0  0
  -37.7578   58.6970   60.1347 C   0  0  0  0  0  0  0  0  0  0  0  0
  -38.0983   57.8558   61.3282 C   0  0  0  0  0  0  0  0  0  0  0  0
  -37.4440   57.8114   62.4726 C   0  0  0  0  0  0  0  0  0  0  0  0
  -36.2193   58.5971   62.8203 C   0  0  0  0  0  0  0  0  0  0  0  0
  -35.1044   57.7195   63.3818 C   0  0  0  0  0  0  0  0  0  0  0  0
  -33.7617   57.9324   62.7048 C   0  0  0  0  0  0  0  0  0  0  0  0
  -32.9820   59.1141   63.2550 C   0  0  0  0  0  0  0  0  0  0  0  0
  -32.0758   59.7965   62.2437 C   0  0  0  0  0  0  0  0  0  0  0  0
  -32.0553   61.3118   62.3746 C   0  0  0  0  0  0  0  0  0  0  0  0
  -33.1846   61.8792   63.2117 C   0  0  0  0  0  0  0  0  0  0  0  0
  -33.0817   63.3678   63.3944 C   0  0  0  0  0  0  0  0  0  0  0  0
 21 22  1  0  0  0
  4  5  2  0  0  0
 25 24  1  0  0  0
 25 26  2  0  0  0
 25 27  1  0  0  0
 25 29  1  0  0  0
 22 20  1  0  0  0
  3  5  1  0  0  0
  3  2  1  0  0  0
 20 19  1  0  0  0
 24 23  1  0  0  0
 19 18  1  0  0  0
 18 17  1  0  0  0
 27 28  1  0  0  0
 17 16  1  0  0  0
 29 30  1  0  0  0
 16 15  1  0  0  0
 34 35  1  0  0  0
 34 36  1  0  0  0
 15 14  1  0  0  0
 31 32  1  0  0  0
 31 33  1  0  0  0
 14 13  1  0  0  0
 37  1  1  0  0  0
 37 39  1  0  0  0
 13 12  1  0  0  0
 38 39  2  0  0  0
 12 11  1  0  0  0
 11 10  1  0  0  0
 10  9  1  0  0  0
  9  8  1  0  0  0
  8  7  1  0  0  0
  7  6  1  0  0  0
  6  5  1  0  0  0
  2  1  1  0  0  0
  1 23  1  0  0  0
 30 32  1  0  0  0
 32 35  1  0  0  0
 39 40  1  0  0  0
 40 41  1  0  0  0
 41 42  1  0  0  0
 42 43  1  0  0  0
 43 44  1  0  0  0
 44 45  1  0  0  0
 45 46  1  0  0  0
 46 47  1  0  0  0
 47 48  2  0  0  0
 48 49  1  0  0  0
 49 50  1  0  0  0
 50 51  1  0  0  0
 51 52  1  0  0  0
 52 53  1  0  0  0
 53 54  1  0  0  0
 54 55  1  0  0  0
 55 56  1  0  0  0
M  CHG 1  26  -1
M  END
> <minimizedAffinity>
-8.72333

> <CNNscore>
0.3617078066

> <CNNaffinity>
7.2168607712

> <CNN_VS>
2.6103949547

> <CNNaffinity_variance>
1.3667701483

$$$$
/media/chris/experiments/cd1a-new-docking/inputs/ligands/7sh4_ligand.pdb


 56 55  0  0  0  0  0  0  0  0999 V2000
  -40.3963   59.5913   63.2719 C   0  0  0  0  0  0  0  0  0  0  0  0
  -40.9895   59.2239   64.6026 C   0  0  0  0  0  0  0  0  0  0  0  0
  -42.3554   59.6817   64.5144 O   0  0  0  0  0  0  0  0  0  0  0  0
  -42.0363   61.3258   65.9959 O   0  0  0  0  0  0  0  0  0  0  0  0
  -42.7644   60.5450   65.4447 C   0  0  0  0  0  0  0  0  0  0  0  0
  -44.2557   60.4948   65.6134 C   0  0  0  0  0  0  0  0  0  0  0  0
  -45.0331   61.0310   64.4231 C   0  0  0  0  0  0  0  0  0  0  0  0
  -46.4933   60.6315   64.4485 C   0  0  0  0  0  0  0  0  0  0  0  0
  -46.7259   59.1407   64.5466 C   0  0  0  0  0  0  0  0  0  0  0  0
  -47.7241   58.7655   65.6231 C   0  0  0  0  0  0  0  0  0  0  0  0
  -48.5928   59.9209   66.0564 C   0  0  0  0  0  0  0  0  0  0  0  0
  -50.0650   59.6238   65.9464 C   0  0  0  0  0  0  0  0  0  0  0  0
  -50.4432   58.9334   64.6548 C   0  0  0  0  0  0  0  0  0  0  0  0
  -51.0241   59.8865   63.6299 C   0  0  0  0  0  0  0  0  0  0  0  0
  -50.1207   60.1421   62.4418 C   0  0  0  0  0  0  0  0  0  0  0  0
  -49.3717   58.9049   61.9600 C   0  0  0  0  0  0  0  0  0  0  0  0
  -50.1499   58.0601   60.9696 C   0  0  0  0  0  0  0  0  0  0  0  0
  -49.4980   56.7247   60.6746 C   0  0  0  0  0  0  0  0  0  0  0  0
  -48.3941   56.8022   59.6292 C   0  0  0  0  0  0  0  0  0  0  0  0
  -48.6968   57.7663   58.4961 C   0  0  0  0  0  0  0  0  0  0  0  0
  -46.7969   58.3882   56.9665 C   0  0  0  0  0  0  0  0  0  0  0  0
  -47.9729   57.4666   57.1972 C   0  0  0  0  0  0  0  0  0  0  0  0
  -39.6803   60.9167   63.3177 C   0  0  0  0  0  0  0  0  0  0  0  0
  -38.2873   60.6826   63.6228 O   0  0  0  0  0  0  0  0  0  0  0  0
  -37.6849   60.8347   65.0979 P   0  0  0  0  0  0  0  0  0  0  0  0
  -38.6444   61.6180   65.9057 O   0  0  0  0  0  0  0  0  0  0  0  0
  -37.2848   59.4887   65.5742 O   0  0  0  0  0  0  0  0  0  0  0  0
  -38.0750   58.9376   65.6870 H   0  0  0  0  0  0  0  0  0  0  0  0
  -36.3612   61.7070   64.9256 O   0  0  0  0  0  0  0  0  0  0  0  0
  -36.4530   63.1408   64.7998 C   0  0  0  0  0  0  0  0  0  0  0  0
  -36.5711   64.2914   66.8986 O   0  0  0  0  0  0  0  0  0  0  0  0
  -35.6647   63.7684   65.9230 C   0  0  0  0  0  0  0  0  0  0  0  0
  -37.1795   64.9155   66.4728 H   0  0  0  0  0  0  0  0  0  0  0  0
  -33.8426   63.4655   67.4745 O   0  0  0  0  0  0  0  0  0  0  0  0
  -34.7092   62.7939   66.5691 C   0  0  0  0  0  0  0  0  0  0  0  0
  -33.2374   62.8242   67.8787 H   0  0  0  0  0  0  0  0  0  0  0  0
  -41.4689   59.5894   62.2721 O   0  0  0  0  0  0  0  0  0  0  0  0
  -41.7972   57.4683   61.5991 O   0  0  0  0  0  0  0  0  0  0  0  0
  -41.4553   58.5949   61.3639 C   0  0  0  0  0  0  0  0  0  0  0  0
  -40.9812   59.0661   60.0239 C   0  0  0  0  0  0  0  0  0  0  0  0
  -39.9922   58.0841   59.4041 C   0  0  0  0  0  0  0  0  0  0  0  0
  -38.5881   58.6431   59.2423 C   0  0  0  0  0  0  0  0  0  0  0  0
  -37.8242   58.7627   60.5561 C   0  0  0  0  0  0  0  0  0  0  0  0
  -38.0149   57.5823   61.4902 C   0  0  0  0  0  0  0  0  0  0  0  0
  -37.0336   57.5347   62.6648 C   0  0  0  0  0  0  0  0  0  0  0  0
  -35.7808   58.3983   62.5025 C   0  0  0  0  0  0  0  0  0  0  0  0
  -34.6110   57.8442   63.2591 C   0  0  0  0  0  0  0  0  0  0  0  0
  -33.3559   58.2391   63.1679 C   0  0  0  0  0  0  0  0  0  0  0  0
  -32.8356   59.3300   62.2861 C   0  0  0  0  0  0  0  0  0  0  0  0
  -31.4184   59.7548   62.6599 C   0  0  0  0  0  0  0  0  0  0  0  0
  -31.2035   61.2578   62.6251 C   0  0  0  0  0  0  0  0  0  0  0  0
  -32.4669   62.0605   62.8827 C   0  0  0  0  0  0  0  0  0  0  0  0
  -32.7571   63.1293   61.8421 C   0  0  0  0  0  0  0  0  0  0  0  0
  -31.5094   63.6515   61.1462 C   0  0  0  0  0  0  0  0  0  0  0  0
  -31.1038   65.0511   61.5640 C   0  0  0  0  0  0  0  0  0  0  0  0
  -31.7091   66.1163   60.6930 C   0  0  0  0  0  0  0  0  0  0  0  0
 21 22  1  0  0  0
  4  5  2  0  0  0
 25 24  1  0  0  0
 25 26  2  0  0  0
 25 27  1  0  0  0
 25 29  1  0  0  0
 22 20  1  0  0  0
  3  5  1  0  0  0
  3  2  1  0  0  0
 20 19  1  0  0  0
 24 23  1  0  0  0
 19 18  1  0  0  0
 18 17  1  0  0  0
 27 28  1  0  0  0
 17 16  1  0  0  0
 29 30  1  0  0  0
 16 15  1  0  0  0
 34 35  1  0  0  0
 34 36  1  0  0  0
 15 14  1  0  0  0
 31 32  1  0  0  0
 31 33  1  0  0  0
 14 13  1  0  0  0
 37  1  1  0  0  0
 37 39  1  0  0  0
 13 12  1  0  0  0
 38 39  2  0  0  0
 12 11  1  0  0  0
 11 10  1  0  0  0
 10  9  1  0  0  0
  9  8  1  0  0  0
  8  7  1  0  0  0
  7  6  1  0  0  0
  6  5  1  0  0  0
  2  1  1  0  0  0
  1 23  1  0  0  0
 30 32  1  0  0  0
 32 35  1  0  0  0
 39 40  1  0  0  0
 40 41  1  0  0  0
 41 42  1  0  0  0
 42 43  1  0  0  0
 43 44  1  0  0  0
 44 45  1  0  0  0
 45 46  1  0  0  0
 46 47  1  0  0  0
 47 48  2  0  0  0
 48 49  1  0  0  0
 49 50  1  0  0  0
 50 51  1  0  0  0
 51 52  1  0  0  0
 52 53  1  0  0  0
 53 54  1  0  0  0
 54 55  1  0  0  0
 55 56  1  0  0  0
M  CHG 1  26  -1
M  END
> <minimizedAffinity>
-8.46477

> <CNNscore>
0.3560400307

> <CNNaffinity>
6.9269957542

> <CNN_VS>
2.4662878513

> <CNNaffinity_variance>
0.8620979190

$$$$
/media/chris/experiments/cd1a-new-docking/inputs/ligands/7sh4_ligand.pdb


 56 55  0  0  0  0  0  0  0  0999 V2000
  -40.5207   59.6590   64.0648 C   0  0  0  0  0  0  0  0  0  0  0  0
  -41.2612   60.9296   63.7569 C   0  0  0  0  0  0  0  0  0  0  0  0
  -42.6130   60.6582   64.1835 O   0  0  0  0  0  0  0  0  0  0  0  0
  -42.5470   61.9777   65.9874 O   0  0  0  0  0  0  0  0  0  0  0  0
  -42.9256   60.9776   65.4398 C   0  0  0  0  0  0  0  0  0  0  0  0
  -43.9018   59.9964   66.0221 C   0  0  0  0  0  0  0  0  0  0  0  0
  -44.4048   58.9595   65.0320 C   0  0  0  0  0  0  0  0  0  0  0  0
  -45.9031   58.7549   65.1077 C   0  0  0  0  0  0  0  0  0  0  0  0
  -46.6377   59.8342   65.8703 C   0  0  0  0  0  0  0  0  0  0  0  0
  -48.0067   60.1390   65.2965 C   0  0  0  0  0  0  0  0  0  0  0  0
  -49.1332   59.8320   66.2525 C   0  0  0  0  0  0  0  0  0  0  0  0
  -50.4622   59.6698   65.5631 C   0  0  0  0  0  0  0  0  0  0  0  0
  -50.4170   58.7181   64.3884 C   0  0  0  0  0  0  0  0  0  0  0  0
  -51.0706   59.2897   63.1465 C   0  0  0  0  0  0  0  0  0  0  0  0
  -50.2310   60.3242   62.4267 C   0  0  0  0  0  0  0  0  0  0  0  0
  -49.7606   59.8831   61.0454 C   0  0  0  0  0  0  0  0  0  0  0  0
  -50.1461   58.4604   60.6883 C   0  0  0  0  0  0  0  0  0  0  0  0
  -48.9954   57.4805   60.7938 C   0  0  0  0  0  0  0  0  0  0  0  0
  -48.5998   56.8581   59.4621 C   0  0  0  0  0  0  0  0  0  0  0  0
  -48.5167   57.8595   58.3240 C   0  0  0  0  0  0  0  0  0  0  0  0
  -46.9562   56.2835   57.1337 C   0  0  0  0  0  0  0  0  0  0  0  0
  -47.2851   57.7251   57.4488 C   0  0  0  0  0  0  0  0  0  0  0  0
  -39.4757   59.8572   65.1327 C   0  0  0  0  0  0  0  0  0  0  0  0
  -39.0752   61.2457   65.1395 O   0  0  0  0  0  0  0  0  0  0  0  0
  -37.5826   61.7196   64.8088 P   0  0  0  0  0  0  0  0  0  0  0  0
  -36.6641   60.6128   65.1525 O   0  0  0  0  0  0  0  0  0  0  0  0
  -37.5645   62.2572   63.4270 O   0  0  0  0  0  0  0  0  0  0  0  0
  -37.7394   61.5394   62.7985 H   0  0  0  0  0  0  0  0  0  0  0  0
  -37.2917   62.9275   65.8083 O   0  0  0  0  0  0  0  0  0  0  0  0
  -36.1535   63.7861   65.5907 C   0  0  0  0  0  0  0  0  0  0  0  0
  -35.9809   63.0498   67.8647 O   0  0  0  0  0  0  0  0  0  0  0  0
  -35.2920   63.7572   66.8293 C   0  0  0  0  0  0  0  0  0  0  0  0
  -36.8451   63.4625   68.0183 H   0  0  0  0  0  0  0  0  0  0  0  0
  -32.8972   63.9977   66.9898 O   0  0  0  0  0  0  0  0  0  0  0  0
  -33.9431   63.1275   66.5766 C   0  0  0  0  0  0  0  0  0  0  0  0
  -32.0401   63.5766   66.8198 H   0  0  0  0  0  0  0  0  0  0  0  0
  -39.9338   59.1535   62.8199 O   0  0  0  0  0  0  0  0  0  0  0  0
  -41.4078   57.4781   62.5361 O   0  0  0  0  0  0  0  0  0  0  0  0
  -40.2938   57.9142   62.4342 C   0  0  0  0  0  0  0  0  0  0  0  0
  -39.1448   57.1540   61.8476 C   0  0  0  0  0  0  0  0  0  0  0  0
  -38.2534   58.0551   60.9991 C   0  0  0  0  0  0  0  0  0  0  0  0
  -36.8845   58.3157   61.6062 C   0  0  0  0  0  0  0  0  0  0  0  0
  -36.7116   57.7201   62.9987 C   0  0  0  0  0  0  0  0  0  0  0  0
  -35.2659   57.6014   63.4437 C   0  0  0  0  0  0  0  0  0  0  0  0
  -34.2712   58.3999   62.5964 C   0  0  0  0  0  0  0  0  0  0  0  0
  -33.4779   59.4662   63.3548 C   0  0  0  0  0  0  0  0  0  0  0  0
  -32.0114   59.4029   63.0495 C   0  0  0  0  0  0  0  0  0  0  0  0
  -31.2936   60.3259   62.4393 C   0  0  0  0  0  0  0  0  0  0  0  0
  -31.7965   61.6370   61.9230 C   0  0  0  0  0  0  0  0  0  0  0  0
  -31.8667   62.7034   63.0123 C   0  0  0  0  0  0  0  0  0  0  0  0
  -32.1303   64.1012   62.4805 C   0  0  0  0  0  0  0  0  0  0  0  0
  -32.2733   65.1509   63.5691 C   0  0  0  0  0  0  0  0  0  0  0  0
  -33.6462   65.7983   63.6432 C   0  0  0  0  0  0  0  0  0  0  0  0
  -34.2004   66.1999   62.2849 C   0  0  0  0  0  0  0  0  0  0  0  0
  -35.6483   65.8089   62.0635 C   0  0  0  0  0  0  0  0  0  0  0  0
  -35.7928   64.4900   61.3568 C   0  0  0  0  0  0  0  0  0  0  0  0
 21 22  1  0  0  0
  4  5  2  0  0  0
 25 24  1  0  0  0
 25 26  2  0  0  0
 25 27  1  0  0  0
 25 29  1  0  0  0
 22 20  1  0  0  0
  3  5  1  0  0  0
  3  2  1  0  0  0
 20 19  1  0  0  0
 24 23  1  0  0  0
 19 18  1  0  0  0
 18 17  1  0  0  0
 27 28  1  0  0  0
 17 16  1  0  0  0
 29 30  1  0  0  0
 16 15  1  0  0  0
 34 35  1  0  0  0
 34 36  1  0  0  0
 15 14  1  0  0  0
 31 32  1  0  0  0
 31 33  1  0  0  0
 14 13  1  0  0  0
 37  1  1  0  0  0
 37 39  1  0  0  0
 13 12  1  0  0  0
 38 39  2  0  0  0
 12 11  1  0  0  0
 11 10  1  0  0  0
 10  9  1  0  0  0
  9  8  1  0  0  0
  8  7  1  0  0  0
  7  6  1  0  0  0
  6  5  1  0  0  0
  2  1  1  0  0  0
  1 23  1  0  0  0
 30 32  1  0  0  0
 32 35  1  0  0  0
 39 40  1  0  0  0
 40 41  1  0  0  0
 41 42  1  0  0  0
 42 43  1  0  0  0
 43 44  1  0  0  0
 44 45  1  0  0  0
 45 46  1  0  0  0
 46 47  1  0  0  0
 47 48  2  0  0  0
 48 49  1  0  0  0
 49 50  1  0  0  0
 50 51  1  0  0  0
 51 52  1  0  0  0
 52 53  1  0  0  0
 53 54  1  0  0  0
 54 55  1  0  0  0
 55 56  1  0  0  0
M  CHG 1  26  -1
M  END
> <minimizedAffinity>
-8.09907

> <CNNscore>
0.3508290648

> <CNNaffinity>
6.9239950180

> <CNN_VS>
2.4291386604

> <CNNaffinity_variance>
0.7162815332

$$$$
/media/chris/experiments/cd1a-new-docking/inputs/ligands/7sh4_ligand.pdb


 56 55  0  0  0  0  0  0  0  0999 V2000
  -41.4614   58.6263   63.5359 C   0  0  0  0  0  0  0  0  0  0  0  0
  -41.6823   59.9748   62.9110 C   0  0  0  0  0  0  0  0  0  0  0  0
  -43.0095   60.3454   63.3402 O   0  0  0  0  0  0  0  0  0  0  0  0
  -42.5768   62.4161   64.0646 O   0  0  0  0  0  0  0  0  0  0  0  0
  -43.1036   61.3469   64.2155 C   0  0  0  0  0  0  0  0  0  0  0  0
  -44.0458   61.0037   65.3333 C   0  0  0  0  0  0  0  0  0  0  0  0
  -44.9554   59.8231   65.0378 C   0  0  0  0  0  0  0  0  0  0  0  0
  -45.5226   59.1917   66.2916 C   0  0  0  0  0  0  0  0  0  0  0  0
  -46.7019   58.2780   66.0457 C   0  0  0  0  0  0  0  0  0  0  0  0
  -47.7877   58.9228   65.2083 C   0  0  0  0  0  0  0  0  0  0  0  0
  -48.6859   59.8385   66.0032 C   0  0  0  0  0  0  0  0  0  0  0  0
  -50.1434   59.6753   65.6614 C   0  0  0  0  0  0  0  0  0  0  0  0
  -50.3842   58.7629   64.4791 C   0  0  0  0  0  0  0  0  0  0  0  0
  -51.0919   59.4612   63.3355 C   0  0  0  0  0  0  0  0  0  0  0  0
  -50.1729   59.8948   62.2127 C   0  0  0  0  0  0  0  0  0  0  0  0
  -49.5069   58.7361   61.4795 C   0  0  0  0  0  0  0  0  0  0  0  0
  -50.3205   58.1904   60.3216 C   0  0  0  0  0  0  0  0  0  0  0  0
  -49.4755   57.5357   59.2480 C   0  0  0  0  0  0  0  0  0  0  0  0
  -48.1091   57.0796   59.7403 C   0  0  0  0  0  0  0  0  0  0  0  0
  -47.1451   56.7305   58.6205 C   0  0  0  0  0  0  0  0  0  0  0  0
  -46.8236   58.5481   56.9091 C   0  0  0  0  0  0  0  0  0  0  0  0
  -47.5387   57.2619   57.2554 C   0  0  0  0  0  0  0  0  0  0  0  0
  -40.7491   58.7259   64.8605 C   0  0  0  0  0  0  0  0  0  0  0  0
  -39.4353   59.2865   64.6411 O   0  0  0  0  0  0  0  0  0  0  0  0
  -38.9252   60.6142   65.3752 P   0  0  0  0  0  0  0  0  0  0  0  0
  -40.0631   61.1891   66.1245 O   0  0  0  0  0  0  0  0  0  0  0  0
  -37.6807   60.2854   66.1114 O   0  0  0  0  0  0  0  0  0  0  0  0
  -37.8847   59.6690   66.8321 H   0  0  0  0  0  0  0  0  0  0  0  0
  -38.5477   61.6267   64.2025 O   0  0  0  0  0  0  0  0  0  0  0  0
  -37.3658   62.4462   64.3093 C   0  0  0  0  0  0  0  0  0  0  0  0
  -37.5926   61.9402   61.9779 O   0  0  0  0  0  0  0  0  0  0  0  0
  -36.7241   62.5356   62.9465 C   0  0  0  0  0  0  0  0  0  0  0  0
  -37.7915   61.0276   62.2398 H   0  0  0  0  0  0  0  0  0  0  0  0
  -36.7856   64.8613   63.5838 O   0  0  0  0  0  0  0  0  0  0  0  0
  -36.4036   63.9580   62.5543 C   0  0  0  0  0  0  0  0  0  0  0  0
  -36.5722   65.7681   63.3139 H   0  0  0  0  0  0  0  0  0  0  0  0
  -40.7208   57.7923   62.5841 O   0  0  0  0  0  0  0  0  0  0  0  0
  -41.8781   55.8916   62.9132 O   0  0  0  0  0  0  0  0  0  0  0  0
  -41.3167   56.6554   62.1761 C   0  0  0  0  0  0  0  0  0  0  0  0
  -41.2112   56.4679   60.6943 C   0  0  0  0  0  0  0  0  0  0  0  0
  -41.4351   57.7791   59.9478 C   0  0  0  0  0  0  0  0  0  0  0  0
  -40.2669   58.1951   59.0689 C   0  0  0  0  0  0  0  0  0  0  0  0
  -39.3986   59.2862   59.6849 C   0  0  0  0  0  0  0  0  0  0  0  0
  -37.9708   58.8548   59.9633 C   0  0  0  0  0  0  0  0  0  0  0  0
  -37.7758   58.1177   61.2913 C   0  0  0  0  0  0  0  0  0  0  0  0
  -36.6487   58.6556   62.1756 C   0  0  0  0  0  0  0  0  0  0  0  0
  -35.9819   57.5687   62.9643 C   0  0  0  0  0  0  0  0  0  0  0  0
  -34.6851   57.4078   63.1429 C   0  0  0  0  0  0  0  0  0  0  0  0
  -33.6031   58.2829   62.5935 C   0  0  0  0  0  0  0  0  0  0  0  0
  -32.7332   58.8911   63.6898 C   0  0  0  0  0  0  0  0  0  0  0  0
  -33.5099   59.2935   64.9312 C   0  0  0  0  0  0  0  0  0  0  0  0
  -34.4229   60.4886   64.7186 C   0  0  0  0  0  0  0  0  0  0  0  0
  -33.7784   61.8334   65.0111 C   0  0  0  0  0  0  0  0  0  0  0  0
  -34.0503   62.3418   66.4187 C   0  0  0  0  0  0  0  0  0  0  0  0
  -34.1250   63.8517   66.5311 C   0  0  0  0  0  0  0  0  0  0  0  0
  -33.7853   64.5481   65.2429 C   0  0  0  0  0  0  0  0  0  0  0  0
 21 22  1  0  0  0
  4  5  2  0  0  0
 25 24  1  0  0  0
 25 26  2  0  0  0
 25 27  1  0  0  0
 25 29  1  0  0  0
 22 20  1  0  0  0
  3  5  1  0  0  0
  3  2  1  0  0  0
 20 19  1  0  0  0
 24 23  1  0  0  0
 19 18  1  0  0  0
 18 17  1  0  0  0
 27 28  1  0  0  0
 17 16  1  0  0  0
 29 30  1  0  0  0
 16 15  1  0  0  0
 34 35  1  0  0  0
 34 36  1  0  0  0
 15 14  1  0  0  0
 31 32  1  0  0  0
 31 33  1  0  0  0
 14 13  1  0  0  0
 37  1  1  0  0  0
 37 39  1  0  0  0
 13 12  1  0  0  0
 38 39  2  0  0  0
 12 11  1  0  0  0
 11 10  1  0  0  0
 10  9  1  0  0  0
  9  8  1  0  0  0
  8  7  1  0  0  0
  7  6  1  0  0  0
  6  5  1  0  0  0
  2  1  1  0  0  0
  1 23  1  0  0  0
 30 32  1  0  0  0
 32 35  1  0  0  0
 39 40  1  0  0  0
 40 41  1  0  0  0
 41 42  1  0  0  0
 42 43  1  0  0  0
 43 44  1  0  0  0
 44 45  1  0  0  0
 45 46  1  0  0  0
 46 47  1  0  0  0
 47 48  2  0  0  0
 48 49  1  0  0  0
 49 50  1  0  0  0
 50 51  1  0  0  0
 51 52  1  0  0  0
 52 53  1  0  0  0
 53 54  1  0  0  0
 54 55  1  0  0  0
 55 56  1  0  0  0
M  CHG 1  26  -1
M  END
> <minimizedAffinity>
-8.29754

> <CNNscore>
0.3493220806

> <CNNaffinity>
7.2365441322

> <CNN_VS>
2.5278847218

> <CNNaffinity_variance>
1.2430258989

$$$$
/media/chris/experiments/cd1a-new-docking/inputs/ligands/7sh4_ligand.pdb


 56 55  0  0  0  0  0  0  0  0999 V2000
  -41.5605   57.8151   63.9894 C   0  0  0  0  0  0  0  0  0  0  0  0
  -42.4442   57.5349   65.1719 C   0  0  0  0  0  0  0  0  0  0  0  0
  -43.5932   58.3816   64.9577 O   0  0  0  0  0  0  0  0  0  0  0  0
  -44.6525   57.5709   66.7522 O   0  0  0  0  0  0  0  0  0  0  0  0
  -44.4899   58.4436   65.9426 C   0  0  0  0  0  0  0  0  0  0  0  0
  -45.1670   59.7835   65.9762 C   0  0  0  0  0  0  0  0  0  0  0  0
  -45.6844   60.2514   64.6264 C   0  0  0  0  0  0  0  0  0  0  0  0
  -47.1957   60.3243   64.5710 C   0  0  0  0  0  0  0  0  0  0  0  0
  -47.8968   59.1711   65.2526 C   0  0  0  0  0  0  0  0  0  0  0  0
  -49.0128   59.6172   66.1754 C   0  0  0  0  0  0  0  0  0  0  0  0
  -50.3882   59.3100   65.6357 C   0  0  0  0  0  0  0  0  0  0  0  0
  -50.9610   60.4324   64.8112 C   0  0  0  0  0  0  0  0  0  0  0  0
  -51.1770   60.0620   63.3606 C   0  0  0  0  0  0  0  0  0  0  0  0
  -50.9572   58.5865   63.0943 C   0  0  0  0  0  0  0  0  0  0  0  0
  -49.7628   58.2890   62.2121 C   0  0  0  0  0  0  0  0  0  0  0  0
  -49.2161   59.5109   61.4828 C   0  0  0  0  0  0  0  0  0  0  0  0
  -49.6245   59.5920   60.0244 C   0  0  0  0  0  0  0  0  0  0  0  0
  -50.0090   58.2519   59.4315 C   0  0  0  0  0  0  0  0  0  0  0  0
  -48.8357   57.4918   58.8290 C   0  0  0  0  0  0  0  0  0  0  0  0
  -47.7864   58.3920   58.2014 C   0  0  0  0  0  0  0  0  0  0  0  0
  -47.1430   56.2180   57.1078 C   0  0  0  0  0  0  0  0  0  0  0  0
  -46.8610   57.6991   57.2193 C   0  0  0  0  0  0  0  0  0  0  0  0
  -40.1844   58.2675   64.4057 C   0  0  0  0  0  0  0  0  0  0  0  0
  -40.3063   59.1211   65.5654 O   0  0  0  0  0  0  0  0  0  0  0  0
  -40.1764   60.7145   65.4871 P   0  0  0  0  0  0  0  0  0  0  0  0
  -40.0535   61.0944   64.0633 O   0  0  0  0  0  0  0  0  0  0  0  0
  -41.2729   61.3069   66.2904 O   0  0  0  0  0  0  0  0  0  0  0  0
  -42.1247   61.1088   65.8706 H   0  0  0  0  0  0  0  0  0  0  0  0
  -38.7976   61.0617   66.2088 O   0  0  0  0  0  0  0  0  0  0  0  0
  -37.5622   60.5111   65.7080 C   0  0  0  0  0  0  0  0  0  0  0  0
  -37.4548   62.4378   64.2870 O   0  0  0  0  0  0  0  0  0  0  0  0
  -36.7018   61.6469   65.2114 C   0  0  0  0  0  0  0  0  0  0  0  0
  -37.7813   61.8728   63.5693 H   0  0  0  0  0  0  0  0  0  0  0  0
  -36.8522   63.7669   66.3523 O   0  0  0  0  0  0  0  0  0  0  0  0
  -36.1853   62.5112   66.3365 C   0  0  0  0  0  0  0  0  0  0  0  0
  -36.5075   64.3070   67.0805 H   0  0  0  0  0  0  0  0  0  0  0  0
  -42.2248   58.8107   63.1425 O   0  0  0  0  0  0  0  0  0  0  0  0
  -41.4270   59.9393   61.3677 O   0  0  0  0  0  0  0  0  0  0  0  0
  -41.7964   58.9130   61.8697 C   0  0  0  0  0  0  0  0  0  0  0  0
  -41.8184   57.5930   61.1631 C   0  0  0  0  0  0  0  0  0  0  0  0
  -40.4780   57.2914   60.5005 C   0  0  0  0  0  0  0  0  0  0  0  0
  -40.3297   57.8878   59.1104 C   0  0  0  0  0  0  0  0  0  0  0  0
  -39.0261   58.6523   58.9107 C   0  0  0  0  0  0  0  0  0  0  0  0
  -38.0396   58.4987   60.0533 C   0  0  0  0  0  0  0  0  0  0  0  0
  -37.9944   59.6859   61.0195 C   0  0  0  0  0  0  0  0  0  0  0  0
  -37.4397   59.3728   62.4108 C   0  0  0  0  0  0  0  0  0  0  0  0
  -36.8666   57.9897   62.4923 C   0  0  0  0  0  0  0  0  0  0  0  0
  -35.6782   57.6560   62.9568 C   0  0  0  0  0  0  0  0  0  0  0  0
  -34.6490   58.5940   63.5038 C   0  0  0  0  0  0  0  0  0  0  0  0
  -33.3995   58.6611   62.6303 C   0  0  0  0  0  0  0  0  0  0  0  0
  -32.7336   60.0260   62.6230 C   0  0  0  0  0  0  0  0  0  0  0  0
  -33.4334   61.0506   63.4992 C   0  0  0  0  0  0  0  0  0  0  0  0
  -32.9905   62.4855   63.2667 C   0  0  0  0  0  0  0  0  0  0  0  0
  -33.1366   63.3710   64.4948 C   0  0  0  0  0  0  0  0  0  0  0  0
  -33.8906   64.6621   64.2447 C   0  0  0  0  0  0  0  0  0  0  0  0
  -34.8761   64.5504   63.1150 C   0  0  0  0  0  0  0  0  0  0  0  0
 21 22  1  0  0  0
  4  5  2  0  0  0
 25 24  1  0  0  0
 25 26  2  0  0  0
 25 27  1  0  0  0
 25 29  1  0  0  0
 22 20  1  0  0  0
  3  5  1  0  0  0
  3  2  1  0  0  0
 20 19  1  0  0  0
 24 23  1  0  0  0
 19 18  1  0  0  0
 18 17  1  0  0  0
 27 28  1  0  0  0
 17 16  1  0  0  0
 29 30  1  0  0  0
 16 15  1  0  0  0
 34 35  1  0  0  0
 34 36  1  0  0  0
 15 14  1  0  0  0
 31 32  1  0  0  0
 31 33  1  0  0  0
 14 13  1  0  0  0
 37  1  1  0  0  0
 37 39  1  0  0  0
 13 12  1  0  0  0
 38 39  2  0  0  0
 12 11  1  0  0  0
 11 10  1  0  0  0
 10  9  1  0  0  0
  9  8  1  0  0  0
  8  7  1  0  0  0
  7  6  1  0  0  0
  6  5  1  0  0  0
  2  1  1  0  0  0
  1 23  1  0  0  0
 30 32  1  0  0  0
 32 35  1  0  0  0
 39 40  1  0  0  0
 40 41  1  0  0  0
 41 42  1  0  0  0
 42 43  1  0  0  0
 43 44  1  0  0  0
 44 45  1  0  0  0
 45 46  1  0  0  0
 46 47  1  0  0  0
 47 48  2  0  0  0
 48 49  1  0  0  0
 49 50  1  0  0  0
 50 51  1  0  0  0
 51 52  1  0  0  0
 52 53  1  0  0  0
 53 54  1  0  0  0
 54 55  1  0  0  0
 55 56  1  0  0  0
M  CHG 1  26  -1
M  END
> <minimizedAffinity>
-8.27727

> <CNNscore>
0.3492478430

> <CNNaffinity>
7.2255144119

> <CNN_VS>
2.5234954357

> <CNNaffinity_variance>
1.2895834446

$$$$
/media/chris/experiments/cd1a-new-docking/inputs/ligands/7sh4_ligand.pdb


 56 55  0  0  0  0  0  0  0  0999 V2000
  -41.6297   59.7480   64.9875 C   0  0  0  0  0  0  0  0  0  0  0  0
  -42.0992   58.3280   65.1317 C   0  0  0  0  0  0  0  0  0  0  0  0
  -42.6738   58.2828   66.4549 O   0  0  0  0  0  0  0  0  0  0  0  0
  -44.2056   57.1464   67.6217 O   0  0  0  0  0  0  0  0  0  0  0  0
  -43.8304   57.6331   66.5893 C   0  0  0  0  0  0  0  0  0  0  0  0
  -44.6419   57.7031   65.3277 C   0  0  0  0  0  0  0  0  0  0  0  0
  -46.0940   58.0938   65.5448 C   0  0  0  0  0  0  0  0  0  0  0  0
  -46.2793   59.5858   65.7233 C   0  0  0  0  0  0  0  0  0  0  0  0
  -46.7374   60.3067   64.4757 C   0  0  0  0  0  0  0  0  0  0  0  0
  -48.1515   60.8402   64.5841 C   0  0  0  0  0  0  0  0  0  0  0  0
  -48.9239   60.2457   65.7362 C   0  0  0  0  0  0  0  0  0  0  0  0
  -50.2428   59.6523   65.3165 C   0  0  0  0  0  0  0  0  0  0  0  0
  -50.9495   60.4557   64.2474 C   0  0  0  0  0  0  0  0  0  0  0  0
  -51.1776   59.6643   62.9754 C   0  0  0  0  0  0  0  0  0  0  0  0
  -50.4667   58.3276   62.9433 C   0  0  0  0  0  0  0  0  0  0  0  0
  -49.1912   58.3282   62.1086 C   0  0  0  0  0  0  0  0  0  0  0  0
  -49.2444   57.4120   60.9011 C   0  0  0  0  0  0  0  0  0  0  0  0
  -50.0529   57.9777   59.7515 C   0  0  0  0  0  0  0  0  0  0  0  0
  -49.3491   57.8821   58.4051 C   0  0  0  0  0  0  0  0  0  0  0  0
  -47.9113   58.3690   58.4350 C   0  0  0  0  0  0  0  0  0  0  0  0
  -47.2634   56.2032   57.3281 C   0  0  0  0  0  0  0  0  0  0  0  0
  -46.9888   57.6854   57.4438 C   0  0  0  0  0  0  0  0  0  0  0  0
  -41.0603   60.2894   66.2738 C   0  0  0  0  0  0  0  0  0  0  0  0
  -40.0863   61.3093   65.9584 O   0  0  0  0  0  0  0  0  0  0  0  0
  -38.6642   60.9776   65.3030 P   0  0  0  0  0  0  0  0  0  0  0  0
  -38.2080   59.6751   65.8341 O   0  0  0  0  0  0  0  0  0  0  0  0
  -38.7822   61.1462   63.8345 O   0  0  0  0  0  0  0  0  0  0  0  0
  -39.3805   60.4707   63.4785 H   0  0  0  0  0  0  0  0  0  0  0  0
  -37.6752   62.1036   65.8475 O   0  0  0  0  0  0  0  0  0  0  0  0
  -36.6134   62.5994   65.0069 C   0  0  0  0  0  0  0  0  0  0  0  0
  -36.6537   64.1373   66.8442 O   0  0  0  0  0  0  0  0  0  0  0  0
  -35.8371   63.6354   65.7821 C   0  0  0  0  0  0  0  0  0  0  0  0
  -37.4820   64.4852   66.4783 H   0  0  0  0  0  0  0  0  0  0  0  0
  -34.2510   63.6692   67.5992 O   0  0  0  0  0  0  0  0  0  0  0  0
  -34.5421   63.0892   66.3341 C   0  0  0  0  0  0  0  0  0  0  0  0
  -33.4171   63.3066   67.9370 H   0  0  0  0  0  0  0  0  0  0  0  0
  -42.7533   60.5593   64.5088 O   0  0  0  0  0  0  0  0  0  0  0  0
  -42.5674   62.4967   63.3809 O   0  0  0  0  0  0  0  0  0  0  0  0
  -42.5458   61.2963   63.4007 C   0  0  0  0  0  0  0  0  0  0  0  0
  -42.2672   60.4417   62.2032 C   0  0  0  0  0  0  0  0  0  0  0  0
  -41.0170   60.9068   61.4633 C   0  0  0  0  0  0  0  0  0  0  0  0
  -40.9796   60.4990   59.9996 C   0  0  0  0  0  0  0  0  0  0  0  0
  -39.7960   59.6059   59.6455 C   0  0  0  0  0  0  0  0  0  0  0  0
  -40.1878   58.2058   59.2117 C   0  0  0  0  0  0  0  0  0  0  0  0
  -41.3223   57.5802   60.0281 C   0  0  0  0  0  0  0  0  0  0  0  0
  -40.8806   56.5728   61.0920 C   0  0  0  0  0  0  0  0  0  0  0  0
  -40.4168   57.2457   62.3490 C   0  0  0  0  0  0  0  0  0  0  0  0
  -39.1685   57.4959   62.6936 C   0  0  0  0  0  0  0  0  0  0  0  0
  -37.9483   57.1595   61.8960 C   0  0  0  0  0  0  0  0  0  0  0  0
  -36.9715   58.3283   61.8052 C   0  0  0  0  0  0  0  0  0  0  0  0
  -36.3227   58.6849   63.1312 C   0  0  0  0  0  0  0  0  0  0  0  0
  -35.0890   57.8575   63.4485 C   0  0  0  0  0  0  0  0  0  0  0  0
  -33.9249   58.0718   62.4955 C   0  0  0  0  0  0  0  0  0  0  0  0
  -32.6653   58.5774   63.1823 C   0  0  0  0  0  0  0  0  0  0  0  0
  -32.4067   60.0592   62.9948 C   0  0  0  0  0  0  0  0  0  0  0  0
  -31.5795   60.3553   61.7751 C   0  0  0  0  0  0  0  0  0  0  0  0
 21 22  1  0  0  0
  4  5  2  0  0  0
 25 24  1  0  0  0
 25 26  2  0  0  0
 25 27  1  0  0  0
 25 29  1  0  0  0
 22 20  1  0  0  0
  3  5  1  0  0  0
  3  2  1  0  0  0
 20 19  1  0  0  0
 24 23  1  0  0  0
 19 18  1  0  0  0
 18 17  1  0  0  0
 27 28  1  0  0  0
 17 16  1  0  0  0
 29 30  1  0  0  0
 16 15  1  0  0  0
 34 35  1  0  0  0
 34 36  1  0  0  0
 15 14  1  0  0  0
 31 32  1  0  0  0
 31 33  1  0  0  0
 14 13  1  0  0  0
 37  1  1  0  0  0
 37 39  1  0  0  0
 13 12  1  0  0  0
 38 39  2  0  0  0
 12 11  1  0  0  0
 11 10  1  0  0  0
 10  9  1  0  0  0
  9  8  1  0  0  0
  8  7  1  0  0  0
  7  6  1  0  0  0
  6  5  1  0  0  0
  2  1  1  0  0  0
  1 23  1  0  0  0
 30 32  1  0  0  0
 32 35  1  0  0  0
 39 40  1  0  0  0
 40 41  1  0  0  0
 41 42  1  0  0  0
 42 43  1  0  0  0
 43 44  1  0  0  0
 44 45  1  0  0  0
 45 46  1  0  0  0
 46 47  1  0  0  0
 47 48  2  0  0  0
 48 49  1  0  0  0
 49 50  1  0  0  0
 50 51  1  0  0  0
 51 52  1  0  0  0
 52 53  1  0  0  0
 53 54  1  0  0  0
 54 55  1  0  0  0
 55 56  1  0  0  0
M  CHG 1  26  -1
M  END
> <minimizedAffinity>
-8.50488

> <CNNscore>
0.2342294902

> <CNNaffinity>
7.3465013504

> <CNN_VS>
1.7207672596

> <CNNaffinity_variance>
1.6247066259

$$$$
/media/chris/experiments/cd1a-new-docking/inputs/ligands/7sh4_ligand.pdb


 56 55  0  0  0  0  0  0  0  0999 V2000
  -41.1048   60.4055   63.0667 C   0  0  0  0  0  0  0  0  0  0  0  0
  -41.1984   58.9904   63.5630 C   0  0  0  0  0  0  0  0  0  0  0  0
  -41.8528   58.2855   62.4869 O   0  0  0  0  0  0  0  0  0  0  0  0
  -41.2940   56.1730   62.9606 O   0  0  0  0  0  0  0  0  0  0  0  0
  -41.3758   57.0796   62.1765 C   0  0  0  0  0  0  0  0  0  0  0  0
  -41.0796   56.9748   60.7082 C   0  0  0  0  0  0  0  0  0  0  0  0
  -41.4613   58.2091   59.9085 C   0  0  0  0  0  0  0  0  0  0  0  0
  -40.2779   59.1068   59.6153 C   0  0  0  0  0  0  0  0  0  0  0  0
  -39.0199   58.3651   59.2238 C   0  0  0  0  0  0  0  0  0  0  0  0
  -37.8107   58.7760   60.0393 C   0  0  0  0  0  0  0  0  0  0  0  0
  -37.7173   58.0607   61.3649 C   0  0  0  0  0  0  0  0  0  0  0  0
  -36.7014   58.6722   62.2932 C   0  0  0  0  0  0  0  0  0  0  0  0
  -36.4558   57.8507   63.5393 C   0  0  0  0  0  0  0  0  0  0  0  0
  -34.9831   57.6022   63.7957 C   0  0  0  0  0  0  0  0  0  0  0  0
  -34.2893   58.7197   64.5462 C   0  0  0  0  0  0  0  0  0  0  0  0
  -32.7738   58.7241   64.3816 C   0  0  0  0  0  0  0  0  0  0  0  0
  -32.3100   58.9068   62.9492 C   0  0  0  0  0  0  0  0  0  0  0  0
  -31.1630   59.8865   62.8083 C   0  0  0  0  0  0  0  0  0  0  0  0
  -31.1098   60.5726   61.4504 C   0  0  0  0  0  0  0  0  0  0  0  0
  -31.4705   62.0466   61.4998 C   0  0  0  0  0  0  0  0  0  0  0  0
  -32.0051   63.5680   63.4326 C   0  0  0  0  0  0  0  0  0  0  0  0
  -32.4773   62.4182   62.5718 C   0  0  0  0  0  0  0  0  0  0  0  0
  -39.6936   60.9321   63.1204 C   0  0  0  0  0  0  0  0  0  0  0  0
  -38.9540   60.1806   64.1086 O   0  0  0  0  0  0  0  0  0  0  0  0
  -38.5109   60.7999   65.5165 P   0  0  0  0  0  0  0  0  0  0  0  0
  -39.7348   61.1713   66.2588 O   0  0  0  0  0  0  0  0  0  0  0  0
  -37.5497   59.8652   66.1498 O   0  0  0  0  0  0  0  0  0  0  0  0
  -38.0041   59.0388   66.3769 H   0  0  0  0  0  0  0  0  0  0  0  0
  -37.7268   62.1417   65.1596 O   0  0  0  0  0  0  0  0  0  0  0  0
  -36.3925   62.0750   64.6164 C   0  0  0  0  0  0  0  0  0  0  0  0
  -35.2700   64.1694   64.3059 O   0  0  0  0  0  0  0  0  0  0  0  0
  -35.5591   63.1509   65.2682 C   0  0  0  0  0  0  0  0  0  0  0  0
  -34.8341   63.7720   63.5358 H   0  0  0  0  0  0  0  0  0  0  0  0
  -35.9725   62.9795   67.6385 O   0  0  0  0  0  0  0  0  0  0  0  0
  -36.2386   63.7523   66.4751 C   0  0  0  0  0  0  0  0  0  0  0  0
  -36.4165   63.3808   68.4018 H   0  0  0  0  0  0  0  0  0  0  0  0
  -42.0222   61.2331   63.8563 O   0  0  0  0  0  0  0  0  0  0  0  0
  -43.1684   62.0049   62.0813 O   0  0  0  0  0  0  0  0  0  0  0  0
  -43.1323   61.6765   63.2356 C   0  0  0  0  0  0  0  0  0  0  0  0
  -44.3173   61.6931   64.1508 C   0  0  0  0  0  0  0  0  0  0  0  0
  -44.8755   60.2902   64.3677 C   0  0  0  0  0  0  0  0  0  0  0  0
  -44.9806   59.8880   65.8297 C   0  0  0  0  0  0  0  0  0  0  0  0
  -45.5816   58.5029   66.0394 C   0  0  0  0  0  0  0  0  0  0  0  0
  -47.0726   58.4298   65.7678 C   0  0  0  0  0  0  0  0  0  0  0  0
  -47.8392   59.7200   66.0719 C   0  0  0  0  0  0  0  0  0  0  0  0
  -49.3604   59.5718   66.1469 C   0  0  0  0  0  0  0  0  0  0  0  0
  -49.8804   58.5753   65.1547 C   0  0  0  0  0  0  0  0  0  0  0  0
  -50.3960   58.8395   63.9699 C   0  0  0  0  0  0  0  0  0  0  0  0
  -50.5687   60.1969   63.3652 C   0  0  0  0  0  0  0  0  0  0  0  0
  -50.2852   60.2068   61.8658 C   0  0  0  0  0  0  0  0  0  0  0  0
  -49.4166   59.0507   61.4021 C   0  0  0  0  0  0  0  0  0  0  0  0
  -49.4208   58.8503   59.8965 C   0  0  0  0  0  0  0  0  0  0  0  0
  -49.0847   57.4378   59.4482 C   0  0  0  0  0  0  0  0  0  0  0  0
  -47.5956   57.2058   59.2428 C   0  0  0  0  0  0  0  0  0  0  0  0
  -47.1939   56.9850   57.7978 C   0  0  0  0  0  0  0  0  0  0  0  0
  -46.8599   58.2656   57.0850 C   0  0  0  0  0  0  0  0  0  0  0  0
 21 22  1  0  0  0
  4  5  2  0  0  0
 25 24  1  0  0  0
 25 26  2  0  0  0
 25 27  1  0  0  0
 25 29  1  0  0  0
 22 20  1  0  0  0
  3  5  1  0  0  0
  3  2  1  0  0  0
 20 19  1  0  0  0
 24 23  1  0  0  0
 19 18  1  0  0  0
 18 17  1  0  0  0
 27 28  1  0  0  0
 17 16  1  0  0  0
 29 30  1  0  0  0
 16 15  1  0  0  0
 34 35  1  0  0  0
 34 36  1  0  0  0
 15 14  1  0  0  0
 31 32  1  0  0  0
 31 33  1  0  0  0
 14 13  1  0  0  0
 37  1  1  0  0  0
 37 39  1  0  0  0
 13 12  1  0  0  0
 38 39  2  0  0  0
 12 11  1  0  0  0
 11 10  1  0  0  0
 10  9  1  0  0  0
  9  8  1  0  0  0
  8  7  1  0  0  0
  7  6  1  0  0  0
  6  5  1  0  0  0
  2  1  1  0  0  0
  1 23  1  0  0  0
 30 32  1  0  0  0
 32 35  1  0  0  0
 39 40  1  0  0  0
 40 41  1  0  0  0
 41 42  1  0  0  0
 42 43  1  0  0  0
 43 44  1  0  0  0
 44 45  1  0  0  0
 45 46  1  0  0  0
 46 47  1  0  0  0
 47 48  2  0  0  0
 48 49  1  0  0  0
 49 50  1  0  0  0
 50 51  1  0  0  0
 51 52  1  0  0  0
 52 53  1  0  0  0
 53 54  1  0  0  0
 54 55  1  0  0  0
 55 56  1  0  0  0
M  CHG 1  26  -1
M  END
> <minimizedAffinity>
-8.28711

> <CNNscore>
0.2338874936

> <CNNaffinity>
7.0930910110

> <CNN_VS>
1.6589852571

> <CNNaffinity_variance>
1.0427192450

$$$$
