/media/chris/experiments/cd1a-new-docking/inputs/ligands/7sh4_ligand.pdb


 56 55  0  0  0  0  0  0  0  0999 V2000
  -39.7840   59.6102   65.2015 C   0  0  0  0  0  0  0  0  0  0  0  0
  -41.0883   59.6813   65.9442 C   0  0  0  0  0  0  0  0  0  0  0  0
  -41.4277   61.0839   65.9203 O   0  0  0  0  0  0  0  0  0  0  0  0
  -42.6546   62.2486   64.4583 O   0  0  0  0  0  0  0  0  0  0  0  0
  -42.5718   61.4185   65.3230 C   0  0  0  0  0  0  0  0  0  0  0  0
  -43.7005   60.5410   65.7821 C   0  0  0  0  0  0  0  0  0  0  0  0
  -44.9297   60.5936   64.8905 C   0  0  0  0  0  0  0  0  0  0  0  0
  -45.5030   59.2224   64.6013 C   0  0  0  0  0  0  0  0  0  0  0  0
  -46.1493   58.5571   65.7952 C   0  0  0  0  0  0  0  0  0  0  0  0
  -47.3233   59.3401   66.3473 C   0  0  0  0  0  0  0  0  0  0  0  0
  -48.3872   59.6225   65.3150 C   0  0  0  0  0  0  0  0  0  0  0  0
  -49.7817   59.3636   65.8210 C   0  0  0  0  0  0  0  0  0  0  0  0
  -50.8588   59.9718   64.9505 C   0  0  0  0  0  0  0  0  0  0  0  0
  -50.3185   60.5103   63.6412 C   0  0  0  0  0  0  0  0  0  0  0  0
  -50.8586   59.8066   62.4138 C   0  0  0  0  0  0  0  0  0  0  0  0
  -50.8783   58.2870   62.5336 C   0  0  0  0  0  0  0  0  0  0  0  0
  -50.0727   57.5741   61.4646 C   0  0  0  0  0  0  0  0  0  0  0  0
  -50.2561   58.1619   60.0804 C   0  0  0  0  0  0  0  0  0  0  0  0
  -48.9596   58.6463   59.4463 C   0  0  0  0  0  0  0  0  0  0  0  0
  -47.9444   57.5405   59.2185 C   0  0  0  0  0  0  0  0  0  0  0  0
  -46.9082   58.3417   57.0691 C   0  0  0  0  0  0  0  0  0  0  0  0
  -47.6618   57.2286   57.7612 C   0  0  0  0  0  0  0  0  0  0  0  0
  -38.8069   60.6569   65.6719 C   0  0  0  0  0  0  0  0  0  0  0  0
  -37.5705   60.5014   64.9399 O   0  0  0  0  0  0  0  0  0  0  0  0
  -36.8587   61.7124   64.1726 P   0  0  0  0  0  0  0  0  0  0  0  0
  -35.8789   61.1404   63.2241 O   0  0  0  0  0  0  0  0  0  0  0  0
  -37.9150   62.6119   63.6494 O   0  0  0  0  0  0  0  0  0  0  0  0
  -38.4222   62.1504   62.9634 H   0  0  0  0  0  0  0  0  0  0  0  0
  -36.0503   62.5064   65.2944 O   0  0  0  0  0  0  0  0  0  0  0  0
  -36.2436   63.9267   65.4541 C   0  0  0  0  0  0  0  0  0  0  0  0
  -36.2193   63.7985   67.8469 O   0  0  0  0  0  0  0  0  0  0  0  0
  -35.5448   64.3628   66.7183 C   0  0  0  0  0  0  0  0  0  0  0  0
  -37.1542   64.0562   67.8268 H   0  0  0  0  0  0  0  0  0  0  0  0
  -33.9375   62.6030   67.0901 O   0  0  0  0  0  0  0  0  0  0  0  0
  -34.0866   63.9713   66.7335 C   0  0  0  0  0  0  0  0  0  0  0  0
  -32.9957   62.3707   67.0944 H   0  0  0  0  0  0  0  0  0  0  0  0
  -40.0622   59.7345   63.7673 O   0  0  0  0  0  0  0  0  0  0  0  0
  -40.8119   57.6319   63.4893 O   0  0  0  0  0  0  0  0  0  0  0  0
  -40.8614   58.8003   63.2171 C   0  0  0  0  0  0  0  0  0  0  0  0
  -41.8292   59.3947   62.2414 C   0  0  0  0  0  0  0  0  0  0  0  0
  -41.2946   60.6924   61.6440 C   0  0  0  0  0  0  0  0  0  0  0  0
  -41.0025   60.6108   60.1547 C   0  0  0  0  0  0  0  0  0  0  0  0
  -40.5753   59.2224   59.6924 C   0  0  0  0  0  0  0  0  0  0  0  0
  -39.0812   59.0788   59.4699 C   0  0  0  0  0  0  0  0  0  0  0  0
  -38.3924   58.0761   60.4001 C   0  0  0  0  0  0  0  0  0  0  0  0
  -37.5352   58.6958   61.5059 C   0  0  0  0  0  0  0  0  0  0  0  0
  -37.4188   57.7975   62.7006 C   0  0  0  0  0  0  0  0  0  0  0  0
  -36.3128   57.4906   63.3503 C   0  0  0  0  0  0  0  0  0  0  0  0
  -34.9358   57.9796   63.0289 C   0  0  0  0  0  0  0  0  0  0  0  0
  -34.1828   58.4552   64.2680 C   0  0  0  0  0  0  0  0  0  0  0  0
  -32.6839   58.5816   64.0594 C   0  0  0  0  0  0  0  0  0  0  0  0
  -32.3001   59.0700   62.6732 C   0  0  0  0  0  0  0  0  0  0  0  0
  -31.0491   59.9318   62.6332 C   0  0  0  0  0  0  0  0  0  0  0  0
  -30.9283   60.7657   61.3669 C   0  0  0  0  0  0  0  0  0  0  0  0
  -31.3584   62.2101   61.5299 C   0  0  0  0  0  0  0  0  0  0  0  0
  -32.4970   62.3720   62.4980 C   0  0  0  0  0  0  0  0  0  0  0  0
 21 22  1  0  0  0
  4  5  2  0  0  0
 25 24  1  0  0  0
 25 26  2  0  0  0
 25 27  1  0  0  0
 25 29  1  0  0  0
 22 20  1  0  0  0
  3  5  1  0  0  0
  3  2  1  0  0  0
 20 19  1  0  0  0
 24 23  1  0  0  0
 19 18  1  0  0  0
 18 17  1  0  0  0
 27 28  1  0  0  0
 17 16  1  0  0  0
 29 30  1  0  0  0
 16 15  1  0  0  0
 34 35  1  0  0  0
 34 36  1  0  0  0
 15 14  1  0  0  0
 31 32  1  0  0  0
 31 33  1  0  0  0
 14 13  1  0  0  0
 37  1  1  0  0  0
 37 39  1  0  0  0
 13 12  1  0  0  0
 38 39  2  0  0  0
 12 11  1  0  0  0
 11 10  1  0  0  0
 10  9  1  0  0  0
  9  8  1  0  0  0
  8  7  1  0  0  0
  7  6  1  0  0  0
  6  5  1  0  0  0
  2  1  1  0  0  0
  1 23  1  0  0  0
 30 32  1  0  0  0
 32 35  1  0  0  0
 39 40  1  0  0  0
 40 41  1  0  0  0
 41 42  1  0  0  0
 42 43  1  0  0  0
 43 44  1  0  0  0
 44 45  1  0  0  0
 45 46  1  0  0  0
 46 47  1  0  0  0
 47 48  2  0  0  0
 48 49  1  0  0  0
 49 50  1  0  0  0
 50 51  1  0  0  0
 51 52  1  0  0  0
 52 53  1  0  0  0
 53 54  1  0  0  0
 54 55  1  0  0  0
 55 56  1  0  0  0
M  CHG 1  26  -1
M  END
> <minimizedAffinity>
-8.55391

> <CNNscore>
0.5504625440

> <CNNaffinity>
7.4515595436

> <CNN_VS>
4.1018042564

> <CNNaffinity_variance>
0.9161383510

$$$$
/media/chris/experiments/cd1a-new-docking/inputs/ligands/7sh4_ligand.pdb


 56 55  0  0  0  0  0  0  0  0999 V2000
  -40.4443   60.8033   63.3535 C   0  0  0  0  0  0  0  0  0  0  0  0
  -41.2791   60.4645   62.1510 C   0  0  0  0  0  0  0  0  0  0  0  0
  -40.3092   60.2109   61.1127 O   0  0  0  0  0  0  0  0  0  0  0  0
  -41.0512   61.2276   59.2647 O   0  0  0  0  0  0  0  0  0  0  0  0
  -40.7526   60.2248   59.8554 C   0  0  0  0  0  0  0  0  0  0  0  0
  -40.7071   58.8519   59.2488 C   0  0  0  0  0  0  0  0  0  0  0  0
  -41.5019   57.8081   60.0151 C   0  0  0  0  0  0  0  0  0  0  0  0
  -40.6223   56.7539   60.6536 C   0  0  0  0  0  0  0  0  0  0  0  0
  -40.6411   56.7645   62.1654 C   0  0  0  0  0  0  0  0  0  0  0  0
  -39.3114   57.1641   62.7724 C   0  0  0  0  0  0  0  0  0  0  0  0
  -38.2569   57.4773   61.7392 C   0  0  0  0  0  0  0  0  0  0  0  0
  -36.9627   57.9527   62.3448 C   0  0  0  0  0  0  0  0  0  0  0  0
  -36.9517   57.8989   63.8564 C   0  0  0  0  0  0  0  0  0  0  0  0
  -35.5772   57.6027   64.4215 C   0  0  0  0  0  0  0  0  0  0  0  0
  -34.4346   58.0820   63.5508 C   0  0  0  0  0  0  0  0  0  0  0  0
  -33.3483   58.8291   64.3161 C   0  0  0  0  0  0  0  0  0  0  0  0
  -32.1419   59.1956   63.4733 C   0  0  0  0  0  0  0  0  0  0  0  0
  -32.4922   60.0013   62.2390 C   0  0  0  0  0  0  0  0  0  0  0  0
  -32.0439   61.4543   62.3112 C   0  0  0  0  0  0  0  0  0  0  0  0
  -32.7736   62.2635   63.3687 C   0  0  0  0  0  0  0  0  0  0  0  0
  -33.3327   63.7473   61.4138 C   0  0  0  0  0  0  0  0  0  0  0  0
  -33.2199   63.6414   62.9178 C   0  0  0  0  0  0  0  0  0  0  0  0
  -38.9899   60.9821   63.0008 C   0  0  0  0  0  0  0  0  0  0  0  0
  -38.3747   61.8423   63.9858 O   0  0  0  0  0  0  0  0  0  0  0  0
  -36.8894   62.4174   63.8285 P   0  0  0  0  0  0  0  0  0  0  0  0
  -36.0076   61.3026   63.4204 O   0  0  0  0  0  0  0  0  0  0  0  0
  -36.9509   63.6267   62.9728 O   0  0  0  0  0  0  0  0  0  0  0  0
  -37.2131   63.3738   62.0738 H   0  0  0  0  0  0  0  0  0  0  0  0
  -36.4563   62.8752   65.2932 O   0  0  0  0  0  0  0  0  0  0  0  0
  -35.9281   64.1998   65.5086 C   0  0  0  0  0  0  0  0  0  0  0  0
  -35.8137   63.2043   67.6854 O   0  0  0  0  0  0  0  0  0  0  0  0
  -35.2552   64.2299   66.8588 C   0  0  0  0  0  0  0  0  0  0  0  0
  -36.7748   63.3225   67.7423 H   0  0  0  0  0  0  0  0  0  0  0  0
  -33.2825   63.1854   67.7732 O   0  0  0  0  0  0  0  0  0  0  0  0
  -33.7581   64.0610   66.7589 C   0  0  0  0  0  0  0  0  0  0  0  0
  -32.3206   63.0896   67.6928 H   0  0  0  0  0  0  0  0  0  0  0  0
  -40.6329   59.7515   64.3574 O   0  0  0  0  0  0  0  0  0  0  0  0
  -41.5198   61.2023   65.8301 O   0  0  0  0  0  0  0  0  0  0  0  0
  -41.3429   60.0754   65.4552 C   0  0  0  0  0  0  0  0  0  0  0  0
  -41.8992   58.8657   66.1400 C   0  0  0  0  0  0  0  0  0  0  0  0
  -42.2803   57.7813   65.1371 C   0  0  0  0  0  0  0  0  0  0  0  0
  -43.7255   57.3231   65.2443 C   0  0  0  0  0  0  0  0  0  0  0  0
  -44.5202   58.0584   66.3174 C   0  0  0  0  0  0  0  0  0  0  0  0
  -45.6331   58.9329   65.7703 C   0  0  0  0  0  0  0  0  0  0  0  0
  -47.0348   58.3276   65.8880 C   0  0  0  0  0  0  0  0  0  0  0  0
  -48.1871   59.3303   65.7981 C   0  0  0  0  0  0  0  0  0  0  0  0
  -48.0600   60.2316   64.6068 C   0  0  0  0  0  0  0  0  0  0  0  0
  -49.0473   60.7458   63.8994 C   0  0  0  0  0  0  0  0  0  0  0  0
  -50.5088   60.5365   64.1415 C   0  0  0  0  0  0  0  0  0  0  0  0
  -51.1774   59.7458   63.0207 C   0  0  0  0  0  0  0  0  0  0  0  0
  -50.5693   58.3724   62.7970 C   0  0  0  0  0  0  0  0  0  0  0  0
  -50.8447   57.8010   61.4167 C   0  0  0  0  0  0  0  0  0  0  0  0
  -50.2361   58.5958   60.2733 C   0  0  0  0  0  0  0  0  0  0  0  0
  -49.5094   57.7314   59.2544 C   0  0  0  0  0  0  0  0  0  0  0  0
  -48.2113   58.3271   58.7463 C   0  0  0  0  0  0  0  0  0  0  0  0
  -47.2263   57.2818   58.3027 C   0  0  0  0  0  0  0  0  0  0  0  0
 21 22  1  0  0  0
  4  5  2  0  0  0
 25 24  1  0  0  0
 25 26  2  0  0  0
 25 27  1  0  0  0
 25 29  1  0  0  0
 22 20  1  0  0  0
  3  5  1  0  0  0
  3  2  1  0  0  0
 20 19  1  0  0  0
 24 23  1  0  0  0
 19 18  1  0  0  0
 18 17  1  0  0  0
 27 28  1  0  0  0
 17 16  1  0  0  0
 29 30  1  0  0  0
 16 15  1  0  0  0
 34 35  1  0  0  0
 34 36  1  0  0  0
 15 14  1  0  0  0
 31 32  1  0  0  0
 31 33  1  0  0  0
 14 13  1  0  0  0
 37  1  1  0  0  0
 37 39  1  0  0  0
 13 12  1  0  0  0
 38 39  2  0  0  0
 12 11  1  0  0  0
 11 10  1  0  0  0
 10  9  1  0  0  0
  9  8  1  0  0  0
  8  7  1  0  0  0
  7  6  1  0  0  0
  6  5  1  0  0  0
  2  1  1  0  0  0
  1 23  1  0  0  0
 30 32  1  0  0  0
 32 35  1  0  0  0
 39 40  1  0  0  0
 40 41  1  0  0  0
 41 42  1  0  0  0
 42 43  1  0  0  0
 43 44  1  0  0  0
 44 45  1  0  0  0
 45 46  1  0  0  0
 46 47  1  0  0  0
 47 48  2  0  0  0
 48 49  1  0  0  0
 49 50  1  0  0  0
 50 51  1  0  0  0
 51 52  1  0  0  0
 52 53  1  0  0  0
 53 54  1  0  0  0
 54 55  1  0  0  0
 55 56  1  0  0  0
M  CHG 1  26  -1
M  END
> <minimizedAffinity>
-8.50364

> <CNNscore>
0.4458987415

> <CNNaffinity>
7.3970594406

> <CNN_VS>
3.2983396053

> <CNNaffinity_variance>
1.2126724720

$$$$
/media/chris/experiments/cd1a-new-docking/inputs/ligands/7sh4_ligand.pdb


 56 55  0  0  0  0  0  0  0  0999 V2000
  -39.9467   60.5008   64.9505 C   0  0  0  0  0  0  0  0  0  0  0  0
  -40.4681   60.5649   63.5428 C   0  0  0  0  0  0  0  0  0  0  0  0
  -41.4475   61.6243   63.5810 O   0  0  0  0  0  0  0  0  0  0  0  0
  -42.5486   62.0264   61.6771 O   0  0  0  0  0  0  0  0  0  0  0  0
  -42.4926   61.5108   62.7609 C   0  0  0  0  0  0  0  0  0  0  0  0
  -43.5170   60.5632   63.3152 C   0  0  0  0  0  0  0  0  0  0  0  0
  -44.3778   61.1556   64.4182 C   0  0  0  0  0  0  0  0  0  0  0  0
  -45.5586   60.2777   64.7755 C   0  0  0  0  0  0  0  0  0  0  0  0
  -45.6733   59.9642   66.2501 C   0  0  0  0  0  0  0  0  0  0  0  0
  -46.8278   59.0367   66.5714 C   0  0  0  0  0  0  0  0  0  0  0  0
  -47.9237   59.0712   65.5345 C   0  0  0  0  0  0  0  0  0  0  0  0
  -49.1867   59.7211   66.0347 C   0  0  0  0  0  0  0  0  0  0  0  0
  -50.4317   59.2409   65.3224 C   0  0  0  0  0  0  0  0  0  0  0  0
  -51.1076   60.3361   64.5224 C   0  0  0  0  0  0  0  0  0  0  0  0
  -51.1271   60.0879   63.0286 C   0  0  0  0  0  0  0  0  0  0  0  0
  -51.0187   58.6159   62.6473 C   0  0  0  0  0  0  0  0  0  0  0  0
  -49.8141   58.2897   61.7856 C   0  0  0  0  0  0  0  0  0  0  0  0
  -50.1801   57.8166   60.3936 C   0  0  0  0  0  0  0  0  0  0  0  0
  -49.2249   58.3034   59.3128 C   0  0  0  0  0  0  0  0  0  0  0  0
  -47.9081   57.5483   59.2805 C   0  0  0  0  0  0  0  0  0  0  0  0
  -46.9705   58.3323   57.0800 C   0  0  0  0  0  0  0  0  0  0  0  0
  -47.4397   57.1480   57.8944 C   0  0  0  0  0  0  0  0  0  0  0  0
  -38.4440   60.6049   65.0030 C   0  0  0  0  0  0  0  0  0  0  0  0
  -38.0644   61.9790   64.7654 O   0  0  0  0  0  0  0  0  0  0  0  0
  -36.8647   62.3910   63.7894 P   0  0  0  0  0  0  0  0  0  0  0  0
  -36.7288   61.3373   62.7607 O   0  0  0  0  0  0  0  0  0  0  0  0
  -37.0861   63.7900   63.3509 O   0  0  0  0  0  0  0  0  0  0  0  0
  -37.8804   63.8331   62.7959 H   0  0  0  0  0  0  0  0  0  0  0  0
  -35.5536   62.3635   64.6965 O   0  0  0  0  0  0  0  0  0  0  0  0
  -34.9633   63.5992   65.1491 C   0  0  0  0  0  0  0  0  0  0  0  0
  -36.7111   64.6361   66.4189 O   0  0  0  0  0  0  0  0  0  0  0  0
  -35.4895   63.8998   66.5310 C   0  0  0  0  0  0  0  0  0  0  0  0
  -36.5590   65.4367   65.8928 H   0  0  0  0  0  0  0  0  0  0  0  0
  -36.3111   62.9630   68.5964 O   0  0  0  0  0  0  0  0  0  0  0  0
  -35.7082   62.6488   67.3476 C   0  0  0  0  0  0  0  0  0  0  0  0
  -36.4434   62.1482   69.1057 H   0  0  0  0  0  0  0  0  0  0  0  0
  -40.4252   59.2579   65.5638 O   0  0  0  0  0  0  0  0  0  0  0  0
  -42.0373   60.3508   66.6895 O   0  0  0  0  0  0  0  0  0  0  0  0
  -41.5693   59.3272   66.2713 C   0  0  0  0  0  0  0  0  0  0  0  0
  -42.1956   57.9800   66.4575 C   0  0  0  0  0  0  0  0  0  0  0  0
  -43.0608   57.5957   65.2614 C   0  0  0  0  0  0  0  0  0  0  0  0
  -42.5270   56.4136   64.4691 C   0  0  0  0  0  0  0  0  0  0  0  0
  -41.5323   56.8069   63.3829 C   0  0  0  0  0  0  0  0  0  0  0  0
  -41.2155   55.6920   62.4036 C   0  0  0  0  0  0  0  0  0  0  0  0
  -41.4136   56.0626   60.9310 C   0  0  0  0  0  0  0  0  0  0  0  0
  -41.7620   57.5294   60.6695 C   0  0  0  0  0  0  0  0  0  0  0  0
  -41.2460   58.0050   59.3446 C   0  0  0  0  0  0  0  0  0  0  0  0
  -40.5014   59.0715   59.1263 C   0  0  0  0  0  0  0  0  0  0  0  0
  -40.0122   60.0336   60.1624 C   0  0  0  0  0  0  0  0  0  0  0  0
  -38.5167   59.8911   60.4295 C   0  0  0  0  0  0  0  0  0  0  0  0
  -37.9909   58.4825   60.2164 C   0  0  0  0  0  0  0  0  0  0  0  0
  -38.1833   57.5717   61.4168 C   0  0  0  0  0  0  0  0  0  0  0  0
  -37.3503   57.9463   62.6314 C   0  0  0  0  0  0  0  0  0  0  0  0
  -35.8725   58.1269   62.3199 C   0  0  0  0  0  0  0  0  0  0  0  0
  -34.9439   57.6955   63.4377 C   0  0  0  0  0  0  0  0  0  0  0  0
  -35.6483   57.5588   64.7586 C   0  0  0  0  0  0  0  0  0  0  0  0
 21 22  1  0  0  0
  4  5  2  0  0  0
 25 24  1  0  0  0
 25 26  2  0  0  0
 25 27  1  0  0  0
 25 29  1  0  0  0
 22 20  1  0  0  0
  3  5  1  0  0  0
  3  2  1  0  0  0
 20 19  1  0  0  0
 24 23  1  0  0  0
 19 18  1  0  0  0
 18 17  1  0  0  0
 27 28  1  0  0  0
 17 16  1  0  0  0
 29 30  1  0  0  0
 16 15  1  0  0  0
 34 35  1  0  0  0
 34 36  1  0  0  0
 15 14  1  0  0  0
 31 32  1  0  0  0
 31 33  1  0  0  0
 14 13  1  0  0  0
 37  1  1  0  0  0
 37 39  1  0  0  0
 13 12  1  0  0  0
 38 39  2  0  0  0
 12 11  1  0  0  0
 11 10  1  0  0  0
 10  9  1  0  0  0
  9  8  1  0  0  0
  8  7  1  0  0  0
  7  6  1  0  0  0
  6  5  1  0  0  0
  2  1  1  0  0  0
  1 23  1  0  0  0
 30 32  1  0  0  0
 32 35  1  0  0  0
 39 40  1  0  0  0
 40 41  1  0  0  0
 41 42  1  0  0  0
 42 43  1  0  0  0
 43 44  1  0  0  0
 44 45  1  0  0  0
 45 46  1  0  0  0
 46 47  1  0  0  0
 47 48  2  0  0  0
 48 49  1  0  0  0
 49 50  1  0  0  0
 50 51  1  0  0  0
 51 52  1  0  0  0
 52 53  1  0  0  0
 53 54  1  0  0  0
 54 55  1  0  0  0
 55 56  1  0  0  0
M  CHG 1  26  -1
M  END
> <minimizedAffinity>
-8.85858

> <CNNscore>
0.3901114464

> <CNNaffinity>
7.5923752785

> <CNN_VS>
2.9618725777

> <CNNaffinity_variance>
1.9749042988

$$$$
/media/chris/experiments/cd1a-new-docking/inputs/ligands/7sh4_ligand.pdb


 56 55  0  0  0  0  0  0  0  0999 V2000
  -41.4767   59.8872   64.6283 C   0  0  0  0  0  0  0  0  0  0  0  0
  -41.5327   61.1027   63.7467 C   0  0  0  0  0  0  0  0  0  0  0  0
  -41.0748   60.6251   62.4640 O   0  0  0  0  0  0  0  0  0  0  0  0
  -42.5048   61.9924   61.4224 O   0  0  0  0  0  0  0  0  0  0  0  0
  -41.6834   61.1164   61.3841 C   0  0  0  0  0  0  0  0  0  0  0  0
  -41.1181   60.5233   60.1258 C   0  0  0  0  0  0  0  0  0  0  0  0
  -40.5117   59.1422   60.3086 C   0  0  0  0  0  0  0  0  0  0  0  0
  -39.1646   58.9993   59.6321 C   0  0  0  0  0  0  0  0  0  0  0  0
  -38.0345   58.6443   60.5717 C   0  0  0  0  0  0  0  0  0  0  0  0
  -38.4633   57.7189   61.6923 C   0  0  0  0  0  0  0  0  0  0  0  0
  -37.4083   57.5476   62.7577 C   0  0  0  0  0  0  0  0  0  0  0  0
  -36.1934   58.4068   62.5263 C   0  0  0  0  0  0  0  0  0  0  0  0
  -35.0133   58.0235   63.3915 C   0  0  0  0  0  0  0  0  0  0  0  0
  -33.6828   58.2699   62.7093 C   0  0  0  0  0  0  0  0  0  0  0  0
  -32.9384   59.4829   63.2267 C   0  0  0  0  0  0  0  0  0  0  0  0
  -31.5008   59.5818   62.7293 C   0  0  0  0  0  0  0  0  0  0  0  0
  -31.1582   60.9169   62.0966 C   0  0  0  0  0  0  0  0  0  0  0  0
  -32.0706   62.0434   62.5368 C   0  0  0  0  0  0  0  0  0  0  0  0
  -32.3840   63.0423   61.4316 C   0  0  0  0  0  0  0  0  0  0  0  0
  -33.3889   64.1047   61.8397 C   0  0  0  0  0  0  0  0  0  0  0  0
  -33.4970   65.8219   63.6769 C   0  0  0  0  0  0  0  0  0  0  0  0
  -33.4824   64.3495   63.3338 C   0  0  0  0  0  0  0  0  0  0  0  0
  -40.4956   60.0537   65.7603 C   0  0  0  0  0  0  0  0  0  0  0  0
  -39.6463   61.1881   65.4769 O   0  0  0  0  0  0  0  0  0  0  0  0
  -38.1183   61.0362   65.0254 P   0  0  0  0  0  0  0  0  0  0  0  0
  -37.5883   59.7883   65.6158 O   0  0  0  0  0  0  0  0  0  0  0  0
  -38.0518   61.2127   63.5547 O   0  0  0  0  0  0  0  0  0  0  0  0
  -38.5109   60.4773   63.1196 H   0  0  0  0  0  0  0  0  0  0  0  0
  -37.3544   62.2620   65.7011 O   0  0  0  0  0  0  0  0  0  0  0  0
  -35.9206   62.2241   65.8517 C   0  0  0  0  0  0  0  0  0  0  0  0
  -36.0448   63.0741   68.0888 O   0  0  0  0  0  0  0  0  0  0  0  0
  -35.5110   63.3349   66.7873 C   0  0  0  0  0  0  0  0  0  0  0  0
  -37.0073   62.9699   68.0286 H   0  0  0  0  0  0  0  0  0  0  0  0
  -33.6729   64.7803   67.3796 O   0  0  0  0  0  0  0  0  0  0  0  0
  -34.0120   63.5000   66.8623 C   0  0  0  0  0  0  0  0  0  0  0  0
  -32.7076   64.8673   67.4201 H   0  0  0  0  0  0  0  0  0  0  0  0
  -41.1492   58.7267   63.7941 O   0  0  0  0  0  0  0  0  0  0  0  0
  -41.5751   56.5187   63.8541 O   0  0  0  0  0  0  0  0  0  0  0  0
  -41.9597   57.6555   63.8929 C   0  0  0  0  0  0  0  0  0  0  0  0
  -43.3922   58.0514   64.0751 C   0  0  0  0  0  0  0  0  0  0  0  0
  -44.1070   57.1275   65.0561 C   0  0  0  0  0  0  0  0  0  0  0  0
  -44.7818   57.8548   66.2075 C   0  0  0  0  0  0  0  0  0  0  0  0
  -44.8671   59.3638   66.0091 C   0  0  0  0  0  0  0  0  0  0  0  0
  -46.2827   59.8855   65.8462 C   0  0  0  0  0  0  0  0  0  0  0  0
  -46.6603   60.2650   64.4114 C   0  0  0  0  0  0  0  0  0  0  0  0
  -48.1604   60.2613   64.1098 C   0  0  0  0  0  0  0  0  0  0  0  0
  -48.8477   59.0556   64.6773 C   0  0  0  0  0  0  0  0  0  0  0  0
  -50.0075   58.5576   64.2949 C   0  0  0  0  0  0  0  0  0  0  0  0
  -50.8833   59.0947   63.2072 C   0  0  0  0  0  0  0  0  0  0  0  0
  -50.9162   58.1842   61.9831 C   0  0  0  0  0  0  0  0  0  0  0  0
  -49.5798   58.0721   61.2707 C   0  0  0  0  0  0  0  0  0  0  0  0
  -49.4983   58.8922   59.9946 C   0  0  0  0  0  0  0  0  0  0  0  0
  -49.0992   58.0994   58.7611 C   0  0  0  0  0  0  0  0  0  0  0  0
  -47.7337   58.4820   58.2110 C   0  0  0  0  0  0  0  0  0  0  0  0
  -47.2383   57.5830   57.0954 C   0  0  0  0  0  0  0  0  0  0  0  0
  -47.5562   56.1331   57.3326 C   0  0  0  0  0  0  0  0  0  0  0  0
 21 22  1  0  0  0
  4  5  2  0  0  0
 25 24  1  0  0  0
 25 26  2  0  0  0
 25 27  1  0  0  0
 25 29  1  0  0  0
 22 20  1  0  0  0
  3  5  1  0  0  0
  3  2  1  0  0  0
 20 19  1  0  0  0
 24 23  1  0  0  0
 19 18  1  0  0  0
 18 17  1  0  0  0
 27 28  1  0  0  0
 17 16  1  0  0  0
 29 30  1  0  0  0
 16 15  1  0  0  0
 34 35  1  0  0  0
 34 36  1  0  0  0
 15 14  1  0  0  0
 31 32  1  0  0  0
 31 33  1  0  0  0
 14 13  1  0  0  0
 37  1  1  0  0  0
 37 39  1  0  0  0
 13 12  1  0  0  0
 38 39  2  0  0  0
 12 11  1  0  0  0
 11 10  1  0  0  0
 10  9  1  0  0  0
  9  8  1  0  0  0
  8  7  1  0  0  0
  7  6  1  0  0  0
  6  5  1  0  0  0
  2  1  1  0  0  0
  1 23  1  0  0  0
 30 32  1  0  0  0
 32 35  1  0  0  0
 39 40  1  0  0  0
 40 41  1  0  0  0
 41 42  1  0  0  0
 42 43  1  0  0  0
 43 44  1  0  0  0
 44 45  1  0  0  0
 45 46  1  0  0  0
 46 47  1  0  0  0
 47 48  2  0  0  0
 48 49  1  0  0  0
 49 50  1  0  0  0
 50 51  1  0  0  0
 51 52  1  0  0  0
 52 53  1  0  0  0
 53 54  1  0  0  0
 54 55  1  0  0  0
 55 56  1  0  0  0
M  CHG 1  26  -1
M  END
> <minimizedAffinity>
-8.33510

> <CNNscore>
0.3800268769

> <CNNaffinity>
7.2295584679

> <CNN_VS>
2.7474265099

> <CNNaffinity_variance>
0.9129333496

$$$$
/media/chris/experiments/cd1a-new-docking/inputs/ligands/7sh4_ligand.pdb


 56 55  0  0  0  0  0  0  0  0999 V2000
  -40.0275   58.0295   63.9124 C   0  0  0  0  0  0  0  0  0  0  0  0
  -41.1953   57.4955   64.6926 C   0  0  0  0  0  0  0  0  0  0  0  0
  -42.0882   58.6242   64.8013 O   0  0  0  0  0  0  0  0  0  0  0  0
  -43.1922   57.6535   66.4859 O   0  0  0  0  0  0  0  0  0  0  0  0
  -42.9353   58.6275   65.8309 C   0  0  0  0  0  0  0  0  0  0  0  0
  -43.4173   60.0172   66.1327 C   0  0  0  0  0  0  0  0  0  0  0  0
  -44.8535   60.2809   65.7127 C   0  0  0  0  0  0  0  0  0  0  0  0
  -45.8411   59.3514   66.3859 C   0  0  0  0  0  0  0  0  0  0  0  0
  -46.7933   58.6646   65.4333 C   0  0  0  0  0  0  0  0  0  0  0  0
  -47.2860   59.5757   64.3273 C   0  0  0  0  0  0  0  0  0  0  0  0
  -48.3716   60.5225   64.7770 C   0  0  0  0  0  0  0  0  0  0  0  0
  -49.3004   59.9127   65.7935 C   0  0  0  0  0  0  0  0  0  0  0  0
  -50.6672   59.5827   65.2360 C   0  0  0  0  0  0  0  0  0  0  0  0
  -51.0940   60.5304   64.1333 C   0  0  0  0  0  0  0  0  0  0  0  0
  -51.0453   59.9257   62.7457 C   0  0  0  0  0  0  0  0  0  0  0  0
  -50.9297   58.4057   62.7398 C   0  0  0  0  0  0  0  0  0  0  0  0
  -49.7137   57.8830   61.9995 C   0  0  0  0  0  0  0  0  0  0  0  0
  -49.9243   57.7649   60.5038 C   0  0  0  0  0  0  0  0  0  0  0  0
  -48.6550   57.4289   59.7335 C   0  0  0  0  0  0  0  0  0  0  0  0
  -48.2277   58.5154   58.7628 C   0  0  0  0  0  0  0  0  0  0  0  0
  -47.1065   56.5465   57.6664 C   0  0  0  0  0  0  0  0  0  0  0  0
  -47.3904   58.0298   57.5948 C   0  0  0  0  0  0  0  0  0  0  0  0
  -40.2194   59.4728   63.5227 C   0  0  0  0  0  0  0  0  0  0  0  0
  -39.0340   60.2146   63.8873 O   0  0  0  0  0  0  0  0  0  0  0  0
  -38.7195   60.6626   65.3913 P   0  0  0  0  0  0  0  0  0  0  0  0
  -40.0070   60.9268   66.0690 O   0  0  0  0  0  0  0  0  0  0  0  0
  -37.7930   59.6687   65.9849 O   0  0  0  0  0  0  0  0  0  0  0  0
  -38.2464   58.8157   66.0722 H   0  0  0  0  0  0  0  0  0  0  0  0
  -37.9379   62.0467   65.2651 O   0  0  0  0  0  0  0  0  0  0  0  0
  -36.5898   62.0701   64.7533 C   0  0  0  0  0  0  0  0  0  0  0  0
  -36.7762   63.9951   66.1682 O   0  0  0  0  0  0  0  0  0  0  0  0
  -35.8507   63.2091   65.4114 C   0  0  0  0  0  0  0  0  0  0  0  0
  -37.4929   64.2977   65.5888 H   0  0  0  0  0  0  0  0  0  0  0  0
  -34.9246   63.1632   67.6382 O   0  0  0  0  0  0  0  0  0  0  0  0
  -34.7273   62.7292   66.2987 C   0  0  0  0  0  0  0  0  0  0  0  0
  -34.1942   62.8457   68.1919 H   0  0  0  0  0  0  0  0  0  0  0  0
  -39.8263   57.1738   62.7389 O   0  0  0  0  0  0  0  0  0  0  0  0
  -41.2433   55.4363   62.5559 O   0  0  0  0  0  0  0  0  0  0  0  0
  -40.9125   56.5481   62.2460 C   0  0  0  0  0  0  0  0  0  0  0  0
  -41.6665   57.4103   61.2816 C   0  0  0  0  0  0  0  0  0  0  0  0
  -41.0057   57.4211   59.9068 C   0  0  0  0  0  0  0  0  0  0  0  0
  -40.3510   58.7450   59.5482 C   0  0  0  0  0  0  0  0  0  0  0  0
  -38.9394   58.5963   58.9922 C   0  0  0  0  0  0  0  0  0  0  0  0
  -37.8523   59.0885   59.9294 C   0  0  0  0  0  0  0  0  0  0  0  0
  -37.5188   58.1305   61.0767 C   0  0  0  0  0  0  0  0  0  0  0  0
  -36.4087   58.6028   62.0180 C   0  0  0  0  0  0  0  0  0  0  0  0
  -36.4152   57.8564   63.3183 C   0  0  0  0  0  0  0  0  0  0  0  0
  -35.3810   57.6415   64.1080 C   0  0  0  0  0  0  0  0  0  0  0  0
  -33.9776   58.1024   63.8697 C   0  0  0  0  0  0  0  0  0  0  0  0
  -33.6849   59.4446   64.5340 C   0  0  0  0  0  0  0  0  0  0  0  0
  -33.4327   60.5710   63.5472 C   0  0  0  0  0  0  0  0  0  0  0  0
  -32.5153   60.1830   62.4002 C   0  0  0  0  0  0  0  0  0  0  0  0
  -31.5252   61.2617   61.9934 C   0  0  0  0  0  0  0  0  0  0  0  0
  -31.9285   62.6563   62.4473 C   0  0  0  0  0  0  0  0  0  0  0  0
  -32.6515   63.4693   61.3917 C   0  0  0  0  0  0  0  0  0  0  0  0
  -32.9349   64.8773   61.8353 C   0  0  0  0  0  0  0  0  0  0  0  0
 21 22  1  0  0  0
  4  5  2  0  0  0
 25 24  1  0  0  0
 25 26  2  0  0  0
 25 27  1  0  0  0
 25 29  1  0  0  0
 22 20  1  0  0  0
  3  5  1  0  0  0
  3  2  1  0  0  0
 20 19  1  0  0  0
 24 23  1  0  0  0
 19 18  1  0  0  0
 18 17  1  0  0  0
 27 28  1  0  0  0
 17 16  1  0  0  0
 29 30  1  0  0  0
 16 15  1  0  0  0
 34 35  1  0  0  0
 34 36  1  0  0  0
 15 14  1  0  0  0
 31 32  1  0  0  0
 31 33  1  0  0  0
 14 13  1  0  0  0
 37  1  1  0  0  0
 37 39  1  0  0  0
 13 12  1  0  0  0
 38 39  2  0  0  0
 12 11  1  0  0  0
 11 10  1  0  0  0
 10  9  1  0  0  0
  9  8  1  0  0  0
  8  7  1  0  0  0
  7  6  1  0  0  0
  6  5  1  0  0  0
  2  1  1  0  0  0
  1 23  1  0  0  0
 30 32  1  0  0  0
 32 35  1  0  0  0
 39 40  1  0  0  0
 40 41  1  0  0  0
 41 42  1  0  0  0
 42 43  1  0  0  0
 43 44  1  0  0  0
 44 45  1  0  0  0
 45 46  1  0  0  0
 46 47  1  0  0  0
 47 48  2  0  0  0
 48 49  1  0  0  0
 49 50  1  0  0  0
 50 51  1  0  0  0
 51 52  1  0  0  0
 52 53  1  0  0  0
 53 54  1  0  0  0
 54 55  1  0  0  0
 55 56  1  0  0  0
M  CHG 1  26  -1
M  END
> <minimizedAffinity>
-8.37337

> <CNNscore>
0.3746050298

> <CNNaffinity>
7.2512574196

> <CNN_VS>
2.7163574696

> <CNNaffinity_variance>
1.0803349018

$$$$
/media/chris/experiments/cd1a-new-docking/inputs/ligands/7sh4_ligand.pdb


 56 55  0  0  0  0  0  0  0  0999 V2000
  -42.6338   57.7014   64.6358 C   0  0  0  0  0  0  0  0  0  0  0  0
  -43.8929   58.4171   65.0357 C   0  0  0  0  0  0  0  0  0  0  0  0
  -44.5880   57.4634   65.8666 O   0  0  0  0  0  0  0  0  0  0  0  0
  -45.7933   57.3442   67.7459 O   0  0  0  0  0  0  0  0  0  0  0  0
  -45.4277   57.9551   66.7781 C   0  0  0  0  0  0  0  0  0  0  0  0
  -45.7470   59.3958   66.5004 C   0  0  0  0  0  0  0  0  0  0  0  0
  -47.2109   59.6581   66.1892 C   0  0  0  0  0  0  0  0  0  0  0  0
  -47.6296   59.1151   64.8392 C   0  0  0  0  0  0  0  0  0  0  0  0
  -48.6946   58.0440   64.9059 C   0  0  0  0  0  0  0  0  0  0  0  0
  -49.9811   58.5256   65.5455 C   0  0  0  0  0  0  0  0  0  0  0  0
  -50.6205   59.6731   64.8027 C   0  0  0  0  0  0  0  0  0  0  0  0
  -51.1217   59.2838   63.4371 C   0  0  0  0  0  0  0  0  0  0  0  0
  -50.7190   60.2557   62.3502 C   0  0  0  0  0  0  0  0  0  0  0  0
  -49.4070   59.8840   61.6894 C   0  0  0  0  0  0  0  0  0  0  0  0
  -49.5329   59.5278   60.2229 C   0  0  0  0  0  0  0  0  0  0  0  0
  -50.1483   58.1557   59.9729 C   0  0  0  0  0  0  0  0  0  0  0  0
  -49.5216   57.0413   60.7886 C   0  0  0  0  0  0  0  0  0  0  0  0
  -48.8727   55.9664   59.9408 C   0  0  0  0  0  0  0  0  0  0  0  0
  -47.5994   56.4247   59.2437 C   0  0  0  0  0  0  0  0  0  0  0  0
  -47.6283   56.2328   57.7378 C   0  0  0  0  0  0  0  0  0  0  0  0
  -46.9348   58.5636   57.0882 C   0  0  0  0  0  0  0  0  0  0  0  0
  -47.9777   57.4784   56.9457 C   0  0  0  0  0  0  0  0  0  0  0  0
  -41.4382   58.1777   65.4203 C   0  0  0  0  0  0  0  0  0  0  0  0
  -40.6334   59.0267   64.5718 O   0  0  0  0  0  0  0  0  0  0  0  0
  -40.6090   60.6209   64.7128 P   0  0  0  0  0  0  0  0  0  0  0  0
  -41.4478   61.1886   63.6353 O   0  0  0  0  0  0  0  0  0  0  0  0
  -40.9275   60.9648   66.1195 O   0  0  0  0  0  0  0  0  0  0  0  0
  -41.8443   60.7148   66.3139 H   0  0  0  0  0  0  0  0  0  0  0  0
  -39.0977   61.0465   64.4344 O   0  0  0  0  0  0  0  0  0  0  0  0
  -38.1279   61.0037   65.5010 C   0  0  0  0  0  0  0  0  0  0  0  0
  -35.7928   61.5406   65.4612 O   0  0  0  0  0  0  0  0  0  0  0  0
  -37.1011   62.0814   65.2540 C   0  0  0  0  0  0  0  0  0  0  0  0
  -35.7357   61.1654   66.3538 H   0  0  0  0  0  0  0  0  0  0  0  0
  -36.4997   61.8732   62.9273 O   0  0  0  0  0  0  0  0  0  0  0  0
  -37.2080   62.6703   63.8678 C   0  0  0  0  0  0  0  0  0  0  0  0
  -36.5798   62.2668   62.0444 H   0  0  0  0  0  0  0  0  0  0  0  0
  -42.4406   57.8785   63.1932 O   0  0  0  0  0  0  0  0  0  0  0  0
  -41.5187   55.8369   62.9871 O   0  0  0  0  0  0  0  0  0  0  0  0
  -41.7169   56.9392   62.5542 C   0  0  0  0  0  0  0  0  0  0  0  0
  -41.2060   57.4272   61.2340 C   0  0  0  0  0  0  0  0  0  0  0  0
  -41.5692   58.8901   61.0003 C   0  0  0  0  0  0  0  0  0  0  0  0
  -40.7157   59.5761   59.9462 C   0  0  0  0  0  0  0  0  0  0  0  0
  -39.7337   58.6390   59.2523 C   0  0  0  0  0  0  0  0  0  0  0  0
  -38.2770   59.0135   59.4529 C   0  0  0  0  0  0  0  0  0  0  0  0
  -37.5641   58.2288   60.5580 C   0  0  0  0  0  0  0  0  0  0  0  0
  -37.7225   58.8002   61.9686 C   0  0  0  0  0  0  0  0  0  0  0  0
  -37.3242   57.8141   63.0255 C   0  0  0  0  0  0  0  0  0  0  0  0
  -36.2111   57.8246   63.7329 C   0  0  0  0  0  0  0  0  0  0  0  0
  -35.1082   58.8301   63.6283 C   0  0  0  0  0  0  0  0  0  0  0  0
  -33.9882   58.3715   62.6989 C   0  0  0  0  0  0  0  0  0  0  0  0
  -32.6442   58.2244   63.3902 C   0  0  0  0  0  0  0  0  0  0  0  0
  -31.6575   59.3270   63.0462 C   0  0  0  0  0  0  0  0  0  0  0  0
  -32.0610   60.1849   61.8585 C   0  0  0  0  0  0  0  0  0  0  0  0
  -31.1575   61.3902   61.6474 C   0  0  0  0  0  0  0  0  0  0  0  0
  -31.8930   62.7137   61.5748 C   0  0  0  0  0  0  0  0  0  0  0  0
  -33.0341   62.7990   62.5496 C   0  0  0  0  0  0  0  0  0  0  0  0
 21 22  1  0  0  0
  4  5  2  0  0  0
 25 24  1  0  0  0
 25 26  2  0  0  0
 25 27  1  0  0  0
 25 29  1  0  0  0
 22 20  1  0  0  0
  3  5  1  0  0  0
  3  2  1  0  0  0
 20 19  1  0  0  0
 24 23  1  0  0  0
 19 18  1  0  0  0
 18 17  1  0  0  0
 27 28  1  0  0  0
 17 16  1  0  0  0
 29 30  1  0  0  0
 16 15  1  0  0  0
 34 35  1  0  0  0
 34 36  1  0  0  0
 15 14  1  0  0  0
 31 32  1  0  0  0
 31 33  1  0  0  0
 14 13  1  0  0  0
 37  1  1  0  0  0
 37 39  1  0  0  0
 13 12  1  0  0  0
 38 39  2  0  0  0
 12 11  1  0  0  0
 11 10  1  0  0  0
 10  9  1  0  0  0
  9  8  1  0  0  0
  8  7  1  0  0  0
  7  6  1  0  0  0
  6  5  1  0  0  0
  2  1  1  0  0  0
  1 23  1  0  0  0
 30 32  1  0  0  0
 32 35  1  0  0  0
 39 40  1  0  0  0
 40 41  1  0  0  0
 41 42  1  0  0  0
 42 43  1  0  0  0
 43 44  1  0  0  0
 44 45  1  0  0  0
 45 46  1  0  0  0
 46 47  1  0  0  0
 47 48  2  0  0  0
 48 49  1  0  0  0
 49 50  1  0  0  0
 50 51  1  0  0  0
 51 52  1  0  0  0
 52 53  1  0  0  0
 53 54  1  0  0  0
 54 55  1  0  0  0
 55 56  1  0  0  0
M  CHG 1  26  -1
M  END
> <minimizedAffinity>
-8.27201

> <CNNscore>
0.3527844250

> <CNNaffinity>
7.1954202652

> <CNN_VS>
2.5384321213

> <CNNaffinity_variance>
1.5002218485

$$$$
/media/chris/experiments/cd1a-new-docking/inputs/ligands/7sh4_ligand.pdb


 56 55  0  0  0  0  0  0  0  0999 V2000
  -39.5330   59.7494   61.8050 C   0  0  0  0  0  0  0  0  0  0  0  0
  -40.7383   60.5884   61.4871 C   0  0  0  0  0  0  0  0  0  0  0  0
  -41.1074   61.1649   62.7577 O   0  0  0  0  0  0  0  0  0  0  0  0
  -42.7302   59.6661   63.1024 O   0  0  0  0  0  0  0  0  0  0  0  0
  -41.9274   60.4512   63.5297 C   0  0  0  0  0  0  0  0  0  0  0  0
  -41.6267   60.6662   64.9850 C   0  0  0  0  0  0  0  0  0  0  0  0
  -40.7913   59.5647   65.6155 C   0  0  0  0  0  0  0  0  0  0  0  0
  -39.3111   59.7195   65.3370 C   0  0  0  0  0  0  0  0  0  0  0  0
  -38.5882   58.4152   65.0878 C   0  0  0  0  0  0  0  0  0  0  0  0
  -37.1049   58.5974   64.8377 C   0  0  0  0  0  0  0  0  0  0  0  0
  -36.5887   57.7624   63.6915 C   0  0  0  0  0  0  0  0  0  0  0  0
  -35.0864   57.7705   63.5873 C   0  0  0  0  0  0  0  0  0  0  0  0
  -34.4114   58.5362   64.7035 C   0  0  0  0  0  0  0  0  0  0  0  0
  -32.9000   58.5171   64.5957 C   0  0  0  0  0  0  0  0  0  0  0  0
  -32.3749   58.8438   63.2134 C   0  0  0  0  0  0  0  0  0  0  0  0
  -32.6161   60.2877   62.7882 C   0  0  0  0  0  0  0  0  0  0  0  0
  -31.4088   60.9541   62.1570 C   0  0  0  0  0  0  0  0  0  0  0  0
  -31.6770   62.3714   61.6938 C   0  0  0  0  0  0  0  0  0  0  0  0
  -32.9203   62.9917   62.3159 C   0  0  0  0  0  0  0  0  0  0  0  0
  -32.8815   64.5087   62.3679 C   0  0  0  0  0  0  0  0  0  0  0  0
  -32.9828   65.9456   64.4321 C   0  0  0  0  0  0  0  0  0  0  0  0
  -33.7684   65.1304   63.4299 C   0  0  0  0  0  0  0  0  0  0  0  0
  -38.2490   60.5253   61.6604 C   0  0  0  0  0  0  0  0  0  0  0  0
  -38.2447   61.6015   62.6250 O   0  0  0  0  0  0  0  0  0  0  0  0
  -36.9045   62.3391   63.0957 P   0  0  0  0  0  0  0  0  0  0  0  0
  -35.8769   61.3056   63.3461 O   0  0  0  0  0  0  0  0  0  0  0  0
  -36.6066   63.4191   62.1245 O   0  0  0  0  0  0  0  0  0  0  0  0
  -36.3834   63.0287   61.2651 H   0  0  0  0  0  0  0  0  0  0  0  0
  -37.2655   63.0208   64.4912 O   0  0  0  0  0  0  0  0  0  0  0  0
  -36.6746   62.5260   65.7103 C   0  0  0  0  0  0  0  0  0  0  0  0
  -36.2738   64.0928   67.4787 O   0  0  0  0  0  0  0  0  0  0  0  0
  -35.7439   63.5834   66.2512 C   0  0  0  0  0  0  0  0  0  0  0  0
  -37.1729   64.4249   67.3296 H   0  0  0  0  0  0  0  0  0  0  0  0
  -34.0825   61.9568   65.6089 O   0  0  0  0  0  0  0  0  0  0  0  0
  -34.3433   63.0616   66.4651 C   0  0  0  0  0  0  0  0  0  0  0  0
  -33.1797   61.6361   65.7606 H   0  0  0  0  0  0  0  0  0  0  0  0
  -39.5519   58.5672   60.9378 O   0  0  0  0  0  0  0  0  0  0  0  0
  -41.3702   57.3708   60.3698 O   0  0  0  0  0  0  0  0  0  0  0  0
  -40.5188   57.6577   61.1663 C   0  0  0  0  0  0  0  0  0  0  0  0
  -40.3939   57.0356   62.5225 C   0  0  0  0  0  0  0  0  0  0  0  0
  -41.6886   56.3474   62.9432 C   0  0  0  0  0  0  0  0  0  0  0  0
  -41.9627   56.4101   64.4368 C   0  0  0  0  0  0  0  0  0  0  0  0
  -43.4044   56.7693   64.7776 C   0  0  0  0  0  0  0  0  0  0  0  0
  -43.5576   57.5415   66.0749 C   0  0  0  0  0  0  0  0  0  0  0  0
  -44.7399   58.5145   66.1009 C   0  0  0  0  0  0  0  0  0  0  0  0
  -45.4358   58.7302   64.7554 C   0  0  0  0  0  0  0  0  0  0  0  0
  -46.0922   60.0754   64.6682 C   0  0  0  0  0  0  0  0  0  0  0  0
  -47.3630   60.3162   64.4101 C   0  0  0  0  0  0  0  0  0  0  0  0
  -48.4209   59.2904   64.1508 C   0  0  0  0  0  0  0  0  0  0  0  0
  -49.3510   59.6891   63.0087 C   0  0  0  0  0  0  0  0  0  0  0  0
  -50.5015   58.7215   62.7936 C   0  0  0  0  0  0  0  0  0  0  0  0
  -50.5917   58.1871   61.3745 C   0  0  0  0  0  0  0  0  0  0  0  0
  -49.6626   58.8697   60.3844 C   0  0  0  0  0  0  0  0  0  0  0  0
  -49.3985   58.0447   59.1341 C   0  0  0  0  0  0  0  0  0  0  0  0
  -48.0359   58.2772   58.5118 C   0  0  0  0  0  0  0  0  0  0  0  0
  -47.2007   57.0285   58.4581 C   0  0  0  0  0  0  0  0  0  0  0  0
 21 22  1  0  0  0
  4  5  2  0  0  0
 25 24  1  0  0  0
 25 26  2  0  0  0
 25 27  1  0  0  0
 25 29  1  0  0  0
 22 20  1  0  0  0
  3  5  1  0  0  0
  3  2  1  0  0  0
 20 19  1  0  0  0
 24 23  1  0  0  0
 19 18  1  0  0  0
 18 17  1  0  0  0
 27 28  1  0  0  0
 17 16  1  0  0  0
 29 30  1  0  0  0
 16 15  1  0  0  0
 34 35  1  0  0  0
 34 36  1  0  0  0
 15 14  1  0  0  0
 31 32  1  0  0  0
 31 33  1  0  0  0
 14 13  1  0  0  0
 37  1  1  0  0  0
 37 39  1  0  0  0
 13 12  1  0  0  0
 38 39  2  0  0  0
 12 11  1  0  0  0
 11 10  1  0  0  0
 10  9  1  0  0  0
  9  8  1  0  0  0
  8  7  1  0  0  0
  7  6  1  0  0  0
  6  5  1  0  0  0
  2  1  1  0  0  0
  1 23  1  0  0  0
 30 32  1  0  0  0
 32 35  1  0  0  0
 39 40  1  0  0  0
 40 41  1  0  0  0
 41 42  1  0  0  0
 42 43  1  0  0  0
 43 44  1  0  0  0
 44 45  1  0  0  0
 45 46  1  0  0  0
 46 47  1  0  0  0
 47 48  2  0  0  0
 48 49  1  0  0  0
 49 50  1  0  0  0
 50 51  1  0  0  0
 51 52  1  0  0  0
 52 53  1  0  0  0
 53 54  1  0  0  0
 54 55  1  0  0  0
 55 56  1  0  0  0
M  CHG 1  26  -1
M  END
> <minimizedAffinity>
-7.66412

> <CNNscore>
0.2749954164

> <CNNaffinity>
7.1050949097

> <CNN_VS>
1.9538685083

> <CNNaffinity_variance>
1.2926639318

$$$$
/media/chris/experiments/cd1a-new-docking/inputs/ligands/7sh4_ligand.pdb


 56 55  0  0  0  0  0  0  0  0999 V2000
  -41.5936   59.7297   62.3024 C   0  0  0  0  0  0  0  0  0  0  0  0
  -40.7154   59.8800   61.0925 C   0  0  0  0  0  0  0  0  0  0  0  0
  -40.3890   58.5224   60.7271 O   0  0  0  0  0  0  0  0  0  0  0  0
  -39.7007   58.2601   58.6160 O   0  0  0  0  0  0  0  0  0  0  0  0
  -39.4566   58.3569   59.7885 C   0  0  0  0  0  0  0  0  0  0  0  0
  -38.0765   58.4346   60.3749 C   0  0  0  0  0  0  0  0  0  0  0  0
  -37.9283   57.7236   61.7095 C   0  0  0  0  0  0  0  0  0  0  0  0
  -37.0185   58.4614   62.6689 C   0  0  0  0  0  0  0  0  0  0  0  0
  -36.5904   57.6454   63.8676 C   0  0  0  0  0  0  0  0  0  0  0  0
  -35.1573   57.9089   64.2834 C   0  0  0  0  0  0  0  0  0  0  0  0
  -34.1938   57.9176   63.1219 C   0  0  0  0  0  0  0  0  0  0  0  0
  -32.8085   58.3626   63.5098 C   0  0  0  0  0  0  0  0  0  0  0  0
  -32.6156   59.8609   63.4331 C   0  0  0  0  0  0  0  0  0  0  0  0
  -32.1131   60.3177   62.0784 C   0  0  0  0  0  0  0  0  0  0  0  0
  -30.9928   61.3344   62.1456 C   0  0  0  0  0  0  0  0  0  0  0  0
  -31.0211   62.3578   61.0161 C   0  0  0  0  0  0  0  0  0  0  0  0
  -31.5549   63.7161   61.4286 C   0  0  0  0  0  0  0  0  0  0  0  0
  -33.0681   63.7891   61.4432 C   0  0  0  0  0  0  0  0  0  0  0  0
  -33.6490   64.1404   62.8058 C   0  0  0  0  0  0  0  0  0  0  0  0
  -32.7011   64.9387   63.6830 C   0  0  0  0  0  0  0  0  0  0  0  0
  -32.7812   64.4922   66.1589 C   0  0  0  0  0  0  0  0  0  0  0  0
  -32.1081   64.1649   64.8452 C   0  0  0  0  0  0  0  0  0  0  0  0
  -41.5320   60.9386   63.2004 C   0  0  0  0  0  0  0  0  0  0  0  0
  -40.2626   60.9409   63.8910 O   0  0  0  0  0  0  0  0  0  0  0  0
  -40.1195   60.5820   65.4442 P   0  0  0  0  0  0  0  0  0  0  0  0
  -41.2397   61.2219   66.1671 O   0  0  0  0  0  0  0  0  0  0  0  0
  -39.9398   59.1151   65.5643 O   0  0  0  0  0  0  0  0  0  0  0  0
  -40.7516   58.6656   65.2819 H   0  0  0  0  0  0  0  0  0  0  0  0
  -38.7668   61.2816   65.9165 O   0  0  0  0  0  0  0  0  0  0  0  0
  -37.4954   60.7753   65.4613 C   0  0  0  0  0  0  0  0  0  0  0  0
  -37.6490   62.6848   64.0216 O   0  0  0  0  0  0  0  0  0  0  0  0
  -36.7406   61.9053   64.8053 C   0  0  0  0  0  0  0  0  0  0  0  0
  -38.0976   62.1112   63.3807 H   0  0  0  0  0  0  0  0  0  0  0  0
  -36.8381   63.9036   66.1528 O   0  0  0  0  0  0  0  0  0  0  0  0
  -36.0328   62.7832   65.8093 C   0  0  0  0  0  0  0  0  0  0  0  0
  -36.3673   64.4546   66.7976 H   0  0  0  0  0  0  0  0  0  0  0  0
  -41.1984   58.5082   63.0107 O   0  0  0  0  0  0  0  0  0  0  0  0
  -41.9782   56.4392   63.4245 O   0  0  0  0  0  0  0  0  0  0  0  0
  -42.1708   57.6152   63.2774 C   0  0  0  0  0  0  0  0  0  0  0  0
  -43.5148   58.2660   63.3865 C   0  0  0  0  0  0  0  0  0  0  0  0
  -44.1493   58.0131   64.7504 C   0  0  0  0  0  0  0  0  0  0  0  0
  -44.0524   59.1930   65.7035 C   0  0  0  0  0  0  0  0  0  0  0  0
  -45.1112   60.2623   65.4596 C   0  0  0  0  0  0  0  0  0  0  0  0
  -46.5370   59.7599   65.5915 C   0  0  0  0  0  0  0  0  0  0  0  0
  -47.3567   59.8241   64.2996 C   0  0  0  0  0  0  0  0  0  0  0  0
  -48.5077   60.8323   64.3077 C   0  0  0  0  0  0  0  0  0  0  0  0
  -49.7185   60.3016   65.0151 C   0  0  0  0  0  0  0  0  0  0  0  0
  -50.8565   59.9331   64.4596 C   0  0  0  0  0  0  0  0  0  0  0  0
  -51.1773   59.9667   62.9986 C   0  0  0  0  0  0  0  0  0  0  0  0
  -51.1038   58.5854   62.3544 C   0  0  0  0  0  0  0  0  0  0  0  0
  -49.7551   58.2753   61.7292 C   0  0  0  0  0  0  0  0  0  0  0  0
  -49.8359   57.3321   60.5413 C   0  0  0  0  0  0  0  0  0  0  0  0
  -48.8861   57.6691   59.4039 C   0  0  0  0  0  0  0  0  0  0  0  0
  -47.8074   56.6194   59.1845 C   0  0  0  0  0  0  0  0  0  0  0  0
  -46.8968   56.9001   58.0055 C   0  0  0  0  0  0  0  0  0  0  0  0
  -47.1473   58.2462   57.3850 C   0  0  0  0  0  0  0  0  0  0  0  0
 21 22  1  0  0  0
  4  5  2  0  0  0
 25 24  1  0  0  0
 25 26  2  0  0  0
 25 27  1  0  0  0
 25 29  1  0  0  0
 22 20  1  0  0  0
  3  5  1  0  0  0
  3  2  1  0  0  0
 20 19  1  0  0  0
 24 23  1  0  0  0
 19 18  1  0  0  0
 18 17  1  0  0  0
 27 28  1  0  0  0
 17 16  1  0  0  0
 29 30  1  0  0  0
 16 15  1  0  0  0
 34 35  1  0  0  0
 34 36  1  0  0  0
 15 14  1  0  0  0
 31 32  1  0  0  0
 31 33  1  0  0  0
 14 13  1  0  0  0
 37  1  1  0  0  0
 37 39  1  0  0  0
 13 12  1  0  0  0
 38 39  2  0  0  0
 12 11  1  0  0  0
 11 10  1  0  0  0
 10  9  1  0  0  0
  9  8  1  0  0  0
  8  7  1  0  0  0
  7  6  1  0  0  0
  6  5  1  0  0  0
  2  1  1  0  0  0
  1 23  1  0  0  0
 30 32  1  0  0  0
 32 35  1  0  0  0
 39 40  1  0  0  0
 40 41  1  0  0  0
 41 42  1  0  0  0
 42 43  1  0  0  0
 43 44  1  0  0  0
 44 45  1  0  0  0
 45 46  1  0  0  0
 46 47  1  0  0  0
 47 48  2  0  0  0
 48 49  1  0  0  0
 49 50  1  0  0  0
 50 51  1  0  0  0
 51 52  1  0  0  0
 52 53  1  0  0  0
 53 54  1  0  0  0
 54 55  1  0  0  0
 55 56  1  0  0  0
M  CHG 1  26  -1
M  END
> <minimizedAffinity>
-8.06011

> <CNNscore>
0.2301510274

> <CNNaffinity>
6.8816642761

> <CNN_VS>
1.5838221312

> <CNNaffinity_variance>
1.0308506489

$$$$
/media/chris/experiments/cd1a-new-docking/inputs/ligands/7sh4_ligand.pdb


 56 55  0  0  0  0  0  0  0  0999 V2000
  -39.9006   59.6301   64.4492 C   0  0  0  0  0  0  0  0  0  0  0  0
  -40.6351   60.1333   65.6595 C   0  0  0  0  0  0  0  0  0  0  0  0
  -41.7205   60.9106   65.1112 O   0  0  0  0  0  0  0  0  0  0  0  0
  -43.2038   60.3529   63.5339 O   0  0  0  0  0  0  0  0  0  0  0  0
  -42.7739   60.2359   64.6497 C   0  0  0  0  0  0  0  0  0  0  0  0
  -43.2611   59.2350   65.6574 C   0  0  0  0  0  0  0  0  0  0  0  0
  -44.1684   58.1626   65.0783 C   0  0  0  0  0  0  0  0  0  0  0  0
  -45.4593   58.0055   65.8538 C   0  0  0  0  0  0  0  0  0  0  0  0
  -46.3694   59.2113   65.7920 C   0  0  0  0  0  0  0  0  0  0  0  0
  -47.0225   59.3927   64.4367 C   0  0  0  0  0  0  0  0  0  0  0  0
  -47.9141   60.6081   64.3649 C   0  0  0  0  0  0  0  0  0  0  0  0
  -49.3279   60.3273   64.8010 C   0  0  0  0  0  0  0  0  0  0  0  0
  -50.3655   60.7612   63.7896 C   0  0  0  0  0  0  0  0  0  0  0  0
  -51.1776   59.6012   63.2499 C   0  0  0  0  0  0  0  0  0  0  0  0
  -50.4492   58.2737   63.2718 C   0  0  0  0  0  0  0  0  0  0  0  0
  -49.5970   58.0182   62.0339 C   0  0  0  0  0  0  0  0  0  0  0  0
  -50.3822   57.5129   60.8389 C   0  0  0  0  0  0  0  0  0  0  0  0
  -50.2158   58.3721   59.6023 C   0  0  0  0  0  0  0  0  0  0  0  0
  -48.7687   58.5229   59.1541 C   0  0  0  0  0  0  0  0  0  0  0  0
  -48.0632   57.1986   58.9223 C   0  0  0  0  0  0  0  0  0  0  0  0
  -46.9329   58.3078   56.9658 C   0  0  0  0  0  0  0  0  0  0  0  0
  -46.8084   57.2877   58.0747 C   0  0  0  0  0  0  0  0  0  0  0  0
  -39.7689   58.1286   64.4505 C   0  0  0  0  0  0  0  0  0  0  0  0
  -40.8963   57.5622   63.7458 O   0  0  0  0  0  0  0  0  0  0  0  0
  -40.7368   56.6878   62.4147 P   0  0  0  0  0  0  0  0  0  0  0  0
  -39.3037   56.6653   62.0506 O   0  0  0  0  0  0  0  0  0  0  0  0
  -41.4392   55.3986   62.6224 O   0  0  0  0  0  0  0  0  0  0  0  0
  -40.9816   54.8878   63.3084 H   0  0  0  0  0  0  0  0  0  0  0  0
  -41.5183   57.4948   61.2831 O   0  0  0  0  0  0  0  0  0  0  0  0
  -40.9733   57.5795   59.9504 C   0  0  0  0  0  0  0  0  0  0  0  0
  -39.1798   58.6394   58.7661 O   0  0  0  0  0  0  0  0  0  0  0  0
  -40.0602   58.7791   59.8852 C   0  0  0  0  0  0  0  0  0  0  0  0
  -38.6951   57.8022   58.8386 H   0  0  0  0  0  0  0  0  0  0  0  0
  -41.4779   60.3690   61.0169 O   0  0  0  0  0  0  0  0  0  0  0  0
  -40.8237   60.0781   59.7885 C   0  0  0  0  0  0  0  0  0  0  0  0
  -41.9620   61.2056   60.9353 H   0  0  0  0  0  0  0  0  0  0  0  0
  -38.5915   60.2886   64.3969 O   0  0  0  0  0  0  0  0  0  0  0  0
  -39.1365   61.2815   62.4534 O   0  0  0  0  0  0  0  0  0  0  0  0
  -38.3354   61.0533   63.3182 C   0  0  0  0  0  0  0  0  0  0  0  0
  -36.9410   61.5986   63.3360 C   0  0  0  0  0  0  0  0  0  0  0  0
  -36.9071   63.0294   63.8636 C   0  0  0  0  0  0  0  0  0  0  0  0
  -36.2428   63.1692   65.2235 C   0  0  0  0  0  0  0  0  0  0  0  0
  -35.3780   61.9733   65.6054 C   0  0  0  0  0  0  0  0  0  0  0  0
  -33.9844   62.3453   66.0767 C   0  0  0  0  0  0  0  0  0  0  0  0
  -33.4859   63.7051   65.5793 C   0  0  0  0  0  0  0  0  0  0  0  0
  -32.5131   63.6505   64.3993 C   0  0  0  0  0  0  0  0  0  0  0  0
  -33.2256   63.5466   63.0842 C   0  0  0  0  0  0  0  0  0  0  0  0
  -32.8396   62.8509   62.0323 C   0  0  0  0  0  0  0  0  0  0  0  0
  -31.6033   62.0141   61.9327 C   0  0  0  0  0  0  0  0  0  0  0  0
  -31.9156   60.5244   61.8254 C   0  0  0  0  0  0  0  0  0  0  0  0
  -31.4796   59.7212   63.0383 C   0  0  0  0  0  0  0  0  0  0  0  0
  -32.5685   58.8223   63.5982 C   0  0  0  0  0  0  0  0  0  0  0  0
  -33.9842   59.2852   63.2963 C   0  0  0  0  0  0  0  0  0  0  0  0
  -34.8028   58.2642   62.5211 C   0  0  0  0  0  0  0  0  0  0  0  0
  -36.1549   57.9566   63.1335 C   0  0  0  0  0  0  0  0  0  0  0  0
  -36.0916   57.7836   64.6254 C   0  0  0  0  0  0  0  0  0  0  0  0
 21 22  1  0  0  0
  4  5  2  0  0  0
 25 24  1  0  0  0
 25 26  2  0  0  0
 25 27  1  0  0  0
 25 29  1  0  0  0
 22 20  1  0  0  0
  3  5  1  0  0  0
  3  2  1  0  0  0
 20 19  1  0  0  0
 24 23  1  0  0  0
 19 18  1  0  0  0
 18 17  1  0  0  0
 27 28  1  0  0  0
 17 16  1  0  0  0
 29 30  1  0  0  0
 16 15  1  0  0  0
 34 35  1  0  0  0
 34 36  1  0  0  0
 15 14  1  0  0  0
 31 32  1  0  0  0
 31 33  1  0  0  0
 14 13  1  0  0  0
 37  1  1  0  0  0
 37 39  1  0  0  0
 13 12  1  0  0  0
 38 39  2  0  0  0
 12 11  1  0  0  0
 11 10  1  0  0  0
 10  9  1  0  0  0
  9  8  1  0  0  0
  8  7  1  0  0  0
  7  6  1  0  0  0
  6  5  1  0  0  0
  2  1  1  0  0  0
  1 23  1  0  0  0
 30 32  1  0  0  0
 32 35  1  0  0  0
 39 40  1  0  0  0
 40 41  1  0  0  0
 41 42  1  0  0  0
 42 43  1  0  0  0
 43 44  1  0  0  0
 44 45  1  0  0  0
 45 46  1  0  0  0
 46 47  1  0  0  0
 47 48  2  0  0  0
 48 49  1  0  0  0
 49 50  1  0  0  0
 50 51  1  0  0  0
 51 52  1  0  0  0
 52 53  1  0  0  0
 53 54  1  0  0  0
 54 55  1  0  0  0
 55 56  1  0  0  0
M  CHG 1  26  -1
M  END
> <minimizedAffinity>
-7.72769

> <CNNscore>
0.2023354173

> <CNNaffinity>
7.0077810287

> <CNN_VS>
1.4179222584

> <CNNaffinity_variance>
0.8821794391

$$$$
