/media/chris/experiments/cd1a-new-docking/inputs/ligands/7sh4_ligand.pdb


 56 55  0  0  0  0  0  0  0  0999 V2000
  -40.5654   60.0917   64.1897 C   0  0  0  0  0  0  0  0  0  0  0  0
  -39.9915   59.1482   65.2085 C   0  0  0  0  0  0  0  0  0  0  0  0
  -40.1175   57.8494   64.5919 O   0  0  0  0  0  0  0  0  0  0  0  0
  -42.2148   57.5160   65.2920 O   0  0  0  0  0  0  0  0  0  0  0  0
  -41.3498   57.3537   64.4740 C   0  0  0  0  0  0  0  0  0  0  0  0
  -41.5406   56.6850   63.1432 C   0  0  0  0  0  0  0  0  0  0  0  0
  -41.7644   57.6492   61.9905 C   0  0  0  0  0  0  0  0  0  0  0  0
  -41.5895   56.9946   60.6365 C   0  0  0  0  0  0  0  0  0  0  0  0
  -41.0891   57.9280   59.5575 C   0  0  0  0  0  0  0  0  0  0  0  0
  -40.9306   59.3571   60.0358 C   0  0  0  0  0  0  0  0  0  0  0  0
  -39.5320   59.8935   59.8517 C   0  0  0  0  0  0  0  0  0  0  0  0
  -38.5309   58.8215   59.5107 C   0  0  0  0  0  0  0  0  0  0  0  0
  -37.5282   58.5639   60.6135 C   0  0  0  0  0  0  0  0  0  0  0  0
  -38.0287   57.5664   61.6385 C   0  0  0  0  0  0  0  0  0  0  0  0
  -37.3263   57.6511   62.9775 C   0  0  0  0  0  0  0  0  0  0  0  0
  -35.8133   57.8053   62.8707 C   0  0  0  0  0  0  0  0  0  0  0  0
  -35.0994   57.8181   64.2087 C   0  0  0  0  0  0  0  0  0  0  0  0
  -33.8842   58.7224   64.2340 C   0  0  0  0  0  0  0  0  0  0  0  0
  -32.8688   58.4108   63.1433 C   0  0  0  0  0  0  0  0  0  0  0  0
  -31.7225   59.4041   63.0786 C   0  0  0  0  0  0  0  0  0  0  0  0
  -30.7147   60.8224   61.2595 C   0  0  0  0  0  0  0  0  0  0  0  0
  -31.9336   60.5551   62.1132 C   0  0  0  0  0  0  0  0  0  0  0  0
  -39.4930   60.8683   63.4697 C   0  0  0  0  0  0  0  0  0  0  0  0
  -38.6271   61.4837   64.4495 O   0  0  0  0  0  0  0  0  0  0  0  0
  -37.1484   61.9898   64.1043 P   0  0  0  0  0  0  0  0  0  0  0  0
  -36.5591   61.0495   63.1269 O   0  0  0  0  0  0  0  0  0  0  0  0
  -37.2233   63.4284   63.7528 O   0  0  0  0  0  0  0  0  0  0  0  0
  -37.7185   63.5337   62.9255 H   0  0  0  0  0  0  0  0  0  0  0  0
  -36.3290   61.8602   65.4661 O   0  0  0  0  0  0  0  0  0  0  0  0
  -34.9007   62.0606   65.4706 C   0  0  0  0  0  0  0  0  0  0  0  0
  -34.6481   64.4102   65.0730 O   0  0  0  0  0  0  0  0  0  0  0  0
  -34.6110   63.4055   66.0907 C   0  0  0  0  0  0  0  0  0  0  0  0
  -34.0232   64.1797   64.3680 H   0  0  0  0  0  0  0  0  0  0  0  0
  -36.7526   64.3528   66.6691 O   0  0  0  0  0  0  0  0  0  0  0  0
  -35.5789   63.7488   67.1975 C   0  0  0  0  0  0  0  0  0  0  0  0
  -37.3610   64.5657   67.3938 H   0  0  0  0  0  0  0  0  0  0  0  0
  -41.5153   60.9800   64.8667 O   0  0  0  0  0  0  0  0  0  0  0  0
  -42.6329   62.5263   63.6751 O   0  0  0  0  0  0  0  0  0  0  0  0
  -42.5608   61.4224   64.1419 C   0  0  0  0  0  0  0  0  0  0  0  0
  -43.6115   60.3691   63.9729 C   0  0  0  0  0  0  0  0  0  0  0  0
  -44.8200   60.6371   64.8642 C   0  0  0  0  0  0  0  0  0  0  0  0
  -45.1436   59.5021   65.8216 C   0  0  0  0  0  0  0  0  0  0  0  0
  -46.5581   59.5651   66.3865 C   0  0  0  0  0  0  0  0  0  0  0  0
  -47.6413   59.6603   65.3281 C   0  0  0  0  0  0  0  0  0  0  0  0
  -48.3959   58.3531   65.0701 C   0  0  0  0  0  0  0  0  0  0  0  0
  -49.8860   58.3815   65.4173 C   0  0  0  0  0  0  0  0  0  0  0  0
  -50.4362   59.7762   65.4313 C   0  0  0  0  0  0  0  0  0  0  0  0
  -51.0923   60.3736   64.4555 C   0  0  0  0  0  0  0  0  0  0  0  0
  -51.4275   59.7794   63.1240 C   0  0  0  0  0  0  0  0  0  0  0  0
  -50.3396   60.0305   62.0838 C   0  0  0  0  0  0  0  0  0  0  0  0
  -49.6616   58.7634   61.5929 C   0  0  0  0  0  0  0  0  0  0  0  0
  -50.5064   57.9567   60.6218 C   0  0  0  0  0  0  0  0  0  0  0  0
  -49.9688   57.9184   59.2009 C   0  0  0  0  0  0  0  0  0  0  0  0
  -48.6197   58.6033   59.0451 C   0  0  0  0  0  0  0  0  0  0  0  0
  -47.5552   57.7407   58.3968 C   0  0  0  0  0  0  0  0  0  0  0  0
  -46.9729   58.3666   57.1604 C   0  0  0  0  0  0  0  0  0  0  0  0
 21 22  1  0  0  0
  4  5  2  0  0  0
 25 24  1  0  0  0
 25 26  2  0  0  0
 25 27  1  0  0  0
 25 29  1  0  0  0
 22 20  1  0  0  0
  3  5  1  0  0  0
  3  2  1  0  0  0
 20 19  1  0  0  0
 24 23  1  0  0  0
 19 18  1  0  0  0
 18 17  1  0  0  0
 27 28  1  0  0  0
 17 16  1  0  0  0
 29 30  1  0  0  0
 16 15  1  0  0  0
 34 35  1  0  0  0
 34 36  1  0  0  0
 15 14  1  0  0  0
 31 32  1  0  0  0
 31 33  1  0  0  0
 14 13  1  0  0  0
 37  1  1  0  0  0
 37 39  1  0  0  0
 13 12  1  0  0  0
 38 39  2  0  0  0
 12 11  1  0  0  0
 11 10  1  0  0  0
 10  9  1  0  0  0
  9  8  1  0  0  0
  8  7  1  0  0  0
  7  6  1  0  0  0
  6  5  1  0  0  0
  2  1  1  0  0  0
  1 23  1  0  0  0
 30 32  1  0  0  0
 32 35  1  0  0  0
 39 40  1  0  0  0
 40 41  1  0  0  0
 41 42  1  0  0  0
 42 43  1  0  0  0
 43 44  1  0  0  0
 44 45  1  0  0  0
 45 46  1  0  0  0
 46 47  1  0  0  0
 47 48  2  0  0  0
 48 49  1  0  0  0
 49 50  1  0  0  0
 50 51  1  0  0  0
 51 52  1  0  0  0
 52 53  1  0  0  0
 53 54  1  0  0  0
 54 55  1  0  0  0
 55 56  1  0  0  0
M  CHG 1  26  -1
M  END
> <minimizedAffinity>
-8.97587

> <CNNscore>
0.5957157612

> <CNNaffinity>
7.6667051315

> <CNN_VS>
4.5671772957

> <CNNaffinity_variance>
1.2837114334

$$$$
/media/chris/experiments/cd1a-new-docking/inputs/ligands/7sh4_ligand.pdb


 56 55  0  0  0  0  0  0  0  0999 V2000
  -38.9573   60.3054   61.6835 C   0  0  0  0  0  0  0  0  0  0  0  0
  -40.1292   60.9233   62.3924 C   0  0  0  0  0  0  0  0  0  0  0  0
  -41.1501   61.0032   61.3754 O   0  0  0  0  0  0  0  0  0  0  0  0
  -42.8210   62.4657   61.1125 O   0  0  0  0  0  0  0  0  0  0  0  0
  -42.3068   61.5679   61.7235 C   0  0  0  0  0  0  0  0  0  0  0  0
  -42.9292   60.8552   62.8895 C   0  0  0  0  0  0  0  0  0  0  0  0
  -43.9701   61.6744   63.6338 C   0  0  0  0  0  0  0  0  0  0  0  0
  -44.5369   60.9489   64.8359 C   0  0  0  0  0  0  0  0  0  0  0  0
  -45.5523   59.8824   64.4934 C   0  0  0  0  0  0  0  0  0  0  0  0
  -46.5923   59.6833   65.5773 C   0  0  0  0  0  0  0  0  0  0  0  0
  -47.3878   58.4116   65.4109 C   0  0  0  0  0  0  0  0  0  0  0  0
  -48.7927   58.6554   64.9270 C   0  0  0  0  0  0  0  0  0  0  0  0
  -49.1028   60.1178   64.6960 C   0  0  0  0  0  0  0  0  0  0  0  0
  -49.8380   60.3616   63.3937 C   0  0  0  0  0  0  0  0  0  0  0  0
  -51.0513   59.4776   63.1941 C   0  0  0  0  0  0  0  0  0  0  0  0
  -50.8408   58.3636   62.1749 C   0  0  0  0  0  0  0  0  0  0  0  0
  -49.8793   58.7234   61.0586 C   0  0  0  0  0  0  0  0  0  0  0  0
  -50.4075   58.3900   59.6784 C   0  0  0  0  0  0  0  0  0  0  0  0
  -49.4860   57.4829   58.8749 C   0  0  0  0  0  0  0  0  0  0  0  0
  -48.0218   57.6148   59.2540 C   0  0  0  0  0  0  0  0  0  0  0  0
  -46.8873   58.4033   57.1499 C   0  0  0  0  0  0  0  0  0  0  0  0
  -47.0455   57.2750   58.1438 C   0  0  0  0  0  0  0  0  0  0  0  0
  -37.6881   61.0894   61.8985 C   0  0  0  0  0  0  0  0  0  0  0  0
  -37.9283   62.0960   62.9072 O   0  0  0  0  0  0  0  0  0  0  0  0
  -36.7469   62.8925   63.6364 P   0  0  0  0  0  0  0  0  0  0  0  0
  -35.4882   62.1490   63.4145 O   0  0  0  0  0  0  0  0  0  0  0  0
  -36.8192   64.3125   63.2153 O   0  0  0  0  0  0  0  0  0  0  0  0
  -36.6141   64.3801   62.2697 H   0  0  0  0  0  0  0  0  0  0  0  0
  -37.0895   62.8250   65.1923 O   0  0  0  0  0  0  0  0  0  0  0  0
  -36.0295   62.6745   66.1586 C   0  0  0  0  0  0  0  0  0  0  0  0
  -36.1715   64.3341   67.8814 O   0  0  0  0  0  0  0  0  0  0  0  0
  -35.5934   64.0486   66.6043 C   0  0  0  0  0  0  0  0  0  0  0  0
  -37.1359   64.2458   67.8269 H   0  0  0  0  0  0  0  0  0  0  0  0
  -33.5549   63.3270   67.6730 O   0  0  0  0  0  0  0  0  0  0  0  0
  -34.0908   64.1815   66.6710 C   0  0  0  0  0  0  0  0  0  0  0  0
  -32.5904   63.4263   67.7007 H   0  0  0  0  0  0  0  0  0  0  0  0
  -39.2879   60.1898   60.2597 O   0  0  0  0  0  0  0  0  0  0  0  0
  -37.7181   58.7045   59.6355 O   0  0  0  0  0  0  0  0  0  0  0  0
  -38.8567   59.0854   59.6205 C   0  0  0  0  0  0  0  0  0  0  0  0
  -39.9683   58.3813   58.9061 C   0  0  0  0  0  0  0  0  0  0  0  0
  -40.9992   57.8274   59.8845 C   0  0  0  0  0  0  0  0  0  0  0  0
  -40.3952   57.0433   61.0378 C   0  0  0  0  0  0  0  0  0  0  0  0
  -41.1246   57.2457   62.3610 C   0  0  0  0  0  0  0  0  0  0  0  0
  -41.5510   55.9544   63.0342 C   0  0  0  0  0  0  0  0  0  0  0  0
  -41.8999   56.0953   64.5185 C   0  0  0  0  0  0  0  0  0  0  0  0
  -43.0388   57.0686   64.8306 C   0  0  0  0  0  0  0  0  0  0  0  0
  -42.8207   57.7979   66.1223 C   0  0  0  0  0  0  0  0  0  0  0  0
  -41.9652   58.7782   66.3383 C   0  0  0  0  0  0  0  0  0  0  0  0
  -41.0300   59.3712   65.3323 C   0  0  0  0  0  0  0  0  0  0  0  0
  -39.9179   60.1892   65.9824 C   0  0  0  0  0  0  0  0  0  0  0  0
  -38.5215   59.7416   65.5876 C   0  0  0  0  0  0  0  0  0  0  0  0
  -38.5004   58.4684   64.7596 C   0  0  0  0  0  0  0  0  0  0  0  0
  -37.1121   57.9039   64.5077 C   0  0  0  0  0  0  0  0  0  0  0  0
  -36.8352   57.6087   63.0415 C   0  0  0  0  0  0  0  0  0  0  0  0
  -35.5039   58.1336   62.5419 C   0  0  0  0  0  0  0  0  0  0  0  0
  -34.6398   58.6734   63.6471 C   0  0  0  0  0  0  0  0  0  0  0  0
 21 22  1  0  0  0
  4  5  2  0  0  0
 25 24  1  0  0  0
 25 26  2  0  0  0
 25 27  1  0  0  0
 25 29  1  0  0  0
 22 20  1  0  0  0
  3  5  1  0  0  0
  3  2  1  0  0  0
 20 19  1  0  0  0
 24 23  1  0  0  0
 19 18  1  0  0  0
 18 17  1  0  0  0
 27 28  1  0  0  0
 17 16  1  0  0  0
 29 30  1  0  0  0
 16 15  1  0  0  0
 34 35  1  0  0  0
 34 36  1  0  0  0
 15 14  1  0  0  0
 31 32  1  0  0  0
 31 33  1  0  0  0
 14 13  1  0  0  0
 37  1  1  0  0  0
 37 39  1  0  0  0
 13 12  1  0  0  0
 38 39  2  0  0  0
 12 11  1  0  0  0
 11 10  1  0  0  0
 10  9  1  0  0  0
  9  8  1  0  0  0
  8  7  1  0  0  0
  7  6  1  0  0  0
  6  5  1  0  0  0
  2  1  1  0  0  0
  1 23  1  0  0  0
 30 32  1  0  0  0
 32 35  1  0  0  0
 39 40  1  0  0  0
 40 41  1  0  0  0
 41 42  1  0  0  0
 42 43  1  0  0  0
 43 44  1  0  0  0
 44 45  1  0  0  0
 45 46  1  0  0  0
 46 47  1  0  0  0
 47 48  2  0  0  0
 48 49  1  0  0  0
 49 50  1  0  0  0
 50 51  1  0  0  0
 51 52  1  0  0  0
 52 53  1  0  0  0
 53 54  1  0  0  0
 54 55  1  0  0  0
 55 56  1  0  0  0
M  CHG 1  26  -1
M  END
> <minimizedAffinity>
-8.80782

> <CNNscore>
0.4433731735

> <CNNaffinity>
7.6223249435

> <CNN_VS>
3.3795344830

> <CNNaffinity_variance>
1.6125246286

$$$$
/media/chris/experiments/cd1a-new-docking/inputs/ligands/7sh4_ligand.pdb


 56 55  0  0  0  0  0  0  0  0999 V2000
  -38.6173   60.9506   62.7117 C   0  0  0  0  0  0  0  0  0  0  0  0
  -40.0862   61.1910   62.9169 C   0  0  0  0  0  0  0  0  0  0  0  0
  -40.2709   61.0314   64.3393 O   0  0  0  0  0  0  0  0  0  0  0  0
  -41.6937   60.1740   65.8362 O   0  0  0  0  0  0  0  0  0  0  0  0
  -41.4787   60.6455   64.7521 C   0  0  0  0  0  0  0  0  0  0  0  0
  -42.5339   60.9928   63.7418 C   0  0  0  0  0  0  0  0  0  0  0  0
  -43.7255   61.7373   64.3199 C   0  0  0  0  0  0  0  0  0  0  0  0
  -45.0224   60.9691   64.1763 C   0  0  0  0  0  0  0  0  0  0  0  0
  -45.4470   60.2317   65.4260 C   0  0  0  0  0  0  0  0  0  0  0  0
  -46.9428   60.0014   65.4998 C   0  0  0  0  0  0  0  0  0  0  0  0
  -47.5520   59.6239   64.1716 C   0  0  0  0  0  0  0  0  0  0  0  0
  -48.6510   60.5590   63.7413 C   0  0  0  0  0  0  0  0  0  0  0  0
  -49.8890   60.4684   64.6057 C   0  0  0  0  0  0  0  0  0  0  0  0
  -51.0184   59.7144   63.9335 C   0  0  0  0  0  0  0  0  0  0  0  0
  -50.8415   59.5393   62.4397 C   0  0  0  0  0  0  0  0  0  0  0  0
  -50.9521   58.0925   61.9717 C   0  0  0  0  0  0  0  0  0  0  0  0
  -50.4692   57.8656   60.5520 C   0  0  0  0  0  0  0  0  0  0  0  0
  -49.3396   56.8610   60.4538 C   0  0  0  0  0  0  0  0  0  0  0  0
  -48.0592   57.4379   59.8660 C   0  0  0  0  0  0  0  0  0  0  0  0
  -48.2845   58.2635   58.6119 C   0  0  0  0  0  0  0  0  0  0  0  0
  -47.1098   56.6263   57.1034 C   0  0  0  0  0  0  0  0  0  0  0  0
  -47.2396   58.0712   57.5291 C   0  0  0  0  0  0  0  0  0  0  0  0
  -37.7700   61.9111   63.5063 C   0  0  0  0  0  0  0  0  0  0  0  0
  -37.1092   62.8144   62.5920 O   0  0  0  0  0  0  0  0  0  0  0  0
  -35.8652   63.7257   63.0205 P   0  0  0  0  0  0  0  0  0  0  0  0
  -36.0564   64.1282   64.4305 O   0  0  0  0  0  0  0  0  0  0  0  0
  -34.6201   63.0128   62.6459 O   0  0  0  0  0  0  0  0  0  0  0  0
  -34.5332   62.2099   63.1831 H   0  0  0  0  0  0  0  0  0  0  0  0
  -35.9702   65.0357   62.1173 O   0  0  0  0  0  0  0  0  0  0  0  0
  -34.9281   66.0315   62.1665 C   0  0  0  0  0  0  0  0  0  0  0  0
  -34.5072   68.0497   60.9450 O   0  0  0  0  0  0  0  0  0  0  0  0
  -35.5019   67.3444   61.6932 C   0  0  0  0  0  0  0  0  0  0  0  0
  -33.7124   68.1622   61.4894 H   0  0  0  0  0  0  0  0  0  0  0  0
  -37.9136   67.3589   61.6493 O   0  0  0  0  0  0  0  0  0  0  0  0
  -36.7477   67.1604   60.8601 C   0  0  0  0  0  0  0  0  0  0  0  0
  -38.7020   67.2367   61.0977 H   0  0  0  0  0  0  0  0  0  0  0  0
  -38.3317   61.0363   61.2761 O   0  0  0  0  0  0  0  0  0  0  0  0
  -37.6528   58.9573   60.7500 O   0  0  0  0  0  0  0  0  0  0  0  0
  -38.3889   59.8892   60.5726 C   0  0  0  0  0  0  0  0  0  0  0  0
  -39.4897   59.9083   59.5578 C   0  0  0  0  0  0  0  0  0  0  0  0
  -40.7311   59.1821   60.0660 C   0  0  0  0  0  0  0  0  0  0  0  0
  -40.7551   57.6985   59.7372 C   0  0  0  0  0  0  0  0  0  0  0  0
  -41.2374   56.8260   60.8905 C   0  0  0  0  0  0  0  0  0  0  0  0
  -41.7798   57.6091   62.0716 C   0  0  0  0  0  0  0  0  0  0  0  0
  -41.0268   57.3824   63.3855 C   0  0  0  0  0  0  0  0  0  0  0  0
  -39.5073   57.5425   63.3017 C   0  0  0  0  0  0  0  0  0  0  0  0
  -38.9060   57.9259   64.6206 C   0  0  0  0  0  0  0  0  0  0  0  0
  -37.6263   58.1147   64.8774 C   0  0  0  0  0  0  0  0  0  0  0  0
  -36.5014   57.9863   63.8993 C   0  0  0  0  0  0  0  0  0  0  0  0
  -35.1428   57.8773   64.5854 C   0  0  0  0  0  0  0  0  0  0  0  0
  -34.3232   59.1541   64.5209 C   0  0  0  0  0  0  0  0  0  0  0  0
  -32.9047   58.9436   64.0200 C   0  0  0  0  0  0  0  0  0  0  0  0
  -32.5260   59.8001   62.8231 C   0  0  0  0  0  0  0  0  0  0  0  0
  -31.0267   59.8663   62.5759 C   0  0  0  0  0  0  0  0  0  0  0  0
  -30.5479   61.1862   62.0047 C   0  0  0  0  0  0  0  0  0  0  0  0
  -31.2079   62.3727   62.6501 C   0  0  0  0  0  0  0  0  0  0  0  0
 21 22  1  0  0  0
  4  5  2  0  0  0
 25 24  1  0  0  0
 25 26  2  0  0  0
 25 27  1  0  0  0
 25 29  1  0  0  0
 22 20  1  0  0  0
  3  5  1  0  0  0
  3  2  1  0  0  0
 20 19  1  0  0  0
 24 23  1  0  0  0
 19 18  1  0  0  0
 18 17  1  0  0  0
 27 28  1  0  0  0
 17 16  1  0  0  0
 29 30  1  0  0  0
 16 15  1  0  0  0
 34 35  1  0  0  0
 34 36  1  0  0  0
 15 14  1  0  0  0
 31 32  1  0  0  0
 31 33  1  0  0  0
 14 13  1  0  0  0
 37  1  1  0  0  0
 37 39  1  0  0  0
 13 12  1  0  0  0
 38 39  2  0  0  0
 12 11  1  0  0  0
 11 10  1  0  0  0
 10  9  1  0  0  0
  9  8  1  0  0  0
  8  7  1  0  0  0
  7  6  1  0  0  0
  6  5  1  0  0  0
  2  1  1  0  0  0
  1 23  1  0  0  0
 30 32  1  0  0  0
 32 35  1  0  0  0
 39 40  1  0  0  0
 40 41  1  0  0  0
 41 42  1  0  0  0
 42 43  1  0  0  0
 43 44  1  0  0  0
 44 45  1  0  0  0
 45 46  1  0  0  0
 46 47  1  0  0  0
 47 48  2  0  0  0
 48 49  1  0  0  0
 49 50  1  0  0  0
 50 51  1  0  0  0
 51 52  1  0  0  0
 52 53  1  0  0  0
 53 54  1  0  0  0
 54 55  1  0  0  0
 55 56  1  0  0  0
M  CHG 1  26  -1
M  END
> <minimizedAffinity>
-8.33761

> <CNNscore>
0.3864623904

> <CNNaffinity>
7.3242311478

> <CNN_VS>
2.8305399418

> <CNNaffinity_variance>
0.5767444372

$$$$
/media/chris/experiments/cd1a-new-docking/inputs/ligands/7sh4_ligand.pdb


 56 55  0  0  0  0  0  0  0  0999 V2000
  -36.4520   61.9034   63.8707 C   0  0  0  0  0  0  0  0  0  0  0  0
  -37.6965   61.3423   64.4984 C   0  0  0  0  0  0  0  0  0  0  0  0
  -38.6443   61.2930   63.4111 O   0  0  0  0  0  0  0  0  0  0  0  0
  -40.3356   60.9100   64.8227 O   0  0  0  0  0  0  0  0  0  0  0  0
  -39.8854   60.9069   63.7086 C   0  0  0  0  0  0  0  0  0  0  0  0
  -40.6690   60.5946   62.4663 C   0  0  0  0  0  0  0  0  0  0  0  0
  -41.9832   61.3490   62.3554 C   0  0  0  0  0  0  0  0  0  0  0  0
  -43.1147   60.6668   63.0949 C   0  0  0  0  0  0  0  0  0  0  0  0
  -43.9523   61.5988   63.9408 C   0  0  0  0  0  0  0  0  0  0  0  0
  -44.7167   60.8813   65.0350 C   0  0  0  0  0  0  0  0  0  0  0  0
  -46.0225   60.2927   64.5594 C   0  0  0  0  0  0  0  0  0  0  0  0
  -46.9737   59.9847   65.6854 C   0  0  0  0  0  0  0  0  0  0  0  0
  -47.7381   58.6942   65.4894 C   0  0  0  0  0  0  0  0  0  0  0  0
  -49.2393   58.8859   65.5651 C   0  0  0  0  0  0  0  0  0  0  0  0
  -49.7257   60.1938   64.9767 C   0  0  0  0  0  0  0  0  0  0  0  0
  -51.1991   60.1829   64.5851 C   0  0  0  0  0  0  0  0  0  0  0  0
  -51.4386   60.0855   63.0907 C   0  0  0  0  0  0  0  0  0  0  0  0
  -50.3930   59.2633   62.3657 C   0  0  0  0  0  0  0  0  0  0  0  0
  -50.9467   57.9963   61.7286 C   0  0  0  0  0  0  0  0  0  0  0  0
  -50.2464   57.6088   60.4385 C   0  0  0  0  0  0  0  0  0  0  0  0
  -48.4278   58.3427   58.8604 C   0  0  0  0  0  0  0  0  0  0  0  0
  -49.6246   58.7669   59.6812 C   0  0  0  0  0  0  0  0  0  0  0  0
  -36.7497   63.0796   62.9765 C   0  0  0  0  0  0  0  0  0  0  0  0
  -36.0382   64.2346   63.4749 O   0  0  0  0  0  0  0  0  0  0  0  0
  -34.5009   64.5205   63.1329 P   0  0  0  0  0  0  0  0  0  0  0  0
  -34.0925   63.5965   62.0530 O   0  0  0  0  0  0  0  0  0  0  0  0
  -34.3387   65.9792   62.9216 O   0  0  0  0  0  0  0  0  0  0  0  0
  -34.8217   66.2459   62.1238 H   0  0  0  0  0  0  0  0  0  0  0  0
  -33.6943   64.1237   64.4500 O   0  0  0  0  0  0  0  0  0  0  0  0
  -34.1473   64.5840   65.7396 C   0  0  0  0  0  0  0  0  0  0  0  0
  -33.4194   63.4301   67.7097 O   0  0  0  0  0  0  0  0  0  0  0  0
  -34.3544   63.3819   66.6279 C   0  0  0  0  0  0  0  0  0  0  0  0
  -32.5179   63.4842   67.3558 H   0  0  0  0  0  0  0  0  0  0  0  0
  -36.5949   64.2715   66.5425 O   0  0  0  0  0  0  0  0  0  0  0  0
  -35.7645   63.2973   67.1613 C   0  0  0  0  0  0  0  0  0  0  0  0
  -37.4949   64.2016   66.8974 H   0  0  0  0  0  0  0  0  0  0  0  0
  -35.7768   60.8256   63.1411 O   0  0  0  0  0  0  0  0  0  0  0  0
  -33.8770   60.9142   64.3423 O   0  0  0  0  0  0  0  0  0  0  0  0
  -34.6886   60.2839   63.7211 C   0  0  0  0  0  0  0  0  0  0  0  0
  -34.6221   58.8024   63.5145 C   0  0  0  0  0  0  0  0  0  0  0  0
  -35.4589   58.0558   64.5486 C   0  0  0  0  0  0  0  0  0  0  0  0
  -36.8817   57.7680   64.0985 C   0  0  0  0  0  0  0  0  0  0  0  0
  -36.9928   57.4057   62.6220 C   0  0  0  0  0  0  0  0  0  0  0  0
  -38.2001   58.0084   61.9280 C   0  0  0  0  0  0  0  0  0  0  0  0
  -37.8631   58.9766   60.7906 C   0  0  0  0  0  0  0  0  0  0  0  0
  -38.4405   58.6023   59.4237 C   0  0  0  0  0  0  0  0  0  0  0  0
  -39.8245   59.1445   59.2275 C   0  0  0  0  0  0  0  0  0  0  0  0
  -40.9582   58.5150   59.4685 C   0  0  0  0  0  0  0  0  0  0  0  0
  -41.0996   57.1209   59.9927 C   0  0  0  0  0  0  0  0  0  0  0  0
  -41.6883   57.0848   61.4001 C   0  0  0  0  0  0  0  0  0  0  0  0
  -41.3063   55.8447   62.1890 C   0  0  0  0  0  0  0  0  0  0  0  0
  -41.5287   55.9814   63.6854 C   0  0  0  0  0  0  0  0  0  0  0  0
  -41.0590   57.3015   64.2738 C   0  0  0  0  0  0  0  0  0  0  0  0
  -42.0603   57.9276   65.2324 C   0  0  0  0  0  0  0  0  0  0  0  0
  -43.4712   57.3904   65.0967 C   0  0  0  0  0  0  0  0  0  0  0  0
  -44.2632   57.5083   66.3689 C   0  0  0  0  0  0  0  0  0  0  0  0
 21 22  1  0  0  0
  4  5  2  0  0  0
 25 24  1  0  0  0
 25 26  2  0  0  0
 25 27  1  0  0  0
 25 29  1  0  0  0
 22 20  1  0  0  0
  3  5  1  0  0  0
  3  2  1  0  0  0
 20 19  1  0  0  0
 24 23  1  0  0  0
 19 18  1  0  0  0
 18 17  1  0  0  0
 27 28  1  0  0  0
 17 16  1  0  0  0
 29 30  1  0  0  0
 16 15  1  0  0  0
 34 35  1  0  0  0
 34 36  1  0  0  0
 15 14  1  0  0  0
 31 32  1  0  0  0
 31 33  1  0  0  0
 14 13  1  0  0  0
 37  1  1  0  0  0
 37 39  1  0  0  0
 13 12  1  0  0  0
 38 39  2  0  0  0
 12 11  1  0  0  0
 11 10  1  0  0  0
 10  9  1  0  0  0
  9  8  1  0  0  0
  8  7  1  0  0  0
  7  6  1  0  0  0
  6  5  1  0  0  0
  2  1  1  0  0  0
  1 23  1  0  0  0
 30 32  1  0  0  0
 32 35  1  0  0  0
 39 40  1  0  0  0
 40 41  1  0  0  0
 41 42  1  0  0  0
 42 43  1  0  0  0
 43 44  1  0  0  0
 44 45  1  0  0  0
 45 46  1  0  0  0
 46 47  1  0  0  0
 47 48  2  0  0  0
 48 49  1  0  0  0
 49 50  1  0  0  0
 50 51  1  0  0  0
 51 52  1  0  0  0
 52 53  1  0  0  0
 53 54  1  0  0  0
 54 55  1  0  0  0
 55 56  1  0  0  0
M  CHG 1  26  -1
M  END
> <minimizedAffinity>
-8.58110

> <CNNscore>
0.3530058563

> <CNNaffinity>
7.5674781799

> <CNN_VS>
2.6713640690

> <CNNaffinity_variance>
1.0339297056

$$$$
/media/chris/experiments/cd1a-new-docking/inputs/ligands/7sh4_ligand.pdb


 56 55  0  0  0  0  0  0  0  0999 V2000
  -40.9262   59.9602   64.1907 C   0  0  0  0  0  0  0  0  0  0  0  0
  -40.7191   58.7337   65.0336 C   0  0  0  0  0  0  0  0  0  0  0  0
  -40.5238   57.6768   64.0703 O   0  0  0  0  0  0  0  0  0  0  0  0
  -42.6060   56.9023   64.3239 O   0  0  0  0  0  0  0  0  0  0  0  0
  -41.6121   57.0247   63.6599 C   0  0  0  0  0  0  0  0  0  0  0  0
  -41.4732   56.5824   62.2317 C   0  0  0  0  0  0  0  0  0  0  0  0
  -41.4976   57.7198   61.2246 C   0  0  0  0  0  0  0  0  0  0  0  0
  -40.9861   57.3061   59.8608 C   0  0  0  0  0  0  0  0  0  0  0  0
  -39.9592   58.2472   59.2730 C   0  0  0  0  0  0  0  0  0  0  0  0
  -39.1875   59.0163   60.3261 C   0  0  0  0  0  0  0  0  0  0  0  0
  -37.8448   58.4048   60.6435 C   0  0  0  0  0  0  0  0  0  0  0  0
  -37.8732   57.5245   61.8649 C   0  0  0  0  0  0  0  0  0  0  0  0
  -36.9781   58.0167   62.9805 C   0  0  0  0  0  0  0  0  0  0  0  0
  -35.5061   57.8177   62.6809 C   0  0  0  0  0  0  0  0  0  0  0  0
  -34.5802   58.6169   63.5738 C   0  0  0  0  0  0  0  0  0  0  0  0
  -33.1135   58.5426   63.1642 C   0  0  0  0  0  0  0  0  0  0  0  0
  -32.4155   59.8885   63.1261 C   0  0  0  0  0  0  0  0  0  0  0  0
  -31.0093   59.8217   62.5665 C   0  0  0  0  0  0  0  0  0  0  0  0
  -30.7456   60.8298   61.4566 C   0  0  0  0  0  0  0  0  0  0  0  0
  -29.5559   61.7336   61.7267 C   0  0  0  0  0  0  0  0  0  0  0  0
  -28.6826   63.9278   62.5978 C   0  0  0  0  0  0  0  0  0  0  0  0
  -29.9049   63.0753   62.3424 C   0  0  0  0  0  0  0  0  0  0  0  0
  -39.6371   60.4580   63.5890 C   0  0  0  0  0  0  0  0  0  0  0  0
  -39.0991   61.4975   64.4366 O   0  0  0  0  0  0  0  0  0  0  0  0
  -37.6235   61.4366   65.0537 P   0  0  0  0  0  0  0  0  0  0  0  0
  -37.4137   62.6578   65.8606 O   0  0  0  0  0  0  0  0  0  0  0  0
  -37.4491   60.1149   65.7031 O   0  0  0  0  0  0  0  0  0  0  0  0
  -38.0392   60.0514   66.4703 H   0  0  0  0  0  0  0  0  0  0  0  0
  -36.6388   61.5005   63.8010 O   0  0  0  0  0  0  0  0  0  0  0  0
  -35.6759   62.5688   63.6940 C   0  0  0  0  0  0  0  0  0  0  0  0
  -36.8173   64.6732   63.5895 O   0  0  0  0  0  0  0  0  0  0  0  0
  -36.2456   63.6340   62.7896 C   0  0  0  0  0  0  0  0  0  0  0  0
  -37.4808   64.2938   64.1866 H   0  0  0  0  0  0  0  0  0  0  0  0
  -35.5075   63.8669   60.5050 O   0  0  0  0  0  0  0  0  0  0  0  0
  -35.2095   64.2075   61.8529 C   0  0  0  0  0  0  0  0  0  0  0  0
  -34.8321   64.2435   59.9195 H   0  0  0  0  0  0  0  0  0  0  0  0
  -41.5692   60.9857   65.0183 O   0  0  0  0  0  0  0  0  0  0  0  0
  -43.1751   60.7368   66.5737 O   0  0  0  0  0  0  0  0  0  0  0  0
  -42.8302   60.7411   65.4236 C   0  0  0  0  0  0  0  0  0  0  0  0
  -43.7518   60.4940   64.2697 C   0  0  0  0  0  0  0  0  0  0  0  0
  -45.1121   61.1477   64.4909 C   0  0  0  0  0  0  0  0  0  0  0  0
  -46.2747   60.1688   64.4846 C   0  0  0  0  0  0  0  0  0  0  0  0
  -46.7126   59.7330   65.8782 C   0  0  0  0  0  0  0  0  0  0  0  0
  -48.1258   60.1510   66.2397 C   0  0  0  0  0  0  0  0  0  0  0  0
  -49.2183   59.2029   65.7373 C   0  0  0  0  0  0  0  0  0  0  0  0
  -50.6245   59.8034   65.6761 C   0  0  0  0  0  0  0  0  0  0  0  0
  -50.8560   60.5714   64.4094 C   0  0  0  0  0  0  0  0  0  0  0  0
  -51.0056   60.0681   63.1996 C   0  0  0  0  0  0  0  0  0  0  0  0
  -50.9767   58.6167   62.8377 C   0  0  0  0  0  0  0  0  0  0  0  0
  -49.8274   58.2746   61.8940 C   0  0  0  0  0  0  0  0  0  0  0  0
  -49.5211   59.3676   60.8851 C   0  0  0  0  0  0  0  0  0  0  0  0
  -49.5113   58.8834   59.4454 C   0  0  0  0  0  0  0  0  0  0  0  0
  -48.6760   57.6366   59.2061 C   0  0  0  0  0  0  0  0  0  0  0  0
  -48.6764   57.1764   57.7564 C   0  0  0  0  0  0  0  0  0  0  0  0
  -47.3133   57.2050   57.0941 C   0  0  0  0  0  0  0  0  0  0  0  0
  -46.7442   58.5928   56.9946 C   0  0  0  0  0  0  0  0  0  0  0  0
 21 22  1  0  0  0
  4  5  2  0  0  0
 25 24  1  0  0  0
 25 26  2  0  0  0
 25 27  1  0  0  0
 25 29  1  0  0  0
 22 20  1  0  0  0
  3  5  1  0  0  0
  3  2  1  0  0  0
 20 19  1  0  0  0
 24 23  1  0  0  0
 19 18  1  0  0  0
 18 17  1  0  0  0
 27 28  1  0  0  0
 17 16  1  0  0  0
 29 30  1  0  0  0
 16 15  1  0  0  0
 34 35  1  0  0  0
 34 36  1  0  0  0
 15 14  1  0  0  0
 31 32  1  0  0  0
 31 33  1  0  0  0
 14 13  1  0  0  0
 37  1  1  0  0  0
 37 39  1  0  0  0
 13 12  1  0  0  0
 38 39  2  0  0  0
 12 11  1  0  0  0
 11 10  1  0  0  0
 10  9  1  0  0  0
  9  8  1  0  0  0
  8  7  1  0  0  0
  7  6  1  0  0  0
  6  5  1  0  0  0
  2  1  1  0  0  0
  1 23  1  0  0  0
 30 32  1  0  0  0
 32 35  1  0  0  0
 39 40  1  0  0  0
 40 41  1  0  0  0
 41 42  1  0  0  0
 42 43  1  0  0  0
 43 44  1  0  0  0
 44 45  1  0  0  0
 45 46  1  0  0  0
 46 47  1  0  0  0
 47 48  2  0  0  0
 48 49  1  0  0  0
 49 50  1  0  0  0
 50 51  1  0  0  0
 51 52  1  0  0  0
 52 53  1  0  0  0
 53 54  1  0  0  0
 54 55  1  0  0  0
 55 56  1  0  0  0
M  CHG 1  26  -1
M  END
> <minimizedAffinity>
-8.63870

> <CNNscore>
0.3429212868

> <CNNaffinity>
7.1036634445

> <CNN_VS>
2.4359974861

> <CNNaffinity_variance>
0.9520243406

$$$$
/media/chris/experiments/cd1a-new-docking/inputs/ligands/7sh4_ligand.pdb


 56 55  0  0  0  0  0  0  0  0999 V2000
  -41.0407   59.8871   65.2614 C   0  0  0  0  0  0  0  0  0  0  0  0
  -41.8181   59.4726   66.4786 C   0  0  0  0  0  0  0  0  0  0  0  0
  -42.0061   58.0520   66.3058 O   0  0  0  0  0  0  0  0  0  0  0  0
  -44.1576   57.6553   66.7679 O   0  0  0  0  0  0  0  0  0  0  0  0
  -43.2356   57.6385   65.9974 C   0  0  0  0  0  0  0  0  0  0  0  0
  -43.3373   57.2751   64.5440 C   0  0  0  0  0  0  0  0  0  0  0  0
  -42.2416   56.3406   64.0599 C   0  0  0  0  0  0  0  0  0  0  0  0
  -41.3318   56.9852   63.0355 C   0  0  0  0  0  0  0  0  0  0  0  0
  -40.7409   56.0171   62.0358 C   0  0  0  0  0  0  0  0  0  0  0  0
  -41.1915   56.2837   60.6138 C   0  0  0  0  0  0  0  0  0  0  0  0
  -41.5103   57.7358   60.3541 C   0  0  0  0  0  0  0  0  0  0  0  0
  -40.6875   58.3289   59.2411 C   0  0  0  0  0  0  0  0  0  0  0  0
  -39.9149   59.5611   59.6567 C   0  0  0  0  0  0  0  0  0  0  0  0
  -38.4166   59.3356   59.6706 C   0  0  0  0  0  0  0  0  0  0  0  0
  -37.9538   58.3214   60.6957 C   0  0  0  0  0  0  0  0  0  0  0  0
  -38.0712   58.8047   62.1369 C   0  0  0  0  0  0  0  0  0  0  0  0
  -37.3523   57.9254   63.1420 C   0  0  0  0  0  0  0  0  0  0  0  0
  -35.9243   57.6062   62.7498 C   0  0  0  0  0  0  0  0  0  0  0  0
  -34.8983   58.5525   63.3577 C   0  0  0  0  0  0  0  0  0  0  0  0
  -33.5774   58.5783   62.6098 C   0  0  0  0  0  0  0  0  0  0  0  0
  -31.3371   59.7234   62.6883 C   0  0  0  0  0  0  0  0  0  0  0  0
  -32.8384   59.9017   62.6722 C   0  0  0  0  0  0  0  0  0  0  0  0
  -39.5718   60.0511   65.5565 C   0  0  0  0  0  0  0  0  0  0  0  0
  -39.1316   61.3245   65.0338 O   0  0  0  0  0  0  0  0  0  0  0  0
  -37.5874   61.6880   64.8215 P   0  0  0  0  0  0  0  0  0  0  0  0
  -36.7765   60.5794   65.3693 O   0  0  0  0  0  0  0  0  0  0  0  0
  -37.3957   62.0777   63.4037 O   0  0  0  0  0  0  0  0  0  0  0  0
  -37.5477   61.3079   62.8334 H   0  0  0  0  0  0  0  0  0  0  0  0
  -37.3292   62.9776   65.7231 O   0  0  0  0  0  0  0  0  0  0  0  0
  -36.1870   63.8202   65.4669 C   0  0  0  0  0  0  0  0  0  0  0  0
  -35.9661   63.2517   67.7844 O   0  0  0  0  0  0  0  0  0  0  0  0
  -35.5710   64.2019   66.7905 C   0  0  0  0  0  0  0  0  0  0  0  0
  -36.9342   63.2052   67.8206 H   0  0  0  0  0  0  0  0  0  0  0  0
  -33.4673   63.3660   67.6237 O   0  0  0  0  0  0  0  0  0  0  0  0
  -34.0651   64.2873   66.7206 C   0  0  0  0  0  0  0  0  0  0  0  0
  -32.5016   63.4356   67.5644 H   0  0  0  0  0  0  0  0  0  0  0  0
  -41.6291   61.1236   64.7371 O   0  0  0  0  0  0  0  0  0  0  0  0
  -42.5229   60.4149   62.7983 O   0  0  0  0  0  0  0  0  0  0  0  0
  -42.6299   60.9931   63.8451 C   0  0  0  0  0  0  0  0  0  0  0  0
  -43.8939   61.6383   64.3226 C   0  0  0  0  0  0  0  0  0  0  0  0
  -44.9059   60.6007   64.7980 C   0  0  0  0  0  0  0  0  0  0  0  0
  -46.3189   60.8414   64.2928 C   0  0  0  0  0  0  0  0  0  0  0  0
  -47.2217   59.6177   64.4002 C   0  0  0  0  0  0  0  0  0  0  0  0
  -47.6306   59.2756   65.8209 C   0  0  0  0  0  0  0  0  0  0  0  0
  -48.9493   59.9086   66.2738 C   0  0  0  0  0  0  0  0  0  0  0  0
  -50.2073   59.3307   65.6216 C   0  0  0  0  0  0  0  0  0  0  0  0
  -50.9044   60.3337   64.7521 C   0  0  0  0  0  0  0  0  0  0  0  0
  -51.3197   60.1488   63.5140 C   0  0  0  0  0  0  0  0  0  0  0  0
  -51.1821   58.8911   62.7154 C   0  0  0  0  0  0  0  0  0  0  0  0
  -49.7823   58.7222   62.1317 C   0  0  0  0  0  0  0  0  0  0  0  0
  -49.6884   57.6320   61.0788 C   0  0  0  0  0  0  0  0  0  0  0  0
  -50.0419   58.1040   59.6790 C   0  0  0  0  0  0  0  0  0  0  0  0
  -49.1315   57.5699   58.5856 C   0  0  0  0  0  0  0  0  0  0  0  0
  -47.9384   58.4683   58.2984 C   0  0  0  0  0  0  0  0  0  0  0  0
  -46.8948   57.8460   57.3922 C   0  0  0  0  0  0  0  0  0  0  0  0
  -47.1565   56.3915   57.1169 C   0  0  0  0  0  0  0  0  0  0  0  0
 21 22  1  0  0  0
  4  5  2  0  0  0
 25 24  1  0  0  0
 25 26  2  0  0  0
 25 27  1  0  0  0
 25 29  1  0  0  0
 22 20  1  0  0  0
  3  5  1  0  0  0
  3  2  1  0  0  0
 20 19  1  0  0  0
 24 23  1  0  0  0
 19 18  1  0  0  0
 18 17  1  0  0  0
 27 28  1  0  0  0
 17 16  1  0  0  0
 29 30  1  0  0  0
 16 15  1  0  0  0
 34 35  1  0  0  0
 34 36  1  0  0  0
 15 14  1  0  0  0
 31 32  1  0  0  0
 31 33  1  0  0  0
 14 13  1  0  0  0
 37  1  1  0  0  0
 37 39  1  0  0  0
 13 12  1  0  0  0
 38 39  2  0  0  0
 12 11  1  0  0  0
 11 10  1  0  0  0
 10  9  1  0  0  0
  9  8  1  0  0  0
  8  7  1  0  0  0
  7  6  1  0  0  0
  6  5  1  0  0  0
  2  1  1  0  0  0
  1 23  1  0  0  0
 30 32  1  0  0  0
 32 35  1  0  0  0
 39 40  1  0  0  0
 40 41  1  0  0  0
 41 42  1  0  0  0
 42 43  1  0  0  0
 43 44  1  0  0  0
 44 45  1  0  0  0
 45 46  1  0  0  0
 46 47  1  0  0  0
 47 48  2  0  0  0
 48 49  1  0  0  0
 49 50  1  0  0  0
 50 51  1  0  0  0
 51 52  1  0  0  0
 52 53  1  0  0  0
 53 54  1  0  0  0
 54 55  1  0  0  0
 55 56  1  0  0  0
M  CHG 1  26  -1
M  END
> <minimizedAffinity>
-9.18851

> <CNNscore>
0.3351269066

> <CNNaffinity>
7.3699874878

> <CNN_VS>
2.4698810577

> <CNNaffinity_variance>
1.7452074289

$$$$
/media/chris/experiments/cd1a-new-docking/inputs/ligands/7sh4_ligand.pdb


 56 55  0  0  0  0  0  0  0  0999 V2000
  -38.4887   60.7947   62.2692 C   0  0  0  0  0  0  0  0  0  0  0  0
  -39.9700   60.9492   62.4674 C   0  0  0  0  0  0  0  0  0  0  0  0
  -40.1040   61.2626   63.8699 O   0  0  0  0  0  0  0  0  0  0  0  0
  -41.5413   61.1839   65.5810 O   0  0  0  0  0  0  0  0  0  0  0  0
  -41.3225   61.1517   64.3999 C   0  0  0  0  0  0  0  0  0  0  0  0
  -42.3770   61.1097   63.3318 C   0  0  0  0  0  0  0  0  0  0  0  0
  -43.7962   61.2531   63.8549 C   0  0  0  0  0  0  0  0  0  0  0  0
  -44.4145   59.9267   64.2434 C   0  0  0  0  0  0  0  0  0  0  0  0
  -45.0319   59.9119   65.6234 C   0  0  0  0  0  0  0  0  0  0  0  0
  -46.4364   59.3434   65.6391 C   0  0  0  0  0  0  0  0  0  0  0  0
  -47.1269   59.4291   64.2999 C   0  0  0  0  0  0  0  0  0  0  0  0
  -47.8849   60.7162   64.1100 C   0  0  0  0  0  0  0  0  0  0  0  0
  -49.0334   60.5980   63.1328 C   0  0  0  0  0  0  0  0  0  0  0  0
  -50.3776   60.4754   63.8214 C   0  0  0  0  0  0  0  0  0  0  0  0
  -51.3541   59.5606   63.1122 C   0  0  0  0  0  0  0  0  0  0  0  0
  -50.7725   58.1974   62.7547 C   0  0  0  0  0  0  0  0  0  0  0  0
  -50.8604   57.8578   61.2791 C   0  0  0  0  0  0  0  0  0  0  0  0
  -49.6325   57.1446   60.7514 C   0  0  0  0  0  0  0  0  0  0  0  0
  -48.6072   58.0783   60.1231 C   0  0  0  0  0  0  0  0  0  0  0  0
  -48.5892   58.0283   58.6059 C   0  0  0  0  0  0  0  0  0  0  0  0
  -47.3973   56.2839   57.2373 C   0  0  0  0  0  0  0  0  0  0  0  0
  -47.2713   57.5827   58.0010 C   0  0  0  0  0  0  0  0  0  0  0  0
  -37.7301   62.0290   62.6847 C   0  0  0  0  0  0  0  0  0  0  0  0
  -36.8210   61.6790   63.7522 O   0  0  0  0  0  0  0  0  0  0  0  0
  -36.9005   62.3361   65.2095 P   0  0  0  0  0  0  0  0  0  0  0  0
  -36.9489   63.8051   65.0475 O   0  0  0  0  0  0  0  0  0  0  0  0
  -37.9903   61.6659   65.9592 O   0  0  0  0  0  0  0  0  0  0  0  0
  -38.8429   61.8768   65.5476 H   0  0  0  0  0  0  0  0  0  0  0  0
  -35.5199   61.9651   65.9160 O   0  0  0  0  0  0  0  0  0  0  0  0
  -34.3000   61.9391   65.1470 C   0  0  0  0  0  0  0  0  0  0  0  0
  -34.1117   64.2521   64.5495 O   0  0  0  0  0  0  0  0  0  0  0  0
  -33.5591   63.2317   65.3863 C   0  0  0  0  0  0  0  0  0  0  0  0
  -34.0764   63.9653   63.6236 H   0  0  0  0  0  0  0  0  0  0  0  0
  -34.6447   64.6101   67.0415 O   0  0  0  0  0  0  0  0  0  0  0  0
  -33.6059   63.6619   66.8329 C   0  0  0  0  0  0  0  0  0  0  0  0
  -34.6589   64.8740   67.9748 H   0  0  0  0  0  0  0  0  0  0  0  0
  -38.2439   60.4560   60.8638 O   0  0  0  0  0  0  0  0  0  0  0  0
  -37.2894   58.4471   61.2005 O   0  0  0  0  0  0  0  0  0  0  0  0
  -38.0298   59.1575   60.5769 C   0  0  0  0  0  0  0  0  0  0  0  0
  -38.8380   58.7025   59.4014 C   0  0  0  0  0  0  0  0  0  0  0  0
  -40.3331   58.7462   59.7006 C   0  0  0  0  0  0  0  0  0  0  0  0
  -40.9648   57.3764   59.8861 C   0  0  0  0  0  0  0  0  0  0  0  0
  -40.8456   56.8372   61.3070 C   0  0  0  0  0  0  0  0  0  0  0  0
  -41.6010   57.6512   62.3411 C   0  0  0  0  0  0  0  0  0  0  0  0
  -40.9986   57.6093   63.7483 C   0  0  0  0  0  0  0  0  0  0  0  0
  -39.4781   57.4451   63.8015 C   0  0  0  0  0  0  0  0  0  0  0  0
  -38.8538   58.3042   64.8600 C   0  0  0  0  0  0  0  0  0  0  0  0
  -37.5687   58.3983   65.1411 C   0  0  0  0  0  0  0  0  0  0  0  0
  -36.4594   57.6639   64.4566 C   0  0  0  0  0  0  0  0  0  0  0  0
  -35.2364   58.5454   64.2201 C   0  0  0  0  0  0  0  0  0  0  0  0
  -34.3034   58.0176   63.1444 C   0  0  0  0  0  0  0  0  0  0  0  0
  -32.8524   58.4197   63.3447 C   0  0  0  0  0  0  0  0  0  0  0  0
  -32.3783   59.5408   62.4348 C   0  0  0  0  0  0  0  0  0  0  0  0
  -31.0099   60.0881   62.8105 C   0  0  0  0  0  0  0  0  0  0  0  0
  -30.2337   60.6745   61.6481 C   0  0  0  0  0  0  0  0  0  0  0  0
  -30.8802   61.9070   61.0800 C   0  0  0  0  0  0  0  0  0  0  0  0
 21 22  1  0  0  0
  4  5  2  0  0  0
 25 24  1  0  0  0
 25 26  2  0  0  0
 25 27  1  0  0  0
 25 29  1  0  0  0
 22 20  1  0  0  0
  3  5  1  0  0  0
  3  2  1  0  0  0
 20 19  1  0  0  0
 24 23  1  0  0  0
 19 18  1  0  0  0
 18 17  1  0  0  0
 27 28  1  0  0  0
 17 16  1  0  0  0
 29 30  1  0  0  0
 16 15  1  0  0  0
 34 35  1  0  0  0
 34 36  1  0  0  0
 15 14  1  0  0  0
 31 32  1  0  0  0
 31 33  1  0  0  0
 14 13  1  0  0  0
 37  1  1  0  0  0
 37 39  1  0  0  0
 13 12  1  0  0  0
 38 39  2  0  0  0
 12 11  1  0  0  0
 11 10  1  0  0  0
 10  9  1  0  0  0
  9  8  1  0  0  0
  8  7  1  0  0  0
  7  6  1  0  0  0
  6  5  1  0  0  0
  2  1  1  0  0  0
  1 23  1  0  0  0
 30 32  1  0  0  0
 32 35  1  0  0  0
 39 40  1  0  0  0
 40 41  1  0  0  0
 41 42  1  0  0  0
 42 43  1  0  0  0
 43 44  1  0  0  0
 44 45  1  0  0  0
 45 46  1  0  0  0
 46 47  1  0  0  0
 47 48  2  0  0  0
 48 49  1  0  0  0
 49 50  1  0  0  0
 50 51  1  0  0  0
 51 52  1  0  0  0
 52 53  1  0  0  0
 53 54  1  0  0  0
 54 55  1  0  0  0
 55 56  1  0  0  0
M  CHG 1  26  -1
M  END
> <minimizedAffinity>
-8.46002

> <CNNscore>
0.3342564702

> <CNNaffinity>
7.2941346169

> <CNN_VS>
2.4381117821

> <CNNaffinity_variance>
0.7734645605

$$$$
/media/chris/experiments/cd1a-new-docking/inputs/ligands/7sh4_ligand.pdb


 56 55  0  0  0  0  0  0  0  0999 V2000
  -43.1269   59.9584   63.8779 C   0  0  0  0  0  0  0  0  0  0  0  0
  -42.8409   58.4905   63.7331 C   0  0  0  0  0  0  0  0  0  0  0  0
  -41.9433   58.4191   62.6051 O   0  0  0  0  0  0  0  0  0  0  0  0
  -41.5111   56.2463   62.9080 O   0  0  0  0  0  0  0  0  0  0  0  0
  -41.5970   57.2020   62.1848 C   0  0  0  0  0  0  0  0  0  0  0  0
  -41.4556   57.1639   60.6904 C   0  0  0  0  0  0  0  0  0  0  0  0
  -40.8461   58.4206   60.0924 C   0  0  0  0  0  0  0  0  0  0  0  0
  -39.7930   58.1207   59.0467 C   0  0  0  0  0  0  0  0  0  0  0  0
  -38.5316   58.9428   59.1846 C   0  0  0  0  0  0  0  0  0  0  0  0
  -38.1473   59.2024   60.6272 C   0  0  0  0  0  0  0  0  0  0  0  0
  -37.1115   58.2367   61.1490 C   0  0  0  0  0  0  0  0  0  0  0  0
  -37.4167   57.7399   62.5373 C   0  0  0  0  0  0  0  0  0  0  0  0
  -36.3828   58.1500   63.5625 C   0  0  0  0  0  0  0  0  0  0  0  0
  -34.9973   58.3020   62.9680 C   0  0  0  0  0  0  0  0  0  0  0  0
  -33.8789   58.2569   63.9881 C   0  0  0  0  0  0  0  0  0  0  0  0
  -32.4962   58.5097   63.3977 C   0  0  0  0  0  0  0  0  0  0  0  0
  -32.2004   59.9721   63.1255 C   0  0  0  0  0  0  0  0  0  0  0  0
  -32.0282   60.2876   61.6538 C   0  0  0  0  0  0  0  0  0  0  0  0
  -30.6235   60.7469   61.2885 C   0  0  0  0  0  0  0  0  0  0  0  0
  -29.5872   60.4398   62.3547 C   0  0  0  0  0  0  0  0  0  0  0  0
  -28.8703   62.8081   61.8927 C   0  0  0  0  0  0  0  0  0  0  0  0
  -28.8185   61.6465   62.8590 C   0  0  0  0  0  0  0  0  0  0  0  0
  -41.9358   60.8062   63.5116 C   0  0  0  0  0  0  0  0  0  0  0  0
  -41.0853   60.9397   64.6723 O   0  0  0  0  0  0  0  0  0  0  0  0
  -39.5459   60.5013   64.6747 P   0  0  0  0  0  0  0  0  0  0  0  0
  -39.4819   59.0557   64.9796 O   0  0  0  0  0  0  0  0  0  0  0  0
  -38.9240   60.9932   63.4218 O   0  0  0  0  0  0  0  0  0  0  0  0
  -39.3111   60.5273   62.6641 H   0  0  0  0  0  0  0  0  0  0  0  0
  -38.8841   61.2898   65.8925 O   0  0  0  0  0  0  0  0  0  0  0  0
  -37.5297   60.9958   66.2916 C   0  0  0  0  0  0  0  0  0  0  0  0
  -37.4175   63.1867   65.3273 O   0  0  0  0  0  0  0  0  0  0  0  0
  -36.6255   62.0655   65.7301 C   0  0  0  0  0  0  0  0  0  0  0  0
  -38.0921   62.8953   64.6942 H   0  0  0  0  0  0  0  0  0  0  0  0
  -36.1676   63.0237   67.8958 O   0  0  0  0  0  0  0  0  0  0  0  0
  -35.5689   62.5014   66.7168 C   0  0  0  0  0  0  0  0  0  0  0  0
  -35.4743   63.2978   68.5163 H   0  0  0  0  0  0  0  0  0  0  0  0
  -43.5678   60.2093   65.2536 O   0  0  0  0  0  0  0  0  0  0  0  0
  -45.0895   59.2769   66.6228 O   0  0  0  0  0  0  0  0  0  0  0  0
  -44.8097   59.8032   65.5805 C   0  0  0  0  0  0  0  0  0  0  0  0
  -45.8003   60.1025   64.4984 C   0  0  0  0  0  0  0  0  0  0  0  0
  -47.1581   60.4902   65.0753 C   0  0  0  0  0  0  0  0  0  0  0  0
  -48.1482   59.3395   65.1480 C   0  0  0  0  0  0  0  0  0  0  0  0
  -49.3637   59.6349   66.0193 C   0  0  0  0  0  0  0  0  0  0  0  0
  -50.6576   59.7884   65.2416 C   0  0  0  0  0  0  0  0  0  0  0  0
  -50.7117   58.9951   63.9330 C   0  0  0  0  0  0  0  0  0  0  0  0
  -51.1008   59.8061   62.6950 C   0  0  0  0  0  0  0  0  0  0  0  0
  -49.9029   60.2397   61.9043 C   0  0  0  0  0  0  0  0  0  0  0  0
  -49.4848   59.7269   60.7634 C   0  0  0  0  0  0  0  0  0  0  0  0
  -50.1240   58.5998   60.0154 C   0  0  0  0  0  0  0  0  0  0  0  0
  -50.0142   57.2715   60.7584 C   0  0  0  0  0  0  0  0  0  0  0  0
  -49.0639   56.2840   60.1044 C   0  0  0  0  0  0  0  0  0  0  0  0
  -47.7406   56.8990   59.6825 C   0  0  0  0  0  0  0  0  0  0  0  0
  -47.0133   56.1375   58.5867 C   0  0  0  0  0  0  0  0  0  0  0  0
  -47.7187   56.1925   57.2403 C   0  0  0  0  0  0  0  0  0  0  0  0
  -47.9822   57.5963   56.7328 C   0  0  0  0  0  0  0  0  0  0  0  0
  -46.8036   58.5114   56.9152 C   0  0  0  0  0  0  0  0  0  0  0  0
 21 22  1  0  0  0
  4  5  2  0  0  0
 25 24  1  0  0  0
 25 26  2  0  0  0
 25 27  1  0  0  0
 25 29  1  0  0  0
 22 20  1  0  0  0
  3  5  1  0  0  0
  3  2  1  0  0  0
 20 19  1  0  0  0
 24 23  1  0  0  0
 19 18  1  0  0  0
 18 17  1  0  0  0
 27 28  1  0  0  0
 17 16  1  0  0  0
 29 30  1  0  0  0
 16 15  1  0  0  0
 34 35  1  0  0  0
 34 36  1  0  0  0
 15 14  1  0  0  0
 31 32  1  0  0  0
 31 33  1  0  0  0
 14 13  1  0  0  0
 37  1  1  0  0  0
 37 39  1  0  0  0
 13 12  1  0  0  0
 38 39  2  0  0  0
 12 11  1  0  0  0
 11 10  1  0  0  0
 10  9  1  0  0  0
  9  8  1  0  0  0
  8  7  1  0  0  0
  7  6  1  0  0  0
  6  5  1  0  0  0
  2  1  1  0  0  0
  1 23  1  0  0  0
 30 32  1  0  0  0
 32 35  1  0  0  0
 39 40  1  0  0  0
 40 41  1  0  0  0
 41 42  1  0  0  0
 42 43  1  0  0  0
 43 44  1  0  0  0
 44 45  1  0  0  0
 45 46  1  0  0  0
 46 47  1  0  0  0
 47 48  2  0  0  0
 48 49  1  0  0  0
 49 50  1  0  0  0
 50 51  1  0  0  0
 51 52  1  0  0  0
 52 53  1  0  0  0
 53 54  1  0  0  0
 54 55  1  0  0  0
 55 56  1  0  0  0
M  CHG 1  26  -1
M  END
> <minimizedAffinity>
-8.67465

> <CNNscore>
0.2815230787

> <CNNaffinity>
6.8725876808

> <CNN_VS>
1.9347920418

> <CNNaffinity_variance>
0.7805171609

$$$$
/media/chris/experiments/cd1a-new-docking/inputs/ligands/7sh4_ligand.pdb


 56 55  0  0  0  0  0  0  0  0999 V2000
  -39.1325   60.6644   64.2918 C   0  0  0  0  0  0  0  0  0  0  0  0
  -39.6444   59.8989   65.4791 C   0  0  0  0  0  0  0  0  0  0  0  0
  -40.7950   60.6548   65.9124 O   0  0  0  0  0  0  0  0  0  0  0  0
  -41.9210   58.8552   66.6147 O   0  0  0  0  0  0  0  0  0  0  0  0
  -41.9104   59.9678   66.1611 C   0  0  0  0  0  0  0  0  0  0  0  0
  -43.1307   60.8088   65.9199 C   0  0  0  0  0  0  0  0  0  0  0  0
  -44.4388   60.0392   65.9909 C   0  0  0  0  0  0  0  0  0  0  0  0
  -45.5371   60.6725   65.1632 C   0  0  0  0  0  0  0  0  0  0  0  0
  -46.4904   59.6805   64.5363 C   0  0  0  0  0  0  0  0  0  0  0  0
  -47.9020   60.2155   64.4051 C   0  0  0  0  0  0  0  0  0  0  0  0
  -48.6938   60.1228   65.6866 C   0  0  0  0  0  0  0  0  0  0  0  0
  -50.1177   59.6842   65.4680 C   0  0  0  0  0  0  0  0  0  0  0  0
  -50.8480   60.5101   64.4324 C   0  0  0  0  0  0  0  0  0  0  0  0
  -51.2911   59.6913   63.2369 C   0  0  0  0  0  0  0  0  0  0  0  0
  -50.5680   58.3687   63.0915 C   0  0  0  0  0  0  0  0  0  0  0  0
  -49.7494   58.2517   61.8107 C   0  0  0  0  0  0  0  0  0  0  0  0
  -50.5170   57.6680   60.6401 C   0  0  0  0  0  0  0  0  0  0  0  0
  -50.2301   58.3636   59.3252 C   0  0  0  0  0  0  0  0  0  0  0  0
  -49.2032   57.6413   58.4641 C   0  0  0  0  0  0  0  0  0  0  0  0
  -47.9254   58.4327   58.2496 C   0  0  0  0  0  0  0  0  0  0  0  0
  -47.2140   56.2519   57.2132 C   0  0  0  0  0  0  0  0  0  0  0  0
  -46.8284   57.6814   57.5194 C   0  0  0  0  0  0  0  0  0  0  0  0
  -38.0418   61.6333   64.6702 C   0  0  0  0  0  0  0  0  0  0  0  0
  -37.6444   62.3697   63.4920 O   0  0  0  0  0  0  0  0  0  0  0  0
  -36.3464   63.3053   63.4507 P   0  0  0  0  0  0  0  0  0  0  0  0
  -35.7231   63.1651   62.1170 O   0  0  0  0  0  0  0  0  0  0  0  0
  -36.7374   64.6579   63.9156 O   0  0  0  0  0  0  0  0  0  0  0  0
  -37.3478   65.0559   63.2753 H   0  0  0  0  0  0  0  0  0  0  0  0
  -35.3459   62.6874   64.5277 O   0  0  0  0  0  0  0  0  0  0  0  0
  -34.4422   63.5483   65.2504 C   0  0  0  0  0  0  0  0  0  0  0  0
  -33.2958   63.3271   67.3431 O   0  0  0  0  0  0  0  0  0  0  0  0
  -34.5837   63.2567   66.7242 C   0  0  0  0  0  0  0  0  0  0  0  0
  -32.6886   62.7167   66.8965 H   0  0  0  0  0  0  0  0  0  0  0  0
  -36.7789   64.2563   66.7072 O   0  0  0  0  0  0  0  0  0  0  0  0
  -35.5428   64.2015   67.4077 C   0  0  0  0  0  0  0  0  0  0  0  0
  -37.3806   64.8672   67.1606 H   0  0  0  0  0  0  0  0  0  0  0  0
  -40.2659   61.3452   63.6581 O   0  0  0  0  0  0  0  0  0  0  0  0
  -41.7729   59.8561   62.9020 O   0  0  0  0  0  0  0  0  0  0  0  0
  -40.9187   60.6730   62.6905 C   0  0  0  0  0  0  0  0  0  0  0  0
  -40.4654   61.0789   61.3224 C   0  0  0  0  0  0  0  0  0  0  0  0
  -39.1458   60.4106   60.9497 C   0  0  0  0  0  0  0  0  0  0  0  0
  -39.2208   59.5546   59.6962 C   0  0  0  0  0  0  0  0  0  0  0  0
  -40.5849   58.9097   59.4789 C   0  0  0  0  0  0  0  0  0  0  0  0
  -40.5748   57.3957   59.5803 C   0  0  0  0  0  0  0  0  0  0  0  0
  -41.4184   56.8287   60.7256 C   0  0  0  0  0  0  0  0  0  0  0  0
  -40.6268   56.1346   61.8362 C   0  0  0  0  0  0  0  0  0  0  0  0
  -40.0982   57.1085   62.8463 C   0  0  0  0  0  0  0  0  0  0  0  0
  -38.8627   57.5619   62.9314 C   0  0  0  0  0  0  0  0  0  0  0  0
  -37.7248   57.1976   62.0308 C   0  0  0  0  0  0  0  0  0  0  0  0
  -36.4777   58.0345   62.3006 C   0  0  0  0  0  0  0  0  0  0  0  0
  -35.7244   57.6199   63.5524 C   0  0  0  0  0  0  0  0  0  0  0  0
  -35.6453   58.7110   64.6061 C   0  0  0  0  0  0  0  0  0  0  0  0
  -34.3400   59.4892   64.6101 C   0  0  0  0  0  0  0  0  0  0  0  0
  -33.1147   58.6178   64.3805 C   0  0  0  0  0  0  0  0  0  0  0  0
  -32.2967   59.0025   63.1637 C   0  0  0  0  0  0  0  0  0  0  0  0
  -32.5243   60.4256   62.7363 C   0  0  0  0  0  0  0  0  0  0  0  0
 21 22  1  0  0  0
  4  5  2  0  0  0
 25 24  1  0  0  0
 25 26  2  0  0  0
 25 27  1  0  0  0
 25 29  1  0  0  0
 22 20  1  0  0  0
  3  5  1  0  0  0
  3  2  1  0  0  0
 20 19  1  0  0  0
 24 23  1  0  0  0
 19 18  1  0  0  0
 18 17  1  0  0  0
 27 28  1  0  0  0
 17 16  1  0  0  0
 29 30  1  0  0  0
 16 15  1  0  0  0
 34 35  1  0  0  0
 34 36  1  0  0  0
 15 14  1  0  0  0
 31 32  1  0  0  0
 31 33  1  0  0  0
 14 13  1  0  0  0
 37  1  1  0  0  0
 37 39  1  0  0  0
 13 12  1  0  0  0
 38 39  2  0  0  0
 12 11  1  0  0  0
 11 10  1  0  0  0
 10  9  1  0  0  0
  9  8  1  0  0  0
  8  7  1  0  0  0
  7  6  1  0  0  0
  6  5  1  0  0  0
  2  1  1  0  0  0
  1 23  1  0  0  0
 30 32  1  0  0  0
 32 35  1  0  0  0
 39 40  1  0  0  0
 40 41  1  0  0  0
 41 42  1  0  0  0
 42 43  1  0  0  0
 43 44  1  0  0  0
 44 45  1  0  0  0
 45 46  1  0  0  0
 46 47  1  0  0  0
 47 48  2  0  0  0
 48 49  1  0  0  0
 49 50  1  0  0  0
 50 51  1  0  0  0
 51 52  1  0  0  0
 52 53  1  0  0  0
 53 54  1  0  0  0
 54 55  1  0  0  0
 55 56  1  0  0  0
M  CHG 1  26  -1
M  END
> <minimizedAffinity>
-8.53461

> <CNNscore>
0.2488668710

> <CNNaffinity>
7.2332277298

> <CNN_VS>
1.8001106977

> <CNNaffinity_variance>
1.0817239285

$$$$
