/media/chris/experiments/cd1a-new-docking/inputs/ligands/7sh4_ligand.pdb


 56 55  0  0  0  0  0  0  0  0999 V2000
  -40.6732   59.8238   65.2765 C   0  0  0  0  0  0  0  0  0  0  0  0
  -40.6126   58.3422   65.0339 C   0  0  0  0  0  0  0  0  0  0  0  0
  -41.7801   57.8296   65.7101 O   0  0  0  0  0  0  0  0  0  0  0  0
  -42.0156   55.9216   64.5686 O   0  0  0  0  0  0  0  0  0  0  0  0
  -42.4935   56.9050   65.0669 C   0  0  0  0  0  0  0  0  0  0  0  0
  -43.9644   57.1928   65.1598 C   0  0  0  0  0  0  0  0  0  0  0  0
  -44.4193   57.6629   66.5310 C   0  0  0  0  0  0  0  0  0  0  0  0
  -45.9253   57.6463   66.6866 C   0  0  0  0  0  0  0  0  0  0  0  0
  -46.5685   59.0136   66.6341 C   0  0  0  0  0  0  0  0  0  0  0  0
  -47.4220   59.2209   65.3994 C   0  0  0  0  0  0  0  0  0  0  0  0
  -48.6123   60.1160   65.6435 C   0  0  0  0  0  0  0  0  0  0  0  0
  -49.9080   59.3560   65.7496 C   0  0  0  0  0  0  0  0  0  0  0  0
  -50.6599   59.2658   64.4401 C   0  0  0  0  0  0  0  0  0  0  0  0
  -50.4000   60.4512   63.5329 C   0  0  0  0  0  0  0  0  0  0  0  0
  -49.8987   60.0759   62.1540 C   0  0  0  0  0  0  0  0  0  0  0  0
  -49.3854   58.6441   62.0538 C   0  0  0  0  0  0  0  0  0  0  0  0
  -50.2444   57.7407   61.1899 C   0  0  0  0  0  0  0  0  0  0  0  0
  -50.1900   58.0875   59.7162 C   0  0  0  0  0  0  0  0  0  0  0  0
  -48.7751   58.2624   59.1823 C   0  0  0  0  0  0  0  0  0  0  0  0
  -48.0612   56.9503   58.9114 C   0  0  0  0  0  0  0  0  0  0  0  0
  -46.9485   58.3672   57.1536 C   0  0  0  0  0  0  0  0  0  0  0  0
  -47.0967   56.9820   57.7410 C   0  0  0  0  0  0  0  0  0  0  0  0
  -39.3687   60.3651   65.8030 C   0  0  0  0  0  0  0  0  0  0  0  0
  -38.8837   61.3772   64.8926 O   0  0  0  0  0  0  0  0  0  0  0  0
  -37.3510   61.8354   64.8418 P   0  0  0  0  0  0  0  0  0  0  0  0
  -36.5450   60.8174   65.5494 O   0  0  0  0  0  0  0  0  0  0  0  0
  -37.0127   62.1601   63.4351 O   0  0  0  0  0  0  0  0  0  0  0  0
  -37.0455   61.3519   62.8998 H   0  0  0  0  0  0  0  0  0  0  0  0
  -37.2859   63.1868   65.6857 O   0  0  0  0  0  0  0  0  0  0  0  0
  -36.1255   64.0386   65.5957 C   0  0  0  0  0  0  0  0  0  0  0  0
  -36.0437   63.0444   67.7745 O   0  0  0  0  0  0  0  0  0  0  0  0
  -35.3436   63.9146   66.8802 C   0  0  0  0  0  0  0  0  0  0  0  0
  -36.9432   63.3796   67.9137 H   0  0  0  0  0  0  0  0  0  0  0  0
  -33.2251   63.3381   67.8793 O   0  0  0  0  0  0  0  0  0  0  0  0
  -33.9398   63.4074   66.6521 C   0  0  0  0  0  0  0  0  0  0  0  0
  -32.3273   63.0108   67.7125 H   0  0  0  0  0  0  0  0  0  0  0  0
  -41.7829   60.0961   66.1953 O   0  0  0  0  0  0  0  0  0  0  0  0
  -42.3027   62.2792   66.3498 O   0  0  0  0  0  0  0  0  0  0  0  0
  -42.5407   61.1783   65.9337 C   0  0  0  0  0  0  0  0  0  0  0  0
  -43.7025   60.8484   65.0486 C   0  0  0  0  0  0  0  0  0  0  0  0
  -43.2838   60.7671   63.5841 C   0  0  0  0  0  0  0  0  0  0  0  0
  -43.2811   62.1080   62.8685 C   0  0  0  0  0  0  0  0  0  0  0  0
  -42.6356   62.0613   61.4883 C   0  0  0  0  0  0  0  0  0  0  0  0
  -41.6298   60.9384   61.3154 C   0  0  0  0  0  0  0  0  0  0  0  0
  -41.1513   60.7283   59.8760 C   0  0  0  0  0  0  0  0  0  0  0  0
  -40.0117   59.7210   59.7087 C   0  0  0  0  0  0  0  0  0  0  0  0
  -40.5043   58.3821   59.2475 C   0  0  0  0  0  0  0  0  0  0  0  0
  -40.7746   57.3383   60.0068 C   0  0  0  0  0  0  0  0  0  0  0  0
  -40.6465   57.2733   61.4961 C   0  0  0  0  0  0  0  0  0  0  0  0
  -39.2500   56.8505   61.9426 C   0  0  0  0  0  0  0  0  0  0  0  0
  -38.3189   58.0178   62.2195 C   0  0  0  0  0  0  0  0  0  0  0  0
  -36.8993   57.5983   62.5595 C   0  0  0  0  0  0  0  0  0  0  0  0
  -36.5198   57.7854   64.0192 C   0  0  0  0  0  0  0  0  0  0  0  0
  -35.0192   57.8865   64.2467 C   0  0  0  0  0  0  0  0  0  0  0  0
  -34.2198   58.1942   62.9960 C   0  0  0  0  0  0  0  0  0  0  0  0
  -32.7527   58.3700   63.2722 C   0  0  0  0  0  0  0  0  0  0  0  0
 21 22  1  0  0  0
  4  5  2  0  0  0
 25 24  1  0  0  0
 25 26  2  0  0  0
 25 27  1  0  0  0
 25 29  1  0  0  0
 22 20  1  0  0  0
  3  5  1  0  0  0
  3  2  1  0  0  0
 20 19  1  0  0  0
 24 23  1  0  0  0
 19 18  1  0  0  0
 18 17  1  0  0  0
 27 28  1  0  0  0
 17 16  1  0  0  0
 29 30  1  0  0  0
 16 15  1  0  0  0
 34 35  1  0  0  0
 34 36  1  0  0  0
 15 14  1  0  0  0
 31 32  1  0  0  0
 31 33  1  0  0  0
 14 13  1  0  0  0
 37  1  1  0  0  0
 37 39  1  0  0  0
 13 12  1  0  0  0
 38 39  2  0  0  0
 12 11  1  0  0  0
 11 10  1  0  0  0
 10  9  1  0  0  0
  9  8  1  0  0  0
  8  7  1  0  0  0
  7  6  1  0  0  0
  6  5  1  0  0  0
  2  1  1  0  0  0
  1 23  1  0  0  0
 30 32  1  0  0  0
 32 35  1  0  0  0
 39 40  1  0  0  0
 40 41  1  0  0  0
 41 42  1  0  0  0
 42 43  1  0  0  0
 43 44  1  0  0  0
 44 45  1  0  0  0
 45 46  1  0  0  0
 46 47  1  0  0  0
 47 48  2  0  0  0
 48 49  1  0  0  0
 49 50  1  0  0  0
 50 51  1  0  0  0
 51 52  1  0  0  0
 52 53  1  0  0  0
 53 54  1  0  0  0
 54 55  1  0  0  0
 55 56  1  0  0  0
M  CHG 1  26  -1
M  END
> <minimizedAffinity>
-9.19147

> <CNNscore>
0.4596087039

> <CNNaffinity>
7.6617484093

> <CNN_VS>
3.5214061737

> <CNNaffinity_variance>
2.3078293800

$$$$
/media/chris/experiments/cd1a-new-docking/inputs/ligands/7sh4_ligand.pdb


 56 55  0  0  0  0  0  0  0  0999 V2000
  -41.0023   60.5769   64.1591 C   0  0  0  0  0  0  0  0  0  0  0  0
  -40.9989   59.9258   65.5133 C   0  0  0  0  0  0  0  0  0  0  0  0
  -40.8668   58.5181   65.2236 O   0  0  0  0  0  0  0  0  0  0  0  0
  -42.6536   57.6757   66.2709 O   0  0  0  0  0  0  0  0  0  0  0  0
  -41.9770   57.7821   65.2838 C   0  0  0  0  0  0  0  0  0  0  0  0
  -42.3274   57.2177   63.9370 C   0  0  0  0  0  0  0  0  0  0  0  0
  -41.1737   57.2091   62.9485 C   0  0  0  0  0  0  0  0  0  0  0  0
  -41.1374   55.9550   62.1009 C   0  0  0  0  0  0  0  0  0  0  0  0
  -41.3827   56.1953   60.6284 C   0  0  0  0  0  0  0  0  0  0  0  0
  -41.3997   57.6655   60.2620 C   0  0  0  0  0  0  0  0  0  0  0  0
  -40.3754   58.0286   59.2148 C   0  0  0  0  0  0  0  0  0  0  0  0
  -39.8758   59.4430   59.3461 C   0  0  0  0  0  0  0  0  0  0  0  0
  -38.8059   59.6062   60.4029 C   0  0  0  0  0  0  0  0  0  0  0  0
  -37.8149   58.4600   60.4145 C   0  0  0  0  0  0  0  0  0  0  0  0
  -37.6827   57.7710   61.7566 C   0  0  0  0  0  0  0  0  0  0  0  0
  -36.8162   58.5292   62.7556 C   0  0  0  0  0  0  0  0  0  0  0  0
  -36.4803   57.7378   64.0050 C   0  0  0  0  0  0  0  0  0  0  0  0
  -35.0070   57.7651   64.3570 C   0  0  0  0  0  0  0  0  0  0  0  0
  -34.0951   57.9517   63.1523 C   0  0  0  0  0  0  0  0  0  0  0  0
  -32.8262   58.7245   63.4646 C   0  0  0  0  0  0  0  0  0  0  0  0
  -30.9294   60.0967   62.5399 C   0  0  0  0  0  0  0  0  0  0  0  0
  -32.3667   59.6620   62.3640 C   0  0  0  0  0  0  0  0  0  0  0  0
  -39.6122   60.9350   63.6997 C   0  0  0  0  0  0  0  0  0  0  0  0
  -38.8366   61.3522   64.8456 O   0  0  0  0  0  0  0  0  0  0  0  0
  -37.3165   61.8404   64.7329 P   0  0  0  0  0  0  0  0  0  0  0  0
  -36.4641   60.8463   65.4200 O   0  0  0  0  0  0  0  0  0  0  0  0
  -37.0374   62.1567   63.3113 O   0  0  0  0  0  0  0  0  0  0  0  0
  -37.0736   61.3422   62.7857 H   0  0  0  0  0  0  0  0  0  0  0  0
  -37.2477   63.2018   65.5603 O   0  0  0  0  0  0  0  0  0  0  0  0
  -36.1321   64.0986   65.3825 C   0  0  0  0  0  0  0  0  0  0  0  0
  -36.2513   63.8948   67.7672 O   0  0  0  0  0  0  0  0  0  0  0  0
  -35.3623   64.1631   66.6786 C   0  0  0  0  0  0  0  0  0  0  0  0
  -36.9933   64.5190   67.7400 H   0  0  0  0  0  0  0  0  0  0  0  0
  -33.3234   63.5001   67.7840 O   0  0  0  0  0  0  0  0  0  0  0  0
  -34.2000   63.1997   66.7055 C   0  0  0  0  0  0  0  0  0  0  0  0
  -32.5844   62.8717   67.7846 H   0  0  0  0  0  0  0  0  0  0  0  0
  -41.8743   61.7543   64.2153 O   0  0  0  0  0  0  0  0  0  0  0  0
  -43.0163   61.7928   62.2777 O   0  0  0  0  0  0  0  0  0  0  0  0
  -42.9993   61.7167   63.4759 C   0  0  0  0  0  0  0  0  0  0  0  0
  -44.2222   61.5503   64.3239 C   0  0  0  0  0  0  0  0  0  0  0  0
  -44.7013   60.1022   64.3356 C   0  0  0  0  0  0  0  0  0  0  0  0
  -45.5448   59.7419   65.5475 C   0  0  0  0  0  0  0  0  0  0  0  0
  -46.1941   58.3661   65.4511 C   0  0  0  0  0  0  0  0  0  0  0  0
  -47.7104   58.3946   65.4995 C   0  0  0  0  0  0  0  0  0  0  0  0
  -48.3043   59.6720   66.1000 C   0  0  0  0  0  0  0  0  0  0  0  0
  -49.3505   60.3747   65.2321 C   0  0  0  0  0  0  0  0  0  0  0  0
  -48.8990   60.5205   63.8098 C   0  0  0  0  0  0  0  0  0  0  0  0
  -49.5800   60.1902   62.7298 C   0  0  0  0  0  0  0  0  0  0  0  0
  -50.9541   59.5990   62.6991 C   0  0  0  0  0  0  0  0  0  0  0  0
  -50.9788   58.2160   62.0548 C   0  0  0  0  0  0  0  0  0  0  0  0
  -49.6064   57.7083   61.6484 C   0  0  0  0  0  0  0  0  0  0  0  0
  -49.5237   57.2700   60.1964 C   0  0  0  0  0  0  0  0  0  0  0  0
  -49.2621   58.3979   59.2121 C   0  0  0  0  0  0  0  0  0  0  0  0
  -47.9147   58.2922   58.5141 C   0  0  0  0  0  0  0  0  0  0  0  0
  -47.2876   56.9136   58.5779 C   0  0  0  0  0  0  0  0  0  0  0  0
  -47.5623   56.0924   57.3492 C   0  0  0  0  0  0  0  0  0  0  0  0
 21 22  1  0  0  0
  4  5  2  0  0  0
 25 24  1  0  0  0
 25 26  2  0  0  0
 25 27  1  0  0  0
 25 29  1  0  0  0
 22 20  1  0  0  0
  3  5  1  0  0  0
  3  2  1  0  0  0
 20 19  1  0  0  0
 24 23  1  0  0  0
 19 18  1  0  0  0
 18 17  1  0  0  0
 27 28  1  0  0  0
 17 16  1  0  0  0
 29 30  1  0  0  0
 16 15  1  0  0  0
 34 35  1  0  0  0
 34 36  1  0  0  0
 15 14  1  0  0  0
 31 32  1  0  0  0
 31 33  1  0  0  0
 14 13  1  0  0  0
 37  1  1  0  0  0
 37 39  1  0  0  0
 13 12  1  0  0  0
 38 39  2  0  0  0
 12 11  1  0  0  0
 11 10  1  0  0  0
 10  9  1  0  0  0
  9  8  1  0  0  0
  8  7  1  0  0  0
  7  6  1  0  0  0
  6  5  1  0  0  0
  2  1  1  0  0  0
  1 23  1  0  0  0
 30 32  1  0  0  0
 32 35  1  0  0  0
 39 40  1  0  0  0
 40 41  1  0  0  0
 41 42  1  0  0  0
 42 43  1  0  0  0
 43 44  1  0  0  0
 44 45  1  0  0  0
 45 46  1  0  0  0
 46 47  1  0  0  0
 47 48  2  0  0  0
 48 49  1  0  0  0
 49 50  1  0  0  0
 50 51  1  0  0  0
 51 52  1  0  0  0
 52 53  1  0  0  0
 53 54  1  0  0  0
 54 55  1  0  0  0
 55 56  1  0  0  0
M  CHG 1  26  -1
M  END
> <minimizedAffinity>
-8.92846

> <CNNscore>
0.4538172483

> <CNNaffinity>
7.4720869064

> <CNN_VS>
3.3909618855

> <CNNaffinity_variance>
1.7860438824

$$$$
/media/chris/experiments/cd1a-new-docking/inputs/ligands/7sh4_ligand.pdb


 56 55  0  0  0  0  0  0  0  0999 V2000
  -39.4903   60.0113   64.5574 C   0  0  0  0  0  0  0  0  0  0  0  0
  -39.7544   58.6178   65.0535 C   0  0  0  0  0  0  0  0  0  0  0  0
  -41.1704   58.6091   65.3326 O   0  0  0  0  0  0  0  0  0  0  0  0
  -41.3457   56.4940   64.6291 O   0  0  0  0  0  0  0  0  0  0  0  0
  -41.8571   57.5361   64.9390 C   0  0  0  0  0  0  0  0  0  0  0  0
  -43.3365   57.7656   65.0563 C   0  0  0  0  0  0  0  0  0  0  0  0
  -43.9099   58.6774   63.9847 C   0  0  0  0  0  0  0  0  0  0  0  0
  -45.0402   59.5450   64.4966 C   0  0  0  0  0  0  0  0  0  0  0  0
  -45.0768   59.6904   66.0011 C   0  0  0  0  0  0  0  0  0  0  0  0
  -46.3013   59.0560   66.6290 C   0  0  0  0  0  0  0  0  0  0  0  0
  -47.3866   58.7418   65.6285 C   0  0  0  0  0  0  0  0  0  0  0  0
  -48.5849   59.6445   65.7573 C   0  0  0  0  0  0  0  0  0  0  0  0
  -49.8919   58.9580   65.4275 C   0  0  0  0  0  0  0  0  0  0  0  0
  -50.9974   59.9366   65.0868 C   0  0  0  0  0  0  0  0  0  0  0  0
  -50.9307   60.4769   63.6736 C   0  0  0  0  0  0  0  0  0  0  0  0
  -50.6710   59.4087   62.6175 C   0  0  0  0  0  0  0  0  0  0  0  0
  -49.3920   59.6191   61.8300 C   0  0  0  0  0  0  0  0  0  0  0  0
  -49.5878   59.5351   60.3301 C   0  0  0  0  0  0  0  0  0  0  0  0
  -49.9710   58.1451   59.8416 C   0  0  0  0  0  0  0  0  0  0  0  0
  -49.2654   57.7348   58.5614 C   0  0  0  0  0  0  0  0  0  0  0  0
  -47.2626   57.9801   57.0567 C   0  0  0  0  0  0  0  0  0  0  0  0
  -47.8467   58.2540   58.4240 C   0  0  0  0  0  0  0  0  0  0  0  0
  -38.3179   60.6489   65.2580 C   0  0  0  0  0  0  0  0  0  0  0  0
  -38.0969   61.9612   64.6944 O   0  0  0  0  0  0  0  0  0  0  0  0
  -36.8630   62.2949   63.7311 P   0  0  0  0  0  0  0  0  0  0  0  0
  -35.7429   61.4008   64.0953 O   0  0  0  0  0  0  0  0  0  0  0  0
  -37.3545   62.2874   62.3322 O   0  0  0  0  0  0  0  0  0  0  0  0
  -37.6207   61.3873   62.0878 H   0  0  0  0  0  0  0  0  0  0  0  0
  -36.4367   63.7883   64.0926 O   0  0  0  0  0  0  0  0  0  0  0  0
  -35.1360   64.0507   64.6579 C   0  0  0  0  0  0  0  0  0  0  0  0
  -36.6779   64.2654   66.4797 O   0  0  0  0  0  0  0  0  0  0  0  0
  -35.2868   64.1943   66.1523 C   0  0  0  0  0  0  0  0  0  0  0  0
  -37.0885   64.9946   65.9893 H   0  0  0  0  0  0  0  0  0  0  0  0
  -33.5421   63.5437   67.6857 O   0  0  0  0  0  0  0  0  0  0  0  0
  -34.6310   63.0633   66.9077 C   0  0  0  0  0  0  0  0  0  0  0  0
  -33.1344   62.8039   68.1626 H   0  0  0  0  0  0  0  0  0  0  0  0
  -40.7149   60.8002   64.7235 O   0  0  0  0  0  0  0  0  0  0  0  0
  -42.2925   61.9350   63.5905 O   0  0  0  0  0  0  0  0  0  0  0  0
  -41.3278   61.2202   63.6001 C   0  0  0  0  0  0  0  0  0  0  0  0
  -40.6522   60.7051   62.3670 C   0  0  0  0  0  0  0  0  0  0  0  0
  -41.5254   60.8947   61.1308 C   0  0  0  0  0  0  0  0  0  0  0  0
  -40.9170   60.3361   59.8549 C   0  0  0  0  0  0  0  0  0  0  0  0
  -41.3087   58.8897   59.5751 C   0  0  0  0  0  0  0  0  0  0  0  0
  -40.1314   57.9754   59.2918 C   0  0  0  0  0  0  0  0  0  0  0  0
  -38.8116   58.7027   59.0193 C   0  0  0  0  0  0  0  0  0  0  0  0
  -37.7798   58.6246   60.1466 C   0  0  0  0  0  0  0  0  0  0  0  0
  -38.2206   57.7149   61.2539 C   0  0  0  0  0  0  0  0  0  0  0  0
  -37.6158   57.5335   62.4118 C   0  0  0  0  0  0  0  0  0  0  0  0
  -36.3570   58.2034   62.8646 C   0  0  0  0  0  0  0  0  0  0  0  0
  -36.0025   57.8617   64.3089 C   0  0  0  0  0  0  0  0  0  0  0  0
  -34.5309   58.0460   64.6354 C   0  0  0  0  0  0  0  0  0  0  0  0
  -33.6629   58.3016   63.4154 C   0  0  0  0  0  0  0  0  0  0  0  0
  -32.2675   58.8140   63.7315 C   0  0  0  0  0  0  0  0  0  0  0  0
  -31.7316   59.7900   62.6952 C   0  0  0  0  0  0  0  0  0  0  0  0
  -32.5251   61.0768   62.5838 C   0  0  0  0  0  0  0  0  0  0  0  0
  -31.8018   62.1405   61.8059 C   0  0  0  0  0  0  0  0  0  0  0  0
 21 22  1  0  0  0
  4  5  2  0  0  0
 25 24  1  0  0  0
 25 26  2  0  0  0
 25 27  1  0  0  0
 25 29  1  0  0  0
 22 20  1  0  0  0
  3  5  1  0  0  0
  3  2  1  0  0  0
 20 19  1  0  0  0
 24 23  1  0  0  0
 19 18  1  0  0  0
 18 17  1  0  0  0
 27 28  1  0  0  0
 17 16  1  0  0  0
 29 30  1  0  0  0
 16 15  1  0  0  0
 34 35  1  0  0  0
 34 36  1  0  0  0
 15 14  1  0  0  0
 31 32  1  0  0  0
 31 33  1  0  0  0
 14 13  1  0  0  0
 37  1  1  0  0  0
 37 39  1  0  0  0
 13 12  1  0  0  0
 38 39  2  0  0  0
 12 11  1  0  0  0
 11 10  1  0  0  0
 10  9  1  0  0  0
  9  8  1  0  0  0
  8  7  1  0  0  0
  7  6  1  0  0  0
  6  5  1  0  0  0
  2  1  1  0  0  0
  1 23  1  0  0  0
 30 32  1  0  0  0
 32 35  1  0  0  0
 39 40  1  0  0  0
 40 41  1  0  0  0
 41 42  1  0  0  0
 42 43  1  0  0  0
 43 44  1  0  0  0
 44 45  1  0  0  0
 45 46  1  0  0  0
 46 47  1  0  0  0
 47 48  2  0  0  0
 48 49  1  0  0  0
 49 50  1  0  0  0
 50 51  1  0  0  0
 51 52  1  0  0  0
 52 53  1  0  0  0
 53 54  1  0  0  0
 54 55  1  0  0  0
 55 56  1  0  0  0
M  CHG 1  26  -1
M  END
> <minimizedAffinity>
-8.78086

> <CNNscore>
0.4522246122

> <CNNaffinity>
7.4591588974

> <CNN_VS>
3.3732151985

> <CNNaffinity_variance>
1.5176552534

$$$$
/media/chris/experiments/cd1a-new-docking/inputs/ligands/7sh4_ligand.pdb


 56 55  0  0  0  0  0  0  0  0999 V2000
  -41.4099   59.0949   63.4913 C   0  0  0  0  0  0  0  0  0  0  0  0
  -42.0847   57.8333   63.0324 C   0  0  0  0  0  0  0  0  0  0  0  0
  -43.3050   57.7901   63.8019 O   0  0  0  0  0  0  0  0  0  0  0  0
  -42.9423   55.8210   64.7970 O   0  0  0  0  0  0  0  0  0  0  0  0
  -43.3344   56.9558   64.8415 C   0  0  0  0  0  0  0  0  0  0  0  0
  -43.7985   57.6561   66.0862 C   0  0  0  0  0  0  0  0  0  0  0  0
  -45.2987   57.5842   66.3160 C   0  0  0  0  0  0  0  0  0  0  0  0
  -45.9161   58.9401   66.5853 C   0  0  0  0  0  0  0  0  0  0  0  0
  -45.2798   60.0745   65.8145 C   0  0  0  0  0  0  0  0  0  0  0  0
  -46.0147   60.4058   64.5314 C   0  0  0  0  0  0  0  0  0  0  0  0
  -47.4622   59.9791   64.5488 C   0  0  0  0  0  0  0  0  0  0  0  0
  -48.3497   60.8753   63.7263 C   0  0  0  0  0  0  0  0  0  0  0  0
  -49.8179   60.7402   64.0643 C   0  0  0  0  0  0  0  0  0  0  0  0
  -50.6295   60.1572   62.9253 C   0  0  0  0  0  0  0  0  0  0  0  0
  -50.8874   58.6699   63.0483 C   0  0  0  0  0  0  0  0  0  0  0  0
  -50.4544   57.8666   61.8273 C   0  0  0  0  0  0  0  0  0  0  0  0
  -49.9531   58.7174   60.6762 C   0  0  0  0  0  0  0  0  0  0  0  0
  -48.6485   58.2229   60.0857 C   0  0  0  0  0  0  0  0  0  0  0  0
  -48.7297   56.8107   59.5231 C   0  0  0  0  0  0  0  0  0  0  0  0
  -47.5667   56.4498   58.6163 C   0  0  0  0  0  0  0  0  0  0  0  0
  -46.8281   58.2455   57.0145 C   0  0  0  0  0  0  0  0  0  0  0  0
  -47.6657   57.0016   57.2067 C   0  0  0  0  0  0  0  0  0  0  0  0
  -40.5102   58.8568   64.6769 C   0  0  0  0  0  0  0  0  0  0  0  0
  -39.1826   59.3286   64.3554 O   0  0  0  0  0  0  0  0  0  0  0  0
  -38.6326   60.7569   64.8239 P   0  0  0  0  0  0  0  0  0  0  0  0
  -38.7387   61.6865   63.6789 O   0  0  0  0  0  0  0  0  0  0  0  0
  -39.3035   61.1150   66.0968 O   0  0  0  0  0  0  0  0  0  0  0  0
  -40.2493   61.2568   65.9350 H   0  0  0  0  0  0  0  0  0  0  0  0
  -37.0842   60.5327   65.1326 O   0  0  0  0  0  0  0  0  0  0  0  0
  -36.2949   61.6076   65.6819 C   0  0  0  0  0  0  0  0  0  0  0  0
  -35.7238   61.4956   63.3573 O   0  0  0  0  0  0  0  0  0  0  0  0
  -35.4933   62.2283   64.5644 C   0  0  0  0  0  0  0  0  0  0  0  0
  -35.5072   60.5609   63.5002 H   0  0  0  0  0  0  0  0  0  0  0  0
  -36.5069   64.2106   65.4929 O   0  0  0  0  0  0  0  0  0  0  0  0
  -35.8255   63.6870   64.3600 C   0  0  0  0  0  0  0  0  0  0  0  0
  -36.7115   65.1469   65.3428 H   0  0  0  0  0  0  0  0  0  0  0  0
  -42.4450   60.0902   63.7881 O   0  0  0  0  0  0  0  0  0  0  0  0
  -42.1834   62.3236   63.8461 O   0  0  0  0  0  0  0  0  0  0  0  0
  -42.3044   61.3045   63.2228 C   0  0  0  0  0  0  0  0  0  0  0  0
  -42.2984   61.2293   61.7273 C   0  0  0  0  0  0  0  0  0  0  0  0
  -40.9086   60.9033   61.1897 C   0  0  0  0  0  0  0  0  0  0  0  0
  -40.9092   60.3545   59.7723 C   0  0  0  0  0  0  0  0  0  0  0  0
  -41.3113   58.8866   59.6870 C   0  0  0  0  0  0  0  0  0  0  0  0
  -40.1607   57.9491   59.3716 C   0  0  0  0  0  0  0  0  0  0  0  0
  -38.8513   58.6506   58.9999 C   0  0  0  0  0  0  0  0  0  0  0  0
  -37.7935   58.6840   60.1050 C   0  0  0  0  0  0  0  0  0  0  0  0
  -38.1742   57.8307   61.2775 C   0  0  0  0  0  0  0  0  0  0  0  0
  -37.4328   57.5724   62.3372 C   0  0  0  0  0  0  0  0  0  0  0  0
  -36.0493   58.0819   62.5919 C   0  0  0  0  0  0  0  0  0  0  0  0
  -35.4982   57.6221   63.9385 C   0  0  0  0  0  0  0  0  0  0  0  0
  -34.2546   58.3752   64.3774 C   0  0  0  0  0  0  0  0  0  0  0  0
  -33.4170   58.8953   63.2220 C   0  0  0  0  0  0  0  0  0  0  0  0
  -31.9164   58.8345   63.4546 C   0  0  0  0  0  0  0  0  0  0  0  0
  -31.1431   59.9078   62.7036 C   0  0  0  0  0  0  0  0  0  0  0  0
  -32.0172   60.9091   61.9749 C   0  0  0  0  0  0  0  0  0  0  0  0
  -31.9336   62.2902   62.5626 C   0  0  0  0  0  0  0  0  0  0  0  0
 21 22  1  0  0  0
  4  5  2  0  0  0
 25 24  1  0  0  0
 25 26  2  0  0  0
 25 27  1  0  0  0
 25 29  1  0  0  0
 22 20  1  0  0  0
  3  5  1  0  0  0
  3  2  1  0  0  0
 20 19  1  0  0  0
 24 23  1  0  0  0
 19 18  1  0  0  0
 18 17  1  0  0  0
 27 28  1  0  0  0
 17 16  1  0  0  0
 29 30  1  0  0  0
 16 15  1  0  0  0
 34 35  1  0  0  0
 34 36  1  0  0  0
 15 14  1  0  0  0
 31 32  1  0  0  0
 31 33  1  0  0  0
 14 13  1  0  0  0
 37  1  1  0  0  0
 37 39  1  0  0  0
 13 12  1  0  0  0
 38 39  2  0  0  0
 12 11  1  0  0  0
 11 10  1  0  0  0
 10  9  1  0  0  0
  9  8  1  0  0  0
  8  7  1  0  0  0
  7  6  1  0  0  0
  6  5  1  0  0  0
  2  1  1  0  0  0
  1 23  1  0  0  0
 30 32  1  0  0  0
 32 35  1  0  0  0
 39 40  1  0  0  0
 40 41  1  0  0  0
 41 42  1  0  0  0
 42 43  1  0  0  0
 43 44  1  0  0  0
 44 45  1  0  0  0
 45 46  1  0  0  0
 46 47  1  0  0  0
 47 48  2  0  0  0
 48 49  1  0  0  0
 49 50  1  0  0  0
 50 51  1  0  0  0
 51 52  1  0  0  0
 52 53  1  0  0  0
 53 54  1  0  0  0
 54 55  1  0  0  0
 55 56  1  0  0  0
M  CHG 1  26  -1
M  END
> <minimizedAffinity>
-8.44021

> <CNNscore>
0.4126970470

> <CNNaffinity>
7.5343551636

> <CNN_VS>
3.1094062328

> <CNNaffinity_variance>
1.3125141859

$$$$
/media/chris/experiments/cd1a-new-docking/inputs/ligands/7sh4_ligand.pdb


 56 55  0  0  0  0  0  0  0  0999 V2000
  -41.4086   57.1056   63.7664 C   0  0  0  0  0  0  0  0  0  0  0  0
  -42.5184   56.5448   64.6098 C   0  0  0  0  0  0  0  0  0  0  0  0
  -42.8445   57.6190   65.5171 O   0  0  0  0  0  0  0  0  0  0  0  0
  -44.8015   57.5639   66.5969 O   0  0  0  0  0  0  0  0  0  0  0  0
  -44.1361   57.9170   65.6610 C   0  0  0  0  0  0  0  0  0  0  0  0
  -44.6031   58.8444   64.5761 C   0  0  0  0  0  0  0  0  0  0  0  0
  -45.2481   60.1217   65.0867 C   0  0  0  0  0  0  0  0  0  0  0  0
  -46.7264   60.1996   64.7686 C   0  0  0  0  0  0  0  0  0  0  0  0
  -47.6204   59.5950   65.8274 C   0  0  0  0  0  0  0  0  0  0  0  0
  -48.1698   58.2381   65.4359 C   0  0  0  0  0  0  0  0  0  0  0  0
  -49.6731   58.2212   65.3049 C   0  0  0  0  0  0  0  0  0  0  0  0
  -50.3015   59.5647   65.5649 C   0  0  0  0  0  0  0  0  0  0  0  0
  -50.9865   60.1520   64.3508 C   0  0  0  0  0  0  0  0  0  0  0  0
  -50.0089   60.5625   63.2684 C   0  0  0  0  0  0  0  0  0  0  0  0
  -50.3045   59.9635   61.9092 C   0  0  0  0  0  0  0  0  0  0  0  0
  -50.6704   58.4843   61.9543 C   0  0  0  0  0  0  0  0  0  0  0  0
  -50.6695   57.8077   60.5970 C   0  0  0  0  0  0  0  0  0  0  0  0
  -49.4834   56.8900   60.3824 C   0  0  0  0  0  0  0  0  0  0  0  0
  -48.3095   57.5630   59.6848 C   0  0  0  0  0  0  0  0  0  0  0  0
  -47.4171   56.5961   58.9274 C   0  0  0  0  0  0  0  0  0  0  0  0
  -46.9337   58.2370   57.0810 C   0  0  0  0  0  0  0  0  0  0  0  0
  -47.3570   56.8281   57.4295 C   0  0  0  0  0  0  0  0  0  0  0  0
  -40.6897   58.2368   64.4559 C   0  0  0  0  0  0  0  0  0  0  0  0
  -40.1809   59.1445   63.4530 O   0  0  0  0  0  0  0  0  0  0  0  0
  -40.3957   60.7288   63.5281 P   0  0  0  0  0  0  0  0  0  0  0  0
  -40.7616   61.2059   62.1771 O   0  0  0  0  0  0  0  0  0  0  0  0
  -41.3118   61.0173   64.6579 O   0  0  0  0  0  0  0  0  0  0  0  0
  -42.1913   60.6592   64.4605 H   0  0  0  0  0  0  0  0  0  0  0  0
  -38.9650   61.3323   63.8912 O   0  0  0  0  0  0  0  0  0  0  0  0
  -38.0712   61.7523   62.8400 C   0  0  0  0  0  0  0  0  0  0  0  0
  -35.7900   61.7388   63.5740 O   0  0  0  0  0  0  0  0  0  0  0  0
  -36.9562   62.5596   63.4580 C   0  0  0  0  0  0  0  0  0  0  0  0
  -36.0045   60.9427   64.0849 H   0  0  0  0  0  0  0  0  0  0  0  0
  -36.1993   63.4681   61.3555 O   0  0  0  0  0  0  0  0  0  0  0  0
  -36.6401   63.8048   62.6647 C   0  0  0  0  0  0  0  0  0  0  0  0
  -36.0014   64.2796   60.8623 H   0  0  0  0  0  0  0  0  0  0  0  0
  -41.9736   57.5268   62.4806 O   0  0  0  0  0  0  0  0  0  0  0  0
  -41.2962   55.7282   61.3118 O   0  0  0  0  0  0  0  0  0  0  0  0
  -41.5102   56.9078   61.3779 C   0  0  0  0  0  0  0  0  0  0  0  0
  -41.3118   57.8620   60.2411 C   0  0  0  0  0  0  0  0  0  0  0  0
  -39.8868   57.7989   59.7007 C   0  0  0  0  0  0  0  0  0  0  0  0
  -39.0362   59.0052   60.0633 C   0  0  0  0  0  0  0  0  0  0  0  0
  -37.7446   58.6446   60.7882 C   0  0  0  0  0  0  0  0  0  0  0  0
  -37.8686   57.4462   61.7105 C   0  0  0  0  0  0  0  0  0  0  0  0
  -37.2783   57.6544   63.1080 C   0  0  0  0  0  0  0  0  0  0  0  0
  -35.9940   58.4850   63.1557 C   0  0  0  0  0  0  0  0  0  0  0  0
  -34.8498   57.7959   62.4746 C   0  0  0  0  0  0  0  0  0  0  0  0
  -33.5679   58.0718   62.6157 C   0  0  0  0  0  0  0  0  0  0  0  0
  -32.9852   59.1357   63.4915 C   0  0  0  0  0  0  0  0  0  0  0  0
  -31.6090   59.5922   63.0162 C   0  0  0  0  0  0  0  0  0  0  0  0
  -31.6585   60.5723   61.8571 C   0  0  0  0  0  0  0  0  0  0  0  0
  -31.5440   62.0260   62.2824 C   0  0  0  0  0  0  0  0  0  0  0  0
  -32.8323   62.8222   62.1566 C   0  0  0  0  0  0  0  0  0  0  0  0
  -32.6944   64.0641   61.2892 C   0  0  0  0  0  0  0  0  0  0  0  0
  -33.0130   65.3616   62.0055 C   0  0  0  0  0  0  0  0  0  0  0  0
  -33.2025   65.1775   63.4853 C   0  0  0  0  0  0  0  0  0  0  0  0
 21 22  1  0  0  0
  4  5  2  0  0  0
 25 24  1  0  0  0
 25 26  2  0  0  0
 25 27  1  0  0  0
 25 29  1  0  0  0
 22 20  1  0  0  0
  3  5  1  0  0  0
  3  2  1  0  0  0
 20 19  1  0  0  0
 24 23  1  0  0  0
 19 18  1  0  0  0
 18 17  1  0  0  0
 27 28  1  0  0  0
 17 16  1  0  0  0
 29 30  1  0  0  0
 16 15  1  0  0  0
 34 35  1  0  0  0
 34 36  1  0  0  0
 15 14  1  0  0  0
 31 32  1  0  0  0
 31 33  1  0  0  0
 14 13  1  0  0  0
 37  1  1  0  0  0
 37 39  1  0  0  0
 13 12  1  0  0  0
 38 39  2  0  0  0
 12 11  1  0  0  0
 11 10  1  0  0  0
 10  9  1  0  0  0
  9  8  1  0  0  0
  8  7  1  0  0  0
  7  6  1  0  0  0
  6  5  1  0  0  0
  2  1  1  0  0  0
  1 23  1  0  0  0
 30 32  1  0  0  0
 32 35  1  0  0  0
 39 40  1  0  0  0
 40 41  1  0  0  0
 41 42  1  0  0  0
 42 43  1  0  0  0
 43 44  1  0  0  0
 44 45  1  0  0  0
 45 46  1  0  0  0
 46 47  1  0  0  0
 47 48  2  0  0  0
 48 49  1  0  0  0
 49 50  1  0  0  0
 50 51  1  0  0  0
 51 52  1  0  0  0
 52 53  1  0  0  0
 53 54  1  0  0  0
 54 55  1  0  0  0
 55 56  1  0  0  0
M  CHG 1  26  -1
M  END
> <minimizedAffinity>
-8.30738

> <CNNscore>
0.3631604910

> <CNNaffinity>
7.0325293541

> <CNN_VS>
2.5539367199

> <CNNaffinity_variance>
0.9763234854

$$$$
/media/chris/experiments/cd1a-new-docking/inputs/ligands/7sh4_ligand.pdb


 56 55  0  0  0  0  0  0  0  0999 V2000
  -39.5518   60.4722   65.1398 C   0  0  0  0  0  0  0  0  0  0  0  0
  -39.8916   60.7871   63.7105 C   0  0  0  0  0  0  0  0  0  0  0  0
  -41.1763   61.4396   63.7926 O   0  0  0  0  0  0  0  0  0  0  0  0
  -41.4514   61.2658   61.5805 O   0  0  0  0  0  0  0  0  0  0  0  0
  -41.8962   61.4992   62.6719 C   0  0  0  0  0  0  0  0  0  0  0  0
  -43.3430   61.7690   62.9701 C   0  0  0  0  0  0  0  0  0  0  0  0
  -43.7408   61.4972   64.4111 C   0  0  0  0  0  0  0  0  0  0  0  0
  -45.0922   60.8248   64.5293 C   0  0  0  0  0  0  0  0  0  0  0  0
  -45.2110   59.8749   65.6997 C   0  0  0  0  0  0  0  0  0  0  0  0
  -46.3645   58.9023   65.5597 C   0  0  0  0  0  0  0  0  0  0  0  0
  -47.6305   59.5508   65.0555 C   0  0  0  0  0  0  0  0  0  0  0  0
  -48.6521   59.7687   66.1400 C   0  0  0  0  0  0  0  0  0  0  0  0
  -50.0774   59.7560   65.6335 C   0  0  0  0  0  0  0  0  0  0  0  0
  -50.2980   58.7394   64.5318 C   0  0  0  0  0  0  0  0  0  0  0  0
  -51.0676   59.2744   63.3423 C   0  0  0  0  0  0  0  0  0  0  0  0
  -50.2061   60.0412   62.3456 C   0  0  0  0  0  0  0  0  0  0  0  0
  -49.2894   59.1607   61.5181 C   0  0  0  0  0  0  0  0  0  0  0  0
  -49.5299   59.2747   60.0267 C   0  0  0  0  0  0  0  0  0  0  0  0
  -49.3066   57.9720   59.2713 C   0  0  0  0  0  0  0  0  0  0  0  0
  -47.8645   57.4978   59.2906 C   0  0  0  0  0  0  0  0  0  0  0  0
  -46.9479   58.3570   57.1094 C   0  0  0  0  0  0  0  0  0  0  0  0
  -47.2966   57.1367   57.9310 C   0  0  0  0  0  0  0  0  0  0  0  0
  -38.1007   60.7380   65.4486 C   0  0  0  0  0  0  0  0  0  0  0  0
  -37.8711   62.1643   65.4122 O   0  0  0  0  0  0  0  0  0  0  0  0
  -36.4108   62.8108   65.5196 P   0  0  0  0  0  0  0  0  0  0  0  0
  -36.5661   64.2335   65.8918 O   0  0  0  0  0  0  0  0  0  0  0  0
  -35.5808   61.9355   66.3819 O   0  0  0  0  0  0  0  0  0  0  0  0
  -35.9251   61.9543   67.2884 H   0  0  0  0  0  0  0  0  0  0  0  0
  -35.8132   62.7521   64.0424 O   0  0  0  0  0  0  0  0  0  0  0  0
  -36.6683   63.0005   62.9077 C   0  0  0  0  0  0  0  0  0  0  0  0
  -36.7412   65.3954   62.9501 O   0  0  0  0  0  0  0  0  0  0  0  0
  -36.2119   64.2731   62.2377 C   0  0  0  0  0  0  0  0  0  0  0  0
  -37.7072   65.3219   62.9974 H   0  0  0  0  0  0  0  0  0  0  0  0
  -34.1310   63.0883   61.9461 O   0  0  0  0  0  0  0  0  0  0  0  0
  -34.7075   64.3714   62.1543 C   0  0  0  0  0  0  0  0  0  0  0  0
  -33.1659   63.1719   61.8954 H   0  0  0  0  0  0  0  0  0  0  0  0
  -39.9148   59.0763   65.4037 O   0  0  0  0  0  0  0  0  0  0  0  0
  -41.7983   59.5278   66.5476 O   0  0  0  0  0  0  0  0  0  0  0  0
  -41.1854   58.8366   65.7806 C   0  0  0  0  0  0  0  0  0  0  0  0
  -41.7470   57.6183   65.1155 C   0  0  0  0  0  0  0  0  0  0  0  0
  -42.3854   57.9588   63.7726 C   0  0  0  0  0  0  0  0  0  0  0  0
  -41.8351   57.1536   62.6068 C   0  0  0  0  0  0  0  0  0  0  0  0
  -41.7786   57.9349   61.2991 C   0  0  0  0  0  0  0  0  0  0  0  0
  -41.3891   57.0966   60.0959 C   0  0  0  0  0  0  0  0  0  0  0  0
  -40.4585   57.8002   59.1039 C   0  0  0  0  0  0  0  0  0  0  0  0
  -39.8689   59.1255   59.5913 C   0  0  0  0  0  0  0  0  0  0  0  0
  -38.3705   59.0950   59.6351 C   0  0  0  0  0  0  0  0  0  0  0  0
  -37.6213   58.5142   60.5519 C   0  0  0  0  0  0  0  0  0  0  0  0
  -38.1140   57.7588   61.7457 C   0  0  0  0  0  0  0  0  0  0  0  0
  -37.3583   58.1256   63.0196 C   0  0  0  0  0  0  0  0  0  0  0  0
  -35.9604   57.5362   63.0902 C   0  0  0  0  0  0  0  0  0  0  0  0
  -35.3104   57.6702   64.4565 C   0  0  0  0  0  0  0  0  0  0  0  0
  -34.5615   58.9749   64.6723 C   0  0  0  0  0  0  0  0  0  0  0  0
  -33.0511   58.8040   64.7287 C   0  0  0  0  0  0  0  0  0  0  0  0
  -32.4065   58.5218   63.3861 C   0  0  0  0  0  0  0  0  0  0  0  0
  -31.8371   59.7558   62.7436 C   0  0  0  0  0  0  0  0  0  0  0  0
 21 22  1  0  0  0
  4  5  2  0  0  0
 25 24  1  0  0  0
 25 26  2  0  0  0
 25 27  1  0  0  0
 25 29  1  0  0  0
 22 20  1  0  0  0
  3  5  1  0  0  0
  3  2  1  0  0  0
 20 19  1  0  0  0
 24 23  1  0  0  0
 19 18  1  0  0  0
 18 17  1  0  0  0
 27 28  1  0  0  0
 17 16  1  0  0  0
 29 30  1  0  0  0
 16 15  1  0  0  0
 34 35  1  0  0  0
 34 36  1  0  0  0
 15 14  1  0  0  0
 31 32  1  0  0  0
 31 33  1  0  0  0
 14 13  1  0  0  0
 37  1  1  0  0  0
 37 39  1  0  0  0
 13 12  1  0  0  0
 38 39  2  0  0  0
 12 11  1  0  0  0
 11 10  1  0  0  0
 10  9  1  0  0  0
  9  8  1  0  0  0
  8  7  1  0  0  0
  7  6  1  0  0  0
  6  5  1  0  0  0
  2  1  1  0  0  0
  1 23  1  0  0  0
 30 32  1  0  0  0
 32 35  1  0  0  0
 39 40  1  0  0  0
 40 41  1  0  0  0
 41 42  1  0  0  0
 42 43  1  0  0  0
 43 44  1  0  0  0
 44 45  1  0  0  0
 45 46  1  0  0  0
 46 47  1  0  0  0
 47 48  2  0  0  0
 48 49  1  0  0  0
 49 50  1  0  0  0
 50 51  1  0  0  0
 51 52  1  0  0  0
 52 53  1  0  0  0
 53 54  1  0  0  0
 54 55  1  0  0  0
 55 56  1  0  0  0
M  CHG 1  26  -1
M  END
> <minimizedAffinity>
-8.56112

> <CNNscore>
0.3386035562

> <CNNaffinity>
7.4588913918

> <CNN_VS>
2.5256071091

> <CNNaffinity_variance>
1.4865044355

$$$$
/media/chris/experiments/cd1a-new-docking/inputs/ligands/7sh4_ligand.pdb


 56 55  0  0  0  0  0  0  0  0999 V2000
  -39.0661   60.2323   64.7345 C   0  0  0  0  0  0  0  0  0  0  0  0
  -39.8839   59.2761   65.5559 C   0  0  0  0  0  0  0  0  0  0  0  0
  -39.8631   58.0524   64.7909 O   0  0  0  0  0  0  0  0  0  0  0  0
  -41.1802   57.4679   63.0813 O   0  0  0  0  0  0  0  0  0  0  0  0
  -41.0182   57.6540   64.2572 C   0  0  0  0  0  0  0  0  0  0  0  0
  -42.0330   57.3532   65.3224 C   0  0  0  0  0  0  0  0  0  0  0  0
  -43.4570   57.7258   64.9459 C   0  0  0  0  0  0  0  0  0  0  0  0
  -44.3094   58.0732   66.1480 C   0  0  0  0  0  0  0  0  0  0  0  0
  -44.9897   59.4203   66.0564 C   0  0  0  0  0  0  0  0  0  0  0  0
  -45.4812   59.7431   64.6599 C   0  0  0  0  0  0  0  0  0  0  0  0
  -46.9173   59.3414   64.4280 C   0  0  0  0  0  0  0  0  0  0  0  0
  -47.9031   60.3118   65.0231 C   0  0  0  0  0  0  0  0  0  0  0  0
  -48.8424   59.6757   66.0237 C   0  0  0  0  0  0  0  0  0  0  0  0
  -50.2816   59.6637   65.5500 C   0  0  0  0  0  0  0  0  0  0  0  0
  -50.4974   58.9216   64.2476 C   0  0  0  0  0  0  0  0  0  0  0  0
  -51.1110   59.7774   63.1454 C   0  0  0  0  0  0  0  0  0  0  0  0
  -50.1420   60.1429   62.0374 C   0  0  0  0  0  0  0  0  0  0  0  0
  -49.4695   58.9416   61.4051 C   0  0  0  0  0  0  0  0  0  0  0  0
  -49.2195   59.0980   59.9116 C   0  0  0  0  0  0  0  0  0  0  0  0
  -48.3901   57.9759   59.3134 C   0  0  0  0  0  0  0  0  0  0  0  0
  -47.8955   57.4166   56.9096 C   0  0  0  0  0  0  0  0  0  0  0  0
  -47.6185   58.3538   58.0632 C   0  0  0  0  0  0  0  0  0  0  0  0
  -37.8613   60.7373   65.4863 C   0  0  0  0  0  0  0  0  0  0  0  0
  -37.8155   62.1777   65.3779 O   0  0  0  0  0  0  0  0  0  0  0  0
  -36.4687   63.0199   65.5743 P   0  0  0  0  0  0  0  0  0  0  0  0
  -36.6492   63.9061   66.7442 O   0  0  0  0  0  0  0  0  0  0  0  0
  -35.3273   62.0735   65.5669 O   0  0  0  0  0  0  0  0  0  0  0  0
  -35.3760   61.5020   66.3491 H   0  0  0  0  0  0  0  0  0  0  0  0
  -36.3519   63.9384   64.2759 O   0  0  0  0  0  0  0  0  0  0  0  0
  -36.7725   63.4311   62.9930 C   0  0  0  0  0  0  0  0  0  0  0  0
  -36.5948   65.6835   62.1946 O   0  0  0  0  0  0  0  0  0  0  0  0
  -36.2144   64.3321   61.9190 C   0  0  0  0  0  0  0  0  0  0  0  0
  -37.5605   65.7392   62.2667 H   0  0  0  0  0  0  0  0  0  0  0  0
  -34.2244   63.1371   62.5753 O   0  0  0  0  0  0  0  0  0  0  0  0
  -34.7126   64.2268   61.8033 C   0  0  0  0  0  0  0  0  0  0  0  0
  -33.2596   63.0860   62.4884 H   0  0  0  0  0  0  0  0  0  0  0  0
  -39.9357   61.3315   64.3039 O   0  0  0  0  0  0  0  0  0  0  0  0
  -42.0786   61.0204   63.6945 O   0  0  0  0  0  0  0  0  0  0  0  0
  -40.9090   61.0307   63.4229 C   0  0  0  0  0  0  0  0  0  0  0  0
  -40.3603   60.7297   62.0626 C   0  0  0  0  0  0  0  0  0  0  0  0
  -41.4663   60.6751   61.0135 C   0  0  0  0  0  0  0  0  0  0  0  0
  -40.9956   60.2089   59.6455 C   0  0  0  0  0  0  0  0  0  0  0  0
  -41.2238   58.7224   59.3962 C   0  0  0  0  0  0  0  0  0  0  0  0
  -39.9471   57.9274   59.1955 C   0  0  0  0  0  0  0  0  0  0  0  0
  -38.6848   58.7795   59.0364 C   0  0  0  0  0  0  0  0  0  0  0  0
  -37.6642   58.6500   60.1692 C   0  0  0  0  0  0  0  0  0  0  0  0
  -38.1880   57.8311   61.3107 C   0  0  0  0  0  0  0  0  0  0  0  0
  -37.5281   57.4836   62.3984 C   0  0  0  0  0  0  0  0  0  0  0  0
  -36.1110   57.8379   62.7220 C   0  0  0  0  0  0  0  0  0  0  0  0
  -35.8498   57.8795   64.2248 C   0  0  0  0  0  0  0  0  0  0  0  0
  -34.7816   58.8799   64.6305 C   0  0  0  0  0  0  0  0  0  0  0  0
  -33.4437   58.2423   64.9630 C   0  0  0  0  0  0  0  0  0  0  0  0
  -32.2806   58.7452   64.1240 C   0  0  0  0  0  0  0  0  0  0  0  0
  -32.7137   59.5645   62.9178 C   0  0  0  0  0  0  0  0  0  0  0  0
  -31.8178   60.7497   62.6168 C   0  0  0  0  0  0  0  0  0  0  0  0
  -31.0803   60.6054   61.3149 C   0  0  0  0  0  0  0  0  0  0  0  0
 21 22  1  0  0  0
  4  5  2  0  0  0
 25 24  1  0  0  0
 25 26  2  0  0  0
 25 27  1  0  0  0
 25 29  1  0  0  0
 22 20  1  0  0  0
  3  5  1  0  0  0
  3  2  1  0  0  0
 20 19  1  0  0  0
 24 23  1  0  0  0
 19 18  1  0  0  0
 18 17  1  0  0  0
 27 28  1  0  0  0
 17 16  1  0  0  0
 29 30  1  0  0  0
 16 15  1  0  0  0
 34 35  1  0  0  0
 34 36  1  0  0  0
 15 14  1  0  0  0
 31 32  1  0  0  0
 31 33  1  0  0  0
 14 13  1  0  0  0
 37  1  1  0  0  0
 37 39  1  0  0  0
 13 12  1  0  0  0
 38 39  2  0  0  0
 12 11  1  0  0  0
 11 10  1  0  0  0
 10  9  1  0  0  0
  9  8  1  0  0  0
  8  7  1  0  0  0
  7  6  1  0  0  0
  6  5  1  0  0  0
  2  1  1  0  0  0
  1 23  1  0  0  0
 30 32  1  0  0  0
 32 35  1  0  0  0
 39 40  1  0  0  0
 40 41  1  0  0  0
 41 42  1  0  0  0
 42 43  1  0  0  0
 43 44  1  0  0  0
 44 45  1  0  0  0
 45 46  1  0  0  0
 46 47  1  0  0  0
 47 48  2  0  0  0
 48 49  1  0  0  0
 49 50  1  0  0  0
 50 51  1  0  0  0
 51 52  1  0  0  0
 52 53  1  0  0  0
 53 54  1  0  0  0
 54 55  1  0  0  0
 55 56  1  0  0  0
M  CHG 1  26  -1
M  END
> <minimizedAffinity>
-8.40618

> <CNNscore>
0.3309385478

> <CNNaffinity>
7.4283204079

> <CNN_VS>
2.4583175182

> <CNNaffinity_variance>
0.8751624823

$$$$
/media/chris/experiments/cd1a-new-docking/inputs/ligands/7sh4_ligand.pdb


 56 55  0  0  0  0  0  0  0  0999 V2000
  -40.6005   60.2866   63.5169 C   0  0  0  0  0  0  0  0  0  0  0  0
  -40.5265   59.0623   64.3848 C   0  0  0  0  0  0  0  0  0  0  0  0
  -41.7110   58.3150   64.0361 O   0  0  0  0  0  0  0  0  0  0  0  0
  -41.1534   56.2888   63.2726 O   0  0  0  0  0  0  0  0  0  0  0  0
  -41.5844   57.3937   63.0806 C   0  0  0  0  0  0  0  0  0  0  0  0
  -42.1628   57.8764   61.7815 C   0  0  0  0  0  0  0  0  0  0  0  0
  -41.5146   57.2679   60.5494 C   0  0  0  0  0  0  0  0  0  0  0  0
  -41.1722   58.3007   59.4965 C   0  0  0  0  0  0  0  0  0  0  0  0
  -39.7391   58.2457   59.0180 C   0  0  0  0  0  0  0  0  0  0  0  0
  -38.8482   59.2682   59.6939 C   0  0  0  0  0  0  0  0  0  0  0  0
  -37.7058   58.6469   60.4597 C   0  0  0  0  0  0  0  0  0  0  0  0
  -38.1495   57.5496   61.3907 C   0  0  0  0  0  0  0  0  0  0  0  0
  -37.5147   57.6320   62.7613 C   0  0  0  0  0  0  0  0  0  0  0  0
  -36.2103   58.4031   62.7569 C   0  0  0  0  0  0  0  0  0  0  0  0
  -35.1060   57.7539   63.5647 C   0  0  0  0  0  0  0  0  0  0  0  0
  -33.7182   57.9215   62.9568 C   0  0  0  0  0  0  0  0  0  0  0  0
  -32.7681   58.7428   63.8072 C   0  0  0  0  0  0  0  0  0  0  0  0
  -31.6473   59.3810   63.0125 C   0  0  0  0  0  0  0  0  0  0  0  0
  -32.1340   60.2692   61.8759 C   0  0  0  0  0  0  0  0  0  0  0  0
  -31.2532   61.4814   61.6319 C   0  0  0  0  0  0  0  0  0  0  0  0
  -32.8076   62.9061   63.0066 C   0  0  0  0  0  0  0  0  0  0  0  0
  -31.3698   62.5722   62.6797 C   0  0  0  0  0  0  0  0  0  0  0  0
  -39.2339   60.7784   63.1141 C   0  0  0  0  0  0  0  0  0  0  0  0
  -38.7663   61.7183   64.1073 O   0  0  0  0  0  0  0  0  0  0  0  0
  -37.3061   61.6381   64.7578 P   0  0  0  0  0  0  0  0  0  0  0  0
  -37.2384   60.4117   65.5813 O   0  0  0  0  0  0  0  0  0  0  0  0
  -36.3084   61.8265   63.6771 O   0  0  0  0  0  0  0  0  0  0  0  0
  -36.3471   61.0738   63.0665 H   0  0  0  0  0  0  0  0  0  0  0  0
  -37.2104   62.8930   65.7370 O   0  0  0  0  0  0  0  0  0  0  0  0
  -36.1689   63.8737   65.5535 C   0  0  0  0  0  0  0  0  0  0  0  0
  -36.2498   63.4431   67.9094 O   0  0  0  0  0  0  0  0  0  0  0  0
  -35.5234   64.1382   66.8914 C   0  0  0  0  0  0  0  0  0  0  0  0
  -37.1814   63.7120   67.8826 H   0  0  0  0  0  0  0  0  0  0  0  0
  -33.2585   64.7977   67.3953 O   0  0  0  0  0  0  0  0  0  0  0  0
  -34.0696   63.7314   66.9188 C   0  0  0  0  0  0  0  0  0  0  0  0
  -32.3298   64.5177   67.4055 H   0  0  0  0  0  0  0  0  0  0  0  0
  -41.3567   61.3169   64.2357 O   0  0  0  0  0  0  0  0  0  0  0  0
  -42.9424   61.9328   62.7640 O   0  0  0  0  0  0  0  0  0  0  0  0
  -42.6301   61.5217   63.8480 C   0  0  0  0  0  0  0  0  0  0  0  0
  -43.6083   61.1583   64.9219 C   0  0  0  0  0  0  0  0  0  0  0  0
  -45.0332   61.0936   64.3813 C   0  0  0  0  0  0  0  0  0  0  0  0
  -45.7274   59.7647   64.6311 C   0  0  0  0  0  0  0  0  0  0  0  0
  -46.1959   59.5827   66.0703 C   0  0  0  0  0  0  0  0  0  0  0  0
  -47.5919   59.0015   66.1958 C   0  0  0  0  0  0  0  0  0  0  0  0
  -48.7092   60.0440   66.2932 C   0  0  0  0  0  0  0  0  0  0  0  0
  -50.1158   59.5216   65.9929 C   0  0  0  0  0  0  0  0  0  0  0  0
  -50.8893   60.4559   65.1115 C   0  0  0  0  0  0  0  0  0  0  0  0
  -51.1773   60.2785   63.8368 C   0  0  0  0  0  0  0  0  0  0  0  0
  -50.7909   59.0997   63.0004 C   0  0  0  0  0  0  0  0  0  0  0  0
  -49.4258   59.2755   62.3417 C   0  0  0  0  0  0  0  0  0  0  0  0
  -48.9789   58.0697   61.5338 C   0  0  0  0  0  0  0  0  0  0  0  0
  -50.0733   57.4815   60.6601 C   0  0  0  0  0  0  0  0  0  0  0  0
  -50.0645   57.9743   59.2225 C   0  0  0  0  0  0  0  0  0  0  0  0
  -48.7009   58.4629   58.7582 C   0  0  0  0  0  0  0  0  0  0  0  0
  -48.0727   57.6132   57.6713 C   0  0  0  0  0  0  0  0  0  0  0  0
  -46.7712   58.1762   57.1724 C   0  0  0  0  0  0  0  0  0  0  0  0
 21 22  1  0  0  0
  4  5  2  0  0  0
 25 24  1  0  0  0
 25 26  2  0  0  0
 25 27  1  0  0  0
 25 29  1  0  0  0
 22 20  1  0  0  0
  3  5  1  0  0  0
  3  2  1  0  0  0
 20 19  1  0  0  0
 24 23  1  0  0  0
 19 18  1  0  0  0
 18 17  1  0  0  0
 27 28  1  0  0  0
 17 16  1  0  0  0
 29 30  1  0  0  0
 16 15  1  0  0  0
 34 35  1  0  0  0
 34 36  1  0  0  0
 15 14  1  0  0  0
 31 32  1  0  0  0
 31 33  1  0  0  0
 14 13  1  0  0  0
 37  1  1  0  0  0
 37 39  1  0  0  0
 13 12  1  0  0  0
 38 39  2  0  0  0
 12 11  1  0  0  0
 11 10  1  0  0  0
 10  9  1  0  0  0
  9  8  1  0  0  0
  8  7  1  0  0  0
  7  6  1  0  0  0
  6  5  1  0  0  0
  2  1  1  0  0  0
  1 23  1  0  0  0
 30 32  1  0  0  0
 32 35  1  0  0  0
 39 40  1  0  0  0
 40 41  1  0  0  0
 41 42  1  0  0  0
 42 43  1  0  0  0
 43 44  1  0  0  0
 44 45  1  0  0  0
 45 46  1  0  0  0
 46 47  1  0  0  0
 47 48  2  0  0  0
 48 49  1  0  0  0
 49 50  1  0  0  0
 50 51  1  0  0  0
 51 52  1  0  0  0
 52 53  1  0  0  0
 53 54  1  0  0  0
 54 55  1  0  0  0
 55 56  1  0  0  0
M  CHG 1  26  -1
M  END
> <minimizedAffinity>
-8.87782

> <CNNscore>
0.3294355273

> <CNNaffinity>
7.0563826561

> <CNN_VS>
2.3246231079

> <CNNaffinity_variance>
1.2544460297

$$$$
/media/chris/experiments/cd1a-new-docking/inputs/ligands/7sh4_ligand.pdb


 56 55  0  0  0  0  0  0  0  0999 V2000
  -40.5428   58.9664   63.0341 C   0  0  0  0  0  0  0  0  0  0  0  0
  -40.9338   58.1758   64.2506 C   0  0  0  0  0  0  0  0  0  0  0  0
  -42.3756   58.2402   64.2604 O   0  0  0  0  0  0  0  0  0  0  0  0
  -42.7645   56.0798   64.6856 O   0  0  0  0  0  0  0  0  0  0  0  0
  -43.0208   57.2403   64.8618 C   0  0  0  0  0  0  0  0  0  0  0  0
  -44.0084   57.7588   65.8672 C   0  0  0  0  0  0  0  0  0  0  0  0
  -44.1875   59.2673   65.8402 C   0  0  0  0  0  0  0  0  0  0  0  0
  -45.5842   59.6990   66.2343 C   0  0  0  0  0  0  0  0  0  0  0  0
  -46.4211   60.2130   65.0847 C   0  0  0  0  0  0  0  0  0  0  0  0
  -47.1463   59.1110   64.3394 C   0  0  0  0  0  0  0  0  0  0  0  0
  -48.2248   58.4482   65.1612 C   0  0  0  0  0  0  0  0  0  0  0  0
  -49.1512   59.4348   65.8216 C   0  0  0  0  0  0  0  0  0  0  0  0
  -50.5541   59.4120   65.2564 C   0  0  0  0  0  0  0  0  0  0  0  0
  -50.8033   60.5285   64.2629 C   0  0  0  0  0  0  0  0  0  0  0  0
  -50.9235   60.0626   62.8270 C   0  0  0  0  0  0  0  0  0  0  0  0
  -51.0429   58.5502   62.6781 C   0  0  0  0  0  0  0  0  0  0  0  0
  -50.0171   57.9403   61.7422 C   0  0  0  0  0  0  0  0  0  0  0  0
  -50.2714   58.2556   60.2824 C   0  0  0  0  0  0  0  0  0  0  0  0
  -49.0473   58.7891   59.5512 C   0  0  0  0  0  0  0  0  0  0  0  0
  -48.0932   57.7020   59.0899 C   0  0  0  0  0  0  0  0  0  0  0  0
  -47.0281   56.6067   57.0895 C   0  0  0  0  0  0  0  0  0  0  0  0
  -47.5371   57.8965   57.6920 C   0  0  0  0  0  0  0  0  0  0  0  0
  -40.3072   60.4200   63.3553 C   0  0  0  0  0  0  0  0  0  0  0  0
  -38.9584   60.5742   63.8508 O   0  0  0  0  0  0  0  0  0  0  0  0
  -38.6209   60.7575   65.4046 P   0  0  0  0  0  0  0  0  0  0  0  0
  -39.8795   61.0774   66.1120 O   0  0  0  0  0  0  0  0  0  0  0  0
  -37.8338   59.5816   65.8477 O   0  0  0  0  0  0  0  0  0  0  0  0
  -38.3893   58.7874   65.8089 H   0  0  0  0  0  0  0  0  0  0  0  0
  -37.6743   62.0383   65.4830 O   0  0  0  0  0  0  0  0  0  0  0  0
  -36.3356   61.9153   66.0056 C   0  0  0  0  0  0  0  0  0  0  0  0
  -36.3627   63.7878   67.5009 O   0  0  0  0  0  0  0  0  0  0  0  0
  -35.8022   63.3003   66.2780 C   0  0  0  0  0  0  0  0  0  0  0  0
  -37.3307   63.7627   67.4454 H   0  0  0  0  0  0  0  0  0  0  0  0
  -33.8574   63.6046   67.6723 O   0  0  0  0  0  0  0  0  0  0  0  0
  -34.2942   63.3323   66.3468 C   0  0  0  0  0  0  0  0  0  0  0  0
  -32.8878   63.6211   67.6962 H   0  0  0  0  0  0  0  0  0  0  0  0
  -41.5875   58.7984   62.0191 O   0  0  0  0  0  0  0  0  0  0  0  0
  -41.4266   56.6982   61.2295 O   0  0  0  0  0  0  0  0  0  0  0  0
  -41.3617   57.8846   61.0559 C   0  0  0  0  0  0  0  0  0  0  0  0
  -41.0388   58.5242   59.7410 C   0  0  0  0  0  0  0  0  0  0  0  0
  -39.5965   58.2518   59.3262 C   0  0  0  0  0  0  0  0  0  0  0  0
  -38.5946   59.2453   59.8912 C   0  0  0  0  0  0  0  0  0  0  0  0
  -37.4193   58.5871   60.6048 C   0  0  0  0  0  0  0  0  0  0  0  0
  -37.8239   57.6758   61.7485 C   0  0  0  0  0  0  0  0  0  0  0  0
  -36.8339   57.6418   62.9163 C   0  0  0  0  0  0  0  0  0  0  0  0
  -35.4752   58.2881   62.6377 C   0  0  0  0  0  0  0  0  0  0  0  0
  -35.0504   59.2088   63.7422 C   0  0  0  0  0  0  0  0  0  0  0  0
  -33.8154   59.5596   64.0437 C   0  0  0  0  0  0  0  0  0  0  0  0
  -32.5735   59.1099   63.3407 C   0  0  0  0  0  0  0  0  0  0  0  0
  -32.2534   59.9665   62.1192 C   0  0  0  0  0  0  0  0  0  0  0  0
  -30.9353   60.7131   62.2267 C   0  0  0  0  0  0  0  0  0  0  0  0
  -31.0817   62.2230   62.1494 C   0  0  0  0  0  0  0  0  0  0  0  0
  -31.9847   62.8234   63.2142 C   0  0  0  0  0  0  0  0  0  0  0  0
  -32.2156   64.3169   63.0406 C   0  0  0  0  0  0  0  0  0  0  0  0
  -33.6261   64.6839   62.6240 C   0  0  0  0  0  0  0  0  0  0  0  0
  -34.5817   63.5280   62.7254 C   0  0  0  0  0  0  0  0  0  0  0  0
 21 22  1  0  0  0
  4  5  2  0  0  0
 25 24  1  0  0  0
 25 26  2  0  0  0
 25 27  1  0  0  0
 25 29  1  0  0  0
 22 20  1  0  0  0
  3  5  1  0  0  0
  3  2  1  0  0  0
 20 19  1  0  0  0
 24 23  1  0  0  0
 19 18  1  0  0  0
 18 17  1  0  0  0
 27 28  1  0  0  0
 17 16  1  0  0  0
 29 30  1  0  0  0
 16 15  1  0  0  0
 34 35  1  0  0  0
 34 36  1  0  0  0
 15 14  1  0  0  0
 31 32  1  0  0  0
 31 33  1  0  0  0
 14 13  1  0  0  0
 37  1  1  0  0  0
 37 39  1  0  0  0
 13 12  1  0  0  0
 38 39  2  0  0  0
 12 11  1  0  0  0
 11 10  1  0  0  0
 10  9  1  0  0  0
  9  8  1  0  0  0
  8  7  1  0  0  0
  7  6  1  0  0  0
  6  5  1  0  0  0
  2  1  1  0  0  0
  1 23  1  0  0  0
 30 32  1  0  0  0
 32 35  1  0  0  0
 39 40  1  0  0  0
 40 41  1  0  0  0
 41 42  1  0  0  0
 42 43  1  0  0  0
 43 44  1  0  0  0
 44 45  1  0  0  0
 45 46  1  0  0  0
 46 47  1  0  0  0
 47 48  2  0  0  0
 48 49  1  0  0  0
 49 50  1  0  0  0
 50 51  1  0  0  0
 51 52  1  0  0  0
 52 53  1  0  0  0
 53 54  1  0  0  0
 54 55  1  0  0  0
 55 56  1  0  0  0
M  CHG 1  26  -1
M  END
> <minimizedAffinity>
-8.39060

> <CNNscore>
0.3168007731

> <CNNaffinity>
6.9885582924

> <CNN_VS>
2.2139806747

> <CNNaffinity_variance>
1.2594889402

$$$$
