/media/chris/experiments/cd1a-new-docking/inputs/ligands/7sh4_ligand.pdb


 56 55  0  0  0  0  0  0  0  0999 V2000
  -40.1414   59.6856   65.4107 C   0  0  0  0  0  0  0  0  0  0  0  0
  -40.8067   60.5078   64.3434 C   0  0  0  0  0  0  0  0  0  0  0  0
  -41.8065   61.2646   65.0581 O   0  0  0  0  0  0  0  0  0  0  0  0
  -44.0223   61.3539   65.3434 O   0  0  0  0  0  0  0  0  0  0  0  0
  -43.0682   61.1398   64.6453 C   0  0  0  0  0  0  0  0  0  0  0  0
  -43.1306   60.8240   63.1787 C   0  0  0  0  0  0  0  0  0  0  0  0
  -43.2751   62.0453   62.2865 C   0  0  0  0  0  0  0  0  0  0  0  0
  -42.3233   62.0273   61.1091 C   0  0  0  0  0  0  0  0  0  0  0  0
  -41.3863   60.8409   61.0883 C   0  0  0  0  0  0  0  0  0  0  0  0
  -41.1607   60.2874   59.6959 C   0  0  0  0  0  0  0  0  0  0  0  0
  -40.9031   58.8005   59.6823 C   0  0  0  0  0  0  0  0  0  0  0  0
  -39.6131   58.4330   58.9980 C   0  0  0  0  0  0  0  0  0  0  0  0
  -38.4319   58.3642   59.9405 C   0  0  0  0  0  0  0  0  0  0  0  0
  -38.8474   58.2008   61.3886 C   0  0  0  0  0  0  0  0  0  0  0  0
  -37.8244   57.4888   62.2485 C   0  0  0  0  0  0  0  0  0  0  0  0
  -37.0225   58.4203   63.1504 C   0  0  0  0  0  0  0  0  0  0  0  0
  -36.3022   57.7127   64.2822 C   0  0  0  0  0  0  0  0  0  0  0  0
  -34.8023   57.9260   64.2676 C   0  0  0  0  0  0  0  0  0  0  0  0
  -34.1463   57.5563   62.9445 C   0  0  0  0  0  0  0  0  0  0  0  0
  -33.3861   58.7028   62.3019 C   0  0  0  0  0  0  0  0  0  0  0  0
  -32.1066   60.8381   62.6748 C   0  0  0  0  0  0  0  0  0  0  0  0
  -32.5230   59.5062   63.2563 C   0  0  0  0  0  0  0  0  0  0  0  0
  -38.7691   60.2063   65.7534 C   0  0  0  0  0  0  0  0  0  0  0  0
  -38.4952   61.3674   64.9378 O   0  0  0  0  0  0  0  0  0  0  0  0
  -37.0313   61.9977   64.7898 P   0  0  0  0  0  0  0  0  0  0  0  0
  -36.0716   61.0862   65.4493 O   0  0  0  0  0  0  0  0  0  0  0  0
  -36.8200   62.3441   63.3637 O   0  0  0  0  0  0  0  0  0  0  0  0
  -36.7925   61.5318   62.8342 H   0  0  0  0  0  0  0  0  0  0  0  0
  -37.0703   63.3564   65.6236 O   0  0  0  0  0  0  0  0  0  0  0  0
  -35.9720   64.2872   65.5378 C   0  0  0  0  0  0  0  0  0  0  0  0
  -35.8229   63.2978   67.7153 O   0  0  0  0  0  0  0  0  0  0  0  0
  -35.2468   64.2906   66.8611 C   0  0  0  0  0  0  0  0  0  0  0  0
  -36.7740   63.4639   67.8083 H   0  0  0  0  0  0  0  0  0  0  0  0
  -33.2875   63.1818   67.7271 O   0  0  0  0  0  0  0  0  0  0  0  0
  -33.7648   64.0473   66.7051 C   0  0  0  0  0  0  0  0  0  0  0  0
  -32.3354   63.0377   67.6102 H   0  0  0  0  0  0  0  0  0  0  0  0
  -40.0943   58.2920   64.9574 O   0  0  0  0  0  0  0  0  0  0  0  0
  -41.4970   57.2819   63.5178 O   0  0  0  0  0  0  0  0  0  0  0  0
  -41.2646   57.7229   64.6102 C   0  0  0  0  0  0  0  0  0  0  0  0
  -42.2322   57.6894   65.7524 C   0  0  0  0  0  0  0  0  0  0  0  0
  -43.6067   57.2010   65.3062 C   0  0  0  0  0  0  0  0  0  0  0  0
  -44.7535   57.7323   66.1503 C   0  0  0  0  0  0  0  0  0  0  0  0
  -45.8347   58.4349   65.3372 C   0  0  0  0  0  0  0  0  0  0  0  0
  -46.7746   59.2886   66.1680 C   0  0  0  0  0  0  0  0  0  0  0  0
  -47.6852   60.2112   65.3528 C   0  0  0  0  0  0  0  0  0  0  0  0
  -49.1826   59.9189   65.4705 C   0  0  0  0  0  0  0  0  0  0  0  0
  -49.9764   60.5939   64.3926 C   0  0  0  0  0  0  0  0  0  0  0  0
  -50.6713   60.0038   63.4395 C   0  0  0  0  0  0  0  0  0  0  0  0
  -50.8139   58.5285   63.2356 C   0  0  0  0  0  0  0  0  0  0  0  0
  -50.7430   58.1346   61.7632 C   0  0  0  0  0  0  0  0  0  0  0  0
  -49.5314   58.6958   61.0397 C   0  0  0  0  0  0  0  0  0  0  0  0
  -49.7208   58.8186   59.5377 C   0  0  0  0  0  0  0  0  0  0  0  0
  -48.8885   57.8478   58.7165 C   0  0  0  0  0  0  0  0  0  0  0  0
  -47.6403   58.4770   58.1170 C   0  0  0  0  0  0  0  0  0  0  0  0
  -46.9796   57.6422   57.0380 C   0  0  0  0  0  0  0  0  0  0  0  0
  -47.2189   56.1687   57.2147 C   0  0  0  0  0  0  0  0  0  0  0  0
 21 22  1  0  0  0
  4  5  2  0  0  0
 25 24  1  0  0  0
 25 26  2  0  0  0
 25 27  1  0  0  0
 25 29  1  0  0  0
 22 20  1  0  0  0
  3  5  1  0  0  0
  3  2  1  0  0  0
 20 19  1  0  0  0
 24 23  1  0  0  0
 19 18  1  0  0  0
 18 17  1  0  0  0
 27 28  1  0  0  0
 17 16  1  0  0  0
 29 30  1  0  0  0
 16 15  1  0  0  0
 34 35  1  0  0  0
 34 36  1  0  0  0
 15 14  1  0  0  0
 31 32  1  0  0  0
 31 33  1  0  0  0
 14 13  1  0  0  0
 37  1  1  0  0  0
 37 39  1  0  0  0
 13 12  1  0  0  0
 38 39  2  0  0  0
 12 11  1  0  0  0
 11 10  1  0  0  0
 10  9  1  0  0  0
  9  8  1  0  0  0
  8  7  1  0  0  0
  7  6  1  0  0  0
  6  5  1  0  0  0
  2  1  1  0  0  0
  1 23  1  0  0  0
 30 32  1  0  0  0
 32 35  1  0  0  0
 39 40  1  0  0  0
 40 41  1  0  0  0
 41 42  1  0  0  0
 42 43  1  0  0  0
 43 44  1  0  0  0
 44 45  1  0  0  0
 45 46  1  0  0  0
 46 47  1  0  0  0
 47 48  2  0  0  0
 48 49  1  0  0  0
 49 50  1  0  0  0
 50 51  1  0  0  0
 51 52  1  0  0  0
 52 53  1  0  0  0
 53 54  1  0  0  0
 54 55  1  0  0  0
 55 56  1  0  0  0
M  CHG 1  26  -1
M  END
> <minimizedAffinity>
-8.74394

> <CNNscore>
0.5930619240

> <CNNaffinity>
7.7148079872

> <CNN_VS>
4.5753588676

> <CNNaffinity_variance>
1.0116608143

$$$$
/media/chris/experiments/cd1a-new-docking/inputs/ligands/7sh4_ligand.pdb


 56 55  0  0  0  0  0  0  0  0999 V2000
  -39.7112   60.5631   65.1425 C   0  0  0  0  0  0  0  0  0  0  0  0
  -39.6765   60.5682   63.6403 C   0  0  0  0  0  0  0  0  0  0  0  0
  -40.7040   61.5120   63.2705 O   0  0  0  0  0  0  0  0  0  0  0  0
  -42.6586   61.6860   62.1989 O   0  0  0  0  0  0  0  0  0  0  0  0
  -41.6477   61.0804   62.4333 C   0  0  0  0  0  0  0  0  0  0  0  0
  -41.2223   59.8181   61.7403 C   0  0  0  0  0  0  0  0  0  0  0  0
  -40.8272   60.0115   60.2859 C   0  0  0  0  0  0  0  0  0  0  0  0
  -40.6372   58.7016   59.5508 C   0  0  0  0  0  0  0  0  0  0  0  0
  -39.4601   57.8852   60.0343 C   0  0  0  0  0  0  0  0  0  0  0  0
  -38.1444   58.6318   59.9471 C   0  0  0  0  0  0  0  0  0  0  0  0
  -37.4795   58.8222   61.2885 C   0  0  0  0  0  0  0  0  0  0  0  0
  -37.3104   57.5340   62.0497 C   0  0  0  0  0  0  0  0  0  0  0  0
  -37.9389   57.5626   63.4254 C   0  0  0  0  0  0  0  0  0  0  0  0
  -36.9437   57.9017   64.5165 C   0  0  0  0  0  0  0  0  0  0  0  0
  -35.4965   57.7096   64.1145 C   0  0  0  0  0  0  0  0  0  0  0  0
  -34.5789   58.8443   64.5557 C   0  0  0  0  0  0  0  0  0  0  0  0
  -33.1219   58.6364   64.1890 C   0  0  0  0  0  0  0  0  0  0  0  0
  -32.7527   59.2145   62.8381 C   0  0  0  0  0  0  0  0  0  0  0  0
  -31.3042   59.6735   62.7462 C   0  0  0  0  0  0  0  0  0  0  0  0
  -31.1520   61.1234   62.3217 C   0  0  0  0  0  0  0  0  0  0  0  0
  -32.3335   63.2040   61.5402 C   0  0  0  0  0  0  0  0  0  0  0  0
  -32.4357   61.9311   62.3496 C   0  0  0  0  0  0  0  0  0  0  0  0
  -38.3643   60.8784   65.7410 C   0  0  0  0  0  0  0  0  0  0  0  0
  -37.4795   61.3211   64.6877 O   0  0  0  0  0  0  0  0  0  0  0  0
  -36.7143   62.7264   64.7310 P   0  0  0  0  0  0  0  0  0  0  0  0
  -36.8856   63.3817   63.4165 O   0  0  0  0  0  0  0  0  0  0  0  0
  -37.1481   63.4506   65.9499 O   0  0  0  0  0  0  0  0  0  0  0  0
  -38.0864   63.6839   65.8708 H   0  0  0  0  0  0  0  0  0  0  0  0
  -35.1712   62.3620   64.9007 O   0  0  0  0  0  0  0  0  0  0  0  0
  -34.5051   62.6098   66.1556 C   0  0  0  0  0  0  0  0  0  0  0  0
  -33.5151   64.3457   67.4780 O   0  0  0  0  0  0  0  0  0  0  0  0
  -34.1940   64.0836   66.2462 C   0  0  0  0  0  0  0  0  0  0  0  0
  -34.0560   64.0302   68.2188 H   0  0  0  0  0  0  0  0  0  0  0  0
  -32.0488   64.0355   65.1441 O   0  0  0  0  0  0  0  0  0  0  0  0
  -33.3653   64.5688   65.0810 C   0  0  0  0  0  0  0  0  0  0  0  0
  -31.5328   64.3579   64.3888 H   0  0  0  0  0  0  0  0  0  0  0  0
  -40.2098   59.2582   65.5881 O   0  0  0  0  0  0  0  0  0  0  0  0
  -42.0210   58.1447   64.8532 O   0  0  0  0  0  0  0  0  0  0  0  0
  -41.5354   59.0433   65.4845 C   0  0  0  0  0  0  0  0  0  0  0  0
  -42.3284   60.0458   66.2643 C   0  0  0  0  0  0  0  0  0  0  0  0
  -43.5492   60.5220   65.4834 C   0  0  0  0  0  0  0  0  0  0  0  0
  -44.8434   59.8317   65.8816 C   0  0  0  0  0  0  0  0  0  0  0  0
  -45.7232   59.4543   64.6953 C   0  0  0  0  0  0  0  0  0  0  0  0
  -47.0353   60.2139   64.6341 C   0  0  0  0  0  0  0  0  0  0  0  0
  -47.9642   59.9774   65.8284 C   0  0  0  0  0  0  0  0  0  0  0  0
  -49.1329   59.0251   65.5664 C   0  0  0  0  0  0  0  0  0  0  0  0
  -50.4563   59.7281   65.6142 C   0  0  0  0  0  0  0  0  0  0  0  0
  -51.1345   60.2007   64.5865 C   0  0  0  0  0  0  0  0  0  0  0  0
  -50.7223   60.1314   63.1500 C   0  0  0  0  0  0  0  0  0  0  0  0
  -51.1200   58.8129   62.4929 C   0  0  0  0  0  0  0  0  0  0  0  0
  -49.9413   58.0180   61.9591 C   0  0  0  0  0  0  0  0  0  0  0  0
  -50.1025   57.5855   60.5120 C   0  0  0  0  0  0  0  0  0  0  0  0
  -49.0512   58.1433   59.5671 C   0  0  0  0  0  0  0  0  0  0  0  0
  -47.8251   57.2535   59.4320 C   0  0  0  0  0  0  0  0  0  0  0  0
  -47.1452   57.3322   58.0795 C   0  0  0  0  0  0  0  0  0  0  0  0
  -47.4417   56.1428   57.2095 C   0  0  0  0  0  0  0  0  0  0  0  0
 21 22  1  0  0  0
  4  5  2  0  0  0
 25 24  1  0  0  0
 25 26  2  0  0  0
 25 27  1  0  0  0
 25 29  1  0  0  0
 22 20  1  0  0  0
  3  5  1  0  0  0
  3  2  1  0  0  0
 20 19  1  0  0  0
 24 23  1  0  0  0
 19 18  1  0  0  0
 18 17  1  0  0  0
 27 28  1  0  0  0
 17 16  1  0  0  0
 29 30  1  0  0  0
 16 15  1  0  0  0
 34 35  1  0  0  0
 34 36  1  0  0  0
 15 14  1  0  0  0
 31 32  1  0  0  0
 31 33  1  0  0  0
 14 13  1  0  0  0
 37  1  1  0  0  0
 37 39  1  0  0  0
 13 12  1  0  0  0
 38 39  2  0  0  0
 12 11  1  0  0  0
 11 10  1  0  0  0
 10  9  1  0  0  0
  9  8  1  0  0  0
  8  7  1  0  0  0
  7  6  1  0  0  0
  6  5  1  0  0  0
  2  1  1  0  0  0
  1 23  1  0  0  0
 30 32  1  0  0  0
 32 35  1  0  0  0
 39 40  1  0  0  0
 40 41  1  0  0  0
 41 42  1  0  0  0
 42 43  1  0  0  0
 43 44  1  0  0  0
 44 45  1  0  0  0
 45 46  1  0  0  0
 46 47  1  0  0  0
 47 48  2  0  0  0
 48 49  1  0  0  0
 49 50  1  0  0  0
 50 51  1  0  0  0
 51 52  1  0  0  0
 52 53  1  0  0  0
 53 54  1  0  0  0
 54 55  1  0  0  0
 55 56  1  0  0  0
M  CHG 1  26  -1
M  END
> <minimizedAffinity>
-8.25805

> <CNNscore>
0.5170355439

> <CNNaffinity>
7.4194040298

> <CNN_VS>
3.8360955715

> <CNNaffinity_variance>
1.0202471018

$$$$
/media/chris/experiments/cd1a-new-docking/inputs/ligands/7sh4_ligand.pdb


 56 55  0  0  0  0  0  0  0  0999 V2000
  -36.0866   62.2536   63.7559 C   0  0  0  0  0  0  0  0  0  0  0  0
  -34.8720   61.4907   64.2036 C   0  0  0  0  0  0  0  0  0  0  0  0
  -34.4746   60.7479   63.0317 O   0  0  0  0  0  0  0  0  0  0  0  0
  -32.2805   61.1620   62.9153 O   0  0  0  0  0  0  0  0  0  0  0  0
  -33.1946   60.3831   62.9529 C   0  0  0  0  0  0  0  0  0  0  0  0
  -33.0489   58.8915   63.0444 C   0  0  0  0  0  0  0  0  0  0  0  0
  -32.9100   58.3673   64.4637 C   0  0  0  0  0  0  0  0  0  0  0  0
  -34.2374   57.9715   65.0751 C   0  0  0  0  0  0  0  0  0  0  0  0
  -35.3201   57.6710   64.0635 C   0  0  0  0  0  0  0  0  0  0  0  0
  -36.6899   58.1490   64.5008 C   0  0  0  0  0  0  0  0  0  0  0  0
  -37.7807   57.8079   63.5151 C   0  0  0  0  0  0  0  0  0  0  0  0
  -37.3055   57.8136   62.0863 C   0  0  0  0  0  0  0  0  0  0  0  0
  -37.8945   58.9370   61.2621 C   0  0  0  0  0  0  0  0  0  0  0  0
  -37.6744   58.7493   59.7747 C   0  0  0  0  0  0  0  0  0  0  0  0
  -38.9523   58.6618   58.9670 C   0  0  0  0  0  0  0  0  0  0  0  0
  -40.1745   59.2224   59.6853 C   0  0  0  0  0  0  0  0  0  0  0  0
  -41.3271   58.2428   59.7963 C   0  0  0  0  0  0  0  0  0  0  0  0
  -40.9137   56.8843   60.3242 C   0  0  0  0  0  0  0  0  0  0  0  0
  -41.0324   56.7555   61.8365 C   0  0  0  0  0  0  0  0  0  0  0  0
  -41.8640   57.8529   62.4764 C   0  0  0  0  0  0  0  0  0  0  0  0
  -41.8157   56.3236   64.4750 C   0  0  0  0  0  0  0  0  0  0  0  0
  -42.5259   57.4662   63.7854 C   0  0  0  0  0  0  0  0  0  0  0  0
  -35.7701   63.6962   63.4550 C   0  0  0  0  0  0  0  0  0  0  0  0
  -34.4436   63.7725   62.8867 O   0  0  0  0  0  0  0  0  0  0  0  0
  -33.7269   65.1611   62.5403 P   0  0  0  0  0  0  0  0  0  0  0  0
  -33.2482   65.0932   61.1427 O   0  0  0  0  0  0  0  0  0  0  0  0
  -34.6420   66.2618   62.9271 O   0  0  0  0  0  0  0  0  0  0  0  0
  -35.4286   66.2429   62.3597 H   0  0  0  0  0  0  0  0  0  0  0  0
  -32.4505   65.2272   63.4938 O   0  0  0  0  0  0  0  0  0  0  0  0
  -32.3508   64.3421   64.6281 C   0  0  0  0  0  0  0  0  0  0  0  0
  -32.8006   66.5161   65.5302 O   0  0  0  0  0  0  0  0  0  0  0  0
  -32.6210   65.1404   65.8797 C   0  0  0  0  0  0  0  0  0  0  0  0
  -32.0217   66.8308   65.0453 H   0  0  0  0  0  0  0  0  0  0  0  0
  -33.4459   63.6333   67.5729 O   0  0  0  0  0  0  0  0  0  0  0  0
  -33.8254   64.6333   66.6361 C   0  0  0  0  0  0  0  0  0  0  0  0
  -34.2315   63.3206   68.0481 H   0  0  0  0  0  0  0  0  0  0  0  0
  -37.1170   62.1299   64.7918 O   0  0  0  0  0  0  0  0  0  0  0  0
  -38.7542   61.6236   63.3346 O   0  0  0  0  0  0  0  0  0  0  0  0
  -38.2761   61.5450   64.4332 C   0  0  0  0  0  0  0  0  0  0  0  0
  -38.8860   60.7716   65.5609 C   0  0  0  0  0  0  0  0  0  0  0  0
  -40.2154   60.1442   65.1535 C   0  0  0  0  0  0  0  0  0  0  0  0
  -41.2124   60.0177   66.2937 C   0  0  0  0  0  0  0  0  0  0  0  0
  -42.2375   61.1451   66.3353 C   0  0  0  0  0  0  0  0  0  0  0  0
  -43.5001   60.8605   65.5433 C   0  0  0  0  0  0  0  0  0  0  0  0
  -44.2722   59.6195   66.0002 C   0  0  0  0  0  0  0  0  0  0  0  0
  -45.6549   59.4433   65.3690 C   0  0  0  0  0  0  0  0  0  0  0  0
  -46.7464   59.9941   66.2369 C   0  0  0  0  0  0  0  0  0  0  0  0
  -48.0426   59.7996   66.0904 C   0  0  0  0  0  0  0  0  0  0  0  0
  -48.6973   58.9822   65.0219 C   0  0  0  0  0  0  0  0  0  0  0  0
  -49.5085   59.8353   64.0510 C   0  0  0  0  0  0  0  0  0  0  0  0
  -50.7583   59.1462   63.5319 C   0  0  0  0  0  0  0  0  0  0  0  0
  -50.6273   58.6385   62.1063 C   0  0  0  0  0  0  0  0  0  0  0  0
  -49.6412   59.4150   61.2494 C   0  0  0  0  0  0  0  0  0  0  0  0
  -49.6778   59.0247   59.7797 C   0  0  0  0  0  0  0  0  0  0  0  0
  -48.7555   57.8776   59.4175 C   0  0  0  0  0  0  0  0  0  0  0  0
  -47.7998   58.2271   58.3112 C   0  0  0  0  0  0  0  0  0  0  0  0
 21 22  1  0  0  0
  4  5  2  0  0  0
 25 24  1  0  0  0
 25 26  2  0  0  0
 25 27  1  0  0  0
 25 29  1  0  0  0
 22 20  1  0  0  0
  3  5  1  0  0  0
  3  2  1  0  0  0
 20 19  1  0  0  0
 24 23  1  0  0  0
 19 18  1  0  0  0
 18 17  1  0  0  0
 27 28  1  0  0  0
 17 16  1  0  0  0
 29 30  1  0  0  0
 16 15  1  0  0  0
 34 35  1  0  0  0
 34 36  1  0  0  0
 15 14  1  0  0  0
 31 32  1  0  0  0
 31 33  1  0  0  0
 14 13  1  0  0  0
 37  1  1  0  0  0
 37 39  1  0  0  0
 13 12  1  0  0  0
 38 39  2  0  0  0
 12 11  1  0  0  0
 11 10  1  0  0  0
 10  9  1  0  0  0
  9  8  1  0  0  0
  8  7  1  0  0  0
  7  6  1  0  0  0
  6  5  1  0  0  0
  2  1  1  0  0  0
  1 23  1  0  0  0
 30 32  1  0  0  0
 32 35  1  0  0  0
 39 40  1  0  0  0
 40 41  1  0  0  0
 41 42  1  0  0  0
 42 43  1  0  0  0
 43 44  1  0  0  0
 44 45  1  0  0  0
 45 46  1  0  0  0
 46 47  1  0  0  0
 47 48  2  0  0  0
 48 49  1  0  0  0
 49 50  1  0  0  0
 50 51  1  0  0  0
 51 52  1  0  0  0
 52 53  1  0  0  0
 53 54  1  0  0  0
 54 55  1  0  0  0
 55 56  1  0  0  0
M  CHG 1  26  -1
M  END
> <minimizedAffinity>
-7.83295

> <CNNscore>
0.4513724744

> <CNNaffinity>
7.3905439377

> <CNN_VS>
3.3358881474

> <CNNaffinity_variance>
1.1068714857

$$$$
/media/chris/experiments/cd1a-new-docking/inputs/ligands/7sh4_ligand.pdb


 56 55  0  0  0  0  0  0  0  0999 V2000
  -38.6865   61.2165   65.1502 C   0  0  0  0  0  0  0  0  0  0  0  0
  -38.3436   61.6379   63.7493 C   0  0  0  0  0  0  0  0  0  0  0  0
  -39.2732   60.9023   62.9259 O   0  0  0  0  0  0  0  0  0  0  0  0
  -37.8054   60.8406   61.2404 O   0  0  0  0  0  0  0  0  0  0  0  0
  -38.9236   60.6969   61.6557 C   0  0  0  0  0  0  0  0  0  0  0  0
  -40.0720   60.1487   60.8587 C   0  0  0  0  0  0  0  0  0  0  0  0
  -39.6573   59.4308   59.5855 C   0  0  0  0  0  0  0  0  0  0  0  0
  -40.5069   58.2113   59.2967 C   0  0  0  0  0  0  0  0  0  0  0  0
  -41.4536   57.8372   60.4146 C   0  0  0  0  0  0  0  0  0  0  0  0
  -41.4441   56.3549   60.7289 C   0  0  0  0  0  0  0  0  0  0  0  0
  -40.7044   56.0224   62.0016 C   0  0  0  0  0  0  0  0  0  0  0  0
  -40.4383   57.2304   62.8604 C   0  0  0  0  0  0  0  0  0  0  0  0
  -38.9734   57.4269   63.1826 C   0  0  0  0  0  0  0  0  0  0  0  0
  -38.0717   57.1579   61.9949 C   0  0  0  0  0  0  0  0  0  0  0  0
  -36.7241   57.8443   62.0740 C   0  0  0  0  0  0  0  0  0  0  0  0
  -36.1584   57.9295   63.4871 C   0  0  0  0  0  0  0  0  0  0  0  0
  -35.1543   59.0494   63.6822 C   0  0  0  0  0  0  0  0  0  0  0  0
  -34.1930   58.8033   64.8271 C   0  0  0  0  0  0  0  0  0  0  0  0
  -32.7466   58.6343   64.3836 C   0  0  0  0  0  0  0  0  0  0  0  0
  -32.5203   58.9491   62.9156 C   0  0  0  0  0  0  0  0  0  0  0  0
  -31.7677   61.1898   62.0504 C   0  0  0  0  0  0  0  0  0  0  0  0
  -31.3420   59.8628   62.6366 C   0  0  0  0  0  0  0  0  0  0  0  0
  -37.4803   60.7148   65.9018 C   0  0  0  0  0  0  0  0  0  0  0  0
  -37.0645   61.7288   66.8439 O   0  0  0  0  0  0  0  0  0  0  0  0
  -35.9973   62.8651   66.4805 P   0  0  0  0  0  0  0  0  0  0  0  0
  -36.7381   64.1078   66.1743 O   0  0  0  0  0  0  0  0  0  0  0  0
  -34.9706   62.8929   67.5499 O   0  0  0  0  0  0  0  0  0  0  0  0
  -35.3754   63.1919   68.3792 H   0  0  0  0  0  0  0  0  0  0  0  0
  -35.2934   62.3697   65.1382 O   0  0  0  0  0  0  0  0  0  0  0  0
  -34.0192   62.9199   64.7463 C   0  0  0  0  0  0  0  0  0  0  0  0
  -33.0734   64.3599   63.0806 O   0  0  0  0  0  0  0  0  0  0  0  0
  -34.2685   64.0821   63.8167 C   0  0  0  0  0  0  0  0  0  0  0  0
  -32.3438   64.5234   63.6985 H   0  0  0  0  0  0  0  0  0  0  0  0
  -36.5377   64.6296   63.2091 O   0  0  0  0  0  0  0  0  0  0  0  0
  -35.4159   63.8248   62.8695 C   0  0  0  0  0  0  0  0  0  0  0  0
  -37.2631   64.4505   62.5906 H   0  0  0  0  0  0  0  0  0  0  0  0
  -39.7425   60.2016   65.0814 O   0  0  0  0  0  0  0  0  0  0  0  0
  -41.1200   61.3906   66.4040 O   0  0  0  0  0  0  0  0  0  0  0  0
  -40.9501   60.5427   65.5709 C   0  0  0  0  0  0  0  0  0  0  0  0
  -42.0543   59.7528   64.9396 C   0  0  0  0  0  0  0  0  0  0  0  0
  -42.6201   58.7144   65.9033 C   0  0  0  0  0  0  0  0  0  0  0  0
  -44.1386   58.6891   65.9601 C   0  0  0  0  0  0  0  0  0  0  0  0
  -44.7892   59.9729   65.4578 C   0  0  0  0  0  0  0  0  0  0  0  0
  -46.2946   60.0150   65.6429 C   0  0  0  0  0  0  0  0  0  0  0  0
  -47.1006   59.7042   64.3785 C   0  0  0  0  0  0  0  0  0  0  0  0
  -48.1786   60.7307   64.0241 C   0  0  0  0  0  0  0  0  0  0  0  0
  -49.4258   60.5430   64.8348 C   0  0  0  0  0  0  0  0  0  0  0  0
  -50.6288   60.2595   64.3745 C   0  0  0  0  0  0  0  0  0  0  0  0
  -51.0010   60.0636   62.9388 C   0  0  0  0  0  0  0  0  0  0  0  0
  -51.0381   58.5905   62.5426 C   0  0  0  0  0  0  0  0  0  0  0  0
  -49.7222   58.0756   61.9862 C   0  0  0  0  0  0  0  0  0  0  0  0
  -49.8844   57.1592   60.7858 C   0  0  0  0  0  0  0  0  0  0  0  0
  -49.9101   57.8753   59.4457 C   0  0  0  0  0  0  0  0  0  0  0  0
  -48.5430   58.3669   58.9954 C   0  0  0  0  0  0  0  0  0  0  0  0
  -48.1911   58.0042   57.5663 C   0  0  0  0  0  0  0  0  0  0  0  0
  -46.7258   57.7249   57.3813 C   0  0  0  0  0  0  0  0  0  0  0  0
 21 22  1  0  0  0
  4  5  2  0  0  0
 25 24  1  0  0  0
 25 26  2  0  0  0
 25 27  1  0  0  0
 25 29  1  0  0  0
 22 20  1  0  0  0
  3  5  1  0  0  0
  3  2  1  0  0  0
 20 19  1  0  0  0
 24 23  1  0  0  0
 19 18  1  0  0  0
 18 17  1  0  0  0
 27 28  1  0  0  0
 17 16  1  0  0  0
 29 30  1  0  0  0
 16 15  1  0  0  0
 34 35  1  0  0  0
 34 36  1  0  0  0
 15 14  1  0  0  0
 31 32  1  0  0  0
 31 33  1  0  0  0
 14 13  1  0  0  0
 37  1  1  0  0  0
 37 39  1  0  0  0
 13 12  1  0  0  0
 38 39  2  0  0  0
 12 11  1  0  0  0
 11 10  1  0  0  0
 10  9  1  0  0  0
  9  8  1  0  0  0
  8  7  1  0  0  0
  7  6  1  0  0  0
  6  5  1  0  0  0
  2  1  1  0  0  0
  1 23  1  0  0  0
 30 32  1  0  0  0
 32 35  1  0  0  0
 39 40  1  0  0  0
 40 41  1  0  0  0
 41 42  1  0  0  0
 42 43  1  0  0  0
 43 44  1  0  0  0
 44 45  1  0  0  0
 45 46  1  0  0  0
 46 47  1  0  0  0
 47 48  2  0  0  0
 48 49  1  0  0  0
 49 50  1  0  0  0
 50 51  1  0  0  0
 51 52  1  0  0  0
 52 53  1  0  0  0
 53 54  1  0  0  0
 54 55  1  0  0  0
 55 56  1  0  0  0
M  CHG 1  26  -1
M  END
> <minimizedAffinity>
-8.25653

> <CNNscore>
0.4187417328

> <CNNaffinity>
7.4519958496

> <CNN_VS>
3.1204617023

> <CNNaffinity_variance>
0.8224692345

$$$$
/media/chris/experiments/cd1a-new-docking/inputs/ligands/7sh4_ligand.pdb


 56 55  0  0  0  0  0  0  0  0999 V2000
  -39.8469   60.6056   64.8031 C   0  0  0  0  0  0  0  0  0  0  0  0
  -40.3878   60.5979   63.4013 C   0  0  0  0  0  0  0  0  0  0  0  0
  -41.3253   61.6952   63.3827 O   0  0  0  0  0  0  0  0  0  0  0  0
  -42.5409   61.9883   61.5292 O   0  0  0  0  0  0  0  0  0  0  0  0
  -42.4205   61.5415   62.6381 C   0  0  0  0  0  0  0  0  0  0  0  0
  -43.4146   60.6419   63.3142 C   0  0  0  0  0  0  0  0  0  0  0  0
  -44.4154   61.3725   64.1933 C   0  0  0  0  0  0  0  0  0  0  0  0
  -45.1847   60.4405   65.1055 C   0  0  0  0  0  0  0  0  0  0  0  0
  -45.8049   59.2559   64.3999 C   0  0  0  0  0  0  0  0  0  0  0  0
  -47.2193   58.9654   64.8596 C   0  0  0  0  0  0  0  0  0  0  0  0
  -47.5116   59.4845   66.2462 C   0  0  0  0  0  0  0  0  0  0  0  0
  -48.8555   60.1554   66.3522 C   0  0  0  0  0  0  0  0  0  0  0  0
  -49.9936   59.3052   65.8324 C   0  0  0  0  0  0  0  0  0  0  0  0
  -50.8610   60.0383   64.8292 C   0  0  0  0  0  0  0  0  0  0  0  0
  -50.7396   59.5195   63.4117 C   0  0  0  0  0  0  0  0  0  0  0  0
  -49.6955   60.2507   62.5755 C   0  0  0  0  0  0  0  0  0  0  0  0
  -49.7382   59.9075   61.0987 C   0  0  0  0  0  0  0  0  0  0  0  0
  -50.0897   58.4590   60.8273 C   0  0  0  0  0  0  0  0  0  0  0  0
  -49.7543   58.0044   59.4137 C   0  0  0  0  0  0  0  0  0  0  0  0
  -48.4547   58.5819   58.8819 C   0  0  0  0  0  0  0  0  0  0  0  0
  -46.7768   58.1000   57.0686 C   0  0  0  0  0  0  0  0  0  0  0  0
  -47.5071   57.5626   58.2784 C   0  0  0  0  0  0  0  0  0  0  0  0
  -38.3419   60.6825   64.8288 C   0  0  0  0  0  0  0  0  0  0  0  0
  -37.9432   62.0581   64.6360 O   0  0  0  0  0  0  0  0  0  0  0  0
  -36.8926   62.5078   63.5153 P   0  0  0  0  0  0  0  0  0  0  0  0
  -37.2236   61.7925   62.2640 O   0  0  0  0  0  0  0  0  0  0  0  0
  -36.8431   63.9895   63.4970 O   0  0  0  0  0  0  0  0  0  0  0  0
  -37.6947   64.3378   63.1894 H   0  0  0  0  0  0  0  0  0  0  0  0
  -35.4780   61.9766   64.0250 O   0  0  0  0  0  0  0  0  0  0  0  0
  -34.5719   62.8722   64.7007 C   0  0  0  0  0  0  0  0  0  0  0  0
  -33.7003   62.4455   66.8918 O   0  0  0  0  0  0  0  0  0  0  0  0
  -34.8779   62.8336   66.1778 C   0  0  0  0  0  0  0  0  0  0  0  0
  -33.3821   61.5945   66.5521 H   0  0  0  0  0  0  0  0  0  0  0  0
  -36.8050   64.2213   66.6008 O   0  0  0  0  0  0  0  0  0  0  0  0
  -35.3877   64.1577   66.6941 C   0  0  0  0  0  0  0  0  0  0  0  0
  -37.1131   65.0776   66.9365 H   0  0  0  0  0  0  0  0  0  0  0  0
  -40.3400   59.4103   65.4946 O   0  0  0  0  0  0  0  0  0  0  0  0
  -41.8640   60.5524   66.6919 O   0  0  0  0  0  0  0  0  0  0  0  0
  -41.4949   59.5324   66.1769 C   0  0  0  0  0  0  0  0  0  0  0  0
  -42.2702   58.2517   66.2003 C   0  0  0  0  0  0  0  0  0  0  0  0
  -42.4979   57.7105   64.7924 C   0  0  0  0  0  0  0  0  0  0  0  0
  -42.2023   56.2268   64.6470 C   0  0  0  0  0  0  0  0  0  0  0  0
  -41.6723   55.8427   63.2703 C   0  0  0  0  0  0  0  0  0  0  0  0
  -41.1515   57.0154   62.4605 C   0  0  0  0  0  0  0  0  0  0  0  0
  -41.4005   56.9090   60.9532 C   0  0  0  0  0  0  0  0  0  0  0  0
  -41.2417   58.2155   60.1727 C   0  0  0  0  0  0  0  0  0  0  0  0
  -40.2891   58.0749   59.0235 C   0  0  0  0  0  0  0  0  0  0  0  0
  -39.0759   58.5852   58.9395 C   0  0  0  0  0  0  0  0  0  0  0  0
  -38.3931   59.4146   59.9808 C   0  0  0  0  0  0  0  0  0  0  0  0
  -37.3082   58.6399   60.7232 C   0  0  0  0  0  0  0  0  0  0  0  0
  -37.8529   57.6105   61.6978 C   0  0  0  0  0  0  0  0  0  0  0  0
  -37.3255   57.7716   63.1131 C   0  0  0  0  0  0  0  0  0  0  0  0
  -35.8400   57.4904   63.2674 C   0  0  0  0  0  0  0  0  0  0  0  0
  -35.1934   58.2597   64.4091 C   0  0  0  0  0  0  0  0  0  0  0  0
  -33.8066   58.7864   64.0975 C   0  0  0  0  0  0  0  0  0  0  0  0
  -33.5180   58.8278   62.6229 C   0  0  0  0  0  0  0  0  0  0  0  0
 21 22  1  0  0  0
  4  5  2  0  0  0
 25 24  1  0  0  0
 25 26  2  0  0  0
 25 27  1  0  0  0
 25 29  1  0  0  0
 22 20  1  0  0  0
  3  5  1  0  0  0
  3  2  1  0  0  0
 20 19  1  0  0  0
 24 23  1  0  0  0
 19 18  1  0  0  0
 18 17  1  0  0  0
 27 28  1  0  0  0
 17 16  1  0  0  0
 29 30  1  0  0  0
 16 15  1  0  0  0
 34 35  1  0  0  0
 34 36  1  0  0  0
 15 14  1  0  0  0
 31 32  1  0  0  0
 31 33  1  0  0  0
 14 13  1  0  0  0
 37  1  1  0  0  0
 37 39  1  0  0  0
 13 12  1  0  0  0
 38 39  2  0  0  0
 12 11  1  0  0  0
 11 10  1  0  0  0
 10  9  1  0  0  0
  9  8  1  0  0  0
  8  7  1  0  0  0
  7  6  1  0  0  0
  6  5  1  0  0  0
  2  1  1  0  0  0
  1 23  1  0  0  0
 30 32  1  0  0  0
 32 35  1  0  0  0
 39 40  1  0  0  0
 40 41  1  0  0  0
 41 42  1  0  0  0
 42 43  1  0  0  0
 43 44  1  0  0  0
 44 45  1  0  0  0
 45 46  1  0  0  0
 46 47  1  0  0  0
 47 48  2  0  0  0
 48 49  1  0  0  0
 49 50  1  0  0  0
 50 51  1  0  0  0
 51 52  1  0  0  0
 52 53  1  0  0  0
 53 54  1  0  0  0
 54 55  1  0  0  0
 55 56  1  0  0  0
M  CHG 1  26  -1
M  END
> <minimizedAffinity>
-8.81031

> <CNNscore>
0.3947895467

> <CNNaffinity>
7.5272445679

> <CNN_VS>
2.9716775417

> <CNNaffinity_variance>
2.1047763824

$$$$
/media/chris/experiments/cd1a-new-docking/inputs/ligands/7sh4_ligand.pdb


 56 55  0  0  0  0  0  0  0  0999 V2000
  -41.8902   57.0200   64.5685 C   0  0  0  0  0  0  0  0  0  0  0  0
  -43.1157   57.8652   64.7717 C   0  0  0  0  0  0  0  0  0  0  0  0
  -43.5751   57.5028   66.0911 O   0  0  0  0  0  0  0  0  0  0  0  0
  -45.3976   57.3555   67.3779 O   0  0  0  0  0  0  0  0  0  0  0  0
  -44.8671   57.6987   66.3560 C   0  0  0  0  0  0  0  0  0  0  0  0
  -45.5263   58.5056   65.2748 C   0  0  0  0  0  0  0  0  0  0  0  0
  -46.2855   59.7200   65.7822 C   0  0  0  0  0  0  0  0  0  0  0  0
  -47.7212   59.4045   66.1452 C   0  0  0  0  0  0  0  0  0  0  0  0
  -48.2716   58.1661   65.4750 C   0  0  0  0  0  0  0  0  0  0  0  0
  -49.7736   58.2145   65.2806 C   0  0  0  0  0  0  0  0  0  0  0  0
  -50.3909   59.5113   65.7440 C   0  0  0  0  0  0  0  0  0  0  0  0
  -50.8878   60.3655   64.6079 C   0  0  0  0  0  0  0  0  0  0  0  0
  -49.9163   60.4510   63.4516 C   0  0  0  0  0  0  0  0  0  0  0  0
  -50.5292   60.0089   62.1382 C   0  0  0  0  0  0  0  0  0  0  0  0
  -51.0270   58.5788   62.1389 C   0  0  0  0  0  0  0  0  0  0  0  0
  -50.7729   57.8375   60.8311 C   0  0  0  0  0  0  0  0  0  0  0  0
  -49.5497   56.9412   60.8586 C   0  0  0  0  0  0  0  0  0  0  0  0
  -48.3154   57.5889   60.2650 C   0  0  0  0  0  0  0  0  0  0  0  0
  -48.6188   58.5435   59.1186 C   0  0  0  0  0  0  0  0  0  0  0  0
  -47.6178   58.4632   57.9799 C   0  0  0  0  0  0  0  0  0  0  0  0
  -47.1947   56.1208   57.1615 C   0  0  0  0  0  0  0  0  0  0  0  0
  -47.9357   57.4177   56.9277 C   0  0  0  0  0  0  0  0  0  0  0  0
  -40.6340   57.8504   64.5043 C   0  0  0  0  0  0  0  0  0  0  0  0
  -40.7419   58.9314   65.4572 O   0  0  0  0  0  0  0  0  0  0  0  0
  -40.3928   60.4497   65.0899 P   0  0  0  0  0  0  0  0  0  0  0  0
  -41.3967   60.9272   64.1147 O   0  0  0  0  0  0  0  0  0  0  0  0
  -40.2151   61.2016   66.3554 O   0  0  0  0  0  0  0  0  0  0  0  0
  -41.0629   61.2508   66.8241 H   0  0  0  0  0  0  0  0  0  0  0  0
  -38.9803   60.3917   64.3520 O   0  0  0  0  0  0  0  0  0  0  0  0
  -38.6781   61.3281   63.2977 C   0  0  0  0  0  0  0  0  0  0  0  0
  -37.2347   63.2359   63.1585 O   0  0  0  0  0  0  0  0  0  0  0  0
  -37.2786   61.8501   63.5116 C   0  0  0  0  0  0  0  0  0  0  0  0
  -37.5408   63.3465   62.2448 H   0  0  0  0  0  0  0  0  0  0  0  0
  -37.4984   62.5321   65.8149 O   0  0  0  0  0  0  0  0  0  0  0  0
  -36.8049   61.6592   64.9325 C   0  0  0  0  0  0  0  0  0  0  0  0
  -37.1810   62.3950   66.7211 H   0  0  0  0  0  0  0  0  0  0  0  0
  -42.0756   56.2232   63.3517 O   0  0  0  0  0  0  0  0  0  0  0  0
  -40.2948   56.0462   61.9886 O   0  0  0  0  0  0  0  0  0  0  0  0
  -41.3374   56.5666   62.2787 C   0  0  0  0  0  0  0  0  0  0  0  0
  -41.9803   57.6596   61.4825 C   0  0  0  0  0  0  0  0  0  0  0  0
  -41.2123   57.9385   60.1944 C   0  0  0  0  0  0  0  0  0  0  0  0
  -40.6295   59.3399   60.1154 C   0  0  0  0  0  0  0  0  0  0  0  0
  -39.2057   59.3785   59.5722 C   0  0  0  0  0  0  0  0  0  0  0  0
  -38.3090   58.2804   60.1131 C   0  0  0  0  0  0  0  0  0  0  0  0
  -37.4822   58.6795   61.3387 C   0  0  0  0  0  0  0  0  0  0  0  0
  -37.3317   57.5926   62.4052 C   0  0  0  0  0  0  0  0  0  0  0  0
  -36.5419   58.0671   63.5880 C   0  0  0  0  0  0  0  0  0  0  0  0
  -35.2285   58.1482   63.6766 C   0  0  0  0  0  0  0  0  0  0  0  0
  -34.2475   57.7825   62.6078 C   0  0  0  0  0  0  0  0  0  0  0  0
  -32.8014   57.9849   63.0506 C   0  0  0  0  0  0  0  0  0  0  0  0
  -32.4770   59.4173   63.4367 C   0  0  0  0  0  0  0  0  0  0  0  0
  -32.1121   60.2997   62.2554 C   0  0  0  0  0  0  0  0  0  0  0  0
  -30.9280   61.2206   62.4993 C   0  0  0  0  0  0  0  0  0  0  0  0
  -31.3079   62.6922   62.5601 C   0  0  0  0  0  0  0  0  0  0  0  0
  -31.8850   63.2395   61.2697 C   0  0  0  0  0  0  0  0  0  0  0  0
  -33.2821   63.7686   61.4360 C   0  0  0  0  0  0  0  0  0  0  0  0
 21 22  1  0  0  0
  4  5  2  0  0  0
 25 24  1  0  0  0
 25 26  2  0  0  0
 25 27  1  0  0  0
 25 29  1  0  0  0
 22 20  1  0  0  0
  3  5  1  0  0  0
  3  2  1  0  0  0
 20 19  1  0  0  0
 24 23  1  0  0  0
 19 18  1  0  0  0
 18 17  1  0  0  0
 27 28  1  0  0  0
 17 16  1  0  0  0
 29 30  1  0  0  0
 16 15  1  0  0  0
 34 35  1  0  0  0
 34 36  1  0  0  0
 15 14  1  0  0  0
 31 32  1  0  0  0
 31 33  1  0  0  0
 14 13  1  0  0  0
 37  1  1  0  0  0
 37 39  1  0  0  0
 13 12  1  0  0  0
 38 39  2  0  0  0
 12 11  1  0  0  0
 11 10  1  0  0  0
 10  9  1  0  0  0
  9  8  1  0  0  0
  8  7  1  0  0  0
  7  6  1  0  0  0
  6  5  1  0  0  0
  2  1  1  0  0  0
  1 23  1  0  0  0
 30 32  1  0  0  0
 32 35  1  0  0  0
 39 40  1  0  0  0
 40 41  1  0  0  0
 41 42  1  0  0  0
 42 43  1  0  0  0
 43 44  1  0  0  0
 44 45  1  0  0  0
 45 46  1  0  0  0
 46 47  1  0  0  0
 47 48  2  0  0  0
 48 49  1  0  0  0
 49 50  1  0  0  0
 50 51  1  0  0  0
 51 52  1  0  0  0
 52 53  1  0  0  0
 53 54  1  0  0  0
 54 55  1  0  0  0
 55 56  1  0  0  0
M  CHG 1  26  -1
M  END
> <minimizedAffinity>
-8.47547

> <CNNscore>
0.3911139667

> <CNNaffinity>
7.3805704117

> <CNN_VS>
2.8866441250

> <CNNaffinity_variance>
0.8930538297

$$$$
/media/chris/experiments/cd1a-new-docking/inputs/ligands/7sh4_ligand.pdb


 56 55  0  0  0  0  0  0  0  0999 V2000
  -40.5215   59.5450   63.2211 C   0  0  0  0  0  0  0  0  0  0  0  0
  -41.0494   59.2256   64.5911 C   0  0  0  0  0  0  0  0  0  0  0  0
  -40.9085   57.7929   64.6944 O   0  0  0  0  0  0  0  0  0  0  0  0
  -42.2541   56.0179   64.4995 O   0  0  0  0  0  0  0  0  0  0  0  0
  -42.0108   57.0958   64.9714 C   0  0  0  0  0  0  0  0  0  0  0  0
  -42.8293   57.7736   66.0321 C   0  0  0  0  0  0  0  0  0  0  0  0
  -44.3181   57.8194   65.7325 C   0  0  0  0  0  0  0  0  0  0  0  0
  -44.9977   59.0369   66.3228 C   0  0  0  0  0  0  0  0  0  0  0  0
  -45.7321   59.8875   65.3113 C   0  0  0  0  0  0  0  0  0  0  0  0
  -46.9193   59.1793   64.6908 C   0  0  0  0  0  0  0  0  0  0  0  0
  -47.9722   58.7897   65.6995 C   0  0  0  0  0  0  0  0  0  0  0  0
  -48.9830   59.8784   65.9453 C   0  0  0  0  0  0  0  0  0  0  0  0
  -50.3573   59.5554   65.4019 C   0  0  0  0  0  0  0  0  0  0  0  0
  -50.8204   60.5474   64.3541 C   0  0  0  0  0  0  0  0  0  0  0  0
  -51.1644   59.9208   63.0192 C   0  0  0  0  0  0  0  0  0  0  0  0
  -50.6781   58.4837   62.8696 C   0  0  0  0  0  0  0  0  0  0  0  0
  -49.7058   58.2784   61.7239 C   0  0  0  0  0  0  0  0  0  0  0  0
  -50.3097   57.5397   60.5470 C   0  0  0  0  0  0  0  0  0  0  0  0
  -49.7887   58.0131   59.1972 C   0  0  0  0  0  0  0  0  0  0  0  0
  -48.3020   58.3216   59.1938 C   0  0  0  0  0  0  0  0  0  0  0  0
  -46.9847   58.3608   57.0493 C   0  0  0  0  0  0  0  0  0  0  0  0
  -47.4889   57.5166   58.1977 C   0  0  0  0  0  0  0  0  0  0  0  0
  -39.8905   60.9125   63.1622 C   0  0  0  0  0  0  0  0  0  0  0  0
  -39.3005   61.2083   64.4479 O   0  0  0  0  0  0  0  0  0  0  0  0
  -37.7184   61.2464   64.6881 P   0  0  0  0  0  0  0  0  0  0  0  0
  -37.3217   59.9738   65.3282 O   0  0  0  0  0  0  0  0  0  0  0  0
  -37.0675   61.6363   63.4142 O   0  0  0  0  0  0  0  0  0  0  0  0
  -37.1993   60.9360   62.7561 H   0  0  0  0  0  0  0  0  0  0  0  0
  -37.4791   62.4207   65.7401 O   0  0  0  0  0  0  0  0  0  0  0  0
  -36.4502   63.4030   65.5031 C   0  0  0  0  0  0  0  0  0  0  0  0
  -36.1989   62.7261   67.7881 O   0  0  0  0  0  0  0  0  0  0  0  0
  -35.6410   63.5588   66.7672 C   0  0  0  0  0  0  0  0  0  0  0  0
  -37.1348   62.9492   67.9118 H   0  0  0  0  0  0  0  0  0  0  0  0
  -33.4186   63.5855   67.7046 O   0  0  0  0  0  0  0  0  0  0  0  0
  -34.1830   63.2247   66.5612 C   0  0  0  0  0  0  0  0  0  0  0  0
  -32.4865   63.3636   67.5535 H   0  0  0  0  0  0  0  0  0  0  0  0
  -41.6215   59.4143   62.2606 O   0  0  0  0  0  0  0  0  0  0  0  0
  -41.7646   57.3193   61.4538 O   0  0  0  0  0  0  0  0  0  0  0  0
  -41.4871   58.4776   61.3020 C   0  0  0  0  0  0  0  0  0  0  0  0
  -40.9690   59.0561   60.0219 C   0  0  0  0  0  0  0  0  0  0  0  0
  -39.9533   58.1296   59.3608 C   0  0  0  0  0  0  0  0  0  0  0  0
  -38.5557   58.7184   59.2607 C   0  0  0  0  0  0  0  0  0  0  0  0
  -37.8643   58.8808   60.6095 C   0  0  0  0  0  0  0  0  0  0  0  0
  -38.0119   57.6812   61.5268 C   0  0  0  0  0  0  0  0  0  0  0  0
  -37.0285   57.6521   62.7003 C   0  0  0  0  0  0  0  0  0  0  0  0
  -35.7240   58.4201   62.4764 C   0  0  0  0  0  0  0  0  0  0  0  0
  -34.5412   57.7064   63.0590 C   0  0  0  0  0  0  0  0  0  0  0  0
  -33.2739   58.0487   62.9317 C   0  0  0  0  0  0  0  0  0  0  0  0
  -32.7500   59.2288   62.1758 C   0  0  0  0  0  0  0  0  0  0  0  0
  -31.4165   59.7270   62.7252 C   0  0  0  0  0  0  0  0  0  0  0  0
  -31.3161   61.2403   62.8022 C   0  0  0  0  0  0  0  0  0  0  0  0
  -32.1749   61.9614   61.7776 C   0  0  0  0  0  0  0  0  0  0  0  0
  -31.8086   63.4207   61.5640 C   0  0  0  0  0  0  0  0  0  0  0  0
  -33.0067   64.3078   61.2618 C   0  0  0  0  0  0  0  0  0  0  0  0
  -33.5713   65.0243   62.4724 C   0  0  0  0  0  0  0  0  0  0  0  0
  -35.0489   65.2774   62.3615 C   0  0  0  0  0  0  0  0  0  0  0  0
 21 22  1  0  0  0
  4  5  2  0  0  0
 25 24  1  0  0  0
 25 26  2  0  0  0
 25 27  1  0  0  0
 25 29  1  0  0  0
 22 20  1  0  0  0
  3  5  1  0  0  0
  3  2  1  0  0  0
 20 19  1  0  0  0
 24 23  1  0  0  0
 19 18  1  0  0  0
 18 17  1  0  0  0
 27 28  1  0  0  0
 17 16  1  0  0  0
 29 30  1  0  0  0
 16 15  1  0  0  0
 34 35  1  0  0  0
 34 36  1  0  0  0
 15 14  1  0  0  0
 31 32  1  0  0  0
 31 33  1  0  0  0
 14 13  1  0  0  0
 37  1  1  0  0  0
 37 39  1  0  0  0
 13 12  1  0  0  0
 38 39  2  0  0  0
 12 11  1  0  0  0
 11 10  1  0  0  0
 10  9  1  0  0  0
  9  8  1  0  0  0
  8  7  1  0  0  0
  7  6  1  0  0  0
  6  5  1  0  0  0
  2  1  1  0  0  0
  1 23  1  0  0  0
 30 32  1  0  0  0
 32 35  1  0  0  0
 39 40  1  0  0  0
 40 41  1  0  0  0
 41 42  1  0  0  0
 42 43  1  0  0  0
 43 44  1  0  0  0
 44 45  1  0  0  0
 45 46  1  0  0  0
 46 47  1  0  0  0
 47 48  2  0  0  0
 48 49  1  0  0  0
 49 50  1  0  0  0
 50 51  1  0  0  0
 51 52  1  0  0  0
 52 53  1  0  0  0
 53 54  1  0  0  0
 54 55  1  0  0  0
 55 56  1  0  0  0
M  CHG 1  26  -1
M  END
> <minimizedAffinity>
-8.75247

> <CNNscore>
0.3838684559

> <CNNaffinity>
7.1418976784

> <CNN_VS>
2.7415492535

> <CNNaffinity_variance>
0.9854766726

$$$$
/media/chris/experiments/cd1a-new-docking/inputs/ligands/7sh4_ligand.pdb


 56 55  0  0  0  0  0  0  0  0999 V2000
  -36.7071   62.3053   64.4108 C   0  0  0  0  0  0  0  0  0  0  0  0
  -35.6490   61.2549   64.5972 C   0  0  0  0  0  0  0  0  0  0  0  0
  -35.3191   60.8489   63.2521 O   0  0  0  0  0  0  0  0  0  0  0  0
  -33.2229   61.5525   62.9203 O   0  0  0  0  0  0  0  0  0  0  0  0
  -34.0279   60.6623   62.9769 C   0  0  0  0  0  0  0  0  0  0  0  0
  -33.7005   59.2005   62.8750 C   0  0  0  0  0  0  0  0  0  0  0  0
  -33.1736   58.5912   64.1633 C   0  0  0  0  0  0  0  0  0  0  0  0
  -34.2587   57.9276   64.9847 C   0  0  0  0  0  0  0  0  0  0  0  0
  -35.4420   57.4474   64.1753 C   0  0  0  0  0  0  0  0  0  0  0  0
  -36.7717   57.9050   64.7396 C   0  0  0  0  0  0  0  0  0  0  0  0
  -37.8636   57.9802   63.7006 C   0  0  0  0  0  0  0  0  0  0  0  0
  -37.3381   57.9334   62.2902 C   0  0  0  0  0  0  0  0  0  0  0  0
  -37.9310   58.9973   61.3930 C   0  0  0  0  0  0  0  0  0  0  0  0
  -37.7489   58.6893   59.9206 C   0  0  0  0  0  0  0  0  0  0  0  0
  -39.0317   58.7313   59.1170 C   0  0  0  0  0  0  0  0  0  0  0  0
  -40.2702   59.0426   59.9498 C   0  0  0  0  0  0  0  0  0  0  0  0
  -41.3706   58.0059   59.8287 C   0  0  0  0  0  0  0  0  0  0  0  0
  -41.1348   56.7756   60.6808 C   0  0  0  0  0  0  0  0  0  0  0  0
  -40.9637   57.0829   62.1620 C   0  0  0  0  0  0  0  0  0  0  0  0
  -41.6941   56.1119   63.0724 C   0  0  0  0  0  0  0  0  0  0  0  0
  -43.2236   56.8529   64.9291 C   0  0  0  0  0  0  0  0  0  0  0  0
  -41.7991   56.5550   64.5194 C   0  0  0  0  0  0  0  0  0  0  0  0
  -36.1652   63.6970   64.6142 C   0  0  0  0  0  0  0  0  0  0  0  0
  -34.8239   63.6011   65.1433 O   0  0  0  0  0  0  0  0  0  0  0  0
  -34.4765   63.8755   66.6815 P   0  0  0  0  0  0  0  0  0  0  0  0
  -35.7309   64.2348   67.3771 O   0  0  0  0  0  0  0  0  0  0  0  0
  -33.6847   62.7285   67.1875 O   0  0  0  0  0  0  0  0  0  0  0  0
  -34.2393   61.9327   67.1989 H   0  0  0  0  0  0  0  0  0  0  0  0
  -33.5314   65.1599   66.6784 O   0  0  0  0  0  0  0  0  0  0  0  0
  -33.1239   65.7528   65.4286 C   0  0  0  0  0  0  0  0  0  0  0  0
  -31.0726   65.8814   66.6606 O   0  0  0  0  0  0  0  0  0  0  0  0
  -31.6177   65.7077   65.3492 C   0  0  0  0  0  0  0  0  0  0  0  0
  -31.4036   66.7100   67.0411 H   0  0  0  0  0  0  0  0  0  0  0  0
  -32.1166   63.8183   63.9352 O   0  0  0  0  0  0  0  0  0  0  0  0
  -31.1124   64.4214   64.7411 C   0  0  0  0  0  0  0  0  0  0  0  0
  -31.7738   62.9949   63.5539 H   0  0  0  0  0  0  0  0  0  0  0  0
  -37.8126   62.0150   65.3291 O   0  0  0  0  0  0  0  0  0  0  0  0
  -39.1788   61.3416   63.6736 O   0  0  0  0  0  0  0  0  0  0  0  0
  -38.8556   61.3242   64.8299 C   0  0  0  0  0  0  0  0  0  0  0  0
  -39.5508   60.5194   65.8839 C   0  0  0  0  0  0  0  0  0  0  0  0
  -40.7688   59.7941   65.3205 C   0  0  0  0  0  0  0  0  0  0  0  0
  -42.0931   60.2867   65.8804 C   0  0  0  0  0  0  0  0  0  0  0  0
  -42.8478   61.2141   64.9348 C   0  0  0  0  0  0  0  0  0  0  0  0
  -44.0055   60.5500   64.2130 C   0  0  0  0  0  0  0  0  0  0  0  0
  -45.1348   60.0688   65.1285 C   0  0  0  0  0  0  0  0  0  0  0  0
  -46.3759   59.5374   64.4082 C   0  0  0  0  0  0  0  0  0  0  0  0
  -47.4935   60.5368   64.3966 C   0  0  0  0  0  0  0  0  0  0  0  0
  -48.7373   60.3227   64.0135 C   0  0  0  0  0  0  0  0  0  0  0  0
  -49.2953   59.0295   63.5090 C   0  0  0  0  0  0  0  0  0  0  0  0
  -50.2672   59.2274   62.3495 C   0  0  0  0  0  0  0  0  0  0  0  0
  -50.7569   57.9274   61.7360 C   0  0  0  0  0  0  0  0  0  0  0  0
  -49.7442   57.2675   60.8163 C   0  0  0  0  0  0  0  0  0  0  0  0
  -49.7410   57.8043   59.3945 C   0  0  0  0  0  0  0  0  0  0  0  0
  -48.4647   58.5475   59.0307 C   0  0  0  0  0  0  0  0  0  0  0  0
  -47.5842   57.8206   58.0337 C   0  0  0  0  0  0  0  0  0  0  0  0
  -48.3511   57.3056   56.8479 C   0  0  0  0  0  0  0  0  0  0  0  0
 21 22  1  0  0  0
  4  5  2  0  0  0
 25 24  1  0  0  0
 25 26  2  0  0  0
 25 27  1  0  0  0
 25 29  1  0  0  0
 22 20  1  0  0  0
  3  5  1  0  0  0
  3  2  1  0  0  0
 20 19  1  0  0  0
 24 23  1  0  0  0
 19 18  1  0  0  0
 18 17  1  0  0  0
 27 28  1  0  0  0
 17 16  1  0  0  0
 29 30  1  0  0  0
 16 15  1  0  0  0
 34 35  1  0  0  0
 34 36  1  0  0  0
 15 14  1  0  0  0
 31 32  1  0  0  0
 31 33  1  0  0  0
 14 13  1  0  0  0
 37  1  1  0  0  0
 37 39  1  0  0  0
 13 12  1  0  0  0
 38 39  2  0  0  0
 12 11  1  0  0  0
 11 10  1  0  0  0
 10  9  1  0  0  0
  9  8  1  0  0  0
  8  7  1  0  0  0
  7  6  1  0  0  0
  6  5  1  0  0  0
  2  1  1  0  0  0
  1 23  1  0  0  0
 30 32  1  0  0  0
 32 35  1  0  0  0
 39 40  1  0  0  0
 40 41  1  0  0  0
 41 42  1  0  0  0
 42 43  1  0  0  0
 43 44  1  0  0  0
 44 45  1  0  0  0
 45 46  1  0  0  0
 46 47  1  0  0  0
 47 48  2  0  0  0
 48 49  1  0  0  0
 49 50  1  0  0  0
 50 51  1  0  0  0
 51 52  1  0  0  0
 52 53  1  0  0  0
 53 54  1  0  0  0
 54 55  1  0  0  0
 55 56  1  0  0  0
M  CHG 1  26  -1
M  END
> <minimizedAffinity>
-7.99110

> <CNNscore>
0.3476541340

> <CNNaffinity>
7.2625784874

> <CNN_VS>
2.5248653889

> <CNNaffinity_variance>
0.9135622978

$$$$
/media/chris/experiments/cd1a-new-docking/inputs/ligands/7sh4_ligand.pdb


 56 55  0  0  0  0  0  0  0  0999 V2000
  -37.1932   61.7109   64.5000 C   0  0  0  0  0  0  0  0  0  0  0  0
  -36.1117   62.1307   65.4548 C   0  0  0  0  0  0  0  0  0  0  0  0
  -35.0583   61.1690   65.2340 O   0  0  0  0  0  0  0  0  0  0  0  0
  -33.5739   62.6597   64.4767 O   0  0  0  0  0  0  0  0  0  0  0  0
  -34.0417   61.5531   64.4615 C   0  0  0  0  0  0  0  0  0  0  0  0
  -33.4900   60.3980   63.6768 C   0  0  0  0  0  0  0  0  0  0  0  0
  -33.7523   59.0395   64.3045 C   0  0  0  0  0  0  0  0  0  0  0  0
  -34.0901   57.9761   63.2810 C   0  0  0  0  0  0  0  0  0  0  0  0
  -35.3433   58.2594   62.4840 C   0  0  0  0  0  0  0  0  0  0  0  0
  -36.6136   57.9048   63.2299 C   0  0  0  0  0  0  0  0  0  0  0  0
  -37.8429   57.9293   62.3546 C   0  0  0  0  0  0  0  0  0  0  0  0
  -37.5699   58.4581   60.9714 C   0  0  0  0  0  0  0  0  0  0  0  0
  -38.3712   59.6957   60.6328 C   0  0  0  0  0  0  0  0  0  0  0  0
  -39.5653   59.8876   61.5456 C   0  0  0  0  0  0  0  0  0  0  0  0
  -40.9033   59.7623   60.8475 C   0  0  0  0  0  0  0  0  0  0  0  0
  -40.8644   58.8986   59.5918 C   0  0  0  0  0  0  0  0  0  0  0  0
  -40.7797   57.4101   59.8702 C   0  0  0  0  0  0  0  0  0  0  0  0
  -41.7921   56.9299   60.8899 C   0  0  0  0  0  0  0  0  0  0  0  0
  -41.1694   56.1933   62.0677 C   0  0  0  0  0  0  0  0  0  0  0  0
  -41.2608   56.9551   63.3778 C   0  0  0  0  0  0  0  0  0  0  0  0
  -43.2855   57.1457   64.8610 C   0  0  0  0  0  0  0  0  0  0  0  0
  -42.5884   57.6489   63.6175 C   0  0  0  0  0  0  0  0  0  0  0  0
  -37.2926   62.6365   63.3146 C   0  0  0  0  0  0  0  0  0  0  0  0
  -36.5601   63.8473   63.6073 O   0  0  0  0  0  0  0  0  0  0  0  0
  -36.0427   64.8451   62.4677 P   0  0  0  0  0  0  0  0  0  0  0  0
  -35.9058   64.0751   61.2126 O   0  0  0  0  0  0  0  0  0  0  0  0
  -36.9129   66.0456   62.4756 O   0  0  0  0  0  0  0  0  0  0  0  0
  -37.8085   65.7977   62.1972 H   0  0  0  0  0  0  0  0  0  0  0  0
  -34.5841   65.2943   62.9298 O   0  0  0  0  0  0  0  0  0  0  0  0
  -33.6531   65.8252   61.9648 C   0  0  0  0  0  0  0  0  0  0  0  0
  -32.1873   64.9469   63.6449 O   0  0  0  0  0  0  0  0  0  0  0  0
  -32.2900   65.2438   62.2490 C   0  0  0  0  0  0  0  0  0  0  0  0
  -32.3682   65.7486   64.1601 H   0  0  0  0  0  0  0  0  0  0  0  0
  -33.1384   63.1390   61.4314 O   0  0  0  0  0  0  0  0  0  0  0  0
  -32.0112   64.0057   61.4310 C   0  0  0  0  0  0  0  0  0  0  0  0
  -32.9404   62.3509   60.9018 H   0  0  0  0  0  0  0  0  0  0  0  0
  -38.4580   61.6385   65.2382 O   0  0  0  0  0  0  0  0  0  0  0  0
  -38.4007   59.4650   65.8151 O   0  0  0  0  0  0  0  0  0  0  0  0
  -39.0023   60.4170   65.3985 C   0  0  0  0  0  0  0  0  0  0  0  0
  -40.4491   60.3931   65.0135 C   0  0  0  0  0  0  0  0  0  0  0  0
  -41.3542   60.3961   66.2414 C   0  0  0  0  0  0  0  0  0  0  0  0
  -42.8251   60.6075   65.9224 C   0  0  0  0  0  0  0  0  0  0  0  0
  -43.0657   61.5676   64.7630 C   0  0  0  0  0  0  0  0  0  0  0  0
  -44.4171   61.4001   64.0937 C   0  0  0  0  0  0  0  0  0  0  0  0
  -45.2986   60.3065   64.7035 C   0  0  0  0  0  0  0  0  0  0  0  0
  -46.7997   60.4636   64.4516 C   0  0  0  0  0  0  0  0  0  0  0  0
  -47.5069   59.1422   64.4103 C   0  0  0  0  0  0  0  0  0  0  0  0
  -48.5592   58.8349   63.6771 C   0  0  0  0  0  0  0  0  0  0  0  0
  -49.2695   59.7464   62.7268 C   0  0  0  0  0  0  0  0  0  0  0  0
  -50.7327   59.3596   62.5325 C   0  0  0  0  0  0  0  0  0  0  0  0
  -50.9228   58.0323   61.8195 C   0  0  0  0  0  0  0  0  0  0  0  0
  -50.2222   57.9571   60.4739 C   0  0  0  0  0  0  0  0  0  0  0  0
  -49.2052   56.8341   60.3553 C   0  0  0  0  0  0  0  0  0  0  0  0
  -47.9894   57.2040   59.5195 C   0  0  0  0  0  0  0  0  0  0  0  0
  -48.3224   57.8329   58.1811 C   0  0  0  0  0  0  0  0  0  0  0  0
  -47.1013   58.2925   57.4347 C   0  0  0  0  0  0  0  0  0  0  0  0
 21 22  1  0  0  0
  4  5  2  0  0  0
 25 24  1  0  0  0
 25 26  2  0  0  0
 25 27  1  0  0  0
 25 29  1  0  0  0
 22 20  1  0  0  0
  3  5  1  0  0  0
  3  2  1  0  0  0
 20 19  1  0  0  0
 24 23  1  0  0  0
 19 18  1  0  0  0
 18 17  1  0  0  0
 27 28  1  0  0  0
 17 16  1  0  0  0
 29 30  1  0  0  0
 16 15  1  0  0  0
 34 35  1  0  0  0
 34 36  1  0  0  0
 15 14  1  0  0  0
 31 32  1  0  0  0
 31 33  1  0  0  0
 14 13  1  0  0  0
 37  1  1  0  0  0
 37 39  1  0  0  0
 13 12  1  0  0  0
 38 39  2  0  0  0
 12 11  1  0  0  0
 11 10  1  0  0  0
 10  9  1  0  0  0
  9  8  1  0  0  0
  8  7  1  0  0  0
  7  6  1  0  0  0
  6  5  1  0  0  0
  2  1  1  0  0  0
  1 23  1  0  0  0
 30 32  1  0  0  0
 32 35  1  0  0  0
 39 40  1  0  0  0
 40 41  1  0  0  0
 41 42  1  0  0  0
 42 43  1  0  0  0
 43 44  1  0  0  0
 44 45  1  0  0  0
 45 46  1  0  0  0
 46 47  1  0  0  0
 47 48  2  0  0  0
 48 49  1  0  0  0
 49 50  1  0  0  0
 50 51  1  0  0  0
 51 52  1  0  0  0
 52 53  1  0  0  0
 53 54  1  0  0  0
 54 55  1  0  0  0
 55 56  1  0  0  0
M  CHG 1  26  -1
M  END
> <minimizedAffinity>
-8.08432

> <CNNscore>
0.2785193920

> <CNNaffinity>
7.3112335205

> <CNN_VS>
2.0363202095

> <CNNaffinity_variance>
1.1870379448

$$$$
