/media/chris/experiments/cd1a-new-docking/inputs/ligands/7sh4_ligand.pdb


 56 55  0  0  0  0  0  0  0  0999 V2000
  -37.9927   61.5895   64.2769 C   0  0  0  0  0  0  0  0  0  0  0  0
  -37.3732   62.0444   62.9858 C   0  0  0  0  0  0  0  0  0  0  0  0
  -36.9533   63.3982   63.2578 O   0  0  0  0  0  0  0  0  0  0  0  0
  -36.1501   64.3250   61.3883 O   0  0  0  0  0  0  0  0  0  0  0  0
  -35.9772   63.8926   62.4958 C   0  0  0  0  0  0  0  0  0  0  0  0
  -34.6785   63.9502   63.2474 C   0  0  0  0  0  0  0  0  0  0  0  0
  -33.5312   63.2295   62.5601 C   0  0  0  0  0  0  0  0  0  0  0  0
  -32.9823   62.0829   63.3826 C   0  0  0  0  0  0  0  0  0  0  0  0
  -33.8930   60.8779   63.4506 C   0  0  0  0  0  0  0  0  0  0  0  0
  -33.4708   59.8739   64.5041 C   0  0  0  0  0  0  0  0  0  0  0  0
  -32.8854   58.6112   63.9204 C   0  0  0  0  0  0  0  0  0  0  0  0
  -33.6895   58.0673   62.7692 C   0  0  0  0  0  0  0  0  0  0  0  0
  -35.0894   57.6482   63.1598 C   0  0  0  0  0  0  0  0  0  0  0  0
  -36.1385   58.1214   62.1742 C   0  0  0  0  0  0  0  0  0  0  0  0
  -37.5428   57.6532   62.4938 C   0  0  0  0  0  0  0  0  0  0  0  0
  -38.5314   57.8445   61.3493 C   0  0  0  0  0  0  0  0  0  0  0  0
  -38.6506   59.2789   60.8714 C   0  0  0  0  0  0  0  0  0  0  0  0
  -39.4272   59.4201   59.5783 C   0  0  0  0  0  0  0  0  0  0  0  0
  -40.8759   59.8422   59.7795 C   0  0  0  0  0  0  0  0  0  0  0  0
  -41.2222   60.1568   61.2239 C   0  0  0  0  0  0  0  0  0  0  0  0
  -42.4819   61.6059   62.8516 C   0  0  0  0  0  0  0  0  0  0  0  0
  -42.0216   61.4306   61.4221 C   0  0  0  0  0  0  0  0  0  0  0  0
  -36.9597   61.0983   65.2584 C   0  0  0  0  0  0  0  0  0  0  0  0
  -37.1376   61.7982   66.5102 O   0  0  0  0  0  0  0  0  0  0  0  0
  -36.2029   63.0159   66.9634 P   0  0  0  0  0  0  0  0  0  0  0  0
  -36.6980   64.2434   66.3041 O   0  0  0  0  0  0  0  0  0  0  0  0
  -36.1006   62.9935   68.4426 O   0  0  0  0  0  0  0  0  0  0  0  0
  -36.9676   63.1919   68.8296 H   0  0  0  0  0  0  0  0  0  0  0  0
  -34.7609   62.6860   66.3677 O   0  0  0  0  0  0  0  0  0  0  0  0
  -33.5778   63.1891   67.0213 C   0  0  0  0  0  0  0  0  0  0  0  0
  -33.4076   65.4665   67.7476 O   0  0  0  0  0  0  0  0  0  0  0  0
  -33.3708   64.6214   66.5937 C   0  0  0  0  0  0  0  0  0  0  0  0
  -34.2445   65.3330   68.2195 H   0  0  0  0  0  0  0  0  0  0  0  0
  -31.1582   65.5816   66.6196 O   0  0  0  0  0  0  0  0  0  0  0  0
  -32.0736   64.8164   65.8461 C   0  0  0  0  0  0  0  0  0  0  0  0
  -30.3325   65.6959   66.1237 H   0  0  0  0  0  0  0  0  0  0  0  0
  -38.9861   60.5548   63.9728 O   0  0  0  0  0  0  0  0  0  0  0  0
  -40.3132   61.0243   65.7274 O   0  0  0  0  0  0  0  0  0  0  0  0
  -39.8505   60.2311   64.9537 C   0  0  0  0  0  0  0  0  0  0  0  0
  -40.1786   58.7702   64.9521 C   0  0  0  0  0  0  0  0  0  0  0  0
  -41.6495   58.5282   64.6285 C   0  0  0  0  0  0  0  0  0  0  0  0
  -42.4693   58.0429   65.8129 C   0  0  0  0  0  0  0  0  0  0  0  0
  -43.8731   57.5837   65.4355 C   0  0  0  0  0  0  0  0  0  0  0  0
  -44.9183   57.8549   66.5015 C   0  0  0  0  0  0  0  0  0  0  0  0
  -46.3528   57.9566   65.9754 C   0  0  0  0  0  0  0  0  0  0  0  0
  -46.7708   59.3452   65.4869 C   0  0  0  0  0  0  0  0  0  0  0  0
  -47.8539   59.9403   66.3358 C   0  0  0  0  0  0  0  0  0  0  0  0
  -49.1542   59.8298   66.1450 C   0  0  0  0  0  0  0  0  0  0  0  0
  -49.8230   59.0813   65.0355 C   0  0  0  0  0  0  0  0  0  0  0  0
  -50.8897   59.9146   64.3312 C   0  0  0  0  0  0  0  0  0  0  0  0
  -51.0107   59.6207   62.8463 C   0  0  0  0  0  0  0  0  0  0  0  0
  -50.8310   58.1531   62.4982 C   0  0  0  0  0  0  0  0  0  0  0  0
  -50.7046   57.8696   61.0106 C   0  0  0  0  0  0  0  0  0  0  0  0
  -49.2644   57.8203   60.5236 C   0  0  0  0  0  0  0  0  0  0  0  0
  -48.9569   58.7817   59.3928 C   0  0  0  0  0  0  0  0  0  0  0  0
  -47.9395   58.2389   58.4284 C   0  0  0  0  0  0  0  0  0  0  0  0
 21 22  1  0  0  0
  4  5  2  0  0  0
 25 24  1  0  0  0
 25 26  2  0  0  0
 25 27  1  0  0  0
 25 29  1  0  0  0
 22 20  1  0  0  0
  3  5  1  0  0  0
  3  2  1  0  0  0
 20 19  1  0  0  0
 24 23  1  0  0  0
 19 18  1  0  0  0
 18 17  1  0  0  0
 27 28  1  0  0  0
 17 16  1  0  0  0
 29 30  1  0  0  0
 16 15  1  0  0  0
 34 35  1  0  0  0
 34 36  1  0  0  0
 15 14  1  0  0  0
 31 32  1  0  0  0
 31 33  1  0  0  0
 14 13  1  0  0  0
 37  1  1  0  0  0
 37 39  1  0  0  0
 13 12  1  0  0  0
 38 39  2  0  0  0
 12 11  1  0  0  0
 11 10  1  0  0  0
 10  9  1  0  0  0
  9  8  1  0  0  0
  8  7  1  0  0  0
  7  6  1  0  0  0
  6  5  1  0  0  0
  2  1  1  0  0  0
  1 23  1  0  0  0
 30 32  1  0  0  0
 32 35  1  0  0  0
 39 40  1  0  0  0
 40 41  1  0  0  0
 41 42  1  0  0  0
 42 43  1  0  0  0
 43 44  1  0  0  0
 44 45  1  0  0  0
 45 46  1  0  0  0
 46 47  1  0  0  0
 47 48  2  0  0  0
 48 49  1  0  0  0
 49 50  1  0  0  0
 50 51  1  0  0  0
 51 52  1  0  0  0
 52 53  1  0  0  0
 53 54  1  0  0  0
 54 55  1  0  0  0
 55 56  1  0  0  0
M  CHG 1  26  -1
M  END
> <minimizedAffinity>
-8.46497

> <CNNscore>
0.5018759370

> <CNNaffinity>
7.3774118423

> <CNN_VS>
3.7025454044

> <CNNaffinity_variance>
0.8452501297

$$$$
/media/chris/experiments/cd1a-new-docking/inputs/ligands/7sh4_ligand.pdb


 56 55  0  0  0  0  0  0  0  0999 V2000
  -35.5142   60.9966   64.3985 C   0  0  0  0  0  0  0  0  0  0  0  0
  -36.6454   61.9285   64.0677 C   0  0  0  0  0  0  0  0  0  0  0  0
  -37.7633   61.0485   63.8252 O   0  0  0  0  0  0  0  0  0  0  0  0
  -38.5293   61.3848   65.8987 O   0  0  0  0  0  0  0  0  0  0  0  0
  -38.5529   60.7744   64.8641 C   0  0  0  0  0  0  0  0  0  0  0  0
  -39.5448   59.6998   64.5231 C   0  0  0  0  0  0  0  0  0  0  0  0
  -40.7148   60.1797   63.6811 C   0  0  0  0  0  0  0  0  0  0  0  0
  -41.7899   60.8579   64.5036 C   0  0  0  0  0  0  0  0  0  0  0  0
  -43.1090   61.0232   63.7834 C   0  0  0  0  0  0  0  0  0  0  0  0
  -44.2961   61.0737   64.7238 C   0  0  0  0  0  0  0  0  0  0  0  0
  -45.5980   61.3722   64.0213 C   0  0  0  0  0  0  0  0  0  0  0  0
  -46.7465   60.5440   64.5338 C   0  0  0  0  0  0  0  0  0  0  0  0
  -48.0805   60.9325   63.9359 C   0  0  0  0  0  0  0  0  0  0  0  0
  -49.2360   60.1475   64.5231 C   0  0  0  0  0  0  0  0  0  0  0  0
  -50.5735   60.4388   63.8755 C   0  0  0  0  0  0  0  0  0  0  0  0
  -50.7714   59.7459   62.5321 C   0  0  0  0  0  0  0  0  0  0  0  0
  -50.7917   58.2318   62.6168 C   0  0  0  0  0  0  0  0  0  0  0  0
  -49.7807   57.5643   61.7073 C   0  0  0  0  0  0  0  0  0  0  0  0
  -49.2162   58.4902   60.6388 C   0  0  0  0  0  0  0  0  0  0  0  0
  -48.4638   57.7620   59.5393 C   0  0  0  0  0  0  0  0  0  0  0  0
  -46.9928   57.9539   57.5059 C   0  0  0  0  0  0  0  0  0  0  0  0
  -48.0039   58.6434   58.3937 C   0  0  0  0  0  0  0  0  0  0  0  0
  -34.3877   61.7032   65.1082 C   0  0  0  0  0  0  0  0  0  0  0  0
  -34.9420   62.7583   65.9255 O   0  0  0  0  0  0  0  0  0  0  0  0
  -34.0331   63.8268   66.6961 P   0  0  0  0  0  0  0  0  0  0  0  0
  -34.9162   64.8999   67.2013 O   0  0  0  0  0  0  0  0  0  0  0  0
  -33.1779   63.0946   67.6613 O   0  0  0  0  0  0  0  0  0  0  0  0
  -33.7338   62.7012   68.3520 H   0  0  0  0  0  0  0  0  0  0  0  0
  -33.0838   64.4567   65.5804 O   0  0  0  0  0  0  0  0  0  0  0  0
  -32.0652   65.4074   65.9525 C   0  0  0  0  0  0  0  0  0  0  0  0
  -30.9831   64.1902   64.1946 O   0  0  0  0  0  0  0  0  0  0  0  0
  -30.7459   64.9344   65.3933 C   0  0  0  0  0  0  0  0  0  0  0  0
  -31.5941   63.4607   64.3825 H   0  0  0  0  0  0  0  0  0  0  0  0
  -29.5698   66.8357   66.2989 O   0  0  0  0  0  0  0  0  0  0  0  0
  -29.7955   66.0752   65.1189 C   0  0  0  0  0  0  0  0  0  0  0  0
  -28.9580   67.5624   66.1030 H   0  0  0  0  0  0  0  0  0  0  0  0
  -35.0594   60.3636   63.1566 O   0  0  0  0  0  0  0  0  0  0  0  0
  -33.6380   58.6933   62.6565 O   0  0  0  0  0  0  0  0  0  0  0  0
  -34.6006   59.1006   63.2475 C   0  0  0  0  0  0  0  0  0  0  0  0
  -35.4221   58.2721   64.1861 C   0  0  0  0  0  0  0  0  0  0  0  0
  -36.6559   57.7015   63.4941 C   0  0  0  0  0  0  0  0  0  0  0  0
  -36.6726   57.9149   61.9893 C   0  0  0  0  0  0  0  0  0  0  0  0
  -38.0596   58.2119   61.4309 C   0  0  0  0  0  0  0  0  0  0  0  0
  -38.0706   59.2546   60.3286 C   0  0  0  0  0  0  0  0  0  0  0  0
  -39.2993   59.2035   59.4161 C   0  0  0  0  0  0  0  0  0  0  0  0
  -40.0864   57.8918   59.4559 C   0  0  0  0  0  0  0  0  0  0  0  0
  -41.4065   58.0460   60.1498 C   0  0  0  0  0  0  0  0  0  0  0  0
  -41.8402   57.3478   61.1812 C   0  0  0  0  0  0  0  0  0  0  0  0
  -41.0996   56.2509   61.8787 C   0  0  0  0  0  0  0  0  0  0  0  0
  -41.7036   55.9137   63.2387 C   0  0  0  0  0  0  0  0  0  0  0  0
  -42.4345   57.0766   63.8864 C   0  0  0  0  0  0  0  0  0  0  0  0
  -42.1154   57.2526   65.3609 C   0  0  0  0  0  0  0  0  0  0  0  0
  -43.2907   57.7084   66.2096 C   0  0  0  0  0  0  0  0  0  0  0  0
  -44.6402   57.4897   65.5427 C   0  0  0  0  0  0  0  0  0  0  0  0
  -45.8214   57.5639   66.4898 C   0  0  0  0  0  0  0  0  0  0  0  0
  -47.1068   57.1152   65.8526 C   0  0  0  0  0  0  0  0  0  0  0  0
 21 22  1  0  0  0
  4  5  2  0  0  0
 25 24  1  0  0  0
 25 26  2  0  0  0
 25 27  1  0  0  0
 25 29  1  0  0  0
 22 20  1  0  0  0
  3  5  1  0  0  0
  3  2  1  0  0  0
 20 19  1  0  0  0
 24 23  1  0  0  0
 19 18  1  0  0  0
 18 17  1  0  0  0
 27 28  1  0  0  0
 17 16  1  0  0  0
 29 30  1  0  0  0
 16 15  1  0  0  0
 34 35  1  0  0  0
 34 36  1  0  0  0
 15 14  1  0  0  0
 31 32  1  0  0  0
 31 33  1  0  0  0
 14 13  1  0  0  0
 37  1  1  0  0  0
 37 39  1  0  0  0
 13 12  1  0  0  0
 38 39  2  0  0  0
 12 11  1  0  0  0
 11 10  1  0  0  0
 10  9  1  0  0  0
  9  8  1  0  0  0
  8  7  1  0  0  0
  7  6  1  0  0  0
  6  5  1  0  0  0
  2  1  1  0  0  0
  1 23  1  0  0  0
 30 32  1  0  0  0
 32 35  1  0  0  0
 39 40  1  0  0  0
 40 41  1  0  0  0
 41 42  1  0  0  0
 42 43  1  0  0  0
 43 44  1  0  0  0
 44 45  1  0  0  0
 45 46  1  0  0  0
 46 47  1  0  0  0
 47 48  2  0  0  0
 48 49  1  0  0  0
 49 50  1  0  0  0
 50 51  1  0  0  0
 51 52  1  0  0  0
 52 53  1  0  0  0
 53 54  1  0  0  0
 54 55  1  0  0  0
 55 56  1  0  0  0
M  CHG 1  26  -1
M  END
> <minimizedAffinity>
-7.96062

> <CNNscore>
0.4350716174

> <CNNaffinity>
7.4056992531

> <CNN_VS>
3.2220096588

> <CNNaffinity_variance>
0.5905488133

$$$$
/media/chris/experiments/cd1a-new-docking/inputs/ligands/7sh4_ligand.pdb


 56 55  0  0  0  0  0  0  0  0999 V2000
  -39.8924   60.3044   64.7563 C   0  0  0  0  0  0  0  0  0  0  0  0
  -40.6542   60.8878   63.6000 C   0  0  0  0  0  0  0  0  0  0  0  0
  -41.7890   61.5306   64.2181 O   0  0  0  0  0  0  0  0  0  0  0  0
  -42.9899   61.5984   62.3333 O   0  0  0  0  0  0  0  0  0  0  0  0
  -42.9319   61.5297   63.5314 C   0  0  0  0  0  0  0  0  0  0  0  0
  -44.1088   61.3070   64.4370 C   0  0  0  0  0  0  0  0  0  0  0  0
  -44.6462   59.8860   64.4181 C   0  0  0  0  0  0  0  0  0  0  0  0
  -45.5484   59.5847   65.5961 C   0  0  0  0  0  0  0  0  0  0  0  0
  -46.9657   60.0858   65.4348 C   0  0  0  0  0  0  0  0  0  0  0  0
  -47.7586   59.3028   64.4080 C   0  0  0  0  0  0  0  0  0  0  0  0
  -48.6140   58.2195   65.0182 C   0  0  0  0  0  0  0  0  0  0  0  0
  -50.0030   58.6896   65.3609 C   0  0  0  0  0  0  0  0  0  0  0  0
  -50.3330   60.0519   64.7922 C   0  0  0  0  0  0  0  0  0  0  0  0
  -51.3503   59.9872   63.6710 C   0  0  0  0  0  0  0  0  0  0  0  0
  -50.7770   59.5452   62.3409 C   0  0  0  0  0  0  0  0  0  0  0  0
  -51.0693   58.0890   61.9976 C   0  0  0  0  0  0  0  0  0  0  0  0
  -50.0018   57.4307   61.1449 C   0  0  0  0  0  0  0  0  0  0  0  0
  -48.9877   58.4090   60.5884 C   0  0  0  0  0  0  0  0  0  0  0  0
  -49.0205   58.5246   59.0708 C   0  0  0  0  0  0  0  0  0  0  0  0
  -47.7094   58.1483   58.4041 C   0  0  0  0  0  0  0  0  0  0  0  0
  -47.2609   56.0282   57.1235 C   0  0  0  0  0  0  0  0  0  0  0  0
  -47.3551   56.6757   58.4865 C   0  0  0  0  0  0  0  0  0  0  0  0
  -38.4644   60.7851   64.7938 C   0  0  0  0  0  0  0  0  0  0  0  0
  -38.3765   62.0381   64.0791 O   0  0  0  0  0  0  0  0  0  0  0  0
  -36.9930   62.6308   63.5346 P   0  0  0  0  0  0  0  0  0  0  0  0
  -36.8332   62.2027   62.1283 O   0  0  0  0  0  0  0  0  0  0  0  0
  -36.9573   64.0801   63.8465 O   0  0  0  0  0  0  0  0  0  0  0  0
  -37.6403   64.5383   63.3323 H   0  0  0  0  0  0  0  0  0  0  0  0
  -35.8585   61.9159   64.3976 O   0  0  0  0  0  0  0  0  0  0  0  0
  -34.7392   62.6794   64.8918 C   0  0  0  0  0  0  0  0  0  0  0  0
  -33.6573   62.4838   67.0212 O   0  0  0  0  0  0  0  0  0  0  0  0
  -34.8905   62.8330   66.3853 C   0  0  0  0  0  0  0  0  0  0  0  0
  -33.4023   61.5850   66.7603 H   0  0  0  0  0  0  0  0  0  0  0  0
  -36.7196   64.3376   66.8421 O   0  0  0  0  0  0  0  0  0  0  0  0
  -35.3032   64.2306   66.7807 C   0  0  0  0  0  0  0  0  0  0  0  0
  -36.9648   65.2407   67.0972 H   0  0  0  0  0  0  0  0  0  0  0  0
  -39.9697   58.8427   64.6694 O   0  0  0  0  0  0  0  0  0  0  0  0
  -41.6439   58.6823   66.1633 O   0  0  0  0  0  0  0  0  0  0  0  0
  -41.0563   58.2558   65.2070 C   0  0  0  0  0  0  0  0  0  0  0  0
  -41.4535   57.0206   64.4596 C   0  0  0  0  0  0  0  0  0  0  0  0
  -42.4444   57.3369   63.3438 C   0  0  0  0  0  0  0  0  0  0  0  0
  -41.7928   57.8320   62.0630 C   0  0  0  0  0  0  0  0  0  0  0  0
  -41.1943   56.7171   61.2129 C   0  0  0  0  0  0  0  0  0  0  0  0
  -40.7904   57.1546   59.8172 C   0  0  0  0  0  0  0  0  0  0  0  0
  -41.1540   58.6019   59.4734 C   0  0  0  0  0  0  0  0  0  0  0  0
  -39.9962   59.5998   59.5477 C   0  0  0  0  0  0  0  0  0  0  0  0
  -38.6697   58.9451   59.3034 C   0  0  0  0  0  0  0  0  0  0  0  0
  -37.7803   58.6036   60.2154 C   0  0  0  0  0  0  0  0  0  0  0  0
  -37.9119   58.7983   61.6930 C   0  0  0  0  0  0  0  0  0  0  0  0
  -37.3963   57.6011   62.4862 C   0  0  0  0  0  0  0  0  0  0  0  0
  -35.9241   57.6966   62.8460 C   0  0  0  0  0  0  0  0  0  0  0  0
  -35.6691   57.8548   64.3350 C   0  0  0  0  0  0  0  0  0  0  0  0
  -34.4512   58.6959   64.6794 C   0  0  0  0  0  0  0  0  0  0  0  0
  -33.3322   58.5897   63.6544 C   0  0  0  0  0  0  0  0  0  0  0  0
  -32.6679   59.9104   63.3197 C   0  0  0  0  0  0  0  0  0  0  0  0
  -31.3299   59.7369   62.6569 C   0  0  0  0  0  0  0  0  0  0  0  0
 21 22  1  0  0  0
  4  5  2  0  0  0
 25 24  1  0  0  0
 25 26  2  0  0  0
 25 27  1  0  0  0
 25 29  1  0  0  0
 22 20  1  0  0  0
  3  5  1  0  0  0
  3  2  1  0  0  0
 20 19  1  0  0  0
 24 23  1  0  0  0
 19 18  1  0  0  0
 18 17  1  0  0  0
 27 28  1  0  0  0
 17 16  1  0  0  0
 29 30  1  0  0  0
 16 15  1  0  0  0
 34 35  1  0  0  0
 34 36  1  0  0  0
 15 14  1  0  0  0
 31 32  1  0  0  0
 31 33  1  0  0  0
 14 13  1  0  0  0
 37  1  1  0  0  0
 37 39  1  0  0  0
 13 12  1  0  0  0
 38 39  2  0  0  0
 12 11  1  0  0  0
 11 10  1  0  0  0
 10  9  1  0  0  0
  9  8  1  0  0  0
  8  7  1  0  0  0
  7  6  1  0  0  0
  6  5  1  0  0  0
  2  1  1  0  0  0
  1 23  1  0  0  0
 30 32  1  0  0  0
 32 35  1  0  0  0
 39 40  1  0  0  0
 40 41  1  0  0  0
 41 42  1  0  0  0
 42 43  1  0  0  0
 43 44  1  0  0  0
 44 45  1  0  0  0
 45 46  1  0  0  0
 46 47  1  0  0  0
 47 48  2  0  0  0
 48 49  1  0  0  0
 49 50  1  0  0  0
 50 51  1  0  0  0
 51 52  1  0  0  0
 52 53  1  0  0  0
 53 54  1  0  0  0
 54 55  1  0  0  0
 55 56  1  0  0  0
M  CHG 1  26  -1
M  END
> <minimizedAffinity>
-8.85041

> <CNNscore>
0.4019742012

> <CNNaffinity>
7.4926476479

> <CNN_VS>
3.0118510723

> <CNNaffinity_variance>
1.5550204515

$$$$
/media/chris/experiments/cd1a-new-docking/inputs/ligands/7sh4_ligand.pdb


 56 55  0  0  0  0  0  0  0  0999 V2000
  -40.8433   60.9550   63.4704 C   0  0  0  0  0  0  0  0  0  0  0  0
  -41.4535   61.0975   62.1048 C   0  0  0  0  0  0  0  0  0  0  0  0
  -41.0724   59.8836   61.4235 O   0  0  0  0  0  0  0  0  0  0  0  0
  -41.0539   60.9432   59.4547 O   0  0  0  0  0  0  0  0  0  0  0  0
  -41.0361   59.9243   60.0912 C   0  0  0  0  0  0  0  0  0  0  0  0
  -40.8452   58.5524   59.5114 C   0  0  0  0  0  0  0  0  0  0  0  0
  -39.5456   58.3785   58.7438 C   0  0  0  0  0  0  0  0  0  0  0  0
  -38.3306   58.7936   59.5462 C   0  0  0  0  0  0  0  0  0  0  0  0
  -38.1359   58.0107   60.8250 C   0  0  0  0  0  0  0  0  0  0  0  0
  -36.8497   58.3614   61.5452 C   0  0  0  0  0  0  0  0  0  0  0  0
  -36.7345   57.7147   62.9039 C   0  0  0  0  0  0  0  0  0  0  0  0
  -35.3078   57.5329   63.3500 C   0  0  0  0  0  0  0  0  0  0  0  0
  -34.3139   58.3081   62.5137 C   0  0  0  0  0  0  0  0  0  0  0  0
  -32.9299   58.3406   63.1298 C   0  0  0  0  0  0  0  0  0  0  0  0
  -32.3370   59.7293   63.2447 C   0  0  0  0  0  0  0  0  0  0  0  0
  -31.8578   60.3062   61.9174 C   0  0  0  0  0  0  0  0  0  0  0  0
  -30.3585   60.5230   61.8453 C   0  0  0  0  0  0  0  0  0  0  0  0
  -29.9546   61.9789   61.9571 C   0  0  0  0  0  0  0  0  0  0  0  0
  -31.1354   62.9394   61.9836 C   0  0  0  0  0  0  0  0  0  0  0  0
  -31.2209   63.7624   63.2566 C   0  0  0  0  0  0  0  0  0  0  0  0
  -29.8327   65.2845   64.7029 C   0  0  0  0  0  0  0  0  0  0  0  0
  -29.8991   63.9618   63.9735 C   0  0  0  0  0  0  0  0  0  0  0  0
  -39.4034   60.5143   63.4039 C   0  0  0  0  0  0  0  0  0  0  0  0
  -38.5875   61.6461   63.0273 O   0  0  0  0  0  0  0  0  0  0  0  0
  -37.2634   62.0639   63.8235 P   0  0  0  0  0  0  0  0  0  0  0  0
  -37.6532   62.4237   65.2038 O   0  0  0  0  0  0  0  0  0  0  0  0
  -36.2498   61.0001   63.6239 O   0  0  0  0  0  0  0  0  0  0  0  0
  -36.5486   60.1840   64.0548 H   0  0  0  0  0  0  0  0  0  0  0  0
  -36.7358   63.3847   63.1023 O   0  0  0  0  0  0  0  0  0  0  0  0
  -35.3407   63.7416   63.1811 C   0  0  0  0  0  0  0  0  0  0  0  0
  -34.4738   63.7454   60.9470 O   0  0  0  0  0  0  0  0  0  0  0  0
  -34.9972   64.5867   61.9791 C   0  0  0  0  0  0  0  0  0  0  0  0
  -33.7122   63.2510   61.2881 H   0  0  0  0  0  0  0  0  0  0  0  0
  -36.8305   66.0556   62.5267 O   0  0  0  0  0  0  0  0  0  0  0  0
  -36.1848   65.3647   61.4649 C   0  0  0  0  0  0  0  0  0  0  0  0
  -37.5892   66.5486   62.1774 H   0  0  0  0  0  0  0  0  0  0  0  0
  -41.6614   60.0174   64.2459 O   0  0  0  0  0  0  0  0  0  0  0  0
  -41.5485   60.0845   66.4916 O   0  0  0  0  0  0  0  0  0  0  0  0
  -42.0678   60.4246   65.4638 C   0  0  0  0  0  0  0  0  0  0  0  0
  -43.2304   61.3645   65.3814 C   0  0  0  0  0  0  0  0  0  0  0  0
  -44.3960   60.7461   64.6161 C   0  0  0  0  0  0  0  0  0  0  0  0
  -45.4858   60.1753   65.5088 C   0  0  0  0  0  0  0  0  0  0  0  0
  -46.8520   60.1080   64.8359 C   0  0  0  0  0  0  0  0  0  0  0  0
  -47.8401   59.1936   65.5360 C   0  0  0  0  0  0  0  0  0  0  0  0
  -49.0817   59.9005   66.0869 C   0  0  0  0  0  0  0  0  0  0  0  0
  -50.4183   59.3793   65.5545 C   0  0  0  0  0  0  0  0  0  0  0  0
  -51.0280   60.3105   64.5499 C   0  0  0  0  0  0  0  0  0  0  0  0
  -51.3117   60.0351   63.2918 C   0  0  0  0  0  0  0  0  0  0  0  0
  -51.0842   58.7274   62.6014 C   0  0  0  0  0  0  0  0  0  0  0  0
  -49.6030   58.3791   62.4874 C   0  0  0  0  0  0  0  0  0  0  0  0
  -49.2454   57.6497   61.2044 C   0  0  0  0  0  0  0  0  0  0  0  0
  -50.2195   57.9029   60.0669 C   0  0  0  0  0  0  0  0  0  0  0  0
  -49.5914   57.8814   58.6833 C   0  0  0  0  0  0  0  0  0  0  0  0
  -48.1535   58.3775   58.6632 C   0  0  0  0  0  0  0  0  0  0  0  0
  -47.1527   57.3631   58.1464 C   0  0  0  0  0  0  0  0  0  0  0  0
  -47.7796   56.3321   57.2499 C   0  0  0  0  0  0  0  0  0  0  0  0
 21 22  1  0  0  0
  4  5  2  0  0  0
 25 24  1  0  0  0
 25 26  2  0  0  0
 25 27  1  0  0  0
 25 29  1  0  0  0
 22 20  1  0  0  0
  3  5  1  0  0  0
  3  2  1  0  0  0
 20 19  1  0  0  0
 24 23  1  0  0  0
 19 18  1  0  0  0
 18 17  1  0  0  0
 27 28  1  0  0  0
 17 16  1  0  0  0
 29 30  1  0  0  0
 16 15  1  0  0  0
 34 35  1  0  0  0
 34 36  1  0  0  0
 15 14  1  0  0  0
 31 32  1  0  0  0
 31 33  1  0  0  0
 14 13  1  0  0  0
 37  1  1  0  0  0
 37 39  1  0  0  0
 13 12  1  0  0  0
 38 39  2  0  0  0
 12 11  1  0  0  0
 11 10  1  0  0  0
 10  9  1  0  0  0
  9  8  1  0  0  0
  8  7  1  0  0  0
  7  6  1  0  0  0
  6  5  1  0  0  0
  2  1  1  0  0  0
  1 23  1  0  0  0
 30 32  1  0  0  0
 32 35  1  0  0  0
 39 40  1  0  0  0
 40 41  1  0  0  0
 41 42  1  0  0  0
 42 43  1  0  0  0
 43 44  1  0  0  0
 44 45  1  0  0  0
 45 46  1  0  0  0
 46 47  1  0  0  0
 47 48  2  0  0  0
 48 49  1  0  0  0
 49 50  1  0  0  0
 50 51  1  0  0  0
 51 52  1  0  0  0
 52 53  1  0  0  0
 53 54  1  0  0  0
 54 55  1  0  0  0
 55 56  1  0  0  0
M  CHG 1  26  -1
M  END
> <minimizedAffinity>
-8.51806

> <CNNscore>
0.3896276653

> <CNNaffinity>
6.7986474037

> <CNN_VS>
2.6489410400

> <CNNaffinity_variance>
0.5240200758

$$$$
/media/chris/experiments/cd1a-new-docking/inputs/ligands/7sh4_ligand.pdb


 56 55  0  0  0  0  0  0  0  0999 V2000
  -36.1769   61.5785   64.1050 C   0  0  0  0  0  0  0  0  0  0  0  0
  -37.3194   62.3778   63.5452 C   0  0  0  0  0  0  0  0  0  0  0  0
  -38.2458   61.3779   63.0707 O   0  0  0  0  0  0  0  0  0  0  0  0
  -39.1697   61.2447   65.1025 O   0  0  0  0  0  0  0  0  0  0  0  0
  -39.1435   60.9226   63.9452 C   0  0  0  0  0  0  0  0  0  0  0  0
  -40.1749   60.0667   63.2681 C   0  0  0  0  0  0  0  0  0  0  0  0
  -41.2027   60.8492   62.4684 C   0  0  0  0  0  0  0  0  0  0  0  0
  -42.6208   60.6081   62.9411 C   0  0  0  0  0  0  0  0  0  0  0  0
  -43.2752   61.8138   63.5766 C   0  0  0  0  0  0  0  0  0  0  0  0
  -44.6925   61.5442   64.0400 C   0  0  0  0  0  0  0  0  0  0  0  0
  -44.9688   60.0810   64.2857 C   0  0  0  0  0  0  0  0  0  0  0  0
  -46.2215   59.8454   65.0875 C   0  0  0  0  0  0  0  0  0  0  0  0
  -47.4156   59.4690   64.2386 C   0  0  0  0  0  0  0  0  0  0  0  0
  -48.6031   59.0192   65.0655 C   0  0  0  0  0  0  0  0  0  0  0  0
  -49.7556   58.4756   64.2473 C   0  0  0  0  0  0  0  0  0  0  0  0
  -49.4952   58.4684   62.7452 C   0  0  0  0  0  0  0  0  0  0  0  0
  -50.7114   58.1157   61.9107 C   0  0  0  0  0  0  0  0  0  0  0  0
  -50.3820   57.8185   60.4621 C   0  0  0  0  0  0  0  0  0  0  0  0
  -49.2532   58.6746   59.9050 C   0  0  0  0  0  0  0  0  0  0  0  0
  -48.1173   57.8662   59.3039 C   0  0  0  0  0  0  0  0  0  0  0  0
  -46.9276   58.2857   57.1256 C   0  0  0  0  0  0  0  0  0  0  0  0
  -48.1648   57.7300   57.7939 C   0  0  0  0  0  0  0  0  0  0  0  0
  -35.0041   62.4498   64.4752 C   0  0  0  0  0  0  0  0  0  0  0  0
  -34.8284   63.4533   63.4502 O   0  0  0  0  0  0  0  0  0  0  0  0
  -33.4598   63.6356   62.6406 P   0  0  0  0  0  0  0  0  0  0  0  0
  -33.7333   63.3673   61.2124 O   0  0  0  0  0  0  0  0  0  0  0  0
  -32.8699   64.9422   63.0197 O   0  0  0  0  0  0  0  0  0  0  0  0
  -33.4408   65.6591   62.7019 H   0  0  0  0  0  0  0  0  0  0  0  0
  -32.4938   62.4871   63.1798 O   0  0  0  0  0  0  0  0  0  0  0  0
  -31.9026   61.5495   62.2572 C   0  0  0  0  0  0  0  0  0  0  0  0
  -29.8614   60.2939   62.2533 O   0  0  0  0  0  0  0  0  0  0  0  0
  -30.4030   61.6083   62.4147 C   0  0  0  0  0  0  0  0  0  0  0  0
  -30.2818   59.6910   62.8863 H   0  0  0  0  0  0  0  0  0  0  0  0
  -30.5915   63.6922   61.2146 O   0  0  0  0  0  0  0  0  0  0  0  0
  -29.7590   62.5610   61.4361 C   0  0  0  0  0  0  0  0  0  0  0  0
  -30.1616   64.2914   60.5846 H   0  0  0  0  0  0  0  0  0  0  0  0
  -35.8035   60.5564   63.1223 O   0  0  0  0  0  0  0  0  0  0  0  0
  -34.1225   59.0653   63.2289 O   0  0  0  0  0  0  0  0  0  0  0  0
  -35.2007   59.4478   63.5934 C   0  0  0  0  0  0  0  0  0  0  0  0
  -36.0264   58.7613   64.6369 C   0  0  0  0  0  0  0  0  0  0  0  0
  -37.1848   57.9887   64.0140 C   0  0  0  0  0  0  0  0  0  0  0  0
  -36.9008   57.4773   62.6111 C   0  0  0  0  0  0  0  0  0  0  0  0
  -38.0182   57.7720   61.6169 C   0  0  0  0  0  0  0  0  0  0  0  0
  -37.5921   58.6443   60.4506 C   0  0  0  0  0  0  0  0  0  0  0  0
  -38.7487   59.2911   59.6833 C   0  0  0  0  0  0  0  0  0  0  0  0
  -39.7685   58.3130   59.0958 C   0  0  0  0  0  0  0  0  0  0  0  0
  -41.0986   58.4041   59.7818 C   0  0  0  0  0  0  0  0  0  0  0  0
  -41.6996   57.4488   60.4642 C   0  0  0  0  0  0  0  0  0  0  0  0
  -41.1749   56.0675   60.6986 C   0  0  0  0  0  0  0  0  0  0  0  0
  -41.3231   55.6270   62.1519 C   0  0  0  0  0  0  0  0  0  0  0  0
  -41.2753   56.7751   63.1447 C   0  0  0  0  0  0  0  0  0  0  0  0
  -41.7187   56.3893   64.5453 C   0  0  0  0  0  0  0  0  0  0  0  0
  -43.0953   56.9026   64.9338 C   0  0  0  0  0  0  0  0  0  0  0  0
  -43.0716   57.8728   66.1051 C   0  0  0  0  0  0  0  0  0  0  0  0
  -41.7877   58.6693   66.2271 C   0  0  0  0  0  0  0  0  0  0  0  0
  -42.0270   60.1036   66.6083 C   0  0  0  0  0  0  0  0  0  0  0  0
 21 22  1  0  0  0
  4  5  2  0  0  0
 25 24  1  0  0  0
 25 26  2  0  0  0
 25 27  1  0  0  0
 25 29  1  0  0  0
 22 20  1  0  0  0
  3  5  1  0  0  0
  3  2  1  0  0  0
 20 19  1  0  0  0
 24 23  1  0  0  0
 19 18  1  0  0  0
 18 17  1  0  0  0
 27 28  1  0  0  0
 17 16  1  0  0  0
 29 30  1  0  0  0
 16 15  1  0  0  0
 34 35  1  0  0  0
 34 36  1  0  0  0
 15 14  1  0  0  0
 31 32  1  0  0  0
 31 33  1  0  0  0
 14 13  1  0  0  0
 37  1  1  0  0  0
 37 39  1  0  0  0
 13 12  1  0  0  0
 38 39  2  0  0  0
 12 11  1  0  0  0
 11 10  1  0  0  0
 10  9  1  0  0  0
  9  8  1  0  0  0
  8  7  1  0  0  0
  7  6  1  0  0  0
  6  5  1  0  0  0
  2  1  1  0  0  0
  1 23  1  0  0  0
 30 32  1  0  0  0
 32 35  1  0  0  0
 39 40  1  0  0  0
 40 41  1  0  0  0
 41 42  1  0  0  0
 42 43  1  0  0  0
 43 44  1  0  0  0
 44 45  1  0  0  0
 45 46  1  0  0  0
 46 47  1  0  0  0
 47 48  2  0  0  0
 48 49  1  0  0  0
 49 50  1  0  0  0
 50 51  1  0  0  0
 51 52  1  0  0  0
 52 53  1  0  0  0
 53 54  1  0  0  0
 54 55  1  0  0  0
 55 56  1  0  0  0
M  CHG 1  26  -1
M  END
> <minimizedAffinity>
-8.18967

> <CNNscore>
0.3502793312

> <CNNaffinity>
7.3817009926

> <CNN_VS>
2.5856573582

> <CNNaffinity_variance>
1.1164491177

$$$$
/media/chris/experiments/cd1a-new-docking/inputs/ligands/7sh4_ligand.pdb


 56 55  0  0  0  0  0  0  0  0999 V2000
  -40.9623   60.8903   63.5510 C   0  0  0  0  0  0  0  0  0  0  0  0
  -41.3288   61.1895   62.1249 C   0  0  0  0  0  0  0  0  0  0  0  0
  -41.3139   59.8973   61.4820 O   0  0  0  0  0  0  0  0  0  0  0  0
  -41.0120   60.8644   59.4888 O   0  0  0  0  0  0  0  0  0  0  0  0
  -41.0688   59.8774   60.1715 C   0  0  0  0  0  0  0  0  0  0  0  0
  -40.7536   58.4871   59.6996 C   0  0  0  0  0  0  0  0  0  0  0  0
  -39.3983   58.3527   59.0262 C   0  0  0  0  0  0  0  0  0  0  0  0
  -38.2610   58.8501   59.8932 C   0  0  0  0  0  0  0  0  0  0  0  0
  -38.0891   58.0872   61.1871 C   0  0  0  0  0  0  0  0  0  0  0  0
  -36.6950   58.2110   61.7681 C   0  0  0  0  0  0  0  0  0  0  0  0
  -36.6364   57.8978   63.2432 C   0  0  0  0  0  0  0  0  0  0  0  0
  -35.2285   57.7740   63.7629 C   0  0  0  0  0  0  0  0  0  0  0  0
  -34.1782   58.1849   62.7549 C   0  0  0  0  0  0  0  0  0  0  0  0
  -32.7676   58.0520   63.2922 C   0  0  0  0  0  0  0  0  0  0  0  0
  -32.0245   59.3663   63.4092 C   0  0  0  0  0  0  0  0  0  0  0  0
  -32.5850   60.4720   62.5220 C   0  0  0  0  0  0  0  0  0  0  0  0
  -31.5250   61.2663   61.7835 C   0  0  0  0  0  0  0  0  0  0  0  0
  -30.9894   62.4398   62.5780 C   0  0  0  0  0  0  0  0  0  0  0  0
  -32.0722   63.2435   63.2845 C   0  0  0  0  0  0  0  0  0  0  0  0
  -32.2872   64.6251   62.6929 C   0  0  0  0  0  0  0  0  0  0  0  0
  -31.5618   65.6516   60.5121 C   0  0  0  0  0  0  0  0  0  0  0  0
  -32.4704   64.6494   61.1873 C   0  0  0  0  0  0  0  0  0  0  0  0
  -39.5165   60.4882   63.6917 C   0  0  0  0  0  0  0  0  0  0  0  0
  -38.7417   61.6550   64.0476 O   0  0  0  0  0  0  0  0  0  0  0  0
  -37.4603   61.5865   65.0042 P   0  0  0  0  0  0  0  0  0  0  0  0
  -37.7658   60.6572   66.1132 O   0  0  0  0  0  0  0  0  0  0  0  0
  -36.2689   61.3229   64.1616 O   0  0  0  0  0  0  0  0  0  0  0  0
  -36.3356   60.4353   63.7761 H   0  0  0  0  0  0  0  0  0  0  0  0
  -37.3123   63.0510   65.6175 O   0  0  0  0  0  0  0  0  0  0  0  0
  -36.1497   63.8475   65.3109 C   0  0  0  0  0  0  0  0  0  0  0  0
  -36.2362   63.8975   67.7052 O   0  0  0  0  0  0  0  0  0  0  0  0
  -35.3627   64.0496   66.5824 C   0  0  0  0  0  0  0  0  0  0  0  0
  -36.9799   64.5147   67.6222 H   0  0  0  0  0  0  0  0  0  0  0  0
  -33.3344   63.4805   67.7573 O   0  0  0  0  0  0  0  0  0  0  0  0
  -34.1979   63.0955   66.6953 C   0  0  0  0  0  0  0  0  0  0  0  0
  -32.5938   62.8568   67.8140 H   0  0  0  0  0  0  0  0  0  0  0  0
  -41.8652   59.8487   64.0508 O   0  0  0  0  0  0  0  0  0  0  0  0
  -42.0446   59.2528   66.2125 O   0  0  0  0  0  0  0  0  0  0  0  0
  -42.3254   59.9916   65.3085 C   0  0  0  0  0  0  0  0  0  0  0  0
  -43.2122   61.1899   65.4481 C   0  0  0  0  0  0  0  0  0  0  0  0
  -44.4738   61.0532   64.6016 C   0  0  0  0  0  0  0  0  0  0  0  0
  -45.5366   60.1593   65.2193 C   0  0  0  0  0  0  0  0  0  0  0  0
  -46.8977   60.2731   64.5424 C   0  0  0  0  0  0  0  0  0  0  0  0
  -47.9356   59.3038   65.0770 C   0  0  0  0  0  0  0  0  0  0  0  0
  -49.0278   59.9495   65.9344 C   0  0  0  0  0  0  0  0  0  0  0  0
  -50.4561   59.5022   65.6155 C   0  0  0  0  0  0  0  0  0  0  0  0
  -51.0630   60.3014   64.5017 C   0  0  0  0  0  0  0  0  0  0  0  0
  -51.2220   59.9146   63.2509 C   0  0  0  0  0  0  0  0  0  0  0  0
  -50.8288   58.5886   62.6803 C   0  0  0  0  0  0  0  0  0  0  0  0
  -49.5302   58.6601   61.8823 C   0  0  0  0  0  0  0  0  0  0  0  0
  -49.6807   59.3399   60.5328 C   0  0  0  0  0  0  0  0  0  0  0  0
  -50.0828   58.3938   59.4146 C   0  0  0  0  0  0  0  0  0  0  0  0
  -48.9396   57.5707   58.8446 C   0  0  0  0  0  0  0  0  0  0  0  0
  -47.8133   58.4156   58.2688 C   0  0  0  0  0  0  0  0  0  0  0  0
  -47.0786   57.7677   57.1119 C   0  0  0  0  0  0  0  0  0  0  0  0
  -47.1125   56.2660   57.1693 C   0  0  0  0  0  0  0  0  0  0  0  0
 21 22  1  0  0  0
  4  5  2  0  0  0
 25 24  1  0  0  0
 25 26  2  0  0  0
 25 27  1  0  0  0
 25 29  1  0  0  0
 22 20  1  0  0  0
  3  5  1  0  0  0
  3  2  1  0  0  0
 20 19  1  0  0  0
 24 23  1  0  0  0
 19 18  1  0  0  0
 18 17  1  0  0  0
 27 28  1  0  0  0
 17 16  1  0  0  0
 29 30  1  0  0  0
 16 15  1  0  0  0
 34 35  1  0  0  0
 34 36  1  0  0  0
 15 14  1  0  0  0
 31 32  1  0  0  0
 31 33  1  0  0  0
 14 13  1  0  0  0
 37  1  1  0  0  0
 37 39  1  0  0  0
 13 12  1  0  0  0
 38 39  2  0  0  0
 12 11  1  0  0  0
 11 10  1  0  0  0
 10  9  1  0  0  0
  9  8  1  0  0  0
  8  7  1  0  0  0
  7  6  1  0  0  0
  6  5  1  0  0  0
  2  1  1  0  0  0
  1 23  1  0  0  0
 30 32  1  0  0  0
 32 35  1  0  0  0
 39 40  1  0  0  0
 40 41  1  0  0  0
 41 42  1  0  0  0
 42 43  1  0  0  0
 43 44  1  0  0  0
 44 45  1  0  0  0
 45 46  1  0  0  0
 46 47  1  0  0  0
 47 48  2  0  0  0
 48 49  1  0  0  0
 49 50  1  0  0  0
 50 51  1  0  0  0
 51 52  1  0  0  0
 52 53  1  0  0  0
 53 54  1  0  0  0
 54 55  1  0  0  0
 55 56  1  0  0  0
M  CHG 1  26  -1
M  END
> <minimizedAffinity>
-8.93869

> <CNNscore>
0.3469177783

> <CNNaffinity>
6.9495863914

> <CNN_VS>
2.4109351635

> <CNNaffinity_variance>
0.6367701888

$$$$
/media/chris/experiments/cd1a-new-docking/inputs/ligands/7sh4_ligand.pdb


 56 55  0  0  0  0  0  0  0  0999 V2000
  -40.9510   60.0908   64.1852 C   0  0  0  0  0  0  0  0  0  0  0  0
  -41.9778   60.6128   65.1499 C   0  0  0  0  0  0  0  0  0  0  0  0
  -43.1744   59.8770   64.8184 O   0  0  0  0  0  0  0  0  0  0  0  0
  -44.4146   61.6593   64.2847 O   0  0  0  0  0  0  0  0  0  0  0  0
  -44.3148   60.5665   64.7741 C   0  0  0  0  0  0  0  0  0  0  0  0
  -45.4625   59.7511   65.2963 C   0  0  0  0  0  0  0  0  0  0  0  0
  -46.8148   60.1486   64.7293 C   0  0  0  0  0  0  0  0  0  0  0  0
  -47.8892   60.2494   65.7914 C   0  0  0  0  0  0  0  0  0  0  0  0
  -48.8697   59.0985   65.7916 C   0  0  0  0  0  0  0  0  0  0  0  0
  -50.3112   59.5472   65.6605 C   0  0  0  0  0  0  0  0  0  0  0  0
  -50.5176   60.5719   64.5720 C   0  0  0  0  0  0  0  0  0  0  0  0
  -51.5805   60.1733   63.5826 C   0  0  0  0  0  0  0  0  0  0  0  0
  -51.1255   59.1088   62.6090 C   0  0  0  0  0  0  0  0  0  0  0  0
  -49.7104   59.3331   62.1157 C   0  0  0  0  0  0  0  0  0  0  0  0
  -49.6147   59.6603   60.6402 C   0  0  0  0  0  0  0  0  0  0  0  0
  -49.6846   58.4376   59.7325 C   0  0  0  0  0  0  0  0  0  0  0  0
  -49.7155   57.1174   60.4783 C   0  0  0  0  0  0  0  0  0  0  0  0
  -48.7642   56.0833   59.9115 C   0  0  0  0  0  0  0  0  0  0  0  0
  -47.5694   56.6862   59.1859 C   0  0  0  0  0  0  0  0  0  0  0  0
  -47.4684   56.2678   57.7299 C   0  0  0  0  0  0  0  0  0  0  0  0
  -46.9468   58.6593   57.1427 C   0  0  0  0  0  0  0  0  0  0  0  0
  -47.6628   57.3929   56.7312 C   0  0  0  0  0  0  0  0  0  0  0  0
  -39.6131   59.8740   64.8447 C   0  0  0  0  0  0  0  0  0  0  0  0
  -39.0693   61.1574   65.2263 O   0  0  0  0  0  0  0  0  0  0  0  0
  -37.6479   61.6844   64.7129 P   0  0  0  0  0  0  0  0  0  0  0  0
  -36.6298   60.6707   65.0631 O   0  0  0  0  0  0  0  0  0  0  0  0
  -37.7910   62.0895   63.2936 O   0  0  0  0  0  0  0  0  0  0  0  0
  -37.9736   61.3066   62.7509 H   0  0  0  0  0  0  0  0  0  0  0  0
  -37.3493   62.9962   65.5690 O   0  0  0  0  0  0  0  0  0  0  0  0
  -36.2020   63.8137   65.2603 C   0  0  0  0  0  0  0  0  0  0  0  0
  -36.2947   63.9570   67.6507 O   0  0  0  0  0  0  0  0  0  0  0  0
  -35.4100   64.0200   66.5281 C   0  0  0  0  0  0  0  0  0  0  0  0
  -37.0036   64.6099   67.5406 H   0  0  0  0  0  0  0  0  0  0  0  0
  -33.3613   63.4393   67.6613 O   0  0  0  0  0  0  0  0  0  0  0  0
  -34.2990   63.0092   66.6828 C   0  0  0  0  0  0  0  0  0  0  0  0
  -32.6567   62.7782   67.7464 H   0  0  0  0  0  0  0  0  0  0  0  0
  -40.8554   61.0276   63.0613 O   0  0  0  0  0  0  0  0  0  0  0  0
  -42.0575   61.5689   61.2386 O   0  0  0  0  0  0  0  0  0  0  0  0
  -41.5791   60.7390   61.9627 C   0  0  0  0  0  0  0  0  0  0  0  0
  -41.6997   59.2628   61.7428 C   0  0  0  0  0  0  0  0  0  0  0  0
  -41.1950   58.8605   60.3607 C   0  0  0  0  0  0  0  0  0  0  0  0
  -40.5688   57.4764   60.3121 C   0  0  0  0  0  0  0  0  0  0  0  0
  -39.6348   57.1883   61.4819 C   0  0  0  0  0  0  0  0  0  0  0  0
  -38.4282   58.1059   61.5484 C   0  0  0  0  0  0  0  0  0  0  0  0
  -37.3242   57.6380   62.5010 C   0  0  0  0  0  0  0  0  0  0  0  0
  -36.0298   58.4524   62.4483 C   0  0  0  0  0  0  0  0  0  0  0  0
  -34.9958   57.9319   63.4011 C   0  0  0  0  0  0  0  0  0  0  0  0
  -33.6939   58.1329   63.3371 C   0  0  0  0  0  0  0  0  0  0  0  0
  -32.9738   58.9286   62.2946 C   0  0  0  0  0  0  0  0  0  0  0  0
  -31.8173   59.7372   62.8750 C   0  0  0  0  0  0  0  0  0  0  0  0
  -31.4637   60.9678   62.0585 C   0  0  0  0  0  0  0  0  0  0  0  0
  -31.9777   62.2656   62.6574 C   0  0  0  0  0  0  0  0  0  0  0  0
  -32.6396   63.2010   61.6593 C   0  0  0  0  0  0  0  0  0  0  0  0
  -33.9406   63.8049   62.1659 C   0  0  0  0  0  0  0  0  0  0  0  0
  -33.8073   65.2225   62.6861 C   0  0  0  0  0  0  0  0  0  0  0  0
  -34.9047   66.1266   62.1983 C   0  0  0  0  0  0  0  0  0  0  0  0
 21 22  1  0  0  0
  4  5  2  0  0  0
 25 24  1  0  0  0
 25 26  2  0  0  0
 25 27  1  0  0  0
 25 29  1  0  0  0
 22 20  1  0  0  0
  3  5  1  0  0  0
  3  2  1  0  0  0
 20 19  1  0  0  0
 24 23  1  0  0  0
 19 18  1  0  0  0
 18 17  1  0  0  0
 27 28  1  0  0  0
 17 16  1  0  0  0
 29 30  1  0  0  0
 16 15  1  0  0  0
 34 35  1  0  0  0
 34 36  1  0  0  0
 15 14  1  0  0  0
 31 32  1  0  0  0
 31 33  1  0  0  0
 14 13  1  0  0  0
 37  1  1  0  0  0
 37 39  1  0  0  0
 13 12  1  0  0  0
 38 39  2  0  0  0
 12 11  1  0  0  0
 11 10  1  0  0  0
 10  9  1  0  0  0
  9  8  1  0  0  0
  8  7  1  0  0  0
  7  6  1  0  0  0
  6  5  1  0  0  0
  2  1  1  0  0  0
  1 23  1  0  0  0
 30 32  1  0  0  0
 32 35  1  0  0  0
 39 40  1  0  0  0
 40 41  1  0  0  0
 41 42  1  0  0  0
 42 43  1  0  0  0
 43 44  1  0  0  0
 44 45  1  0  0  0
 45 46  1  0  0  0
 46 47  1  0  0  0
 47 48  2  0  0  0
 48 49  1  0  0  0
 49 50  1  0  0  0
 50 51  1  0  0  0
 51 52  1  0  0  0
 52 53  1  0  0  0
 53 54  1  0  0  0
 54 55  1  0  0  0
 55 56  1  0  0  0
M  CHG 1  26  -1
M  END
> <minimizedAffinity>
-8.69532

> <CNNscore>
0.3383913636

> <CNNaffinity>
6.9753623009

> <CNN_VS>
2.3604023457

> <CNNaffinity_variance>
0.8933342099

$$$$
/media/chris/experiments/cd1a-new-docking/inputs/ligands/7sh4_ligand.pdb


 56 55  0  0  0  0  0  0  0  0999 V2000
  -42.1603   59.4433   63.9930 C   0  0  0  0  0  0  0  0  0  0  0  0
  -43.3265   60.3901   64.0267 C   0  0  0  0  0  0  0  0  0  0  0  0
  -44.4729   59.5268   64.1795 O   0  0  0  0  0  0  0  0  0  0  0  0
  -44.7196   59.7941   66.3857 O   0  0  0  0  0  0  0  0  0  0  0  0
  -45.1968   59.6746   65.2895 C   0  0  0  0  0  0  0  0  0  0  0  0
  -46.6593   59.7962   64.9713 C   0  0  0  0  0  0  0  0  0  0  0  0
  -47.5625   58.9841   65.8840 C   0  0  0  0  0  0  0  0  0  0  0  0
  -48.5144   58.0878   65.1204 C   0  0  0  0  0  0  0  0  0  0  0  0
  -49.9713   58.2915   65.4694 C   0  0  0  0  0  0  0  0  0  0  0  0
  -50.2904   59.7160   65.8758 C   0  0  0  0  0  0  0  0  0  0  0  0
  -50.4591   60.6457   64.6990 C   0  0  0  0  0  0  0  0  0  0  0  0
  -51.5612   60.2193   63.7656 C   0  0  0  0  0  0  0  0  0  0  0  0
  -51.0737   59.8902   62.3720 C   0  0  0  0  0  0  0  0  0  0  0  0
  -49.5703   60.0179   62.2324 C   0  0  0  0  0  0  0  0  0  0  0  0
  -48.9279   58.9079   61.4271 C   0  0  0  0  0  0  0  0  0  0  0  0
  -49.2948   58.9287   59.9476 C   0  0  0  0  0  0  0  0  0  0  0  0
  -49.7281   57.5818   59.4013 C   0  0  0  0  0  0  0  0  0  0  0  0
  -48.8190   56.4431   59.8161 C   0  0  0  0  0  0  0  0  0  0  0  0
  -47.5514   56.3384   58.9796 C   0  0  0  0  0  0  0  0  0  0  0  0
  -47.8158   56.1746   57.4935 C   0  0  0  0  0  0  0  0  0  0  0  0
  -46.7767   58.4341   57.1052 C   0  0  0  0  0  0  0  0  0  0  0  0
  -47.8763   57.4735   56.7125 C   0  0  0  0  0  0  0  0  0  0  0  0
  -40.9889   60.0146   63.2358 C   0  0  0  0  0  0  0  0  0  0  0  0
  -40.3459   61.0137   64.0584 O   0  0  0  0  0  0  0  0  0  0  0  0
  -39.6448   60.6671   65.4549 P   0  0  0  0  0  0  0  0  0  0  0  0
  -40.6386   60.8739   66.5301 O   0  0  0  0  0  0  0  0  0  0  0  0
  -38.9973   59.3390   65.3292 O   0  0  0  0  0  0  0  0  0  0  0  0
  -39.6779   58.6566   65.2198 H   0  0  0  0  0  0  0  0  0  0  0  0
  -38.4951   61.7578   65.6325 O   0  0  0  0  0  0  0  0  0  0  0  0
  -37.1167   61.3956   65.4117 C   0  0  0  0  0  0  0  0  0  0  0  0
  -36.9801   63.7564   65.0230 O   0  0  0  0  0  0  0  0  0  0  0  0
  -36.2697   62.6358   65.5583 C   0  0  0  0  0  0  0  0  0  0  0  0
  -37.2232   63.5748   64.1016 H   0  0  0  0  0  0  0  0  0  0  0  0
  -36.0491   64.2771   67.3121 O   0  0  0  0  0  0  0  0  0  0  0  0
  -35.8828   62.9015   66.9935 C   0  0  0  0  0  0  0  0  0  0  0  0
  -35.7962   64.4277   68.2363 H   0  0  0  0  0  0  0  0  0  0  0  0
  -42.6126   58.1744   63.4140 O   0  0  0  0  0  0  0  0  0  0  0  0
  -42.2339   56.8582   65.1984 O   0  0  0  0  0  0  0  0  0  0  0  0
  -42.1897   57.0447   64.0131 C   0  0  0  0  0  0  0  0  0  0  0  0
  -41.6760   56.0444   63.0244 C   0  0  0  0  0  0  0  0  0  0  0  0
  -40.5689   56.6342   62.1565 C   0  0  0  0  0  0  0  0  0  0  0  0
  -40.8911   56.6473   60.6711 C   0  0  0  0  0  0  0  0  0  0  0  0
  -41.5617   57.9341   60.2040 C   0  0  0  0  0  0  0  0  0  0  0  0
  -40.6032   58.9477   59.6071 C   0  0  0  0  0  0  0  0  0  0  0  0
  -39.3796   58.3377   58.9175 C   0  0  0  0  0  0  0  0  0  0  0  0
  -38.0278   58.7508   59.5037 C   0  0  0  0  0  0  0  0  0  0  0  0
  -38.1759   59.4849   60.8025 C   0  0  0  0  0  0  0  0  0  0  0  0
  -37.8122   59.0559   61.9954 C   0  0  0  0  0  0  0  0  0  0  0  0
  -37.1705   57.7396   62.3022 C   0  0  0  0  0  0  0  0  0  0  0  0
  -35.7015   57.8840   62.6886 C   0  0  0  0  0  0  0  0  0  0  0  0
  -35.4645   57.9011   64.1885 C   0  0  0  0  0  0  0  0  0  0  0  0
  -34.2388   58.6964   64.6033 C   0  0  0  0  0  0  0  0  0  0  0  0
  -33.7881   59.7339   63.5885 C   0  0  0  0  0  0  0  0  0  0  0  0
  -32.3269   59.5953   63.1888 C   0  0  0  0  0  0  0  0  0  0  0  0
  -31.7512   60.8181   62.5024 C   0  0  0  0  0  0  0  0  0  0  0  0
  -30.4235   60.5483   61.8511 C   0  0  0  0  0  0  0  0  0  0  0  0
 21 22  1  0  0  0
  4  5  2  0  0  0
 25 24  1  0  0  0
 25 26  2  0  0  0
 25 27  1  0  0  0
 25 29  1  0  0  0
 22 20  1  0  0  0
  3  5  1  0  0  0
  3  2  1  0  0  0
 20 19  1  0  0  0
 24 23  1  0  0  0
 19 18  1  0  0  0
 18 17  1  0  0  0
 27 28  1  0  0  0
 17 16  1  0  0  0
 29 30  1  0  0  0
 16 15  1  0  0  0
 34 35  1  0  0  0
 34 36  1  0  0  0
 15 14  1  0  0  0
 31 32  1  0  0  0
 31 33  1  0  0  0
 14 13  1  0  0  0
 37  1  1  0  0  0
 37 39  1  0  0  0
 13 12  1  0  0  0
 38 39  2  0  0  0
 12 11  1  0  0  0
 11 10  1  0  0  0
 10  9  1  0  0  0
  9  8  1  0  0  0
  8  7  1  0  0  0
  7  6  1  0  0  0
  6  5  1  0  0  0
  2  1  1  0  0  0
  1 23  1  0  0  0
 30 32  1  0  0  0
 32 35  1  0  0  0
 39 40  1  0  0  0
 40 41  1  0  0  0
 41 42  1  0  0  0
 42 43  1  0  0  0
 43 44  1  0  0  0
 44 45  1  0  0  0
 45 46  1  0  0  0
 46 47  1  0  0  0
 47 48  2  0  0  0
 48 49  1  0  0  0
 49 50  1  0  0  0
 50 51  1  0  0  0
 51 52  1  0  0  0
 52 53  1  0  0  0
 53 54  1  0  0  0
 54 55  1  0  0  0
 55 56  1  0  0  0
M  CHG 1  26  -1
M  END
> <minimizedAffinity>
-8.62632

> <CNNscore>
0.3195073307

> <CNNaffinity>
7.2045087814

> <CNN_VS>
2.3018934727

> <CNNaffinity_variance>
1.2985990047

$$$$
/media/chris/experiments/cd1a-new-docking/inputs/ligands/7sh4_ligand.pdb


 56 55  0  0  0  0  0  0  0  0999 V2000
  -41.1391   60.8816   63.9543 C   0  0  0  0  0  0  0  0  0  0  0  0
  -40.9985   60.5864   62.4878 C   0  0  0  0  0  0  0  0  0  0  0  0
  -39.6347   60.9508   62.1873 O   0  0  0  0  0  0  0  0  0  0  0  0
  -37.9812   60.5008   60.7510 O   0  0  0  0  0  0  0  0  0  0  0  0
  -39.1539   60.5684   61.0039 C   0  0  0  0  0  0  0  0  0  0  0  0
  -40.2572   60.1206   60.0890 C   0  0  0  0  0  0  0  0  0  0  0  0
  -40.0293   58.7544   59.4645 C   0  0  0  0  0  0  0  0  0  0  0  0
  -41.2199   57.8322   59.6211 C   0  0  0  0  0  0  0  0  0  0  0  0
  -41.1368   56.9112   60.8172 C   0  0  0  0  0  0  0  0  0  0  0  0
  -39.7586   56.8787   61.4463 C   0  0  0  0  0  0  0  0  0  0  0  0
  -39.7532   57.3242   62.8882 C   0  0  0  0  0  0  0  0  0  0  0  0
  -38.3800   57.6913   63.3854 C   0  0  0  0  0  0  0  0  0  0  0  0
  -37.3034   57.5535   62.3319 C   0  0  0  0  0  0  0  0  0  0  0  0
  -36.0925   58.4191   62.6157 C   0  0  0  0  0  0  0  0  0  0  0  0
  -34.8194   57.6381   62.8657 C   0  0  0  0  0  0  0  0  0  0  0  0
  -33.5585   58.3439   62.3800 C   0  0  0  0  0  0  0  0  0  0  0  0
  -32.7185   58.9402   63.4931 C   0  0  0  0  0  0  0  0  0  0  0  0
  -31.4671   59.6350   62.9968 C   0  0  0  0  0  0  0  0  0  0  0  0
  -31.6602   60.3720   61.6789 C   0  0  0  0  0  0  0  0  0  0  0  0
  -31.2822   61.8411   61.7430 C   0  0  0  0  0  0  0  0  0  0  0  0
  -32.7299   63.1311   63.3480 C   0  0  0  0  0  0  0  0  0  0  0  0
  -32.4536   62.7917   61.9008 C   0  0  0  0  0  0  0  0  0  0  0  0
  -40.0315   60.2598   64.7657 C   0  0  0  0  0  0  0  0  0  0  0  0
  -39.1928   61.3126   65.2916 O   0  0  0  0  0  0  0  0  0  0  0  0
  -37.6033   61.3302   65.1046 P   0  0  0  0  0  0  0  0  0  0  0  0
  -37.0581   60.0919   65.7014 O   0  0  0  0  0  0  0  0  0  0  0  0
  -37.3093   61.6244   63.6813 O   0  0  0  0  0  0  0  0  0  0  0  0
  -37.6136   60.8871   63.1293 H   0  0  0  0  0  0  0  0  0  0  0  0
  -37.0891   62.5628   65.9759 O   0  0  0  0  0  0  0  0  0  0  0  0
  -35.9068   63.2856   65.5762 C   0  0  0  0  0  0  0  0  0  0  0  0
  -36.2247   63.9114   67.8675 O   0  0  0  0  0  0  0  0  0  0  0  0
  -35.5817   64.2961   66.6487 C   0  0  0  0  0  0  0  0  0  0  0  0
  -37.1782   63.8197   67.7150 H   0  0  0  0  0  0  0  0  0  0  0  0
  -33.5707   63.3047   67.5384 O   0  0  0  0  0  0  0  0  0  0  0  0
  -34.0951   64.4437   66.8679 C   0  0  0  0  0  0  0  0  0  0  0  0
  -32.6164   63.4179   67.6698 H   0  0  0  0  0  0  0  0  0  0  0  0
  -42.4587   60.4178   64.3940 O   0  0  0  0  0  0  0  0  0  0  0  0
  -42.7940   62.0232   65.9337 O   0  0  0  0  0  0  0  0  0  0  0  0
  -43.2178   61.2955   65.0778 C   0  0  0  0  0  0  0  0  0  0  0  0
  -44.6466   61.2680   64.6308 C   0  0  0  0  0  0  0  0  0  0  0  0
  -45.1990   59.8463   64.6117 C   0  0  0  0  0  0  0  0  0  0  0  0
  -45.2561   59.1889   65.9809 C   0  0  0  0  0  0  0  0  0  0  0  0
  -46.6032   59.3458   66.6770 C   0  0  0  0  0  0  0  0  0  0  0  0
  -47.7972   59.1486   65.7617 C   0  0  0  0  0  0  0  0  0  0  0  0
  -48.9845   60.0698   66.0566 C   0  0  0  0  0  0  0  0  0  0  0  0
  -50.3606   59.4815   65.7373 C   0  0  0  0  0  0  0  0  0  0  0  0
  -51.0967   60.2907   64.7120 C   0  0  0  0  0  0  0  0  0  0  0  0
  -51.2562   59.9900   63.4378 C   0  0  0  0  0  0  0  0  0  0  0  0
  -50.7339   58.7702   62.7467 C   0  0  0  0  0  0  0  0  0  0  0  0
  -49.3631   58.9997   62.1171 C   0  0  0  0  0  0  0  0  0  0  0  0
  -49.3405   58.7915   60.6130 C   0  0  0  0  0  0  0  0  0  0  0  0
  -49.1461   57.3426   60.2006 C   0  0  0  0  0  0  0  0  0  0  0  0
  -47.8137   57.0521   59.5301 C   0  0  0  0  0  0  0  0  0  0  0  0
  -47.9530   56.3974   58.1641 C   0  0  0  0  0  0  0  0  0  0  0  0
  -46.9711   56.9061   57.1274 C   0  0  0  0  0  0  0  0  0  0  0  0
  -46.9037   58.4070   57.0773 C   0  0  0  0  0  0  0  0  0  0  0  0
 21 22  1  0  0  0
  4  5  2  0  0  0
 25 24  1  0  0  0
 25 26  2  0  0  0
 25 27  1  0  0  0
 25 29  1  0  0  0
 22 20  1  0  0  0
  3  5  1  0  0  0
  3  2  1  0  0  0
 20 19  1  0  0  0
 24 23  1  0  0  0
 19 18  1  0  0  0
 18 17  1  0  0  0
 27 28  1  0  0  0
 17 16  1  0  0  0
 29 30  1  0  0  0
 16 15  1  0  0  0
 34 35  1  0  0  0
 34 36  1  0  0  0
 15 14  1  0  0  0
 31 32  1  0  0  0
 31 33  1  0  0  0
 14 13  1  0  0  0
 37  1  1  0  0  0
 37 39  1  0  0  0
 13 12  1  0  0  0
 38 39  2  0  0  0
 12 11  1  0  0  0
 11 10  1  0  0  0
 10  9  1  0  0  0
  9  8  1  0  0  0
  8  7  1  0  0  0
  7  6  1  0  0  0
  6  5  1  0  0  0
  2  1  1  0  0  0
  1 23  1  0  0  0
 30 32  1  0  0  0
 32 35  1  0  0  0
 39 40  1  0  0  0
 40 41  1  0  0  0
 41 42  1  0  0  0
 42 43  1  0  0  0
 43 44  1  0  0  0
 44 45  1  0  0  0
 45 46  1  0  0  0
 46 47  1  0  0  0
 47 48  2  0  0  0
 48 49  1  0  0  0
 49 50  1  0  0  0
 50 51  1  0  0  0
 51 52  1  0  0  0
 52 53  1  0  0  0
 53 54  1  0  0  0
 54 55  1  0  0  0
 55 56  1  0  0  0
M  CHG 1  26  -1
M  END
> <minimizedAffinity>
-8.73061

> <CNNscore>
0.2709930837

> <CNNaffinity>
7.1113901138

> <CNN_VS>
1.9271374941

> <CNNaffinity_variance>
0.7622480989

$$$$
