/media/chris/experiments/cd1a-new-docking/inputs/ligands/7sh4_ligand.pdb


 56 55  0  0  0  0  0  0  0  0999 V2000
  -36.9399   62.4419   63.4694 C   0  0  0  0  0  0  0  0  0  0  0  0
  -37.9894   61.6253   62.7697 C   0  0  0  0  0  0  0  0  0  0  0  0
  -39.0436   61.4998   63.7475 O   0  0  0  0  0  0  0  0  0  0  0  0
  -40.1641   59.6268   64.2327 O   0  0  0  0  0  0  0  0  0  0  0  0
  -39.9740   60.5731   63.5171 C   0  0  0  0  0  0  0  0  0  0  0  0
  -40.8203   60.9369   62.3312 C   0  0  0  0  0  0  0  0  0  0  0  0
  -42.3149   60.8119   62.5736 C   0  0  0  0  0  0  0  0  0  0  0  0
  -42.8659   61.9330   63.4294 C   0  0  0  0  0  0  0  0  0  0  0  0
  -43.6412   61.4644   64.6399 C   0  0  0  0  0  0  0  0  0  0  0  0
  -45.0938   61.1613   64.3332 C   0  0  0  0  0  0  0  0  0  0  0  0
  -45.6716   60.0760   65.2083 C   0  0  0  0  0  0  0  0  0  0  0  0
  -47.0814   59.7045   64.8314 C   0  0  0  0  0  0  0  0  0  0  0  0
  -47.7509   60.7218   63.9341 C   0  0  0  0  0  0  0  0  0  0  0  0
  -49.2521   60.5318   63.8522 C   0  0  0  0  0  0  0  0  0  0  0  0
  -49.7429   60.0661   62.4974 C   0  0  0  0  0  0  0  0  0  0  0  0
  -50.3555   58.6702   62.5107 C   0  0  0  0  0  0  0  0  0  0  0  0
  -50.5422   58.0661   61.1321 C   0  0  0  0  0  0  0  0  0  0  0  0
  -49.6992   58.7321   60.0639 C   0  0  0  0  0  0  0  0  0  0  0  0
  -49.4898   57.8702   58.8265 C   0  0  0  0  0  0  0  0  0  0  0  0
  -48.4220   56.8050   59.0015 C   0  0  0  0  0  0  0  0  0  0  0  0
  -47.1814   58.0124   57.1743 C   0  0  0  0  0  0  0  0  0  0  0  0
  -47.0676   57.1623   58.4194 C   0  0  0  0  0  0  0  0  0  0  0  0
  -36.4838   63.6118   62.6357 C   0  0  0  0  0  0  0  0  0  0  0  0
  -35.0603   63.4980   62.4140 O   0  0  0  0  0  0  0  0  0  0  0  0
  -34.1340   64.7552   62.0629 P   0  0  0  0  0  0  0  0  0  0  0  0
  -32.9571   64.2624   61.3152 O   0  0  0  0  0  0  0  0  0  0  0  0
  -34.9866   65.7978   61.4425 O   0  0  0  0  0  0  0  0  0  0  0  0
  -35.3092   65.4827   60.5838 H   0  0  0  0  0  0  0  0  0  0  0  0
  -33.6254   65.3107   63.4685 O   0  0  0  0  0  0  0  0  0  0  0  0
  -33.1710   64.3940   64.4849 C   0  0  0  0  0  0  0  0  0  0  0  0
  -32.8045   66.5863   65.3803 O   0  0  0  0  0  0  0  0  0  0  0  0
  -32.7706   65.1925   65.7011 C   0  0  0  0  0  0  0  0  0  0  0  0
  -32.2329   66.7560   64.6152 H   0  0  0  0  0  0  0  0  0  0  0  0
  -33.4205   63.6006   67.3930 O   0  0  0  0  0  0  0  0  0  0  0  0
  -33.6559   64.9100   66.8912 C   0  0  0  0  0  0  0  0  0  0  0  0
  -33.9973   63.4381   68.1557 H   0  0  0  0  0  0  0  0  0  0  0  0
  -35.8237   61.5575   63.8183 O   0  0  0  0  0  0  0  0  0  0  0  0
  -35.8712   62.2925   65.9438 O   0  0  0  0  0  0  0  0  0  0  0  0
  -35.3860   61.6000   65.0914 C   0  0  0  0  0  0  0  0  0  0  0  0
  -34.2361   60.6685   65.3201 C   0  0  0  0  0  0  0  0  0  0  0  0
  -33.8705   59.9092   64.0486 C   0  0  0  0  0  0  0  0  0  0  0  0
  -33.9037   58.3975   64.2025 C   0  0  0  0  0  0  0  0  0  0  0  0
  -35.3125   57.8152   64.2019 C   0  0  0  0  0  0  0  0  0  0  0  0
  -36.1922   58.3296   63.0776 C   0  0  0  0  0  0  0  0  0  0  0  0
  -37.5759   57.6780   63.0030 C   0  0  0  0  0  0  0  0  0  0  0  0
  -38.1147   57.4529   61.5886 C   0  0  0  0  0  0  0  0  0  0  0  0
  -37.8735   58.6344   60.6976 C   0  0  0  0  0  0  0  0  0  0  0  0
  -38.5299   58.9353   59.5939 C   0  0  0  0  0  0  0  0  0  0  0  0
  -39.6600   58.1562   58.9989 C   0  0  0  0  0  0  0  0  0  0  0  0
  -40.9786   58.3926   59.7296 C   0  0  0  0  0  0  0  0  0  0  0  0
  -41.4995   57.1668   60.4592 C   0  0  0  0  0  0  0  0  0  0  0  0
  -41.7596   57.4015   61.9372 C   0  0  0  0  0  0  0  0  0  0  0  0
  -41.3236   56.2612   62.8422 C   0  0  0  0  0  0  0  0  0  0  0  0
  -42.0757   56.2152   64.1635 C   0  0  0  0  0  0  0  0  0  0  0  0
  -42.8830   57.4626   64.4634 C   0  0  0  0  0  0  0  0  0  0  0  0
  -42.6979   57.9500   65.8733 C   0  0  0  0  0  0  0  0  0  0  0  0
 21 22  1  0  0  0
  4  5  2  0  0  0
 25 24  1  0  0  0
 25 26  2  0  0  0
 25 27  1  0  0  0
 25 29  1  0  0  0
 22 20  1  0  0  0
  3  5  1  0  0  0
  3  2  1  0  0  0
 20 19  1  0  0  0
 24 23  1  0  0  0
 19 18  1  0  0  0
 18 17  1  0  0  0
 27 28  1  0  0  0
 17 16  1  0  0  0
 29 30  1  0  0  0
 16 15  1  0  0  0
 34 35  1  0  0  0
 34 36  1  0  0  0
 15 14  1  0  0  0
 31 32  1  0  0  0
 31 33  1  0  0  0
 14 13  1  0  0  0
 37  1  1  0  0  0
 37 39  1  0  0  0
 13 12  1  0  0  0
 38 39  2  0  0  0
 12 11  1  0  0  0
 11 10  1  0  0  0
 10  9  1  0  0  0
  9  8  1  0  0  0
  8  7  1  0  0  0
  7  6  1  0  0  0
  6  5  1  0  0  0
  2  1  1  0  0  0
  1 23  1  0  0  0
 30 32  1  0  0  0
 32 35  1  0  0  0
 39 40  1  0  0  0
 40 41  1  0  0  0
 41 42  1  0  0  0
 42 43  1  0  0  0
 43 44  1  0  0  0
 44 45  1  0  0  0
 45 46  1  0  0  0
 46 47  1  0  0  0
 47 48  2  0  0  0
 48 49  1  0  0  0
 49 50  1  0  0  0
 50 51  1  0  0  0
 51 52  1  0  0  0
 52 53  1  0  0  0
 53 54  1  0  0  0
 54 55  1  0  0  0
 55 56  1  0  0  0
M  CHG 1  26  -1
M  END
> <minimizedAffinity>
-8.45495

> <CNNscore>
0.4455036819

> <CNNaffinity>
7.4881505966

> <CNN_VS>
3.3359987736

> <CNNaffinity_variance>
0.9132078290

$$$$
/media/chris/experiments/cd1a-new-docking/inputs/ligands/7sh4_ligand.pdb


 56 55  0  0  0  0  0  0  0  0999 V2000
  -41.8197   57.5966   62.9619 C   0  0  0  0  0  0  0  0  0  0  0  0
  -43.2116   57.9497   63.4041 C   0  0  0  0  0  0  0  0  0  0  0  0
  -43.3915   57.1992   64.6237 O   0  0  0  0  0  0  0  0  0  0  0  0
  -45.1255   57.1832   66.0352 O   0  0  0  0  0  0  0  0  0  0  0  0
  -44.1751   57.7411   65.5565 C   0  0  0  0  0  0  0  0  0  0  0  0
  -43.6408   59.0693   66.0093 C   0  0  0  0  0  0  0  0  0  0  0  0
  -44.6909   60.1640   66.0956 C   0  0  0  0  0  0  0  0  0  0  0  0
  -44.8608   60.9173   64.7931 C   0  0  0  0  0  0  0  0  0  0  0  0
  -46.2666   60.8847   64.2377 C   0  0  0  0  0  0  0  0  0  0  0  0
  -47.1042   59.7586   64.8089 C   0  0  0  0  0  0  0  0  0  0  0  0
  -48.2839   60.2454   65.6143 C   0  0  0  0  0  0  0  0  0  0  0  0
  -49.3790   59.2186   65.7335 C   0  0  0  0  0  0  0  0  0  0  0  0
  -50.7656   59.7962   65.5548 C   0  0  0  0  0  0  0  0  0  0  0  0
  -50.9369   60.5075   64.2278 C   0  0  0  0  0  0  0  0  0  0  0  0
  -51.0448   59.5774   63.0376 C   0  0  0  0  0  0  0  0  0  0  0  0
  -50.1385   59.9597   61.8729 C   0  0  0  0  0  0  0  0  0  0  0  0
  -49.3865   58.7900   61.2676 C   0  0  0  0  0  0  0  0  0  0  0  0
  -50.1605   58.0751   60.1789 C   0  0  0  0  0  0  0  0  0  0  0  0
  -49.3253   57.7526   58.9477 C   0  0  0  0  0  0  0  0  0  0  0  0
  -47.9658   57.1604   59.2737 C   0  0  0  0  0  0  0  0  0  0  0  0
  -47.1126   58.3602   57.2322 C   0  0  0  0  0  0  0  0  0  0  0  0
  -46.9882   57.1385   58.1141 C   0  0  0  0  0  0  0  0  0  0  0  0
  -40.7916   57.9211   64.0152 C   0  0  0  0  0  0  0  0  0  0  0  0
  -40.1374   59.1599   63.6605 O   0  0  0  0  0  0  0  0  0  0  0  0
  -40.3059   60.5045   64.5123 P   0  0  0  0  0  0  0  0  0  0  0  0
  -41.4629   61.2486   63.9695 O   0  0  0  0  0  0  0  0  0  0  0  0
  -40.3024   60.1433   65.9505 O   0  0  0  0  0  0  0  0  0  0  0  0
  -41.0944   59.6220   66.1547 H   0  0  0  0  0  0  0  0  0  0  0  0
  -38.9914   61.3581   64.2184 O   0  0  0  0  0  0  0  0  0  0  0  0
  -37.6933   60.8167   64.5370 C   0  0  0  0  0  0  0  0  0  0  0  0
  -35.3841   61.4494   64.6347 O   0  0  0  0  0  0  0  0  0  0  0  0
  -36.7194   61.9618   64.6686 C   0  0  0  0  0  0  0  0  0  0  0  0
  -35.2758   60.7829   65.3310 H   0  0  0  0  0  0  0  0  0  0  0  0
  -37.0051   62.3877   62.3116 O   0  0  0  0  0  0  0  0  0  0  0  0
  -36.9059   63.0019   63.5901 C   0  0  0  0  0  0  0  0  0  0  0  0
  -37.1244   63.0706   61.6331 H   0  0  0  0  0  0  0  0  0  0  0  0
  -41.5442   58.2954   61.7027 O   0  0  0  0  0  0  0  0  0  0  0  0
  -41.4620   56.3351   60.6024 O   0  0  0  0  0  0  0  0  0  0  0  0
  -41.3820   57.5331   60.6042 C   0  0  0  0  0  0  0  0  0  0  0  0
  -41.1091   58.3582   59.3847 C   0  0  0  0  0  0  0  0  0  0  0  0
  -39.6386   58.2940   58.9844 C   0  0  0  0  0  0  0  0  0  0  0  0
  -38.7547   59.2848   59.7241 C   0  0  0  0  0  0  0  0  0  0  0  0
  -37.5937   58.6313   60.4650 C   0  0  0  0  0  0  0  0  0  0  0  0
  -38.0221   57.6519   61.5418 C   0  0  0  0  0  0  0  0  0  0  0  0
  -37.0825   57.5818   62.7489 C   0  0  0  0  0  0  0  0  0  0  0  0
  -35.8050   58.4155   62.6295 C   0  0  0  0  0  0  0  0  0  0  0  0
  -34.5748   57.6084   62.9182 C   0  0  0  0  0  0  0  0  0  0  0  0
  -33.3251   58.0229   62.8414 C   0  0  0  0  0  0  0  0  0  0  0  0
  -32.8724   59.3939   62.4493 C   0  0  0  0  0  0  0  0  0  0  0  0
  -31.4342   59.6760   62.8740 C   0  0  0  0  0  0  0  0  0  0  0  0
  -30.7552   60.7547   62.0484 C   0  0  0  0  0  0  0  0  0  0  0  0
  -29.2423   60.6271   62.0042 C   0  0  0  0  0  0  0  0  0  0  0  0
  -28.5028   61.9474   61.8639 C   0  0  0  0  0  0  0  0  0  0  0  0
  -29.4219   63.1594   61.8661 C   0  0  0  0  0  0  0  0  0  0  0  0
  -28.7461   64.4517   62.2795 C   0  0  0  0  0  0  0  0  0  0  0  0
  -29.1129   64.8798   63.6730 C   0  0  0  0  0  0  0  0  0  0  0  0
 21 22  1  0  0  0
  4  5  2  0  0  0
 25 24  1  0  0  0
 25 26  2  0  0  0
 25 27  1  0  0  0
 25 29  1  0  0  0
 22 20  1  0  0  0
  3  5  1  0  0  0
  3  2  1  0  0  0
 20 19  1  0  0  0
 24 23  1  0  0  0
 19 18  1  0  0  0
 18 17  1  0  0  0
 27 28  1  0  0  0
 17 16  1  0  0  0
 29 30  1  0  0  0
 16 15  1  0  0  0
 34 35  1  0  0  0
 34 36  1  0  0  0
 15 14  1  0  0  0
 31 32  1  0  0  0
 31 33  1  0  0  0
 14 13  1  0  0  0
 37  1  1  0  0  0
 37 39  1  0  0  0
 13 12  1  0  0  0
 38 39  2  0  0  0
 12 11  1  0  0  0
 11 10  1  0  0  0
 10  9  1  0  0  0
  9  8  1  0  0  0
  8  7  1  0  0  0
  7  6  1  0  0  0
  6  5  1  0  0  0
  2  1  1  0  0  0
  1 23  1  0  0  0
 30 32  1  0  0  0
 32 35  1  0  0  0
 39 40  1  0  0  0
 40 41  1  0  0  0
 41 42  1  0  0  0
 42 43  1  0  0  0
 43 44  1  0  0  0
 44 45  1  0  0  0
 45 46  1  0  0  0
 46 47  1  0  0  0
 47 48  2  0  0  0
 48 49  1  0  0  0
 49 50  1  0  0  0
 50 51  1  0  0  0
 51 52  1  0  0  0
 52 53  1  0  0  0
 53 54  1  0  0  0
 54 55  1  0  0  0
 55 56  1  0  0  0
M  CHG 1  26  -1
M  END
> <minimizedAffinity>
-8.43170

> <CNNscore>
0.4075082541

> <CNNaffinity>
6.9323410988

> <CNN_VS>
2.8249862194

> <CNNaffinity_variance>
0.9522280693

$$$$
/media/chris/experiments/cd1a-new-docking/inputs/ligands/7sh4_ligand.pdb


 56 55  0  0  0  0  0  0  0  0999 V2000
  -35.6110   62.5668   64.5887 C   0  0  0  0  0  0  0  0  0  0  0  0
  -36.8037   62.2097   65.4298 C   0  0  0  0  0  0  0  0  0  0  0  0
  -37.4740   61.1836   64.6675 O   0  0  0  0  0  0  0  0  0  0  0  0
  -39.2320   61.1083   66.0469 O   0  0  0  0  0  0  0  0  0  0  0  0
  -38.7568   60.9593   64.9535 C   0  0  0  0  0  0  0  0  0  0  0  0
  -39.5381   60.6240   63.7157 C   0  0  0  0  0  0  0  0  0  0  0  0
  -41.0447   60.6343   63.9110 C   0  0  0  0  0  0  0  0  0  0  0  0
  -41.7725   61.3875   62.8174 C   0  0  0  0  0  0  0  0  0  0  0  0
  -43.2796   61.3325   62.9251 C   0  0  0  0  0  0  0  0  0  0  0  0
  -43.7648   61.0893   64.3398 C   0  0  0  0  0  0  0  0  0  0  0  0
  -45.2538   61.2777   64.4976 C   0  0  0  0  0  0  0  0  0  0  0  0
  -46.0172   59.9799   64.4718 C   0  0  0  0  0  0  0  0  0  0  0  0
  -47.4753   60.1336   64.8438 C   0  0  0  0  0  0  0  0  0  0  0  0
  -48.3330   60.5808   63.6772 C   0  0  0  0  0  0  0  0  0  0  0  0
  -49.8225   60.4871   63.9338 C   0  0  0  0  0  0  0  0  0  0  0  0
  -50.4313   59.1446   63.5448 C   0  0  0  0  0  0  0  0  0  0  0  0
  -49.6377   58.3888   62.4964 C   0  0  0  0  0  0  0  0  0  0  0  0
  -50.3460   58.2896   61.1609 C   0  0  0  0  0  0  0  0  0  0  0  0
  -49.5512   58.8782   60.0035 C   0  0  0  0  0  0  0  0  0  0  0  0
  -49.3000   57.8932   58.8757 C   0  0  0  0  0  0  0  0  0  0  0  0
  -47.2370   58.4161   57.5317 C   0  0  0  0  0  0  0  0  0  0  0  0
  -47.8388   57.5688   58.6299 C   0  0  0  0  0  0  0  0  0  0  0  0
  -35.7666   63.9124   63.9279 C   0  0  0  0  0  0  0  0  0  0  0  0
  -34.4730   64.3514   63.4563 O   0  0  0  0  0  0  0  0  0  0  0  0
  -33.2491   64.6581   64.4412 P   0  0  0  0  0  0  0  0  0  0  0  0
  -33.7979   65.2320   65.6888 O   0  0  0  0  0  0  0  0  0  0  0  0
  -32.4092   63.4391   64.5272 O   0  0  0  0  0  0  0  0  0  0  0  0
  -32.9080   62.7332   64.9673 H   0  0  0  0  0  0  0  0  0  0  0  0
  -32.3951   65.7912   63.7135 O   0  0  0  0  0  0  0  0  0  0  0  0
  -31.1116   65.4704   63.1393 C   0  0  0  0  0  0  0  0  0  0  0  0
  -29.8167   65.7205   61.1386 O   0  0  0  0  0  0  0  0  0  0  0  0
  -31.1346   65.8524   61.6796 C   0  0  0  0  0  0  0  0  0  0  0  0
  -29.1987   66.2586   61.6575 H   0  0  0  0  0  0  0  0  0  0  0  0
  -32.2106   63.7089   61.4229 O   0  0  0  0  0  0  0  0  0  0  0  0
  -32.1107   65.0205   60.8829 C   0  0  0  0  0  0  0  0  0  0  0  0
  -32.8411   63.1906   60.8987 H   0  0  0  0  0  0  0  0  0  0  0  0
  -35.4049   61.5003   63.6038 O   0  0  0  0  0  0  0  0  0  0  0  0
  -33.3566   61.1209   62.7547 O   0  0  0  0  0  0  0  0  0  0  0  0
  -34.1947   60.9092   63.5881 C   0  0  0  0  0  0  0  0  0  0  0  0
  -34.0134   59.9726   64.7422 C   0  0  0  0  0  0  0  0  0  0  0  0
  -33.9357   58.5218   64.2776 C   0  0  0  0  0  0  0  0  0  0  0  0
  -35.2917   57.8745   64.0485 C   0  0  0  0  0  0  0  0  0  0  0  0
  -35.7668   57.9500   62.6020 C   0  0  0  0  0  0  0  0  0  0  0  0
  -37.2229   58.3490   62.4509 C   0  0  0  0  0  0  0  0  0  0  0  0
  -37.8897   57.8502   61.1658 C   0  0  0  0  0  0  0  0  0  0  0  0
  -38.0193   58.8918   60.0524 C   0  0  0  0  0  0  0  0  0  0  0  0
  -39.2109   59.7809   60.2466 C   0  0  0  0  0  0  0  0  0  0  0  0
  -40.4586   59.5088   59.9165 C   0  0  0  0  0  0  0  0  0  0  0  0
  -40.9474   58.2477   59.2771 C   0  0  0  0  0  0  0  0  0  0  0  0
  -41.4229   57.2217   60.3018 C   0  0  0  0  0  0  0  0  0  0  0  0
  -41.7352   57.8189   61.6627 C   0  0  0  0  0  0  0  0  0  0  0  0
  -41.0429   57.1092   62.8135 C   0  0  0  0  0  0  0  0  0  0  0  0
  -41.9863   56.5282   63.8537 C   0  0  0  0  0  0  0  0  0  0  0  0
  -43.1488   57.4469   64.1974 C   0  0  0  0  0  0  0  0  0  0  0  0
  -43.3790   57.6292   65.6845 C   0  0  0  0  0  0  0  0  0  0  0  0
  -42.2025   58.2516   66.3830 C   0  0  0  0  0  0  0  0  0  0  0  0
 21 22  1  0  0  0
  4  5  2  0  0  0
 25 24  1  0  0  0
 25 26  2  0  0  0
 25 27  1  0  0  0
 25 29  1  0  0  0
 22 20  1  0  0  0
  3  5  1  0  0  0
  3  2  1  0  0  0
 20 19  1  0  0  0
 24 23  1  0  0  0
 19 18  1  0  0  0
 18 17  1  0  0  0
 27 28  1  0  0  0
 17 16  1  0  0  0
 29 30  1  0  0  0
 16 15  1  0  0  0
 34 35  1  0  0  0
 34 36  1  0  0  0
 15 14  1  0  0  0
 31 32  1  0  0  0
 31 33  1  0  0  0
 14 13  1  0  0  0
 37  1  1  0  0  0
 37 39  1  0  0  0
 13 12  1  0  0  0
 38 39  2  0  0  0
 12 11  1  0  0  0
 11 10  1  0  0  0
 10  9  1  0  0  0
  9  8  1  0  0  0
  8  7  1  0  0  0
  7  6  1  0  0  0
  6  5  1  0  0  0
  2  1  1  0  0  0
  1 23  1  0  0  0
 30 32  1  0  0  0
 32 35  1  0  0  0
 39 40  1  0  0  0
 40 41  1  0  0  0
 41 42  1  0  0  0
 42 43  1  0  0  0
 43 44  1  0  0  0
 44 45  1  0  0  0
 45 46  1  0  0  0
 46 47  1  0  0  0
 47 48  2  0  0  0
 48 49  1  0  0  0
 49 50  1  0  0  0
 50 51  1  0  0  0
 51 52  1  0  0  0
 52 53  1  0  0  0
 53 54  1  0  0  0
 54 55  1  0  0  0
 55 56  1  0  0  0
M  CHG 1  26  -1
M  END
> <minimizedAffinity>
-7.69110

> <CNNscore>
0.3504585326

> <CNNaffinity>
7.2545785904

> <CNN_VS>
2.5424289703

> <CNNaffinity_variance>
0.8846584558

$$$$
/media/chris/experiments/cd1a-new-docking/inputs/ligands/7sh4_ligand.pdb


 56 55  0  0  0  0  0  0  0  0999 V2000
  -40.4359   59.7403   64.4045 C   0  0  0  0  0  0  0  0  0  0  0  0
  -41.0926   59.0495   65.5661 C   0  0  0  0  0  0  0  0  0  0  0  0
  -41.2461   57.6855   65.1199 O   0  0  0  0  0  0  0  0  0  0  0  0
  -42.0348   57.0210   63.1361 O   0  0  0  0  0  0  0  0  0  0  0  0
  -42.2228   57.4421   64.2456 C   0  0  0  0  0  0  0  0  0  0  0  0
  -43.5732   57.6423   64.8711 C   0  0  0  0  0  0  0  0  0  0  0  0
  -44.4422   58.6642   64.1577 C   0  0  0  0  0  0  0  0  0  0  0  0
  -45.2650   59.5029   65.1130 C   0  0  0  0  0  0  0  0  0  0  0  0
  -46.2352   60.4427   64.4338 C   0  0  0  0  0  0  0  0  0  0  0  0
  -47.6772   60.1919   64.8259 C   0  0  0  0  0  0  0  0  0  0  0  0
  -47.9786   58.7354   65.0812 C   0  0  0  0  0  0  0  0  0  0  0  0
  -49.4543   58.4383   65.1224 C   0  0  0  0  0  0  0  0  0  0  0  0
  -50.2827   59.5844   65.6595 C   0  0  0  0  0  0  0  0  0  0  0  0
  -51.1414   60.2354   64.5942 C   0  0  0  0  0  0  0  0  0  0  0  0
  -51.1758   59.4807   63.2817 C   0  0  0  0  0  0  0  0  0  0  0  0
  -50.4096   60.1666   62.1564 C   0  0  0  0  0  0  0  0  0  0  0  0
  -49.3632   59.2878   61.4985 C   0  0  0  0  0  0  0  0  0  0  0  0
  -49.8179   58.6936   60.1811 C   0  0  0  0  0  0  0  0  0  0  0  0
  -48.7118   58.6012   59.1393 C   0  0  0  0  0  0  0  0  0  0  0  0
  -48.0537   57.2345   59.0713 C   0  0  0  0  0  0  0  0  0  0  0  0
  -46.9251   58.2774   57.0778 C   0  0  0  0  0  0  0  0  0  0  0  0
  -46.9443   57.1146   58.0438 C   0  0  0  0  0  0  0  0  0  0  0  0
  -38.9328   59.7270   64.5141 C   0  0  0  0  0  0  0  0  0  0  0  0
  -38.4607   61.0901   64.6011 O   0  0  0  0  0  0  0  0  0  0  0  0
  -37.2513   61.5301   65.5528 P   0  0  0  0  0  0  0  0  0  0  0  0
  -37.5573   61.0702   66.9245 O   0  0  0  0  0  0  0  0  0  0  0  0
  -35.9836   61.0916   64.9207 O   0  0  0  0  0  0  0  0  0  0  0  0
  -35.9468   60.1225   64.9085 H   0  0  0  0  0  0  0  0  0  0  0  0
  -37.2727   63.1246   65.5531 O   0  0  0  0  0  0  0  0  0  0  0  0
  -36.0567   63.8625   65.3153 C   0  0  0  0  0  0  0  0  0  0  0  0
  -36.3786   63.9022   67.6896 O   0  0  0  0  0  0  0  0  0  0  0  0
  -35.4501   64.2226   66.6493 C   0  0  0  0  0  0  0  0  0  0  0  0
  -37.2190   64.3574   67.5244 H   0  0  0  0  0  0  0  0  0  0  0  0
  -33.1618   64.4347   67.3823 O   0  0  0  0  0  0  0  0  0  0  0  0
  -34.1348   63.5217   66.8907 C   0  0  0  0  0  0  0  0  0  0  0  0
  -32.3253   63.9667   67.5310 H   0  0  0  0  0  0  0  0  0  0  0  0
  -40.9610   61.1069   64.3233 O   0  0  0  0  0  0  0  0  0  0  0  0
  -42.7919   62.1606   63.5500 O   0  0  0  0  0  0  0  0  0  0  0  0
  -41.9296   61.3359   63.4158 C   0  0  0  0  0  0  0  0  0  0  0  0
  -41.7915   60.4536   62.2138 C   0  0  0  0  0  0  0  0  0  0  0  0
  -41.7056   61.2700   60.9282 C   0  0  0  0  0  0  0  0  0  0  0  0
  -41.1125   60.5094   59.7536 C   0  0  0  0  0  0  0  0  0  0  0  0
  -41.1002   58.9977   59.9497 C   0  0  0  0  0  0  0  0  0  0  0  0
  -40.1055   58.2689   59.0654 C   0  0  0  0  0  0  0  0  0  0  0  0
  -38.6383   58.6056   59.3458 C   0  0  0  0  0  0  0  0  0  0  0  0
  -38.3102   58.9229   60.8063 C   0  0  0  0  0  0  0  0  0  0  0  0
  -38.0193   57.6855   61.6016 C   0  0  0  0  0  0  0  0  0  0  0  0
  -36.9877   57.4863   62.3989 C   0  0  0  0  0  0  0  0  0  0  0  0
  -35.8873   58.4605   62.6786 C   0  0  0  0  0  0  0  0  0  0  0  0
  -34.5609   57.7696   62.9815 C   0  0  0  0  0  0  0  0  0  0  0  0
  -33.8679   58.2987   64.2248 C   0  0  0  0  0  0  0  0  0  0  0  0
  -32.5186   58.9379   63.9456 C   0  0  0  0  0  0  0  0  0  0  0  0
  -32.5785   60.1776   63.0686 C   0  0  0  0  0  0  0  0  0  0  0  0
  -31.8085   60.0347   61.7646 C   0  0  0  0  0  0  0  0  0  0  0  0
  -30.8360   61.1645   61.4895 C   0  0  0  0  0  0  0  0  0  0  0  0
  -29.4128   60.7957   61.8026 C   0  0  0  0  0  0  0  0  0  0  0  0
 21 22  1  0  0  0
  4  5  2  0  0  0
 25 24  1  0  0  0
 25 26  2  0  0  0
 25 27  1  0  0  0
 25 29  1  0  0  0
 22 20  1  0  0  0
  3  5  1  0  0  0
  3  2  1  0  0  0
 20 19  1  0  0  0
 24 23  1  0  0  0
 19 18  1  0  0  0
 18 17  1  0  0  0
 27 28  1  0  0  0
 17 16  1  0  0  0
 29 30  1  0  0  0
 16 15  1  0  0  0
 34 35  1  0  0  0
 34 36  1  0  0  0
 15 14  1  0  0  0
 31 32  1  0  0  0
 31 33  1  0  0  0
 14 13  1  0  0  0
 37  1  1  0  0  0
 37 39  1  0  0  0
 13 12  1  0  0  0
 38 39  2  0  0  0
 12 11  1  0  0  0
 11 10  1  0  0  0
 10  9  1  0  0  0
  9  8  1  0  0  0
  8  7  1  0  0  0
  7  6  1  0  0  0
  6  5  1  0  0  0
  2  1  1  0  0  0
  1 23  1  0  0  0
 30 32  1  0  0  0
 32 35  1  0  0  0
 39 40  1  0  0  0
 40 41  1  0  0  0
 41 42  1  0  0  0
 42 43  1  0  0  0
 43 44  1  0  0  0
 44 45  1  0  0  0
 45 46  1  0  0  0
 46 47  1  0  0  0
 47 48  2  0  0  0
 48 49  1  0  0  0
 49 50  1  0  0  0
 50 51  1  0  0  0
 51 52  1  0  0  0
 52 53  1  0  0  0
 53 54  1  0  0  0
 54 55  1  0  0  0
 55 56  1  0  0  0
M  CHG 1  26  -1
M  END
> <minimizedAffinity>
-8.88087

> <CNNscore>
0.3476009369

> <CNNaffinity>
7.2239775658

> <CNN_VS>
2.5110614300

> <CNNaffinity_variance>
1.2153850794

$$$$
/media/chris/experiments/cd1a-new-docking/inputs/ligands/7sh4_ligand.pdb


 56 55  0  0  0  0  0  0  0  0999 V2000
  -41.2208   58.1307   63.3768 C   0  0  0  0  0  0  0  0  0  0  0  0
  -42.5038   58.5796   64.0172 C   0  0  0  0  0  0  0  0  0  0  0  0
  -42.8459   59.7872   63.3045 O   0  0  0  0  0  0  0  0  0  0  0  0
  -42.2370   61.9001   63.7097 O   0  0  0  0  0  0  0  0  0  0  0  0
  -42.8639   60.9195   64.0082 C   0  0  0  0  0  0  0  0  0  0  0  0
  -43.8558   60.8436   65.1330 C   0  0  0  0  0  0  0  0  0  0  0  0
  -45.3042   60.7733   64.6794 C   0  0  0  0  0  0  0  0  0  0  0  0
  -46.1920   60.0416   65.6638 C   0  0  0  0  0  0  0  0  0  0  0  0
  -46.1051   58.5349   65.5748 C   0  0  0  0  0  0  0  0  0  0  0  0
  -47.4330   57.8483   65.8223 C   0  0  0  0  0  0  0  0  0  0  0  0
  -48.5101   58.2714   64.8536 C   0  0  0  0  0  0  0  0  0  0  0  0
  -49.7352   58.8180   65.5378 C   0  0  0  0  0  0  0  0  0  0  0  0
  -50.3247   60.0239   64.8403 C   0  0  0  0  0  0  0  0  0  0  0  0
  -49.3889   60.6179   63.8070 C   0  0  0  0  0  0  0  0  0  0  0  0
  -49.5345   60.0179   62.4242 C   0  0  0  0  0  0  0  0  0  0  0  0
  -50.9157   59.4350   62.1479 C   0  0  0  0  0  0  0  0  0  0  0  0
  -50.9169   57.9363   61.9156 C   0  0  0  0  0  0  0  0  0  0  0  0
  -49.8132   57.4700   60.9884 C   0  0  0  0  0  0  0  0  0  0  0  0
  -49.9450   58.0005   59.5676 C   0  0  0  0  0  0  0  0  0  0  0  0
  -48.6751   58.6428   59.0385 C   0  0  0  0  0  0  0  0  0  0  0  0
  -47.0000   58.2105   57.2101 C   0  0  0  0  0  0  0  0  0  0  0  0
  -47.6677   57.6706   58.4546 C   0  0  0  0  0  0  0  0  0  0  0  0
  -40.0258   58.3972   64.2557 C   0  0  0  0  0  0  0  0  0  0  0  0
  -39.5663   59.7468   64.0192 O   0  0  0  0  0  0  0  0  0  0  0  0
  -38.8882   60.6442   65.1581 P   0  0  0  0  0  0  0  0  0  0  0  0
  -39.9535   61.0995   66.0772 O   0  0  0  0  0  0  0  0  0  0  0  0
  -37.7396   59.8908   65.7165 O   0  0  0  0  0  0  0  0  0  0  0  0
  -38.0645   59.1052   66.1834 H   0  0  0  0  0  0  0  0  0  0  0  0
  -38.3131   61.9241   64.4006 O   0  0  0  0  0  0  0  0  0  0  0  0
  -37.0552   61.8430   63.6998 C   0  0  0  0  0  0  0  0  0  0  0  0
  -36.8919   64.2329   63.7616 O   0  0  0  0  0  0  0  0  0  0  0  0
  -36.2079   63.0242   64.1050 C   0  0  0  0  0  0  0  0  0  0  0  0
  -37.1008   64.2284   62.8145 H   0  0  0  0  0  0  0  0  0  0  0  0
  -36.7738   63.8439   66.3018 O   0  0  0  0  0  0  0  0  0  0  0  0
  -35.8744   63.0143   65.5775 C   0  0  0  0  0  0  0  0  0  0  0  0
  -36.5440   63.8247   67.2440 H   0  0  0  0  0  0  0  0  0  0  0  0
  -41.0962   58.7968   62.0765 O   0  0  0  0  0  0  0  0  0  0  0  0
  -41.2845   56.8641   60.9411 O   0  0  0  0  0  0  0  0  0  0  0  0
  -40.9203   58.0067   61.0001 C   0  0  0  0  0  0  0  0  0  0  0  0
  -40.2341   58.7280   59.8815 C   0  0  0  0  0  0  0  0  0  0  0  0
  -38.7659   58.3280   59.7762 C   0  0  0  0  0  0  0  0  0  0  0  0
  -37.8890   58.9072   60.8742 C   0  0  0  0  0  0  0  0  0  0  0  0
  -37.2898   57.8517   61.7966 C   0  0  0  0  0  0  0  0  0  0  0  0
  -36.3656   58.4147   62.8602 C   0  0  0  0  0  0  0  0  0  0  0  0
  -35.0942   57.5950   63.0976 C   0  0  0  0  0  0  0  0  0  0  0  0
  -33.8506   58.0922   62.3574 C   0  0  0  0  0  0  0  0  0  0  0  0
  -32.8027   58.6087   63.2971 C   0  0  0  0  0  0  0  0  0  0  0  0
  -32.0234   59.6559   63.1089 C   0  0  0  0  0  0  0  0  0  0  0  0
  -32.0242   60.5528   61.9115 C   0  0  0  0  0  0  0  0  0  0  0  0
  -30.6254   60.7600   61.3380 C   0  0  0  0  0  0  0  0  0  0  0  0
  -29.5139   60.5496   62.3512 C   0  0  0  0  0  0  0  0  0  0  0  0
  -28.3255   61.4747   62.1536 C   0  0  0  0  0  0  0  0  0  0  0  0
  -28.6885   62.8764   61.6922 C   0  0  0  0  0  0  0  0  0  0  0  0
  -29.1931   63.7715   62.8138 C   0  0  0  0  0  0  0  0  0  0  0  0
  -30.6292   64.2272   62.6476 C   0  0  0  0  0  0  0  0  0  0  0  0
  -31.5010   63.8374   63.8084 C   0  0  0  0  0  0  0  0  0  0  0  0
 21 22  1  0  0  0
  4  5  2  0  0  0
 25 24  1  0  0  0
 25 26  2  0  0  0
 25 27  1  0  0  0
 25 29  1  0  0  0
 22 20  1  0  0  0
  3  5  1  0  0  0
  3  2  1  0  0  0
 20 19  1  0  0  0
 24 23  1  0  0  0
 19 18  1  0  0  0
 18 17  1  0  0  0
 27 28  1  0  0  0
 17 16  1  0  0  0
 29 30  1  0  0  0
 16 15  1  0  0  0
 34 35  1  0  0  0
 34 36  1  0  0  0
 15 14  1  0  0  0
 31 32  1  0  0  0
 31 33  1  0  0  0
 14 13  1  0  0  0
 37  1  1  0  0  0
 37 39  1  0  0  0
 13 12  1  0  0  0
 38 39  2  0  0  0
 12 11  1  0  0  0
 11 10  1  0  0  0
 10  9  1  0  0  0
  9  8  1  0  0  0
  8  7  1  0  0  0
  7  6  1  0  0  0
  6  5  1  0  0  0
  2  1  1  0  0  0
  1 23  1  0  0  0
 30 32  1  0  0  0
 32 35  1  0  0  0
 39 40  1  0  0  0
 40 41  1  0  0  0
 41 42  1  0  0  0
 42 43  1  0  0  0
 43 44  1  0  0  0
 44 45  1  0  0  0
 45 46  1  0  0  0
 46 47  1  0  0  0
 47 48  2  0  0  0
 48 49  1  0  0  0
 49 50  1  0  0  0
 50 51  1  0  0  0
 51 52  1  0  0  0
 52 53  1  0  0  0
 53 54  1  0  0  0
 54 55  1  0  0  0
 55 56  1  0  0  0
M  CHG 1  26  -1
M  END
> <minimizedAffinity>
-8.33964

> <CNNscore>
0.3458834589

> <CNNaffinity>
6.8973565102

> <CNN_VS>
2.3856816292

> <CNNaffinity_variance>
0.7245607376

$$$$
/media/chris/experiments/cd1a-new-docking/inputs/ligands/7sh4_ligand.pdb


 56 55  0  0  0  0  0  0  0  0999 V2000
  -38.9103   60.5263   64.8918 C   0  0  0  0  0  0  0  0  0  0  0  0
  -40.0104   60.3899   65.9061 C   0  0  0  0  0  0  0  0  0  0  0  0
  -41.2199   60.4768   65.1233 O   0  0  0  0  0  0  0  0  0  0  0  0
  -42.0221   58.5638   65.9574 O   0  0  0  0  0  0  0  0  0  0  0  0
  -41.9963   59.3935   65.0888 C   0  0  0  0  0  0  0  0  0  0  0  0
  -42.9100   59.4185   63.8974 C   0  0  0  0  0  0  0  0  0  0  0  0
  -43.9603   58.3207   63.8976 C   0  0  0  0  0  0  0  0  0  0  0  0
  -45.3561   58.8448   64.1618 C   0  0  0  0  0  0  0  0  0  0  0  0
  -45.7794   58.7757   65.6116 C   0  0  0  0  0  0  0  0  0  0  0  0
  -46.6074   59.9683   66.0454 C   0  0  0  0  0  0  0  0  0  0  0  0
  -47.9029   60.1009   65.2828 C   0  0  0  0  0  0  0  0  0  0  0  0
  -49.1162   59.8301   66.1325 C   0  0  0  0  0  0  0  0  0  0  0  0
  -50.2545   59.1917   65.3677 C   0  0  0  0  0  0  0  0  0  0  0  0
  -51.0779   60.2009   64.5931 C   0  0  0  0  0  0  0  0  0  0  0  0
  -51.3158   59.8237   63.1459 C   0  0  0  0  0  0  0  0  0  0  0  0
  -50.1126   60.0633   62.2410 C   0  0  0  0  0  0  0  0  0  0  0  0
  -49.3414   58.8041   61.8950 C   0  0  0  0  0  0  0  0  0  0  0  0
  -50.1177   57.8452   61.0156 C   0  0  0  0  0  0  0  0  0  0  0  0
  -50.0224   58.1660   59.5305 C   0  0  0  0  0  0  0  0  0  0  0  0
  -48.6205   58.5325   59.0768 C   0  0  0  0  0  0  0  0  0  0  0  0
  -46.9988   58.3458   57.1608 C   0  0  0  0  0  0  0  0  0  0  0  0
  -48.0539   57.6441   57.9855 C   0  0  0  0  0  0  0  0  0  0  0  0
  -37.6414   61.0643   65.5017 C   0  0  0  0  0  0  0  0  0  0  0  0
  -37.7036   62.5081   65.5069 O   0  0  0  0  0  0  0  0  0  0  0  0
  -36.3970   63.4325   65.5254 P   0  0  0  0  0  0  0  0  0  0  0  0
  -36.1778   63.9431   64.1550 O   0  0  0  0  0  0  0  0  0  0  0  0
  -36.5365   64.4066   66.6347 O   0  0  0  0  0  0  0  0  0  0  0  0
  -37.2658   65.0157   66.4402 H   0  0  0  0  0  0  0  0  0  0  0  0
  -35.1912   62.4522   65.8829 O   0  0  0  0  0  0  0  0  0  0  0  0
  -33.8403   62.8105   65.5271 C   0  0  0  0  0  0  0  0  0  0  0  0
  -33.1994   63.3310   67.7767 O   0  0  0  0  0  0  0  0  0  0  0  0
  -33.3701   63.8900   66.4709 C   0  0  0  0  0  0  0  0  0  0  0  0
  -34.0292   62.9179   68.0626 H   0  0  0  0  0  0  0  0  0  0  0  0
  -32.0357   64.5969   64.5899 O   0  0  0  0  0  0  0  0  0  0  0  0
  -32.0867   64.5380   66.0096 C   0  0  0  0  0  0  0  0  0  0  0  0
  -31.2056   65.0155   64.3132 H   0  0  0  0  0  0  0  0  0  0  0  0
  -39.3914   61.3801   63.8012 O   0  0  0  0  0  0  0  0  0  0  0  0
  -37.8816   61.1298   62.1525 O   0  0  0  0  0  0  0  0  0  0  0  0
  -39.0108   61.0482   62.5526 C   0  0  0  0  0  0  0  0  0  0  0  0
  -40.1586   60.5488   61.7308 C   0  0  0  0  0  0  0  0  0  0  0  0
  -39.7017   60.1029   60.3454 C   0  0  0  0  0  0  0  0  0  0  0  0
  -40.7680   59.3649   59.5527 C   0  0  0  0  0  0  0  0  0  0  0  0
  -41.5320   58.3318   60.3730 C   0  0  0  0  0  0  0  0  0  0  0  0
  -40.8269   56.9934   60.4907 C   0  0  0  0  0  0  0  0  0  0  0  0
  -40.6291   56.5022   61.9275 C   0  0  0  0  0  0  0  0  0  0  0  0
  -39.5187   57.2067   62.7099 C   0  0  0  0  0  0  0  0  0  0  0  0
  -38.2601   57.3421   61.9064 C   0  0  0  0  0  0  0  0  0  0  0  0
  -37.0629   57.6525   62.3646 C   0  0  0  0  0  0  0  0  0  0  0  0
  -36.7094   57.9340   63.7908 C   0  0  0  0  0  0  0  0  0  0  0  0
  -35.2013   57.9783   64.0191 C   0  0  0  0  0  0  0  0  0  0  0  0
  -34.4054   58.3157   62.7705 C   0  0  0  0  0  0  0  0  0  0  0  0
  -32.9221   58.5168   63.0286 C   0  0  0  0  0  0  0  0  0  0  0  0
  -32.2477   59.5035   62.0899 C   0  0  0  0  0  0  0  0  0  0  0  0
  -30.9725   60.1064   62.6594 C   0  0  0  0  0  0  0  0  0  0  0  0
  -30.1173   60.8308   61.6387 C   0  0  0  0  0  0  0  0  0  0  0  0
  -28.6456   60.6993   61.9151 C   0  0  0  0  0  0  0  0  0  0  0  0
 21 22  1  0  0  0
  4  5  2  0  0  0
 25 24  1  0  0  0
 25 26  2  0  0  0
 25 27  1  0  0  0
 25 29  1  0  0  0
 22 20  1  0  0  0
  3  5  1  0  0  0
  3  2  1  0  0  0
 20 19  1  0  0  0
 24 23  1  0  0  0
 19 18  1  0  0  0
 18 17  1  0  0  0
 27 28  1  0  0  0
 17 16  1  0  0  0
 29 30  1  0  0  0
 16 15  1  0  0  0
 34 35  1  0  0  0
 34 36  1  0  0  0
 15 14  1  0  0  0
 31 32  1  0  0  0
 31 33  1  0  0  0
 14 13  1  0  0  0
 37  1  1  0  0  0
 37 39  1  0  0  0
 13 12  1  0  0  0
 38 39  2  0  0  0
 12 11  1  0  0  0
 11 10  1  0  0  0
 10  9  1  0  0  0
  9  8  1  0  0  0
  8  7  1  0  0  0
  7  6  1  0  0  0
  6  5  1  0  0  0
  2  1  1  0  0  0
  1 23  1  0  0  0
 30 32  1  0  0  0
 32 35  1  0  0  0
 39 40  1  0  0  0
 40 41  1  0  0  0
 41 42  1  0  0  0
 42 43  1  0  0  0
 43 44  1  0  0  0
 44 45  1  0  0  0
 45 46  1  0  0  0
 46 47  1  0  0  0
 47 48  2  0  0  0
 48 49  1  0  0  0
 49 50  1  0  0  0
 50 51  1  0  0  0
 51 52  1  0  0  0
 52 53  1  0  0  0
 53 54  1  0  0  0
 54 55  1  0  0  0
 55 56  1  0  0  0
M  CHG 1  26  -1
M  END
> <minimizedAffinity>
-8.90868

> <CNNscore>
0.3405585587

> <CNNaffinity>
7.1494455338

> <CNN_VS>
2.4348049164

> <CNNaffinity_variance>
0.8630546331

$$$$
/media/chris/experiments/cd1a-new-docking/inputs/ligands/7sh4_ligand.pdb


 56 55  0  0  0  0  0  0  0  0999 V2000
  -34.6790   63.4151   64.3352 C   0  0  0  0  0  0  0  0  0  0  0  0
  -35.7293   63.5366   65.4028 C   0  0  0  0  0  0  0  0  0  0  0  0
  -36.8561   62.8100   64.8684 O   0  0  0  0  0  0  0  0  0  0  0  0
  -37.0771   61.6753   66.7823 O   0  0  0  0  0  0  0  0  0  0  0  0
  -37.3608   61.8356   65.6258 C   0  0  0  0  0  0  0  0  0  0  0  0
  -38.4095   61.0590   64.8830 C   0  0  0  0  0  0  0  0  0  0  0  0
  -39.5471   60.5590   65.7572 C   0  0  0  0  0  0  0  0  0  0  0  0
  -40.3214   59.4245   65.1197 C   0  0  0  0  0  0  0  0  0  0  0  0
  -41.7341   59.7862   64.7208 C   0  0  0  0  0  0  0  0  0  0  0  0
  -42.4625   60.5889   65.7797 C   0  0  0  0  0  0  0  0  0  0  0  0
  -43.5312   61.4902   65.2113 C   0  0  0  0  0  0  0  0  0  0  0  0
  -44.5249   60.7548   64.3514 C   0  0  0  0  0  0  0  0  0  0  0  0
  -45.3453   59.7397   65.1161 C   0  0  0  0  0  0  0  0  0  0  0  0
  -46.8344   60.0078   65.0322 C   0  0  0  0  0  0  0  0  0  0  0  0
  -47.6236   59.4863   66.2148 C   0  0  0  0  0  0  0  0  0  0  0  0
  -49.0747   59.9529   66.2409 C   0  0  0  0  0  0  0  0  0  0  0  0
  -49.9091   59.4355   65.0849 C   0  0  0  0  0  0  0  0  0  0  0  0
  -50.9506   60.4251   64.6040 C   0  0  0  0  0  0  0  0  0  0  0  0
  -51.5957   60.0372   63.2807 C   0  0  0  0  0  0  0  0  0  0  0  0
  -50.8795   58.9064   62.5639 C   0  0  0  0  0  0  0  0  0  0  0  0
  -49.0665   58.1828   60.9749 C   0  0  0  0  0  0  0  0  0  0  0  0
  -49.7828   59.3505   61.6147 C   0  0  0  0  0  0  0  0  0  0  0  0
  -34.6286   64.6335   63.4494 C   0  0  0  0  0  0  0  0  0  0  0  0
  -33.2588   64.8608   63.0488 O   0  0  0  0  0  0  0  0  0  0  0  0
  -32.7101   64.4971   61.5898 P   0  0  0  0  0  0  0  0  0  0  0  0
  -33.7761   63.7697   60.8677 O   0  0  0  0  0  0  0  0  0  0  0  0
  -32.1544   65.7315   60.9847 O   0  0  0  0  0  0  0  0  0  0  0  0
  -32.8715   66.3652   60.8267 H   0  0  0  0  0  0  0  0  0  0  0  0
  -31.5027   63.4843   61.8331 O   0  0  0  0  0  0  0  0  0  0  0  0
  -30.3182   63.5636   61.0141 C   0  0  0  0  0  0  0  0  0  0  0  0
  -28.7653   63.1377   62.7888 O   0  0  0  0  0  0  0  0  0  0  0  0
  -29.2914   62.6070   61.5688 C   0  0  0  0  0  0  0  0  0  0  0  0
  -28.4042   64.0233   62.6270 H   0  0  0  0  0  0  0  0  0  0  0  0
  -30.7785   60.8816   60.7750 O   0  0  0  0  0  0  0  0  0  0  0  0
  -29.8582   61.2272   61.8023 C   0  0  0  0  0  0  0  0  0  0  0  0
  -31.1312   59.9936   60.9421 H   0  0  0  0  0  0  0  0  0  0  0  0
  -34.9430   62.1958   63.5648 O   0  0  0  0  0  0  0  0  0  0  0  0
  -33.2177   61.0169   62.7318 O   0  0  0  0  0  0  0  0  0  0  0  0
  -34.0064   61.2290   63.6120 C   0  0  0  0  0  0  0  0  0  0  0  0
  -34.0546   60.4642   64.8984 C   0  0  0  0  0  0  0  0  0  0  0  0
  -33.3548   59.1147   64.7728 C   0  0  0  0  0  0  0  0  0  0  0  0
  -34.2869   57.9220   64.9099 C   0  0  0  0  0  0  0  0  0  0  0  0
  -35.3113   57.8163   63.7859 C   0  0  0  0  0  0  0  0  0  0  0  0
  -36.7515   57.9214   64.2518 C   0  0  0  0  0  0  0  0  0  0  0  0
  -37.7922   57.5477   63.1925 C   0  0  0  0  0  0  0  0  0  0  0  0
  -37.4385   57.9533   61.7600 C   0  0  0  0  0  0  0  0  0  0  0  0
  -37.9625   59.3144   61.4127 C   0  0  0  0  0  0  0  0  0  0  0  0
  -38.4684   59.6915   60.2544 C   0  0  0  0  0  0  0  0  0  0  0  0
  -38.6270   58.8333   59.0393 C   0  0  0  0  0  0  0  0  0  0  0  0
  -39.9312   58.0412   59.0520 C   0  0  0  0  0  0  0  0  0  0  0  0
  -41.0552   58.7297   59.8063 C   0  0  0  0  0  0  0  0  0  0  0  0
  -41.6767   57.8695   60.8931 C   0  0  0  0  0  0  0  0  0  0  0  0
  -41.4379   56.3776   60.7290 C   0  0  0  0  0  0  0  0  0  0  0  0
  -41.0851   55.6740   62.0306 C   0  0  0  0  0  0  0  0  0  0  0  0
  -41.1815   56.5555   63.2601 C   0  0  0  0  0  0  0  0  0  0  0  0
  -42.2366   56.0931   64.2257 C   0  0  0  0  0  0  0  0  0  0  0  0
 21 22  1  0  0  0
  4  5  2  0  0  0
 25 24  1  0  0  0
 25 26  2  0  0  0
 25 27  1  0  0  0
 25 29  1  0  0  0
 22 20  1  0  0  0
  3  5  1  0  0  0
  3  2  1  0  0  0
 20 19  1  0  0  0
 24 23  1  0  0  0
 19 18  1  0  0  0
 18 17  1  0  0  0
 27 28  1  0  0  0
 17 16  1  0  0  0
 29 30  1  0  0  0
 16 15  1  0  0  0
 34 35  1  0  0  0
 34 36  1  0  0  0
 15 14  1  0  0  0
 31 32  1  0  0  0
 31 33  1  0  0  0
 14 13  1  0  0  0
 37  1  1  0  0  0
 37 39  1  0  0  0
 13 12  1  0  0  0
 38 39  2  0  0  0
 12 11  1  0  0  0
 11 10  1  0  0  0
 10  9  1  0  0  0
  9  8  1  0  0  0
  8  7  1  0  0  0
  7  6  1  0  0  0
  6  5  1  0  0  0
  2  1  1  0  0  0
  1 23  1  0  0  0
 30 32  1  0  0  0
 32 35  1  0  0  0
 39 40  1  0  0  0
 40 41  1  0  0  0
 41 42  1  0  0  0
 42 43  1  0  0  0
 43 44  1  0  0  0
 44 45  1  0  0  0
 45 46  1  0  0  0
 46 47  1  0  0  0
 47 48  2  0  0  0
 48 49  1  0  0  0
 49 50  1  0  0  0
 50 51  1  0  0  0
 51 52  1  0  0  0
 52 53  1  0  0  0
 53 54  1  0  0  0
 54 55  1  0  0  0
 55 56  1  0  0  0
M  CHG 1  26  -1
M  END
> <minimizedAffinity>
-7.96062

> <CNNscore>
0.3393134773

> <CNNaffinity>
7.1371831894

> <CNN_VS>
2.4217424393

> <CNNaffinity_variance>
1.0001904964

$$$$
/media/chris/experiments/cd1a-new-docking/inputs/ligands/7sh4_ligand.pdb


 56 55  0  0  0  0  0  0  0  0999 V2000
  -39.5359   60.5024   63.2221 C   0  0  0  0  0  0  0  0  0  0  0  0
  -39.7062   60.5035   64.7150 C   0  0  0  0  0  0  0  0  0  0  0  0
  -40.0791   59.1441   65.0249 O   0  0  0  0  0  0  0  0  0  0  0  0
  -41.8806   57.9123   65.5114 O   0  0  0  0  0  0  0  0  0  0  0  0
  -41.2863   58.9555   65.5586 C   0  0  0  0  0  0  0  0  0  0  0  0
  -41.7369   60.1670   66.3229 C   0  0  0  0  0  0  0  0  0  0  0  0
  -43.2046   60.5104   66.1325 C   0  0  0  0  0  0  0  0  0  0  0  0
  -43.4508   61.3778   64.9160 C   0  0  0  0  0  0  0  0  0  0  0  0
  -44.8528   61.2795   64.3589 C   0  0  0  0  0  0  0  0  0  0  0  0
  -45.5609   60.0002   64.7564 C   0  0  0  0  0  0  0  0  0  0  0  0
  -47.0647   60.1092   64.6926 C   0  0  0  0  0  0  0  0  0  0  0  0
  -47.7225   59.9693   66.0400 C   0  0  0  0  0  0  0  0  0  0  0  0
  -49.2333   60.0119   65.9779 C   0  0  0  0  0  0  0  0  0  0  0  0
  -49.7537   60.3098   64.5862 C   0  0  0  0  0  0  0  0  0  0  0  0
  -50.5786   59.1925   63.9827 C   0  0  0  0  0  0  0  0  0  0  0  0
  -49.7665   58.2092   63.1475 C   0  0  0  0  0  0  0  0  0  0  0  0
  -49.3898   58.7313   61.7743 C   0  0  0  0  0  0  0  0  0  0  0  0
  -50.4019   58.3868   60.7008 C   0  0  0  0  0  0  0  0  0  0  0  0
  -49.8087   57.6214   59.5261 C   0  0  0  0  0  0  0  0  0  0  0  0
  -48.6789   58.3583   58.8290 C   0  0  0  0  0  0  0  0  0  0  0  0
  -46.8166   58.2905   57.1370 C   0  0  0  0  0  0  0  0  0  0  0  0
  -48.0688   57.6188   57.6535 C   0  0  0  0  0  0  0  0  0  0  0  0
  -38.3938   61.3820   62.7819 C   0  0  0  0  0  0  0  0  0  0  0  0
  -37.7534   61.9339   63.9540 O   0  0  0  0  0  0  0  0  0  0  0  0
  -36.4463   62.8545   63.8756 P   0  0  0  0  0  0  0  0  0  0  0  0
  -35.5342   62.2702   62.8689 O   0  0  0  0  0  0  0  0  0  0  0  0
  -36.8824   64.2620   63.7099 O   0  0  0  0  0  0  0  0  0  0  0  0
  -37.3101   64.3683   62.8459 H   0  0  0  0  0  0  0  0  0  0  0  0
  -35.7504   62.7222   65.3043 O   0  0  0  0  0  0  0  0  0  0  0  0
  -34.3169   62.8284   65.4211 C   0  0  0  0  0  0  0  0  0  0  0  0
  -32.6435   63.9224   66.7422 O   0  0  0  0  0  0  0  0  0  0  0  0
  -33.9931   63.4479   66.7585 C   0  0  0  0  0  0  0  0  0  0  0  0
  -32.0470   63.1928   66.5124 H   0  0  0  0  0  0  0  0  0  0  0  0
  -36.1068   64.0651   67.7434 O   0  0  0  0  0  0  0  0  0  0  0  0
  -34.9363   64.5718   67.1148 C   0  0  0  0  0  0  0  0  0  0  0  0
  -36.6993   64.8006   67.9643 H   0  0  0  0  0  0  0  0  0  0  0  0
  -40.8038   60.9157   62.6126 O   0  0  0  0  0  0  0  0  0  0  0  0
  -41.1009   60.5509   60.4129 O   0  0  0  0  0  0  0  0  0  0  0  0
  -41.2337   60.2023   61.5542 C   0  0  0  0  0  0  0  0  0  0  0  0
  -41.8790   58.9166   61.9697 C   0  0  0  0  0  0  0  0  0  0  0  0
  -41.3025   57.7293   61.2049 C   0  0  0  0  0  0  0  0  0  0  0  0
  -40.2216   56.9749   61.9617 C   0  0  0  0  0  0  0  0  0  0  0  0
  -38.8087   57.2954   61.4877 C   0  0  0  0  0  0  0  0  0  0  0  0
  -37.8165   57.5207   62.6134 C   0  0  0  0  0  0  0  0  0  0  0  0
  -36.4930   58.1560   62.1779 C   0  0  0  0  0  0  0  0  0  0  0  0
  -35.2627   57.7050   62.9680 C   0  0  0  0  0  0  0  0  0  0  0  0
  -34.8504   58.7152   63.9964 C   0  0  0  0  0  0  0  0  0  0  0  0
  -33.6166   59.0509   64.3201 C   0  0  0  0  0  0  0  0  0  0  0  0
  -32.3642   58.4909   63.7234 C   0  0  0  0  0  0  0  0  0  0  0  0
  -31.6182   59.5128   62.8703 C   0  0  0  0  0  0  0  0  0  0  0  0
  -32.2952   60.8711   62.8149 C   0  0  0  0  0  0  0  0  0  0  0  0
  -31.7018   61.8063   61.7754 C   0  0  0  0  0  0  0  0  0  0  0  0
  -30.2676   61.4873   61.3870 C   0  0  0  0  0  0  0  0  0  0  0  0
  -29.2379   62.3182   62.1373 C   0  0  0  0  0  0  0  0  0  0  0  0
  -28.0547   61.5238   62.6541 C   0  0  0  0  0  0  0  0  0  0  0  0
  -27.8599   60.2268   61.9198 C   0  0  0  0  0  0  0  0  0  0  0  0
 21 22  1  0  0  0
  4  5  2  0  0  0
 25 24  1  0  0  0
 25 26  2  0  0  0
 25 27  1  0  0  0
 25 29  1  0  0  0
 22 20  1  0  0  0
  3  5  1  0  0  0
  3  2  1  0  0  0
 20 19  1  0  0  0
 24 23  1  0  0  0
 19 18  1  0  0  0
 18 17  1  0  0  0
 27 28  1  0  0  0
 17 16  1  0  0  0
 29 30  1  0  0  0
 16 15  1  0  0  0
 34 35  1  0  0  0
 34 36  1  0  0  0
 15 14  1  0  0  0
 31 32  1  0  0  0
 31 33  1  0  0  0
 14 13  1  0  0  0
 37  1  1  0  0  0
 37 39  1  0  0  0
 13 12  1  0  0  0
 38 39  2  0  0  0
 12 11  1  0  0  0
 11 10  1  0  0  0
 10  9  1  0  0  0
  9  8  1  0  0  0
  8  7  1  0  0  0
  7  6  1  0  0  0
  6  5  1  0  0  0
  2  1  1  0  0  0
  1 23  1  0  0  0
 30 32  1  0  0  0
 32 35  1  0  0  0
 39 40  1  0  0  0
 40 41  1  0  0  0
 41 42  1  0  0  0
 42 43  1  0  0  0
 43 44  1  0  0  0
 44 45  1  0  0  0
 45 46  1  0  0  0
 46 47  1  0  0  0
 47 48  2  0  0  0
 48 49  1  0  0  0
 49 50  1  0  0  0
 50 51  1  0  0  0
 51 52  1  0  0  0
 52 53  1  0  0  0
 53 54  1  0  0  0
 54 55  1  0  0  0
 55 56  1  0  0  0
M  CHG 1  26  -1
M  END
> <minimizedAffinity>
-8.38769

> <CNNscore>
0.3077867031

> <CNNaffinity>
6.7786355019

> <CNN_VS>
2.0863738060

> <CNNaffinity_variance>
1.4050678015

$$$$
/media/chris/experiments/cd1a-new-docking/inputs/ligands/7sh4_ligand.pdb


 56 55  0  0  0  0  0  0  0  0999 V2000
  -33.5782   63.8874   62.5529 C   0  0  0  0  0  0  0  0  0  0  0  0
  -35.0672   63.7835   62.7248 C   0  0  0  0  0  0  0  0  0  0  0  0
  -35.2568   62.5016   63.3604 O   0  0  0  0  0  0  0  0  0  0  0  0
  -37.3412   62.2161   62.6034 O   0  0  0  0  0  0  0  0  0  0  0  0
  -36.5089   62.0533   63.4546 C   0  0  0  0  0  0  0  0  0  0  0  0
  -36.6962   61.2225   64.6913 C   0  0  0  0  0  0  0  0  0  0  0  0
  -38.1423   61.0932   65.1390 C   0  0  0  0  0  0  0  0  0  0  0  0
  -38.5998   59.6530   65.2347 C   0  0  0  0  0  0  0  0  0  0  0  0
  -39.9475   59.3881   64.6027 C   0  0  0  0  0  0  0  0  0  0  0  0
  -40.3047   60.3911   63.5246 C   0  0  0  0  0  0  0  0  0  0  0  0
  -41.7652   60.7709   63.5271 C   0  0  0  0  0  0  0  0  0  0  0  0
  -42.4814   60.3466   64.7819 C   0  0  0  0  0  0  0  0  0  0  0  0
  -43.5827   61.2977   65.1954 C   0  0  0  0  0  0  0  0  0  0  0  0
  -44.8366   61.1403   64.3592 C   0  0  0  0  0  0  0  0  0  0  0  0
  -45.5813   59.8439   64.6003 C   0  0  0  0  0  0  0  0  0  0  0  0
  -46.1400   59.7079   66.0122 C   0  0  0  0  0  0  0  0  0  0  0  0
  -47.5752   60.1769   66.1548 C   0  0  0  0  0  0  0  0  0  0  0  0
  -48.3353   60.1961   64.8444 C   0  0  0  0  0  0  0  0  0  0  0  0
  -49.6278   59.3924   64.8768 C   0  0  0  0  0  0  0  0  0  0  0  0
  -50.8727   60.2346   64.6620 C   0  0  0  0  0  0  0  0  0  0  0  0
  -51.0816   58.7967   62.6067 C   0  0  0  0  0  0  0  0  0  0  0  0
  -51.5326   60.0580   63.3077 C   0  0  0  0  0  0  0  0  0  0  0  0
  -33.1528   65.2678   62.1225 C   0  0  0  0  0  0  0  0  0  0  0  0
  -32.1414   65.7487   63.0358 O   0  0  0  0  0  0  0  0  0  0  0  0
  -32.3276   67.0712   63.9182 P   0  0  0  0  0  0  0  0  0  0  0  0
  -31.0097   67.7311   64.0381 O   0  0  0  0  0  0  0  0  0  0  0  0
  -33.4627   67.8437   63.3580 O   0  0  0  0  0  0  0  0  0  0  0  0
  -33.2280   68.1684   62.4747 H   0  0  0  0  0  0  0  0  0  0  0  0
  -32.7527   66.5563   65.3663 O   0  0  0  0  0  0  0  0  0  0  0  0
  -32.1038   65.4039   65.9415 C   0  0  0  0  0  0  0  0  0  0  0  0
  -33.4006   65.8243   67.9123 O   0  0  0  0  0  0  0  0  0  0  0  0
  -33.0241   64.8079   66.9784 C   0  0  0  0  0  0  0  0  0  0  0  0
  -32.6036   66.2183   68.3000 H   0  0  0  0  0  0  0  0  0  0  0  0
  -34.0288   62.8087   66.0771 O   0  0  0  0  0  0  0  0  0  0  0  0
  -34.2538   64.1830   66.3644 C   0  0  0  0  0  0  0  0  0  0  0  0
  -34.8285   62.4254   65.6841 H   0  0  0  0  0  0  0  0  0  0  0  0
  -33.1520   62.8651   61.5920 O   0  0  0  0  0  0  0  0  0  0  0  0
  -31.0404   62.7651   60.8231 O   0  0  0  0  0  0  0  0  0  0  0  0
  -31.8642   62.4746   61.6469 C   0  0  0  0  0  0  0  0  0  0  0  0
  -31.5794   61.6521   62.8654 C   0  0  0  0  0  0  0  0  0  0  0  0
  -31.1188   60.2458   62.4952 C   0  0  0  0  0  0  0  0  0  0  0  0
  -32.0222   59.1428   63.0216 C   0  0  0  0  0  0  0  0  0  0  0  0
  -33.2302   59.6607   63.7939 C   0  0  0  0  0  0  0  0  0  0  0  0
  -33.7046   58.7296   64.8941 C   0  0  0  0  0  0  0  0  0  0  0  0
  -34.8878   57.8378   64.5072 C   0  0  0  0  0  0  0  0  0  0  0  0
  -35.5995   58.2262   63.2095 C   0  0  0  0  0  0  0  0  0  0  0  0
  -36.9451   57.5764   63.0870 C   0  0  0  0  0  0  0  0  0  0  0  0
  -37.7626   57.6471   62.0544 C   0  0  0  0  0  0  0  0  0  0  0  0
  -37.5147   58.3938   60.7819 C   0  0  0  0  0  0  0  0  0  0  0  0
  -38.3683   59.6538   60.6703 C   0  0  0  0  0  0  0  0  0  0  0  0
  -39.3698   59.6125   59.5295 C   0  0  0  0  0  0  0  0  0  0  0  0
  -39.9667   58.2362   59.2914 C   0  0  0  0  0  0  0  0  0  0  0  0
  -41.4623   58.1459   59.5454 C   0  0  0  0  0  0  0  0  0  0  0  0
  -41.8110   57.6982   60.9566 C   0  0  0  0  0  0  0  0  0  0  0  0
  -41.0739   56.4553   61.4148 C   0  0  0  0  0  0  0  0  0  0  0  0
  -41.1459   56.2519   62.9024 C   0  0  0  0  0  0  0  0  0  0  0  0
 21 22  1  0  0  0
  4  5  2  0  0  0
 25 24  1  0  0  0
 25 26  2  0  0  0
 25 27  1  0  0  0
 25 29  1  0  0  0
 22 20  1  0  0  0
  3  5  1  0  0  0
  3  2  1  0  0  0
 20 19  1  0  0  0
 24 23  1  0  0  0
 19 18  1  0  0  0
 18 17  1  0  0  0
 27 28  1  0  0  0
 17 16  1  0  0  0
 29 30  1  0  0  0
 16 15  1  0  0  0
 34 35  1  0  0  0
 34 36  1  0  0  0
 15 14  1  0  0  0
 31 32  1  0  0  0
 31 33  1  0  0  0
 14 13  1  0  0  0
 37  1  1  0  0  0
 37 39  1  0  0  0
 13 12  1  0  0  0
 38 39  2  0  0  0
 12 11  1  0  0  0
 11 10  1  0  0  0
 10  9  1  0  0  0
  9  8  1  0  0  0
  8  7  1  0  0  0
  7  6  1  0  0  0
  6  5  1  0  0  0
  2  1  1  0  0  0
  1 23  1  0  0  0
 30 32  1  0  0  0
 32 35  1  0  0  0
 39 40  1  0  0  0
 40 41  1  0  0  0
 41 42  1  0  0  0
 42 43  1  0  0  0
 43 44  1  0  0  0
 44 45  1  0  0  0
 45 46  1  0  0  0
 46 47  1  0  0  0
 47 48  2  0  0  0
 48 49  1  0  0  0
 49 50  1  0  0  0
 50 51  1  0  0  0
 51 52  1  0  0  0
 52 53  1  0  0  0
 53 54  1  0  0  0
 54 55  1  0  0  0
 55 56  1  0  0  0
M  CHG 1  26  -1
M  END
> <minimizedAffinity>
-7.61371

> <CNNscore>
0.2929719388

> <CNNaffinity>
7.0774407387

> <CNN_VS>
2.0734915733

> <CNNaffinity_variance>
0.9617964029

$$$$
