/media/chris/experiments/cd1a-new-docking/inputs/ligands/7sh4_ligand.pdb


 56 55  0  0  0  0  0  0  0  0999 V2000
  -38.7547   60.5197   64.9863 C   0  0  0  0  0  0  0  0  0  0  0  0
  -39.9034   60.0079   65.8086 C   0  0  0  0  0  0  0  0  0  0  0  0
  -40.5336   61.2051   66.3115 O   0  0  0  0  0  0  0  0  0  0  0  0
  -42.4822   62.2480   65.9730 O   0  0  0  0  0  0  0  0  0  0  0  0
  -41.8648   61.2566   66.2546 C   0  0  0  0  0  0  0  0  0  0  0  0
  -42.4696   59.8980   66.4625 C   0  0  0  0  0  0  0  0  0  0  0  0
  -43.9837   59.8674   66.3394 C   0  0  0  0  0  0  0  0  0  0  0  0
  -44.4903   58.6202   65.6461 C   0  0  0  0  0  0  0  0  0  0  0  0
  -45.8219   58.1229   66.1612 C   0  0  0  0  0  0  0  0  0  0  0  0
  -46.7247   59.2391   66.6464 C   0  0  0  0  0  0  0  0  0  0  0  0
  -47.7647   59.6457   65.6312 C   0  0  0  0  0  0  0  0  0  0  0  0
  -49.1241   59.8697   66.2389 C   0  0  0  0  0  0  0  0  0  0  0  0
  -50.2617   59.4300   65.3440 C   0  0  0  0  0  0  0  0  0  0  0  0
  -50.4144   60.3070   64.1177 C   0  0  0  0  0  0  0  0  0  0  0  0
  -51.1679   59.6517   62.9793 C   0  0  0  0  0  0  0  0  0  0  0  0
  -50.6959   58.2373   62.6616 C   0  0  0  0  0  0  0  0  0  0  0  0
  -50.8068   57.8654   61.1955 C   0  0  0  0  0  0  0  0  0  0  0  0
  -49.4899   57.9510   60.4515 C   0  0  0  0  0  0  0  0  0  0  0  0
  -48.9137   56.5937   60.0726 C   0  0  0  0  0  0  0  0  0  0  0  0
  -48.3576   56.5423   58.6609 C   0  0  0  0  0  0  0  0  0  0  0  0
  -47.0212   58.1386   57.2459 C   0  0  0  0  0  0  0  0  0  0  0  0
  -47.0326   57.2569   58.4741 C   0  0  0  0  0  0  0  0  0  0  0  0
  -37.6419   61.0639   65.8450 C   0  0  0  0  0  0  0  0  0  0  0  0
  -37.3460   62.4138   65.4224 O   0  0  0  0  0  0  0  0  0  0  0  0
  -36.0988   63.2449   65.9842 P   0  0  0  0  0  0  0  0  0  0  0  0
  -36.6154   64.2767   66.9091 O   0  0  0  0  0  0  0  0  0  0  0  0
  -35.0896   62.2807   66.4846 O   0  0  0  0  0  0  0  0  0  0  0  0
  -35.4432   61.8149   67.2585 H   0  0  0  0  0  0  0  0  0  0  0  0
  -35.4802   63.9875   64.7159 O   0  0  0  0  0  0  0  0  0  0  0  0
  -35.2668   63.2618   63.4880 C   0  0  0  0  0  0  0  0  0  0  0  0
  -36.6571   65.1064   62.8497 O   0  0  0  0  0  0  0  0  0  0  0  0
  -35.7673   64.1072   62.3427 C   0  0  0  0  0  0  0  0  0  0  0  0
  -37.3751   64.6797   63.3429 H   0  0  0  0  0  0  0  0  0  0  0  0
  -33.7744   63.7686   61.0265 O   0  0  0  0  0  0  0  0  0  0  0  0
  -34.6422   64.7544   61.5713 C   0  0  0  0  0  0  0  0  0  0  0  0
  -33.0595   64.2030   60.5356 H   0  0  0  0  0  0  0  0  0  0  0  0
  -39.2668   61.5322   64.0576 O   0  0  0  0  0  0  0  0  0  0  0  0
  -37.9799   61.7000   62.2204 O   0  0  0  0  0  0  0  0  0  0  0  0
  -38.9998   61.3520   62.7499 C   0  0  0  0  0  0  0  0  0  0  0  0
  -40.1169   60.6507   62.0411 C   0  0  0  0  0  0  0  0  0  0  0  0
  -41.4784   61.1008   62.5611 C   0  0  0  0  0  0  0  0  0  0  0  0
  -42.4345   59.9566   62.8562 C   0  0  0  0  0  0  0  0  0  0  0  0
  -41.7353   58.6770   63.3007 C   0  0  0  0  0  0  0  0  0  0  0  0
  -42.4344   57.4057   62.8564 C   0  0  0  0  0  0  0  0  0  0  0  0
  -41.4945   56.2998   62.3678 C   0  0  0  0  0  0  0  0  0  0  0  0
  -40.6875   56.6380   61.1125 C   0  0  0  0  0  0  0  0  0  0  0  0
  -41.4307   57.5620   60.1951 C   0  0  0  0  0  0  0  0  0  0  0  0
  -40.9143   58.2944   59.2275 C   0  0  0  0  0  0  0  0  0  0  0  0
  -39.4703   58.3547   58.8408 C   0  0  0  0  0  0  0  0  0  0  0  0
  -38.6350   59.1594   59.8322 C   0  0  0  0  0  0  0  0  0  0  0  0
  -37.4071   58.4209   60.3353 C   0  0  0  0  0  0  0  0  0  0  0  0
  -37.4902   58.0265   61.7998 C   0  0  0  0  0  0  0  0  0  0  0  0
  -36.4274   58.6582   62.6834 C   0  0  0  0  0  0  0  0  0  0  0  0
  -35.3915   57.6656   63.1886 C   0  0  0  0  0  0  0  0  0  0  0  0
  -34.0572   58.2883   63.5488 C   0  0  0  0  0  0  0  0  0  0  0  0
  -34.1646   59.2878   64.6665 C   0  0  0  0  0  0  0  0  0  0  0  0
 21 22  1  0  0  0
  4  5  2  0  0  0
 25 24  1  0  0  0
 25 26  2  0  0  0
 25 27  1  0  0  0
 25 29  1  0  0  0
 22 20  1  0  0  0
  3  5  1  0  0  0
  3  2  1  0  0  0
 20 19  1  0  0  0
 24 23  1  0  0  0
 19 18  1  0  0  0
 18 17  1  0  0  0
 27 28  1  0  0  0
 17 16  1  0  0  0
 29 30  1  0  0  0
 16 15  1  0  0  0
 34 35  1  0  0  0
 34 36  1  0  0  0
 15 14  1  0  0  0
 31 32  1  0  0  0
 31 33  1  0  0  0
 14 13  1  0  0  0
 37  1  1  0  0  0
 37 39  1  0  0  0
 13 12  1  0  0  0
 38 39  2  0  0  0
 12 11  1  0  0  0
 11 10  1  0  0  0
 10  9  1  0  0  0
  9  8  1  0  0  0
  8  7  1  0  0  0
  7  6  1  0  0  0
  6  5  1  0  0  0
  2  1  1  0  0  0
  1 23  1  0  0  0
 30 32  1  0  0  0
 32 35  1  0  0  0
 39 40  1  0  0  0
 40 41  1  0  0  0
 41 42  1  0  0  0
 42 43  1  0  0  0
 43 44  1  0  0  0
 44 45  1  0  0  0
 45 46  1  0  0  0
 46 47  1  0  0  0
 47 48  2  0  0  0
 48 49  1  0  0  0
 49 50  1  0  0  0
 50 51  1  0  0  0
 51 52  1  0  0  0
 52 53  1  0  0  0
 53 54  1  0  0  0
 54 55  1  0  0  0
 55 56  1  0  0  0
M  CHG 1  26  -1
M  END
> <minimizedAffinity>
-8.32195

> <CNNscore>
0.5908030272

> <CNNaffinity>
7.7824921608

> <CNN_VS>
4.5979199409

> <CNNaffinity_variance>
0.8602617979

$$$$
/media/chris/experiments/cd1a-new-docking/inputs/ligands/7sh4_ligand.pdb


 56 55  0  0  0  0  0  0  0  0999 V2000
  -40.9795   57.1369   63.9862 C   0  0  0  0  0  0  0  0  0  0  0  0
  -42.2582   56.5152   64.4720 C   0  0  0  0  0  0  0  0  0  0  0  0
  -42.9054   57.5760   65.2061 O   0  0  0  0  0  0  0  0  0  0  0  0
  -44.3655   58.4859   63.7781 O   0  0  0  0  0  0  0  0  0  0  0  0
  -44.1316   57.9219   64.8128 C   0  0  0  0  0  0  0  0  0  0  0  0
  -45.1724   57.4055   65.7641 C   0  0  0  0  0  0  0  0  0  0  0  0
  -45.2225   58.1452   67.0902 C   0  0  0  0  0  0  0  0  0  0  0  0
  -46.5129   58.9132   67.2847 C   0  0  0  0  0  0  0  0  0  0  0  0
  -46.7908   59.9396   66.2100 C   0  0  0  0  0  0  0  0  0  0  0  0
  -48.2701   60.1879   65.9949 C   0  0  0  0  0  0  0  0  0  0  0  0
  -48.5823   60.7829   64.6436 C   0  0  0  0  0  0  0  0  0  0  0  0
  -50.0602   60.9002   64.3796 C   0  0  0  0  0  0  0  0  0  0  0  0
  -50.7659   59.5639   64.3124 C   0  0  0  0  0  0  0  0  0  0  0  0
  -51.1774   59.1895   62.9029 C   0  0  0  0  0  0  0  0  0  0  0  0
  -50.3814   59.8882   61.8206 C   0  0  0  0  0  0  0  0  0  0  0  0
  -49.3131   59.0107   61.1780 C   0  0  0  0  0  0  0  0  0  0  0  0
  -49.3027   59.0628   59.6623 C   0  0  0  0  0  0  0  0  0  0  0  0
  -49.5769   57.7223   59.0119 C   0  0  0  0  0  0  0  0  0  0  0  0
  -48.6770   56.6033   59.5174 C   0  0  0  0  0  0  0  0  0  0  0  0
  -47.2798   56.6322   58.9241 C   0  0  0  0  0  0  0  0  0  0  0  0
  -46.8269   58.2412   57.0420 C   0  0  0  0  0  0  0  0  0  0  0  0
  -47.2322   56.8349   57.4215 C   0  0  0  0  0  0  0  0  0  0  0  0
  -40.5340   58.2766   64.8661 C   0  0  0  0  0  0  0  0  0  0  0  0
  -39.5812   59.0821   64.1370 O   0  0  0  0  0  0  0  0  0  0  0  0
  -39.3395   60.6336   64.4477 P   0  0  0  0  0  0  0  0  0  0  0  0
  -39.5442   60.8478   65.8965 O   0  0  0  0  0  0  0  0  0  0  0  0
  -38.0434   61.0284   63.8454 O   0  0  0  0  0  0  0  0  0  0  0  0
  -37.3212   60.5706   64.3034 H   0  0  0  0  0  0  0  0  0  0  0  0
  -40.4971   61.4057   63.6687 O   0  0  0  0  0  0  0  0  0  0  0  0
  -41.7927   60.7926   63.5094 C   0  0  0  0  0  0  0  0  0  0  0  0
  -44.0608   61.5662   63.5051 O   0  0  0  0  0  0  0  0  0  0  0  0
  -42.8162   61.6559   64.2053 C   0  0  0  0  0  0  0  0  0  0  0  0
  -43.9284   61.8153   62.5771 H   0  0  0  0  0  0  0  0  0  0  0  0
  -42.1056   61.9934   66.4855 O   0  0  0  0  0  0  0  0  0  0  0  0
  -43.0040   61.2711   65.6531 C   0  0  0  0  0  0  0  0  0  0  0  0
  -42.2412   61.7330   67.4100 H   0  0  0  0  0  0  0  0  0  0  0  0
  -41.1740   57.5681   62.5984 O   0  0  0  0  0  0  0  0  0  0  0  0
  -40.5532   55.5415   61.8452 O   0  0  0  0  0  0  0  0  0  0  0  0
  -40.9916   56.6402   61.6394 C   0  0  0  0  0  0  0  0  0  0  0  0
  -41.4171   57.1355   60.2919 C   0  0  0  0  0  0  0  0  0  0  0  0
  -40.2666   57.8170   59.5580 C   0  0  0  0  0  0  0  0  0  0  0  0
  -40.1340   59.3003   59.8622 C   0  0  0  0  0  0  0  0  0  0  0  0
  -38.7307   59.7113   60.2929 C   0  0  0  0  0  0  0  0  0  0  0  0
  -37.7518   58.5561   60.3895 C   0  0  0  0  0  0  0  0  0  0  0  0
  -37.4905   58.0604   61.8147 C   0  0  0  0  0  0  0  0  0  0  0  0
  -36.0870   58.3419   62.3554 C   0  0  0  0  0  0  0  0  0  0  0  0
  -35.8908   57.7865   63.7341 C   0  0  0  0  0  0  0  0  0  0  0  0
  -34.9561   58.1338   64.5973 C   0  0  0  0  0  0  0  0  0  0  0  0
  -33.8913   59.1619   64.3793 C   0  0  0  0  0  0  0  0  0  0  0  0
  -32.6970   58.6086   63.6074 C   0  0  0  0  0  0  0  0  0  0  0  0
  -32.3355   59.4232   62.3778 C   0  0  0  0  0  0  0  0  0  0  0  0
  -30.9677   60.0786   62.4610 C   0  0  0  0  0  0  0  0  0  0  0  0
  -31.0020   61.5896   62.6193 C   0  0  0  0  0  0  0  0  0  0  0  0
  -32.3187   62.2144   62.1840 C   0  0  0  0  0  0  0  0  0  0  0  0
  -32.3765   63.7203   62.3470 C   0  0  0  0  0  0  0  0  0  0  0  0
  -33.2314   64.3857   61.3049 C   0  0  0  0  0  0  0  0  0  0  0  0
 21 22  1  0  0  0
  4  5  2  0  0  0
 25 24  1  0  0  0
 25 26  2  0  0  0
 25 27  1  0  0  0
 25 29  1  0  0  0
 22 20  1  0  0  0
  3  5  1  0  0  0
  3  2  1  0  0  0
 20 19  1  0  0  0
 24 23  1  0  0  0
 19 18  1  0  0  0
 18 17  1  0  0  0
 27 28  1  0  0  0
 17 16  1  0  0  0
 29 30  1  0  0  0
 16 15  1  0  0  0
 34 35  1  0  0  0
 34 36  1  0  0  0
 15 14  1  0  0  0
 31 32  1  0  0  0
 31 33  1  0  0  0
 14 13  1  0  0  0
 37  1  1  0  0  0
 37 39  1  0  0  0
 13 12  1  0  0  0
 38 39  2  0  0  0
 12 11  1  0  0  0
 11 10  1  0  0  0
 10  9  1  0  0  0
  9  8  1  0  0  0
  8  7  1  0  0  0
  7  6  1  0  0  0
  6  5  1  0  0  0
  2  1  1  0  0  0
  1 23  1  0  0  0
 30 32  1  0  0  0
 32 35  1  0  0  0
 39 40  1  0  0  0
 40 41  1  0  0  0
 41 42  1  0  0  0
 42 43  1  0  0  0
 43 44  1  0  0  0
 44 45  1  0  0  0
 45 46  1  0  0  0
 46 47  1  0  0  0
 47 48  2  0  0  0
 48 49  1  0  0  0
 49 50  1  0  0  0
 50 51  1  0  0  0
 51 52  1  0  0  0
 52 53  1  0  0  0
 53 54  1  0  0  0
 54 55  1  0  0  0
 55 56  1  0  0  0
M  CHG 1  26  -1
M  END
> <minimizedAffinity>
-8.13267

> <CNNscore>
0.4412729442

> <CNNaffinity>
7.1930894852

> <CNN_VS>
3.1741156578

> <CNNaffinity_variance>
1.7763141394

$$$$
/media/chris/experiments/cd1a-new-docking/inputs/ligands/7sh4_ligand.pdb


 56 55  0  0  0  0  0  0  0  0999 V2000
  -41.7999   57.4351   63.2051 C   0  0  0  0  0  0  0  0  0  0  0  0
  -43.1283   57.9212   63.7120 C   0  0  0  0  0  0  0  0  0  0  0  0
  -43.4578   56.9965   64.7701 O   0  0  0  0  0  0  0  0  0  0  0  0
  -42.8999   57.9232   66.7270 O   0  0  0  0  0  0  0  0  0  0  0  0
  -43.7362   57.5198   65.9646 C   0  0  0  0  0  0  0  0  0  0  0  0
  -45.2183   57.6496   66.1680 C   0  0  0  0  0  0  0  0  0  0  0  0
  -45.6581   59.0128   66.6745 C   0  0  0  0  0  0  0  0  0  0  0  0
  -45.5829   60.0862   65.6092 C   0  0  0  0  0  0  0  0  0  0  0  0
  -46.5087   59.8600   64.4355 C   0  0  0  0  0  0  0  0  0  0  0  0
  -47.9706   59.8190   64.8323 C   0  0  0  0  0  0  0  0  0  0  0  0
  -48.5786   58.4425   64.7183 C   0  0  0  0  0  0  0  0  0  0  0  0
  -50.0714   58.4404   64.9166 C   0  0  0  0  0  0  0  0  0  0  0  0
  -50.7530   59.6694   64.3572 C   0  0  0  0  0  0  0  0  0  0  0  0
  -51.1688   59.5005   62.9099 C   0  0  0  0  0  0  0  0  0  0  0  0
  -50.2957   60.2490   61.9247 C   0  0  0  0  0  0  0  0  0  0  0  0
  -49.4550   59.3417   61.0335 C   0  0  0  0  0  0  0  0  0  0  0  0
  -50.1869   58.1052   60.5479 C   0  0  0  0  0  0  0  0  0  0  0  0
  -49.2856   56.8990   60.3811 C   0  0  0  0  0  0  0  0  0  0  0  0
  -48.0403   57.1778   59.5511 C   0  0  0  0  0  0  0  0  0  0  0  0
  -47.8597   56.2211   58.3861 C   0  0  0  0  0  0  0  0  0  0  0  0
  -47.0332   58.2767   57.1914 C   0  0  0  0  0  0  0  0  0  0  0  0
  -47.0275   56.7656   57.2406 C   0  0  0  0  0  0  0  0  0  0  0  0
  -40.6893   57.6918   64.1911 C   0  0  0  0  0  0  0  0  0  0  0  0
  -40.0976   58.9779   63.9008 O   0  0  0  0  0  0  0  0  0  0  0  0
  -40.3821   60.2826   64.7832 P   0  0  0  0  0  0  0  0  0  0  0  0
  -41.3159   61.1488   64.0320 O   0  0  0  0  0  0  0  0  0  0  0  0
  -40.7596   59.8432   66.1482 O   0  0  0  0  0  0  0  0  0  0  0  0
  -41.6105   59.3789   66.1146 H   0  0  0  0  0  0  0  0  0  0  0  0
  -38.9819   61.0393   64.8820 O   0  0  0  0  0  0  0  0  0  0  0  0
  -38.4042   61.6441   63.7070 C   0  0  0  0  0  0  0  0  0  0  0  0
  -36.3243   62.4547   62.8355 O   0  0  0  0  0  0  0  0  0  0  0  0
  -36.9029   61.6382   63.8581 C   0  0  0  0  0  0  0  0  0  0  0  0
  -36.6152   62.1383   61.9660 H   0  0  0  0  0  0  0  0  0  0  0  0
  -37.3145   63.1513   65.6910 O   0  0  0  0  0  0  0  0  0  0  0  0
  -36.4602   62.1170   65.2199 C   0  0  0  0  0  0  0  0  0  0  0  0
  -37.0146   63.4452   66.5654 H   0  0  0  0  0  0  0  0  0  0  0  0
  -41.5362   58.0765   61.9132 O   0  0  0  0  0  0  0  0  0  0  0  0
  -41.3597   56.0673   60.9171 O   0  0  0  0  0  0  0  0  0  0  0  0
  -41.3881   57.2657   60.8480 C   0  0  0  0  0  0  0  0  0  0  0  0
  -41.2819   58.0355   59.5681 C   0  0  0  0  0  0  0  0  0  0  0  0
  -39.8280   58.3263   59.2098 C   0  0  0  0  0  0  0  0  0  0  0  0
  -39.3484   59.7006   59.6473 C   0  0  0  0  0  0  0  0  0  0  0  0
  -38.3034   59.6572   60.7564 C   0  0  0  0  0  0  0  0  0  0  0  0
  -37.5156   58.3616   60.8114 C   0  0  0  0  0  0  0  0  0  0  0  0
  -37.6024   57.6200   62.1485 C   0  0  0  0  0  0  0  0  0  0  0  0
  -36.4711   57.9195   63.1344 C   0  0  0  0  0  0  0  0  0  0  0  0
  -35.1317   57.9596   62.4620 C   0  0  0  0  0  0  0  0  0  0  0  0
  -33.9917   58.3470   63.0002 C   0  0  0  0  0  0  0  0  0  0  0  0
  -33.7966   58.8286   64.4032 C   0  0  0  0  0  0  0  0  0  0  0  0
  -33.4772   60.3193   64.4680 C   0  0  0  0  0  0  0  0  0  0  0  0
  -33.2672   60.9576   63.1061 C   0  0  0  0  0  0  0  0  0  0  0  0
  -32.4885   62.2607   63.1570 C   0  0  0  0  0  0  0  0  0  0  0  0
  -32.2380   62.8980   61.8003 C   0  0  0  0  0  0  0  0  0  0  0  0
  -33.3568   63.8253   61.3509 C   0  0  0  0  0  0  0  0  0  0  0  0
  -33.2909   65.2158   61.9509 C   0  0  0  0  0  0  0  0  0  0  0  0
  -32.0136   65.9339   61.6157 C   0  0  0  0  0  0  0  0  0  0  0  0
 21 22  1  0  0  0
  4  5  2  0  0  0
 25 24  1  0  0  0
 25 26  2  0  0  0
 25 27  1  0  0  0
 25 29  1  0  0  0
 22 20  1  0  0  0
  3  5  1  0  0  0
  3  2  1  0  0  0
 20 19  1  0  0  0
 24 23  1  0  0  0
 19 18  1  0  0  0
 18 17  1  0  0  0
 27 28  1  0  0  0
 17 16  1  0  0  0
 29 30  1  0  0  0
 16 15  1  0  0  0
 34 35  1  0  0  0
 34 36  1  0  0  0
 15 14  1  0  0  0
 31 32  1  0  0  0
 31 33  1  0  0  0
 14 13  1  0  0  0
 37  1  1  0  0  0
 37 39  1  0  0  0
 13 12  1  0  0  0
 38 39  2  0  0  0
 12 11  1  0  0  0
 11 10  1  0  0  0
 10  9  1  0  0  0
  9  8  1  0  0  0
  8  7  1  0  0  0
  7  6  1  0  0  0
  6  5  1  0  0  0
  2  1  1  0  0  0
  1 23  1  0  0  0
 30 32  1  0  0  0
 32 35  1  0  0  0
 39 40  1  0  0  0
 40 41  1  0  0  0
 41 42  1  0  0  0
 42 43  1  0  0  0
 43 44  1  0  0  0
 44 45  1  0  0  0
 45 46  1  0  0  0
 46 47  1  0  0  0
 47 48  2  0  0  0
 48 49  1  0  0  0
 49 50  1  0  0  0
 50 51  1  0  0  0
 51 52  1  0  0  0
 52 53  1  0  0  0
 53 54  1  0  0  0
 54 55  1  0  0  0
 55 56  1  0  0  0
M  CHG 1  26  -1
M  END
> <minimizedAffinity>
-8.04348

> <CNNscore>
0.4067794979

> <CNNaffinity>
7.2197446823

> <CNN_VS>
2.9368441105

> <CNNaffinity_variance>
1.2246946096

$$$$
/media/chris/experiments/cd1a-new-docking/inputs/ligands/7sh4_ligand.pdb


 56 55  0  0  0  0  0  0  0  0999 V2000
  -40.2304   59.9514   63.1970 C   0  0  0  0  0  0  0  0  0  0  0  0
  -40.7865   60.1558   64.5778 C   0  0  0  0  0  0  0  0  0  0  0  0
  -41.7626   61.2056   64.4093 O   0  0  0  0  0  0  0  0  0  0  0  0
  -42.2748   61.7371   66.5198 O   0  0  0  0  0  0  0  0  0  0  0  0
  -42.6139   61.4061   65.4158 C   0  0  0  0  0  0  0  0  0  0  0  0
  -44.0378   61.2871   64.9539 C   0  0  0  0  0  0  0  0  0  0  0  0
  -44.3858   59.9335   64.3582 C   0  0  0  0  0  0  0  0  0  0  0  0
  -44.8571   58.9389   65.3982 C   0  0  0  0  0  0  0  0  0  0  0  0
  -46.3545   58.7317   65.4232 C   0  0  0  0  0  0  0  0  0  0  0  0
  -47.0755   59.4797   64.3201 C   0  0  0  0  0  0  0  0  0  0  0  0
  -48.1682   60.3857   64.8327 C   0  0  0  0  0  0  0  0  0  0  0  0
  -49.0791   59.7076   65.8215 C   0  0  0  0  0  0  0  0  0  0  0  0
  -50.4871   59.5117   65.3044 C   0  0  0  0  0  0  0  0  0  0  0  0
  -50.8430   60.4800   64.1945 C   0  0  0  0  0  0  0  0  0  0  0  0
  -51.1774   59.8135   62.8765 C   0  0  0  0  0  0  0  0  0  0  0  0
  -50.7467   58.3532   62.7979 C   0  0  0  0  0  0  0  0  0  0  0  0
  -50.3192   57.9106   61.4117 C   0  0  0  0  0  0  0  0  0  0  0  0
  -48.8156   57.8553   61.2345 C   0  0  0  0  0  0  0  0  0  0  0  0
  -48.3799   57.2753   59.8961 C   0  0  0  0  0  0  0  0  0  0  0  0
  -49.1326   57.8513   58.7101 C   0  0  0  0  0  0  0  0  0  0  0  0
  -47.0220   58.0462   57.3524 C   0  0  0  0  0  0  0  0  0  0  0  0
  -48.4719   57.6179   57.3647 C   0  0  0  0  0  0  0  0  0  0  0  0
  -39.3167   61.0761   62.7824 C   0  0  0  0  0  0  0  0  0  0  0  0
  -38.6115   61.5565   63.9488 O   0  0  0  0  0  0  0  0  0  0  0  0
  -37.1418   62.1862   63.8755 P   0  0  0  0  0  0  0  0  0  0  0  0
  -36.2185   61.1386   63.3888 O   0  0  0  0  0  0  0  0  0  0  0  0
  -37.2244   63.4653   63.1301 O   0  0  0  0  0  0  0  0  0  0  0  0
  -37.4615   63.2866   62.2066 H   0  0  0  0  0  0  0  0  0  0  0  0
  -36.7508   62.5229   65.3844 O   0  0  0  0  0  0  0  0  0  0  0  0
  -35.3671   62.7063   65.7474 C   0  0  0  0  0  0  0  0  0  0  0  0
  -36.0909   64.1671   67.5038 O   0  0  0  0  0  0  0  0  0  0  0  0
  -35.2167   64.0701   66.3753 C   0  0  0  0  0  0  0  0  0  0  0  0
  -37.0010   63.9807   67.2248 H   0  0  0  0  0  0  0  0  0  0  0  0
  -33.3467   63.4015   67.7443 O   0  0  0  0  0  0  0  0  0  0  0  0
  -33.7942   64.3576   66.7918 C   0  0  0  0  0  0  0  0  0  0  0  0
  -32.4326   63.6025   67.9992 H   0  0  0  0  0  0  0  0  0  0  0  0
  -41.3523   59.7939   62.2662 O   0  0  0  0  0  0  0  0  0  0  0  0
  -41.7631   57.5858   62.1424 O   0  0  0  0  0  0  0  0  0  0  0  0
  -41.4463   58.6178   61.6167 C   0  0  0  0  0  0  0  0  0  0  0  0
  -41.1270   58.7547   60.1602 C   0  0  0  0  0  0  0  0  0  0  0  0
  -39.9438   57.8780   59.7627 C   0  0  0  0  0  0  0  0  0  0  0  0
  -38.6620   58.6528   59.5042 C   0  0  0  0  0  0  0  0  0  0  0  0
  -37.6423   58.5383   60.6315 C   0  0  0  0  0  0  0  0  0  0  0  0
  -37.9946   57.4983   61.6787 C   0  0  0  0  0  0  0  0  0  0  0  0
  -37.3474   57.7284   63.0475 C   0  0  0  0  0  0  0  0  0  0  0  0
  -35.8172   57.7263   63.0532 C   0  0  0  0  0  0  0  0  0  0  0  0
  -35.2568   58.1280   64.3845 C   0  0  0  0  0  0  0  0  0  0  0  0
  -33.9829   58.2847   64.6878 C   0  0  0  0  0  0  0  0  0  0  0  0
  -32.8248   58.0944   63.7599 C   0  0  0  0  0  0  0  0  0  0  0  0
  -32.1084   59.4046   63.4462 C   0  0  0  0  0  0  0  0  0  0  0  0
  -32.4249   59.9575   62.0676 C   0  0  0  0  0  0  0  0  0  0  0  0
  -31.2435   60.6376   61.3975 C   0  0  0  0  0  0  0  0  0  0  0  0
  -30.9313   62.0263   61.9300 C   0  0  0  0  0  0  0  0  0  0  0  0
  -32.0869   63.0046   61.7845 C   0  0  0  0  0  0  0  0  0  0  0  0
  -32.5589   63.6086   63.0923 C   0  0  0  0  0  0  0  0  0  0  0  0
  -31.4483   64.2647   63.8642 C   0  0  0  0  0  0  0  0  0  0  0  0
 21 22  1  0  0  0
  4  5  2  0  0  0
 25 24  1  0  0  0
 25 26  2  0  0  0
 25 27  1  0  0  0
 25 29  1  0  0  0
 22 20  1  0  0  0
  3  5  1  0  0  0
  3  2  1  0  0  0
 20 19  1  0  0  0
 24 23  1  0  0  0
 19 18  1  0  0  0
 18 17  1  0  0  0
 27 28  1  0  0  0
 17 16  1  0  0  0
 29 30  1  0  0  0
 16 15  1  0  0  0
 34 35  1  0  0  0
 34 36  1  0  0  0
 15 14  1  0  0  0
 31 32  1  0  0  0
 31 33  1  0  0  0
 14 13  1  0  0  0
 37  1  1  0  0  0
 37 39  1  0  0  0
 13 12  1  0  0  0
 38 39  2  0  0  0
 12 11  1  0  0  0
 11 10  1  0  0  0
 10  9  1  0  0  0
  9  8  1  0  0  0
  8  7  1  0  0  0
  7  6  1  0  0  0
  6  5  1  0  0  0
  2  1  1  0  0  0
  1 23  1  0  0  0
 30 32  1  0  0  0
 32 35  1  0  0  0
 39 40  1  0  0  0
 40 41  1  0  0  0
 41 42  1  0  0  0
 42 43  1  0  0  0
 43 44  1  0  0  0
 44 45  1  0  0  0
 45 46  1  0  0  0
 46 47  1  0  0  0
 47 48  2  0  0  0
 48 49  1  0  0  0
 49 50  1  0  0  0
 50 51  1  0  0  0
 51 52  1  0  0  0
 52 53  1  0  0  0
 53 54  1  0  0  0
 54 55  1  0  0  0
 55 56  1  0  0  0
M  CHG 1  26  -1
M  END
> <minimizedAffinity>
-8.65717

> <CNNscore>
0.3920938075

> <CNNaffinity>
7.1240639687

> <CNN_VS>
2.7933013439

> <CNNaffinity_variance>
0.8292457461

$$$$
/media/chris/experiments/cd1a-new-docking/inputs/ligands/7sh4_ligand.pdb


 56 55  0  0  0  0  0  0  0  0999 V2000
  -40.7682   59.9681   64.5099 C   0  0  0  0  0  0  0  0  0  0  0  0
  -40.3039   58.7448   65.2485 C   0  0  0  0  0  0  0  0  0  0  0  0
  -40.4109   57.6864   64.2730 O   0  0  0  0  0  0  0  0  0  0  0  0
  -42.1555   56.6874   65.2517 O   0  0  0  0  0  0  0  0  0  0  0  0
  -41.5475   56.9892   64.2604 C   0  0  0  0  0  0  0  0  0  0  0  0
  -42.0203   56.7479   62.8557 C   0  0  0  0  0  0  0  0  0  0  0  0
  -41.0190   56.0116   61.9818 C   0  0  0  0  0  0  0  0  0  0  0  0
  -41.0961   56.4240   60.5269 C   0  0  0  0  0  0  0  0  0  0  0  0
  -41.7335   57.7759   60.2992 C   0  0  0  0  0  0  0  0  0  0  0  0
  -40.7477   58.8242   59.8246 C   0  0  0  0  0  0  0  0  0  0  0  0
  -39.6396   58.2551   58.9726 C   0  0  0  0  0  0  0  0  0  0  0  0
  -38.3138   58.9309   59.2033 C   0  0  0  0  0  0  0  0  0  0  0  0
  -38.0577   59.2708   60.6548 C   0  0  0  0  0  0  0  0  0  0  0  0
  -37.0926   58.3101   61.3195 C   0  0  0  0  0  0  0  0  0  0  0  0
  -37.6431   57.6418   62.5619 C   0  0  0  0  0  0  0  0  0  0  0  0
  -36.6825   57.6552   63.7456 C   0  0  0  0  0  0  0  0  0  0  0  0
  -35.3149   58.2259   63.4229 C   0  0  0  0  0  0  0  0  0  0  0  0
  -34.4663   58.4864   64.6505 C   0  0  0  0  0  0  0  0  0  0  0  0
  -32.9958   58.7242   64.3367 C   0  0  0  0  0  0  0  0  0  0  0  0
  -32.7257   59.0088   62.8701 C   0  0  0  0  0  0  0  0  0  0  0  0
  -31.6180   61.0693   61.9407 C   0  0  0  0  0  0  0  0  0  0  0  0
  -31.4150   59.7202   62.5923 C   0  0  0  0  0  0  0  0  0  0  0  0
  -39.7087   60.5057   63.5824 C   0  0  0  0  0  0  0  0  0  0  0  0
  -39.0292   61.6001   64.2372 O   0  0  0  0  0  0  0  0  0  0  0  0
  -37.4920   61.5277   64.6773 P   0  0  0  0  0  0  0  0  0  0  0  0
  -37.3345   60.3866   65.6047 O   0  0  0  0  0  0  0  0  0  0  0  0
  -36.6585   61.5697   63.4517 O   0  0  0  0  0  0  0  0  0  0  0  0
  -36.8042   60.7626   62.9338 H   0  0  0  0  0  0  0  0  0  0  0  0
  -37.2239   62.8683   65.4982 O   0  0  0  0  0  0  0  0  0  0  0  0
  -36.1020   63.7091   65.1601 C   0  0  0  0  0  0  0  0  0  0  0  0
  -36.2517   64.2497   67.4899 O   0  0  0  0  0  0  0  0  0  0  0  0
  -35.3306   64.0037   66.4231 C   0  0  0  0  0  0  0  0  0  0  0  0
  -36.8512   64.9701   67.2397 H   0  0  0  0  0  0  0  0  0  0  0  0
  -33.2744   63.3859   67.5226 O   0  0  0  0  0  0  0  0  0  0  0  0
  -34.3887   62.8840   66.7958 C   0  0  0  0  0  0  0  0  0  0  0  0
  -32.6819   62.6531   67.7525 H   0  0  0  0  0  0  0  0  0  0  0  0
  -41.1854   60.9711   65.4947 O   0  0  0  0  0  0  0  0  0  0  0  0
  -42.8877   61.5294   66.8551 O   0  0  0  0  0  0  0  0  0  0  0  0
  -42.4677   60.9279   65.9046 C   0  0  0  0  0  0  0  0  0  0  0  0
  -43.3086   60.0566   65.0239 C   0  0  0  0  0  0  0  0  0  0  0  0
  -44.5961   59.6321   65.7231 C   0  0  0  0  0  0  0  0  0  0  0  0
  -45.7695   59.4230   64.7800 C   0  0  0  0  0  0  0  0  0  0  0  0
  -46.5201   60.7072   64.4464 C   0  0  0  0  0  0  0  0  0  0  0  0
  -48.0294   60.5811   64.5375 C   0  0  0  0  0  0  0  0  0  0  0  0
  -48.5220   59.5585   65.5656 C   0  0  0  0  0  0  0  0  0  0  0  0
  -49.9876   59.1432   65.4209 C   0  0  0  0  0  0  0  0  0  0  0  0
  -50.7576   60.0848   64.5443 C   0  0  0  0  0  0  0  0  0  0  0  0
  -51.1745   59.8531   63.3147 C   0  0  0  0  0  0  0  0  0  0  0  0
  -50.9655   58.5937   62.5345 C   0  0  0  0  0  0  0  0  0  0  0  0
  -49.5665   58.5075   61.9316 C   0  0  0  0  0  0  0  0  0  0  0  0
  -49.4429   59.1857   60.5785 C   0  0  0  0  0  0  0  0  0  0  0  0
  -50.0924   58.4094   59.4458 C   0  0  0  0  0  0  0  0  0  0  0  0
  -49.1149   57.6675   58.5494 C   0  0  0  0  0  0  0  0  0  0  0  0
  -47.8555   58.4617   58.2386 C   0  0  0  0  0  0  0  0  0  0  0  0
  -46.9415   57.8060   57.2225 C   0  0  0  0  0  0  0  0  0  0  0  0
  -47.0691   56.3082   57.2067 C   0  0  0  0  0  0  0  0  0  0  0  0
 21 22  1  0  0  0
  4  5  2  0  0  0
 25 24  1  0  0  0
 25 26  2  0  0  0
 25 27  1  0  0  0
 25 29  1  0  0  0
 22 20  1  0  0  0
  3  5  1  0  0  0
  3  2  1  0  0  0
 20 19  1  0  0  0
 24 23  1  0  0  0
 19 18  1  0  0  0
 18 17  1  0  0  0
 27 28  1  0  0  0
 17 16  1  0  0  0
 29 30  1  0  0  0
 16 15  1  0  0  0
 34 35  1  0  0  0
 34 36  1  0  0  0
 15 14  1  0  0  0
 31 32  1  0  0  0
 31 33  1  0  0  0
 14 13  1  0  0  0
 37  1  1  0  0  0
 37 39  1  0  0  0
 13 12  1  0  0  0
 38 39  2  0  0  0
 12 11  1  0  0  0
 11 10  1  0  0  0
 10  9  1  0  0  0
  9  8  1  0  0  0
  8  7  1  0  0  0
  7  6  1  0  0  0
  6  5  1  0  0  0
  2  1  1  0  0  0
  1 23  1  0  0  0
 30 32  1  0  0  0
 32 35  1  0  0  0
 39 40  1  0  0  0
 40 41  1  0  0  0
 41 42  1  0  0  0
 42 43  1  0  0  0
 43 44  1  0  0  0
 44 45  1  0  0  0
 45 46  1  0  0  0
 46 47  1  0  0  0
 47 48  2  0  0  0
 48 49  1  0  0  0
 49 50  1  0  0  0
 50 51  1  0  0  0
 51 52  1  0  0  0
 52 53  1  0  0  0
 53 54  1  0  0  0
 54 55  1  0  0  0
 55 56  1  0  0  0
M  CHG 1  26  -1
M  END
> <minimizedAffinity>
-9.05730

> <CNNscore>
0.3841359019

> <CNNaffinity>
7.4216995239

> <CNN_VS>
2.8509411812

> <CNNaffinity_variance>
1.2058093548

$$$$
/media/chris/experiments/cd1a-new-docking/inputs/ligands/7sh4_ligand.pdb


 56 55  0  0  0  0  0  0  0  0999 V2000
  -39.9344   60.7233   63.5421 C   0  0  0  0  0  0  0  0  0  0  0  0
  -39.6657   60.3016   64.9590 C   0  0  0  0  0  0  0  0  0  0  0  0
  -40.4501   59.1010   65.1208 O   0  0  0  0  0  0  0  0  0  0  0  0
  -41.7612   60.1384   66.6054 O   0  0  0  0  0  0  0  0  0  0  0  0
  -41.4545   59.1491   65.9965 C   0  0  0  0  0  0  0  0  0  0  0  0
  -42.2152   57.8546   66.0214 C   0  0  0  0  0  0  0  0  0  0  0  0
  -42.7643   57.4315   64.6694 C   0  0  0  0  0  0  0  0  0  0  0  0
  -42.1118   56.1720   64.1398 C   0  0  0  0  0  0  0  0  0  0  0  0
  -41.1850   56.4005   62.9674 C   0  0  0  0  0  0  0  0  0  0  0  0
  -41.7188   57.4170   61.9784 C   0  0  0  0  0  0  0  0  0  0  0  0
  -41.4646   57.0368   60.5402 C   0  0  0  0  0  0  0  0  0  0  0  0
  -41.1885   58.2252   59.6576 C   0  0  0  0  0  0  0  0  0  0  0  0
  -40.1079   59.1358   60.1973 C   0  0  0  0  0  0  0  0  0  0  0  0
  -38.7805   58.9523   59.4899 C   0  0  0  0  0  0  0  0  0  0  0  0
  -37.6486   58.5254   60.4008 C   0  0  0  0  0  0  0  0  0  0  0  0
  -38.0936   57.6524   61.5687 C   0  0  0  0  0  0  0  0  0  0  0  0
  -37.3617   57.9385   62.8658 C   0  0  0  0  0  0  0  0  0  0  0  0
  -35.9643   58.4864   62.6602 C   0  0  0  0  0  0  0  0  0  0  0  0
  -34.8634   57.5301   63.0974 C   0  0  0  0  0  0  0  0  0  0  0  0
  -34.1780   57.9418   64.3880 C   0  0  0  0  0  0  0  0  0  0  0  0
  -32.3427   59.3237   63.3594 C   0  0  0  0  0  0  0  0  0  0  0  0
  -33.4934   59.2946   64.3397 C   0  0  0  0  0  0  0  0  0  0  0  0
  -38.7330   61.3762   62.9081 C   0  0  0  0  0  0  0  0  0  0  0  0
  -38.0189   62.1194   63.9210 O   0  0  0  0  0  0  0  0  0  0  0  0
  -36.6475   62.8904   63.6260 P   0  0  0  0  0  0  0  0  0  0  0  0
  -35.6089   61.8802   63.3301 O   0  0  0  0  0  0  0  0  0  0  0  0
  -36.9192   63.9478   62.6227 O   0  0  0  0  0  0  0  0  0  0  0  0
  -37.1573   63.5373   61.7767 H   0  0  0  0  0  0  0  0  0  0  0  0
  -36.2609   63.6049   64.9983 O   0  0  0  0  0  0  0  0  0  0  0  0
  -34.8770   63.7168   65.3885 C   0  0  0  0  0  0  0  0  0  0  0  0
  -33.5649   63.4609   67.3773 O   0  0  0  0  0  0  0  0  0  0  0  0
  -34.6732   62.9188   66.6528 C   0  0  0  0  0  0  0  0  0  0  0  0
  -32.7795   63.4694   66.8082 H   0  0  0  0  0  0  0  0  0  0  0  0
  -36.3202   64.2211   67.8401 O   0  0  0  0  0  0  0  0  0  0  0  0
  -35.9057   62.8981   67.5247 C   0  0  0  0  0  0  0  0  0  0  0  0
  -37.1118   64.1871   68.3998 H   0  0  0  0  0  0  0  0  0  0  0  0
  -41.0995   61.6136   63.5387 O   0  0  0  0  0  0  0  0  0  0  0  0
  -42.0254   61.6839   61.4898 O   0  0  0  0  0  0  0  0  0  0  0  0
  -42.0684   61.3478   62.6418 C   0  0  0  0  0  0  0  0  0  0  0  0
  -43.1945   60.5687   63.2475 C   0  0  0  0  0  0  0  0  0  0  0  0
  -44.1081   61.4625   64.0800 C   0  0  0  0  0  0  0  0  0  0  0  0
  -45.0157   60.7004   65.0316 C   0  0  0  0  0  0  0  0  0  0  0  0
  -45.7726   59.5561   64.3672 C   0  0  0  0  0  0  0  0  0  0  0  0
  -47.2822   59.6826   64.4534 C   0  0  0  0  0  0  0  0  0  0  0  0
  -47.9469   58.7170   65.4387 C   0  0  0  0  0  0  0  0  0  0  0  0
  -49.3904   58.3354   65.1037 C   0  0  0  0  0  0  0  0  0  0  0  0
  -50.3245   59.5024   65.2188 C   0  0  0  0  0  0  0  0  0  0  0  0
  -51.0293   60.0459   64.2456 C   0  0  0  0  0  0  0  0  0  0  0  0
  -51.0443   59.6071   62.8154 C   0  0  0  0  0  0  0  0  0  0  0  0
  -49.9452   60.2708   61.9910 C   0  0  0  0  0  0  0  0  0  0  0  0
  -49.5603   59.4895   60.7469 C   0  0  0  0  0  0  0  0  0  0  0  0
  -48.9448   58.1332   61.0448 C   0  0  0  0  0  0  0  0  0  0  0  0
  -48.9952   57.1508   59.8864 C   0  0  0  0  0  0  0  0  0  0  0  0
  -49.0131   57.8233   58.5222 C   0  0  0  0  0  0  0  0  0  0  0  0
  -47.6435   57.9969   57.8963 C   0  0  0  0  0  0  0  0  0  0  0  0
  -47.1587   56.7539   57.2038 C   0  0  0  0  0  0  0  0  0  0  0  0
 21 22  1  0  0  0
  4  5  2  0  0  0
 25 24  1  0  0  0
 25 26  2  0  0  0
 25 27  1  0  0  0
 25 29  1  0  0  0
 22 20  1  0  0  0
  3  5  1  0  0  0
  3  2  1  0  0  0
 20 19  1  0  0  0
 24 23  1  0  0  0
 19 18  1  0  0  0
 18 17  1  0  0  0
 27 28  1  0  0  0
 17 16  1  0  0  0
 29 30  1  0  0  0
 16 15  1  0  0  0
 34 35  1  0  0  0
 34 36  1  0  0  0
 15 14  1  0  0  0
 31 32  1  0  0  0
 31 33  1  0  0  0
 14 13  1  0  0  0
 37  1  1  0  0  0
 37 39  1  0  0  0
 13 12  1  0  0  0
 38 39  2  0  0  0
 12 11  1  0  0  0
 11 10  1  0  0  0
 10  9  1  0  0  0
  9  8  1  0  0  0
  8  7  1  0  0  0
  7  6  1  0  0  0
  6  5  1  0  0  0
  2  1  1  0  0  0
  1 23  1  0  0  0
 30 32  1  0  0  0
 32 35  1  0  0  0
 39 40  1  0  0  0
 40 41  1  0  0  0
 41 42  1  0  0  0
 42 43  1  0  0  0
 43 44  1  0  0  0
 44 45  1  0  0  0
 45 46  1  0  0  0
 46 47  1  0  0  0
 47 48  2  0  0  0
 48 49  1  0  0  0
 49 50  1  0  0  0
 50 51  1  0  0  0
 51 52  1  0  0  0
 52 53  1  0  0  0
 53 54  1  0  0  0
 54 55  1  0  0  0
 55 56  1  0  0  0
M  CHG 1  26  -1
M  END
> <minimizedAffinity>
-8.75558

> <CNNscore>
0.3756270707

> <CNNaffinity>
7.5080480576

> <CNN_VS>
2.8202261925

> <CNNaffinity_variance>
1.6184914112

$$$$
/media/chris/experiments/cd1a-new-docking/inputs/ligands/7sh4_ligand.pdb


 56 55  0  0  0  0  0  0  0  0999 V2000
  -40.8106   60.0563   65.2539 C   0  0  0  0  0  0  0  0  0  0  0  0
  -41.4195   58.8798   65.9631 C   0  0  0  0  0  0  0  0  0  0  0  0
  -41.6318   57.9114   64.9142 O   0  0  0  0  0  0  0  0  0  0  0  0
  -42.6808   55.9591   64.6187 O   0  0  0  0  0  0  0  0  0  0  0  0
  -42.6596   57.0750   65.0633 C   0  0  0  0  0  0  0  0  0  0  0  0
  -43.7139   57.6646   65.9552 C   0  0  0  0  0  0  0  0  0  0  0  0
  -45.1328   57.2665   65.5858 C   0  0  0  0  0  0  0  0  0  0  0  0
  -46.1295   57.5587   66.6876 C   0  0  0  0  0  0  0  0  0  0  0  0
  -46.2906   59.0284   67.0032 C   0  0  0  0  0  0  0  0  0  0  0  0
  -47.4878   59.6548   66.3171 C   0  0  0  0  0  0  0  0  0  0  0  0
  -47.2310   59.9980   64.8702 C   0  0  0  0  0  0  0  0  0  0  0  0
  -48.1832   59.3141   63.9252 C   0  0  0  0  0  0  0  0  0  0  0  0
  -49.4054   58.7456   64.6117 C   0  0  0  0  0  0  0  0  0  0  0  0
  -50.6923   59.4019   64.1538 C   0  0  0  0  0  0  0  0  0  0  0  0
  -50.8705   59.4305   62.6503 C   0  0  0  0  0  0  0  0  0  0  0  0
  -51.0794   58.0543   62.0284 C   0  0  0  0  0  0  0  0  0  0  0  0
  -50.1668   57.7647   60.8522 C   0  0  0  0  0  0  0  0  0  0  0  0
  -49.6917   59.0130   60.1373 C   0  0  0  0  0  0  0  0  0  0  0  0
  -48.5806   58.7536   59.1295 C   0  0  0  0  0  0  0  0  0  0  0  0
  -48.0164   57.3456   59.1959 C   0  0  0  0  0  0  0  0  0  0  0  0
  -46.8192   58.1521   57.1338 C   0  0  0  0  0  0  0  0  0  0  0  0
  -47.0411   56.9996   58.0868 C   0  0  0  0  0  0  0  0  0  0  0  0
  -39.3463   60.2146   65.5741 C   0  0  0  0  0  0  0  0  0  0  0  0
  -38.9310   61.5484   65.2043 O   0  0  0  0  0  0  0  0  0  0  0  0
  -37.4216   61.9096   64.8126 P   0  0  0  0  0  0  0  0  0  0  0  0
  -36.5301   60.9358   65.4788 O   0  0  0  0  0  0  0  0  0  0  0  0
  -37.3485   62.0496   63.3382 O   0  0  0  0  0  0  0  0  0  0  0  0
  -37.5107   61.1881   62.9232 H   0  0  0  0  0  0  0  0  0  0  0  0
  -37.1500   63.3436   65.4549 O   0  0  0  0  0  0  0  0  0  0  0  0
  -35.8818   63.9984   65.2480 C   0  0  0  0  0  0  0  0  0  0  0  0
  -36.1318   64.0113   67.6312 O   0  0  0  0  0  0  0  0  0  0  0  0
  -35.1692   64.0856   66.5752 C   0  0  0  0  0  0  0  0  0  0  0  0
  -36.7945   64.7099   67.5144 H   0  0  0  0  0  0  0  0  0  0  0  0
  -33.2079   63.3467   67.7691 O   0  0  0  0  0  0  0  0  0  0  0  0
  -34.1289   63.0042   66.7414 C   0  0  0  0  0  0  0  0  0  0  0  0
  -32.5486   62.6411   67.8608 H   0  0  0  0  0  0  0  0  0  0  0  0
  -41.5754   61.2557   65.6092 O   0  0  0  0  0  0  0  0  0  0  0  0
  -43.7952   60.9030   65.7012 O   0  0  0  0  0  0  0  0  0  0  0  0
  -42.8325   61.3416   65.1333 C   0  0  0  0  0  0  0  0  0  0  0  0
  -42.8876   62.0642   63.8230 C   0  0  0  0  0  0  0  0  0  0  0  0
  -42.9031   61.0911   62.6484 C   0  0  0  0  0  0  0  0  0  0  0  0
  -42.0427   61.5284   61.4743 C   0  0  0  0  0  0  0  0  0  0  0  0
  -40.8864   60.5801   61.1789 C   0  0  0  0  0  0  0  0  0  0  0  0
  -41.0389   59.8060   59.8828 C   0  0  0  0  0  0  0  0  0  0  0  0
  -40.9392   58.2853   60.0339 C   0  0  0  0  0  0  0  0  0  0  0  0
  -41.1587   57.7558   61.4527 C   0  0  0  0  0  0  0  0  0  0  0  0
  -40.1279   56.7390   61.8419 C   0  0  0  0  0  0  0  0  0  0  0  0
  -38.8193   56.9027   61.8371 C   0  0  0  0  0  0  0  0  0  0  0  0
  -38.0867   58.1456   61.4411 C   0  0  0  0  0  0  0  0  0  0  0  0
  -36.9651   58.4957   62.4146 C   0  0  0  0  0  0  0  0  0  0  0  0
  -37.1681   57.9276   63.8083 C   0  0  0  0  0  0  0  0  0  0  0  0
  -35.8746   57.5351   64.5011 C   0  0  0  0  0  0  0  0  0  0  0  0
  -34.6135   57.9795   63.7789 C   0  0  0  0  0  0  0  0  0  0  0  0
  -33.7844   58.9809   64.5684 C   0  0  0  0  0  0  0  0  0  0  0  0
  -33.3094   60.1710   63.7586 C   0  0  0  0  0  0  0  0  0  0  0  0
  -32.6665   59.7713   62.4599 C   0  0  0  0  0  0  0  0  0  0  0  0
 21 22  1  0  0  0
  4  5  2  0  0  0
 25 24  1  0  0  0
 25 26  2  0  0  0
 25 27  1  0  0  0
 25 29  1  0  0  0
 22 20  1  0  0  0
  3  5  1  0  0  0
  3  2  1  0  0  0
 20 19  1  0  0  0
 24 23  1  0  0  0
 19 18  1  0  0  0
 18 17  1  0  0  0
 27 28  1  0  0  0
 17 16  1  0  0  0
 29 30  1  0  0  0
 16 15  1  0  0  0
 34 35  1  0  0  0
 34 36  1  0  0  0
 15 14  1  0  0  0
 31 32  1  0  0  0
 31 33  1  0  0  0
 14 13  1  0  0  0
 37  1  1  0  0  0
 37 39  1  0  0  0
 13 12  1  0  0  0
 38 39  2  0  0  0
 12 11  1  0  0  0
 11 10  1  0  0  0
 10  9  1  0  0  0
  9  8  1  0  0  0
  8  7  1  0  0  0
  7  6  1  0  0  0
  6  5  1  0  0  0
  2  1  1  0  0  0
  1 23  1  0  0  0
 30 32  1  0  0  0
 32 35  1  0  0  0
 39 40  1  0  0  0
 40 41  1  0  0  0
 41 42  1  0  0  0
 42 43  1  0  0  0
 43 44  1  0  0  0
 44 45  1  0  0  0
 45 46  1  0  0  0
 46 47  1  0  0  0
 47 48  2  0  0  0
 48 49  1  0  0  0
 49 50  1  0  0  0
 50 51  1  0  0  0
 51 52  1  0  0  0
 52 53  1  0  0  0
 53 54  1  0  0  0
 54 55  1  0  0  0
 55 56  1  0  0  0
M  CHG 1  26  -1
M  END
> <minimizedAffinity>
-8.86619

> <CNNscore>
0.3611387610

> <CNNaffinity>
7.4757537842

> <CNN_VS>
2.6997845173

> <CNNaffinity_variance>
2.1391983032

$$$$
/media/chris/experiments/cd1a-new-docking/inputs/ligands/7sh4_ligand.pdb


 56 55  0  0  0  0  0  0  0  0999 V2000
  -39.0870   60.2135   64.9757 C   0  0  0  0  0  0  0  0  0  0  0  0
  -40.0590   59.2287   65.5613 C   0  0  0  0  0  0  0  0  0  0  0  0
  -40.9875   60.0511   66.2992 O   0  0  0  0  0  0  0  0  0  0  0  0
  -43.0988   60.6742   65.9074 O   0  0  0  0  0  0  0  0  0  0  0  0
  -42.2861   59.8132   66.1116 C   0  0  0  0  0  0  0  0  0  0  0  0
  -42.5665   58.3387   66.0652 C   0  0  0  0  0  0  0  0  0  0  0  0
  -43.8935   57.9795   65.4186 C   0  0  0  0  0  0  0  0  0  0  0  0
  -44.9844   57.7052   66.4322 C   0  0  0  0  0  0  0  0  0  0  0  0
  -46.0927   58.7334   66.4429 C   0  0  0  0  0  0  0  0  0  0  0  0
  -46.2318   59.4695   65.1257 C   0  0  0  0  0  0  0  0  0  0  0  0
  -47.6089   59.3485   64.5202 C   0  0  0  0  0  0  0  0  0  0  0  0
  -48.3962   58.1914   65.0756 C   0  0  0  0  0  0  0  0  0  0  0  0
  -49.8550   58.5154   65.3105 C   0  0  0  0  0  0  0  0  0  0  0  0
  -50.2547   59.8614   64.7407 C   0  0  0  0  0  0  0  0  0  0  0  0
  -51.1765   59.7761   63.5423 C   0  0  0  0  0  0  0  0  0  0  0  0
  -50.4800   59.3367   62.2594 C   0  0  0  0  0  0  0  0  0  0  0  0
  -50.7901   57.9105   61.8472 C   0  0  0  0  0  0  0  0  0  0  0  0
  -49.9300   57.4139   60.7033 C   0  0  0  0  0  0  0  0  0  0  0  0
  -50.0415   58.2612   59.4434 C   0  0  0  0  0  0  0  0  0  0  0  0
  -49.1834   57.7596   58.2958 C   0  0  0  0  0  0  0  0  0  0  0  0
  -47.0589   58.0686   56.9816 C   0  0  0  0  0  0  0  0  0  0  0  0
  -47.7479   58.2495   58.3152 C   0  0  0  0  0  0  0  0  0  0  0  0
  -38.1572   60.7796   66.0182 C   0  0  0  0  0  0  0  0  0  0  0  0
  -37.6925   62.0737   65.5736 O   0  0  0  0  0  0  0  0  0  0  0  0
  -36.2214   62.6215   65.8863 P   0  0  0  0  0  0  0  0  0  0  0  0
  -36.2093   63.1354   67.2728 O   0  0  0  0  0  0  0  0  0  0  0  0
  -35.2472   61.5697   65.5079 O   0  0  0  0  0  0  0  0  0  0  0  0
  -35.3541   60.8041   66.0939 H   0  0  0  0  0  0  0  0  0  0  0  0
  -36.0133   63.8588   64.9020 O   0  0  0  0  0  0  0  0  0  0  0  0
  -34.7336   64.0723   64.2721 C   0  0  0  0  0  0  0  0  0  0  0  0
  -34.2202   62.9168   62.2366 O   0  0  0  0  0  0  0  0  0  0  0  0
  -34.9279   64.0371   62.7762 C   0  0  0  0  0  0  0  0  0  0  0  0
  -33.2861   62.9706   62.4925 H   0  0  0  0  0  0  0  0  0  0  0  0
  -36.8704   62.6366   62.4870 O   0  0  0  0  0  0  0  0  0  0  0  0
  -36.3852   63.9693   62.3871 C   0  0  0  0  0  0  0  0  0  0  0  0
  -37.8064   62.6134   62.2334 H   0  0  0  0  0  0  0  0  0  0  0  0
  -39.8492   61.2681   64.2999 O   0  0  0  0  0  0  0  0  0  0  0  0
  -39.1993   60.9762   62.1662 O   0  0  0  0  0  0  0  0  0  0  0  0
  -40.0712   61.1113   62.9807 C   0  0  0  0  0  0  0  0  0  0  0  0
  -41.5326   61.1071   62.6548 C   0  0  0  0  0  0  0  0  0  0  0  0
  -41.8980   59.9416   61.7411 C   0  0  0  0  0  0  0  0  0  0  0  0
  -41.7662   58.5778   62.3990 C   0  0  0  0  0  0  0  0  0  0  0  0
  -41.3882   57.4659   61.4271 C   0  0  0  0  0  0  0  0  0  0  0  0
  -41.5077   57.8567   59.9659 C   0  0  0  0  0  0  0  0  0  0  0  0
  -40.1774   57.9044   59.2087 C   0  0  0  0  0  0  0  0  0  0  0  0
  -39.3702   59.1917   59.3902 C   0  0  0  0  0  0  0  0  0  0  0  0
  -37.9135   58.9179   59.6157 C   0  0  0  0  0  0  0  0  0  0  0  0
  -37.3810   58.2852   60.6431 C   0  0  0  0  0  0  0  0  0  0  0  0
  -38.1249   57.7039   61.8037 C   0  0  0  0  0  0  0  0  0  0  0  0
  -37.4276   57.9699   63.1346 C   0  0  0  0  0  0  0  0  0  0  0  0
  -35.9396   57.6665   63.1145 C   0  0  0  0  0  0  0  0  0  0  0  0
  -35.1964   58.1788   64.3361 C   0  0  0  0  0  0  0  0  0  0  0  0
  -33.7027   58.3687   64.1306 C   0  0  0  0  0  0  0  0  0  0  0  0
  -33.3627   59.2543   62.9416 C   0  0  0  0  0  0  0  0  0  0  0  0
  -31.8791   59.5042   62.7563 C   0  0  0  0  0  0  0  0  0  0  0  0
  -31.5906   60.5401   61.7059 C   0  0  0  0  0  0  0  0  0  0  0  0
 21 22  1  0  0  0
  4  5  2  0  0  0
 25 24  1  0  0  0
 25 26  2  0  0  0
 25 27  1  0  0  0
 25 29  1  0  0  0
 22 20  1  0  0  0
  3  5  1  0  0  0
  3  2  1  0  0  0
 20 19  1  0  0  0
 24 23  1  0  0  0
 19 18  1  0  0  0
 18 17  1  0  0  0
 27 28  1  0  0  0
 17 16  1  0  0  0
 29 30  1  0  0  0
 16 15  1  0  0  0
 34 35  1  0  0  0
 34 36  1  0  0  0
 15 14  1  0  0  0
 31 32  1  0  0  0
 31 33  1  0  0  0
 14 13  1  0  0  0
 37  1  1  0  0  0
 37 39  1  0  0  0
 13 12  1  0  0  0
 38 39  2  0  0  0
 12 11  1  0  0  0
 11 10  1  0  0  0
 10  9  1  0  0  0
  9  8  1  0  0  0
  8  7  1  0  0  0
  7  6  1  0  0  0
  6  5  1  0  0  0
  2  1  1  0  0  0
  1 23  1  0  0  0
 30 32  1  0  0  0
 32 35  1  0  0  0
 39 40  1  0  0  0
 40 41  1  0  0  0
 41 42  1  0  0  0
 42 43  1  0  0  0
 43 44  1  0  0  0
 44 45  1  0  0  0
 45 46  1  0  0  0
 46 47  1  0  0  0
 47 48  2  0  0  0
 48 49  1  0  0  0
 49 50  1  0  0  0
 50 51  1  0  0  0
 51 52  1  0  0  0
 52 53  1  0  0  0
 53 54  1  0  0  0
 54 55  1  0  0  0
 55 56  1  0  0  0
M  CHG 1  26  -1
M  END
> <minimizedAffinity>
-8.48311

> <CNNscore>
0.3522893786

> <CNNaffinity>
7.4050703049

> <CNN_VS>
2.6087276936

> <CNNaffinity_variance>
1.2179540396

$$$$
/media/chris/experiments/cd1a-new-docking/inputs/ligands/7sh4_ligand.pdb


 56 55  0  0  0  0  0  0  0  0999 V2000
  -40.2698   60.4219   63.6445 C   0  0  0  0  0  0  0  0  0  0  0  0
  -40.1602   59.8194   65.0166 C   0  0  0  0  0  0  0  0  0  0  0  0
  -40.3908   58.4114   64.7991 O   0  0  0  0  0  0  0  0  0  0  0  0
  -42.5350   58.4124   65.4329 O   0  0  0  0  0  0  0  0  0  0  0  0
  -41.6606   58.0136   64.7120 C   0  0  0  0  0  0  0  0  0  0  0  0
  -41.8667   57.1120   63.5290 C   0  0  0  0  0  0  0  0  0  0  0  0
  -42.1043   57.8484   62.2215 C   0  0  0  0  0  0  0  0  0  0  0  0
  -41.0032   57.6148   61.2086 C   0  0  0  0  0  0  0  0  0  0  0  0
  -39.8191   56.8447   61.7476 C   0  0  0  0  0  0  0  0  0  0  0  0
  -38.4924   57.5171   61.4580 C   0  0  0  0  0  0  0  0  0  0  0  0
  -37.5177   57.4274   62.6067 C   0  0  0  0  0  0  0  0  0  0  0  0
  -36.2197   58.1404   62.3340 C   0  0  0  0  0  0  0  0  0  0  0  0
  -35.0293   57.5015   63.0144 C   0  0  0  0  0  0  0  0  0  0  0  0
  -34.5158   58.3175   64.1835 C   0  0  0  0  0  0  0  0  0  0  0  0
  -33.0277   58.5942   64.1377 C   0  0  0  0  0  0  0  0  0  0  0  0
  -32.6541   59.8192   63.3106 C   0  0  0  0  0  0  0  0  0  0  0  0
  -31.2930   59.7238   62.6483 C   0  0  0  0  0  0  0  0  0  0  0  0
  -31.0062   60.8656   61.6948 C   0  0  0  0  0  0  0  0  0  0  0  0
  -31.1137   62.2406   62.3393 C   0  0  0  0  0  0  0  0  0  0  0  0
  -31.7153   63.2942   61.4266 C   0  0  0  0  0  0  0  0  0  0  0  0
  -33.5567   65.0081   61.5150 C   0  0  0  0  0  0  0  0  0  0  0  0
  -32.2744   64.5094   62.1419 C   0  0  0  0  0  0  0  0  0  0  0  0
  -38.9180   60.6939   63.0360 C   0  0  0  0  0  0  0  0  0  0  0  0
  -38.4945   62.0216   63.4182 O   0  0  0  0  0  0  0  0  0  0  0  0
  -36.9647   62.4906   63.3736 P   0  0  0  0  0  0  0  0  0  0  0  0
  -36.1135   61.2922   63.5346 O   0  0  0  0  0  0  0  0  0  0  0  0
  -36.7777   63.3413   62.1736 O   0  0  0  0  0  0  0  0  0  0  0  0
  -36.8933   62.8033   61.3748 H   0  0  0  0  0  0  0  0  0  0  0  0
  -36.7671   63.4101   64.6615 O   0  0  0  0  0  0  0  0  0  0  0  0
  -35.9524   62.9493   65.7587 C   0  0  0  0  0  0  0  0  0  0  0  0
  -36.1790   63.9450   67.9266 O   0  0  0  0  0  0  0  0  0  0  0  0
  -35.6101   64.1345   66.6276 C   0  0  0  0  0  0  0  0  0  0  0  0
  -37.1352   63.8043   67.8435 H   0  0  0  0  0  0  0  0  0  0  0  0
  -33.5557   63.4896   67.7147 O   0  0  0  0  0  0  0  0  0  0  0  0
  -34.1206   64.3551   66.7383 C   0  0  0  0  0  0  0  0  0  0  0  0
  -32.6000   63.6459   67.7712 H   0  0  0  0  0  0  0  0  0  0  0  0
  -41.0765   61.6427   63.7395 O   0  0  0  0  0  0  0  0  0  0  0  0
  -42.6968   61.3053   62.2162 O   0  0  0  0  0  0  0  0  0  0  0  0
  -42.3601   61.5589   63.3405 C   0  0  0  0  0  0  0  0  0  0  0  0
  -43.3147   61.8011   64.4683 C   0  0  0  0  0  0  0  0  0  0  0  0
  -44.7443   61.4402   64.0777 C   0  0  0  0  0  0  0  0  0  0  0  0
  -45.4118   60.4554   65.0237 C   0  0  0  0  0  0  0  0  0  0  0  0
  -46.6875   59.8389   64.4615 C   0  0  0  0  0  0  0  0  0  0  0  0
  -47.4959   59.0572   65.4802 C   0  0  0  0  0  0  0  0  0  0  0  0
  -48.6922   59.8163   66.0617 C   0  0  0  0  0  0  0  0  0  0  0  0
  -50.0616   59.3650   65.5493 C   0  0  0  0  0  0  0  0  0  0  0  0
  -50.6791   60.3719   64.6259 C   0  0  0  0  0  0  0  0  0  0  0  0
  -51.1544   60.1442   63.4169 C   0  0  0  0  0  0  0  0  0  0  0  0
  -51.1775   58.8250   62.7116 C   0  0  0  0  0  0  0  0  0  0  0  0
  -49.8758   58.5390   61.9686 C   0  0  0  0  0  0  0  0  0  0  0  0
  -49.9662   57.3640   61.0107 C   0  0  0  0  0  0  0  0  0  0  0  0
  -49.5445   57.7009   59.5909 C   0  0  0  0  0  0  0  0  0  0  0  0
  -48.0686   58.0268   59.4329 C   0  0  0  0  0  0  0  0  0  0  0  0
  -47.6526   58.2676   57.9898 C   0  0  0  0  0  0  0  0  0  0  0  0
  -48.2576   57.2945   56.9974 C   0  0  0  0  0  0  0  0  0  0  0  0
  -47.6273   55.9313   57.0615 C   0  0  0  0  0  0  0  0  0  0  0  0
 21 22  1  0  0  0
  4  5  2  0  0  0
 25 24  1  0  0  0
 25 26  2  0  0  0
 25 27  1  0  0  0
 25 29  1  0  0  0
 22 20  1  0  0  0
  3  5  1  0  0  0
  3  2  1  0  0  0
 20 19  1  0  0  0
 24 23  1  0  0  0
 19 18  1  0  0  0
 18 17  1  0  0  0
 27 28  1  0  0  0
 17 16  1  0  0  0
 29 30  1  0  0  0
 16 15  1  0  0  0
 34 35  1  0  0  0
 34 36  1  0  0  0
 15 14  1  0  0  0
 31 32  1  0  0  0
 31 33  1  0  0  0
 14 13  1  0  0  0
 37  1  1  0  0  0
 37 39  1  0  0  0
 13 12  1  0  0  0
 38 39  2  0  0  0
 12 11  1  0  0  0
 11 10  1  0  0  0
 10  9  1  0  0  0
  9  8  1  0  0  0
  8  7  1  0  0  0
  7  6  1  0  0  0
  6  5  1  0  0  0
  2  1  1  0  0  0
  1 23  1  0  0  0
 30 32  1  0  0  0
 32 35  1  0  0  0
 39 40  1  0  0  0
 40 41  1  0  0  0
 41 42  1  0  0  0
 42 43  1  0  0  0
 43 44  1  0  0  0
 44 45  1  0  0  0
 45 46  1  0  0  0
 46 47  1  0  0  0
 47 48  2  0  0  0
 48 49  1  0  0  0
 49 50  1  0  0  0
 50 51  1  0  0  0
 51 52  1  0  0  0
 52 53  1  0  0  0
 53 54  1  0  0  0
 54 55  1  0  0  0
 55 56  1  0  0  0
M  CHG 1  26  -1
M  END
> <minimizedAffinity>
-8.69960

> <CNNscore>
0.3291918635

> <CNNaffinity>
7.0222234726

> <CNN_VS>
2.3116588593

> <CNNaffinity_variance>
0.8188617826

$$$$
