/media/chris/experiments/cd1a-new-docking/inputs/ligands/7sh4_ligand.pdb


 56 55  0  0  0  0  0  0  0  0999 V2000
  -41.7376   59.0551   63.5870 C   0  0  0  0  0  0  0  0  0  0  0  0
  -41.7441   59.1443   62.0871 C   0  0  0  0  0  0  0  0  0  0  0  0
  -42.1736   57.8339   61.6612 O   0  0  0  0  0  0  0  0  0  0  0  0
  -41.3864   56.1076   60.4782 O   0  0  0  0  0  0  0  0  0  0  0  0
  -41.5256   57.2913   60.6299 C   0  0  0  0  0  0  0  0  0  0  0  0
  -41.1118   58.3391   59.6371 C   0  0  0  0  0  0  0  0  0  0  0  0
  -39.6711   58.2173   59.1704 C   0  0  0  0  0  0  0  0  0  0  0  0
  -38.7568   59.2352   59.8187 C   0  0  0  0  0  0  0  0  0  0  0  0
  -37.6200   58.6305   60.6113 C   0  0  0  0  0  0  0  0  0  0  0  0
  -38.0724   57.5362   61.5569 C   0  0  0  0  0  0  0  0  0  0  0  0
  -37.4086   57.6087   62.9103 C   0  0  0  0  0  0  0  0  0  0  0  0
  -35.9581   58.0059   62.8337 C   0  0  0  0  0  0  0  0  0  0  0  0
  -35.3436   58.2985   64.1846 C   0  0  0  0  0  0  0  0  0  0  0  0
  -33.8407   58.4798   64.1171 C   0  0  0  0  0  0  0  0  0  0  0  0
  -33.2713   58.4031   62.7159 C   0  0  0  0  0  0  0  0  0  0  0  0
  -32.2530   59.4939   62.4043 C   0  0  0  0  0  0  0  0  0  0  0  0
  -32.6366   60.8635   62.9308 C   0  0  0  0  0  0  0  0  0  0  0  0
  -31.9428   62.0013   62.2103 C   0  0  0  0  0  0  0  0  0  0  0  0
  -30.7758   61.5525   61.3420 C   0  0  0  0  0  0  0  0  0  0  0  0
  -29.4373   62.1169   61.7837 C   0  0  0  0  0  0  0  0  0  0  0  0
  -29.4872   64.4050   60.7357 C   0  0  0  0  0  0  0  0  0  0  0  0
  -29.4280   63.6148   62.0233 C   0  0  0  0  0  0  0  0  0  0  0  0
  -40.4652   58.4412   64.1122 C   0  0  0  0  0  0  0  0  0  0  0  0
  -40.0367   59.1831   65.2760 O   0  0  0  0  0  0  0  0  0  0  0  0
  -39.9800   60.7822   65.3127 P   0  0  0  0  0  0  0  0  0  0  0  0
  -39.7938   61.2657   63.9276 O   0  0  0  0  0  0  0  0  0  0  0  0
  -41.1483   61.2680   66.0857 O   0  0  0  0  0  0  0  0  0  0  0  0
  -41.9639   61.0619   65.6027 H   0  0  0  0  0  0  0  0  0  0  0  0
  -38.6634   61.1394   66.1384 O   0  0  0  0  0  0  0  0  0  0  0  0
  -37.3680   60.7607   65.6303 C   0  0  0  0  0  0  0  0  0  0  0  0
  -37.2832   63.1455   65.8491 O   0  0  0  0  0  0  0  0  0  0  0  0
  -36.6045   62.0170   65.2899 C   0  0  0  0  0  0  0  0  0  0  0  0
  -38.1983   63.1640   65.5281 H   0  0  0  0  0  0  0  0  0  0  0  0
  -35.0506   62.6513   67.0223 O   0  0  0  0  0  0  0  0  0  0  0  0
  -35.1769   61.9725   65.7794 C   0  0  0  0  0  0  0  0  0  0  0  0
  -34.1282   62.6119   67.3200 H   0  0  0  0  0  0  0  0  0  0  0  0
  -42.9194   58.2969   64.0093 O   0  0  0  0  0  0  0  0  0  0  0  0
  -43.6627   59.8700   65.4352 O   0  0  0  0  0  0  0  0  0  0  0  0
  -43.5470   58.7158   65.1250 C   0  0  0  0  0  0  0  0  0  0  0  0
  -44.0981   57.5733   65.9207 C   0  0  0  0  0  0  0  0  0  0  0  0
  -45.4083   57.9495   66.6050 C   0  0  0  0  0  0  0  0  0  0  0  0
  -46.6084   57.1536   66.1187 C   0  0  0  0  0  0  0  0  0  0  0  0
  -47.6816   58.0111   65.4577 C   0  0  0  0  0  0  0  0  0  0  0  0
  -47.8036   59.4059   66.0427 C   0  0  0  0  0  0  0  0  0  0  0  0
  -48.8802   60.2780   65.3906 C   0  0  0  0  0  0  0  0  0  0  0  0
  -50.3159   59.7769   65.5606 C   0  0  0  0  0  0  0  0  0  0  0  0
  -51.2830   60.5294   64.6966 C   0  0  0  0  0  0  0  0  0  0  0  0
  -51.6604   60.2095   63.4741 C   0  0  0  0  0  0  0  0  0  0  0  0
  -51.2005   59.0205   62.6910 C   0  0  0  0  0  0  0  0  0  0  0  0
  -49.8802   59.2739   61.9691 C   0  0  0  0  0  0  0  0  0  0  0  0
  -49.1318   58.0040   61.6039 C   0  0  0  0  0  0  0  0  0  0  0  0
  -49.8028   57.1946   60.5074 C   0  0  0  0  0  0  0  0  0  0  0  0
  -49.7216   57.8194   59.1243 C   0  0  0  0  0  0  0  0  0  0  0  0
  -48.3906   58.5007   58.8449 C   0  0  0  0  0  0  0  0  0  0  0  0
  -47.3765   57.6202   58.1422 C   0  0  0  0  0  0  0  0  0  0  0  0
  -46.7840   58.2733   56.9247 C   0  0  0  0  0  0  0  0  0  0  0  0
 21 22  1  0  0  0
  4  5  2  0  0  0
 25 24  1  0  0  0
 25 26  2  0  0  0
 25 27  1  0  0  0
 25 29  1  0  0  0
 22 20  1  0  0  0
  3  5  1  0  0  0
  3  2  1  0  0  0
 20 19  1  0  0  0
 24 23  1  0  0  0
 19 18  1  0  0  0
 18 17  1  0  0  0
 27 28  1  0  0  0
 17 16  1  0  0  0
 29 30  1  0  0  0
 16 15  1  0  0  0
 34 35  1  0  0  0
 34 36  1  0  0  0
 15 14  1  0  0  0
 31 32  1  0  0  0
 31 33  1  0  0  0
 14 13  1  0  0  0
 37  1  1  0  0  0
 37 39  1  0  0  0
 13 12  1  0  0  0
 38 39  2  0  0  0
 12 11  1  0  0  0
 11 10  1  0  0  0
 10  9  1  0  0  0
  9  8  1  0  0  0
  8  7  1  0  0  0
  7  6  1  0  0  0
  6  5  1  0  0  0
  2  1  1  0  0  0
  1 23  1  0  0  0
 30 32  1  0  0  0
 32 35  1  0  0  0
 39 40  1  0  0  0
 40 41  1  0  0  0
 41 42  1  0  0  0
 42 43  1  0  0  0
 43 44  1  0  0  0
 44 45  1  0  0  0
 45 46  1  0  0  0
 46 47  1  0  0  0
 47 48  2  0  0  0
 48 49  1  0  0  0
 49 50  1  0  0  0
 50 51  1  0  0  0
 51 52  1  0  0  0
 52 53  1  0  0  0
 53 54  1  0  0  0
 54 55  1  0  0  0
 55 56  1  0  0  0
M  CHG 1  26  -1
M  END
> <minimizedAffinity>
-8.45467

> <CNNscore>
0.4651314020

> <CNNaffinity>
7.1648764610

> <CNN_VS>
3.3326089382

> <CNNaffinity_variance>
0.8136709332

$$$$
/media/chris/experiments/cd1a-new-docking/inputs/ligands/7sh4_ligand.pdb


 56 55  0  0  0  0  0  0  0  0999 V2000
  -40.5725   59.4160   64.6645 C   0  0  0  0  0  0  0  0  0  0  0  0
  -40.4970   57.9208   64.7923 C   0  0  0  0  0  0  0  0  0  0  0  0
  -40.7658   57.4421   63.4575 O   0  0  0  0  0  0  0  0  0  0  0  0
  -41.9142   55.6956   64.2514 O   0  0  0  0  0  0  0  0  0  0  0  0
  -41.3389   56.2431   63.3498 C   0  0  0  0  0  0  0  0  0  0  0  0
  -41.2773   55.7372   61.9372 C   0  0  0  0  0  0  0  0  0  0  0  0
  -41.8297   56.7068   60.9062 C   0  0  0  0  0  0  0  0  0  0  0  0
  -40.8036   57.1044   59.8663 C   0  0  0  0  0  0  0  0  0  0  0  0
  -41.0970   58.4178   59.1772 C   0  0  0  0  0  0  0  0  0  0  0  0
  -40.7875   59.6234   60.0414 C   0  0  0  0  0  0  0  0  0  0  0  0
  -39.3454   60.0603   59.9568 C   0  0  0  0  0  0  0  0  0  0  0  0
  -38.5374   59.6594   61.1626 C   0  0  0  0  0  0  0  0  0  0  0  0
  -37.5998   58.5020   60.8993 C   0  0  0  0  0  0  0  0  0  0  0  0
  -37.7434   57.3891   61.9175 C   0  0  0  0  0  0  0  0  0  0  0  0
  -37.0671   57.6727   63.2425 C   0  0  0  0  0  0  0  0  0  0  0  0
  -35.5608   57.8802   63.1333 C   0  0  0  0  0  0  0  0  0  0  0  0
  -34.8784   58.1515   64.4602 C   0  0  0  0  0  0  0  0  0  0  0  0
  -33.4041   58.4727   64.3244 C   0  0  0  0  0  0  0  0  0  0  0  0
  -33.0569   59.2152   63.0417 C   0  0  0  0  0  0  0  0  0  0  0  0
  -31.5807   59.5453   62.9111 C   0  0  0  0  0  0  0  0  0  0  0  0
  -30.5339   60.9807   61.1280 C   0  0  0  0  0  0  0  0  0  0  0  0
  -31.2851   60.9565   62.4398 C   0  0  0  0  0  0  0  0  0  0  0  0
  -40.5122   60.1026   66.0049 C   0  0  0  0  0  0  0  0  0  0  0  0
  -39.6699   61.2714   65.8914 O   0  0  0  0  0  0  0  0  0  0  0  0
  -38.1664   61.2072   65.3460 P   0  0  0  0  0  0  0  0  0  0  0  0
  -37.6009   59.8919   65.7160 O   0  0  0  0  0  0  0  0  0  0  0  0
  -38.1765   61.6017   63.9168 O   0  0  0  0  0  0  0  0  0  0  0  0
  -38.6541   60.9337   63.4004 H   0  0  0  0  0  0  0  0  0  0  0  0
  -37.3743   62.3280   66.1579 O   0  0  0  0  0  0  0  0  0  0  0  0
  -36.4921   63.2337   65.4642 C   0  0  0  0  0  0  0  0  0  0  0  0
  -36.2149   63.9566   67.7320 O   0  0  0  0  0  0  0  0  0  0  0  0
  -35.5481   63.8431   66.4713 C   0  0  0  0  0  0  0  0  0  0  0  0
  -37.0295   64.4715   67.6217 H   0  0  0  0  0  0  0  0  0  0  0  0
  -33.4870   63.5549   67.6909 O   0  0  0  0  0  0  0  0  0  0  0  0
  -34.2765   63.0436   66.6246 C   0  0  0  0  0  0  0  0  0  0  0  0
  -32.6760   63.0293   67.7736 H   0  0  0  0  0  0  0  0  0  0  0  0
  -41.7992   59.7556   63.9366 O   0  0  0  0  0  0  0  0  0  0  0  0
  -41.0351   61.6399   62.9744 O   0  0  0  0  0  0  0  0  0  0  0  0
  -41.9205   61.0251   63.5034 C   0  0  0  0  0  0  0  0  0  0  0  0
  -43.2943   61.5704   63.7434 C   0  0  0  0  0  0  0  0  0  0  0  0
  -44.2447   60.4889   64.2470 C   0  0  0  0  0  0  0  0  0  0  0  0
  -44.5441   60.5755   65.7346 C   0  0  0  0  0  0  0  0  0  0  0  0
  -45.2035   59.3218   66.2979 C   0  0  0  0  0  0  0  0  0  0  0  0
  -46.5932   59.0563   65.7497 C   0  0  0  0  0  0  0  0  0  0  0  0
  -47.7304   59.6651   66.5750 C   0  0  0  0  0  0  0  0  0  0  0  0
  -48.9491   60.1198   65.7692 C   0  0  0  0  0  0  0  0  0  0  0  0
  -48.5825   60.5345   64.3758 C   0  0  0  0  0  0  0  0  0  0  0  0
  -49.3661   60.5102   63.3152 C   0  0  0  0  0  0  0  0  0  0  0  0
  -50.7933   60.0627   63.2823 C   0  0  0  0  0  0  0  0  0  0  0  0
  -50.9804   58.7700   62.4935 C   0  0  0  0  0  0  0  0  0  0  0  0
  -49.6850   58.1978   61.9450 C   0  0  0  0  0  0  0  0  0  0  0  0
  -49.3343   58.7043   60.5565 C   0  0  0  0  0  0  0  0  0  0  0  0
  -48.5267   57.7290   59.7160 C   0  0  0  0  0  0  0  0  0  0  0  0
  -48.3950   58.1492   58.2601 C   0  0  0  0  0  0  0  0  0  0  0  0
  -47.0650   57.7912   57.6272 C   0  0  0  0  0  0  0  0  0  0  0  0
  -47.0195   56.3722   57.1330 C   0  0  0  0  0  0  0  0  0  0  0  0
 21 22  1  0  0  0
  4  5  2  0  0  0
 25 24  1  0  0  0
 25 26  2  0  0  0
 25 27  1  0  0  0
 25 29  1  0  0  0
 22 20  1  0  0  0
  3  5  1  0  0  0
  3  2  1  0  0  0
 20 19  1  0  0  0
 24 23  1  0  0  0
 19 18  1  0  0  0
 18 17  1  0  0  0
 27 28  1  0  0  0
 17 16  1  0  0  0
 29 30  1  0  0  0
 16 15  1  0  0  0
 34 35  1  0  0  0
 34 36  1  0  0  0
 15 14  1  0  0  0
 31 32  1  0  0  0
 31 33  1  0  0  0
 14 13  1  0  0  0
 37  1  1  0  0  0
 37 39  1  0  0  0
 13 12  1  0  0  0
 38 39  2  0  0  0
 12 11  1  0  0  0
 11 10  1  0  0  0
 10  9  1  0  0  0
  9  8  1  0  0  0
  8  7  1  0  0  0
  7  6  1  0  0  0
  6  5  1  0  0  0
  2  1  1  0  0  0
  1 23  1  0  0  0
 30 32  1  0  0  0
 32 35  1  0  0  0
 39 40  1  0  0  0
 40 41  1  0  0  0
 41 42  1  0  0  0
 42 43  1  0  0  0
 43 44  1  0  0  0
 44 45  1  0  0  0
 45 46  1  0  0  0
 46 47  1  0  0  0
 47 48  2  0  0  0
 48 49  1  0  0  0
 49 50  1  0  0  0
 50 51  1  0  0  0
 51 52  1  0  0  0
 52 53  1  0  0  0
 53 54  1  0  0  0
 54 55  1  0  0  0
 55 56  1  0  0  0
M  CHG 1  26  -1
M  END
> <minimizedAffinity>
-8.75822

> <CNNscore>
0.4593633413

> <CNNaffinity>
7.3829889297

> <CNN_VS>
3.3914744854

> <CNNaffinity_variance>
1.5543721914

$$$$
/media/chris/experiments/cd1a-new-docking/inputs/ligands/7sh4_ligand.pdb


 56 55  0  0  0  0  0  0  0  0999 V2000
  -36.7950   61.2900   64.5665 C   0  0  0  0  0  0  0  0  0  0  0  0
  -38.0628   60.7391   65.1556 C   0  0  0  0  0  0  0  0  0  0  0  0
  -39.0645   61.0231   64.1561 O   0  0  0  0  0  0  0  0  0  0  0  0
  -40.7325   60.8936   65.6394 O   0  0  0  0  0  0  0  0  0  0  0  0
  -40.3374   60.8359   64.5062 C   0  0  0  0  0  0  0  0  0  0  0  0
  -41.2140   60.6720   63.2981 C   0  0  0  0  0  0  0  0  0  0  0  0
  -42.5058   61.4696   63.3559 C   0  0  0  0  0  0  0  0  0  0  0  0
  -43.6957   60.6293   63.7687 C   0  0  0  0  0  0  0  0  0  0  0  0
  -44.9405   61.4291   64.0802 C   0  0  0  0  0  0  0  0  0  0  0  0
  -45.9254   60.6778   64.9528 C   0  0  0  0  0  0  0  0  0  0  0  0
  -46.9856   59.9510   64.1619 C   0  0  0  0  0  0  0  0  0  0  0  0
  -48.2410   60.7617   63.9767 C   0  0  0  0  0  0  0  0  0  0  0  0
  -49.3579   60.3615   64.9150 C   0  0  0  0  0  0  0  0  0  0  0  0
  -50.7259   60.4556   64.2702 C   0  0  0  0  0  0  0  0  0  0  0  0
  -50.7510   60.0484   62.8118 C   0  0  0  0  0  0  0  0  0  0  0  0
  -50.8733   58.5446   62.5941 C   0  0  0  0  0  0  0  0  0  0  0  0
  -50.0644   58.0239   61.4217 C   0  0  0  0  0  0  0  0  0  0  0  0
  -49.4563   59.1228   60.5745 C   0  0  0  0  0  0  0  0  0  0  0  0
  -48.9027   58.6321   59.2440 C   0  0  0  0  0  0  0  0  0  0  0  0
  -48.1479   57.3188   59.3472 C   0  0  0  0  0  0  0  0  0  0  0  0
  -47.0675   58.2300   57.2644 C   0  0  0  0  0  0  0  0  0  0  0  0
  -47.1076   57.0979   58.2655 C   0  0  0  0  0  0  0  0  0  0  0  0
  -36.9150   62.7554   64.2347 C   0  0  0  0  0  0  0  0  0  0  0  0
  -36.4686   62.9627   62.8759 O   0  0  0  0  0  0  0  0  0  0  0  0
  -35.6132   64.2396   62.4293 P   0  0  0  0  0  0  0  0  0  0  0  0
  -36.5341   65.2100   61.7992 O   0  0  0  0  0  0  0  0  0  0  0  0
  -34.7998   64.6789   63.5886 O   0  0  0  0  0  0  0  0  0  0  0  0
  -35.3855   65.0078   64.2884 H   0  0  0  0  0  0  0  0  0  0  0  0
  -34.6158   63.7077   61.3046 O   0  0  0  0  0  0  0  0  0  0  0  0
  -33.2445   64.1539   61.2866 C   0  0  0  0  0  0  0  0  0  0  0  0
  -31.1733   63.0994   60.7028 O   0  0  0  0  0  0  0  0  0  0  0  0
  -32.3517   62.9565   61.5014 C   0  0  0  0  0  0  0  0  0  0  0  0
  -31.4250   63.2179   59.7735 H   0  0  0  0  0  0  0  0  0  0  0  0
  -33.0546   62.1905   63.6780 O   0  0  0  0  0  0  0  0  0  0  0  0
  -31.9783   62.7708   62.9526 C   0  0  0  0  0  0  0  0  0  0  0  0
  -32.7962   62.0792   64.6063 H   0  0  0  0  0  0  0  0  0  0  0  0
  -36.4510   60.4935   63.3846 O   0  0  0  0  0  0  0  0  0  0  0  0
  -34.5016   59.7425   64.2189 O   0  0  0  0  0  0  0  0  0  0  0  0
  -35.4698   59.5819   63.5271 C   0  0  0  0  0  0  0  0  0  0  0  0
  -35.7395   58.3396   62.7358 C   0  0  0  0  0  0  0  0  0  0  0  0
  -37.1324   57.7869   63.0209 C   0  0  0  0  0  0  0  0  0  0  0  0
  -38.1043   57.9377   61.8621 C   0  0  0  0  0  0  0  0  0  0  0  0
  -37.4685   58.5192   60.6046 C   0  0  0  0  0  0  0  0  0  0  0  0
  -38.4710   59.0081   59.5758 C   0  0  0  0  0  0  0  0  0  0  0  0
  -39.4981   60.0089   60.1130 C   0  0  0  0  0  0  0  0  0  0  0  0
  -40.9617   59.6314   59.8752 C   0  0  0  0  0  0  0  0  0  0  0  0
  -41.1222   58.1815   59.5286 C   0  0  0  0  0  0  0  0  0  0  0  0
  -41.4036   57.1992   60.3624 C   0  0  0  0  0  0  0  0  0  0  0  0
  -41.6246   57.3286   61.8365 C   0  0  0  0  0  0  0  0  0  0  0  0
  -41.3983   56.0137   62.5770 C   0  0  0  0  0  0  0  0  0  0  0  0
  -41.7277   56.0836   64.0577 C   0  0  0  0  0  0  0  0  0  0  0  0
  -42.4484   57.3580   64.4627 C   0  0  0  0  0  0  0  0  0  0  0  0
  -43.8230   57.1374   65.0722 C   0  0  0  0  0  0  0  0  0  0  0  0
  -44.0198   57.8560   66.3983 C   0  0  0  0  0  0  0  0  0  0  0  0
  -45.4228   57.7487   66.9618 C   0  0  0  0  0  0  0  0  0  0  0  0
  -46.3564   56.9931   66.0576 C   0  0  0  0  0  0  0  0  0  0  0  0
 21 22  1  0  0  0
  4  5  2  0  0  0
 25 24  1  0  0  0
 25 26  2  0  0  0
 25 27  1  0  0  0
 25 29  1  0  0  0
 22 20  1  0  0  0
  3  5  1  0  0  0
  3  2  1  0  0  0
 20 19  1  0  0  0
 24 23  1  0  0  0
 19 18  1  0  0  0
 18 17  1  0  0  0
 27 28  1  0  0  0
 17 16  1  0  0  0
 29 30  1  0  0  0
 16 15  1  0  0  0
 34 35  1  0  0  0
 34 36  1  0  0  0
 15 14  1  0  0  0
 31 32  1  0  0  0
 31 33  1  0  0  0
 14 13  1  0  0  0
 37  1  1  0  0  0
 37 39  1  0  0  0
 13 12  1  0  0  0
 38 39  2  0  0  0
 12 11  1  0  0  0
 11 10  1  0  0  0
 10  9  1  0  0  0
  9  8  1  0  0  0
  8  7  1  0  0  0
  7  6  1  0  0  0
  6  5  1  0  0  0
  2  1  1  0  0  0
  1 23  1  0  0  0
 30 32  1  0  0  0
 32 35  1  0  0  0
 39 40  1  0  0  0
 40 41  1  0  0  0
 41 42  1  0  0  0
 42 43  1  0  0  0
 43 44  1  0  0  0
 44 45  1  0  0  0
 45 46  1  0  0  0
 46 47  1  0  0  0
 47 48  2  0  0  0
 48 49  1  0  0  0
 49 50  1  0  0  0
 50 51  1  0  0  0
 51 52  1  0  0  0
 52 53  1  0  0  0
 53 54  1  0  0  0
 54 55  1  0  0  0
 55 56  1  0  0  0
M  CHG 1  26  -1
M  END
> <minimizedAffinity>
-8.30153

> <CNNscore>
0.4202833772

> <CNNaffinity>
7.6331787109

> <CNN_VS>
3.2080981731

> <CNNaffinity_variance>
0.7701004744

$$$$
/media/chris/experiments/cd1a-new-docking/inputs/ligands/7sh4_ligand.pdb


 56 55  0  0  0  0  0  0  0  0999 V2000
  -41.3360   59.9632   64.9067 C   0  0  0  0  0  0  0  0  0  0  0  0
  -42.4692   59.5235   65.7899 C   0  0  0  0  0  0  0  0  0  0  0  0
  -42.3182   58.0900   65.8640 O   0  0  0  0  0  0  0  0  0  0  0  0
  -42.8699   56.2154   64.7773 O   0  0  0  0  0  0  0  0  0  0  0  0
  -43.0991   57.3583   65.0685 C   0  0  0  0  0  0  0  0  0  0  0  0
  -44.3471   58.1059   64.6965 C   0  0  0  0  0  0  0  0  0  0  0  0
  -45.5155   57.8706   65.6387 C   0  0  0  0  0  0  0  0  0  0  0  0
  -46.1676   59.1579   66.0971 C   0  0  0  0  0  0  0  0  0  0  0  0
  -46.6875   60.0237   64.9717 C   0  0  0  0  0  0  0  0  0  0  0  0
  -48.1436   60.4067   65.1421 C   0  0  0  0  0  0  0  0  0  0  0  0
  -48.9785   59.3096   65.7561 C   0  0  0  0  0  0  0  0  0  0  0  0
  -50.4534   59.4828   65.5064 C   0  0  0  0  0  0  0  0  0  0  0  0
  -50.7639   60.4754   64.4080 C   0  0  0  0  0  0  0  0  0  0  0  0
  -51.5128   59.8503   63.2486 C   0  0  0  0  0  0  0  0  0  0  0  0
  -50.7894   58.6884   62.6002 C   0  0  0  0  0  0  0  0  0  0  0  0
  -49.4868   59.0805   61.9122 C   0  0  0  0  0  0  0  0  0  0  0  0
  -49.6242   59.3146   60.4201 C   0  0  0  0  0  0  0  0  0  0  0  0
  -49.9305   58.0535   59.6386 C   0  0  0  0  0  0  0  0  0  0  0  0
  -48.9359   56.9273   59.8832 C   0  0  0  0  0  0  0  0  0  0  0  0
  -47.6139   57.1164   59.1609 C   0  0  0  0  0  0  0  0  0  0  0  0
  -46.8908   58.3622   57.0967 C   0  0  0  0  0  0  0  0  0  0  0  0
  -47.7255   57.2308   57.6524 C   0  0  0  0  0  0  0  0  0  0  0  0
  -40.0499   60.1273   65.6753 C   0  0  0  0  0  0  0  0  0  0  0  0
  -39.3427   61.2769   65.1588 O   0  0  0  0  0  0  0  0  0  0  0  0
  -37.7650   61.2756   64.8893 P   0  0  0  0  0  0  0  0  0  0  0  0
  -37.1903   60.0785   65.5402 O   0  0  0  0  0  0  0  0  0  0  0  0
  -37.5447   61.4711   63.4362 O   0  0  0  0  0  0  0  0  0  0  0  0
  -37.8775   60.6992   62.9520 H   0  0  0  0  0  0  0  0  0  0  0  0
  -37.2059   62.5624   65.6470 O   0  0  0  0  0  0  0  0  0  0  0  0
  -35.8010   62.6641   65.9562 C   0  0  0  0  0  0  0  0  0  0  0  0
  -36.2389   64.1769   67.7624 O   0  0  0  0  0  0  0  0  0  0  0  0
  -35.5369   64.0372   66.5237 C   0  0  0  0  0  0  0  0  0  0  0  0
  -37.1828   64.0048   67.6203 H   0  0  0  0  0  0  0  0  0  0  0  0
  -33.5047   63.3598   67.6326 O   0  0  0  0  0  0  0  0  0  0  0  0
  -34.0643   64.3019   66.7266 C   0  0  0  0  0  0  0  0  0  0  0  0
  -32.5599   63.5457   67.7499 H   0  0  0  0  0  0  0  0  0  0  0  0
  -41.7289   61.2068   64.2366 O   0  0  0  0  0  0  0  0  0  0  0  0
  -43.5390   61.6792   62.9873 O   0  0  0  0  0  0  0  0  0  0  0  0
  -42.5031   61.0915   63.1405 C   0  0  0  0  0  0  0  0  0  0  0  0
  -41.9095   60.1591   62.1305 C   0  0  0  0  0  0  0  0  0  0  0  0
  -41.2656   60.9214   60.9767 C   0  0  0  0  0  0  0  0  0  0  0  0
  -41.0456   60.0811   59.7295 C   0  0  0  0  0  0  0  0  0  0  0  0
  -41.2981   58.5931   59.9443 C   0  0  0  0  0  0  0  0  0  0  0  0
  -40.0425   57.7421   59.9034 C   0  0  0  0  0  0  0  0  0  0  0  0
  -38.7915   58.4759   59.4122 C   0  0  0  0  0  0  0  0  0  0  0  0
  -37.6898   58.6575   60.4584 C   0  0  0  0  0  0  0  0  0  0  0  0
  -38.0248   57.9828   61.7547 C   0  0  0  0  0  0  0  0  0  0  0  0
  -37.1808   57.6597   62.7153 C   0  0  0  0  0  0  0  0  0  0  0  0
  -35.7045   57.9025   62.7118 C   0  0  0  0  0  0  0  0  0  0  0  0
  -35.0806   57.7178   64.0920 C   0  0  0  0  0  0  0  0  0  0  0  0
  -33.8883   58.6228   64.3480 C   0  0  0  0  0  0  0  0  0  0  0  0
  -32.9264   58.7104   63.1756 C   0  0  0  0  0  0  0  0  0  0  0  0
  -32.2263   60.0519   63.0346 C   0  0  0  0  0  0  0  0  0  0  0  0
  -31.6493   60.2909   61.6477 C   0  0  0  0  0  0  0  0  0  0  0  0
  -31.1194   61.6939   61.4277 C   0  0  0  0  0  0  0  0  0  0  0  0
  -31.6344   62.6758   62.4429 C   0  0  0  0  0  0  0  0  0  0  0  0
 21 22  1  0  0  0
  4  5  2  0  0  0
 25 24  1  0  0  0
 25 26  2  0  0  0
 25 27  1  0  0  0
 25 29  1  0  0  0
 22 20  1  0  0  0
  3  5  1  0  0  0
  3  2  1  0  0  0
 20 19  1  0  0  0
 24 23  1  0  0  0
 19 18  1  0  0  0
 18 17  1  0  0  0
 27 28  1  0  0  0
 17 16  1  0  0  0
 29 30  1  0  0  0
 16 15  1  0  0  0
 34 35  1  0  0  0
 34 36  1  0  0  0
 15 14  1  0  0  0
 31 32  1  0  0  0
 31 33  1  0  0  0
 14 13  1  0  0  0
 37  1  1  0  0  0
 37 39  1  0  0  0
 13 12  1  0  0  0
 38 39  2  0  0  0
 12 11  1  0  0  0
 11 10  1  0  0  0
 10  9  1  0  0  0
  9  8  1  0  0  0
  8  7  1  0  0  0
  7  6  1  0  0  0
  6  5  1  0  0  0
  2  1  1  0  0  0
  1 23  1  0  0  0
 30 32  1  0  0  0
 32 35  1  0  0  0
 39 40  1  0  0  0
 40 41  1  0  0  0
 41 42  1  0  0  0
 42 43  1  0  0  0
 43 44  1  0  0  0
 44 45  1  0  0  0
 45 46  1  0  0  0
 46 47  1  0  0  0
 47 48  2  0  0  0
 48 49  1  0  0  0
 49 50  1  0  0  0
 50 51  1  0  0  0
 51 52  1  0  0  0
 52 53  1  0  0  0
 53 54  1  0  0  0
 54 55  1  0  0  0
 55 56  1  0  0  0
M  CHG 1  26  -1
M  END
> <minimizedAffinity>
-8.94715

> <CNNscore>
0.4142467976

> <CNNaffinity>
7.3093175888

> <CNN_VS>
3.0278613567

> <CNNaffinity_variance>
1.3907954693

$$$$
/media/chris/experiments/cd1a-new-docking/inputs/ligands/7sh4_ligand.pdb


 56 55  0  0  0  0  0  0  0  0999 V2000
  -41.2768   60.2573   65.4581 C   0  0  0  0  0  0  0  0  0  0  0  0
  -42.0540   59.5098   66.5045 C   0  0  0  0  0  0  0  0  0  0  0  0
  -42.0290   58.1412   66.0469 O   0  0  0  0  0  0  0  0  0  0  0  0
  -43.1986   56.6850   64.8177 O   0  0  0  0  0  0  0  0  0  0  0  0
  -43.1546   57.6605   65.5179 C   0  0  0  0  0  0  0  0  0  0  0  0
  -44.3532   58.4178   66.0123 C   0  0  0  0  0  0  0  0  0  0  0  0
  -45.5566   57.5429   66.3198 C   0  0  0  0  0  0  0  0  0  0  0  0
  -46.8528   58.1230   65.7947 C   0  0  0  0  0  0  0  0  0  0  0  0
  -46.8431   59.6277   65.6474 C   0  0  0  0  0  0  0  0  0  0  0  0
  -47.3703   60.0959   64.3062 C   0  0  0  0  0  0  0  0  0  0  0  0
  -48.6039   60.9578   64.4208 C   0  0  0  0  0  0  0  0  0  0  0  0
  -49.8093   60.1979   64.9079 C   0  0  0  0  0  0  0  0  0  0  0  0
  -51.0584   60.4716   64.0997 C   0  0  0  0  0  0  0  0  0  0  0  0
  -51.2329   59.5044   62.9464 C   0  0  0  0  0  0  0  0  0  0  0  0
  -50.4512   58.2160   63.0966 C   0  0  0  0  0  0  0  0  0  0  0  0
  -49.3981   58.0048   62.0149 C   0  0  0  0  0  0  0  0  0  0  0  0
  -49.5922   58.8745   60.7877 C   0  0  0  0  0  0  0  0  0  0  0  0
  -50.3468   58.1813   59.6719 C   0  0  0  0  0  0  0  0  0  0  0  0
  -49.4858   57.8671   58.4564 C   0  0  0  0  0  0  0  0  0  0  0  0
  -48.0397   58.3046   58.6065 C   0  0  0  0  0  0  0  0  0  0  0  0
  -47.0683   56.4955   57.1508 C   0  0  0  0  0  0  0  0  0  0  0  0
  -47.1520   57.9809   57.4198 C   0  0  0  0  0  0  0  0  0  0  0  0
  -39.8677   60.5536   65.9034 C   0  0  0  0  0  0  0  0  0  0  0  0
  -39.2091   61.3296   64.8774 O   0  0  0  0  0  0  0  0  0  0  0  0
  -37.6269   61.5700   64.8532 P   0  0  0  0  0  0  0  0  0  0  0  0
  -36.9901   60.5094   65.6635 O   0  0  0  0  0  0  0  0  0  0  0  0
  -37.2068   61.7364   63.4410 O   0  0  0  0  0  0  0  0  0  0  0  0
  -37.3359   60.9013   62.9647 H   0  0  0  0  0  0  0  0  0  0  0  0
  -37.3994   62.9608   65.5991 O   0  0  0  0  0  0  0  0  0  0  0  0
  -36.2217   63.7451   65.3201 C   0  0  0  0  0  0  0  0  0  0  0  0
  -36.3989   63.9415   67.7018 O   0  0  0  0  0  0  0  0  0  0  0  0
  -35.4714   63.9530   66.6126 C   0  0  0  0  0  0  0  0  0  0  0  0
  -37.0818   64.6138   67.5520 H   0  0  0  0  0  0  0  0  0  0  0  0
  -33.3176   63.4518   67.5762 O   0  0  0  0  0  0  0  0  0  0  0  0
  -34.4001   62.9113   66.8295 C   0  0  0  0  0  0  0  0  0  0  0  0
  -32.6408   62.7689   67.7051 H   0  0  0  0  0  0  0  0  0  0  0  0
  -42.0094   61.4836   65.1273 O   0  0  0  0  0  0  0  0  0  0  0  0
  -44.1926   61.7601   64.6608 O   0  0  0  0  0  0  0  0  0  0  0  0
  -43.1057   61.3507   64.3561 C   0  0  0  0  0  0  0  0  0  0  0  0
  -42.8034   60.6492   63.0683 C   0  0  0  0  0  0  0  0  0  0  0  0
  -42.6477   61.6374   61.9168 C   0  0  0  0  0  0  0  0  0  0  0  0
  -41.5768   61.2480   60.9110 C   0  0  0  0  0  0  0  0  0  0  0  0
  -40.2653   60.8125   61.5545 C   0  0  0  0  0  0  0  0  0  0  0  0
  -39.2789   60.1897   60.5842 C   0  0  0  0  0  0  0  0  0  0  0  0
  -39.9193   59.5397   59.3545 C   0  0  0  0  0  0  0  0  0  0  0  0
  -40.0434   58.0158   59.4132 C   0  0  0  0  0  0  0  0  0  0  0  0
  -41.2850   57.5772   60.1303 C   0  0  0  0  0  0  0  0  0  0  0  0
  -41.3471   56.9876   61.3084 C   0  0  0  0  0  0  0  0  0  0  0  0
  -40.1842   56.6333   62.1805 C   0  0  0  0  0  0  0  0  0  0  0  0
  -39.9702   57.6430   63.3044 C   0  0  0  0  0  0  0  0  0  0  0  0
  -38.5104   57.9835   63.5480 C   0  0  0  0  0  0  0  0  0  0  0  0
  -37.6357   57.8353   62.3150 C   0  0  0  0  0  0  0  0  0  0  0  0
  -36.1889   57.4747   62.6092 C   0  0  0  0  0  0  0  0  0  0  0  0
  -35.4194   58.5830   63.3116 C   0  0  0  0  0  0  0  0  0  0  0  0
  -34.7309   58.1484   64.5901 C   0  0  0  0  0  0  0  0  0  0  0  0
  -33.5449   59.0065   64.9325 C   0  0  0  0  0  0  0  0  0  0  0  0
 21 22  1  0  0  0
  4  5  2  0  0  0
 25 24  1  0  0  0
 25 26  2  0  0  0
 25 27  1  0  0  0
 25 29  1  0  0  0
 22 20  1  0  0  0
  3  5  1  0  0  0
  3  2  1  0  0  0
 20 19  1  0  0  0
 24 23  1  0  0  0
 19 18  1  0  0  0
 18 17  1  0  0  0
 27 28  1  0  0  0
 17 16  1  0  0  0
 29 30  1  0  0  0
 16 15  1  0  0  0
 34 35  1  0  0  0
 34 36  1  0  0  0
 15 14  1  0  0  0
 31 32  1  0  0  0
 31 33  1  0  0  0
 14 13  1  0  0  0
 37  1  1  0  0  0
 37 39  1  0  0  0
 13 12  1  0  0  0
 38 39  2  0  0  0
 12 11  1  0  0  0
 11 10  1  0  0  0
 10  9  1  0  0  0
  9  8  1  0  0  0
  8  7  1  0  0  0
  7  6  1  0  0  0
  6  5  1  0  0  0
  2  1  1  0  0  0
  1 23  1  0  0  0
 30 32  1  0  0  0
 32 35  1  0  0  0
 39 40  1  0  0  0
 40 41  1  0  0  0
 41 42  1  0  0  0
 42 43  1  0  0  0
 43 44  1  0  0  0
 44 45  1  0  0  0
 45 46  1  0  0  0
 46 47  1  0  0  0
 47 48  2  0  0  0
 48 49  1  0  0  0
 49 50  1  0  0  0
 50 51  1  0  0  0
 51 52  1  0  0  0
 52 53  1  0  0  0
 53 54  1  0  0  0
 54 55  1  0  0  0
 55 56  1  0  0  0
M  CHG 1  26  -1
M  END
> <minimizedAffinity>
-8.82883

> <CNNscore>
0.3424285650

> <CNNaffinity>
7.6084594727

> <CNN_VS>
2.6053538322

> <CNNaffinity_variance>
1.5134412050

$$$$
/media/chris/experiments/cd1a-new-docking/inputs/ligands/7sh4_ligand.pdb


 56 55  0  0  0  0  0  0  0  0999 V2000
  -39.6647   59.9276   64.5651 C   0  0  0  0  0  0  0  0  0  0  0  0
  -40.1687   58.5532   64.9038 C   0  0  0  0  0  0  0  0  0  0  0  0
  -40.8285   58.1160   63.6969 O   0  0  0  0  0  0  0  0  0  0  0  0
  -41.4516   55.9737   63.8455 O   0  0  0  0  0  0  0  0  0  0  0  0
  -41.7308   57.1421   63.8206 C   0  0  0  0  0  0  0  0  0  0  0  0
  -43.1055   57.7018   64.0479 C   0  0  0  0  0  0  0  0  0  0  0  0
  -43.7290   57.2971   65.3730 C   0  0  0  0  0  0  0  0  0  0  0  0
  -45.2104   57.6025   65.4414 C   0  0  0  0  0  0  0  0  0  0  0  0
  -45.6334   58.3410   66.6911 C   0  0  0  0  0  0  0  0  0  0  0  0
  -46.2893   59.6752   66.3984 C   0  0  0  0  0  0  0  0  0  0  0  0
  -47.1722   59.6473   65.1747 C   0  0  0  0  0  0  0  0  0  0  0  0
  -48.4759   60.3744   65.3731 C   0  0  0  0  0  0  0  0  0  0  0  0
  -49.2359   60.6063   64.0860 C   0  0  0  0  0  0  0  0  0  0  0  0
  -50.7243   60.3638   64.2333 C   0  0  0  0  0  0  0  0  0  0  0  0
  -51.3210   59.5012   63.1408 C   0  0  0  0  0  0  0  0  0  0  0  0
  -50.3653   58.4438   62.5999 C   0  0  0  0  0  0  0  0  0  0  0  0
  -50.1407   58.5246   61.1022 C   0  0  0  0  0  0  0  0  0  0  0  0
  -49.4879   57.2859   60.5237 C   0  0  0  0  0  0  0  0  0  0  0  0
  -48.3614   57.5899   59.5461 C   0  0  0  0  0  0  0  0  0  0  0  0
  -47.6965   56.3480   58.9799 C   0  0  0  0  0  0  0  0  0  0  0  0
  -46.9786   57.9521   57.1779 C   0  0  0  0  0  0  0  0  0  0  0  0
  -47.1573   56.5031   57.5705 C   0  0  0  0  0  0  0  0  0  0  0  0
  -38.3729   60.2472   65.2728 C   0  0  0  0  0  0  0  0  0  0  0  0
  -38.0343   61.6294   65.0211 O   0  0  0  0  0  0  0  0  0  0  0  0
  -36.9460   62.0716   63.9339 P   0  0  0  0  0  0  0  0  0  0  0  0
  -37.1607   61.2616   62.7155 O   0  0  0  0  0  0  0  0  0  0  0  0
  -36.9797   63.5497   63.8217 O   0  0  0  0  0  0  0  0  0  0  0  0
  -37.8299   63.8260   63.4450 H   0  0  0  0  0  0  0  0  0  0  0  0
  -35.5365   61.6596   64.5553 O   0  0  0  0  0  0  0  0  0  0  0  0
  -34.6033   62.6794   64.9664 C   0  0  0  0  0  0  0  0  0  0  0  0
  -33.5245   62.7193   67.1058 O   0  0  0  0  0  0  0  0  0  0  0  0
  -34.7787   62.9162   66.4463 C   0  0  0  0  0  0  0  0  0  0  0  0
  -33.1894   61.8315   66.9049 H   0  0  0  0  0  0  0  0  0  0  0  0
  -36.7369   64.2839   66.7825 O   0  0  0  0  0  0  0  0  0  0  0  0
  -35.3155   64.2947   66.7483 C   0  0  0  0  0  0  0  0  0  0  0  0
  -37.0624   65.1767   66.9775 H   0  0  0  0  0  0  0  0  0  0  0  0
  -40.7150   60.8976   64.8906 O   0  0  0  0  0  0  0  0  0  0  0  0
  -40.8873   60.5685   67.1092 O   0  0  0  0  0  0  0  0  0  0  0  0
  -41.4015   60.6943   66.0315 C   0  0  0  0  0  0  0  0  0  0  0  0
  -42.8801   60.6626   65.7978 C   0  0  0  0  0  0  0  0  0  0  0  0
  -43.3601   61.9218   65.0832 C   0  0  0  0  0  0  0  0  0  0  0  0
  -44.1085   61.6485   63.7888 C   0  0  0  0  0  0  0  0  0  0  0  0
  -43.3130   60.8181   62.7881 C   0  0  0  0  0  0  0  0  0  0  0  0
  -42.3956   61.6364   61.8986 C   0  0  0  0  0  0  0  0  0  0  0  0
  -41.1535   60.8889   61.4055 C   0  0  0  0  0  0  0  0  0  0  0  0
  -41.2225   60.3934   59.9594 C   0  0  0  0  0  0  0  0  0  0  0  0
  -41.1201   58.9004   59.8683 C   0  0  0  0  0  0  0  0  0  0  0  0
  -40.0790   58.2066   59.4510 C   0  0  0  0  0  0  0  0  0  0  0  0
  -38.7747   58.7688   58.9807 C   0  0  0  0  0  0  0  0  0  0  0  0
  -37.6519   58.5604   59.9928 C   0  0  0  0  0  0  0  0  0  0  0  0
  -38.1361   58.4625   61.4288 C   0  0  0  0  0  0  0  0  0  0  0  0
  -37.4908   57.3338   62.2144 C   0  0  0  0  0  0  0  0  0  0  0  0
  -36.4634   57.7868   63.2385 C   0  0  0  0  0  0  0  0  0  0  0  0
  -35.1981   58.3565   62.6156 C   0  0  0  0  0  0  0  0  0  0  0  0
  -33.9299   58.0404   63.3835 C   0  0  0  0  0  0  0  0  0  0  0  0
  -33.9404   58.5996   64.7788 C   0  0  0  0  0  0  0  0  0  0  0  0
 21 22  1  0  0  0
  4  5  2  0  0  0
 25 24  1  0  0  0
 25 26  2  0  0  0
 25 27  1  0  0  0
 25 29  1  0  0  0
 22 20  1  0  0  0
  3  5  1  0  0  0
  3  2  1  0  0  0
 20 19  1  0  0  0
 24 23  1  0  0  0
 19 18  1  0  0  0
 18 17  1  0  0  0
 27 28  1  0  0  0
 17 16  1  0  0  0
 29 30  1  0  0  0
 16 15  1  0  0  0
 34 35  1  0  0  0
 34 36  1  0  0  0
 15 14  1  0  0  0
 31 32  1  0  0  0
 31 33  1  0  0  0
 14 13  1  0  0  0
 37  1  1  0  0  0
 37 39  1  0  0  0
 13 12  1  0  0  0
 38 39  2  0  0  0
 12 11  1  0  0  0
 11 10  1  0  0  0
 10  9  1  0  0  0
  9  8  1  0  0  0
  8  7  1  0  0  0
  7  6  1  0  0  0
  6  5  1  0  0  0
  2  1  1  0  0  0
  1 23  1  0  0  0
 30 32  1  0  0  0
 32 35  1  0  0  0
 39 40  1  0  0  0
 40 41  1  0  0  0
 41 42  1  0  0  0
 42 43  1  0  0  0
 43 44  1  0  0  0
 44 45  1  0  0  0
 45 46  1  0  0  0
 46 47  1  0  0  0
 47 48  2  0  0  0
 48 49  1  0  0  0
 49 50  1  0  0  0
 50 51  1  0  0  0
 51 52  1  0  0  0
 52 53  1  0  0  0
 53 54  1  0  0  0
 54 55  1  0  0  0
 55 56  1  0  0  0
M  CHG 1  26  -1
M  END
> <minimizedAffinity>
-8.46444

> <CNNscore>
0.3250254989

> <CNNaffinity>
7.5119962692

> <CNN_VS>
2.4415903091

> <CNNaffinity_variance>
1.7807925940

$$$$
/media/chris/experiments/cd1a-new-docking/inputs/ligands/7sh4_ligand.pdb


 56 55  0  0  0  0  0  0  0  0999 V2000
  -40.2203   60.3354   65.1499 C   0  0  0  0  0  0  0  0  0  0  0  0
  -41.2480   60.3078   66.2456 C   0  0  0  0  0  0  0  0  0  0  0  0
  -41.6540   58.9242   66.3087 O   0  0  0  0  0  0  0  0  0  0  0  0
  -43.4059   57.5561   66.0668 O   0  0  0  0  0  0  0  0  0  0  0  0
  -42.9494   58.6659   66.1268 C   0  0  0  0  0  0  0  0  0  0  0  0
  -43.7609   59.9293   66.1343 C   0  0  0  0  0  0  0  0  0  0  0  0
  -45.2543   59.7087   65.9628 C   0  0  0  0  0  0  0  0  0  0  0  0
  -45.7766   60.2330   64.6419 C   0  0  0  0  0  0  0  0  0  0  0  0
  -47.1633   59.7461   64.2870 C   0  0  0  0  0  0  0  0  0  0  0  0
  -48.2628   60.5626   64.9354 C   0  0  0  0  0  0  0  0  0  0  0  0
  -49.0939   59.7690   65.9137 C   0  0  0  0  0  0  0  0  0  0  0  0
  -50.5413   59.6690   65.5107 C   0  0  0  0  0  0  0  0  0  0  0  0
  -50.8915   60.5238   64.3129 C   0  0  0  0  0  0  0  0  0  0  0  0
  -51.5140   59.7251   63.1857 C   0  0  0  0  0  0  0  0  0  0  0  0
  -50.7985   58.4257   62.8806 C   0  0  0  0  0  0  0  0  0  0  0  0
  -50.7761   58.0681   61.3989 C   0  0  0  0  0  0  0  0  0  0  0  0
  -49.7343   58.8253   60.5980 C   0  0  0  0  0  0  0  0  0  0  0  0
  -48.4851   58.0154   60.3173 C   0  0  0  0  0  0  0  0  0  0  0  0
  -48.7126   56.8555   59.3580 C   0  0  0  0  0  0  0  0  0  0  0  0
  -48.8609   57.2851   57.9094 C   0  0  0  0  0  0  0  0  0  0  0  0
  -46.8085   58.4696   57.0605 C   0  0  0  0  0  0  0  0  0  0  0  0
  -47.5937   57.1778   57.0825 C   0  0  0  0  0  0  0  0  0  0  0  0
  -38.8431   60.6539   65.6731 C   0  0  0  0  0  0  0  0  0  0  0  0
  -38.2588   61.6857   64.8471 O   0  0  0  0  0  0  0  0  0  0  0  0
  -36.8098   62.3049   65.1282 P   0  0  0  0  0  0  0  0  0  0  0  0
  -36.9908   63.6843   65.6296 O   0  0  0  0  0  0  0  0  0  0  0  0
  -36.0483   61.3399   65.9572 O   0  0  0  0  0  0  0  0  0  0  0  0
  -36.4601   61.2703   66.8328 H   0  0  0  0  0  0  0  0  0  0  0  0
  -36.1027   62.3900   63.7016 O   0  0  0  0  0  0  0  0  0  0  0  0
  -36.7916   62.9977   62.5898 C   0  0  0  0  0  0  0  0  0  0  0  0
  -36.7276   65.3521   63.0316 O   0  0  0  0  0  0  0  0  0  0  0  0
  -36.1149   64.3078   62.2694 C   0  0  0  0  0  0  0  0  0  0  0  0
  -37.6804   65.3679   62.8508 H   0  0  0  0  0  0  0  0  0  0  0  0
  -34.0588   63.0689   62.0325 O   0  0  0  0  0  0  0  0  0  0  0  0
  -34.6298   64.2686   62.5388 C   0  0  0  0  0  0  0  0  0  0  0  0
  -33.1061   63.0622   62.2147 H   0  0  0  0  0  0  0  0  0  0  0  0
  -40.6519   61.3034   64.1367 O   0  0  0  0  0  0  0  0  0  0  0  0
  -42.6975   61.5490   63.2337 O   0  0  0  0  0  0  0  0  0  0  0  0
  -41.6702   60.9357   63.3355 C   0  0  0  0  0  0  0  0  0  0  0  0
  -41.3611   59.6833   62.5751 C   0  0  0  0  0  0  0  0  0  0  0  0
  -42.4484   58.6307   62.7664 C   0  0  0  0  0  0  0  0  0  0  0  0
  -41.9306   57.2017   62.7598 C   0  0  0  0  0  0  0  0  0  0  0  0
  -40.7874   56.9719   61.7779 C   0  0  0  0  0  0  0  0  0  0  0  0
  -41.2406   56.7151   60.3527 C   0  0  0  0  0  0  0  0  0  0  0  0
  -41.0950   57.9148   59.4123 C   0  0  0  0  0  0  0  0  0  0  0  0
  -39.6619   58.2359   58.9828 C   0  0  0  0  0  0  0  0  0  0  0  0
  -39.1852   59.5443   59.5386 C   0  0  0  0  0  0  0  0  0  0  0  0
  -38.2946   59.7152   60.4963 C   0  0  0  0  0  0  0  0  0  0  0  0
  -37.5689   58.6322   61.2303 C   0  0  0  0  0  0  0  0  0  0  0  0
  -37.3939   58.9496   62.7126 C   0  0  0  0  0  0  0  0  0  0  0  0
  -37.0231   57.7417   63.5549 C   0  0  0  0  0  0  0  0  0  0  0  0
  -35.6645   57.8588   64.2242 C   0  0  0  0  0  0  0  0  0  0  0  0
  -34.7521   58.9115   63.6167 C   0  0  0  0  0  0  0  0  0  0  0  0
  -33.5655   58.3247   62.8673 C   0  0  0  0  0  0  0  0  0  0  0  0
  -32.2522   59.0351   63.1280 C   0  0  0  0  0  0  0  0  0  0  0  0
  -31.9903   60.1492   62.1532 C   0  0  0  0  0  0  0  0  0  0  0  0
 21 22  1  0  0  0
  4  5  2  0  0  0
 25 24  1  0  0  0
 25 26  2  0  0  0
 25 27  1  0  0  0
 25 29  1  0  0  0
 22 20  1  0  0  0
  3  5  1  0  0  0
  3  2  1  0  0  0
 20 19  1  0  0  0
 24 23  1  0  0  0
 19 18  1  0  0  0
 18 17  1  0  0  0
 27 28  1  0  0  0
 17 16  1  0  0  0
 29 30  1  0  0  0
 16 15  1  0  0  0
 34 35  1  0  0  0
 34 36  1  0  0  0
 15 14  1  0  0  0
 31 32  1  0  0  0
 31 33  1  0  0  0
 14 13  1  0  0  0
 37  1  1  0  0  0
 37 39  1  0  0  0
 13 12  1  0  0  0
 38 39  2  0  0  0
 12 11  1  0  0  0
 11 10  1  0  0  0
 10  9  1  0  0  0
  9  8  1  0  0  0
  8  7  1  0  0  0
  7  6  1  0  0  0
  6  5  1  0  0  0
  2  1  1  0  0  0
  1 23  1  0  0  0
 30 32  1  0  0  0
 32 35  1  0  0  0
 39 40  1  0  0  0
 40 41  1  0  0  0
 41 42  1  0  0  0
 42 43  1  0  0  0
 43 44  1  0  0  0
 44 45  1  0  0  0
 45 46  1  0  0  0
 46 47  1  0  0  0
 47 48  2  0  0  0
 48 49  1  0  0  0
 49 50  1  0  0  0
 50 51  1  0  0  0
 51 52  1  0  0  0
 52 53  1  0  0  0
 53 54  1  0  0  0
 54 55  1  0  0  0
 55 56  1  0  0  0
M  CHG 1  26  -1
M  END
> <minimizedAffinity>
-8.50439

> <CNNscore>
0.2953876257

> <CNNaffinity>
7.3960251808

> <CNN_VS>
2.1846942902

> <CNNaffinity_variance>
1.3921676874

$$$$
/media/chris/experiments/cd1a-new-docking/inputs/ligands/7sh4_ligand.pdb


 56 55  0  0  0  0  0  0  0  0999 V2000
  -41.7471   59.9790   62.7908 C   0  0  0  0  0  0  0  0  0  0  0  0
  -41.1286   58.9484   61.8891 C   0  0  0  0  0  0  0  0  0  0  0  0
  -40.3275   59.7227   60.9716 O   0  0  0  0  0  0  0  0  0  0  0  0
  -38.6366   59.5942   59.5143 O   0  0  0  0  0  0  0  0  0  0  0  0
  -39.3424   59.0824   60.3410 C   0  0  0  0  0  0  0  0  0  0  0  0
  -39.1585   57.6963   60.8885 C   0  0  0  0  0  0  0  0  0  0  0  0
  -38.2893   57.6308   62.1329 C   0  0  0  0  0  0  0  0  0  0  0  0
  -36.8727   58.1040   61.8842 C   0  0  0  0  0  0  0  0  0  0  0  0
  -35.8775   57.6560   62.9305 C   0  0  0  0  0  0  0  0  0  0  0  0
  -35.1307   58.8085   63.5709 C   0  0  0  0  0  0  0  0  0  0  0  0
  -33.9848   58.3611   64.4453 C   0  0  0  0  0  0  0  0  0  0  0  0
  -32.6605   58.9390   64.0211 C   0  0  0  0  0  0  0  0  0  0  0  0
  -32.7933   60.1669   63.1478 C   0  0  0  0  0  0  0  0  0  0  0  0
  -31.9943   60.0618   61.8646 C   0  0  0  0  0  0  0  0  0  0  0  0
  -30.7942   60.9837   61.8067 C   0  0  0  0  0  0  0  0  0  0  0  0
  -31.1305   62.4062   61.3740 C   0  0  0  0  0  0  0  0  0  0  0  0
  -31.0142   63.4319   62.4850 C   0  0  0  0  0  0  0  0  0  0  0  0
  -32.3479   63.8139   63.0937 C   0  0  0  0  0  0  0  0  0  0  0  0
  -33.0051   65.0111   62.4213 C   0  0  0  0  0  0  0  0  0  0  0  0
  -34.2880   65.4597   63.0982 C   0  0  0  0  0  0  0  0  0  0  0  0
  -35.8644   64.4444   61.4189 C   0  0  0  0  0  0  0  0  0  0  0  0
  -35.4527   65.6985   62.1562 C   0  0  0  0  0  0  0  0  0  0  0  0
  -40.8428   61.1671   62.9965 C   0  0  0  0  0  0  0  0  0  0  0  0
  -40.1891   61.0376   64.2788 O   0  0  0  0  0  0  0  0  0  0  0  0
  -38.6256   60.7291   64.4281 P   0  0  0  0  0  0  0  0  0  0  0  0
  -38.4782   59.3556   64.9559 O   0  0  0  0  0  0  0  0  0  0  0  0
  -37.9625   61.0753   63.1479 O   0  0  0  0  0  0  0  0  0  0  0  0
  -38.2669   60.4714   62.4525 H   0  0  0  0  0  0  0  0  0  0  0  0
  -38.0997   61.7420   65.5417 O   0  0  0  0  0  0  0  0  0  0  0  0
  -36.6949   61.7946   65.8637 C   0  0  0  0  0  0  0  0  0  0  0  0
  -37.1283   63.8245   64.6661 O   0  0  0  0  0  0  0  0  0  0  0  0
  -36.1758   63.1656   65.5060 C   0  0  0  0  0  0  0  0  0  0  0  0
  -37.3063   63.2755   63.8865 H   0  0  0  0  0  0  0  0  0  0  0  0
  -35.9613   63.2205   67.9079 O   0  0  0  0  0  0  0  0  0  0  0  0
  -35.8866   64.0071   66.7258 C   0  0  0  0  0  0  0  0  0  0  0  0
  -35.7728   63.7776   68.6794 H   0  0  0  0  0  0  0  0  0  0  0  0
  -42.0909   59.3335   64.0616 O   0  0  0  0  0  0  0  0  0  0  0  0
  -43.8465   58.0505   64.6380 O   0  0  0  0  0  0  0  0  0  0  0  0
  -43.3979   59.1118   64.2998 C   0  0  0  0  0  0  0  0  0  0  0  0
  -44.2200   60.3489   64.1107 C   0  0  0  0  0  0  0  0  0  0  0  0
  -45.3450   60.4346   65.1372 C   0  0  0  0  0  0  0  0  0  0  0  0
  -46.7359   60.4721   64.5254 C   0  0  0  0  0  0  0  0  0  0  0  0
  -47.3038   59.0915   64.2168 C   0  0  0  0  0  0  0  0  0  0  0  0
  -48.2120   58.5416   65.3009 C   0  0  0  0  0  0  0  0  0  0  0  0
  -49.0837   59.5920   65.9948 C   0  0  0  0  0  0  0  0  0  0  0  0
  -50.5592   59.5850   65.5898 C   0  0  0  0  0  0  0  0  0  0  0  0
  -50.8316   60.4976   64.4317 C   0  0  0  0  0  0  0  0  0  0  0  0
  -51.0923   60.1376   63.1900 C   0  0  0  0  0  0  0  0  0  0  0  0
  -51.1729   58.7348   62.6761 C   0  0  0  0  0  0  0  0  0  0  0  0
  -49.9005   58.3062   61.9511 C   0  0  0  0  0  0  0  0  0  0  0  0
  -49.6614   59.0492   60.6485 C   0  0  0  0  0  0  0  0  0  0  0  0
  -50.2772   58.3701   59.4372 C   0  0  0  0  0  0  0  0  0  0  0  0
  -49.2748   57.6905   58.5191 C   0  0  0  0  0  0  0  0  0  0  0  0
  -47.9331   58.4042   58.4534 C   0  0  0  0  0  0  0  0  0  0  0  0
  -47.0382   57.9433   57.3201 C   0  0  0  0  0  0  0  0  0  0  0  0
  -47.0053   56.4472   57.1768 C   0  0  0  0  0  0  0  0  0  0  0  0
 21 22  1  0  0  0
  4  5  2  0  0  0
 25 24  1  0  0  0
 25 26  2  0  0  0
 25 27  1  0  0  0
 25 29  1  0  0  0
 22 20  1  0  0  0
  3  5  1  0  0  0
  3  2  1  0  0  0
 20 19  1  0  0  0
 24 23  1  0  0  0
 19 18  1  0  0  0
 18 17  1  0  0  0
 27 28  1  0  0  0
 17 16  1  0  0  0
 29 30  1  0  0  0
 16 15  1  0  0  0
 34 35  1  0  0  0
 34 36  1  0  0  0
 15 14  1  0  0  0
 31 32  1  0  0  0
 31 33  1  0  0  0
 14 13  1  0  0  0
 37  1  1  0  0  0
 37 39  1  0  0  0
 13 12  1  0  0  0
 38 39  2  0  0  0
 12 11  1  0  0  0
 11 10  1  0  0  0
 10  9  1  0  0  0
  9  8  1  0  0  0
  8  7  1  0  0  0
  7  6  1  0  0  0
  6  5  1  0  0  0
  2  1  1  0  0  0
  1 23  1  0  0  0
 30 32  1  0  0  0
 32 35  1  0  0  0
 39 40  1  0  0  0
 40 41  1  0  0  0
 41 42  1  0  0  0
 42 43  1  0  0  0
 43 44  1  0  0  0
 44 45  1  0  0  0
 45 46  1  0  0  0
 46 47  1  0  0  0
 47 48  2  0  0  0
 48 49  1  0  0  0
 49 50  1  0  0  0
 50 51  1  0  0  0
 51 52  1  0  0  0
 52 53  1  0  0  0
 53 54  1  0  0  0
 54 55  1  0  0  0
 55 56  1  0  0  0
M  CHG 1  26  -1
M  END
> <minimizedAffinity>
-8.27155

> <CNNscore>
0.2749699652

> <CNNaffinity>
6.8367280960

> <CNN_VS>
1.8798948526

> <CNNaffinity_variance>
0.6833845973

$$$$
/media/chris/experiments/cd1a-new-docking/inputs/ligands/7sh4_ligand.pdb


 56 55  0  0  0  0  0  0  0  0999 V2000
  -41.8905   58.1962   64.9694 C   0  0  0  0  0  0  0  0  0  0  0  0
  -42.3980   57.0004   64.2143 C   0  0  0  0  0  0  0  0  0  0  0  0
  -41.2003   56.3688   63.7146 O   0  0  0  0  0  0  0  0  0  0  0  0
  -40.9499   54.9436   62.0101 O   0  0  0  0  0  0  0  0  0  0  0  0
  -41.1809   56.0490   62.4203 C   0  0  0  0  0  0  0  0  0  0  0  0
  -41.6047   57.2104   61.5681 C   0  0  0  0  0  0  0  0  0  0  0  0
  -41.1692   57.1063   60.1162 C   0  0  0  0  0  0  0  0  0  0  0  0
  -40.6798   58.4246   59.5550 C   0  0  0  0  0  0  0  0  0  0  0  0
  -39.2400   58.4050   59.0939 C   0  0  0  0  0  0  0  0  0  0  0  0
  -38.2800   58.9677   60.1224 C   0  0  0  0  0  0  0  0  0  0  0  0
  -37.9675   57.9982   61.2361 C   0  0  0  0  0  0  0  0  0  0  0  0
  -36.6993   58.3380   61.9734 C   0  0  0  0  0  0  0  0  0  0  0  0
  -36.6495   57.7714   63.3751 C   0  0  0  0  0  0  0  0  0  0  0  0
  -35.2335   57.5550   63.8690 C   0  0  0  0  0  0  0  0  0  0  0  0
  -34.1655   57.8803   62.8456 C   0  0  0  0  0  0  0  0  0  0  0  0
  -33.0815   58.8187   63.3636 C   0  0  0  0  0  0  0  0  0  0  0  0
  -33.4720   59.5793   64.6163 C   0  0  0  0  0  0  0  0  0  0  0  0
  -33.9592   60.9867   64.3387 C   0  0  0  0  0  0  0  0  0  0  0  0
  -34.4507   61.7183   65.5799 C   0  0  0  0  0  0  0  0  0  0  0  0
  -34.2051   63.2160   65.5396 C   0  0  0  0  0  0  0  0  0  0  0  0
  -33.1548   65.2429   66.5998 C   0  0  0  0  0  0  0  0  0  0  0  0
  -33.4703   63.7715   66.7448 C   0  0  0  0  0  0  0  0  0  0  0  0
  -40.3894   58.1850   65.1049 C   0  0  0  0  0  0  0  0  0  0  0  0
  -39.8269   59.0816   64.1210 O   0  0  0  0  0  0  0  0  0  0  0  0
  -39.4425   60.6000   64.4506 P   0  0  0  0  0  0  0  0  0  0  0  0
  -39.8283   60.8763   65.8512 O   0  0  0  0  0  0  0  0  0  0  0  0
  -38.0336   60.8183   64.0435 O   0  0  0  0  0  0  0  0  0  0  0  0
  -37.4484   60.2887   64.6073 H   0  0  0  0  0  0  0  0  0  0  0  0
  -40.3693   61.4857   63.5023 O   0  0  0  0  0  0  0  0  0  0  0  0
  -41.1831   60.8533   62.4935 C   0  0  0  0  0  0  0  0  0  0  0  0
  -43.3959   60.1345   63.0673 O   0  0  0  0  0  0  0  0  0  0  0  0
  -42.6159   61.2773   62.7034 C   0  0  0  0  0  0  0  0  0  0  0  0
  -43.3031   59.4497   62.3866 H   0  0  0  0  0  0  0  0  0  0  0  0
  -42.6642   61.7972   65.0583 O   0  0  0  0  0  0  0  0  0  0  0  0
  -42.7488   62.3545   63.7531 C   0  0  0  0  0  0  0  0  0  0  0  0
  -42.7515   62.5033   65.7177 H   0  0  0  0  0  0  0  0  0  0  0  0
  -42.5522   58.2309   66.2774 O   0  0  0  0  0  0  0  0  0  0  0  0
  -44.1970   59.7042   65.8482 O   0  0  0  0  0  0  0  0  0  0  0  0
  -43.8300   58.6558   66.3042 C   0  0  0  0  0  0  0  0  0  0  0  0
  -44.7389   57.6581   66.9527 C   0  0  0  0  0  0  0  0  0  0  0  0
  -46.1949   58.1097   66.8970 C   0  0  0  0  0  0  0  0  0  0  0  0
  -47.0558   57.2980   65.9429 C   0  0  0  0  0  0  0  0  0  0  0  0
  -48.1060   58.1278   65.2132 C   0  0  0  0  0  0  0  0  0  0  0  0
  -47.7225   59.5842   65.0286 C   0  0  0  0  0  0  0  0  0  0  0  0
  -48.9074   60.5524   64.9711 C   0  0  0  0  0  0  0  0  0  0  0  0
  -50.2805   59.9159   65.1966 C   0  0  0  0  0  0  0  0  0  0  0  0
  -51.2574   60.2840   64.1204 C   0  0  0  0  0  0  0  0  0  0  0  0
  -51.4719   59.6308   62.9949 C   0  0  0  0  0  0  0  0  0  0  0  0
  -50.7820   58.3779   62.5562 C   0  0  0  0  0  0  0  0  0  0  0  0
  -49.4785   58.6599   61.8147 C   0  0  0  0  0  0  0  0  0  0  0  0
  -49.6803   59.2489   60.4296 C   0  0  0  0  0  0  0  0  0  0  0  0
  -49.7306   58.2071   59.3253 C   0  0  0  0  0  0  0  0  0  0  0  0
  -48.9560   56.9343   59.6247 C   0  0  0  0  0  0  0  0  0  0  0  0
  -47.6302   56.8441   58.8847 C   0  0  0  0  0  0  0  0  0  0  0  0
  -47.7118   57.2087   57.4156 C   0  0  0  0  0  0  0  0  0  0  0  0
  -46.8176   58.3612   57.0520 C   0  0  0  0  0  0  0  0  0  0  0  0
 21 22  1  0  0  0
  4  5  2  0  0  0
 25 24  1  0  0  0
 25 26  2  0  0  0
 25 27  1  0  0  0
 25 29  1  0  0  0
 22 20  1  0  0  0
  3  5  1  0  0  0
  3  2  1  0  0  0
 20 19  1  0  0  0
 24 23  1  0  0  0
 19 18  1  0  0  0
 18 17  1  0  0  0
 27 28  1  0  0  0
 17 16  1  0  0  0
 29 30  1  0  0  0
 16 15  1  0  0  0
 34 35  1  0  0  0
 34 36  1  0  0  0
 15 14  1  0  0  0
 31 32  1  0  0  0
 31 33  1  0  0  0
 14 13  1  0  0  0
 37  1  1  0  0  0
 37 39  1  0  0  0
 13 12  1  0  0  0
 38 39  2  0  0  0
 12 11  1  0  0  0
 11 10  1  0  0  0
 10  9  1  0  0  0
  9  8  1  0  0  0
  8  7  1  0  0  0
  7  6  1  0  0  0
  6  5  1  0  0  0
  2  1  1  0  0  0
  1 23  1  0  0  0
 30 32  1  0  0  0
 32 35  1  0  0  0
 39 40  1  0  0  0
 40 41  1  0  0  0
 41 42  1  0  0  0
 42 43  1  0  0  0
 43 44  1  0  0  0
 44 45  1  0  0  0
 45 46  1  0  0  0
 46 47  1  0  0  0
 47 48  2  0  0  0
 48 49  1  0  0  0
 49 50  1  0  0  0
 50 51  1  0  0  0
 51 52  1  0  0  0
 52 53  1  0  0  0
 53 54  1  0  0  0
 54 55  1  0  0  0
 55 56  1  0  0  0
M  CHG 1  26  -1
M  END
> <minimizedAffinity>
-8.14066

> <CNNscore>
0.2743578553

> <CNNaffinity>
7.1840453148

> <CNN_VS>
1.9709992409

> <CNNaffinity_variance>
1.6846759319

$$$$
