/media/chris/experiments/cd1a-new-docking/inputs/ligands/7sh4_ligand.pdb


 56 55  0  0  0  0  0  0  0  0999 V2000
  -41.4487   60.1711   66.6479 C   0  0  0  0  0  0  0  0  0  0  0  0
  -42.6376   61.0883   66.5954 C   0  0  0  0  0  0  0  0  0  0  0  0
  -42.5523   61.6960   65.2890 O   0  0  0  0  0  0  0  0  0  0  0  0
  -44.7223   61.4152   64.8289 O   0  0  0  0  0  0  0  0  0  0  0  0
  -43.5809   61.5004   64.4634 C   0  0  0  0  0  0  0  0  0  0  0  0
  -43.1381   61.5282   63.0289 C   0  0  0  0  0  0  0  0  0  0  0  0
  -42.5174   60.2283   62.5457 C   0  0  0  0  0  0  0  0  0  0  0  0
  -41.1902   60.4363   61.8473 C   0  0  0  0  0  0  0  0  0  0  0  0
  -41.2947   61.1512   60.5193 C   0  0  0  0  0  0  0  0  0  0  0  0
  -40.8227   60.3076   59.3525 C   0  0  0  0  0  0  0  0  0  0  0  0
  -41.1128   58.8368   59.5271 C   0  0  0  0  0  0  0  0  0  0  0  0
  -39.9164   57.9644   59.2535 C   0  0  0  0  0  0  0  0  0  0  0  0
  -38.6208   58.7380   59.1483 C   0  0  0  0  0  0  0  0  0  0  0  0
  -37.7543   58.5993   60.3836 C   0  0  0  0  0  0  0  0  0  0  0  0
  -38.3606   57.7360   61.4700 C   0  0  0  0  0  0  0  0  0  0  0  0
  -37.4602   57.5541   62.6867 C   0  0  0  0  0  0  0  0  0  0  0  0
  -36.2205   58.4275   62.6719 C   0  0  0  0  0  0  0  0  0  0  0  0
  -34.9890   57.7343   63.2178 C   0  0  0  0  0  0  0  0  0  0  0  0
  -34.4741   58.3382   64.5169 C   0  0  0  0  0  0  0  0  0  0  0  0
  -32.9818   58.6178   64.5076 C   0  0  0  0  0  0  0  0  0  0  0  0
  -31.9322   60.0544   62.7271 C   0  0  0  0  0  0  0  0  0  0  0  0
  -32.3522   58.6585   63.1282 C   0  0  0  0  0  0  0  0  0  0  0  0
  -40.4964   60.4125   65.5048 C   0  0  0  0  0  0  0  0  0  0  0  0
  -39.3688   61.1739   65.9918 O   0  0  0  0  0  0  0  0  0  0  0  0
  -37.8760   60.9498   65.4595 P   0  0  0  0  0  0  0  0  0  0  0  0
  -37.5097   59.5381   65.7042 O   0  0  0  0  0  0  0  0  0  0  0  0
  -37.7953   61.4771   64.0760 O   0  0  0  0  0  0  0  0  0  0  0  0
  -38.3486   60.9363   63.4910 H   0  0  0  0  0  0  0  0  0  0  0  0
  -36.9552   61.8638   66.3866 O   0  0  0  0  0  0  0  0  0  0  0  0
  -35.6498   62.2718   65.9290 C   0  0  0  0  0  0  0  0  0  0  0  0
  -36.6227   64.3193   66.7062 O   0  0  0  0  0  0  0  0  0  0  0  0
  -35.6292   63.7774   65.8307 C   0  0  0  0  0  0  0  0  0  0  0  0
  -37.4883   63.9407   66.4865 H   0  0  0  0  0  0  0  0  0  0  0  0
  -34.2966   65.0015   67.4258 O   0  0  0  0  0  0  0  0  0  0  0  0
  -34.2739   64.3564   66.1589 C   0  0  0  0  0  0  0  0  0  0  0  0
  -33.4188   65.3664   67.6186 H   0  0  0  0  0  0  0  0  0  0  0  0
  -41.9336   58.7874   66.6658 O   0  0  0  0  0  0  0  0  0  0  0  0
  -41.0595   57.8812   64.8017 O   0  0  0  0  0  0  0  0  0  0  0  0
  -42.0120   58.1526   65.4805 C   0  0  0  0  0  0  0  0  0  0  0  0
  -43.4245   57.8101   65.1204 C   0  0  0  0  0  0  0  0  0  0  0  0
  -44.3146   57.7376   66.3572 C   0  0  0  0  0  0  0  0  0  0  0  0
  -45.8001   57.8442   66.0545 C   0  0  0  0  0  0  0  0  0  0  0  0
  -46.4818   59.0165   66.7507 C   0  0  0  0  0  0  0  0  0  0  0  0
  -47.7919   59.4369   66.1109 C   0  0  0  0  0  0  0  0  0  0  0  0
  -48.4225   58.3812   65.1984 C   0  0  0  0  0  0  0  0  0  0  0  0
  -49.9489   58.2937   65.2612 C   0  0  0  0  0  0  0  0  0  0  0  0
  -50.5860   59.6415   65.4203 C   0  0  0  0  0  0  0  0  0  0  0  0
  -51.0850   60.3950   64.4598 C   0  0  0  0  0  0  0  0  0  0  0  0
  -51.1209   60.0583   63.0024 C   0  0  0  0  0  0  0  0  0  0  0  0
  -49.7852   60.3179   62.3118 C   0  0  0  0  0  0  0  0  0  0  0  0
  -49.7188   59.7826   60.8922 C   0  0  0  0  0  0  0  0  0  0  0  0
  -48.9784   58.4617   60.7725 C   0  0  0  0  0  0  0  0  0  0  0  0
  -48.8101   57.9611   59.3475 C   0  0  0  0  0  0  0  0  0  0  0  0
  -47.8651   56.7750   59.2300 C   0  0  0  0  0  0  0  0  0  0  0  0
  -46.7988   56.9323   58.1642 C   0  0  0  0  0  0  0  0  0  0  0  0
  -47.1025   58.0422   57.1970 C   0  0  0  0  0  0  0  0  0  0  0  0
 21 22  1  0  0  0
  4  5  2  0  0  0
 25 24  1  0  0  0
 25 26  2  0  0  0
 25 27  1  0  0  0
 25 29  1  0  0  0
 22 20  1  0  0  0
  3  5  1  0  0  0
  3  2  1  0  0  0
 20 19  1  0  0  0
 24 23  1  0  0  0
 19 18  1  0  0  0
 18 17  1  0  0  0
 27 28  1  0  0  0
 17 16  1  0  0  0
 29 30  1  0  0  0
 16 15  1  0  0  0
 34 35  1  0  0  0
 34 36  1  0  0  0
 15 14  1  0  0  0
 31 32  1  0  0  0
 31 33  1  0  0  0
 14 13  1  0  0  0
 37  1  1  0  0  0
 37 39  1  0  0  0
 13 12  1  0  0  0
 38 39  2  0  0  0
 12 11  1  0  0  0
 11 10  1  0  0  0
 10  9  1  0  0  0
  9  8  1  0  0  0
  8  7  1  0  0  0
  7  6  1  0  0  0
  6  5  1  0  0  0
  2  1  1  0  0  0
  1 23  1  0  0  0
 30 32  1  0  0  0
 32 35  1  0  0  0
 39 40  1  0  0  0
 40 41  1  0  0  0
 41 42  1  0  0  0
 42 43  1  0  0  0
 43 44  1  0  0  0
 44 45  1  0  0  0
 45 46  1  0  0  0
 46 47  1  0  0  0
 47 48  2  0  0  0
 48 49  1  0  0  0
 49 50  1  0  0  0
 50 51  1  0  0  0
 51 52  1  0  0  0
 52 53  1  0  0  0
 53 54  1  0  0  0
 54 55  1  0  0  0
 55 56  1  0  0  0
M  CHG 1  26  -1
M  END
> <minimizedAffinity>
-8.93253

> <CNNscore>
0.3748732507

> <CNNaffinity>
7.3265852928

> <CNN_VS>
2.7465407848

> <CNNaffinity_variance>
1.6756942272

$$$$
/media/chris/experiments/cd1a-new-docking/inputs/ligands/7sh4_ligand.pdb


 56 55  0  0  0  0  0  0  0  0999 V2000
  -40.4598   57.8115   62.9768 C   0  0  0  0  0  0  0  0  0  0  0  0
  -41.8370   57.3440   63.3541 C   0  0  0  0  0  0  0  0  0  0  0  0
  -42.1500   58.1019   64.5418 O   0  0  0  0  0  0  0  0  0  0  0  0
  -44.0201   59.1534   63.9122 O   0  0  0  0  0  0  0  0  0  0  0  0
  -43.4196   58.4763   64.7025 C   0  0  0  0  0  0  0  0  0  0  0  0
  -44.0224   57.8409   65.9222 C   0  0  0  0  0  0  0  0  0  0  0  0
  -45.5395   57.7625   65.8955 C   0  0  0  0  0  0  0  0  0  0  0  0
  -46.1961   58.8091   66.7707 C   0  0  0  0  0  0  0  0  0  0  0  0
  -47.2449   59.6378   66.0642 C   0  0  0  0  0  0  0  0  0  0  0  0
  -47.8021   58.9613   64.8281 C   0  0  0  0  0  0  0  0  0  0  0  0
  -49.1523   58.3266   65.0559 C   0  0  0  0  0  0  0  0  0  0  0  0
  -50.1483   59.2694   65.6776 C   0  0  0  0  0  0  0  0  0  0  0  0
  -50.8889   60.1140   64.6645 C   0  0  0  0  0  0  0  0  0  0  0  0
  -51.1032   59.3951   63.3479 C   0  0  0  0  0  0  0  0  0  0  0  0
  -50.4043   60.0413   62.1701 C   0  0  0  0  0  0  0  0  0  0  0  0
  -49.4928   59.0934   61.3988 C   0  0  0  0  0  0  0  0  0  0  0  0
  -50.2277   57.9699   60.6933 C   0  0  0  0  0  0  0  0  0  0  0  0
  -49.5426   57.5062   59.4240 C   0  0  0  0  0  0  0  0  0  0  0  0
  -48.4632   56.4591   59.6607 C   0  0  0  0  0  0  0  0  0  0  0  0
  -47.4402   56.3774   58.5417 C   0  0  0  0  0  0  0  0  0  0  0  0
  -46.8580   58.3339   57.0691 C   0  0  0  0  0  0  0  0  0  0  0  0
  -47.7952   57.1698   57.2979 C   0  0  0  0  0  0  0  0  0  0  0  0
  -39.8876   57.0195   61.8293 C   0  0  0  0  0  0  0  0  0  0  0  0
  -40.1718   57.7164   60.5956 O   0  0  0  0  0  0  0  0  0  0  0  0
  -39.0813   58.6024   59.8289 P   0  0  0  0  0  0  0  0  0  0  0  0
  -37.7759   58.3974   60.4927 O   0  0  0  0  0  0  0  0  0  0  0  0
  -39.1946   58.3197   58.3777 O   0  0  0  0  0  0  0  0  0  0  0  0
  -38.9311   57.4022   58.2054 H   0  0  0  0  0  0  0  0  0  0  0  0
  -39.5221   60.1159   60.0690 O   0  0  0  0  0  0  0  0  0  0  0  0
  -40.9102   60.4900   59.9545 C   0  0  0  0  0  0  0  0  0  0  0  0
  -40.3529   61.0992   62.2041 O   0  0  0  0  0  0  0  0  0  0  0  0
  -41.4432   60.7701   61.3381 C   0  0  0  0  0  0  0  0  0  0  0  0
  -39.7015   60.3807   62.1913 H   0  0  0  0  0  0  0  0  0  0  0  0
  -43.1915   61.8858   62.5698 O   0  0  0  0  0  0  0  0  0  0  0  0
  -42.4678   61.8790   61.3459 C   0  0  0  0  0  0  0  0  0  0  0  0
  -43.8437   62.6037   62.5558 H   0  0  0  0  0  0  0  0  0  0  0  0
  -39.6052   57.7368   64.1659 O   0  0  0  0  0  0  0  0  0  0  0  0
  -38.4601   59.5639   63.5254 O   0  0  0  0  0  0  0  0  0  0  0  0
  -38.5720   58.5984   64.2304 C   0  0  0  0  0  0  0  0  0  0  0  0
  -37.5916   58.2192   65.2967 C   0  0  0  0  0  0  0  0  0  0  0  0
  -36.4615   57.3608   64.7370 C   0  0  0  0  0  0  0  0  0  0  0  0
  -35.2590   58.1592   64.2613 C   0  0  0  0  0  0  0  0  0  0  0  0
  -35.1268   58.2166   62.7437 C   0  0  0  0  0  0  0  0  0  0  0  0
  -33.6973   58.3544   62.2537 C   0  0  0  0  0  0  0  0  0  0  0  0
  -32.6444   58.3935   63.3648 C   0  0  0  0  0  0  0  0  0  0  0  0
  -31.8829   59.7145   63.4947 C   0  0  0  0  0  0  0  0  0  0  0  0
  -31.4567   60.2542   62.1624 C   0  0  0  0  0  0  0  0  0  0  0  0
  -31.6594   61.4748   61.7059 C   0  0  0  0  0  0  0  0  0  0  0  0
  -32.3600   62.5822   62.4279 C   0  0  0  0  0  0  0  0  0  0  0  0
  -31.3866   63.5520   63.0915 C   0  0  0  0  0  0  0  0  0  0  0  0
  -31.9064   64.1445   64.3896 C   0  0  0  0  0  0  0  0  0  0  0  0
  -33.4152   64.3172   64.4202 C   0  0  0  0  0  0  0  0  0  0  0  0
  -34.0951   63.7006   65.6314 C   0  0  0  0  0  0  0  0  0  0  0  0
  -34.1545   62.1814   65.5845 C   0  0  0  0  0  0  0  0  0  0  0  0
  -35.3617   61.6284   64.8532 C   0  0  0  0  0  0  0  0  0  0  0  0
  -36.6436   61.8288   65.6122 C   0  0  0  0  0  0  0  0  0  0  0  0
 21 22  1  0  0  0
  4  5  2  0  0  0
 25 24  1  0  0  0
 25 26  2  0  0  0
 25 27  1  0  0  0
 25 29  1  0  0  0
 22 20  1  0  0  0
  3  5  1  0  0  0
  3  2  1  0  0  0
 20 19  1  0  0  0
 24 23  1  0  0  0
 19 18  1  0  0  0
 18 17  1  0  0  0
 27 28  1  0  0  0
 17 16  1  0  0  0
 29 30  1  0  0  0
 16 15  1  0  0  0
 34 35  1  0  0  0
 34 36  1  0  0  0
 15 14  1  0  0  0
 31 32  1  0  0  0
 31 33  1  0  0  0
 14 13  1  0  0  0
 37  1  1  0  0  0
 37 39  1  0  0  0
 13 12  1  0  0  0
 38 39  2  0  0  0
 12 11  1  0  0  0
 11 10  1  0  0  0
 10  9  1  0  0  0
  9  8  1  0  0  0
  8  7  1  0  0  0
  7  6  1  0  0  0
  6  5  1  0  0  0
  2  1  1  0  0  0
  1 23  1  0  0  0
 30 32  1  0  0  0
 32 35  1  0  0  0
 39 40  1  0  0  0
 40 41  1  0  0  0
 41 42  1  0  0  0
 42 43  1  0  0  0
 43 44  1  0  0  0
 44 45  1  0  0  0
 45 46  1  0  0  0
 46 47  1  0  0  0
 47 48  2  0  0  0
 48 49  1  0  0  0
 49 50  1  0  0  0
 50 51  1  0  0  0
 51 52  1  0  0  0
 52 53  1  0  0  0
 53 54  1  0  0  0
 54 55  1  0  0  0
 55 56  1  0  0  0
M  CHG 1  26  -1
M  END
> <minimizedAffinity>
-7.98764

> <CNNscore>
0.2931157053

> <CNNaffinity>
6.9540572166

> <CNN_VS>
2.0383434296

> <CNNaffinity_variance>
0.5724105835

$$$$
/media/chris/experiments/cd1a-new-docking/inputs/ligands/7sh4_ligand.pdb


 56 55  0  0  0  0  0  0  0  0999 V2000
  -36.7914   62.5286   63.5159 C   0  0  0  0  0  0  0  0  0  0  0  0
  -38.1195   62.0217   63.0290 C   0  0  0  0  0  0  0  0  0  0  0  0
  -38.6536   61.3004   64.1593 O   0  0  0  0  0  0  0  0  0  0  0  0
  -40.3484   60.0028   64.8251 O   0  0  0  0  0  0  0  0  0  0  0  0
  -39.8080   60.6589   63.9759 C   0  0  0  0  0  0  0  0  0  0  0  0
  -40.3922   60.9680   62.6275 C   0  0  0  0  0  0  0  0  0  0  0  0
  -41.8408   60.5393   62.4658 C   0  0  0  0  0  0  0  0  0  0  0  0
  -42.8207   61.6100   62.8969 C   0  0  0  0  0  0  0  0  0  0  0  0
  -43.4985   61.3328   64.2196 C   0  0  0  0  0  0  0  0  0  0  0  0
  -45.0095   61.4147   64.1406 C   0  0  0  0  0  0  0  0  0  0  0  0
  -45.7060   60.4218   65.0388 C   0  0  0  0  0  0  0  0  0  0  0  0
  -46.8444   59.7095   64.3575 C   0  0  0  0  0  0  0  0  0  0  0  0
  -48.0671   60.5788   64.1648 C   0  0  0  0  0  0  0  0  0  0  0  0
  -49.3089   59.9926   64.8054 C   0  0  0  0  0  0  0  0  0  0  0  0
  -50.6052   60.4354   64.1597 C   0  0  0  0  0  0  0  0  0  0  0  0
  -50.7823   59.9382   62.7294 C   0  0  0  0  0  0  0  0  0  0  0  0
  -50.8238   58.4274   62.6030 C   0  0  0  0  0  0  0  0  0  0  0  0
  -50.0064   57.8977   61.4427 C   0  0  0  0  0  0  0  0  0  0  0  0
  -49.7727   58.9232   60.3422 C   0  0  0  0  0  0  0  0  0  0  0  0
  -49.4236   58.3054   58.9999 C   0  0  0  0  0  0  0  0  0  0  0  0
  -47.6331   57.6496   57.3568 C   0  0  0  0  0  0  0  0  0  0  0  0
  -47.9421   58.0685   58.7763 C   0  0  0  0  0  0  0  0  0  0  0  0
  -36.3888   63.8095   62.8312 C   0  0  0  0  0  0  0  0  0  0  0  0
  -35.2599   63.5414   61.9696 O   0  0  0  0  0  0  0  0  0  0  0  0
  -33.8197   64.2021   62.1962 P   0  0  0  0  0  0  0  0  0  0  0  0
  -32.7947   63.1758   61.9084 O   0  0  0  0  0  0  0  0  0  0  0  0
  -33.7761   65.4817   61.4483 O   0  0  0  0  0  0  0  0  0  0  0  0
  -33.8167   65.3013   60.4961 H   0  0  0  0  0  0  0  0  0  0  0  0
  -33.7510   64.5418   63.7527 O   0  0  0  0  0  0  0  0  0  0  0  0
  -32.7241   63.9515   64.5754 C   0  0  0  0  0  0  0  0  0  0  0  0
  -32.6704   66.1489   65.5300 O   0  0  0  0  0  0  0  0  0  0  0  0
  -32.6133   64.7550   65.8478 C   0  0  0  0  0  0  0  0  0  0  0  0
  -31.9746   66.3631   64.8891 H   0  0  0  0  0  0  0  0  0  0  0  0
  -33.3442   63.2278   67.5659 O   0  0  0  0  0  0  0  0  0  0  0  0
  -33.6908   64.4035   66.8453 C   0  0  0  0  0  0  0  0  0  0  0  0
  -34.0472   63.0184   68.2006 H   0  0  0  0  0  0  0  0  0  0  0  0
  -35.7938   61.4723   63.3187 O   0  0  0  0  0  0  0  0  0  0  0  0
  -35.2385   61.5515   65.4970 O   0  0  0  0  0  0  0  0  0  0  0  0
  -35.0682   61.1094   64.3938 C   0  0  0  0  0  0  0  0  0  0  0  0
  -34.0385   60.0772   64.0526 C   0  0  0  0  0  0  0  0  0  0  0  0
  -34.3584   58.7335   64.6998 C   0  0  0  0  0  0  0  0  0  0  0  0
  -35.3895   57.9141   63.9412 C   0  0  0  0  0  0  0  0  0  0  0  0
  -36.8193   58.1396   64.4193 C   0  0  0  0  0  0  0  0  0  0  0  0
  -37.8787   57.6991   63.4262 C   0  0  0  0  0  0  0  0  0  0  0  0
  -37.4283   57.7222   61.9628 C   0  0  0  0  0  0  0  0  0  0  0  0
  -37.7717   59.0008   61.1956 C   0  0  0  0  0  0  0  0  0  0  0  0
  -37.8748   58.7631   59.7189 C   0  0  0  0  0  0  0  0  0  0  0  0
  -38.9838   58.6111   59.0213 C   0  0  0  0  0  0  0  0  0  0  0  0
  -40.3784   58.6460   59.5620 C   0  0  0  0  0  0  0  0  0  0  0  0
  -40.9102   57.2543   59.8915 C   0  0  0  0  0  0  0  0  0  0  0  0
  -41.7327   57.2023   61.1670 C   0  0  0  0  0  0  0  0  0  0  0  0
  -41.0860   56.3919   62.2771 C   0  0  0  0  0  0  0  0  0  0  0  0
  -41.4828   56.8181   63.6809 C   0  0  0  0  0  0  0  0  0  0  0  0
  -42.8553   57.4701   63.7506 C   0  0  0  0  0  0  0  0  0  0  0  0
  -43.5454   57.3251   65.0925 C   0  0  0  0  0  0  0  0  0  0  0  0
  -42.6750   57.7480   66.2427 C   0  0  0  0  0  0  0  0  0  0  0  0
 21 22  1  0  0  0
  4  5  2  0  0  0
 25 24  1  0  0  0
 25 26  2  0  0  0
 25 27  1  0  0  0
 25 29  1  0  0  0
 22 20  1  0  0  0
  3  5  1  0  0  0
  3  2  1  0  0  0
 20 19  1  0  0  0
 24 23  1  0  0  0
 19 18  1  0  0  0
 18 17  1  0  0  0
 27 28  1  0  0  0
 17 16  1  0  0  0
 29 30  1  0  0  0
 16 15  1  0  0  0
 34 35  1  0  0  0
 34 36  1  0  0  0
 15 14  1  0  0  0
 31 32  1  0  0  0
 31 33  1  0  0  0
 14 13  1  0  0  0
 37  1  1  0  0  0
 37 39  1  0  0  0
 13 12  1  0  0  0
 38 39  2  0  0  0
 12 11  1  0  0  0
 11 10  1  0  0  0
 10  9  1  0  0  0
  9  8  1  0  0  0
  8  7  1  0  0  0
  7  6  1  0  0  0
  6  5  1  0  0  0
  2  1  1  0  0  0
  1 23  1  0  0  0
 30 32  1  0  0  0
 32 35  1  0  0  0
 39 40  1  0  0  0
 40 41  1  0  0  0
 41 42  1  0  0  0
 42 43  1  0  0  0
 43 44  1  0  0  0
 44 45  1  0  0  0
 45 46  1  0  0  0
 46 47  1  0  0  0
 47 48  2  0  0  0
 48 49  1  0  0  0
 49 50  1  0  0  0
 50 51  1  0  0  0
 51 52  1  0  0  0
 52 53  1  0  0  0
 53 54  1  0  0  0
 54 55  1  0  0  0
 55 56  1  0  0  0
M  CHG 1  26  -1
M  END
> <minimizedAffinity>
-8.40803

> <CNNscore>
0.2838665545

> <CNNaffinity>
7.3498854637

> <CNN_VS>
2.0863866806

> <CNNaffinity_variance>
0.8823181987

$$$$
/media/chris/experiments/cd1a-new-docking/inputs/ligands/7sh4_ligand.pdb


 56 55  0  0  0  0  0  0  0  0999 V2000
  -40.7612   60.0851   63.0356 C   0  0  0  0  0  0  0  0  0  0  0  0
  -41.7469   60.5582   64.0663 C   0  0  0  0  0  0  0  0  0  0  0  0
  -42.3784   59.3454   64.5282 O   0  0  0  0  0  0  0  0  0  0  0  0
  -44.2051   58.3641   63.6918 O   0  0  0  0  0  0  0  0  0  0  0  0
  -43.6937   59.2388   64.3377 C   0  0  0  0  0  0  0  0  0  0  0  0
  -44.4424   60.2699   65.1321 C   0  0  0  0  0  0  0  0  0  0  0  0
  -45.1699   59.7119   66.3436 C   0  0  0  0  0  0  0  0  0  0  0  0
  -46.6717   59.8830   66.2558 C   0  0  0  0  0  0  0  0  0  0  0  0
  -47.1690   60.2972   64.8894 C   0  0  0  0  0  0  0  0  0  0  0  0
  -48.6223   60.7261   64.8917 C   0  0  0  0  0  0  0  0  0  0  0  0
  -49.5589   59.6484   65.3807 C   0  0  0  0  0  0  0  0  0  0  0  0
  -50.9718   59.8312   64.8932 C   0  0  0  0  0  0  0  0  0  0  0  0
  -51.0557   60.4246   63.5043 C   0  0  0  0  0  0  0  0  0  0  0  0
  -50.7929   59.4045   62.4151 C   0  0  0  0  0  0  0  0  0  0  0  0
  -49.5295   59.6604   61.6205 C   0  0  0  0  0  0  0  0  0  0  0  0
  -49.5971   59.1663   60.1798 C   0  0  0  0  0  0  0  0  0  0  0  0
  -50.2297   57.7964   60.0273 C   0  0  0  0  0  0  0  0  0  0  0  0
  -49.2173   56.6747   59.9176 C   0  0  0  0  0  0  0  0  0  0  0  0
  -47.8110   57.1523   59.5831 C   0  0  0  0  0  0  0  0  0  0  0  0
  -47.1179   56.3091   58.5277 C   0  0  0  0  0  0  0  0  0  0  0  0
  -47.1209   58.4373   57.1836 C   0  0  0  0  0  0  0  0  0  0  0  0
  -47.0859   56.9264   57.1424 C   0  0  0  0  0  0  0  0  0  0  0  0
  -39.5275   60.9500   62.9931 C   0  0  0  0  0  0  0  0  0  0  0  0
  -39.1779   61.3281   64.3433 O   0  0  0  0  0  0  0  0  0  0  0  0
  -37.6659   61.3774   64.8663 P   0  0  0  0  0  0  0  0  0  0  0  0
  -37.4964   60.3123   65.8781 O   0  0  0  0  0  0  0  0  0  0  0  0
  -36.7692   61.3872   63.6854 O   0  0  0  0  0  0  0  0  0  0  0  0
  -36.8402   60.5401   63.2183 H   0  0  0  0  0  0  0  0  0  0  0  0
  -37.5197   62.7834   65.6042 O   0  0  0  0  0  0  0  0  0  0  0  0
  -36.2911   63.5308   65.4959 C   0  0  0  0  0  0  0  0  0  0  0  0
  -36.2922   62.5826   67.6967 O   0  0  0  0  0  0  0  0  0  0  0  0
  -35.5518   63.4235   66.8069 C   0  0  0  0  0  0  0  0  0  0  0  0
  -37.1907   62.9331   67.8002 H   0  0  0  0  0  0  0  0  0  0  0  0
  -33.2886   63.4083   67.6413 O   0  0  0  0  0  0  0  0  0  0  0  0
  -34.1491   62.8919   66.6340 C   0  0  0  0  0  0  0  0  0  0  0  0
  -32.3937   63.0561   67.5137 H   0  0  0  0  0  0  0  0  0  0  0  0
  -41.4377   60.0424   61.7355 O   0  0  0  0  0  0  0  0  0  0  0  0
  -41.7718   57.8225   61.5925 O   0  0  0  0  0  0  0  0  0  0  0  0
  -41.4425   58.8612   61.0882 C   0  0  0  0  0  0  0  0  0  0  0  0
  -41.0068   59.0015   59.6626 C   0  0  0  0  0  0  0  0  0  0  0  0
  -39.8746   58.0359   59.3267 C   0  0  0  0  0  0  0  0  0  0  0  0
  -38.5072   58.6941   59.2453 C   0  0  0  0  0  0  0  0  0  0  0  0
  -37.7694   58.7346   60.5787 C   0  0  0  0  0  0  0  0  0  0  0  0
  -38.1351   57.6027   61.5208 C   0  0  0  0  0  0  0  0  0  0  0  0
  -37.5076   57.7059   62.9138 C   0  0  0  0  0  0  0  0  0  0  0  0
  -35.9843   57.5662   62.9541 C   0  0  0  0  0  0  0  0  0  0  0  0
  -35.4265   57.8538   64.3157 C   0  0  0  0  0  0  0  0  0  0  0  0
  -34.4271   58.6656   64.6019 C   0  0  0  0  0  0  0  0  0  0  0  0
  -33.6384   59.4745   63.6211 C   0  0  0  0  0  0  0  0  0  0  0  0
  -32.2145   58.9538   63.4485 C   0  0  0  0  0  0  0  0  0  0  0  0
  -31.3115   59.8948   62.6705 C   0  0  0  0  0  0  0  0  0  0  0  0
  -32.0364   61.0995   62.0957 C   0  0  0  0  0  0  0  0  0  0  0  0
  -31.5500   62.4386   62.6248 C   0  0  0  0  0  0  0  0  0  0  0  0
  -32.6751   63.4214   62.9111 C   0  0  0  0  0  0  0  0  0  0  0  0
  -32.3087   64.8729   62.6730 C   0  0  0  0  0  0  0  0  0  0  0  0
  -33.1036   65.4986   61.5612 C   0  0  0  0  0  0  0  0  0  0  0  0
 21 22  1  0  0  0
  4  5  2  0  0  0
 25 24  1  0  0  0
 25 26  2  0  0  0
 25 27  1  0  0  0
 25 29  1  0  0  0
 22 20  1  0  0  0
  3  5  1  0  0  0
  3  2  1  0  0  0
 20 19  1  0  0  0
 24 23  1  0  0  0
 19 18  1  0  0  0
 18 17  1  0  0  0
 27 28  1  0  0  0
 17 16  1  0  0  0
 29 30  1  0  0  0
 16 15  1  0  0  0
 34 35  1  0  0  0
 34 36  1  0  0  0
 15 14  1  0  0  0
 31 32  1  0  0  0
 31 33  1  0  0  0
 14 13  1  0  0  0
 37  1  1  0  0  0
 37 39  1  0  0  0
 13 12  1  0  0  0
 38 39  2  0  0  0
 12 11  1  0  0  0
 11 10  1  0  0  0
 10  9  1  0  0  0
  9  8  1  0  0  0
  8  7  1  0  0  0
  7  6  1  0  0  0
  6  5  1  0  0  0
  2  1  1  0  0  0
  1 23  1  0  0  0
 30 32  1  0  0  0
 32 35  1  0  0  0
 39 40  1  0  0  0
 40 41  1  0  0  0
 41 42  1  0  0  0
 42 43  1  0  0  0
 43 44  1  0  0  0
 44 45  1  0  0  0
 45 46  1  0  0  0
 46 47  1  0  0  0
 47 48  2  0  0  0
 48 49  1  0  0  0
 49 50  1  0  0  0
 50 51  1  0  0  0
 51 52  1  0  0  0
 52 53  1  0  0  0
 53 54  1  0  0  0
 54 55  1  0  0  0
 55 56  1  0  0  0
M  CHG 1  26  -1
M  END
> <minimizedAffinity>
-8.63199

> <CNNscore>
0.2735620141

> <CNNaffinity>
6.9004697800

> <CNN_VS>
1.8877063990

> <CNNaffinity_variance>
0.7971888781

$$$$
/media/chris/experiments/cd1a-new-docking/inputs/ligands/7sh4_ligand.pdb


 56 55  0  0  0  0  0  0  0  0999 V2000
  -41.6707   59.0014   64.7976 C   0  0  0  0  0  0  0  0  0  0  0  0
  -40.1701   58.9264   64.8132 C   0  0  0  0  0  0  0  0  0  0  0  0
  -39.7514   60.1938   64.2641 O   0  0  0  0  0  0  0  0  0  0  0  0
  -38.8941   61.3035   66.0056 O   0  0  0  0  0  0  0  0  0  0  0  0
  -38.7748   60.8368   64.9049 C   0  0  0  0  0  0  0  0  0  0  0  0
  -37.4910   60.7866   64.1276 C   0  0  0  0  0  0  0  0  0  0  0  0
  -37.5270   61.5586   62.8196 C   0  0  0  0  0  0  0  0  0  0  0  0
  -36.8837   62.9250   62.9273 C   0  0  0  0  0  0  0  0  0  0  0  0
  -35.9102   63.0623   64.0760 C   0  0  0  0  0  0  0  0  0  0  0  0
  -34.6145   63.7395   63.6779 C   0  0  0  0  0  0  0  0  0  0  0  0
  -34.7509   64.6094   62.4521 C   0  0  0  0  0  0  0  0  0  0  0  0
  -33.7645   64.2596   61.3695 C   0  0  0  0  0  0  0  0  0  0  0  0
  -32.3682   64.7744   61.6404 C   0  0  0  0  0  0  0  0  0  0  0  0
  -31.2959   63.7505   61.3274 C   0  0  0  0  0  0  0  0  0  0  0  0
  -31.0077   62.7907   62.4627 C   0  0  0  0  0  0  0  0  0  0  0  0
  -31.0866   61.3218   62.0626 C   0  0  0  0  0  0  0  0  0  0  0  0
  -32.3566   60.6272   62.5151 C   0  0  0  0  0  0  0  0  0  0  0  0
  -32.1215   59.2271   63.0437 C   0  0  0  0  0  0  0  0  0  0  0  0
  -32.9494   58.8932   64.2768 C   0  0  0  0  0  0  0  0  0  0  0  0
  -34.4429   58.8365   64.0089 C   0  0  0  0  0  0  0  0  0  0  0  0
  -36.2640   57.7024   62.6924 C   0  0  0  0  0  0  0  0  0  0  0  0
  -34.8282   58.1760   62.6989 C   0  0  0  0  0  0  0  0  0  0  0  0
  -42.2662   58.1961   63.6712 C   0  0  0  0  0  0  0  0  0  0  0  0
  -41.5303   56.9588   63.5445 O   0  0  0  0  0  0  0  0  0  0  0  0
  -40.9485   56.4349   62.1484 P   0  0  0  0  0  0  0  0  0  0  0  0
  -39.4800   56.6074   62.1707 O   0  0  0  0  0  0  0  0  0  0  0  0
  -41.5031   55.0832   61.8954 O   0  0  0  0  0  0  0  0  0  0  0  0
  -41.1558   54.4625   62.5549 H   0  0  0  0  0  0  0  0  0  0  0  0
  -41.5423   57.4223   61.0461 O   0  0  0  0  0  0  0  0  0  0  0  0
  -40.8026   57.6806   59.8353 C   0  0  0  0  0  0  0  0  0  0  0  0
  -40.3590   59.5606   61.2536 O   0  0  0  0  0  0  0  0  0  0  0  0
  -40.2362   59.0771   59.9126 C   0  0  0  0  0  0  0  0  0  0  0  0
  -41.2879   59.5166   61.5294 H   0  0  0  0  0  0  0  0  0  0  0  0
  -38.6349   58.5168   58.1979 O   0  0  0  0  0  0  0  0  0  0  0  0
  -38.7950   59.1385   59.4666 C   0  0  0  0  0  0  0  0  0  0  0  0
  -37.7043   58.5661   57.9288 H   0  0  0  0  0  0  0  0  0  0  0  0
  -42.0615   60.4125   64.7201 O   0  0  0  0  0  0  0  0  0  0  0  0
  -42.1191   61.7405   66.5348 O   0  0  0  0  0  0  0  0  0  0  0  0
  -42.6491   60.9440   65.8093 C   0  0  0  0  0  0  0  0  0  0  0  0
  -44.0458   60.4376   65.9961 C   0  0  0  0  0  0  0  0  0  0  0  0
  -44.9163   60.7379   64.7799 C   0  0  0  0  0  0  0  0  0  0  0  0
  -46.2364   59.9849   64.7660 C   0  0  0  0  0  0  0  0  0  0  0  0
  -46.8208   59.7528   66.1547 C   0  0  0  0  0  0  0  0  0  0  0  0
  -48.2507   60.2360   66.3110 C   0  0  0  0  0  0  0  0  0  0  0  0
  -49.3064   59.3072   65.7046 C   0  0  0  0  0  0  0  0  0  0  0  0
  -50.7342   59.8576   65.7020 C   0  0  0  0  0  0  0  0  0  0  0  0
  -51.1142   60.4363   64.3721 C   0  0  0  0  0  0  0  0  0  0  0  0
  -51.1424   59.8017   63.2163 C   0  0  0  0  0  0  0  0  0  0  0  0
  -50.8005   58.3627   62.9909 C   0  0  0  0  0  0  0  0  0  0  0  0
  -50.8966   57.9647   61.5210 C   0  0  0  0  0  0  0  0  0  0  0  0
  -49.8842   58.6656   60.6322 C   0  0  0  0  0  0  0  0  0  0  0  0
  -50.0773   58.3883   59.1514 C   0  0  0  0  0  0  0  0  0  0  0  0
  -48.9642   57.5741   58.5128 C   0  0  0  0  0  0  0  0  0  0  0  0
  -47.7489   58.4051   58.1306 C   0  0  0  0  0  0  0  0  0  0  0  0
  -46.7660   57.6898   57.2250 C   0  0  0  0  0  0  0  0  0  0  0  0
  -47.0220   56.2110   57.1418 C   0  0  0  0  0  0  0  0  0  0  0  0
 21 22  1  0  0  0
  4  5  2  0  0  0
 25 24  1  0  0  0
 25 26  2  0  0  0
 25 27  1  0  0  0
 25 29  1  0  0  0
 22 20  1  0  0  0
  3  5  1  0  0  0
  3  2  1  0  0  0
 20 19  1  0  0  0
 24 23  1  0  0  0
 19 18  1  0  0  0
 18 17  1  0  0  0
 27 28  1  0  0  0
 17 16  1  0  0  0
 29 30  1  0  0  0
 16 15  1  0  0  0
 34 35  1  0  0  0
 34 36  1  0  0  0
 15 14  1  0  0  0
 31 32  1  0  0  0
 31 33  1  0  0  0
 14 13  1  0  0  0
 37  1  1  0  0  0
 37 39  1  0  0  0
 13 12  1  0  0  0
 38 39  2  0  0  0
 12 11  1  0  0  0
 11 10  1  0  0  0
 10  9  1  0  0  0
  9  8  1  0  0  0
  8  7  1  0  0  0
  7  6  1  0  0  0
  6  5  1  0  0  0
  2  1  1  0  0  0
  1 23  1  0  0  0
 30 32  1  0  0  0
 32 35  1  0  0  0
 39 40  1  0  0  0
 40 41  1  0  0  0
 41 42  1  0  0  0
 42 43  1  0  0  0
 43 44  1  0  0  0
 44 45  1  0  0  0
 45 46  1  0  0  0
 46 47  1  0  0  0
 47 48  2  0  0  0
 48 49  1  0  0  0
 49 50  1  0  0  0
 50 51  1  0  0  0
 51 52  1  0  0  0
 52 53  1  0  0  0
 53 54  1  0  0  0
 54 55  1  0  0  0
 55 56  1  0  0  0
M  CHG 1  26  -1
M  END
> <minimizedAffinity>
-8.26048

> <CNNscore>
0.2535675764

> <CNNaffinity>
6.8794412613

> <CNN_VS>
1.7444032431

> <CNNaffinity_variance>
0.7708689570

$$$$
/media/chris/experiments/cd1a-new-docking/inputs/ligands/7sh4_ligand.pdb


 56 55  0  0  0  0  0  0  0  0999 V2000
  -41.3456   60.3730   64.6358 C   0  0  0  0  0  0  0  0  0  0  0  0
  -42.2598   60.2992   63.4456 C   0  0  0  0  0  0  0  0  0  0  0  0
  -41.4164   60.6686   62.3341 O   0  0  0  0  0  0  0  0  0  0  0  0
  -42.7993   62.2175   61.5047 O   0  0  0  0  0  0  0  0  0  0  0  0
  -41.9907   61.3444   61.3385 C   0  0  0  0  0  0  0  0  0  0  0  0
  -41.4040   60.9582   60.0113 C   0  0  0  0  0  0  0  0  0  0  0  0
  -40.0609   60.2547   60.1077 C   0  0  0  0  0  0  0  0  0  0  0  0
  -40.0448   58.9212   59.3907 C   0  0  0  0  0  0  0  0  0  0  0  0
  -41.1151   57.9576   59.8509 C   0  0  0  0  0  0  0  0  0  0  0  0
  -40.5851   56.8783   60.7729 C   0  0  0  0  0  0  0  0  0  0  0  0
  -40.5943   57.2819   62.2271 C   0  0  0  0  0  0  0  0  0  0  0  0
  -39.2130   57.4941   62.7877 C   0  0  0  0  0  0  0  0  0  0  0  0
  -38.1096   57.1072   61.8281 C   0  0  0  0  0  0  0  0  0  0  0  0
  -37.1763   58.2590   61.5142 C   0  0  0  0  0  0  0  0  0  0  0  0
  -36.2521   58.6336   62.6537 C   0  0  0  0  0  0  0  0  0  0  0  0
  -35.2242   57.5596   62.9917 C   0  0  0  0  0  0  0  0  0  0  0  0
  -33.7985   57.9389   62.6401 C   0  0  0  0  0  0  0  0  0  0  0  0
  -33.4476   59.3666   63.0059 C   0  0  0  0  0  0  0  0  0  0  0  0
  -31.9635   59.6816   62.8805 C   0  0  0  0  0  0  0  0  0  0  0  0
  -31.6717   60.9041   62.0287 C   0  0  0  0  0  0  0  0  0  0  0  0
  -32.5264   63.2188   61.5314 C   0  0  0  0  0  0  0  0  0  0  0  0
  -32.1745   62.2141   62.6049 C   0  0  0  0  0  0  0  0  0  0  0  0
  -39.9205   60.6604   64.2381 C   0  0  0  0  0  0  0  0  0  0  0  0
  -39.2351   61.2562   65.3622 O   0  0  0  0  0  0  0  0  0  0  0  0
  -37.7222   60.8992   65.7440 P   0  0  0  0  0  0  0  0  0  0  0  0
  -37.4991   61.2964   67.1509 O   0  0  0  0  0  0  0  0  0  0  0  0
  -37.4671   59.4921   65.3522 O   0  0  0  0  0  0  0  0  0  0  0  0
  -38.0052   58.9008   65.9013 H   0  0  0  0  0  0  0  0  0  0  0  0
  -36.8211   61.8361   64.8205 O   0  0  0  0  0  0  0  0  0  0  0  0
  -35.3990   61.9184   65.0458 C   0  0  0  0  0  0  0  0  0  0  0  0
  -35.6740   64.0841   64.0573 O   0  0  0  0  0  0  0  0  0  0  0  0
  -35.0108   63.3753   65.1084 C   0  0  0  0  0  0  0  0  0  0  0  0
  -35.4583   63.6745   63.2049 H   0  0  0  0  0  0  0  0  0  0  0  0
  -36.7239   64.2941   66.5364 O   0  0  0  0  0  0  0  0  0  0  0  0
  -35.3359   63.9999   66.4440 C   0  0  0  0  0  0  0  0  0  0  0  0
  -36.9129   64.6940   67.3997 H   0  0  0  0  0  0  0  0  0  0  0  0
  -41.4567   59.1155   65.3817 O   0  0  0  0  0  0  0  0  0  0  0  0
  -42.8007   57.3642   64.9499 O   0  0  0  0  0  0  0  0  0  0  0  0
  -42.6476   58.4874   65.3457 C   0  0  0  0  0  0  0  0  0  0  0  0
  -43.7520   59.3492   65.8746 C   0  0  0  0  0  0  0  0  0  0  0  0
  -45.0596   58.5723   65.9919 C   0  0  0  0  0  0  0  0  0  0  0  0
  -46.0388   58.8398   64.8608 C   0  0  0  0  0  0  0  0  0  0  0  0
  -46.6270   60.2460   64.8831 C   0  0  0  0  0  0  0  0  0  0  0  0
  -47.9573   60.3470   65.6061 C   0  0  0  0  0  0  0  0  0  0  0  0
  -48.8218   59.0854   65.5279 C   0  0  0  0  0  0  0  0  0  0  0  0
  -50.3299   59.3214   65.6355 C   0  0  0  0  0  0  0  0  0  0  0  0
  -50.8248   60.2917   64.6052 C   0  0  0  0  0  0  0  0  0  0  0  0
  -51.1593   60.0153   63.3598 C   0  0  0  0  0  0  0  0  0  0  0  0
  -51.1157   58.6671   62.7126 C   0  0  0  0  0  0  0  0  0  0  0  0
  -49.7866   58.4001   62.0122 C   0  0  0  0  0  0  0  0  0  0  0  0
  -49.4661   59.3969   60.9123 C   0  0  0  0  0  0  0  0  0  0  0  0
  -49.6513   58.8398   59.5114 C   0  0  0  0  0  0  0  0  0  0  0  0
  -48.5100   57.9605   59.0275 C   0  0  0  0  0  0  0  0  0  0  0  0
  -47.6459   58.6208   57.9641 C   0  0  0  0  0  0  0  0  0  0  0  0
  -46.7434   57.6623   57.2125 C   0  0  0  0  0  0  0  0  0  0  0  0
  -47.2432   56.2450   57.2470 C   0  0  0  0  0  0  0  0  0  0  0  0
 21 22  1  0  0  0
  4  5  2  0  0  0
 25 24  1  0  0  0
 25 26  2  0  0  0
 25 27  1  0  0  0
 25 29  1  0  0  0
 22 20  1  0  0  0
  3  5  1  0  0  0
  3  2  1  0  0  0
 20 19  1  0  0  0
 24 23  1  0  0  0
 19 18  1  0  0  0
 18 17  1  0  0  0
 27 28  1  0  0  0
 17 16  1  0  0  0
 29 30  1  0  0  0
 16 15  1  0  0  0
 34 35  1  0  0  0
 34 36  1  0  0  0
 15 14  1  0  0  0
 31 32  1  0  0  0
 31 33  1  0  0  0
 14 13  1  0  0  0
 37  1  1  0  0  0
 37 39  1  0  0  0
 13 12  1  0  0  0
 38 39  2  0  0  0
 12 11  1  0  0  0
 11 10  1  0  0  0
 10  9  1  0  0  0
  9  8  1  0  0  0
  8  7  1  0  0  0
  7  6  1  0  0  0
  6  5  1  0  0  0
  2  1  1  0  0  0
  1 23  1  0  0  0
 30 32  1  0  0  0
 32 35  1  0  0  0
 39 40  1  0  0  0
 40 41  1  0  0  0
 41 42  1  0  0  0
 42 43  1  0  0  0
 43 44  1  0  0  0
 44 45  1  0  0  0
 45 46  1  0  0  0
 46 47  1  0  0  0
 47 48  2  0  0  0
 48 49  1  0  0  0
 49 50  1  0  0  0
 50 51  1  0  0  0
 51 52  1  0  0  0
 52 53  1  0  0  0
 53 54  1  0  0  0
 54 55  1  0  0  0
 55 56  1  0  0  0
M  CHG 1  26  -1
M  END
> <minimizedAffinity>
-8.36329

> <CNNscore>
0.2327239215

> <CNNaffinity>
7.1005182266

> <CNN_VS>
1.6524604559

> <CNNaffinity_variance>
1.2105243206

$$$$
/media/chris/experiments/cd1a-new-docking/inputs/ligands/7sh4_ligand.pdb


 56 55  0  0  0  0  0  0  0  0999 V2000
  -38.7295   60.5436   62.2151 C   0  0  0  0  0  0  0  0  0  0  0  0
  -39.9866   60.9946   61.5266 C   0  0  0  0  0  0  0  0  0  0  0  0
  -41.0011   60.8886   62.5477 O   0  0  0  0  0  0  0  0  0  0  0  0
  -42.4820   61.9900   61.2855 O   0  0  0  0  0  0  0  0  0  0  0  0
  -42.2346   61.2708   62.2156 C   0  0  0  0  0  0  0  0  0  0  0  0
  -43.2629   60.5886   63.0713 C   0  0  0  0  0  0  0  0  0  0  0  0
  -43.8347   61.4656   64.1723 C   0  0  0  0  0  0  0  0  0  0  0  0
  -45.3266   61.2813   64.3533 C   0  0  0  0  0  0  0  0  0  0  0  0
  -45.7037   60.1159   65.2394 C   0  0  0  0  0  0  0  0  0  0  0  0
  -46.5457   59.0769   64.5270 C   0  0  0  0  0  0  0  0  0  0  0  0
  -47.6892   58.5616   65.3665 C   0  0  0  0  0  0  0  0  0  0  0  0
  -48.6567   59.6425   65.7701 C   0  0  0  0  0  0  0  0  0  0  0  0
  -50.1060   59.2504   65.5861 C   0  0  0  0  0  0  0  0  0  0  0  0
  -50.8532   60.1888   64.6603 C   0  0  0  0  0  0  0  0  0  0  0  0
  -51.1764   59.5932   63.3060 C   0  0  0  0  0  0  0  0  0  0  0  0
  -50.1123   59.8579   62.2468 C   0  0  0  0  0  0  0  0  0  0  0  0
  -49.3031   58.6328   61.8668 C   0  0  0  0  0  0  0  0  0  0  0  0
  -50.0678   57.6499   61.0041 C   0  0  0  0  0  0  0  0  0  0  0  0
  -49.8816   57.8756   59.5102 C   0  0  0  0  0  0  0  0  0  0  0  0
  -48.6579   58.7071   59.1691 C   0  0  0  0  0  0  0  0  0  0  0  0
  -47.4126   56.5788   58.6638 C   0  0  0  0  0  0  0  0  0  0  0  0
  -47.6534   58.0174   58.2656 C   0  0  0  0  0  0  0  0  0  0  0  0
  -38.1384   61.6266   63.0809 C   0  0  0  0  0  0  0  0  0  0  0  0
  -36.8818   62.0483   62.5051 O   0  0  0  0  0  0  0  0  0  0  0  0
  -35.8959   63.0775   63.2338 P   0  0  0  0  0  0  0  0  0  0  0  0
  -34.6698   63.1945   62.4154 O   0  0  0  0  0  0  0  0  0  0  0  0
  -36.6626   64.3072   63.5481 O   0  0  0  0  0  0  0  0  0  0  0  0
  -36.9149   64.7507   62.7232 H   0  0  0  0  0  0  0  0  0  0  0  0
  -35.5013   62.3803   64.6125 O   0  0  0  0  0  0  0  0  0  0  0  0
  -34.2908   62.7655   65.2953 C   0  0  0  0  0  0  0  0  0  0  0  0
  -33.4345   63.1518   67.4999 O   0  0  0  0  0  0  0  0  0  0  0  0
  -34.6367   63.0976   66.7261 C   0  0  0  0  0  0  0  0  0  0  0  0
  -32.9569   62.3118   67.4146 H   0  0  0  0  0  0  0  0  0  0  0  0
  -36.7825   64.1944   66.6219 O   0  0  0  0  0  0  0  0  0  0  0  0
  -35.3935   64.3984   66.8475 C   0  0  0  0  0  0  0  0  0  0  0  0
  -37.2510   65.0398   66.7040 H   0  0  0  0  0  0  0  0  0  0  0  0
  -37.7812   60.0892   61.1933 O   0  0  0  0  0  0  0  0  0  0  0  0
  -38.0144   59.0234   59.2261 O   0  0  0  0  0  0  0  0  0  0  0  0
  -38.1678   59.0591   60.4165 C   0  0  0  0  0  0  0  0  0  0  0  0
  -38.7936   57.9584   61.2158 C   0  0  0  0  0  0  0  0  0  0  0  0
  -40.1397   57.5400   60.6326 C   0  0  0  0  0  0  0  0  0  0  0  0
  -41.2403   57.3887   61.6697 C   0  0  0  0  0  0  0  0  0  0  0  0
  -41.3997   55.9633   62.1861 C   0  0  0  0  0  0  0  0  0  0  0  0
  -41.6913   55.8746   63.6726 C   0  0  0  0  0  0  0  0  0  0  0  0
  -42.5502   57.0170   64.2222 C   0  0  0  0  0  0  0  0  0  0  0  0
  -42.2718   57.3995   65.6775 C   0  0  0  0  0  0  0  0  0  0  0  0
  -41.7845   58.8114   65.8072 C   0  0  0  0  0  0  0  0  0  0  0  0
  -40.6034   59.2732   65.4450 C   0  0  0  0  0  0  0  0  0  0  0  0
  -39.4977   58.4792   64.8241 C   0  0  0  0  0  0  0  0  0  0  0  0
  -38.1397   58.7842   65.4494 C   0  0  0  0  0  0  0  0  0  0  0  0
  -37.0632   57.7745   65.0915 C   0  0  0  0  0  0  0  0  0  0  0  0
  -36.2916   58.1265   63.8314 C   0  0  0  0  0  0  0  0  0  0  0  0
  -34.7878   57.9351   63.9397 C   0  0  0  0  0  0  0  0  0  0  0  0
  -34.0391   58.2871   62.6634 C   0  0  0  0  0  0  0  0  0  0  0  0
  -33.2686   59.5907   62.7335 C   0  0  0  0  0  0  0  0  0  0  0  0
  -31.8008   59.3859   62.9847 C   0  0  0  0  0  0  0  0  0  0  0  0
 21 22  1  0  0  0
  4  5  2  0  0  0
 25 24  1  0  0  0
 25 26  2  0  0  0
 25 27  1  0  0  0
 25 29  1  0  0  0
 22 20  1  0  0  0
  3  5  1  0  0  0
  3  2  1  0  0  0
 20 19  1  0  0  0
 24 23  1  0  0  0
 19 18  1  0  0  0
 18 17  1  0  0  0
 27 28  1  0  0  0
 17 16  1  0  0  0
 29 30  1  0  0  0
 16 15  1  0  0  0
 34 35  1  0  0  0
 34 36  1  0  0  0
 15 14  1  0  0  0
 31 32  1  0  0  0
 31 33  1  0  0  0
 14 13  1  0  0  0
 37  1  1  0  0  0
 37 39  1  0  0  0
 13 12  1  0  0  0
 38 39  2  0  0  0
 12 11  1  0  0  0
 11 10  1  0  0  0
 10  9  1  0  0  0
  9  8  1  0  0  0
  8  7  1  0  0  0
  7  6  1  0  0  0
  6  5  1  0  0  0
  2  1  1  0  0  0
  1 23  1  0  0  0
 30 32  1  0  0  0
 32 35  1  0  0  0
 39 40  1  0  0  0
 40 41  1  0  0  0
 41 42  1  0  0  0
 42 43  1  0  0  0
 43 44  1  0  0  0
 44 45  1  0  0  0
 45 46  1  0  0  0
 46 47  1  0  0  0
 47 48  2  0  0  0
 48 49  1  0  0  0
 49 50  1  0  0  0
 50 51  1  0  0  0
 51 52  1  0  0  0
 52 53  1  0  0  0
 53 54  1  0  0  0
 54 55  1  0  0  0
 55 56  1  0  0  0
M  CHG 1  26  -1
M  END
> <minimizedAffinity>
-8.67481

> <CNNscore>
0.2191195488

> <CNNaffinity>
7.2775254250

> <CNN_VS>
1.5946481228

> <CNNaffinity_variance>
1.4177672863

$$$$
/media/chris/experiments/cd1a-new-docking/inputs/ligands/7sh4_ligand.pdb


 56 55  0  0  0  0  0  0  0  0999 V2000
  -38.6129   57.9262   62.7720 C   0  0  0  0  0  0  0  0  0  0  0  0
  -37.1633   57.5950   62.5560 C   0  0  0  0  0  0  0  0  0  0  0  0
  -36.5701   58.8548   62.1762 O   0  0  0  0  0  0  0  0  0  0  0  0
  -36.0780   60.7424   63.2690 O   0  0  0  0  0  0  0  0  0  0  0  0
  -35.9670   59.5532   63.1387 C   0  0  0  0  0  0  0  0  0  0  0  0
  -35.2459   58.6478   64.0954 C   0  0  0  0  0  0  0  0  0  0  0  0
  -34.1025   59.3161   64.8400 C   0  0  0  0  0  0  0  0  0  0  0  0
  -32.7543   58.7122   64.5080 C   0  0  0  0  0  0  0  0  0  0  0  0
  -32.5037   58.5326   63.0279 C   0  0  0  0  0  0  0  0  0  0  0  0
  -32.3934   59.8463   62.2811 C   0  0  0  0  0  0  0  0  0  0  0  0
  -31.1145   60.5915   62.5755 C   0  0  0  0  0  0  0  0  0  0  0  0
  -31.2971   62.0860   62.6027 C   0  0  0  0  0  0  0  0  0  0  0  0
  -32.7390   62.5117   62.7695 C   0  0  0  0  0  0  0  0  0  0  0  0
  -33.1715   63.5315   61.7356 C   0  0  0  0  0  0  0  0  0  0  0  0
  -33.7674   64.7933   62.3237 C   0  0  0  0  0  0  0  0  0  0  0  0
  -32.7290   65.7788   62.8478 C   0  0  0  0  0  0  0  0  0  0  0  0
  -32.9307   66.1732   64.2982 C   0  0  0  0  0  0  0  0  0  0  0  0
  -31.9048   65.5688   65.2348 C   0  0  0  0  0  0  0  0  0  0  0  0
  -32.4205   64.3641   66.0095 C   0  0  0  0  0  0  0  0  0  0  0  0
  -33.9355   64.2781   66.0613 C   0  0  0  0  0  0  0  0  0  0  0  0
  -35.7849   62.6867   66.6804 C   0  0  0  0  0  0  0  0  0  0  0  0
  -34.4973   62.8771   65.9111 C   0  0  0  0  0  0  0  0  0  0  0  0
  -38.9441   58.0929   64.2329 C   0  0  0  0  0  0  0  0  0  0  0  0
  -39.6458   59.3436   64.4109 O   0  0  0  0  0  0  0  0  0  0  0  0
  -39.0709   60.5412   65.3038 P   0  0  0  0  0  0  0  0  0  0  0  0
  -37.9843   60.0013   66.1492 O   0  0  0  0  0  0  0  0  0  0  0  0
  -38.7746   61.6844   64.4072 O   0  0  0  0  0  0  0  0  0  0  0  0
  -38.0451   61.4488   63.8130 H   0  0  0  0  0  0  0  0  0  0  0  0
  -40.2722   60.9683   66.2616 O   0  0  0  0  0  0  0  0  0  0  0  0
  -41.5261   60.2580   66.2069 C   0  0  0  0  0  0  0  0  0  0  0  0
  -42.2692   62.4923   66.6521 O   0  0  0  0  0  0  0  0  0  0  0  0
  -42.6347   61.2637   66.0164 C   0  0  0  0  0  0  0  0  0  0  0  0
  -42.0699   62.3260   67.5867 H   0  0  0  0  0  0  0  0  0  0  0  0
  -41.7537   61.6972   63.8132 O   0  0  0  0  0  0  0  0  0  0  0  0
  -42.9486   61.5043   64.5592 C   0  0  0  0  0  0  0  0  0  0  0  0
  -41.9754   61.8500   62.8813 H   0  0  0  0  0  0  0  0  0  0  0  0
  -39.4241   56.8755   62.1492 O   0  0  0  0  0  0  0  0  0  0  0  0
  -40.2463   57.5037   60.1519 O   0  0  0  0  0  0  0  0  0  0  0  0
  -40.4072   57.2742   61.3194 C   0  0  0  0  0  0  0  0  0  0  0  0
  -41.7255   57.3789   62.0218 C   0  0  0  0  0  0  0  0  0  0  0  0
  -41.8455   56.3495   63.1412 C   0  0  0  0  0  0  0  0  0  0  0  0
  -42.5223   56.8786   64.3949 C   0  0  0  0  0  0  0  0  0  0  0  0
  -43.6238   57.8935   64.1113 C   0  0  0  0  0  0  0  0  0  0  0  0
  -44.7370   57.9002   65.1425 C   0  0  0  0  0  0  0  0  0  0  0  0
  -45.6245   59.1478   65.1131 C   0  0  0  0  0  0  0  0  0  0  0  0
  -47.0755   58.9052   64.6919 C   0  0  0  0  0  0  0  0  0  0  0  0
  -47.7959   60.1838   64.3851 C   0  0  0  0  0  0  0  0  0  0  0  0
  -49.0921   60.3300   64.1904 C   0  0  0  0  0  0  0  0  0  0  0  0
  -50.1199   59.2437   64.2373 C   0  0  0  0  0  0  0  0  0  0  0  0
  -51.1246   59.3430   63.0932 C   0  0  0  0  0  0  0  0  0  0  0  0
  -50.9602   58.2594   62.0419 C   0  0  0  0  0  0  0  0  0  0  0  0
  -49.6563   58.3528   61.2684 C   0  0  0  0  0  0  0  0  0  0  0  0
  -49.7978   58.1500   59.7689 C   0  0  0  0  0  0  0  0  0  0  0  0
  -48.6155   58.6799   58.9720 C   0  0  0  0  0  0  0  0  0  0  0  0
  -47.6604   57.6068   58.4881 C   0  0  0  0  0  0  0  0  0  0  0  0
  -47.0972   57.9008   57.1258 C   0  0  0  0  0  0  0  0  0  0  0  0
 21 22  1  0  0  0
  4  5  2  0  0  0
 25 24  1  0  0  0
 25 26  2  0  0  0
 25 27  1  0  0  0
 25 29  1  0  0  0
 22 20  1  0  0  0
  3  5  1  0  0  0
  3  2  1  0  0  0
 20 19  1  0  0  0
 24 23  1  0  0  0
 19 18  1  0  0  0
 18 17  1  0  0  0
 27 28  1  0  0  0
 17 16  1  0  0  0
 29 30  1  0  0  0
 16 15  1  0  0  0
 34 35  1  0  0  0
 34 36  1  0  0  0
 15 14  1  0  0  0
 31 32  1  0  0  0
 31 33  1  0  0  0
 14 13  1  0  0  0
 37  1  1  0  0  0
 37 39  1  0  0  0
 13 12  1  0  0  0
 38 39  2  0  0  0
 12 11  1  0  0  0
 11 10  1  0  0  0
 10  9  1  0  0  0
  9  8  1  0  0  0
  8  7  1  0  0  0
  7  6  1  0  0  0
  6  5  1  0  0  0
  2  1  1  0  0  0
  1 23  1  0  0  0
 30 32  1  0  0  0
 32 35  1  0  0  0
 39 40  1  0  0  0
 40 41  1  0  0  0
 41 42  1  0  0  0
 42 43  1  0  0  0
 43 44  1  0  0  0
 44 45  1  0  0  0
 45 46  1  0  0  0
 46 47  1  0  0  0
 47 48  2  0  0  0
 48 49  1  0  0  0
 49 50  1  0  0  0
 50 51  1  0  0  0
 51 52  1  0  0  0
 52 53  1  0  0  0
 53 54  1  0  0  0
 54 55  1  0  0  0
 55 56  1  0  0  0
M  CHG 1  26  -1
M  END
> <minimizedAffinity>
-7.66380

> <CNNscore>
0.2164383680

> <CNNaffinity>
6.7798027992

> <CNN_VS>
1.4674094915

> <CNNaffinity_variance>
0.9120823145

$$$$
/media/chris/experiments/cd1a-new-docking/inputs/ligands/7sh4_ligand.pdb


 56 55  0  0  0  0  0  0  0  0999 V2000
  -37.8064   60.7859   64.9735 C   0  0  0  0  0  0  0  0  0  0  0  0
  -39.0763   60.8657   65.7728 C   0  0  0  0  0  0  0  0  0  0  0  0
  -40.1193   60.8255   64.7760 O   0  0  0  0  0  0  0  0  0  0  0  0
  -41.6817   60.3666   66.3082 O   0  0  0  0  0  0  0  0  0  0  0  0
  -41.3759   60.7696   65.2184 C   0  0  0  0  0  0  0  0  0  0  0  0
  -42.3261   61.3870   64.2331 C   0  0  0  0  0  0  0  0  0  0  0  0
  -43.0083   60.3848   63.3173 C   0  0  0  0  0  0  0  0  0  0  0  0
  -44.2318   59.7533   63.9472 C   0  0  0  0  0  0  0  0  0  0  0  0
  -45.0936   60.7184   64.7294 C   0  0  0  0  0  0  0  0  0  0  0  0
  -46.5648   60.6160   64.3816 C   0  0  0  0  0  0  0  0  0  0  0  0
  -47.2654   59.4827   65.0905 C   0  0  0  0  0  0  0  0  0  0  0  0
  -48.3090   59.9556   66.0677 C   0  0  0  0  0  0  0  0  0  0  0  0
  -49.7256   59.6931   65.6070 C   0  0  0  0  0  0  0  0  0  0  0  0
  -50.1611   60.6243   64.4937 C   0  0  0  0  0  0  0  0  0  0  0  0
  -51.1777   60.0221   63.5466 C   0  0  0  0  0  0  0  0  0  0  0  0
  -50.7844   58.6496   63.0120 C   0  0  0  0  0  0  0  0  0  0  0  0
  -49.8974   58.6982   61.7828 C   0  0  0  0  0  0  0  0  0  0  0  0
  -50.4303   57.8819   60.6232 C   0  0  0  0  0  0  0  0  0  0  0  0
  -49.9989   58.4042   59.2599 C   0  0  0  0  0  0  0  0  0  0  0  0
  -48.4924   58.4568   59.0781 C   0  0  0  0  0  0  0  0  0  0  0  0
  -47.0457   56.5819   58.2252 C   0  0  0  0  0  0  0  0  0  0  0  0
  -47.9739   57.7178   57.8592 C   0  0  0  0  0  0  0  0  0  0  0  0
  -37.6768   61.9301   64.0010 C   0  0  0  0  0  0  0  0  0  0  0  0
  -36.5600   61.6688   63.1218 O   0  0  0  0  0  0  0  0  0  0  0  0
  -35.2035   62.5173   63.1670 P   0  0  0  0  0  0  0  0  0  0  0  0
  -34.0694   61.5683   63.1604 O   0  0  0  0  0  0  0  0  0  0  0  0
  -35.2716   63.5533   62.1084 O   0  0  0  0  0  0  0  0  0  0  0  0
  -35.2656   63.1265   61.2374 H   0  0  0  0  0  0  0  0  0  0  0  0
  -35.2157   63.2582   64.5790 O   0  0  0  0  0  0  0  0  0  0  0  0
  -34.0019   63.3592   65.3513 C   0  0  0  0  0  0  0  0  0  0  0  0
  -34.1260   64.8302   67.2390 O   0  0  0  0  0  0  0  0  0  0  0  0
  -34.3741   63.4887   66.8079 C   0  0  0  0  0  0  0  0  0  0  0  0
  -33.1993   65.0591   67.0667 H   0  0  0  0  0  0  0  0  0  0  0  0
  -36.6648   64.2399   66.8884 O   0  0  0  0  0  0  0  0  0  0  0  0
  -35.8136   63.1154   67.0687 C   0  0  0  0  0  0  0  0  0  0  0  0
  -37.5837   63.9808   67.0601 H   0  0  0  0  0  0  0  0  0  0  0  0
  -37.7712   59.4886   64.2913 O   0  0  0  0  0  0  0  0  0  0  0  0
  -37.5769   57.7196   65.6671 O   0  0  0  0  0  0  0  0  0  0  0  0
  -37.0867   58.4989   64.8964 C   0  0  0  0  0  0  0  0  0  0  0  0
  -35.6487   58.4758   64.4796 C   0  0  0  0  0  0  0  0  0  0  0  0
  -35.4504   57.6671   63.2014 C   0  0  0  0  0  0  0  0  0  0  0  0
  -35.8714   58.3990   61.9377 C   0  0  0  0  0  0  0  0  0  0  0  0
  -37.2679   58.0261   61.4534 C   0  0  0  0  0  0  0  0  0  0  0  0
  -37.7000   58.7559   60.1952 C   0  0  0  0  0  0  0  0  0  0  0  0
  -38.4475   60.0688   60.4456 C   0  0  0  0  0  0  0  0  0  0  0  0
  -39.8093   59.9231   61.1281 C   0  0  0  0  0  0  0  0  0  0  0  0
  -40.9222   59.7531   60.1379 C   0  0  0  0  0  0  0  0  0  0  0  0
  -41.3323   58.6203   59.6011 C   0  0  0  0  0  0  0  0  0  0  0  0
  -40.7697   57.2607   59.8716 C   0  0  0  0  0  0  0  0  0  0  0  0
  -41.5688   56.4989   60.9250 C   0  0  0  0  0  0  0  0  0  0  0  0
  -40.7519   56.1059   62.1434 C   0  0  0  0  0  0  0  0  0  0  0  0
  -40.3057   57.2885   62.9859 C   0  0  0  0  0  0  0  0  0  0  0  0
  -40.9273   57.3447   64.3715 C   0  0  0  0  0  0  0  0  0  0  0  0
  -41.9786   56.2711   64.6076 C   0  0  0  0  0  0  0  0  0  0  0  0
  -43.3520   56.8108   64.9543 C   0  0  0  0  0  0  0  0  0  0  0  0
  -43.3995   57.4498   66.3141 C   0  0  0  0  0  0  0  0  0  0  0  0
 21 22  1  0  0  0
  4  5  2  0  0  0
 25 24  1  0  0  0
 25 26  2  0  0  0
 25 27  1  0  0  0
 25 29  1  0  0  0
 22 20  1  0  0  0
  3  5  1  0  0  0
  3  2  1  0  0  0
 20 19  1  0  0  0
 24 23  1  0  0  0
 19 18  1  0  0  0
 18 17  1  0  0  0
 27 28  1  0  0  0
 17 16  1  0  0  0
 29 30  1  0  0  0
 16 15  1  0  0  0
 34 35  1  0  0  0
 34 36  1  0  0  0
 15 14  1  0  0  0
 31 32  1  0  0  0
 31 33  1  0  0  0
 14 13  1  0  0  0
 37  1  1  0  0  0
 37 39  1  0  0  0
 13 12  1  0  0  0
 38 39  2  0  0  0
 12 11  1  0  0  0
 11 10  1  0  0  0
 10  9  1  0  0  0
  9  8  1  0  0  0
  8  7  1  0  0  0
  7  6  1  0  0  0
  6  5  1  0  0  0
  2  1  1  0  0  0
  1 23  1  0  0  0
 30 32  1  0  0  0
 32 35  1  0  0  0
 39 40  1  0  0  0
 40 41  1  0  0  0
 41 42  1  0  0  0
 42 43  1  0  0  0
 43 44  1  0  0  0
 44 45  1  0  0  0
 45 46  1  0  0  0
 46 47  1  0  0  0
 47 48  2  0  0  0
 48 49  1  0  0  0
 49 50  1  0  0  0
 50 51  1  0  0  0
 51 52  1  0  0  0
 52 53  1  0  0  0
 53 54  1  0  0  0
 54 55  1  0  0  0
 55 56  1  0  0  0
M  CHG 1  26  -1
M  END
> <minimizedAffinity>
-7.98436

> <CNNscore>
0.1957653314

> <CNNaffinity>
7.4294753075

> <CNN_VS>
1.4544336796

> <CNNaffinity_variance>
1.0339280367

$$$$
