/media/chris/experiments/cd1a-new-docking/inputs/ligands/7sh4_ligand.pdb


 56 55  0  0  0  0  0  0  0  0999 V2000
  -40.1438   59.8059   64.2021 C   0  0  0  0  0  0  0  0  0  0  0  0
  -40.2288   58.4271   64.7930 C   0  0  0  0  0  0  0  0  0  0  0  0
  -41.2584   57.7777   64.0176 O   0  0  0  0  0  0  0  0  0  0  0  0
  -41.6348   55.6526   64.6017 O   0  0  0  0  0  0  0  0  0  0  0  0
  -41.9509   56.8116   64.6216 C   0  0  0  0  0  0  0  0  0  0  0  0
  -43.0886   57.3781   65.4214 C   0  0  0  0  0  0  0  0  0  0  0  0
  -44.0575   58.2219   64.6107 C   0  0  0  0  0  0  0  0  0  0  0  0
  -44.7108   59.3147   65.4303 C   0  0  0  0  0  0  0  0  0  0  0  0
  -45.4904   60.3197   64.6131 C   0  0  0  0  0  0  0  0  0  0  0  0
  -46.9889   60.1063   64.6826 C   0  0  0  0  0  0  0  0  0  0  0  0
  -47.4616   59.6498   66.0412 C   0  0  0  0  0  0  0  0  0  0  0  0
  -48.9162   59.9499   66.2897 C   0  0  0  0  0  0  0  0  0  0  0  0
  -49.8518   59.1691   65.3934 C   0  0  0  0  0  0  0  0  0  0  0  0
  -50.9618   60.0255   64.8184 C   0  0  0  0  0  0  0  0  0  0  0  0
  -51.2335   59.7801   63.3489 C   0  0  0  0  0  0  0  0  0  0  0  0
  -50.1044   60.2326   62.4299 C   0  0  0  0  0  0  0  0  0  0  0  0
  -49.5058   59.1175   61.5941 C   0  0  0  0  0  0  0  0  0  0  0  0
  -49.3559   59.4767   60.1299 C   0  0  0  0  0  0  0  0  0  0  0  0
  -49.2869   58.2667   59.2087 C   0  0  0  0  0  0  0  0  0  0  0  0
  -48.0059   58.1932   58.3970 C   0  0  0  0  0  0  0  0  0  0  0  0
  -47.1925   56.1387   57.1913 C   0  0  0  0  0  0  0  0  0  0  0  0
  -48.0983   57.3482   57.1406 C   0  0  0  0  0  0  0  0  0  0  0  0
  -38.9323   60.5577   64.6910 C   0  0  0  0  0  0  0  0  0  0  0  0
  -38.3733   61.3064   63.5885 O   0  0  0  0  0  0  0  0  0  0  0  0
  -37.0075   62.1327   63.7053 P   0  0  0  0  0  0  0  0  0  0  0  0
  -35.8978   61.2424   63.3016 O   0  0  0  0  0  0  0  0  0  0  0  0
  -37.1841   63.4198   62.9906 O   0  0  0  0  0  0  0  0  0  0  0  0
  -37.2887   63.2507   62.0412 H   0  0  0  0  0  0  0  0  0  0  0  0
  -36.8394   62.4536   65.2582 O   0  0  0  0  0  0  0  0  0  0  0  0
  -35.7369   61.8888   65.9966 C   0  0  0  0  0  0  0  0  0  0  0  0
  -34.0305   63.1656   64.9011 O   0  0  0  0  0  0  0  0  0  0  0  0
  -34.6784   62.9519   66.1586 C   0  0  0  0  0  0  0  0  0  0  0  0
  -33.6717   62.3254   64.5752 H   0  0  0  0  0  0  0  0  0  0  0  0
  -36.3025   64.0056   67.5974 O   0  0  0  0  0  0  0  0  0  0  0  0
  -35.2433   64.2510   66.6812 C   0  0  0  0  0  0  0  0  0  0  0  0
  -36.6519   64.8505   67.9215 H   0  0  0  0  0  0  0  0  0  0  0  0
  -41.3862   60.5193   64.5141 O   0  0  0  0  0  0  0  0  0  0  0  0
  -42.4422   62.2726   63.5808 O   0  0  0  0  0  0  0  0  0  0  0  0
  -41.9928   61.1622   63.4979 C   0  0  0  0  0  0  0  0  0  0  0  0
  -42.0232   60.3353   62.2500 C   0  0  0  0  0  0  0  0  0  0  0  0
  -41.5135   61.1214   61.0461 C   0  0  0  0  0  0  0  0  0  0  0  0
  -40.9399   60.2513   59.9398 C   0  0  0  0  0  0  0  0  0  0  0  0
  -41.2566   58.7691   60.1036 C   0  0  0  0  0  0  0  0  0  0  0  0
  -40.1407   57.8460   59.6508 C   0  0  0  0  0  0  0  0  0  0  0  0
  -38.8604   58.5624   59.2119 C   0  0  0  0  0  0  0  0  0  0  0  0
  -37.7754   58.6736   60.2851 C   0  0  0  0  0  0  0  0  0  0  0  0
  -38.1737   57.9986   61.5632 C   0  0  0  0  0  0  0  0  0  0  0  0
  -37.3702   57.6274   62.5411 C   0  0  0  0  0  0  0  0  0  0  0  0
  -35.8852   57.8053   62.5791 C   0  0  0  0  0  0  0  0  0  0  0  0
  -35.3488   57.9212   64.0029 C   0  0  0  0  0  0  0  0  0  0  0  0
  -33.9134   58.4116   64.0755 C   0  0  0  0  0  0  0  0  0  0  0  0
  -33.2661   58.6067   62.7153 C   0  0  0  0  0  0  0  0  0  0  0  0
  -32.4827   59.9007   62.5705 C   0  0  0  0  0  0  0  0  0  0  0  0
  -31.0055   59.7549   62.9030 C   0  0  0  0  0  0  0  0  0  0  0  0
  -30.0938   60.6553   62.0932 C   0  0  0  0  0  0  0  0  0  0  0  0
  -30.8324   61.4391   61.0445 C   0  0  0  0  0  0  0  0  0  0  0  0
 21 22  1  0  0  0
  4  5  2  0  0  0
 25 24  1  0  0  0
 25 26  2  0  0  0
 25 27  1  0  0  0
 25 29  1  0  0  0
 22 20  1  0  0  0
  3  5  1  0  0  0
  3  2  1  0  0  0
 20 19  1  0  0  0
 24 23  1  0  0  0
 19 18  1  0  0  0
 18 17  1  0  0  0
 27 28  1  0  0  0
 17 16  1  0  0  0
 29 30  1  0  0  0
 16 15  1  0  0  0
 34 35  1  0  0  0
 34 36  1  0  0  0
 15 14  1  0  0  0
 31 32  1  0  0  0
 31 33  1  0  0  0
 14 13  1  0  0  0
 37  1  1  0  0  0
 37 39  1  0  0  0
 13 12  1  0  0  0
 38 39  2  0  0  0
 12 11  1  0  0  0
 11 10  1  0  0  0
 10  9  1  0  0  0
  9  8  1  0  0  0
  8  7  1  0  0  0
  7  6  1  0  0  0
  6  5  1  0  0  0
  2  1  1  0  0  0
  1 23  1  0  0  0
 30 32  1  0  0  0
 32 35  1  0  0  0
 39 40  1  0  0  0
 40 41  1  0  0  0
 41 42  1  0  0  0
 42 43  1  0  0  0
 43 44  1  0  0  0
 44 45  1  0  0  0
 45 46  1  0  0  0
 46 47  1  0  0  0
 47 48  2  0  0  0
 48 49  1  0  0  0
 49 50  1  0  0  0
 50 51  1  0  0  0
 51 52  1  0  0  0
 52 53  1  0  0  0
 53 54  1  0  0  0
 54 55  1  0  0  0
 55 56  1  0  0  0
M  CHG 1  26  -1
M  END
> <minimizedAffinity>
-8.82043

> <CNNscore>
0.6018830538

> <CNNaffinity>
7.6187591553

> <CNN_VS>
4.5856018066

> <CNNaffinity_variance>
1.0671212673

$$$$
/media/chris/experiments/cd1a-new-docking/inputs/ligands/7sh4_ligand.pdb


 56 55  0  0  0  0  0  0  0  0999 V2000
  -38.9017   60.5399   64.7787 C   0  0  0  0  0  0  0  0  0  0  0  0
  -40.2336   60.3388   65.4444 C   0  0  0  0  0  0  0  0  0  0  0  0
  -41.1258   61.2022   64.7085 O   0  0  0  0  0  0  0  0  0  0  0  0
  -42.6862   61.0967   63.1107 O   0  0  0  0  0  0  0  0  0  0  0  0
  -42.1393   60.6189   64.0679 C   0  0  0  0  0  0  0  0  0  0  0  0
  -42.4138   59.2496   64.6196 C   0  0  0  0  0  0  0  0  0  0  0  0
  -43.4411   58.4567   63.8295 C   0  0  0  0  0  0  0  0  0  0  0  0
  -44.8459   58.6125   64.3726 C   0  0  0  0  0  0  0  0  0  0  0  0
  -45.1034   57.8494   65.6521 C   0  0  0  0  0  0  0  0  0  0  0  0
  -46.4221   58.2123   66.3042 C   0  0  0  0  0  0  0  0  0  0  0  0
  -46.6418   59.7015   66.4117 C   0  0  0  0  0  0  0  0  0  0  0  0
  -48.0264   60.1236   65.9967 C   0  0  0  0  0  0  0  0  0  0  0  0
  -48.2734   59.9928   64.5100 C   0  0  0  0  0  0  0  0  0  0  0  0
  -49.4787   60.7848   64.0451 C   0  0  0  0  0  0  0  0  0  0  0  0
  -50.8027   60.0856   64.2724 C   0  0  0  0  0  0  0  0  0  0  0  0
  -51.3855   59.4470   63.0167 C   0  0  0  0  0  0  0  0  0  0  0  0
  -50.5854   58.2680   62.4969 C   0  0  0  0  0  0  0  0  0  0  0  0
  -50.6110   58.1417   60.9874 C   0  0  0  0  0  0  0  0  0  0  0  0
  -49.3843   58.7305   60.3049 C   0  0  0  0  0  0  0  0  0  0  0  0
  -49.1306   58.1661   58.9184 C   0  0  0  0  0  0  0  0  0  0  0  0
  -47.1469   58.2340   57.3704 C   0  0  0  0  0  0  0  0  0  0  0  0
  -47.7067   57.7052   58.6715 C   0  0  0  0  0  0  0  0  0  0  0  0
  -37.8400   60.9745   65.7563 C   0  0  0  0  0  0  0  0  0  0  0  0
  -37.6016   62.3896   65.5856 O   0  0  0  0  0  0  0  0  0  0  0  0
  -36.1599   63.0562   65.7823 P   0  0  0  0  0  0  0  0  0  0  0  0
  -36.3527   64.5038   66.0152 O   0  0  0  0  0  0  0  0  0  0  0  0
  -35.4193   62.2644   66.7938 O   0  0  0  0  0  0  0  0  0  0  0  0
  -35.8525   62.3564   67.6569 H   0  0  0  0  0  0  0  0  0  0  0  0
  -35.4179   62.8788   64.3820 O   0  0  0  0  0  0  0  0  0  0  0  0
  -35.0177   64.0394   63.6252 C   0  0  0  0  0  0  0  0  0  0  0  0
  -36.8033   65.5192   63.0221 O   0  0  0  0  0  0  0  0  0  0  0  0
  -36.0964   64.3439   62.6151 C   0  0  0  0  0  0  0  0  0  0  0  0
  -37.1532   65.3922   63.9179 H   0  0  0  0  0  0  0  0  0  0  0  0
  -34.4043   63.6987   61.0217 O   0  0  0  0  0  0  0  0  0  0  0  0
  -35.5445   64.5243   61.2212 C   0  0  0  0  0  0  0  0  0  0  0  0
  -34.0647   63.8282   60.1223 H   0  0  0  0  0  0  0  0  0  0  0  0
  -39.0699   61.5123   63.6942 O   0  0  0  0  0  0  0  0  0  0  0  0
  -37.3536   61.3979   62.2446 O   0  0  0  0  0  0  0  0  0  0  0  0
  -38.5094   61.2071   62.5082 C   0  0  0  0  0  0  0  0  0  0  0  0
  -39.4938   60.5860   61.5663 C   0  0  0  0  0  0  0  0  0  0  0  0
  -38.8061   60.0408   60.3185 C   0  0  0  0  0  0  0  0  0  0  0  0
  -39.7302   59.2645   59.3949 C   0  0  0  0  0  0  0  0  0  0  0  0
  -41.0552   58.8778   60.0421 C   0  0  0  0  0  0  0  0  0  0  0  0
  -41.2037   57.3903   60.3026 C   0  0  0  0  0  0  0  0  0  0  0  0
  -40.7632   56.9412   61.6987 C   0  0  0  0  0  0  0  0  0  0  0  0
  -39.2608   56.7018   61.8624 C   0  0  0  0  0  0  0  0  0  0  0  0
  -38.7110   57.3760   63.0835 C   0  0  0  0  0  0  0  0  0  0  0  0
  -37.5008   57.8803   63.2269 C   0  0  0  0  0  0  0  0  0  0  0  0
  -36.4187   57.8859   62.1937 C   0  0  0  0  0  0  0  0  0  0  0  0
  -35.0286   58.0272   62.8070 C   0  0  0  0  0  0  0  0  0  0  0  0
  -34.8377   59.3113   63.5950 C   0  0  0  0  0  0  0  0  0  0  0  0
  -33.3814   59.6598   63.8495 C   0  0  0  0  0  0  0  0  0  0  0  0
  -32.4327   59.2552   62.7335 C   0  0  0  0  0  0  0  0  0  0  0  0
  -31.1351   60.0488   62.7241 C   0  0  0  0  0  0  0  0  0  0  0  0
  -30.7865   60.6554   61.3794 C   0  0  0  0  0  0  0  0  0  0  0  0
  -31.1896   62.0994   61.2708 C   0  0  0  0  0  0  0  0  0  0  0  0
 21 22  1  0  0  0
  4  5  2  0  0  0
 25 24  1  0  0  0
 25 26  2  0  0  0
 25 27  1  0  0  0
 25 29  1  0  0  0
 22 20  1  0  0  0
  3  5  1  0  0  0
  3  2  1  0  0  0
 20 19  1  0  0  0
 24 23  1  0  0  0
 19 18  1  0  0  0
 18 17  1  0  0  0
 27 28  1  0  0  0
 17 16  1  0  0  0
 29 30  1  0  0  0
 16 15  1  0  0  0
 34 35  1  0  0  0
 34 36  1  0  0  0
 15 14  1  0  0  0
 31 32  1  0  0  0
 31 33  1  0  0  0
 14 13  1  0  0  0
 37  1  1  0  0  0
 37 39  1  0  0  0
 13 12  1  0  0  0
 38 39  2  0  0  0
 12 11  1  0  0  0
 11 10  1  0  0  0
 10  9  1  0  0  0
  9  8  1  0  0  0
  8  7  1  0  0  0
  7  6  1  0  0  0
  6  5  1  0  0  0
  2  1  1  0  0  0
  1 23  1  0  0  0
 30 32  1  0  0  0
 32 35  1  0  0  0
 39 40  1  0  0  0
 40 41  1  0  0  0
 41 42  1  0  0  0
 42 43  1  0  0  0
 43 44  1  0  0  0
 44 45  1  0  0  0
 45 46  1  0  0  0
 46 47  1  0  0  0
 47 48  2  0  0  0
 48 49  1  0  0  0
 49 50  1  0  0  0
 50 51  1  0  0  0
 51 52  1  0  0  0
 52 53  1  0  0  0
 53 54  1  0  0  0
 54 55  1  0  0  0
 55 56  1  0  0  0
M  CHG 1  26  -1
M  END
> <minimizedAffinity>
-8.35939

> <CNNscore>
0.4271698594

> <CNNaffinity>
7.4044570923

> <CNN_VS>
3.1629610062

> <CNNaffinity_variance>
0.8775867224

$$$$
/media/chris/experiments/cd1a-new-docking/inputs/ligands/7sh4_ligand.pdb


 56 55  0  0  0  0  0  0  0  0999 V2000
  -39.5788   60.4491   63.6900 C   0  0  0  0  0  0  0  0  0  0  0  0
  -39.4888   59.7947   65.0396 C   0  0  0  0  0  0  0  0  0  0  0  0
  -40.2650   58.5867   64.8944 O   0  0  0  0  0  0  0  0  0  0  0  0
  -41.6746   59.2577   66.4951 O   0  0  0  0  0  0  0  0  0  0  0  0
  -41.3902   58.5024   65.6049 C   0  0  0  0  0  0  0  0  0  0  0  0
  -42.2940   57.4317   65.0651 C   0  0  0  0  0  0  0  0  0  0  0  0
  -43.5563   57.9598   64.4048 C   0  0  0  0  0  0  0  0  0  0  0  0
  -44.7548   57.9382   65.3299 C   0  0  0  0  0  0  0  0  0  0  0  0
  -45.1113   59.2866   65.9132 C   0  0  0  0  0  0  0  0  0  0  0  0
  -46.0396   60.0904   65.0255 C   0  0  0  0  0  0  0  0  0  0  0  0
  -47.2690   59.3239   64.6028 C   0  0  0  0  0  0  0  0  0  0  0  0
  -48.0980   58.8523   65.7680 C   0  0  0  0  0  0  0  0  0  0  0  0
  -49.3135   59.7144   66.0278 C   0  0  0  0  0  0  0  0  0  0  0  0
  -49.7282   60.5222   64.8147 C   0  0  0  0  0  0  0  0  0  0  0  0
  -51.1063   60.1816   64.2871 C   0  0  0  0  0  0  0  0  0  0  0  0
  -51.1422   59.9120   62.7871 C   0  0  0  0  0  0  0  0  0  0  0  0
  -50.1432   58.8688   62.3245 C   0  0  0  0  0  0  0  0  0  0  0  0
  -50.7607   57.7819   61.4685 C   0  0  0  0  0  0  0  0  0  0  0  0
  -50.4152   57.8988   59.9906 C   0  0  0  0  0  0  0  0  0  0  0  0
  -48.9672   57.5671   59.6769 C   0  0  0  0  0  0  0  0  0  0  0  0
  -47.2149   57.7210   57.8763 C   0  0  0  0  0  0  0  0  0  0  0  0
  -48.3373   58.4299   58.5999 C   0  0  0  0  0  0  0  0  0  0  0  0
  -38.2499   60.9971   63.2368 C   0  0  0  0  0  0  0  0  0  0  0  0
  -37.9657   62.2029   63.9810 O   0  0  0  0  0  0  0  0  0  0  0  0
  -36.4825   62.6340   64.4005 P   0  0  0  0  0  0  0  0  0  0  0  0
  -36.5438   64.0026   64.9575 O   0  0  0  0  0  0  0  0  0  0  0  0
  -35.9051   61.5513   65.2329 O   0  0  0  0  0  0  0  0  0  0  0  0
  -36.3906   61.4938   66.0707 H   0  0  0  0  0  0  0  0  0  0  0  0
  -35.6589   62.6955   63.0365 O   0  0  0  0  0  0  0  0  0  0  0  0
  -34.2379   62.9407   63.0620 C   0  0  0  0  0  0  0  0  0  0  0  0
  -33.1231   63.4644   61.0065 O   0  0  0  0  0  0  0  0  0  0  0  0
  -33.9229   64.0193   62.0549 C   0  0  0  0  0  0  0  0  0  0  0  0
  -32.3266   63.0613   61.3862 H   0  0  0  0  0  0  0  0  0  0  0  0
  -35.7711   63.7933   60.5215 O   0  0  0  0  0  0  0  0  0  0  0  0
  -35.1682   64.6517   61.4813 C   0  0  0  0  0  0  0  0  0  0  0  0
  -36.5681   64.2161   60.1650 H   0  0  0  0  0  0  0  0  0  0  0  0
  -40.6036   61.4959   63.7520 O   0  0  0  0  0  0  0  0  0  0  0  0
  -42.8409   61.4956   63.9858 O   0  0  0  0  0  0  0  0  0  0  0  0
  -41.8548   61.1471   63.3959 C   0  0  0  0  0  0  0  0  0  0  0  0
  -41.8699   60.2897   62.1685 C   0  0  0  0  0  0  0  0  0  0  0  0
  -41.5054   61.0909   60.9226 C   0  0  0  0  0  0  0  0  0  0  0  0
  -40.9257   60.2502   59.7969 C   0  0  0  0  0  0  0  0  0  0  0  0
  -41.1966   58.7577   59.9487 C   0  0  0  0  0  0  0  0  0  0  0  0
  -40.0541   57.8730   59.4857 C   0  0  0  0  0  0  0  0  0  0  0  0
  -38.7565   58.6221   59.1695 C   0  0  0  0  0  0  0  0  0  0  0  0
  -37.7698   58.7360   60.3335 C   0  0  0  0  0  0  0  0  0  0  0  0
  -38.0899   57.7778   61.4413 C   0  0  0  0  0  0  0  0  0  0  0  0
  -37.3076   57.4537   62.4526 C   0  0  0  0  0  0  0  0  0  0  0  0
  -35.9303   57.9795   62.7069 C   0  0  0  0  0  0  0  0  0  0  0  0
  -35.6291   58.1277   64.1955 C   0  0  0  0  0  0  0  0  0  0  0  0
  -34.1935   58.5253   64.4903 C   0  0  0  0  0  0  0  0  0  0  0  0
  -33.2278   58.2039   63.3627 C   0  0  0  0  0  0  0  0  0  0  0  0
  -32.1073   59.2151   63.1860 C   0  0  0  0  0  0  0  0  0  0  0  0
  -32.2093   60.0127   61.8948 C   0  0  0  0  0  0  0  0  0  0  0  0
  -30.9663   60.8119   61.5573 C   0  0  0  0  0  0  0  0  0  0  0  0
  -29.7915   60.4534   62.4237 C   0  0  0  0  0  0  0  0  0  0  0  0
 21 22  1  0  0  0
  4  5  2  0  0  0
 25 24  1  0  0  0
 25 26  2  0  0  0
 25 27  1  0  0  0
 25 29  1  0  0  0
 22 20  1  0  0  0
  3  5  1  0  0  0
  3  2  1  0  0  0
 20 19  1  0  0  0
 24 23  1  0  0  0
 19 18  1  0  0  0
 18 17  1  0  0  0
 27 28  1  0  0  0
 17 16  1  0  0  0
 29 30  1  0  0  0
 16 15  1  0  0  0
 34 35  1  0  0  0
 34 36  1  0  0  0
 15 14  1  0  0  0
 31 32  1  0  0  0
 31 33  1  0  0  0
 14 13  1  0  0  0
 37  1  1  0  0  0
 37 39  1  0  0  0
 13 12  1  0  0  0
 38 39  2  0  0  0
 12 11  1  0  0  0
 11 10  1  0  0  0
 10  9  1  0  0  0
  9  8  1  0  0  0
  8  7  1  0  0  0
  7  6  1  0  0  0
  6  5  1  0  0  0
  2  1  1  0  0  0
  1 23  1  0  0  0
 30 32  1  0  0  0
 32 35  1  0  0  0
 39 40  1  0  0  0
 40 41  1  0  0  0
 41 42  1  0  0  0
 42 43  1  0  0  0
 43 44  1  0  0  0
 44 45  1  0  0  0
 45 46  1  0  0  0
 46 47  1  0  0  0
 47 48  2  0  0  0
 48 49  1  0  0  0
 49 50  1  0  0  0
 50 51  1  0  0  0
 51 52  1  0  0  0
 52 53  1  0  0  0
 53 54  1  0  0  0
 54 55  1  0  0  0
 55 56  1  0  0  0
M  CHG 1  26  -1
M  END
> <minimizedAffinity>
-8.62661

> <CNNscore>
0.3878678083

> <CNNaffinity>
7.3063125610

> <CNN_VS>
2.8338835239

> <CNNaffinity_variance>
1.2872285843

$$$$
/media/chris/experiments/cd1a-new-docking/inputs/ligands/7sh4_ligand.pdb


 56 55  0  0  0  0  0  0  0  0999 V2000
  -33.2103   62.4195   63.2992 C   0  0  0  0  0  0  0  0  0  0  0  0
  -34.2805   61.9353   64.2362 C   0  0  0  0  0  0  0  0  0  0  0  0
  -35.3121   61.4351   63.3595 O   0  0  0  0  0  0  0  0  0  0  0  0
  -37.4252   62.1100   63.0795 O   0  0  0  0  0  0  0  0  0  0  0  0
  -36.5743   61.5989   63.7566 C   0  0  0  0  0  0  0  0  0  0  0  0
  -36.8112   60.9538   65.0917 C   0  0  0  0  0  0  0  0  0  0  0  0
  -38.2581   60.9951   65.5530 C   0  0  0  0  0  0  0  0  0  0  0  0
  -39.0459   59.7759   65.1219 C   0  0  0  0  0  0  0  0  0  0  0  0
  -40.4699   60.0726   64.7097 C   0  0  0  0  0  0  0  0  0  0  0  0
  -40.6005   60.4329   63.2438 C   0  0  0  0  0  0  0  0  0  0  0  0
  -41.9897   60.8840   62.8643 C   0  0  0  0  0  0  0  0  0  0  0  0
  -42.7082   61.5847   63.9870 C   0  0  0  0  0  0  0  0  0  0  0  0
  -44.2147   61.4938   63.8848 C   0  0  0  0  0  0  0  0  0  0  0  0
  -44.8275   60.6634   64.9943 C   0  0  0  0  0  0  0  0  0  0  0  0
  -45.3315   59.3077   64.5453 C   0  0  0  0  0  0  0  0  0  0  0  0
  -46.8512   59.1881   64.5349 C   0  0  0  0  0  0  0  0  0  0  0  0
  -47.5161   59.6711   65.8096 C   0  0  0  0  0  0  0  0  0  0  0  0
  -48.8851   60.2787   65.5816 C   0  0  0  0  0  0  0  0  0  0  0  0
  -50.0113   59.2547   65.5601 C   0  0  0  0  0  0  0  0  0  0  0  0
  -50.5447   58.9672   64.1680 C   0  0  0  0  0  0  0  0  0  0  0  0
  -49.8885   60.1281   62.0331 C   0  0  0  0  0  0  0  0  0  0  0  0
  -50.7240   60.1923   63.2915 C   0  0  0  0  0  0  0  0  0  0  0  0
  -33.5000   63.8026   62.7751 C   0  0  0  0  0  0  0  0  0  0  0  0
  -33.1862   64.7658   63.8057 O   0  0  0  0  0  0  0  0  0  0  0  0
  -32.5582   66.2032   63.4874 P   0  0  0  0  0  0  0  0  0  0  0  0
  -32.9942   66.6035   62.1322 O   0  0  0  0  0  0  0  0  0  0  0  0
  -32.8606   67.1018   64.6274 O   0  0  0  0  0  0  0  0  0  0  0  0
  -33.8172   67.2561   64.6726 H   0  0  0  0  0  0  0  0  0  0  0  0
  -30.9804   65.9755   63.4483 O   0  0  0  0  0  0  0  0  0  0  0  0
  -30.2352   66.2906   62.2544 C   0  0  0  0  0  0  0  0  0  0  0  0
  -29.9680   63.9329   62.5890 O   0  0  0  0  0  0  0  0  0  0  0  0
  -29.6690   65.0088   61.6947 C   0  0  0  0  0  0  0  0  0  0  0  0
  -29.6242   64.1411   63.4718 H   0  0  0  0  0  0  0  0  0  0  0  0
  -31.2503   65.5924   59.9692 O   0  0  0  0  0  0  0  0  0  0  0  0
  -30.1975   64.7011   60.3142 C   0  0  0  0  0  0  0  0  0  0  0  0
  -31.5761   65.3794   59.0807 H   0  0  0  0  0  0  0  0  0  0  0  0
  -33.0740   61.4457   62.2116 O   0  0  0  0  0  0  0  0  0  0  0  0
  -31.0088   61.4067   61.3208 O   0  0  0  0  0  0  0  0  0  0  0  0
  -31.8521   60.9131   62.0186 C   0  0  0  0  0  0  0  0  0  0  0  0
  -31.6654   59.6441   62.7911 C   0  0  0  0  0  0  0  0  0  0  0  0
  -32.9607   58.8423   62.8703 C   0  0  0  0  0  0  0  0  0  0  0  0
  -33.3228   58.3936   64.2766 C   0  0  0  0  0  0  0  0  0  0  0  0
  -34.8017   58.0679   64.4509 C   0  0  0  0  0  0  0  0  0  0  0  0
  -35.5483   57.8711   63.1446 C   0  0  0  0  0  0  0  0  0  0  0  0
  -37.0547   57.6441   63.3001 C   0  0  0  0  0  0  0  0  0  0  0  0
  -37.8337   57.5198   61.9890 C   0  0  0  0  0  0  0  0  0  0  0  0
  -37.5285   58.6415   61.0420 C   0  0  0  0  0  0  0  0  0  0  0  0
  -38.1913   58.9466   59.9433 C   0  0  0  0  0  0  0  0  0  0  0  0
  -39.3938   58.2333   59.4109 C   0  0  0  0  0  0  0  0  0  0  0  0
  -40.7007   58.8860   59.8519 C   0  0  0  0  0  0  0  0  0  0  0  0
  -41.7119   57.9043   60.4173 C   0  0  0  0  0  0  0  0  0  0  0  0
  -41.1751   56.4906   60.5607 C   0  0  0  0  0  0  0  0  0  0  0  0
  -41.1688   55.9610   61.9850 C   0  0  0  0  0  0  0  0  0  0  0  0
  -41.7622   56.9315   62.9948 C   0  0  0  0  0  0  0  0  0  0  0  0
  -41.5873   56.5097   64.4402 C   0  0  0  0  0  0  0  0  0  0  0  0
  -42.5527   57.1948   65.3667 C   0  0  0  0  0  0  0  0  0  0  0  0
 21 22  1  0  0  0
  4  5  2  0  0  0
 25 24  1  0  0  0
 25 26  2  0  0  0
 25 27  1  0  0  0
 25 29  1  0  0  0
 22 20  1  0  0  0
  3  5  1  0  0  0
  3  2  1  0  0  0
 20 19  1  0  0  0
 24 23  1  0  0  0
 19 18  1  0  0  0
 18 17  1  0  0  0
 27 28  1  0  0  0
 17 16  1  0  0  0
 29 30  1  0  0  0
 16 15  1  0  0  0
 34 35  1  0  0  0
 34 36  1  0  0  0
 15 14  1  0  0  0
 31 32  1  0  0  0
 31 33  1  0  0  0
 14 13  1  0  0  0
 37  1  1  0  0  0
 37 39  1  0  0  0
 13 12  1  0  0  0
 38 39  2  0  0  0
 12 11  1  0  0  0
 11 10  1  0  0  0
 10  9  1  0  0  0
  9  8  1  0  0  0
  8  7  1  0  0  0
  7  6  1  0  0  0
  6  5  1  0  0  0
  2  1  1  0  0  0
  1 23  1  0  0  0
 30 32  1  0  0  0
 32 35  1  0  0  0
 39 40  1  0  0  0
 40 41  1  0  0  0
 41 42  1  0  0  0
 42 43  1  0  0  0
 43 44  1  0  0  0
 44 45  1  0  0  0
 45 46  1  0  0  0
 46 47  1  0  0  0
 47 48  2  0  0  0
 48 49  1  0  0  0
 49 50  1  0  0  0
 50 51  1  0  0  0
 51 52  1  0  0  0
 52 53  1  0  0  0
 53 54  1  0  0  0
 54 55  1  0  0  0
 55 56  1  0  0  0
M  CHG 1  26  -1
M  END
> <minimizedAffinity>
-7.62573

> <CNNscore>
0.3438538611

> <CNNaffinity>
7.0071363449

> <CNN_VS>
2.4094309807

> <CNNaffinity_variance>
1.1615546942

$$$$
/media/chris/experiments/cd1a-new-docking/inputs/ligands/7sh4_ligand.pdb


 56 55  0  0  0  0  0  0  0  0999 V2000
  -41.9813   59.4827   64.7960 C   0  0  0  0  0  0  0  0  0  0  0  0
  -42.1879   60.8440   64.1945 C   0  0  0  0  0  0  0  0  0  0  0  0
  -42.7930   60.5714   62.9129 O   0  0  0  0  0  0  0  0  0  0  0  0
  -42.7744   62.2316   61.4154 O   0  0  0  0  0  0  0  0  0  0  0  0
  -42.2975   61.2223   61.8601 C   0  0  0  0  0  0  0  0  0  0  0  0
  -41.0118   60.6020   61.3944 C   0  0  0  0  0  0  0  0  0  0  0  0
  -40.9460   60.3612   59.8958 C   0  0  0  0  0  0  0  0  0  0  0  0
  -40.8361   58.8930   59.5422 C   0  0  0  0  0  0  0  0  0  0  0  0
  -39.4614   58.4692   59.0771 C   0  0  0  0  0  0  0  0  0  0  0  0
  -38.4423   58.4285   60.1976 C   0  0  0  0  0  0  0  0  0  0  0  0
  -38.8625   57.5509   61.3512 C   0  0  0  0  0  0  0  0  0  0  0  0
  -37.7762   57.3685   62.3780 C   0  0  0  0  0  0  0  0  0  0  0  0
  -36.5992   58.2974   62.1781 C   0  0  0  0  0  0  0  0  0  0  0  0
  -35.3058   57.7297   62.7269 C   0  0  0  0  0  0  0  0  0  0  0  0
  -35.0407   58.0842   64.1751 C   0  0  0  0  0  0  0  0  0  0  0  0
  -33.6031   58.5094   64.4519 C   0  0  0  0  0  0  0  0  0  0  0  0
  -32.6688   58.3285   63.2710 C   0  0  0  0  0  0  0  0  0  0  0  0
  -31.6819   59.4659   63.1045 C   0  0  0  0  0  0  0  0  0  0  0  0
  -32.0723   60.4585   62.0184 C   0  0  0  0  0  0  0  0  0  0  0  0
  -30.8837   61.0690   61.2974 C   0  0  0  0  0  0  0  0  0  0  0  0
  -32.2871   63.1476   61.5119 C   0  0  0  0  0  0  0  0  0  0  0  0
  -30.9305   62.5792   61.1624 C   0  0  0  0  0  0  0  0  0  0  0  0
  -40.5758   58.9795   64.5886 C   0  0  0  0  0  0  0  0  0  0  0  0
  -39.7140   60.1065   64.3136 O   0  0  0  0  0  0  0  0  0  0  0  0
  -38.3533   60.3734   65.1131 P   0  0  0  0  0  0  0  0  0  0  0  0
  -38.5929   61.4755   66.0696 O   0  0  0  0  0  0  0  0  0  0  0  0
  -37.8603   59.0747   65.6315 O   0  0  0  0  0  0  0  0  0  0  0  0
  -38.4768   58.7387   66.3009 H   0  0  0  0  0  0  0  0  0  0  0  0
  -37.3149   60.8901   64.0188 O   0  0  0  0  0  0  0  0  0  0  0  0
  -37.6211   62.0562   63.2273 C   0  0  0  0  0  0  0  0  0  0  0  0
  -36.2988   63.4664   61.8114 O   0  0  0  0  0  0  0  0  0  0  0  0
  -36.3754   62.9013   63.1235 C   0  0  0  0  0  0  0  0  0  0  0  0
  -36.3265   62.7562   61.1512 H   0  0  0  0  0  0  0  0  0  0  0  0
  -36.4326   63.4454   65.4727 O   0  0  0  0  0  0  0  0  0  0  0  0
  -36.3333   63.9939   64.1648 C   0  0  0  0  0  0  0  0  0  0  0  0
  -36.4038   64.1614   66.1266 H   0  0  0  0  0  0  0  0  0  0  0  0
  -42.9740   58.5690   64.2219 O   0  0  0  0  0  0  0  0  0  0  0  0
  -42.9954   56.3551   64.6197 O   0  0  0  0  0  0  0  0  0  0  0  0
  -43.2852   57.4746   64.9427 C   0  0  0  0  0  0  0  0  0  0  0  0
  -44.0183   57.8222   66.2012 C   0  0  0  0  0  0  0  0  0  0  0  0
  -45.5189   57.9475   65.9574 C   0  0  0  0  0  0  0  0  0  0  0  0
  -46.0140   59.3827   65.8863 C   0  0  0  0  0  0  0  0  0  0  0  0
  -46.7164   59.7212   64.5764 C   0  0  0  0  0  0  0  0  0  0  0  0
  -48.0461   60.4301   64.7546 C   0  0  0  0  0  0  0  0  0  0  0  0
  -48.8540   59.9716   65.9720 C   0  0  0  0  0  0  0  0  0  0  0  0
  -50.2439   59.4134   65.6590 C   0  0  0  0  0  0  0  0  0  0  0  0
  -50.9800   60.2569   64.6616 C   0  0  0  0  0  0  0  0  0  0  0  0
  -51.3108   59.9136   63.4318 C   0  0  0  0  0  0  0  0  0  0  0  0
  -51.0196   58.6025   62.7728 C   0  0  0  0  0  0  0  0  0  0  0  0
  -49.6519   58.5817   62.0963 C   0  0  0  0  0  0  0  0  0  0  0  0
  -49.5237   59.5698   60.9503 C   0  0  0  0  0  0  0  0  0  0  0  0
  -49.3560   58.9104   59.5923 C   0  0  0  0  0  0  0  0  0  0  0  0
  -48.9719   57.4412   59.6489 C   0  0  0  0  0  0  0  0  0  0  0  0
  -47.6185   57.1444   59.0213 C   0  0  0  0  0  0  0  0  0  0  0  0
  -47.5926   57.2678   57.5107 C   0  0  0  0  0  0  0  0  0  0  0  0
  -46.7719   58.4345   57.0366 C   0  0  0  0  0  0  0  0  0  0  0  0
 21 22  1  0  0  0
  4  5  2  0  0  0
 25 24  1  0  0  0
 25 26  2  0  0  0
 25 27  1  0  0  0
 25 29  1  0  0  0
 22 20  1  0  0  0
  3  5  1  0  0  0
  3  2  1  0  0  0
 20 19  1  0  0  0
 24 23  1  0  0  0
 19 18  1  0  0  0
 18 17  1  0  0  0
 27 28  1  0  0  0
 17 16  1  0  0  0
 29 30  1  0  0  0
 16 15  1  0  0  0
 34 35  1  0  0  0
 34 36  1  0  0  0
 15 14  1  0  0  0
 31 32  1  0  0  0
 31 33  1  0  0  0
 14 13  1  0  0  0
 37  1  1  0  0  0
 37 39  1  0  0  0
 13 12  1  0  0  0
 38 39  2  0  0  0
 12 11  1  0  0  0
 11 10  1  0  0  0
 10  9  1  0  0  0
  9  8  1  0  0  0
  8  7  1  0  0  0
  7  6  1  0  0  0
  6  5  1  0  0  0
  2  1  1  0  0  0
  1 23  1  0  0  0
 30 32  1  0  0  0
 32 35  1  0  0  0
 39 40  1  0  0  0
 40 41  1  0  0  0
 41 42  1  0  0  0
 42 43  1  0  0  0
 43 44  1  0  0  0
 44 45  1  0  0  0
 45 46  1  0  0  0
 46 47  1  0  0  0
 47 48  2  0  0  0
 48 49  1  0  0  0
 49 50  1  0  0  0
 50 51  1  0  0  0
 51 52  1  0  0  0
 52 53  1  0  0  0
 53 54  1  0  0  0
 54 55  1  0  0  0
 55 56  1  0  0  0
M  CHG 1  26  -1
M  END
> <minimizedAffinity>
-8.74487

> <CNNscore>
0.2995485365

> <CNNaffinity>
7.0456781387

> <CNN_VS>
2.1105225086

> <CNNaffinity_variance>
1.2998765707

$$$$
/media/chris/experiments/cd1a-new-docking/inputs/ligands/7sh4_ligand.pdb


 56 55  0  0  0  0  0  0  0  0999 V2000
  -43.2487   58.1055   65.1489 C   0  0  0  0  0  0  0  0  0  0  0  0
  -44.1881   59.2573   64.9284 C   0  0  0  0  0  0  0  0  0  0  0  0
  -44.9864   59.2919   66.1303 O   0  0  0  0  0  0  0  0  0  0  0  0
  -46.0675   57.6186   67.1456 O   0  0  0  0  0  0  0  0  0  0  0  0
  -45.9650   58.3920   66.2317 C   0  0  0  0  0  0  0  0  0  0  0  0
  -46.9734   58.5605   65.1318 C   0  0  0  0  0  0  0  0  0  0  0  0
  -47.1960   60.0028   64.7096 C   0  0  0  0  0  0  0  0  0  0  0  0
  -48.4074   60.6266   65.3702 C   0  0  0  0  0  0  0  0  0  0  0  0
  -49.2791   59.6442   66.1190 C   0  0  0  0  0  0  0  0  0  0  0  0
  -50.5384   59.2723   65.3628 C   0  0  0  0  0  0  0  0  0  0  0  0
  -51.1182   60.4202   64.5732 C   0  0  0  0  0  0  0  0  0  0  0  0
  -51.4669   60.0440   63.1574 C   0  0  0  0  0  0  0  0  0  0  0  0
  -50.3590   59.3018   62.4433 C   0  0  0  0  0  0  0  0  0  0  0  0
  -49.8982   60.0081   61.1844 C   0  0  0  0  0  0  0  0  0  0  0  0
  -49.2450   59.0953   60.1676 C   0  0  0  0  0  0  0  0  0  0  0  0
  -50.0222   57.8105   59.9044 C   0  0  0  0  0  0  0  0  0  0  0  0
  -49.3058   56.5531   60.3584 C   0  0  0  0  0  0  0  0  0  0  0  0
  -48.1072   56.2004   59.5015 C   0  0  0  0  0  0  0  0  0  0  0  0
  -48.4126   56.1636   58.0106 C   0  0  0  0  0  0  0  0  0  0  0  0
  -47.1868   56.3508   57.1344 C   0  0  0  0  0  0  0  0  0  0  0  0
  -47.1683   58.8679   57.1319 C   0  0  0  0  0  0  0  0  0  0  0  0
  -46.3866   57.6068   57.4225 C   0  0  0  0  0  0  0  0  0  0  0  0
  -42.1118   58.4702   66.0688 C   0  0  0  0  0  0  0  0  0  0  0  0
  -41.5599   59.7372   65.6465 O   0  0  0  0  0  0  0  0  0  0  0  0
  -40.1007   59.8765   65.0035 P   0  0  0  0  0  0  0  0  0  0  0  0
  -39.5489   61.1898   65.4007 O   0  0  0  0  0  0  0  0  0  0  0  0
  -39.3324   58.6518   65.3327 O   0  0  0  0  0  0  0  0  0  0  0  0
  -39.1769   58.6152   66.2895 H   0  0  0  0  0  0  0  0  0  0  0  0
  -40.3346   59.8990   63.4263 O   0  0  0  0  0  0  0  0  0  0  0  0
  -40.6478   61.1395   62.7608 C   0  0  0  0  0  0  0  0  0  0  0  0
  -42.3693   62.1893   64.0557 O   0  0  0  0  0  0  0  0  0  0  0  0
  -42.1299   61.3898   62.8937 C   0  0  0  0  0  0  0  0  0  0  0  0
  -41.9916   61.7501   64.8338 H   0  0  0  0  0  0  0  0  0  0  0  0
  -41.9228   61.7799   60.5223 O   0  0  0  0  0  0  0  0  0  0  0  0
  -42.7118   62.0591   61.6717 C   0  0  0  0  0  0  0  0  0  0  0  0
  -42.3118   62.2176   59.7490 H   0  0  0  0  0  0  0  0  0  0  0  0
  -42.7635   57.6491   63.8427 O   0  0  0  0  0  0  0  0  0  0  0  0
  -42.2463   55.5706   64.5300 O   0  0  0  0  0  0  0  0  0  0  0  0
  -42.0324   56.5181   63.8242 C   0  0  0  0  0  0  0  0  0  0  0  0
  -40.9347   56.5768   62.8075 C   0  0  0  0  0  0  0  0  0  0  0  0
  -41.2766   55.7561   61.5679 C   0  0  0  0  0  0  0  0  0  0  0  0
  -41.3658   56.5760   60.2913 C   0  0  0  0  0  0  0  0  0  0  0  0
  -41.3336   58.0813   60.5298 C   0  0  0  0  0  0  0  0  0  0  0  0
  -40.5559   58.8555   59.4818 C   0  0  0  0  0  0  0  0  0  0  0  0
  -39.0968   58.4194   59.3205 C   0  0  0  0  0  0  0  0  0  0  0  0
  -38.1677   58.8147   60.4702 C   0  0  0  0  0  0  0  0  0  0  0  0
  -37.9962   57.7059   61.4647 C   0  0  0  0  0  0  0  0  0  0  0  0
  -37.3026   57.7539   62.5856 C   0  0  0  0  0  0  0  0  0  0  0  0
  -36.5393   58.9326   63.1015 C   0  0  0  0  0  0  0  0  0  0  0  0
  -35.1518   58.5510   63.6093 C   0  0  0  0  0  0  0  0  0  0  0  0
  -34.1653   58.2261   62.5015 C   0  0  0  0  0  0  0  0  0  0  0  0
  -32.7342   58.0695   62.9858 C   0  0  0  0  0  0  0  0  0  0  0  0
  -32.0429   59.3757   63.3398 C   0  0  0  0  0  0  0  0  0  0  0  0
  -31.6691   60.2117   62.1253 C   0  0  0  0  0  0  0  0  0  0  0  0
  -32.2418   61.6151   62.1358 C   0  0  0  0  0  0  0  0  0  0  0  0
  -33.2038   61.8421   63.2683 C   0  0  0  0  0  0  0  0  0  0  0  0
 21 22  1  0  0  0
  4  5  2  0  0  0
 25 24  1  0  0  0
 25 26  2  0  0  0
 25 27  1  0  0  0
 25 29  1  0  0  0
 22 20  1  0  0  0
  3  5  1  0  0  0
  3  2  1  0  0  0
 20 19  1  0  0  0
 24 23  1  0  0  0
 19 18  1  0  0  0
 18 17  1  0  0  0
 27 28  1  0  0  0
 17 16  1  0  0  0
 29 30  1  0  0  0
 16 15  1  0  0  0
 34 35  1  0  0  0
 34 36  1  0  0  0
 15 14  1  0  0  0
 31 32  1  0  0  0
 31 33  1  0  0  0
 14 13  1  0  0  0
 37  1  1  0  0  0
 37 39  1  0  0  0
 13 12  1  0  0  0
 38 39  2  0  0  0
 12 11  1  0  0  0
 11 10  1  0  0  0
 10  9  1  0  0  0
  9  8  1  0  0  0
  8  7  1  0  0  0
  7  6  1  0  0  0
  6  5  1  0  0  0
  2  1  1  0  0  0
  1 23  1  0  0  0
 30 32  1  0  0  0
 32 35  1  0  0  0
 39 40  1  0  0  0
 40 41  1  0  0  0
 41 42  1  0  0  0
 42 43  1  0  0  0
 43 44  1  0  0  0
 44 45  1  0  0  0
 45 46  1  0  0  0
 46 47  1  0  0  0
 47 48  2  0  0  0
 48 49  1  0  0  0
 49 50  1  0  0  0
 50 51  1  0  0  0
 51 52  1  0  0  0
 52 53  1  0  0  0
 53 54  1  0  0  0
 54 55  1  0  0  0
 55 56  1  0  0  0
M  CHG 1  26  -1
M  END
> <minimizedAffinity>
-8.41781

> <CNNscore>
0.2708193660

> <CNNaffinity>
7.1925225258

> <CNN_VS>
1.9478744268

> <CNNaffinity_variance>
1.8287206888

$$$$
/media/chris/experiments/cd1a-new-docking/inputs/ligands/7sh4_ligand.pdb


 56 55  0  0  0  0  0  0  0  0999 V2000
  -39.5204   57.2066   61.7459 C   0  0  0  0  0  0  0  0  0  0  0  0
  -40.5987   56.2632   62.1985 C   0  0  0  0  0  0  0  0  0  0  0  0
  -41.0494   56.8226   63.4503 O   0  0  0  0  0  0  0  0  0  0  0  0
  -42.8683   57.8837   62.6988 O   0  0  0  0  0  0  0  0  0  0  0  0
  -42.3281   57.1935   63.5208 C   0  0  0  0  0  0  0  0  0  0  0  0
  -43.0204   56.5373   64.6805 C   0  0  0  0  0  0  0  0  0  0  0  0
  -43.3593   57.4854   65.8182 C   0  0  0  0  0  0  0  0  0  0  0  0
  -44.8496   57.6027   66.0594 C   0  0  0  0  0  0  0  0  0  0  0  0
  -45.5440   58.6076   65.1684 C   0  0  0  0  0  0  0  0  0  0  0  0
  -46.1472   59.7654   65.9376 C   0  0  0  0  0  0  0  0  0  0  0  0
  -47.6546   59.7199   65.9941 C   0  0  0  0  0  0  0  0  0  0  0  0
  -48.2506   58.7360   65.0224 C   0  0  0  0  0  0  0  0  0  0  0  0
  -49.7223   58.4769   65.2573 C   0  0  0  0  0  0  0  0  0  0  0  0
  -50.5930   59.6556   64.8718 C   0  0  0  0  0  0  0  0  0  0  0  0
  -50.3873   60.1372   63.4508 C   0  0  0  0  0  0  0  0  0  0  0  0
  -50.8784   59.1573   62.3912 C   0  0  0  0  0  0  0  0  0  0  0  0
  -49.7664   58.5060   61.5916 C   0  0  0  0  0  0  0  0  0  0  0  0
  -49.4450   59.2350   60.3029 C   0  0  0  0  0  0  0  0  0  0  0  0
  -49.3461   58.3183   59.0916 C   0  0  0  0  0  0  0  0  0  0  0  0
  -47.9911   58.3590   58.4078 C   0  0  0  0  0  0  0  0  0  0  0  0
  -47.2732   56.1663   57.4014 C   0  0  0  0  0  0  0  0  0  0  0  0
  -47.8914   57.5222   57.1464 C   0  0  0  0  0  0  0  0  0  0  0  0
  -39.0726   58.1272   62.8522 C   0  0  0  0  0  0  0  0  0  0  0  0
  -37.6900   57.8434   63.1624 O   0  0  0  0  0  0  0  0  0  0  0  0
  -36.4994   58.8588   62.8257 P   0  0  0  0  0  0  0  0  0  0  0  0
  -35.6723   58.2567   61.7579 O   0  0  0  0  0  0  0  0  0  0  0  0
  -37.0876   60.2011   62.5998 O   0  0  0  0  0  0  0  0  0  0  0  0
  -37.6313   60.1848   61.7966 H   0  0  0  0  0  0  0  0  0  0  0  0
  -35.6157   58.9280   64.1512 O   0  0  0  0  0  0  0  0  0  0  0  0
  -34.6205   59.9608   64.3019 C   0  0  0  0  0  0  0  0  0  0  0  0
  -33.4941   58.1387   65.3758 O   0  0  0  0  0  0  0  0  0  0  0  0
  -33.2892   59.3033   64.5705 C   0  0  0  0  0  0  0  0  0  0  0  0
  -33.9613   58.3860   66.1891 H   0  0  0  0  0  0  0  0  0  0  0  0
  -33.0926   59.6539   62.1920 O   0  0  0  0  0  0  0  0  0  0  0  0
  -32.5622   58.9363   63.2989 C   0  0  0  0  0  0  0  0  0  0  0  0
  -32.6137   59.4052   61.3860 H   0  0  0  0  0  0  0  0  0  0  0  0
  -40.0180   57.9545   60.5871 O   0  0  0  0  0  0  0  0  0  0  0  0
  -38.1166   58.4956   59.5137 O   0  0  0  0  0  0  0  0  0  0  0  0
  -39.1637   58.8179   60.0050 C   0  0  0  0  0  0  0  0  0  0  0  0
  -39.6835   60.2219   60.0279 C   0  0  0  0  0  0  0  0  0  0  0  0
  -41.1577   60.2658   60.4174 C   0  0  0  0  0  0  0  0  0  0  0  0
  -41.4292   60.9995   61.7205 C   0  0  0  0  0  0  0  0  0  0  0  0
  -42.6043   61.9675   61.6418 C   0  0  0  0  0  0  0  0  0  0  0  0
  -43.4607   62.0013   62.8939 C   0  0  0  0  0  0  0  0  0  0  0  0
  -43.0290   61.0200   63.9873 C   0  0  0  0  0  0  0  0  0  0  0  0
  -42.8191   61.6378   65.3714 C   0  0  0  0  0  0  0  0  0  0  0  0
  -42.1980   60.6702   66.3337 C   0  0  0  0  0  0  0  0  0  0  0  0
  -40.9410   60.2712   66.3480 C   0  0  0  0  0  0  0  0  0  0  0  0
  -39.8664   60.7051   65.4018 C   0  0  0  0  0  0  0  0  0  0  0  0
  -38.4833   60.2243   65.8313 C   0  0  0  0  0  0  0  0  0  0  0  0
  -37.5533   61.3464   66.2582 C   0  0  0  0  0  0  0  0  0  0  0  0
  -37.1214   62.2487   65.1152 C   0  0  0  0  0  0  0  0  0  0  0  0
  -36.3948   63.5108   65.5493 C   0  0  0  0  0  0  0  0  0  0  0  0
  -35.0297   63.6777   64.8994 C   0  0  0  0  0  0  0  0  0  0  0  0
  -35.0800   63.9737   63.4136 C   0  0  0  0  0  0  0  0  0  0  0  0
  -36.2391   64.8526   63.0347 C   0  0  0  0  0  0  0  0  0  0  0  0
 21 22  1  0  0  0
  4  5  2  0  0  0
 25 24  1  0  0  0
 25 26  2  0  0  0
 25 27  1  0  0  0
 25 29  1  0  0  0
 22 20  1  0  0  0
  3  5  1  0  0  0
  3  2  1  0  0  0
 20 19  1  0  0  0
 24 23  1  0  0  0
 19 18  1  0  0  0
 18 17  1  0  0  0
 27 28  1  0  0  0
 17 16  1  0  0  0
 29 30  1  0  0  0
 16 15  1  0  0  0
 34 35  1  0  0  0
 34 36  1  0  0  0
 15 14  1  0  0  0
 31 32  1  0  0  0
 31 33  1  0  0  0
 14 13  1  0  0  0
 37  1  1  0  0  0
 37 39  1  0  0  0
 13 12  1  0  0  0
 38 39  2  0  0  0
 12 11  1  0  0  0
 11 10  1  0  0  0
 10  9  1  0  0  0
  9  8  1  0  0  0
  8  7  1  0  0  0
  7  6  1  0  0  0
  6  5  1  0  0  0
  2  1  1  0  0  0
  1 23  1  0  0  0
 30 32  1  0  0  0
 32 35  1  0  0  0
 39 40  1  0  0  0
 40 41  1  0  0  0
 41 42  1  0  0  0
 42 43  1  0  0  0
 43 44  1  0  0  0
 44 45  1  0  0  0
 45 46  1  0  0  0
 46 47  1  0  0  0
 47 48  2  0  0  0
 48 49  1  0  0  0
 49 50  1  0  0  0
 50 51  1  0  0  0
 51 52  1  0  0  0
 52 53  1  0  0  0
 53 54  1  0  0  0
 54 55  1  0  0  0
 55 56  1  0  0  0
M  CHG 1  26  -1
M  END
> <minimizedAffinity>
-7.77839

> <CNNscore>
0.2645846009

> <CNNaffinity>
7.2936005592

> <CNN_VS>
1.9297744036

> <CNNaffinity_variance>
1.3397048712

$$$$
/media/chris/experiments/cd1a-new-docking/inputs/ligands/7sh4_ligand.pdb


 56 55  0  0  0  0  0  0  0  0999 V2000
  -39.0342   60.3470   61.1296 C   0  0  0  0  0  0  0  0  0  0  0  0
  -38.9352   59.0143   60.4428 C   0  0  0  0  0  0  0  0  0  0  0  0
  -39.9818   58.2289   61.0518 O   0  0  0  0  0  0  0  0  0  0  0  0
  -38.4761   56.7488   61.7874 O   0  0  0  0  0  0  0  0  0  0  0  0
  -39.6193   57.0826   61.6283 C   0  0  0  0  0  0  0  0  0  0  0  0
  -40.8127   56.3393   62.1557 C   0  0  0  0  0  0  0  0  0  0  0  0
  -42.0133   57.2223   62.4507 C   0  0  0  0  0  0  0  0  0  0  0  0
  -42.3106   57.3321   63.9314 C   0  0  0  0  0  0  0  0  0  0  0  0
  -43.7672   57.5768   64.2541 C   0  0  0  0  0  0  0  0  0  0  0  0
  -44.0539   57.5742   65.7419 C   0  0  0  0  0  0  0  0  0  0  0  0
  -45.5136   57.3686   66.0653 C   0  0  0  0  0  0  0  0  0  0  0  0
  -46.0140   58.2950   67.1419 C   0  0  0  0  0  0  0  0  0  0  0  0
  -46.7409   59.5064   66.6012 C   0  0  0  0  0  0  0  0  0  0  0  0
  -47.3363   59.2672   65.2284 C   0  0  0  0  0  0  0  0  0  0  0  0
  -47.3218   60.4848   64.3280 C   0  0  0  0  0  0  0  0  0  0  0  0
  -48.7053   61.0612   64.0492 C   0  0  0  0  0  0  0  0  0  0  0  0
  -49.8386   60.2767   64.6821 C   0  0  0  0  0  0  0  0  0  0  0  0
  -51.1569   60.4272   63.9507 C   0  0  0  0  0  0  0  0  0  0  0  0
  -51.4195   59.3257   62.9333 C   0  0  0  0  0  0  0  0  0  0  0  0
  -50.3053   58.2977   62.8494 C   0  0  0  0  0  0  0  0  0  0  0  0
  -49.5685   59.2341   60.6321 C   0  0  0  0  0  0  0  0  0  0  0  0
  -49.8347   57.9852   61.4416 C   0  0  0  0  0  0  0  0  0  0  0  0
  -37.9953   60.5057   62.2099 C   0  0  0  0  0  0  0  0  0  0  0  0
  -38.1164   61.8276   62.7812 O   0  0  0  0  0  0  0  0  0  0  0  0
  -36.9189   62.5487   63.5609 P   0  0  0  0  0  0  0  0  0  0  0  0
  -35.6884   61.7582   63.3420 O   0  0  0  0  0  0  0  0  0  0  0  0
  -36.9206   63.9829   63.1847 O   0  0  0  0  0  0  0  0  0  0  0  0
  -36.6913   64.0713   62.2463 H   0  0  0  0  0  0  0  0  0  0  0  0
  -37.2993   62.4471   65.1061 O   0  0  0  0  0  0  0  0  0  0  0  0
  -36.2597   62.3360   66.0994 C   0  0  0  0  0  0  0  0  0  0  0  0
  -36.3141   63.9658   67.8552 O   0  0  0  0  0  0  0  0  0  0  0  0
  -35.8544   63.7268   66.5217 C   0  0  0  0  0  0  0  0  0  0  0  0
  -37.2731   63.8255   67.8968 H   0  0  0  0  0  0  0  0  0  0  0  0
  -33.7025   63.3089   67.5282 O   0  0  0  0  0  0  0  0  0  0  0  0
  -34.3621   63.9410   66.4387 C   0  0  0  0  0  0  0  0  0  0  0  0
  -32.7465   63.4573   67.4575 H   0  0  0  0  0  0  0  0  0  0  0  0
  -40.3935   60.4932   61.6597 O   0  0  0  0  0  0  0  0  0  0  0  0
  -41.2347   61.0711   59.6552 O   0  0  0  0  0  0  0  0  0  0  0  0
  -41.3041   61.0723   60.8539 C   0  0  0  0  0  0  0  0  0  0  0  0
  -42.4201   61.7005   61.6296 C   0  0  0  0  0  0  0  0  0  0  0  0
  -42.3836   61.2854   63.0970 C   0  0  0  0  0  0  0  0  0  0  0  0
  -43.7309   61.3698   63.7951 C   0  0  0  0  0  0  0  0  0  0  0  0
  -43.6703   61.0323   65.2805 C   0  0  0  0  0  0  0  0  0  0  0  0
  -42.4342   61.5617   65.9836 C   0  0  0  0  0  0  0  0  0  0  0  0
  -41.5113   60.4792   66.5503 C   0  0  0  0  0  0  0  0  0  0  0  0
  -40.1367   60.3813   65.8851 C   0  0  0  0  0  0  0  0  0  0  0  0
  -40.0234   59.1789   64.9967 C   0  0  0  0  0  0  0  0  0  0  0  0
  -38.9397   58.4587   64.7808 C   0  0  0  0  0  0  0  0  0  0  0  0
  -37.5901   58.6926   65.3826 C   0  0  0  0  0  0  0  0  0  0  0  0
  -36.5821   57.6171   64.9878 C   0  0  0  0  0  0  0  0  0  0  0  0
  -35.2528   58.1738   64.5092 C   0  0  0  0  0  0  0  0  0  0  0  0
  -35.1022   58.1785   62.9978 C   0  0  0  0  0  0  0  0  0  0  0  0
  -33.6723   58.3356   62.5080 C   0  0  0  0  0  0  0  0  0  0  0  0
  -32.9144   59.4576   63.2012 C   0  0  0  0  0  0  0  0  0  0  0  0
  -31.4857   59.6302   62.7249 C   0  0  0  0  0  0  0  0  0  0  0  0
  -31.3619   60.6278   61.6074 C   0  0  0  0  0  0  0  0  0  0  0  0
 21 22  1  0  0  0
  4  5  2  0  0  0
 25 24  1  0  0  0
 25 26  2  0  0  0
 25 27  1  0  0  0
 25 29  1  0  0  0
 22 20  1  0  0  0
  3  5  1  0  0  0
  3  2  1  0  0  0
 20 19  1  0  0  0
 24 23  1  0  0  0
 19 18  1  0  0  0
 18 17  1  0  0  0
 27 28  1  0  0  0
 17 16  1  0  0  0
 29 30  1  0  0  0
 16 15  1  0  0  0
 34 35  1  0  0  0
 34 36  1  0  0  0
 15 14  1  0  0  0
 31 32  1  0  0  0
 31 33  1  0  0  0
 14 13  1  0  0  0
 37  1  1  0  0  0
 37 39  1  0  0  0
 13 12  1  0  0  0
 38 39  2  0  0  0
 12 11  1  0  0  0
 11 10  1  0  0  0
 10  9  1  0  0  0
  9  8  1  0  0  0
  8  7  1  0  0  0
  7  6  1  0  0  0
  6  5  1  0  0  0
  2  1  1  0  0  0
  1 23  1  0  0  0
 30 32  1  0  0  0
 32 35  1  0  0  0
 39 40  1  0  0  0
 40 41  1  0  0  0
 41 42  1  0  0  0
 42 43  1  0  0  0
 43 44  1  0  0  0
 44 45  1  0  0  0
 45 46  1  0  0  0
 46 47  1  0  0  0
 47 48  2  0  0  0
 48 49  1  0  0  0
 49 50  1  0  0  0
 50 51  1  0  0  0
 51 52  1  0  0  0
 52 53  1  0  0  0
 53 54  1  0  0  0
 54 55  1  0  0  0
 55 56  1  0  0  0
M  CHG 1  26  -1
M  END
> <minimizedAffinity>
-8.43029

> <CNNscore>
0.2628424168

> <CNNaffinity>
7.1729521751

> <CNN_VS>
1.8853560686

> <CNNaffinity_variance>
2.1646218300

$$$$
/media/chris/experiments/cd1a-new-docking/inputs/ligands/7sh4_ligand.pdb


 56 55  0  0  0  0  0  0  0  0999 V2000
  -38.1972   60.7883   64.8329 C   0  0  0  0  0  0  0  0  0  0  0  0
  -39.1894   60.3769   65.8836 C   0  0  0  0  0  0  0  0  0  0  0  0
  -40.4265   60.9818   65.4516 O   0  0  0  0  0  0  0  0  0  0  0  0
  -42.2948   61.2624   66.6475 O   0  0  0  0  0  0  0  0  0  0  0  0
  -41.5456   60.5507   66.0342 C   0  0  0  0  0  0  0  0  0  0  0  0
  -41.8010   59.1055   65.7163 C   0  0  0  0  0  0  0  0  0  0  0  0
  -42.1688   58.8449   64.2654 C   0  0  0  0  0  0  0  0  0  0  0  0
  -43.6225   58.4593   64.0893 C   0  0  0  0  0  0  0  0  0  0  0  0
  -44.1849   57.6304   65.2217 C   0  0  0  0  0  0  0  0  0  0  0  0
  -45.4655   58.2016   65.7960 C   0  0  0  0  0  0  0  0  0  0  0  0
  -45.6671   59.6598   65.4635 C   0  0  0  0  0  0  0  0  0  0  0  0
  -47.1181   60.0353   65.3188 C   0  0  0  0  0  0  0  0  0  0  0  0
  -47.8179   59.3046   64.1942 C   0  0  0  0  0  0  0  0  0  0  0  0
  -48.7329   60.2063   63.3904 C   0  0  0  0  0  0  0  0  0  0  0  0
  -50.1940   60.1057   63.7759 C   0  0  0  0  0  0  0  0  0  0  0  0
  -51.0910   59.5837   62.6592 C   0  0  0  0  0  0  0  0  0  0  0  0
  -50.8487   58.1295   62.3032 C   0  0  0  0  0  0  0  0  0  0  0  0
  -50.5642   57.9094   60.8314 C   0  0  0  0  0  0  0  0  0  0  0  0
  -49.0817   57.9319   60.4865 C   0  0  0  0  0  0  0  0  0  0  0  0
  -48.7675   58.6811   59.2038 C   0  0  0  0  0  0  0  0  0  0  0  0
  -48.3952   57.2513   57.1658 C   0  0  0  0  0  0  0  0  0  0  0  0
  -47.7488   58.0041   58.3066 C   0  0  0  0  0  0  0  0  0  0  0  0
  -37.0833   61.6280   65.4040 C   0  0  0  0  0  0  0  0  0  0  0  0
  -37.1865   62.9654   64.8663 O   0  0  0  0  0  0  0  0  0  0  0  0
  -35.9650   63.7069   64.1451 P   0  0  0  0  0  0  0  0  0  0  0  0
  -35.1638   62.6860   63.4362 O   0  0  0  0  0  0  0  0  0  0  0  0
  -36.5100   64.8484   63.3714 O   0  0  0  0  0  0  0  0  0  0  0  0
  -37.0582   64.5138   62.6444 H   0  0  0  0  0  0  0  0  0  0  0  0
  -35.0725   64.2979   65.3271 O   0  0  0  0  0  0  0  0  0  0  0  0
  -33.6597   64.0127   65.3763 C   0  0  0  0  0  0  0  0  0  0  0  0
  -33.1129   65.1002   67.4404 O   0  0  0  0  0  0  0  0  0  0  0  0
  -32.9599   65.1841   66.0204 C   0  0  0  0  0  0  0  0  0  0  0  0
  -34.0563   65.0585   67.6621 H   0  0  0  0  0  0  0  0  0  0  0  0
  -30.7296   65.7469   66.7467 O   0  0  0  0  0  0  0  0  0  0  0  0
  -31.4958   65.2500   65.6570 C   0  0  0  0  0  0  0  0  0  0  0  0
  -29.7936   65.7818   66.4946 H   0  0  0  0  0  0  0  0  0  0  0  0
  -38.9176   61.4951   63.7693 O   0  0  0  0  0  0  0  0  0  0  0  0
  -37.6252   61.1256   61.9656 O   0  0  0  0  0  0  0  0  0  0  0  0
  -38.6969   61.0849   62.5056 C   0  0  0  0  0  0  0  0  0  0  0  0
  -39.9414   60.5562   61.8625 C   0  0  0  0  0  0  0  0  0  0  0  0
  -39.7057   60.1996   60.3982 C   0  0  0  0  0  0  0  0  0  0  0  0
  -40.8410   59.4121   59.7651 C   0  0  0  0  0  0  0  0  0  0  0  0
  -41.6330   58.5748   60.7630 C   0  0  0  0  0  0  0  0  0  0  0  0
  -41.3081   57.0933   60.7202 C   0  0  0  0  0  0  0  0  0  0  0  0
  -40.4685   56.5912   61.8983 C   0  0  0  0  0  0  0  0  0  0  0  0
  -38.9830   56.9536   61.8410 C   0  0  0  0  0  0  0  0  0  0  0  0
  -38.4782   57.4771   63.1521 C   0  0  0  0  0  0  0  0  0  0  0  0
  -37.2406   57.8369   63.4324 C   0  0  0  0  0  0  0  0  0  0  0  0
  -36.0763   57.7987   62.4937 C   0  0  0  0  0  0  0  0  0  0  0  0
  -34.7377   57.7859   63.2263 C   0  0  0  0  0  0  0  0  0  0  0  0
  -34.6966   58.7019   64.4368 C   0  0  0  0  0  0  0  0  0  0  0  0
  -33.3703   59.4209   64.6128 C   0  0  0  0  0  0  0  0  0  0  0  0
  -32.8343   60.0718   63.3487 C   0  0  0  0  0  0  0  0  0  0  0  0
  -31.5444   59.4434   62.8439 C   0  0  0  0  0  0  0  0  0  0  0  0
  -30.4773   60.4449   62.4488 C   0  0  0  0  0  0  0  0  0  0  0  0
  -30.7698   61.1193   61.1376 C   0  0  0  0  0  0  0  0  0  0  0  0
 21 22  1  0  0  0
  4  5  2  0  0  0
 25 24  1  0  0  0
 25 26  2  0  0  0
 25 27  1  0  0  0
 25 29  1  0  0  0
 22 20  1  0  0  0
  3  5  1  0  0  0
  3  2  1  0  0  0
 20 19  1  0  0  0
 24 23  1  0  0  0
 19 18  1  0  0  0
 18 17  1  0  0  0
 27 28  1  0  0  0
 17 16  1  0  0  0
 29 30  1  0  0  0
 16 15  1  0  0  0
 34 35  1  0  0  0
 34 36  1  0  0  0
 15 14  1  0  0  0
 31 32  1  0  0  0
 31 33  1  0  0  0
 14 13  1  0  0  0
 37  1  1  0  0  0
 37 39  1  0  0  0
 13 12  1  0  0  0
 38 39  2  0  0  0
 12 11  1  0  0  0
 11 10  1  0  0  0
 10  9  1  0  0  0
  9  8  1  0  0  0
  8  7  1  0  0  0
  7  6  1  0  0  0
  6  5  1  0  0  0
  2  1  1  0  0  0
  1 23  1  0  0  0
 30 32  1  0  0  0
 32 35  1  0  0  0
 39 40  1  0  0  0
 40 41  1  0  0  0
 41 42  1  0  0  0
 42 43  1  0  0  0
 43 44  1  0  0  0
 44 45  1  0  0  0
 45 46  1  0  0  0
 46 47  1  0  0  0
 47 48  2  0  0  0
 48 49  1  0  0  0
 49 50  1  0  0  0
 50 51  1  0  0  0
 51 52  1  0  0  0
 52 53  1  0  0  0
 53 54  1  0  0  0
 54 55  1  0  0  0
 55 56  1  0  0  0
M  CHG 1  26  -1
M  END
> <minimizedAffinity>
-8.30483

> <CNNscore>
0.2448833734

> <CNNaffinity>
7.2210450172

> <CNN_VS>
1.7683138847

> <CNNaffinity_variance>
0.9422037005

$$$$
