/media/chris/experiments/cd1a-new-docking/inputs/ligands/7sh4_ligand.pdb


 56 55  0  0  0  0  0  0  0  0999 V2000
  -40.8218   60.6091   63.6547 C   0  0  0  0  0  0  0  0  0  0  0  0
  -40.9914   59.4224   62.7487 C   0  0  0  0  0  0  0  0  0  0  0  0
  -41.7496   59.9392   61.6346 O   0  0  0  0  0  0  0  0  0  0  0  0
  -40.5420   60.7758   59.9490 O   0  0  0  0  0  0  0  0  0  0  0  0
  -41.1758   59.8768   60.4327 C   0  0  0  0  0  0  0  0  0  0  0  0
  -41.3206   58.5080   59.8326 C   0  0  0  0  0  0  0  0  0  0  0  0
  -40.0110   57.7508   59.6911 C   0  0  0  0  0  0  0  0  0  0  0  0
  -38.8964   58.6074   59.1285 C   0  0  0  0  0  0  0  0  0  0  0  0
  -37.6342   58.6064   59.9607 C   0  0  0  0  0  0  0  0  0  0  0  0
  -37.9042   58.7099   61.4482 C   0  0  0  0  0  0  0  0  0  0  0  0
  -37.4165   57.5117   62.2252 C   0  0  0  0  0  0  0  0  0  0  0  0
  -36.5570   57.8849   63.4040 C   0  0  0  0  0  0  0  0  0  0  0  0
  -35.0929   57.5602   63.2062 C   0  0  0  0  0  0  0  0  0  0  0  0
  -34.1871   58.3610   64.1196 C   0  0  0  0  0  0  0  0  0  0  0  0
  -32.7739   58.5241   63.6004 C   0  0  0  0  0  0  0  0  0  0  0  0
  -32.6697   59.4140   62.3670 C   0  0  0  0  0  0  0  0  0  0  0  0
  -31.9093   60.7051   62.6010 C   0  0  0  0  0  0  0  0  0  0  0  0
  -32.8029   61.8718   62.9691 C   0  0  0  0  0  0  0  0  0  0  0  0
  -32.3499   63.1985   62.3754 C   0  0  0  0  0  0  0  0  0  0  0  0
  -33.4597   63.9605   61.6735 C   0  0  0  0  0  0  0  0  0  0  0  0
  -31.7318   65.5264   60.7257 C   0  0  0  0  0  0  0  0  0  0  0  0
  -33.1175   65.3945   61.3161 C   0  0  0  0  0  0  0  0  0  0  0  0
  -39.4074   60.7388   64.1590 C   0  0  0  0  0  0  0  0  0  0  0  0
  -38.6854   61.6418   63.2920 O   0  0  0  0  0  0  0  0  0  0  0  0
  -37.2634   62.2656   63.6801 P   0  0  0  0  0  0  0  0  0  0  0  0
  -36.2290   61.2396   63.4275 O   0  0  0  0  0  0  0  0  0  0  0  0
  -37.1390   63.5827   63.0103 O   0  0  0  0  0  0  0  0  0  0  0  0
  -37.0972   63.4542   62.0497 H   0  0  0  0  0  0  0  0  0  0  0  0
  -37.3289   62.5202   65.2529 O   0  0  0  0  0  0  0  0  0  0  0  0
  -36.2689   62.0417   66.1059 C   0  0  0  0  0  0  0  0  0  0  0  0
  -35.9366   63.1305   68.2147 O   0  0  0  0  0  0  0  0  0  0  0  0
  -35.6577   63.2254   66.8146 C   0  0  0  0  0  0  0  0  0  0  0  0
  -36.8949   63.0661   68.3498 H   0  0  0  0  0  0  0  0  0  0  0  0
  -33.4714   63.3637   67.8243 O   0  0  0  0  0  0  0  0  0  0  0  0
  -34.1687   63.3265   66.5857 C   0  0  0  0  0  0  0  0  0  0  0  0
  -32.5182   63.4285   67.6569 H   0  0  0  0  0  0  0  0  0  0  0  0
  -41.7811   60.4890   64.7571 O   0  0  0  0  0  0  0  0  0  0  0  0
  -42.8060   62.4491   64.3478 O   0  0  0  0  0  0  0  0  0  0  0  0
  -42.8469   61.3121   64.7315 C   0  0  0  0  0  0  0  0  0  0  0  0
  -44.0898   60.6351   65.2202 C   0  0  0  0  0  0  0  0  0  0  0  0
  -43.8622   59.1437   65.4453 C   0  0  0  0  0  0  0  0  0  0  0  0
  -45.1030   58.2920   65.2334 C   0  0  0  0  0  0  0  0  0  0  0  0
  -46.2829   58.7058   66.1055 C   0  0  0  0  0  0  0  0  0  0  0  0
  -47.6125   58.7278   65.3746 C   0  0  0  0  0  0  0  0  0  0  0  0
  -47.5656   59.3736   63.9869 C   0  0  0  0  0  0  0  0  0  0  0  0
  -48.3935   60.6514   63.8346 C   0  0  0  0  0  0  0  0  0  0  0  0
  -49.6662   60.5976   64.6254 C   0  0  0  0  0  0  0  0  0  0  0  0
  -50.8470   60.2021   64.1910 C   0  0  0  0  0  0  0  0  0  0  0  0
  -51.1637   59.7205   62.8105 C   0  0  0  0  0  0  0  0  0  0  0  0
  -50.7945   58.2540   62.6064 C   0  0  0  0  0  0  0  0  0  0  0  0
  -50.7693   57.8290   61.1487 C   0  0  0  0  0  0  0  0  0  0  0  0
  -49.7616   58.5936   60.3078 C   0  0  0  0  0  0  0  0  0  0  0  0
  -48.4318   57.8829   60.1180 C   0  0  0  0  0  0  0  0  0  0  0  0
  -48.4926   56.7426   59.1132 C   0  0  0  0  0  0  0  0  0  0  0  0
  -48.3042   57.1727   57.6718 C   0  0  0  0  0  0  0  0  0  0  0  0
  -47.2361   58.2182   57.5118 C   0  0  0  0  0  0  0  0  0  0  0  0
 21 22  1  0  0  0
  4  5  2  0  0  0
 25 24  1  0  0  0
 25 26  2  0  0  0
 25 27  1  0  0  0
 25 29  1  0  0  0
 22 20  1  0  0  0
  3  5  1  0  0  0
  3  2  1  0  0  0
 20 19  1  0  0  0
 24 23  1  0  0  0
 19 18  1  0  0  0
 18 17  1  0  0  0
 27 28  1  0  0  0
 17 16  1  0  0  0
 29 30  1  0  0  0
 16 15  1  0  0  0
 34 35  1  0  0  0
 34 36  1  0  0  0
 15 14  1  0  0  0
 31 32  1  0  0  0
 31 33  1  0  0  0
 14 13  1  0  0  0
 37  1  1  0  0  0
 37 39  1  0  0  0
 13 12  1  0  0  0
 38 39  2  0  0  0
 12 11  1  0  0  0
 11 10  1  0  0  0
 10  9  1  0  0  0
  9  8  1  0  0  0
  8  7  1  0  0  0
  7  6  1  0  0  0
  6  5  1  0  0  0
  2  1  1  0  0  0
  1 23  1  0  0  0
 30 32  1  0  0  0
 32 35  1  0  0  0
 39 40  1  0  0  0
 40 41  1  0  0  0
 41 42  1  0  0  0
 42 43  1  0  0  0
 43 44  1  0  0  0
 44 45  1  0  0  0
 45 46  1  0  0  0
 46 47  1  0  0  0
 47 48  2  0  0  0
 48 49  1  0  0  0
 49 50  1  0  0  0
 50 51  1  0  0  0
 51 52  1  0  0  0
 52 53  1  0  0  0
 53 54  1  0  0  0
 54 55  1  0  0  0
 55 56  1  0  0  0
M  CHG 1  26  -1
M  END
> <minimizedAffinity>
-8.53087

> <CNNscore>
0.5712152719

> <CNNaffinity>
7.3670759201

> <CNN_VS>
4.2081861496

> <CNNaffinity_variance>
0.7141949534

$$$$
/media/chris/experiments/cd1a-new-docking/inputs/ligands/7sh4_ligand.pdb


 56 55  0  0  0  0  0  0  0  0999 V2000
  -40.4058   59.7094   64.5957 C   0  0  0  0  0  0  0  0  0  0  0  0
  -40.3279   58.2090   64.6127 C   0  0  0  0  0  0  0  0  0  0  0  0
  -41.4739   57.8086   65.3933 O   0  0  0  0  0  0  0  0  0  0  0  0
  -41.7945   55.7559   64.5668 O   0  0  0  0  0  0  0  0  0  0  0  0
  -42.2279   56.8262   64.8992 C   0  0  0  0  0  0  0  0  0  0  0  0
  -43.6844   57.1899   64.9342 C   0  0  0  0  0  0  0  0  0  0  0  0
  -44.1060   57.9429   66.1846 C   0  0  0  0  0  0  0  0  0  0  0  0
  -45.4985   57.5731   66.6501 C   0  0  0  0  0  0  0  0  0  0  0  0
  -46.3819   58.7591   66.9646 C   0  0  0  0  0  0  0  0  0  0  0  0
  -46.3430   59.8287   65.8920 C   0  0  0  0  0  0  0  0  0  0  0  0
  -47.6634   60.0076   65.1834 C   0  0  0  0  0  0  0  0  0  0  0  0
  -48.8167   60.2093   66.1303 C   0  0  0  0  0  0  0  0  0  0  0  0
  -50.0368   59.3896   65.7734 C   0  0  0  0  0  0  0  0  0  0  0  0
  -49.8036   58.4800   64.5842 C   0  0  0  0  0  0  0  0  0  0  0  0
  -50.7442   58.7272   63.4233 C   0  0  0  0  0  0  0  0  0  0  0  0
  -50.6154   60.1176   62.8115 C   0  0  0  0  0  0  0  0  0  0  0  0
  -49.6880   60.1800   61.6131 C   0  0  0  0  0  0  0  0  0  0  0  0
  -49.6418   58.8902   60.8198 C   0  0  0  0  0  0  0  0  0  0  0  0
  -48.9598   59.0305   59.4659 C   0  0  0  0  0  0  0  0  0  0  0  0
  -48.5093   57.7076   58.8725 C   0  0  0  0  0  0  0  0  0  0  0  0
  -47.1108   56.4888   57.1711 C   0  0  0  0  0  0  0  0  0  0  0  0
  -47.6108   57.8305   57.6565 C   0  0  0  0  0  0  0  0  0  0  0  0
  -39.1087   60.3485   65.0210 C   0  0  0  0  0  0  0  0  0  0  0  0
  -38.7121   61.3090   64.0167 O   0  0  0  0  0  0  0  0  0  0  0  0
  -37.3018   62.0652   64.0485 P   0  0  0  0  0  0  0  0  0  0  0  0
  -36.2359   61.0534   63.8849 O   0  0  0  0  0  0  0  0  0  0  0  0
  -37.3631   63.1965   63.0919 O   0  0  0  0  0  0  0  0  0  0  0  0
  -37.4370   62.8520   62.1881 H   0  0  0  0  0  0  0  0  0  0  0  0
  -37.1811   62.6723   65.5181 O   0  0  0  0  0  0  0  0  0  0  0  0
  -35.9022   62.7009   66.1842 C   0  0  0  0  0  0  0  0  0  0  0  0
  -36.2446   64.3065   67.9298 O   0  0  0  0  0  0  0  0  0  0  0  0
  -35.6390   64.1124   66.6482 C   0  0  0  0  0  0  0  0  0  0  0  0
  -37.1908   64.0998   67.8749 H   0  0  0  0  0  0  0  0  0  0  0  0
  -33.5153   63.6016   67.6716 O   0  0  0  0  0  0  0  0  0  0  0  0
  -34.1644   64.4299   66.7154 C   0  0  0  0  0  0  0  0  0  0  0  0
  -32.5706   63.8200   67.7002 H   0  0  0  0  0  0  0  0  0  0  0  0
  -41.5204   60.1234   65.4537 O   0  0  0  0  0  0  0  0  0  0  0  0
  -42.9194   61.8843   65.5004 O   0  0  0  0  0  0  0  0  0  0  0  0
  -42.4289   60.9584   64.9140 C   0  0  0  0  0  0  0  0  0  0  0  0
  -42.7393   60.6057   63.4922 C   0  0  0  0  0  0  0  0  0  0  0  0
  -42.9720   61.8527   62.6451 C   0  0  0  0  0  0  0  0  0  0  0  0
  -42.2441   61.8360   61.3109 C   0  0  0  0  0  0  0  0  0  0  0  0
  -41.3374   60.6246   61.1261 C   0  0  0  0  0  0  0  0  0  0  0  0
  -41.1125   60.2379   59.6761 C   0  0  0  0  0  0  0  0  0  0  0  0
  -41.3070   58.7487   59.3769 C   0  0  0  0  0  0  0  0  0  0  0  0
  -40.1408   57.8449   59.7826 C   0  0  0  0  0  0  0  0  0  0  0  0
  -38.8191   58.3928   59.3347 C   0  0  0  0  0  0  0  0  0  0  0  0
  -37.8518   58.8463   60.1081 C   0  0  0  0  0  0  0  0  0  0  0  0
  -37.8721   58.9072   61.6028 C   0  0  0  0  0  0  0  0  0  0  0  0
  -37.2534   57.6686   62.2445 C   0  0  0  0  0  0  0  0  0  0  0  0
  -36.5527   57.9503   63.5620 C   0  0  0  0  0  0  0  0  0  0  0  0
  -35.0987   57.5116   63.5854 C   0  0  0  0  0  0  0  0  0  0  0  0
  -34.2802   58.1054   64.7199 C   0  0  0  0  0  0  0  0  0  0  0  0
  -33.3084   59.1837   64.2656 C   0  0  0  0  0  0  0  0  0  0  0  0
  -33.0065   59.1635   62.7802 C   0  0  0  0  0  0  0  0  0  0  0  0
  -31.7622   59.9305   62.4292 C   0  0  0  0  0  0  0  0  0  0  0  0
 21 22  1  0  0  0
  4  5  2  0  0  0
 25 24  1  0  0  0
 25 26  2  0  0  0
 25 27  1  0  0  0
 25 29  1  0  0  0
 22 20  1  0  0  0
  3  5  1  0  0  0
  3  2  1  0  0  0
 20 19  1  0  0  0
 24 23  1  0  0  0
 19 18  1  0  0  0
 18 17  1  0  0  0
 27 28  1  0  0  0
 17 16  1  0  0  0
 29 30  1  0  0  0
 16 15  1  0  0  0
 34 35  1  0  0  0
 34 36  1  0  0  0
 15 14  1  0  0  0
 31 32  1  0  0  0
 31 33  1  0  0  0
 14 13  1  0  0  0
 37  1  1  0  0  0
 37 39  1  0  0  0
 13 12  1  0  0  0
 38 39  2  0  0  0
 12 11  1  0  0  0
 11 10  1  0  0  0
 10  9  1  0  0  0
  9  8  1  0  0  0
  8  7  1  0  0  0
  7  6  1  0  0  0
  6  5  1  0  0  0
  2  1  1  0  0  0
  1 23  1  0  0  0
 30 32  1  0  0  0
 32 35  1  0  0  0
 39 40  1  0  0  0
 40 41  1  0  0  0
 41 42  1  0  0  0
 42 43  1  0  0  0
 43 44  1  0  0  0
 44 45  1  0  0  0
 45 46  1  0  0  0
 46 47  1  0  0  0
 47 48  2  0  0  0
 48 49  1  0  0  0
 49 50  1  0  0  0
 50 51  1  0  0  0
 51 52  1  0  0  0
 52 53  1  0  0  0
 53 54  1  0  0  0
 54 55  1  0  0  0
 55 56  1  0  0  0
M  CHG 1  26  -1
M  END
> <minimizedAffinity>
-9.01113

> <CNNscore>
0.5293712020

> <CNNaffinity>
7.6876955032

> <CNN_VS>
4.0696444511

> <CNNaffinity_variance>
1.7766044140

$$$$
/media/chris/experiments/cd1a-new-docking/inputs/ligands/7sh4_ligand.pdb


 56 55  0  0  0  0  0  0  0  0999 V2000
  -41.2318   57.8688   63.8038 C   0  0  0  0  0  0  0  0  0  0  0  0
  -42.0827   58.9772   63.2512 C   0  0  0  0  0  0  0  0  0  0  0  0
  -42.4766   59.7298   64.4181 O   0  0  0  0  0  0  0  0  0  0  0  0
  -43.1541   61.4820   63.2055 O   0  0  0  0  0  0  0  0  0  0  0  0
  -43.2058   60.8269   64.2114 C   0  0  0  0  0  0  0  0  0  0  0  0
  -44.1750   61.0539   65.3356 C   0  0  0  0  0  0  0  0  0  0  0  0
  -44.5871   59.7865   66.0652 C   0  0  0  0  0  0  0  0  0  0  0  0
  -46.0860   59.5721   66.0669 C   0  0  0  0  0  0  0  0  0  0  0  0
  -46.8195   60.3169   64.9747 C   0  0  0  0  0  0  0  0  0  0  0  0
  -47.7529   59.4302   64.1756 C   0  0  0  0  0  0  0  0  0  0  0  0
  -48.3257   58.2909   64.9826 C   0  0  0  0  0  0  0  0  0  0  0  0
  -49.8299   58.3157   65.0502 C   0  0  0  0  0  0  0  0  0  0  0  0
  -50.3967   59.6951   65.3034 C   0  0  0  0  0  0  0  0  0  0  0  0
  -51.1769   60.2333   64.1211 C   0  0  0  0  0  0  0  0  0  0  0  0
  -51.0904   59.3709   62.8794 C   0  0  0  0  0  0  0  0  0  0  0  0
  -50.3363   60.0244   61.7268 C   0  0  0  0  0  0  0  0  0  0  0  0
  -49.4885   59.0600   60.9197 C   0  0  0  0  0  0  0  0  0  0  0  0
  -50.0983   57.6785   60.7986 C   0  0  0  0  0  0  0  0  0  0  0  0
  -49.1828   56.6641   60.1273 C   0  0  0  0  0  0  0  0  0  0  0  0
  -47.9091   57.2719   59.5676 C   0  0  0  0  0  0  0  0  0  0  0  0
  -47.1367   58.1163   57.3256 C   0  0  0  0  0  0  0  0  0  0  0  0
  -47.6234   56.9247   58.1189 C   0  0  0  0  0  0  0  0  0  0  0  0
  -40.3933   58.3262   64.9697 C   0  0  0  0  0  0  0  0  0  0  0  0
  -39.2452   59.0434   64.4639 O   0  0  0  0  0  0  0  0  0  0  0  0
  -39.0238   60.6096   64.7087 P   0  0  0  0  0  0  0  0  0  0  0  0
  -39.3367   61.3186   63.4494 O   0  0  0  0  0  0  0  0  0  0  0  0
  -39.7538   60.9916   65.9417 O   0  0  0  0  0  0  0  0  0  0  0  0
  -40.7080   60.8982   65.7945 H   0  0  0  0  0  0  0  0  0  0  0  0
  -37.4635   60.7766   64.9917 O   0  0  0  0  0  0  0  0  0  0  0  0
  -36.7400   61.8832   64.4152 C   0  0  0  0  0  0  0  0  0  0  0  0
  -36.6494   62.4246   66.7479 O   0  0  0  0  0  0  0  0  0  0  0  0
  -36.6770   62.9933   65.4353 C   0  0  0  0  0  0  0  0  0  0  0  0
  -37.4209   61.8488   66.8670 H   0  0  0  0  0  0  0  0  0  0  0  0
  -34.8128   64.1257   66.4653 O   0  0  0  0  0  0  0  0  0  0  0  0
  -35.4818   63.8934   65.2324 C   0  0  0  0  0  0  0  0  0  0  0  0
  -34.0493   64.7048   66.3148 H   0  0  0  0  0  0  0  0  0  0  0  0
  -40.4039   57.3369   62.7168 O   0  0  0  0  0  0  0  0  0  0  0  0
  -41.0703   55.2670   62.1410 O   0  0  0  0  0  0  0  0  0  0  0  0
  -40.9792   56.4386   61.8946 C   0  0  0  0  0  0  0  0  0  0  0  0
  -41.5070   57.0777   60.6475 C   0  0  0  0  0  0  0  0  0  0  0  0
  -40.3761   57.5724   59.7514 C   0  0  0  0  0  0  0  0  0  0  0  0
  -40.1295   59.0695   59.8402 C   0  0  0  0  0  0  0  0  0  0  0  0
  -38.6665   59.4583   59.6602 C   0  0  0  0  0  0  0  0  0  0  0  0
  -37.6865   58.4666   60.2589 C   0  0  0  0  0  0  0  0  0  0  0  0
  -37.5926   58.5076   61.7868 C   0  0  0  0  0  0  0  0  0  0  0  0
  -36.1753   58.6346   62.3494 C   0  0  0  0  0  0  0  0  0  0  0  0
  -35.9361   57.6974   63.4949 C   0  0  0  0  0  0  0  0  0  0  0  0
  -35.1081   57.8832   64.5046 C   0  0  0  0  0  0  0  0  0  0  0  0
  -34.2310   59.0761   64.7188 C   0  0  0  0  0  0  0  0  0  0  0  0
  -32.7891   58.8236   64.2876 C   0  0  0  0  0  0  0  0  0  0  0  0
  -32.5207   59.1601   62.8313 C   0  0  0  0  0  0  0  0  0  0  0  0
  -31.1634   59.7990   62.5931 C   0  0  0  0  0  0  0  0  0  0  0  0
  -31.1722   61.3186   62.6041 C   0  0  0  0  0  0  0  0  0  0  0  0
  -32.5592   61.9174   62.4270 C   0  0  0  0  0  0  0  0  0  0  0  0
  -32.5836   63.2043   61.6262 C   0  0  0  0  0  0  0  0  0  0  0  0
  -31.2069   63.7149   61.3039 C   0  0  0  0  0  0  0  0  0  0  0  0
 21 22  1  0  0  0
  4  5  2  0  0  0
 25 24  1  0  0  0
 25 26  2  0  0  0
 25 27  1  0  0  0
 25 29  1  0  0  0
 22 20  1  0  0  0
  3  5  1  0  0  0
  3  2  1  0  0  0
 20 19  1  0  0  0
 24 23  1  0  0  0
 19 18  1  0  0  0
 18 17  1  0  0  0
 27 28  1  0  0  0
 17 16  1  0  0  0
 29 30  1  0  0  0
 16 15  1  0  0  0
 34 35  1  0  0  0
 34 36  1  0  0  0
 15 14  1  0  0  0
 31 32  1  0  0  0
 31 33  1  0  0  0
 14 13  1  0  0  0
 37  1  1  0  0  0
 37 39  1  0  0  0
 13 12  1  0  0  0
 38 39  2  0  0  0
 12 11  1  0  0  0
 11 10  1  0  0  0
 10  9  1  0  0  0
  9  8  1  0  0  0
  8  7  1  0  0  0
  7  6  1  0  0  0
  6  5  1  0  0  0
  2  1  1  0  0  0
  1 23  1  0  0  0
 30 32  1  0  0  0
 32 35  1  0  0  0
 39 40  1  0  0  0
 40 41  1  0  0  0
 41 42  1  0  0  0
 42 43  1  0  0  0
 43 44  1  0  0  0
 44 45  1  0  0  0
 45 46  1  0  0  0
 46 47  1  0  0  0
 47 48  2  0  0  0
 48 49  1  0  0  0
 49 50  1  0  0  0
 50 51  1  0  0  0
 51 52  1  0  0  0
 52 53  1  0  0  0
 53 54  1  0  0  0
 54 55  1  0  0  0
 55 56  1  0  0  0
M  CHG 1  26  -1
M  END
> <minimizedAffinity>
-8.21876

> <CNNscore>
0.3503654003

> <CNNaffinity>
7.2272348404

> <CNN_VS>
2.5321729183

> <CNNaffinity_variance>
1.0686674118

$$$$
/media/chris/experiments/cd1a-new-docking/inputs/ligands/7sh4_ligand.pdb


 56 55  0  0  0  0  0  0  0  0999 V2000
  -40.3683   59.0481   65.4136 C   0  0  0  0  0  0  0  0  0  0  0  0
  -40.9275   60.3816   65.8218 C   0  0  0  0  0  0  0  0  0  0  0  0
  -41.2636   61.0171   64.5702 O   0  0  0  0  0  0  0  0  0  0  0  0
  -42.9719   62.2582   65.3056 O   0  0  0  0  0  0  0  0  0  0  0  0
  -42.4833   61.5464   64.4699 C   0  0  0  0  0  0  0  0  0  0  0  0
  -43.1000   61.2395   63.1357 C   0  0  0  0  0  0  0  0  0  0  0  0
  -42.7024   62.2046   62.0316 C   0  0  0  0  0  0  0  0  0  0  0  0
  -42.1012   61.5058   60.8304 C   0  0  0  0  0  0  0  0  0  0  0  0
  -40.7926   60.8034   61.1133 C   0  0  0  0  0  0  0  0  0  0  0  0
  -40.2420   60.0670   59.9089 C   0  0  0  0  0  0  0  0  0  0  0  0
  -41.0915   58.8915   59.4918 C   0  0  0  0  0  0  0  0  0  0  0  0
  -40.4048   57.5671   59.6969 C   0  0  0  0  0  0  0  0  0  0  0  0
  -40.4431   57.0867   61.1307 C   0  0  0  0  0  0  0  0  0  0  0  0
  -39.0751   57.0789   61.7822 C   0  0  0  0  0  0  0  0  0  0  0  0
  -38.0240   57.8601   61.0218 C   0  0  0  0  0  0  0  0  0  0  0  0
  -36.9628   58.4945   61.9136 C   0  0  0  0  0  0  0  0  0  0  0  0
  -36.4773   57.5918   63.0315 C   0  0  0  0  0  0  0  0  0  0  0  0
  -34.9693   57.4569   63.0844 C   0  0  0  0  0  0  0  0  0  0  0  0
  -34.2374   58.4265   62.1669 C   0  0  0  0  0  0  0  0  0  0  0  0
  -33.2617   59.3334   62.8954 C   0  0  0  0  0  0  0  0  0  0  0  0
  -33.2637   58.7156   65.3355 C   0  0  0  0  0  0  0  0  0  0  0  0
  -32.5036   58.6697   64.0293 C   0  0  0  0  0  0  0  0  0  0  0  0
  -38.8893   59.1167   65.1315 C   0  0  0  0  0  0  0  0  0  0  0  0
  -38.3592   60.3255   65.7199 O   0  0  0  0  0  0  0  0  0  0  0  0
  -37.4733   61.3744   64.8971 P   0  0  0  0  0  0  0  0  0  0  0  0
  -36.1677   60.7434   64.6077 O   0  0  0  0  0  0  0  0  0  0  0  0
  -38.2877   61.8783   63.7650 O   0  0  0  0  0  0  0  0  0  0  0  0
  -38.4557   61.1552   63.1405 H   0  0  0  0  0  0  0  0  0  0  0  0
  -37.2202   62.5899   65.8977 O   0  0  0  0  0  0  0  0  0  0  0  0
  -36.4088   63.7082   65.4837 C   0  0  0  0  0  0  0  0  0  0  0  0
  -36.3443   63.8914   67.8722 O   0  0  0  0  0  0  0  0  0  0  0  0
  -35.6187   64.1897   66.6757 C   0  0  0  0  0  0  0  0  0  0  0  0
  -37.2277   64.2889   67.8221 H   0  0  0  0  0  0  0  0  0  0  0  0
  -34.3106   62.1645   66.5987 O   0  0  0  0  0  0  0  0  0  0  0  0
  -34.2397   63.5779   66.7366 C   0  0  0  0  0  0  0  0  0  0  0  0
  -33.4166   61.7903   66.6402 H   0  0  0  0  0  0  0  0  0  0  0  0
  -41.1201   58.5691   64.2495 O   0  0  0  0  0  0  0  0  0  0  0  0
  -41.5346   56.4071   64.7123 O   0  0  0  0  0  0  0  0  0  0  0  0
  -41.9279   57.5081   64.4387 C   0  0  0  0  0  0  0  0  0  0  0  0
  -43.3729   57.8694   64.2854 C   0  0  0  0  0  0  0  0  0  0  0  0
  -44.2261   57.2380   65.3810 C   0  0  0  0  0  0  0  0  0  0  0  0
  -45.4733   58.0346   65.7269 C   0  0  0  0  0  0  0  0  0  0  0  0
  -45.2024   59.5137   65.9769 C   0  0  0  0  0  0  0  0  0  0  0  0
  -46.1020   60.4476   65.1887 C   0  0  0  0  0  0  0  0  0  0  0  0
  -47.1642   59.7428   64.3402 C   0  0  0  0  0  0  0  0  0  0  0  0
  -48.2468   60.6560   63.7611 C   0  0  0  0  0  0  0  0  0  0  0  0
  -49.5045   60.6287   64.5767 C   0  0  0  0  0  0  0  0  0  0  0  0
  -50.7014   60.2566   64.1661 C   0  0  0  0  0  0  0  0  0  0  0  0
  -51.0546   59.7798   62.7928 C   0  0  0  0  0  0  0  0  0  0  0  0
  -50.8223   58.2816   62.6189 C   0  0  0  0  0  0  0  0  0  0  0  0
  -49.6329   57.9477   61.7358 C   0  0  0  0  0  0  0  0  0  0  0  0
  -49.3968   58.9554   60.6240 C   0  0  0  0  0  0  0  0  0  0  0  0
  -49.1067   58.3382   59.2659 C   0  0  0  0  0  0  0  0  0  0  0  0
  -48.1500   57.1574   59.3292 C   0  0  0  0  0  0  0  0  0  0  0  0
  -47.1004   57.1479   58.2355 C   0  0  0  0  0  0  0  0  0  0  0  0
  -47.1229   58.3953   57.3970 C   0  0  0  0  0  0  0  0  0  0  0  0
 21 22  1  0  0  0
  4  5  2  0  0  0
 25 24  1  0  0  0
 25 26  2  0  0  0
 25 27  1  0  0  0
 25 29  1  0  0  0
 22 20  1  0  0  0
  3  5  1  0  0  0
  3  2  1  0  0  0
 20 19  1  0  0  0
 24 23  1  0  0  0
 19 18  1  0  0  0
 18 17  1  0  0  0
 27 28  1  0  0  0
 17 16  1  0  0  0
 29 30  1  0  0  0
 16 15  1  0  0  0
 34 35  1  0  0  0
 34 36  1  0  0  0
 15 14  1  0  0  0
 31 32  1  0  0  0
 31 33  1  0  0  0
 14 13  1  0  0  0
 37  1  1  0  0  0
 37 39  1  0  0  0
 13 12  1  0  0  0
 38 39  2  0  0  0
 12 11  1  0  0  0
 11 10  1  0  0  0
 10  9  1  0  0  0
  9  8  1  0  0  0
  8  7  1  0  0  0
  7  6  1  0  0  0
  6  5  1  0  0  0
  2  1  1  0  0  0
  1 23  1  0  0  0
 30 32  1  0  0  0
 32 35  1  0  0  0
 39 40  1  0  0  0
 40 41  1  0  0  0
 41 42  1  0  0  0
 42 43  1  0  0  0
 43 44  1  0  0  0
 44 45  1  0  0  0
 45 46  1  0  0  0
 46 47  1  0  0  0
 47 48  2  0  0  0
 48 49  1  0  0  0
 49 50  1  0  0  0
 50 51  1  0  0  0
 51 52  1  0  0  0
 52 53  1  0  0  0
 53 54  1  0  0  0
 54 55  1  0  0  0
 55 56  1  0  0  0
M  CHG 1  26  -1
M  END
> <minimizedAffinity>
-8.64739

> <CNNscore>
0.3417686224

> <CNNaffinity>
7.4488983154

> <CNN_VS>
2.5457997322

> <CNNaffinity_variance>
1.6725250483

$$$$
/media/chris/experiments/cd1a-new-docking/inputs/ligands/7sh4_ligand.pdb


 56 55  0  0  0  0  0  0  0  0999 V2000
  -38.5378   61.0055   65.1226 C   0  0  0  0  0  0  0  0  0  0  0  0
  -38.5083   60.8548   63.6279 C   0  0  0  0  0  0  0  0  0  0  0  0
  -39.8174   61.2933   63.2068 O   0  0  0  0  0  0  0  0  0  0  0  0
  -41.3956   60.9367   61.6637 O   0  0  0  0  0  0  0  0  0  0  0  0
  -40.2548   60.8451   62.0297 C   0  0  0  0  0  0  0  0  0  0  0  0
  -39.1209   60.3347   61.1880 C   0  0  0  0  0  0  0  0  0  0  0  0
  -39.4912   60.0800   59.7366 C   0  0  0  0  0  0  0  0  0  0  0  0
  -39.6624   58.6082   59.4248 C   0  0  0  0  0  0  0  0  0  0  0  0
  -41.1022   58.1506   59.3680 C   0  0  0  0  0  0  0  0  0  0  0  0
  -41.3883   56.9771   60.2830 C   0  0  0  0  0  0  0  0  0  0  0  0
  -41.7754   57.3942   61.6807 C   0  0  0  0  0  0  0  0  0  0  0  0
  -41.0305   56.6372   62.7482 C   0  0  0  0  0  0  0  0  0  0  0  0
  -39.8902   57.4231   63.3566 C   0  0  0  0  0  0  0  0  0  0  0  0
  -38.5870   57.2406   62.6054 C   0  0  0  0  0  0  0  0  0  0  0  0
  -37.3617   57.6845   63.3766 C   0  0  0  0  0  0  0  0  0  0  0  0
  -36.1678   58.0265   62.4925 C   0  0  0  0  0  0  0  0  0  0  0  0
  -34.8251   57.6944   63.1146 C   0  0  0  0  0  0  0  0  0  0  0  0
  -34.4950   58.5453   64.3238 C   0  0  0  0  0  0  0  0  0  0  0  0
  -33.0025   58.6565   64.6027 C   0  0  0  0  0  0  0  0  0  0  0  0
  -32.1582   58.7907   63.3479 C   0  0  0  0  0  0  0  0  0  0  0  0
  -30.9282   60.7998   62.4608 C   0  0  0  0  0  0  0  0  0  0  0  0
  -32.2715   60.1312   62.6470 C   0  0  0  0  0  0  0  0  0  0  0  0
  -37.1538   61.0027   65.7194 C   0  0  0  0  0  0  0  0  0  0  0  0
  -37.0388   62.1165   66.6329 O   0  0  0  0  0  0  0  0  0  0  0  0
  -36.0817   63.3694   66.3572 P   0  0  0  0  0  0  0  0  0  0  0  0
  -36.4819   63.9766   65.0696 O   0  0  0  0  0  0  0  0  0  0  0  0
  -36.0715   64.2186   67.5727 O   0  0  0  0  0  0  0  0  0  0  0  0
  -36.9512   64.6055   67.7042 H   0  0  0  0  0  0  0  0  0  0  0  0
  -34.6217   62.7541   66.1772 O   0  0  0  0  0  0  0  0  0  0  0  0
  -33.4904   63.3825   66.8138 C   0  0  0  0  0  0  0  0  0  0  0  0
  -31.6779   64.8928   66.3937 O   0  0  0  0  0  0  0  0  0  0  0  0
  -32.9049   64.3907   65.8559 C   0  0  0  0  0  0  0  0  0  0  0  0
  -31.8390   65.2628   67.2758 H   0  0  0  0  0  0  0  0  0  0  0  0
  -33.7850   64.0655   63.6338 O   0  0  0  0  0  0  0  0  0  0  0  0
  -32.6724   63.8104   64.4815 C   0  0  0  0  0  0  0  0  0  0  0  0
  -33.6173   63.6858   62.7570 H   0  0  0  0  0  0  0  0  0  0  0  0
  -39.3694   59.9333   65.6782 O   0  0  0  0  0  0  0  0  0  0  0  0
  -40.9824   61.3713   66.3031 O   0  0  0  0  0  0  0  0  0  0  0  0
  -40.6288   60.2571   66.0294 C   0  0  0  0  0  0  0  0  0  0  0  0
  -41.5370   59.0667   66.0194 C   0  0  0  0  0  0  0  0  0  0  0  0
  -42.9022   59.4102   65.4321 C   0  0  0  0  0  0  0  0  0  0  0  0
  -43.7347   58.1955   65.0561 C   0  0  0  0  0  0  0  0  0  0  0  0
  -44.4904   57.5865   66.2316 C   0  0  0  0  0  0  0  0  0  0  0  0
  -45.9989   57.5974   66.0676 C   0  0  0  0  0  0  0  0  0  0  0  0
  -46.6176   58.9939   65.9598 C   0  0  0  0  0  0  0  0  0  0  0  0
  -47.9270   59.0674   65.1715 C   0  0  0  0  0  0  0  0  0  0  0  0
  -48.1134   60.3992   64.5086 C   0  0  0  0  0  0  0  0  0  0  0  0
  -49.2458   60.9024   64.0571 C   0  0  0  0  0  0  0  0  0  0  0  0
  -50.5887   60.2454   64.1145 C   0  0  0  0  0  0  0  0  0  0  0  0
  -51.0593   59.7620   62.7457 C   0  0  0  0  0  0  0  0  0  0  0  0
  -50.8912   58.2673   62.5363 C   0  0  0  0  0  0  0  0  0  0  0  0
  -49.6052   57.8926   61.8201 C   0  0  0  0  0  0  0  0  0  0  0  0
  -49.4616   58.4902   60.4302 C   0  0  0  0  0  0  0  0  0  0  0  0
  -48.3773   57.8268   59.5948 C   0  0  0  0  0  0  0  0  0  0  0  0
  -47.9341   58.6379   58.3933 C   0  0  0  0  0  0  0  0  0  0  0  0
  -47.3748   57.7841   57.2896 C   0  0  0  0  0  0  0  0  0  0  0  0
 21 22  1  0  0  0
  4  5  2  0  0  0
 25 24  1  0  0  0
 25 26  2  0  0  0
 25 27  1  0  0  0
 25 29  1  0  0  0
 22 20  1  0  0  0
  3  5  1  0  0  0
  3  2  1  0  0  0
 20 19  1  0  0  0
 24 23  1  0  0  0
 19 18  1  0  0  0
 18 17  1  0  0  0
 27 28  1  0  0  0
 17 16  1  0  0  0
 29 30  1  0  0  0
 16 15  1  0  0  0
 34 35  1  0  0  0
 34 36  1  0  0  0
 15 14  1  0  0  0
 31 32  1  0  0  0
 31 33  1  0  0  0
 14 13  1  0  0  0
 37  1  1  0  0  0
 37 39  1  0  0  0
 13 12  1  0  0  0
 38 39  2  0  0  0
 12 11  1  0  0  0
 11 10  1  0  0  0
 10  9  1  0  0  0
  9  8  1  0  0  0
  8  7  1  0  0  0
  7  6  1  0  0  0
  6  5  1  0  0  0
  2  1  1  0  0  0
  1 23  1  0  0  0
 30 32  1  0  0  0
 32 35  1  0  0  0
 39 40  1  0  0  0
 40 41  1  0  0  0
 41 42  1  0  0  0
 42 43  1  0  0  0
 43 44  1  0  0  0
 44 45  1  0  0  0
 45 46  1  0  0  0
 46 47  1  0  0  0
 47 48  2  0  0  0
 48 49  1  0  0  0
 49 50  1  0  0  0
 50 51  1  0  0  0
 51 52  1  0  0  0
 52 53  1  0  0  0
 53 54  1  0  0  0
 54 55  1  0  0  0
 55 56  1  0  0  0
M  CHG 1  26  -1
M  END
> <minimizedAffinity>
-8.27726

> <CNNscore>
0.3351975679

> <CNNaffinity>
7.3766784668

> <CNN_VS>
2.4726445675

> <CNNaffinity_variance>
0.9639700055

$$$$
/media/chris/experiments/cd1a-new-docking/inputs/ligands/7sh4_ligand.pdb


 56 55  0  0  0  0  0  0  0  0999 V2000
  -40.2303   60.6438   63.3052 C   0  0  0  0  0  0  0  0  0  0  0  0
  -39.9537   60.0931   64.6755 C   0  0  0  0  0  0  0  0  0  0  0  0
  -40.7244   60.9398   65.5542 O   0  0  0  0  0  0  0  0  0  0  0  0
  -42.4061   60.9252   67.0278 O   0  0  0  0  0  0  0  0  0  0  0  0
  -41.5976   60.3367   66.3616 C   0  0  0  0  0  0  0  0  0  0  0  0
  -41.5174   58.8432   66.2288 C   0  0  0  0  0  0  0  0  0  0  0  0
  -42.8672   58.1458   66.2413 C   0  0  0  0  0  0  0  0  0  0  0  0
  -42.9625   57.0345   65.2173 C   0  0  0  0  0  0  0  0  0  0  0  0
  -42.1748   57.2890   63.9521 C   0  0  0  0  0  0  0  0  0  0  0  0
  -41.4953   56.0453   63.4159 C   0  0  0  0  0  0  0  0  0  0  0  0
  -41.3571   56.0449   61.9132 C   0  0  0  0  0  0  0  0  0  0  0  0
  -41.8051   57.3360   61.2808 C   0  0  0  0  0  0  0  0  0  0  0  0
  -41.1379   57.6172   59.9527 C   0  0  0  0  0  0  0  0  0  0  0  0
  -41.1116   59.0933   59.6117 C   0  0  0  0  0  0  0  0  0  0  0  0
  -39.7201   59.6868   59.5421 C   0  0  0  0  0  0  0  0  0  0  0  0
  -38.6179   58.6517   59.3475 C   0  0  0  0  0  0  0  0  0  0  0  0
  -37.5964   58.6212   60.4681 C   0  0  0  0  0  0  0  0  0  0  0  0
  -38.0267   57.7800   61.6523 C   0  0  0  0  0  0  0  0  0  0  0  0
  -36.9810   57.6993   62.7558 C   0  0  0  0  0  0  0  0  0  0  0  0
  -35.6044   58.1725   62.3241 C   0  0  0  0  0  0  0  0  0  0  0  0
  -34.9521   57.9706   64.7469 C   0  0  0  0  0  0  0  0  0  0  0  0
  -34.4917   57.8715   63.3102 C   0  0  0  0  0  0  0  0  0  0  0  0
  -39.0051   61.2681   62.6880 C   0  0  0  0  0  0  0  0  0  0  0  0
  -38.2735   61.9720   63.7164 O   0  0  0  0  0  0  0  0  0  0  0  0
  -36.7557   62.4452   63.5317 P   0  0  0  0  0  0  0  0  0  0  0  0
  -35.8777   61.2914   63.8223 O   0  0  0  0  0  0  0  0  0  0  0  0
  -36.6385   63.1156   62.2142 O   0  0  0  0  0  0  0  0  0  0  0  0
  -36.7815   62.4668   61.5074 H   0  0  0  0  0  0  0  0  0  0  0  0
  -36.5147   63.5428   64.6630 O   0  0  0  0  0  0  0  0  0  0  0  0
  -35.2285   64.1840   64.7839 C   0  0  0  0  0  0  0  0  0  0  0  0
  -33.8324   64.7829   66.6372 O   0  0  0  0  0  0  0  0  0  0  0  0
  -34.5772   63.7070   66.0588 C   0  0  0  0  0  0  0  0  0  0  0  0
  -33.1912   65.1168   65.9904 H   0  0  0  0  0  0  0  0  0  0  0  0
  -36.3896   64.2273   67.5630 O   0  0  0  0  0  0  0  0  0  0  0  0
  -35.5811   63.1747   67.0530 C   0  0  0  0  0  0  0  0  0  0  0  0
  -37.0271   63.8663   68.1988 H   0  0  0  0  0  0  0  0  0  0  0  0
  -41.3341   61.6035   63.4076 O   0  0  0  0  0  0  0  0  0  0  0  0
  -42.5157   61.8279   61.5067 O   0  0  0  0  0  0  0  0  0  0  0  0
  -42.4046   61.3892   62.6188 C   0  0  0  0  0  0  0  0  0  0  0  0
  -43.4289   60.5250   63.2866 C   0  0  0  0  0  0  0  0  0  0  0  0
  -44.4014   61.3534   64.1200 C   0  0  0  0  0  0  0  0  0  0  0  0
  -45.3601   60.5216   64.9561 C   0  0  0  0  0  0  0  0  0  0  0  0
  -46.7958   60.5477   64.4445 C   0  0  0  0  0  0  0  0  0  0  0  0
  -47.8167   60.0387   65.4451 C   0  0  0  0  0  0  0  0  0  0  0  0
  -48.3528   58.6351   65.1497 C   0  0  0  0  0  0  0  0  0  0  0  0
  -49.8484   58.4411   65.4081 C   0  0  0  0  0  0  0  0  0  0  0  0
  -50.6079   59.7311   65.3258 C   0  0  0  0  0  0  0  0  0  0  0  0
  -51.1741   60.2443   64.2508 C   0  0  0  0  0  0  0  0  0  0  0  0
  -51.1774   59.6412   62.8817 C   0  0  0  0  0  0  0  0  0  0  0  0
  -49.9666   60.0656   62.0555 C   0  0  0  0  0  0  0  0  0  0  0  0
  -49.1144   58.9018   61.5809 C   0  0  0  0  0  0  0  0  0  0  0  0
  -49.6920   58.1727   60.3801 C   0  0  0  0  0  0  0  0  0  0  0  0
  -49.0345   56.8361   60.0791 C   0  0  0  0  0  0  0  0  0  0  0  0
  -47.8475   56.9442   59.1341 C   0  0  0  0  0  0  0  0  0  0  0  0
  -47.8232   58.2155   58.3088 C   0  0  0  0  0  0  0  0  0  0  0  0
  -46.8938   58.1263   57.1307 C   0  0  0  0  0  0  0  0  0  0  0  0
 21 22  1  0  0  0
  4  5  2  0  0  0
 25 24  1  0  0  0
 25 26  2  0  0  0
 25 27  1  0  0  0
 25 29  1  0  0  0
 22 20  1  0  0  0
  3  5  1  0  0  0
  3  2  1  0  0  0
 20 19  1  0  0  0
 24 23  1  0  0  0
 19 18  1  0  0  0
 18 17  1  0  0  0
 27 28  1  0  0  0
 17 16  1  0  0  0
 29 30  1  0  0  0
 16 15  1  0  0  0
 34 35  1  0  0  0
 34 36  1  0  0  0
 15 14  1  0  0  0
 31 32  1  0  0  0
 31 33  1  0  0  0
 14 13  1  0  0  0
 37  1  1  0  0  0
 37 39  1  0  0  0
 13 12  1  0  0  0
 38 39  2  0  0  0
 12 11  1  0  0  0
 11 10  1  0  0  0
 10  9  1  0  0  0
  9  8  1  0  0  0
  8  7  1  0  0  0
  7  6  1  0  0  0
  6  5  1  0  0  0
  2  1  1  0  0  0
  1 23  1  0  0  0
 30 32  1  0  0  0
 32 35  1  0  0  0
 39 40  1  0  0  0
 40 41  1  0  0  0
 41 42  1  0  0  0
 42 43  1  0  0  0
 43 44  1  0  0  0
 44 45  1  0  0  0
 45 46  1  0  0  0
 46 47  1  0  0  0
 47 48  2  0  0  0
 48 49  1  0  0  0
 49 50  1  0  0  0
 50 51  1  0  0  0
 51 52  1  0  0  0
 52 53  1  0  0  0
 53 54  1  0  0  0
 54 55  1  0  0  0
 55 56  1  0  0  0
M  CHG 1  26  -1
M  END
> <minimizedAffinity>
-8.90321

> <CNNscore>
0.3095097840

> <CNNaffinity>
7.4396500587

> <CNN_VS>
2.3026444912

> <CNNaffinity_variance>
1.9476082325

$$$$
/media/chris/experiments/cd1a-new-docking/inputs/ligands/7sh4_ligand.pdb


 56 55  0  0  0  0  0  0  0  0999 V2000
  -39.3245   61.3265   63.2802 C   0  0  0  0  0  0  0  0  0  0  0  0
  -40.0991   60.4394   62.3470 C   0  0  0  0  0  0  0  0  0  0  0  0
  -41.4687   60.5932   62.7755 O   0  0  0  0  0  0  0  0  0  0  0  0
  -42.1100   61.6260   60.8989 O   0  0  0  0  0  0  0  0  0  0  0  0
  -42.2276   61.4409   62.0803 C   0  0  0  0  0  0  0  0  0  0  0  0
  -43.3126   62.0262   62.9377 C   0  0  0  0  0  0  0  0  0  0  0  0
  -43.3296   61.4993   64.3626 C   0  0  0  0  0  0  0  0  0  0  0  0
  -44.7239   61.1595   64.8454 C   0  0  0  0  0  0  0  0  0  0  0  0
  -45.1512   59.7389   64.5539 C   0  0  0  0  0  0  0  0  0  0  0  0
  -46.6522   59.5885   64.4103 C   0  0  0  0  0  0  0  0  0  0  0  0
  -47.2832   58.8187   65.5447 C   0  0  0  0  0  0  0  0  0  0  0  0
  -48.7533   59.1038   65.7031 C   0  0  0  0  0  0  0  0  0  0  0  0
  -49.3089   60.0084   64.6256 C   0  0  0  0  0  0  0  0  0  0  0  0
  -50.7965   59.8169   64.4101 C   0  0  0  0  0  0  0  0  0  0  0  0
  -51.1761   59.4809   62.9831 C   0  0  0  0  0  0  0  0  0  0  0  0
  -50.2027   58.5311   62.2942 C   0  0  0  0  0  0  0  0  0  0  0  0
  -50.7959   57.7939   61.1089 C   0  0  0  0  0  0  0  0  0  0  0  0
  -49.8301   57.6384   59.9520 C   0  0  0  0  0  0  0  0  0  0  0  0
  -48.8917   56.4483   60.0963 C   0  0  0  0  0  0  0  0  0  0  0  0
  -48.0223   56.2085   58.8749 C   0  0  0  0  0  0  0  0  0  0  0  0
  -47.3696   57.9195   57.1479 C   0  0  0  0  0  0  0  0  0  0  0  0
  -47.0926   57.3542   58.5226 C   0  0  0  0  0  0  0  0  0  0  0  0
  -37.8358   61.1752   63.0998 C   0  0  0  0  0  0  0  0  0  0  0  0
  -37.2114   62.4655   63.2836 O   0  0  0  0  0  0  0  0  0  0  0  0
  -36.2979   62.8146   64.5506 P   0  0  0  0  0  0  0  0  0  0  0  0
  -37.1214   63.5786   65.5122 O   0  0  0  0  0  0  0  0  0  0  0  0
  -35.6454   61.5639   65.0076 O   0  0  0  0  0  0  0  0  0  0  0  0
  -36.3181   60.9547   65.3500 H   0  0  0  0  0  0  0  0  0  0  0  0
  -35.1612   63.7861   63.9970 O   0  0  0  0  0  0  0  0  0  0  0  0
  -34.0534   63.2470   63.2471 C   0  0  0  0  0  0  0  0  0  0  0  0
  -33.1707   63.3649   61.0223 O   0  0  0  0  0  0  0  0  0  0  0  0
  -33.8199   64.1274   62.0440 C   0  0  0  0  0  0  0  0  0  0  0  0
  -32.3504   62.9851   61.3743 H   0  0  0  0  0  0  0  0  0  0  0  0
  -35.9253   63.7207   60.9394 O   0  0  0  0  0  0  0  0  0  0  0  0
  -35.1001   64.7265   61.5129 C   0  0  0  0  0  0  0  0  0  0  0  0
  -36.7414   64.1241   60.6044 H   0  0  0  0  0  0  0  0  0  0  0  0
  -39.7372   61.0234   64.6541 O   0  0  0  0  0  0  0  0  0  0  0  0
  -38.0994   60.2452   65.9852 O   0  0  0  0  0  0  0  0  0  0  0  0
  -39.0613   60.0497   65.2939 C   0  0  0  0  0  0  0  0  0  0  0  0
  -39.6632   58.6996   65.0551 C   0  0  0  0  0  0  0  0  0  0  0  0
  -41.1040   58.6343   65.5517 C   0  0  0  0  0  0  0  0  0  0  0  0
  -42.0562   57.9414   64.5908 C   0  0  0  0  0  0  0  0  0  0  0  0
  -42.0228   56.4206   64.6899 C   0  0  0  0  0  0  0  0  0  0  0  0
  -41.7251   55.7231   63.3757 C   0  0  0  0  0  0  0  0  0  0  0  0
  -40.9626   56.5780   62.3596 C   0  0  0  0  0  0  0  0  0  0  0  0
  -41.4263   56.4339   60.9085 C   0  0  0  0  0  0  0  0  0  0  0  0
  -41.7876   57.7544   60.2971 C   0  0  0  0  0  0  0  0  0  0  0  0
  -41.0315   58.4879   59.5035 C   0  0  0  0  0  0  0  0  0  0  0  0
  -39.6479   58.1518   59.0441 C   0  0  0  0  0  0  0  0  0  0  0  0
  -38.6256   59.2078   59.4543 C   0  0  0  0  0  0  0  0  0  0  0  0
  -37.5369   58.6784   60.3712 C   0  0  0  0  0  0  0  0  0  0  0  0
  -37.9960   57.5448   61.2720 C   0  0  0  0  0  0  0  0  0  0  0  0
  -37.3579   57.5389   62.6512 C   0  0  0  0  0  0  0  0  0  0  0  0
  -36.0760   58.3538   62.7290 C   0  0  0  0  0  0  0  0  0  0  0  0
  -34.8512   57.5509   63.1207 C   0  0  0  0  0  0  0  0  0  0  0  0
  -33.5791   58.1172   62.5544 C   0  0  0  0  0  0  0  0  0  0  0  0
 21 22  1  0  0  0
  4  5  2  0  0  0
 25 24  1  0  0  0
 25 26  2  0  0  0
 25 27  1  0  0  0
 25 29  1  0  0  0
 22 20  1  0  0  0
  3  5  1  0  0  0
  3  2  1  0  0  0
 20 19  1  0  0  0
 24 23  1  0  0  0
 19 18  1  0  0  0
 18 17  1  0  0  0
 27 28  1  0  0  0
 17 16  1  0  0  0
 29 30  1  0  0  0
 16 15  1  0  0  0
 34 35  1  0  0  0
 34 36  1  0  0  0
 15 14  1  0  0  0
 31 32  1  0  0  0
 31 33  1  0  0  0
 14 13  1  0  0  0
 37  1  1  0  0  0
 37 39  1  0  0  0
 13 12  1  0  0  0
 38 39  2  0  0  0
 12 11  1  0  0  0
 11 10  1  0  0  0
 10  9  1  0  0  0
  9  8  1  0  0  0
  8  7  1  0  0  0
  7  6  1  0  0  0
  6  5  1  0  0  0
  2  1  1  0  0  0
  1 23  1  0  0  0
 30 32  1  0  0  0
 32 35  1  0  0  0
 39 40  1  0  0  0
 40 41  1  0  0  0
 41 42  1  0  0  0
 42 43  1  0  0  0
 43 44  1  0  0  0
 44 45  1  0  0  0
 45 46  1  0  0  0
 46 47  1  0  0  0
 47 48  2  0  0  0
 48 49  1  0  0  0
 49 50  1  0  0  0
 50 51  1  0  0  0
 51 52  1  0  0  0
 52 53  1  0  0  0
 53 54  1  0  0  0
 54 55  1  0  0  0
 55 56  1  0  0  0
M  CHG 1  26  -1
M  END
> <minimizedAffinity>
-8.45507

> <CNNscore>
0.2969774306

> <CNNaffinity>
7.4270048141

> <CNN_VS>
2.2056527138

> <CNNaffinity_variance>
1.4824854136

$$$$
/media/chris/experiments/cd1a-new-docking/inputs/ligands/7sh4_ligand.pdb


 56 55  0  0  0  0  0  0  0  0999 V2000
  -38.7659   60.8949   63.9185 C   0  0  0  0  0  0  0  0  0  0  0  0
  -39.1530   60.1044   65.1362 C   0  0  0  0  0  0  0  0  0  0  0  0
  -40.0590   60.9762   65.8450 O   0  0  0  0  0  0  0  0  0  0  0  0
  -41.9887   61.0220   66.9736 O   0  0  0  0  0  0  0  0  0  0  0  0
  -41.1939   60.4355   66.2894 C   0  0  0  0  0  0  0  0  0  0  0  0
  -41.3986   59.0604   65.7218 C   0  0  0  0  0  0  0  0  0  0  0  0
  -42.5962   58.3236   66.2972 C   0  0  0  0  0  0  0  0  0  0  0  0
  -43.2704   57.4207   65.2858 C   0  0  0  0  0  0  0  0  0  0  0  0
  -42.5575   57.3405   63.9550 C   0  0  0  0  0  0  0  0  0  0  0  0
  -41.7664   56.0598   63.7818 C   0  0  0  0  0  0  0  0  0  0  0  0
  -41.2890   55.8431   62.3667 C   0  0  0  0  0  0  0  0  0  0  0  0
  -41.4579   57.0601   61.4960 C   0  0  0  0  0  0  0  0  0  0  0  0
  -40.2024   57.4372   60.7414 C   0  0  0  0  0  0  0  0  0  0  0  0
  -38.9429   57.2212   61.5556 C   0  0  0  0  0  0  0  0  0  0  0  0
  -37.7376   57.9813   61.0430 C   0  0  0  0  0  0  0  0  0  0  0  0
  -36.7269   58.3372   62.1274 C   0  0  0  0  0  0  0  0  0  0  0  0
  -37.0766   57.7918   63.4987 C   0  0  0  0  0  0  0  0  0  0  0  0
  -36.0877   58.1900   64.5751 C   0  0  0  0  0  0  0  0  0  0  0  0
  -34.6884   57.6320   64.3548 C   0  0  0  0  0  0  0  0  0  0  0  0
  -33.5853   58.5321   64.8822 C   0  0  0  0  0  0  0  0  0  0  0  0
  -33.1716   59.1148   62.4687 C   0  0  0  0  0  0  0  0  0  0  0  0
  -32.5647   58.9599   63.8448 C   0  0  0  0  0  0  0  0  0  0  0  0
  -37.7054   61.9216   64.2236 C   0  0  0  0  0  0  0  0  0  0  0  0
  -37.0700   62.3156   62.9869 O   0  0  0  0  0  0  0  0  0  0  0  0
  -36.1641   63.6287   62.8571 P   0  0  0  0  0  0  0  0  0  0  0  0
  -36.0019   63.9328   61.4191 O   0  0  0  0  0  0  0  0  0  0  0  0
  -36.7321   64.6709   63.7460 O   0  0  0  0  0  0  0  0  0  0  0  0
  -37.6031   64.9393   63.4140 H   0  0  0  0  0  0  0  0  0  0  0  0
  -34.7367   63.2161   63.4357 O   0  0  0  0  0  0  0  0  0  0  0  0
  -33.8870   64.2133   64.0389 C   0  0  0  0  0  0  0  0  0  0  0  0
  -32.1017   64.4093   65.6254 O   0  0  0  0  0  0  0  0  0  0  0  0
  -33.2217   63.6030   65.2481 C   0  0  0  0  0  0  0  0  0  0  0  0
  -31.4990   64.4989   64.8707 H   0  0  0  0  0  0  0  0  0  0  0  0
  -33.4536   63.3288   67.6333 O   0  0  0  0  0  0  0  0  0  0  0  0
  -34.1714   63.4530   66.4122 C   0  0  0  0  0  0  0  0  0  0  0  0
  -34.0796   63.2336   68.3681 H   0  0  0  0  0  0  0  0  0  0  0  0
  -39.9752   61.5131   63.3659 O   0  0  0  0  0  0  0  0  0  0  0  0
  -39.8120   60.6263   61.3050 O   0  0  0  0  0  0  0  0  0  0  0  0
  -40.4801   60.9688   62.2420 C   0  0  0  0  0  0  0  0  0  0  0  0
  -41.9690   60.8255   62.3086 C   0  0  0  0  0  0  0  0  0  0  0  0
  -42.5696   61.7260   63.3834 C   0  0  0  0  0  0  0  0  0  0  0  0
  -44.0871   61.6758   63.4521 C   0  0  0  0  0  0  0  0  0  0  0  0
  -44.6199   61.1146   64.7655 C   0  0  0  0  0  0  0  0  0  0  0  0
  -45.7144   60.0777   64.5945 C   0  0  0  0  0  0  0  0  0  0  0  0
  -46.6258   59.9070   65.8132 C   0  0  0  0  0  0  0  0  0  0  0  0
  -48.1080   60.1936   65.5636 C   0  0  0  0  0  0  0  0  0  0  0  0
  -48.3649   60.6607   64.1623 C   0  0  0  0  0  0  0  0  0  0  0  0
  -49.2721   60.1892   63.3290 C   0  0  0  0  0  0  0  0  0  0  0  0
  -50.2404   59.0844   63.6113 C   0  0  0  0  0  0  0  0  0  0  0  0
  -50.7934   58.4547   62.3360 C   0  0  0  0  0  0  0  0  0  0  0  0
  -49.8098   58.4573   61.1790 C   0  0  0  0  0  0  0  0  0  0  0  0
  -50.4505   58.1651   59.8331 C   0  0  0  0  0  0  0  0  0  0  0  0
  -49.4747   57.7291   58.7527 C   0  0  0  0  0  0  0  0  0  0  0  0
  -48.0458   57.5794   59.2519 C   0  0  0  0  0  0  0  0  0  0  0  0
  -47.0461   57.2080   58.1745 C   0  0  0  0  0  0  0  0  0  0  0  0
  -46.9477   58.2446   57.0903 C   0  0  0  0  0  0  0  0  0  0  0  0
 21 22  1  0  0  0
  4  5  2  0  0  0
 25 24  1  0  0  0
 25 26  2  0  0  0
 25 27  1  0  0  0
 25 29  1  0  0  0
 22 20  1  0  0  0
  3  5  1  0  0  0
  3  2  1  0  0  0
 20 19  1  0  0  0
 24 23  1  0  0  0
 19 18  1  0  0  0
 18 17  1  0  0  0
 27 28  1  0  0  0
 17 16  1  0  0  0
 29 30  1  0  0  0
 16 15  1  0  0  0
 34 35  1  0  0  0
 34 36  1  0  0  0
 15 14  1  0  0  0
 31 32  1  0  0  0
 31 33  1  0  0  0
 14 13  1  0  0  0
 37  1  1  0  0  0
 37 39  1  0  0  0
 13 12  1  0  0  0
 38 39  2  0  0  0
 12 11  1  0  0  0
 11 10  1  0  0  0
 10  9  1  0  0  0
  9  8  1  0  0  0
  8  7  1  0  0  0
  7  6  1  0  0  0
  6  5  1  0  0  0
  2  1  1  0  0  0
  1 23  1  0  0  0
 30 32  1  0  0  0
 32 35  1  0  0  0
 39 40  1  0  0  0
 40 41  1  0  0  0
 41 42  1  0  0  0
 42 43  1  0  0  0
 43 44  1  0  0  0
 44 45  1  0  0  0
 45 46  1  0  0  0
 46 47  1  0  0  0
 47 48  2  0  0  0
 48 49  1  0  0  0
 49 50  1  0  0  0
 50 51  1  0  0  0
 51 52  1  0  0  0
 52 53  1  0  0  0
 53 54  1  0  0  0
 54 55  1  0  0  0
 55 56  1  0  0  0
M  CHG 1  26  -1
M  END
> <minimizedAffinity>
-8.54334

> <CNNscore>
0.2843244374

> <CNNaffinity>
7.3713254929

> <CNN_VS>
2.0958480835

> <CNNaffinity_variance>
1.3124897480

$$$$
/media/chris/experiments/cd1a-new-docking/inputs/ligands/7sh4_ligand.pdb


 56 55  0  0  0  0  0  0  0  0999 V2000
  -39.9430   59.7255   64.5964 C   0  0  0  0  0  0  0  0  0  0  0  0
  -40.6813   60.1017   65.8498 C   0  0  0  0  0  0  0  0  0  0  0  0
  -41.5219   61.2022   65.4431 O   0  0  0  0  0  0  0  0  0  0  0  0
  -43.2193   61.0284   66.8881 O   0  0  0  0  0  0  0  0  0  0  0  0
  -42.8145   61.1245   65.7608 C   0  0  0  0  0  0  0  0  0  0  0  0
  -43.6828   61.2990   64.5482 C   0  0  0  0  0  0  0  0  0  0  0  0
  -43.0477   62.1275   63.4443 C   0  0  0  0  0  0  0  0  0  0  0  0
  -42.6473   61.2961   62.2438 C   0  0  0  0  0  0  0  0  0  0  0  0
  -42.3075   62.1073   61.0141 C   0  0  0  0  0  0  0  0  0  0  0  0
  -41.5005   61.3294   59.9945 C   0  0  0  0  0  0  0  0  0  0  0  0
  -40.9462   60.0352   60.5378 C   0  0  0  0  0  0  0  0  0  0  0  0
  -41.2291   58.8542   59.6474 C   0  0  0  0  0  0  0  0  0  0  0  0
  -40.0156   57.9864   59.3977 C   0  0  0  0  0  0  0  0  0  0  0  0
  -38.7281   58.7832   59.3397 C   0  0  0  0  0  0  0  0  0  0  0  0
  -37.7517   58.4616   60.4518 C   0  0  0  0  0  0  0  0  0  0  0  0
  -38.3291   57.5595   61.5367 C   0  0  0  0  0  0  0  0  0  0  0  0
  -37.5460   57.5787   62.8353 C   0  0  0  0  0  0  0  0  0  0  0  0
  -36.0691   57.8568   62.6437 C   0  0  0  0  0  0  0  0  0  0  0  0
  -35.2607   57.7755   63.9312 C   0  0  0  0  0  0  0  0  0  0  0  0
  -34.0797   58.7289   63.9683 C   0  0  0  0  0  0  0  0  0  0  0  0
  -31.8071   59.3491   63.0814 C   0  0  0  0  0  0  0  0  0  0  0  0
  -33.0364   58.4893   62.8934 C   0  0  0  0  0  0  0  0  0  0  0  0
  -39.3235   60.9232   63.9231 C   0  0  0  0  0  0  0  0  0  0  0  0
  -38.3017   61.4666   64.7887 O   0  0  0  0  0  0  0  0  0  0  0  0
  -36.8086   61.7580   64.2913 P   0  0  0  0  0  0  0  0  0  0  0  0
  -35.8828   61.4009   65.3877 O   0  0  0  0  0  0  0  0  0  0  0  0
  -36.6286   61.1128   62.9684 O   0  0  0  0  0  0  0  0  0  0  0  0
  -36.6701   60.1490   63.0704 H   0  0  0  0  0  0  0  0  0  0  0  0
  -36.7341   63.3368   64.0805 O   0  0  0  0  0  0  0  0  0  0  0  0
  -35.4952   64.0381   64.3120 C   0  0  0  0  0  0  0  0  0  0  0  0
  -34.1645   62.9751   62.6262 O   0  0  0  0  0  0  0  0  0  0  0  0
  -34.7910   64.2093   62.9884 C   0  0  0  0  0  0  0  0  0  0  0  0
  -33.5659   62.6957   63.3365 H   0  0  0  0  0  0  0  0  0  0  0  0
  -36.2222   63.5427   61.1648 O   0  0  0  0  0  0  0  0  0  0  0  0
  -35.7275   64.6593   61.8929 C   0  0  0  0  0  0  0  0  0  0  0  0
  -36.8209   63.8514   60.4668 H   0  0  0  0  0  0  0  0  0  0  0  0
  -40.8731   59.0244   63.7057 O   0  0  0  0  0  0  0  0  0  0  0  0
  -40.6437   56.9429   64.5272 O   0  0  0  0  0  0  0  0  0  0  0  0
  -41.3418   57.8340   64.1270 C   0  0  0  0  0  0  0  0  0  0  0  0
  -42.8356   57.7621   64.0541 C   0  0  0  0  0  0  0  0  0  0  0  0
  -43.4531   57.5530   65.4332 C   0  0  0  0  0  0  0  0  0  0  0  0
  -44.9716   57.6159   65.4445 C   0  0  0  0  0  0  0  0  0  0  0  0
  -45.5612   57.8672   66.8276 C   0  0  0  0  0  0  0  0  0  0  0  0
  -46.3209   59.1754   66.9459 C   0  0  0  0  0  0  0  0  0  0  0  0
  -46.8277   59.7400   65.6158 C   0  0  0  0  0  0  0  0  0  0  0  0
  -48.1692   60.4726   65.6878 C   0  0  0  0  0  0  0  0  0  0  0  0
  -49.2884   59.5630   66.0975 C   0  0  0  0  0  0  0  0  0  0  0  0
  -50.4791   59.4776   65.5366 C   0  0  0  0  0  0  0  0  0  0  0  0
  -50.9628   60.2746   64.3666 C   0  0  0  0  0  0  0  0  0  0  0  0
  -51.1760   59.4145   63.1243 C   0  0  0  0  0  0  0  0  0  0  0  0
  -49.8842   58.9852   62.4511 C   0  0  0  0  0  0  0  0  0  0  0  0
  -50.0582   58.5856   60.9960 C   0  0  0  0  0  0  0  0  0  0  0  0
  -48.7565   58.3521   60.2473 C   0  0  0  0  0  0  0  0  0  0  0  0
  -48.9528   58.0647   58.7666 C   0  0  0  0  0  0  0  0  0  0  0  0
  -47.7988   57.3260   58.1180 C   0  0  0  0  0  0  0  0  0  0  0  0
  -47.5271   57.7896   56.7141 C   0  0  0  0  0  0  0  0  0  0  0  0
 21 22  1  0  0  0
  4  5  2  0  0  0
 25 24  1  0  0  0
 25 26  2  0  0  0
 25 27  1  0  0  0
 25 29  1  0  0  0
 22 20  1  0  0  0
  3  5  1  0  0  0
  3  2  1  0  0  0
 20 19  1  0  0  0
 24 23  1  0  0  0
 19 18  1  0  0  0
 18 17  1  0  0  0
 27 28  1  0  0  0
 17 16  1  0  0  0
 29 30  1  0  0  0
 16 15  1  0  0  0
 34 35  1  0  0  0
 34 36  1  0  0  0
 15 14  1  0  0  0
 31 32  1  0  0  0
 31 33  1  0  0  0
 14 13  1  0  0  0
 37  1  1  0  0  0
 37 39  1  0  0  0
 13 12  1  0  0  0
 38 39  2  0  0  0
 12 11  1  0  0  0
 11 10  1  0  0  0
 10  9  1  0  0  0
  9  8  1  0  0  0
  8  7  1  0  0  0
  7  6  1  0  0  0
  6  5  1  0  0  0
  2  1  1  0  0  0
  1 23  1  0  0  0
 30 32  1  0  0  0
 32 35  1  0  0  0
 39 40  1  0  0  0
 40 41  1  0  0  0
 41 42  1  0  0  0
 42 43  1  0  0  0
 43 44  1  0  0  0
 44 45  1  0  0  0
 45 46  1  0  0  0
 46 47  1  0  0  0
 47 48  2  0  0  0
 48 49  1  0  0  0
 49 50  1  0  0  0
 50 51  1  0  0  0
 51 52  1  0  0  0
 52 53  1  0  0  0
 53 54  1  0  0  0
 54 55  1  0  0  0
 55 56  1  0  0  0
M  CHG 1  26  -1
M  END
> <minimizedAffinity>
-8.36594

> <CNNscore>
0.2793823779

> <CNNaffinity>
7.3642745018

> <CNN_VS>
2.0574486256

> <CNNaffinity_variance>
1.5327428579

$$$$
