/media/chris/experiments/cd1a-new-docking/inputs/ligands/7sh4_ligand.pdb


 56 55  0  0  0  0  0  0  0  0999 V2000
  -39.6900   59.8320   64.7471 C   0  0  0  0  0  0  0  0  0  0  0  0
  -40.0205   58.3667   64.7824 C   0  0  0  0  0  0  0  0  0  0  0  0
  -41.3969   58.3294   65.2150 O   0  0  0  0  0  0  0  0  0  0  0  0
  -42.0744   56.2442   64.7770 O   0  0  0  0  0  0  0  0  0  0  0  0
  -42.1899   57.4310   64.6302 C   0  0  0  0  0  0  0  0  0  0  0  0
  -43.3048   58.0993   63.8784 C   0  0  0  0  0  0  0  0  0  0  0  0
  -44.5771   58.2822   64.6885 C   0  0  0  0  0  0  0  0  0  0  0  0
  -44.8031   59.7193   65.1086 C   0  0  0  0  0  0  0  0  0  0  0  0
  -46.0138   60.3665   64.4753 C   0  0  0  0  0  0  0  0  0  0  0  0
  -47.1693   59.4047   64.2851 C   0  0  0  0  0  0  0  0  0  0  0  0
  -47.9242   59.1235   65.5613 C   0  0  0  0  0  0  0  0  0  0  0  0
  -49.1817   58.3258   65.3375 C   0  0  0  0  0  0  0  0  0  0  0  0
  -50.4012   59.1851   65.0872 C   0  0  0  0  0  0  0  0  0  0  0  0
  -50.8482   59.1596   63.6395 C   0  0  0  0  0  0  0  0  0  0  0  0
  -50.4688   60.3972   62.8537 C   0  0  0  0  0  0  0  0  0  0  0  0
  -49.8144   60.0971   61.5100 C   0  0  0  0  0  0  0  0  0  0  0  0
  -49.4798   58.6327   61.3009 C   0  0  0  0  0  0  0  0  0  0  0  0
  -50.1574   58.0275   60.0885 C   0  0  0  0  0  0  0  0  0  0  0  0
  -49.2488   57.9202   58.8717 C   0  0  0  0  0  0  0  0  0  0  0  0
  -47.8727   57.3624   59.1881 C   0  0  0  0  0  0  0  0  0  0  0  0
  -46.9684   58.3983   57.0797 C   0  0  0  0  0  0  0  0  0  0  0  0
  -46.9667   57.1867   57.9841 C   0  0  0  0  0  0  0  0  0  0  0  0
  -38.6894   60.2125   65.8081 C   0  0  0  0  0  0  0  0  0  0  0  0
  -38.4035   61.6244   65.6930 O   0  0  0  0  0  0  0  0  0  0  0  0
  -37.0488   62.1855   65.0513 P   0  0  0  0  0  0  0  0  0  0  0  0
  -35.9743   61.2060   65.3211 O   0  0  0  0  0  0  0  0  0  0  0  0
  -37.3275   62.5682   63.6462 O   0  0  0  0  0  0  0  0  0  0  0  0
  -37.5335   61.7736   63.1294 H   0  0  0  0  0  0  0  0  0  0  0  0
  -36.7158   63.5162   65.8646 O   0  0  0  0  0  0  0  0  0  0  0  0
  -35.7140   63.4961   66.9019 C   0  0  0  0  0  0  0  0  0  0  0  0
  -33.6141   64.4564   67.5428 O   0  0  0  0  0  0  0  0  0  0  0  0
  -34.6092   64.4484   66.5149 C   0  0  0  0  0  0  0  0  0  0  0  0
  -34.0266   64.6849   68.3904 H   0  0  0  0  0  0  0  0  0  0  0  0
  -34.7523   64.6220   64.1133 O   0  0  0  0  0  0  0  0  0  0  0  0
  -33.9840   64.0942   65.1870 C   0  0  0  0  0  0  0  0  0  0  0  0
  -34.3356   64.3846   63.2702 H   0  0  0  0  0  0  0  0  0  0  0  0
  -40.9378   60.5900   64.8827 O   0  0  0  0  0  0  0  0  0  0  0  0
  -42.3255   61.9742   63.7788 O   0  0  0  0  0  0  0  0  0  0  0  0
  -41.3962   61.2137   63.7805 C   0  0  0  0  0  0  0  0  0  0  0  0
  -40.5984   60.8603   62.5637 C   0  0  0  0  0  0  0  0  0  0  0  0
  -41.5010   60.5616   61.3709 C   0  0  0  0  0  0  0  0  0  0  0  0
  -40.7459   60.2691   60.0846 C   0  0  0  0  0  0  0  0  0  0  0  0
  -40.6661   58.7844   59.7486 C   0  0  0  0  0  0  0  0  0  0  0  0
  -39.3815   58.3779   59.0506 C   0  0  0  0  0  0  0  0  0  0  0  0
  -38.1017   58.7539   59.8027 C   0  0  0  0  0  0  0  0  0  0  0  0
  -37.9346   58.0955   61.1739 C   0  0  0  0  0  0  0  0  0  0  0  0
  -37.3889   59.0480   62.1952 C   0  0  0  0  0  0  0  0  0  0  0  0
  -36.2780   58.9045   62.8914 C   0  0  0  0  0  0  0  0  0  0  0  0
  -35.3244   57.7550   62.8048 C   0  0  0  0  0  0  0  0  0  0  0  0
  -33.9115   58.1970   62.4348 C   0  0  0  0  0  0  0  0  0  0  0  0
  -33.4049   59.3694   63.2566 C   0  0  0  0  0  0  0  0  0  0  0  0
  -31.9463   59.7078   63.0016 C   0  0  0  0  0  0  0  0  0  0  0  0
  -31.6573   60.2375   61.6069 C   0  0  0  0  0  0  0  0  0  0  0  0
  -30.9281   61.5725   61.6051 C   0  0  0  0  0  0  0  0  0  0  0  0
  -31.8428   62.7807   61.5676 C   0  0  0  0  0  0  0  0  0  0  0  0
  -31.3955   63.8774   62.4932 C   0  0  0  0  0  0  0  0  0  0  0  0
 21 22  1  0  0  0
  4  5  2  0  0  0
 25 24  1  0  0  0
 25 26  2  0  0  0
 25 27  1  0  0  0
 25 29  1  0  0  0
 22 20  1  0  0  0
  3  5  1  0  0  0
  3  2  1  0  0  0
 20 19  1  0  0  0
 24 23  1  0  0  0
 19 18  1  0  0  0
 18 17  1  0  0  0
 27 28  1  0  0  0
 17 16  1  0  0  0
 29 30  1  0  0  0
 16 15  1  0  0  0
 34 35  1  0  0  0
 34 36  1  0  0  0
 15 14  1  0  0  0
 31 32  1  0  0  0
 31 33  1  0  0  0
 14 13  1  0  0  0
 37  1  1  0  0  0
 37 39  1  0  0  0
 13 12  1  0  0  0
 38 39  2  0  0  0
 12 11  1  0  0  0
 11 10  1  0  0  0
 10  9  1  0  0  0
  9  8  1  0  0  0
  8  7  1  0  0  0
  7  6  1  0  0  0
  6  5  1  0  0  0
  2  1  1  0  0  0
  1 23  1  0  0  0
 30 32  1  0  0  0
 32 35  1  0  0  0
 39 40  1  0  0  0
 40 41  1  0  0  0
 41 42  1  0  0  0
 42 43  1  0  0  0
 43 44  1  0  0  0
 44 45  1  0  0  0
 45 46  1  0  0  0
 46 47  1  0  0  0
 47 48  2  0  0  0
 48 49  1  0  0  0
 49 50  1  0  0  0
 50 51  1  0  0  0
 51 52  1  0  0  0
 52 53  1  0  0  0
 53 54  1  0  0  0
 54 55  1  0  0  0
 55 56  1  0  0  0
M  CHG 1  26  -1
M  END
> <minimizedAffinity>
-8.34173

> <CNNscore>
0.5302608013

> <CNNaffinity>
7.4080185890

> <CNN_VS>
3.9281818867

> <CNNaffinity_variance>
1.0608532429

$$$$
/media/chris/experiments/cd1a-new-docking/inputs/ligands/7sh4_ligand.pdb


 56 55  0  0  0  0  0  0  0  0999 V2000
  -39.2171   61.2209   63.4503 C   0  0  0  0  0  0  0  0  0  0  0  0
  -40.3390   61.1274   62.4552 C   0  0  0  0  0  0  0  0  0  0  0  0
  -41.5182   61.4355   63.2284 O   0  0  0  0  0  0  0  0  0  0  0  0
  -42.6465   61.9588   61.3703 O   0  0  0  0  0  0  0  0  0  0  0  0
  -42.6285   61.7227   62.5482 C   0  0  0  0  0  0  0  0  0  0  0  0
  -43.8465   61.5878   63.4160 C   0  0  0  0  0  0  0  0  0  0  0  0
  -43.5402   61.4439   64.8972 C   0  0  0  0  0  0  0  0  0  0  0  0
  -44.1754   60.2137   65.5104 C   0  0  0  0  0  0  0  0  0  0  0  0
  -45.2427   59.5744   64.6515 C   0  0  0  0  0  0  0  0  0  0  0  0
  -46.4887   59.2048   65.4306 C   0  0  0  0  0  0  0  0  0  0  0  0
  -47.6949   60.0267   65.0470 C   0  0  0  0  0  0  0  0  0  0  0  0
  -48.8365   59.8856   66.0188 C   0  0  0  0  0  0  0  0  0  0  0  0
  -50.0857   59.3020   65.3969 C   0  0  0  0  0  0  0  0  0  0  0  0
  -50.8868   60.3273   64.6202 C   0  0  0  0  0  0  0  0  0  0  0  0
  -51.1743   59.9307   63.1873 C   0  0  0  0  0  0  0  0  0  0  0  0
  -50.3035   58.7877   62.6780 C   0  0  0  0  0  0  0  0  0  0  0  0
  -51.0024   57.8738   61.6898 C   0  0  0  0  0  0  0  0  0  0  0  0
  -50.0834   57.3388   60.6107 C   0  0  0  0  0  0  0  0  0  0  0  0
  -49.9515   58.2628   59.4080 C   0  0  0  0  0  0  0  0  0  0  0  0
  -48.5129   58.5626   59.0268 C   0  0  0  0  0  0  0  0  0  0  0  0
  -46.9173   58.2889   57.0993 C   0  0  0  0  0  0  0  0  0  0  0  0
  -47.9134   57.6088   58.0109 C   0  0  0  0  0  0  0  0  0  0  0  0
  -37.8889   61.4733   62.7840 C   0  0  0  0  0  0  0  0  0  0  0  0
  -37.3140   62.6795   63.3346 O   0  0  0  0  0  0  0  0  0  0  0  0
  -35.7607   63.0405   63.1984 P   0  0  0  0  0  0  0  0  0  0  0  0
  -34.9881   61.7834   63.2964 O   0  0  0  0  0  0  0  0  0  0  0  0
  -35.5882   63.8908   61.9960 O   0  0  0  0  0  0  0  0  0  0  0  0
  -35.7905   63.3723   61.2016 H   0  0  0  0  0  0  0  0  0  0  0  0
  -35.4194   63.9277   64.4788 O   0  0  0  0  0  0  0  0  0  0  0  0
  -36.2641   63.8647   65.6461 C   0  0  0  0  0  0  0  0  0  0  0  0
  -35.4055   63.0525   67.7308 O   0  0  0  0  0  0  0  0  0  0  0  0
  -35.4250   64.1864   66.8584 C   0  0  0  0  0  0  0  0  0  0  0  0
  -36.3150   62.8044   67.9590 H   0  0  0  0  0  0  0  0  0  0  0  0
  -33.4135   65.3253   67.5475 O   0  0  0  0  0  0  0  0  0  0  0  0
  -34.0159   64.5867   66.4925 C   0  0  0  0  0  0  0  0  0  0  0  0
  -32.5106   65.5730   67.2943 H   0  0  0  0  0  0  0  0  0  0  0  0
  -39.1996   59.9878   64.2434 O   0  0  0  0  0  0  0  0  0  0  0  0
  -39.7295   60.8636   66.2465 O   0  0  0  0  0  0  0  0  0  0  0  0
  -39.8619   60.0065   65.4159 C   0  0  0  0  0  0  0  0  0  0  0  0
  -40.7947   58.8430   65.5515 C   0  0  0  0  0  0  0  0  0  0  0  0
  -40.5193   57.7797   64.4932 C   0  0  0  0  0  0  0  0  0  0  0  0
  -41.7388   56.9543   64.1169 C   0  0  0  0  0  0  0  0  0  0  0  0
  -41.4621   55.9153   63.0363 C   0  0  0  0  0  0  0  0  0  0  0  0
  -41.1759   56.5081   61.6691 C   0  0  0  0  0  0  0  0  0  0  0  0
  -42.0491   57.7111   61.3013 C   0  0  0  0  0  0  0  0  0  0  0  0
  -41.3943   58.7298   60.3659 C   0  0  0  0  0  0  0  0  0  0  0  0
  -40.5713   58.0705   59.3000 C   0  0  0  0  0  0  0  0  0  0  0  0
  -39.3001   58.2988   59.0328 C   0  0  0  0  0  0  0  0  0  0  0  0
  -38.4090   59.2680   59.7434 C   0  0  0  0  0  0  0  0  0  0  0  0
  -37.3619   58.5708   60.6071 C   0  0  0  0  0  0  0  0  0  0  0  0
  -37.9552   57.7222   61.7181 C   0  0  0  0  0  0  0  0  0  0  0  0
  -37.0834   57.6467   62.9596 C   0  0  0  0  0  0  0  0  0  0  0  0
  -35.8053   58.4653   62.8824 C   0  0  0  0  0  0  0  0  0  0  0  0
  -34.5410   57.6236   62.9646 C   0  0  0  0  0  0  0  0  0  0  0  0
  -33.3005   58.4012   63.3571 C   0  0  0  0  0  0  0  0  0  0  0  0
  -33.1783   58.5895   64.8434 C   0  0  0  0  0  0  0  0  0  0  0  0
 21 22  1  0  0  0
  4  5  2  0  0  0
 25 24  1  0  0  0
 25 26  2  0  0  0
 25 27  1  0  0  0
 25 29  1  0  0  0
 22 20  1  0  0  0
  3  5  1  0  0  0
  3  2  1  0  0  0
 20 19  1  0  0  0
 24 23  1  0  0  0
 19 18  1  0  0  0
 18 17  1  0  0  0
 27 28  1  0  0  0
 17 16  1  0  0  0
 29 30  1  0  0  0
 16 15  1  0  0  0
 34 35  1  0  0  0
 34 36  1  0  0  0
 15 14  1  0  0  0
 31 32  1  0  0  0
 31 33  1  0  0  0
 14 13  1  0  0  0
 37  1  1  0  0  0
 37 39  1  0  0  0
 13 12  1  0  0  0
 38 39  2  0  0  0
 12 11  1  0  0  0
 11 10  1  0  0  0
 10  9  1  0  0  0
  9  8  1  0  0  0
  8  7  1  0  0  0
  7  6  1  0  0  0
  6  5  1  0  0  0
  2  1  1  0  0  0
  1 23  1  0  0  0
 30 32  1  0  0  0
 32 35  1  0  0  0
 39 40  1  0  0  0
 40 41  1  0  0  0
 41 42  1  0  0  0
 42 43  1  0  0  0
 43 44  1  0  0  0
 44 45  1  0  0  0
 45 46  1  0  0  0
 46 47  1  0  0  0
 47 48  2  0  0  0
 48 49  1  0  0  0
 49 50  1  0  0  0
 50 51  1  0  0  0
 51 52  1  0  0  0
 52 53  1  0  0  0
 53 54  1  0  0  0
 54 55  1  0  0  0
 55 56  1  0  0  0
M  CHG 1  26  -1
M  END
> <minimizedAffinity>
-9.00739

> <CNNscore>
0.4599791169

> <CNNaffinity>
7.5291213989

> <CNN_VS>
3.4632387161

> <CNNaffinity_variance>
1.1494150162

$$$$
/media/chris/experiments/cd1a-new-docking/inputs/ligands/7sh4_ligand.pdb


 56 55  0  0  0  0  0  0  0  0999 V2000
  -42.5031   57.7927   64.7032 C   0  0  0  0  0  0  0  0  0  0  0  0
  -42.0793   56.5282   64.0111 C   0  0  0  0  0  0  0  0  0  0  0  0
  -41.7297   56.9596   62.6789 O   0  0  0  0  0  0  0  0  0  0  0  0
  -40.9675   54.9147   62.1927 O   0  0  0  0  0  0  0  0  0  0  0  0
  -41.2424   56.0337   61.8524 C   0  0  0  0  0  0  0  0  0  0  0  0
  -41.2050   56.5350   60.4375 C   0  0  0  0  0  0  0  0  0  0  0  0
  -40.7616   57.9820   60.3033 C   0  0  0  0  0  0  0  0  0  0  0  0
  -40.0144   58.2490   59.0137 C   0  0  0  0  0  0  0  0  0  0  0  0
  -38.5719   58.6582   59.2071 C   0  0  0  0  0  0  0  0  0  0  0  0
  -38.2779   59.1505   60.6098 C   0  0  0  0  0  0  0  0  0  0  0  0
  -37.2769   58.2916   61.3431 C   0  0  0  0  0  0  0  0  0  0  0  0
  -37.8514   57.6371   62.5717 C   0  0  0  0  0  0  0  0  0  0  0  0
  -37.0321   57.8798   63.8199 C   0  0  0  0  0  0  0  0  0  0  0  0
  -35.5626   58.0994   63.5221 C   0  0  0  0  0  0  0  0  0  0  0  0
  -34.6962   58.2398   64.7561 C   0  0  0  0  0  0  0  0  0  0  0  0
  -33.2931   58.7615   64.4675 C   0  0  0  0  0  0  0  0  0  0  0  0
  -33.1421   59.3994   63.0999 C   0  0  0  0  0  0  0  0  0  0  0  0
  -31.6988   59.5968   62.6838 C   0  0  0  0  0  0  0  0  0  0  0  0
  -31.3214   61.0550   62.4626 C   0  0  0  0  0  0  0  0  0  0  0  0
  -32.5174   61.9863   62.3791 C   0  0  0  0  0  0  0  0  0  0  0  0
  -33.4375   64.1869   61.5748 C   0  0  0  0  0  0  0  0  0  0  0  0
  -32.3533   63.1455   61.4144 C   0  0  0  0  0  0  0  0  0  0  0  0
  -41.5253   58.2080   65.7724 C   0  0  0  0  0  0  0  0  0  0  0  0
  -40.3897   58.8426   65.1429 O   0  0  0  0  0  0  0  0  0  0  0  0
  -40.4611   60.3056   64.4975 P   0  0  0  0  0  0  0  0  0  0  0  0
  -40.6669   60.1539   63.0410 O   0  0  0  0  0  0  0  0  0  0  0  0
  -41.4374   61.1060   65.2753 O   0  0  0  0  0  0  0  0  0  0  0  0
  -42.3269   60.7394   65.1524 H   0  0  0  0  0  0  0  0  0  0  0  0
  -39.0157   60.9391   64.7260 O   0  0  0  0  0  0  0  0  0  0  0  0
  -38.2498   61.4139   63.5999 C   0  0  0  0  0  0  0  0  0  0  0  0
  -36.1016   62.2832   62.9899 O   0  0  0  0  0  0  0  0  0  0  0  0
  -36.8505   61.7230   64.0726 C   0  0  0  0  0  0  0  0  0  0  0  0
  -36.1168   61.6728   62.2362 H   0  0  0  0  0  0  0  0  0  0  0  0
  -36.9378   61.9348   66.4738 O   0  0  0  0  0  0  0  0  0  0  0  0
  -36.8375   62.6611   65.2556 C   0  0  0  0  0  0  0  0  0  0  0  0
  -36.9277   62.5534   67.2209 H   0  0  0  0  0  0  0  0  0  0  0  0
  -43.8490   57.5912   65.2490 O   0  0  0  0  0  0  0  0  0  0  0  0
  -44.0022   59.7544   65.8470 O   0  0  0  0  0  0  0  0  0  0  0  0
  -44.3961   58.6224   65.9208 C   0  0  0  0  0  0  0  0  0  0  0  0
  -45.5632   58.1922   66.7544 C   0  0  0  0  0  0  0  0  0  0  0  0
  -46.8781   58.3467   65.9970 C   0  0  0  0  0  0  0  0  0  0  0  0
  -47.3363   59.7880   65.8450 C   0  0  0  0  0  0  0  0  0  0  0  0
  -47.2211   60.3173   64.4202 C   0  0  0  0  0  0  0  0  0  0  0  0
  -48.4687   61.0223   63.9211 C   0  0  0  0  0  0  0  0  0  0  0  0
  -49.6623   60.9579   64.8782 C   0  0  0  0  0  0  0  0  0  0  0  0
  -50.8200   60.0699   64.4171 C   0  0  0  0  0  0  0  0  0  0  0  0
  -50.3758   58.6673   64.1284 C   0  0  0  0  0  0  0  0  0  0  0  0
  -50.3500   58.0764   62.9495 C   0  0  0  0  0  0  0  0  0  0  0  0
  -50.7594   58.6876   61.6468 C   0  0  0  0  0  0  0  0  0  0  0  0
  -49.6575   59.5482   61.0355 C   0  0  0  0  0  0  0  0  0  0  0  0
  -49.1015   58.9936   59.7357 C   0  0  0  0  0  0  0  0  0  0  0  0
  -49.6949   57.6520   59.3418 C   0  0  0  0  0  0  0  0  0  0  0  0
  -48.8213   56.8255   58.4127 C   0  0  0  0  0  0  0  0  0  0  0  0
  -47.3341   56.9560   58.7043 C   0  0  0  0  0  0  0  0  0  0  0  0
  -46.4922   57.3130   57.4954 C   0  0  0  0  0  0  0  0  0  0  0  0
  -46.8286   58.6652   56.9315 C   0  0  0  0  0  0  0  0  0  0  0  0
 21 22  1  0  0  0
  4  5  2  0  0  0
 25 24  1  0  0  0
 25 26  2  0  0  0
 25 27  1  0  0  0
 25 29  1  0  0  0
 22 20  1  0  0  0
  3  5  1  0  0  0
  3  2  1  0  0  0
 20 19  1  0  0  0
 24 23  1  0  0  0
 19 18  1  0  0  0
 18 17  1  0  0  0
 27 28  1  0  0  0
 17 16  1  0  0  0
 29 30  1  0  0  0
 16 15  1  0  0  0
 34 35  1  0  0  0
 34 36  1  0  0  0
 15 14  1  0  0  0
 31 32  1  0  0  0
 31 33  1  0  0  0
 14 13  1  0  0  0
 37  1  1  0  0  0
 37 39  1  0  0  0
 13 12  1  0  0  0
 38 39  2  0  0  0
 12 11  1  0  0  0
 11 10  1  0  0  0
 10  9  1  0  0  0
  9  8  1  0  0  0
  8  7  1  0  0  0
  7  6  1  0  0  0
  6  5  1  0  0  0
  2  1  1  0  0  0
  1 23  1  0  0  0
 30 32  1  0  0  0
 32 35  1  0  0  0
 39 40  1  0  0  0
 40 41  1  0  0  0
 41 42  1  0  0  0
 42 43  1  0  0  0
 43 44  1  0  0  0
 44 45  1  0  0  0
 45 46  1  0  0  0
 46 47  1  0  0  0
 47 48  2  0  0  0
 48 49  1  0  0  0
 49 50  1  0  0  0
 50 51  1  0  0  0
 51 52  1  0  0  0
 52 53  1  0  0  0
 53 54  1  0  0  0
 54 55  1  0  0  0
 55 56  1  0  0  0
M  CHG 1  26  -1
M  END
> <minimizedAffinity>
-8.16596

> <CNNscore>
0.3702175319

> <CNNaffinity>
7.2652754784

> <CNN_VS>
2.6897323132

> <CNNaffinity_variance>
1.0561977625

$$$$
/media/chris/experiments/cd1a-new-docking/inputs/ligands/7sh4_ligand.pdb


 56 55  0  0  0  0  0  0  0  0999 V2000
  -39.7210   60.6225   63.1735 C   0  0  0  0  0  0  0  0  0  0  0  0
  -39.5052   60.1719   64.5905 C   0  0  0  0  0  0  0  0  0  0  0  0
  -40.4146   60.9879   65.3588 O   0  0  0  0  0  0  0  0  0  0  0  0
  -41.9308   60.9153   67.0004 O   0  0  0  0  0  0  0  0  0  0  0  0
  -41.2289   60.3539   66.2031 C   0  0  0  0  0  0  0  0  0  0  0  0
  -41.2417   58.8760   65.9379 C   0  0  0  0  0  0  0  0  0  0  0  0
  -42.6154   58.2369   66.0523 C   0  0  0  0  0  0  0  0  0  0  0  0
  -42.9321   57.3164   64.8924 C   0  0  0  0  0  0  0  0  0  0  0  0
  -41.8094   56.3722   64.5267 C   0  0  0  0  0  0  0  0  0  0  0  0
  -41.1342   56.7318   63.2186 C   0  0  0  0  0  0  0  0  0  0  0  0
  -41.3266   55.6891   62.1447 C   0  0  0  0  0  0  0  0  0  0  0  0
  -41.4423   56.2803   60.7645 C   0  0  0  0  0  0  0  0  0  0  0  0
  -41.6420   57.7797   60.7686 C   0  0  0  0  0  0  0  0  0  0  0  0
  -41.1607   58.4378   59.4913 C   0  0  0  0  0  0  0  0  0  0  0  0
  -39.7305   58.1019   59.1239 C   0  0  0  0  0  0  0  0  0  0  0  0
  -38.7165   59.1458   59.5774 C   0  0  0  0  0  0  0  0  0  0  0  0
  -37.6254   58.5955   60.4757 C   0  0  0  0  0  0  0  0  0  0  0  0
  -38.1303   57.5877   61.4879 C   0  0  0  0  0  0  0  0  0  0  0  0
  -37.4095   57.6544   62.8272 C   0  0  0  0  0  0  0  0  0  0  0  0
  -36.0128   58.2425   62.7370 C   0  0  0  0  0  0  0  0  0  0  0  0
  -34.4213   58.8279   64.5973 C   0  0  0  0  0  0  0  0  0  0  0  0
  -35.0356   57.7195   63.7728 C   0  0  0  0  0  0  0  0  0  0  0  0
  -38.4876   61.2614   62.5885 C   0  0  0  0  0  0  0  0  0  0  0  0
  -37.5200   61.4572   63.6439 O   0  0  0  0  0  0  0  0  0  0  0  0
  -36.4955   62.6867   63.6643 P   0  0  0  0  0  0  0  0  0  0  0  0
  -36.8303   63.5805   62.5347 O   0  0  0  0  0  0  0  0  0  0  0  0
  -36.4765   63.2490   65.0362 O   0  0  0  0  0  0  0  0  0  0  0  0
  -37.3394   63.6448   65.2354 H   0  0  0  0  0  0  0  0  0  0  0  0
  -35.0630   62.0477   63.3769 O   0  0  0  0  0  0  0  0  0  0  0  0
  -33.8663   62.7712   63.7298 C   0  0  0  0  0  0  0  0  0  0  0  0
  -32.9911   61.0656   62.2919 O   0  0  0  0  0  0  0  0  0  0  0  0
  -32.7821   62.4062   62.7457 C   0  0  0  0  0  0  0  0  0  0  0  0
  -33.0224   60.4672   63.0547 H   0  0  0  0  0  0  0  0  0  0  0  0
  -34.0408   63.6354   61.0954 O   0  0  0  0  0  0  0  0  0  0  0  0
  -32.7307   63.3523   61.5700 C   0  0  0  0  0  0  0  0  0  0  0  0
  -33.9872   64.2435   60.3417 H   0  0  0  0  0  0  0  0  0  0  0  0
  -40.8676   61.5361   63.1493 O   0  0  0  0  0  0  0  0  0  0  0  0
  -41.8710   61.4655   61.1372 O   0  0  0  0  0  0  0  0  0  0  0  0
  -41.8776   61.2263   62.3139 C   0  0  0  0  0  0  0  0  0  0  0  0
  -42.9991   60.5327   63.0233 C   0  0  0  0  0  0  0  0  0  0  0  0
  -43.9557   61.5313   63.6670 C   0  0  0  0  0  0  0  0  0  0  0  0
  -44.6887   60.9872   64.8822 C   0  0  0  0  0  0  0  0  0  0  0  0
  -45.9930   60.2764   64.5398 C   0  0  0  0  0  0  0  0  0  0  0  0
  -46.8280   59.9021   65.7503 C   0  0  0  0  0  0  0  0  0  0  0  0
  -47.3142   58.4501   65.7640 C   0  0  0  0  0  0  0  0  0  0  0  0
  -48.6201   58.1932   65.0089 C   0  0  0  0  0  0  0  0  0  0  0  0
  -49.8044   58.7884   65.7099 C   0  0  0  0  0  0  0  0  0  0  0  0
  -50.6361   59.6893   65.2239 C   0  0  0  0  0  0  0  0  0  0  0  0
  -50.5712   60.3073   63.8630 C   0  0  0  0  0  0  0  0  0  0  0  0
  -51.1550   59.4006   62.7833 C   0  0  0  0  0  0  0  0  0  0  0  0
  -50.1482   58.9885   61.7237 C   0  0  0  0  0  0  0  0  0  0  0  0
  -50.6631   57.9186   60.7765 C   0  0  0  0  0  0  0  0  0  0  0  0
  -49.9835   57.9008   59.4174 C   0  0  0  0  0  0  0  0  0  0  0  0
  -48.4678   57.8036   59.4994 C   0  0  0  0  0  0  0  0  0  0  0  0
  -47.7462   58.2660   58.2490 C   0  0  0  0  0  0  0  0  0  0  0  0
  -48.0761   57.4294   57.0445 C   0  0  0  0  0  0  0  0  0  0  0  0
 21 22  1  0  0  0
  4  5  2  0  0  0
 25 24  1  0  0  0
 25 26  2  0  0  0
 25 27  1  0  0  0
 25 29  1  0  0  0
 22 20  1  0  0  0
  3  5  1  0  0  0
  3  2  1  0  0  0
 20 19  1  0  0  0
 24 23  1  0  0  0
 19 18  1  0  0  0
 18 17  1  0  0  0
 27 28  1  0  0  0
 17 16  1  0  0  0
 29 30  1  0  0  0
 16 15  1  0  0  0
 34 35  1  0  0  0
 34 36  1  0  0  0
 15 14  1  0  0  0
 31 32  1  0  0  0
 31 33  1  0  0  0
 14 13  1  0  0  0
 37  1  1  0  0  0
 37 39  1  0  0  0
 13 12  1  0  0  0
 38 39  2  0  0  0
 12 11  1  0  0  0
 11 10  1  0  0  0
 10  9  1  0  0  0
  9  8  1  0  0  0
  8  7  1  0  0  0
  7  6  1  0  0  0
  6  5  1  0  0  0
  2  1  1  0  0  0
  1 23  1  0  0  0
 30 32  1  0  0  0
 32 35  1  0  0  0
 39 40  1  0  0  0
 40 41  1  0  0  0
 41 42  1  0  0  0
 42 43  1  0  0  0
 43 44  1  0  0  0
 44 45  1  0  0  0
 45 46  1  0  0  0
 46 47  1  0  0  0
 47 48  2  0  0  0
 48 49  1  0  0  0
 49 50  1  0  0  0
 50 51  1  0  0  0
 51 52  1  0  0  0
 52 53  1  0  0  0
 53 54  1  0  0  0
 54 55  1  0  0  0
 55 56  1  0  0  0
M  CHG 1  26  -1
M  END
> <minimizedAffinity>
-8.78894

> <CNNscore>
0.3508730829

> <CNNaffinity>
7.4773988724

> <CNN_VS>
2.6236178875

> <CNNaffinity_variance>
1.6519973278

$$$$
/media/chris/experiments/cd1a-new-docking/inputs/ligands/7sh4_ligand.pdb


 56 55  0  0  0  0  0  0  0  0999 V2000
  -40.1473   60.6456   63.5730 C   0  0  0  0  0  0  0  0  0  0  0  0
  -39.8296   60.2150   64.9771 C   0  0  0  0  0  0  0  0  0  0  0  0
  -40.7107   61.0136   65.7951 O   0  0  0  0  0  0  0  0  0  0  0  0
  -42.5767   60.9166   67.0229 O   0  0  0  0  0  0  0  0  0  0  0  0
  -41.6677   60.3671   66.4614 C   0  0  0  0  0  0  0  0  0  0  0  0
  -41.5255   58.8801   66.3086 C   0  0  0  0  0  0  0  0  0  0  0  0
  -42.8407   58.1216   66.3677 C   0  0  0  0  0  0  0  0  0  0  0  0
  -43.0676   57.2461   65.1533 C   0  0  0  0  0  0  0  0  0  0  0  0
  -41.8221   56.5550   64.6467 C   0  0  0  0  0  0  0  0  0  0  0  0
  -41.3996   57.0277   63.2703 C   0  0  0  0  0  0  0  0  0  0  0  0
  -41.2080   55.8987   62.2874 C   0  0  0  0  0  0  0  0  0  0  0  0
  -41.3837   56.3292   60.8551 C   0  0  0  0  0  0  0  0  0  0  0  0
  -41.5287   57.8259   60.6916 C   0  0  0  0  0  0  0  0  0  0  0  0
  -41.0719   58.3132   59.3314 C   0  0  0  0  0  0  0  0  0  0  0  0
  -39.5700   58.2904   59.1390 C   0  0  0  0  0  0  0  0  0  0  0  0
  -38.8170   59.2476   60.0559 C   0  0  0  0  0  0  0  0  0  0  0  0
  -37.5936   58.6374   60.7126 C   0  0  0  0  0  0  0  0  0  0  0  0
  -37.9146   57.4514   61.5989 C   0  0  0  0  0  0  0  0  0  0  0  0
  -37.7916   57.7503   63.0866 C   0  0  0  0  0  0  0  0  0  0  0  0
  -36.4262   58.2778   63.4896 C   0  0  0  0  0  0  0  0  0  0  0  0
  -34.0903   58.3598   62.5553 C   0  0  0  0  0  0  0  0  0  0  0  0
  -35.2534   57.4793   62.9526 C   0  0  0  0  0  0  0  0  0  0  0  0
  -38.9969   61.3782   62.9315 C   0  0  0  0  0  0  0  0  0  0  0  0
  -38.1327   61.8885   63.9713 O   0  0  0  0  0  0  0  0  0  0  0  0
  -36.6903   62.5140   63.6710 P   0  0  0  0  0  0  0  0  0  0  0  0
  -35.8755   61.4820   62.9944 O   0  0  0  0  0  0  0  0  0  0  0  0
  -36.8850   63.8215   62.9991 O   0  0  0  0  0  0  0  0  0  0  0  0
  -37.2786   63.6798   62.1239 H   0  0  0  0  0  0  0  0  0  0  0  0
  -36.0434   62.7902   65.1021 O   0  0  0  0  0  0  0  0  0  0  0  0
  -36.2138   64.0749   65.7351 C   0  0  0  0  0  0  0  0  0  0  0  0
  -36.3654   63.7778   68.1082 O   0  0  0  0  0  0  0  0  0  0  0  0
  -35.4573   64.0660   67.0408 C   0  0  0  0  0  0  0  0  0  0  0  0
  -37.0903   64.4223   68.0989 H   0  0  0  0  0  0  0  0  0  0  0  0
  -33.1883   63.6024   67.7153 O   0  0  0  0  0  0  0  0  0  0  0  0
  -34.3213   63.0713   67.0402 C   0  0  0  0  0  0  0  0  0  0  0  0
  -32.4704   62.9502   67.7045 H   0  0  0  0  0  0  0  0  0  0  0  0
  -41.3616   61.4667   63.6057 O   0  0  0  0  0  0  0  0  0  0  0  0
  -42.2735   61.4402   61.5495 O   0  0  0  0  0  0  0  0  0  0  0  0
  -42.3273   61.1642   62.7169 C   0  0  0  0  0  0  0  0  0  0  0  0
  -43.4649   60.4280   63.3539 C   0  0  0  0  0  0  0  0  0  0  0  0
  -44.4023   61.3784   64.0919 C   0  0  0  0  0  0  0  0  0  0  0  0
  -45.3583   60.6829   65.0472 C   0  0  0  0  0  0  0  0  0  0  0  0
  -45.8550   59.3345   64.5386 C   0  0  0  0  0  0  0  0  0  0  0  0
  -47.3547   59.2733   64.3161 C   0  0  0  0  0  0  0  0  0  0  0  0
  -48.1085   58.3760   65.3019 C   0  0  0  0  0  0  0  0  0  0  0  0
  -49.6323   58.3914   65.1629 C   0  0  0  0  0  0  0  0  0  0  0  0
  -50.1889   59.7831   65.2007 C   0  0  0  0  0  0  0  0  0  0  0  0
  -50.8452   60.3951   64.2341 C   0  0  0  0  0  0  0  0  0  0  0  0
  -51.1743   59.8235   62.8913 C   0  0  0  0  0  0  0  0  0  0  0  0
  -50.0605   60.0501   61.8731 C   0  0  0  0  0  0  0  0  0  0  0  0
  -49.3656   58.7726   61.4356 C   0  0  0  0  0  0  0  0  0  0  0  0
  -50.1930   57.9223   60.4872 C   0  0  0  0  0  0  0  0  0  0  0  0
  -49.5807   57.7395   59.1084 C   0  0  0  0  0  0  0  0  0  0  0  0
  -48.5469   56.6254   59.0477 C   0  0  0  0  0  0  0  0  0  0  0  0
  -47.1893   57.0638   58.5355 C   0  0  0  0  0  0  0  0  0  0  0  0
  -47.2793   58.1764   57.5288 C   0  0  0  0  0  0  0  0  0  0  0  0
 21 22  1  0  0  0
  4  5  2  0  0  0
 25 24  1  0  0  0
 25 26  2  0  0  0
 25 27  1  0  0  0
 25 29  1  0  0  0
 22 20  1  0  0  0
  3  5  1  0  0  0
  3  2  1  0  0  0
 20 19  1  0  0  0
 24 23  1  0  0  0
 19 18  1  0  0  0
 18 17  1  0  0  0
 27 28  1  0  0  0
 17 16  1  0  0  0
 29 30  1  0  0  0
 16 15  1  0  0  0
 34 35  1  0  0  0
 34 36  1  0  0  0
 15 14  1  0  0  0
 31 32  1  0  0  0
 31 33  1  0  0  0
 14 13  1  0  0  0
 37  1  1  0  0  0
 37 39  1  0  0  0
 13 12  1  0  0  0
 38 39  2  0  0  0
 12 11  1  0  0  0
 11 10  1  0  0  0
 10  9  1  0  0  0
  9  8  1  0  0  0
  8  7  1  0  0  0
  7  6  1  0  0  0
  6  5  1  0  0  0
  2  1  1  0  0  0
  1 23  1  0  0  0
 30 32  1  0  0  0
 32 35  1  0  0  0
 39 40  1  0  0  0
 40 41  1  0  0  0
 41 42  1  0  0  0
 42 43  1  0  0  0
 43 44  1  0  0  0
 44 45  1  0  0  0
 45 46  1  0  0  0
 46 47  1  0  0  0
 47 48  2  0  0  0
 48 49  1  0  0  0
 49 50  1  0  0  0
 50 51  1  0  0  0
 51 52  1  0  0  0
 52 53  1  0  0  0
 53 54  1  0  0  0
 54 55  1  0  0  0
 55 56  1  0  0  0
M  CHG 1  26  -1
M  END
> <minimizedAffinity>
-8.96869

> <CNNscore>
0.3467913568

> <CNNaffinity>
7.5106978416

> <CNN_VS>
2.6046450138

> <CNNaffinity_variance>
1.9589370489

$$$$
/media/chris/experiments/cd1a-new-docking/inputs/ligands/7sh4_ligand.pdb


 56 55  0  0  0  0  0  0  0  0999 V2000
  -40.5644   59.7859   65.1295 C   0  0  0  0  0  0  0  0  0  0  0  0
  -40.8542   58.5197   64.3743 C   0  0  0  0  0  0  0  0  0  0  0  0
  -41.6526   57.7413   65.2906 O   0  0  0  0  0  0  0  0  0  0  0  0
  -41.6865   55.6654   64.4610 O   0  0  0  0  0  0  0  0  0  0  0  0
  -42.2637   56.6647   64.7952 C   0  0  0  0  0  0  0  0  0  0  0  0
  -43.7564   56.8235   64.8310 C   0  0  0  0  0  0  0  0  0  0  0  0
  -44.2785   57.5003   66.0871 C   0  0  0  0  0  0  0  0  0  0  0  0
  -45.7899   57.4823   66.1777 C   0  0  0  0  0  0  0  0  0  0  0  0
  -46.3643   58.4921   67.1452 C   0  0  0  0  0  0  0  0  0  0  0  0
  -47.1319   59.6029   66.4572 C   0  0  0  0  0  0  0  0  0  0  0  0
  -47.6829   59.1989   65.1115 C   0  0  0  0  0  0  0  0  0  0  0  0
  -47.7827   60.3508   64.1467 C   0  0  0  0  0  0  0  0  0  0  0  0
  -49.2045   60.8017   63.8952 C   0  0  0  0  0  0  0  0  0  0  0  0
  -50.1802   59.6450   63.8161 C   0  0  0  0  0  0  0  0  0  0  0  0
  -50.5614   59.2535   62.4038 C   0  0  0  0  0  0  0  0  0  0  0  0
  -49.6685   59.8680   61.3319 C   0  0  0  0  0  0  0  0  0  0  0  0
  -49.5323   59.0192   60.0825 C   0  0  0  0  0  0  0  0  0  0  0  0
  -50.0074   57.5928   60.2689 C   0  0  0  0  0  0  0  0  0  0  0  0
  -48.9718   56.5483   59.8762 C   0  0  0  0  0  0  0  0  0  0  0  0
  -47.6470   57.1428   59.4330 C   0  0  0  0  0  0  0  0  0  0  0  0
  -47.0112   58.1469   57.2141 C   0  0  0  0  0  0  0  0  0  0  0  0
  -47.2840   56.8750   57.9846 C   0  0  0  0  0  0  0  0  0  0  0  0
  -39.1224   59.8712   65.5596 C   0  0  0  0  0  0  0  0  0  0  0  0
  -38.7069   61.2549   65.5219 O   0  0  0  0  0  0  0  0  0  0  0  0
  -37.1988   61.7154   65.7963 P   0  0  0  0  0  0  0  0  0  0  0  0
  -36.9106   61.5079   67.2318 O   0  0  0  0  0  0  0  0  0  0  0  0
  -36.3261   61.0599   64.7926 O   0  0  0  0  0  0  0  0  0  0  0  0
  -36.3220   60.1019   64.9442 H   0  0  0  0  0  0  0  0  0  0  0  0
  -37.1782   63.2846   65.5132 O   0  0  0  0  0  0  0  0  0  0  0  0
  -35.9654   63.9201   65.0600 C   0  0  0  0  0  0  0  0  0  0  0  0
  -36.0149   64.3020   67.4252 O   0  0  0  0  0  0  0  0  0  0  0  0
  -35.1722   64.3489   66.2700 C   0  0  0  0  0  0  0  0  0  0  0  0
  -36.7991   64.8530   67.2760 H   0  0  0  0  0  0  0  0  0  0  0  0
  -33.5155   63.5658   67.8385 O   0  0  0  0  0  0  0  0  0  0  0  0
  -33.9452   63.4957   66.4849 C   0  0  0  0  0  0  0  0  0  0  0  0
  -32.7278   63.0123   67.9567 H   0  0  0  0  0  0  0  0  0  0  0  0
  -41.4765   59.8588   66.2753 O   0  0  0  0  0  0  0  0  0  0  0  0
  -41.8253   62.0562   66.6074 O   0  0  0  0  0  0  0  0  0  0  0  0
  -42.2493   60.9577   66.3715 C   0  0  0  0  0  0  0  0  0  0  0  0
  -43.6947   60.6494   66.1313 C   0  0  0  0  0  0  0  0  0  0  0  0
  -44.2097   61.3331   64.8688 C   0  0  0  0  0  0  0  0  0  0  0  0
  -43.4726   60.9263   63.6033 C   0  0  0  0  0  0  0  0  0  0  0  0
  -42.7698   62.0864   62.9074 C   0  0  0  0  0  0  0  0  0  0  0  0
  -42.4077   61.8097   61.4601 C   0  0  0  0  0  0  0  0  0  0  0  0
  -41.3634   60.7069   61.2647 C   0  0  0  0  0  0  0  0  0  0  0  0
  -41.0557   60.3516   59.8085 C   0  0  0  0  0  0  0  0  0  0  0  0
  -41.0088   58.8695   59.5865 C   0  0  0  0  0  0  0  0  0  0  0  0
  -39.9405   58.1488   59.3056 C   0  0  0  0  0  0  0  0  0  0  0  0
  -38.5443   58.6636   59.1509 C   0  0  0  0  0  0  0  0  0  0  0  0
  -37.7469   58.5834   60.4495 C   0  0  0  0  0  0  0  0  0  0  0  0
  -38.3478   57.6396   61.4763 C   0  0  0  0  0  0  0  0  0  0  0  0
  -37.5838   57.5994   62.7885 C   0  0  0  0  0  0  0  0  0  0  0  0
  -36.1071   57.9378   62.6680 C   0  0  0  0  0  0  0  0  0  0  0  0
  -35.3421   57.7846   63.9737 C   0  0  0  0  0  0  0  0  0  0  0  0
  -33.9565   58.3990   63.9586 C   0  0  0  0  0  0  0  0  0  0  0  0
  -33.4945   58.7574   62.5738 C   0  0  0  0  0  0  0  0  0  0  0  0
 21 22  1  0  0  0
  4  5  2  0  0  0
 25 24  1  0  0  0
 25 26  2  0  0  0
 25 27  1  0  0  0
 25 29  1  0  0  0
 22 20  1  0  0  0
  3  5  1  0  0  0
  3  2  1  0  0  0
 20 19  1  0  0  0
 24 23  1  0  0  0
 19 18  1  0  0  0
 18 17  1  0  0  0
 27 28  1  0  0  0
 17 16  1  0  0  0
 29 30  1  0  0  0
 16 15  1  0  0  0
 34 35  1  0  0  0
 34 36  1  0  0  0
 15 14  1  0  0  0
 31 32  1  0  0  0
 31 33  1  0  0  0
 14 13  1  0  0  0
 37  1  1  0  0  0
 37 39  1  0  0  0
 13 12  1  0  0  0
 38 39  2  0  0  0
 12 11  1  0  0  0
 11 10  1  0  0  0
 10  9  1  0  0  0
  9  8  1  0  0  0
  8  7  1  0  0  0
  7  6  1  0  0  0
  6  5  1  0  0  0
  2  1  1  0  0  0
  1 23  1  0  0  0
 30 32  1  0  0  0
 32 35  1  0  0  0
 39 40  1  0  0  0
 40 41  1  0  0  0
 41 42  1  0  0  0
 42 43  1  0  0  0
 43 44  1  0  0  0
 44 45  1  0  0  0
 45 46  1  0  0  0
 46 47  1  0  0  0
 47 48  2  0  0  0
 48 49  1  0  0  0
 49 50  1  0  0  0
 50 51  1  0  0  0
 51 52  1  0  0  0
 52 53  1  0  0  0
 53 54  1  0  0  0
 54 55  1  0  0  0
 55 56  1  0  0  0
M  CHG 1  26  -1
M  END
> <minimizedAffinity>
-9.08950

> <CNNscore>
0.3149494827

> <CNNaffinity>
7.3366575241

> <CNN_VS>
2.3106765747

> <CNNaffinity_variance>
2.4301552773

$$$$
/media/chris/experiments/cd1a-new-docking/inputs/ligands/7sh4_ligand.pdb


 56 55  0  0  0  0  0  0  0  0999 V2000
  -40.9291   59.9630   65.1138 C   0  0  0  0  0  0  0  0  0  0  0  0
  -41.8402   59.7109   66.2817 C   0  0  0  0  0  0  0  0  0  0  0  0
  -41.9187   58.2718   66.3591 O   0  0  0  0  0  0  0  0  0  0  0  0
  -44.0025   57.6204   66.8414 O   0  0  0  0  0  0  0  0  0  0  0  0
  -43.0929   57.7140   66.0622 C   0  0  0  0  0  0  0  0  0  0  0  0
  -43.1642   57.3407   64.6095 C   0  0  0  0  0  0  0  0  0  0  0  0
  -42.1407   56.3012   64.1849 C   0  0  0  0  0  0  0  0  0  0  0  0
  -41.2946   56.7556   63.0141 C   0  0  0  0  0  0  0  0  0  0  0  0
  -40.9909   55.6668   62.0101 C   0  0  0  0  0  0  0  0  0  0  0  0
  -41.3577   56.0497   60.5906 C   0  0  0  0  0  0  0  0  0  0  0  0
  -41.7008   57.5116   60.4395 C   0  0  0  0  0  0  0  0  0  0  0  0
  -40.7012   58.2674   59.6044 C   0  0  0  0  0  0  0  0  0  0  0  0
  -40.8510   59.7694   59.7020 C   0  0  0  0  0  0  0  0  0  0  0  0
  -40.6075   60.2922   61.1033 C   0  0  0  0  0  0  0  0  0  0  0  0
  -39.4641   59.6120   61.8267 C   0  0  0  0  0  0  0  0  0  0  0  0
  -38.1436   59.6515   61.0661 C   0  0  0  0  0  0  0  0  0  0  0  0
  -37.2941   58.4073   61.2415 C   0  0  0  0  0  0  0  0  0  0  0  0
  -37.6856   57.5759   62.4459 C   0  0  0  0  0  0  0  0  0  0  0  0
  -36.8095   57.8199   63.6668 C   0  0  0  0  0  0  0  0  0  0  0  0
  -35.3354   57.9712   63.3365 C   0  0  0  0  0  0  0  0  0  0  0  0
  -33.0124   58.5552   64.1104 C   0  0  0  0  0  0  0  0  0  0  0  0
  -34.4720   58.4471   64.4895 C   0  0  0  0  0  0  0  0  0  0  0  0
  -39.4889   60.0962   65.5376 C   0  0  0  0  0  0  0  0  0  0  0  0
  -38.9084   61.2339   64.8616 O   0  0  0  0  0  0  0  0  0  0  0  0
  -37.3547   61.6043   64.9649 P   0  0  0  0  0  0  0  0  0  0  0  0
  -36.7290   60.6864   65.9410 O   0  0  0  0  0  0  0  0  0  0  0  0
  -36.8026   61.6662   63.5901 O   0  0  0  0  0  0  0  0  0  0  0  0
  -36.8185   60.7804   63.1951 H   0  0  0  0  0  0  0  0  0  0  0  0
  -37.3111   63.0761   65.5770 O   0  0  0  0  0  0  0  0  0  0  0  0
  -36.1291   63.8876   65.4211 C   0  0  0  0  0  0  0  0  0  0  0  0
  -36.2017   63.3071   67.7450 O   0  0  0  0  0  0  0  0  0  0  0  0
  -35.3805   63.8945   66.7313 C   0  0  0  0  0  0  0  0  0  0  0  0
  -37.0460   63.7823   67.7927 H   0  0  0  0  0  0  0  0  0  0  0  0
  -33.2762   63.4061   67.8045 O   0  0  0  0  0  0  0  0  0  0  0  0
  -34.0606   63.1664   66.6432 C   0  0  0  0  0  0  0  0  0  0  0  0
  -32.4339   62.9310   67.7295 H   0  0  0  0  0  0  0  0  0  0  0  0
  -41.4000   61.1608   64.4113 O   0  0  0  0  0  0  0  0  0  0  0  0
  -42.9338   62.3083   65.5906 O   0  0  0  0  0  0  0  0  0  0  0  0
  -42.6526   61.5748   64.6824 C   0  0  0  0  0  0  0  0  0  0  0  0
  -43.6476   61.0269   63.7068 C   0  0  0  0  0  0  0  0  0  0  0  0
  -45.0795   61.2992   64.1564 C   0  0  0  0  0  0  0  0  0  0  0  0
  -45.7400   60.1227   64.8563 C   0  0  0  0  0  0  0  0  0  0  0  0
  -47.1873   59.8966   64.4345 C   0  0  0  0  0  0  0  0  0  0  0  0
  -48.0123   59.1260   65.4484 C   0  0  0  0  0  0  0  0  0  0  0  0
  -49.1114   59.9460   66.1300 C   0  0  0  0  0  0  0  0  0  0  0  0
  -50.5424   59.5664   65.7430 C   0  0  0  0  0  0  0  0  0  0  0  0
  -51.0107   60.2997   64.5219 C   0  0  0  0  0  0  0  0  0  0  0  0
  -51.1364   59.8046   63.3060 C   0  0  0  0  0  0  0  0  0  0  0  0
  -50.8376   58.3988   62.8901 C   0  0  0  0  0  0  0  0  0  0  0  0
  -49.8478   58.3326   61.7306 C   0  0  0  0  0  0  0  0  0  0  0  0
  -50.4786   57.9137   60.4141 C   0  0  0  0  0  0  0  0  0  0  0  0
  -49.7397   58.4311   59.1920 C   0  0  0  0  0  0  0  0  0  0  0  0
  -48.2553   58.1065   59.1694 C   0  0  0  0  0  0  0  0  0  0  0  0
  -47.5665   58.5110   57.8749 C   0  0  0  0  0  0  0  0  0  0  0  0
  -47.6773   57.4850   56.7645 C   0  0  0  0  0  0  0  0  0  0  0  0
  -47.3625   56.0902   57.2281 C   0  0  0  0  0  0  0  0  0  0  0  0
 21 22  1  0  0  0
  4  5  2  0  0  0
 25 24  1  0  0  0
 25 26  2  0  0  0
 25 27  1  0  0  0
 25 29  1  0  0  0
 22 20  1  0  0  0
  3  5  1  0  0  0
  3  2  1  0  0  0
 20 19  1  0  0  0
 24 23  1  0  0  0
 19 18  1  0  0  0
 18 17  1  0  0  0
 27 28  1  0  0  0
 17 16  1  0  0  0
 29 30  1  0  0  0
 16 15  1  0  0  0
 34 35  1  0  0  0
 34 36  1  0  0  0
 15 14  1  0  0  0
 31 32  1  0  0  0
 31 33  1  0  0  0
 14 13  1  0  0  0
 37  1  1  0  0  0
 37 39  1  0  0  0
 13 12  1  0  0  0
 38 39  2  0  0  0
 12 11  1  0  0  0
 11 10  1  0  0  0
 10  9  1  0  0  0
  9  8  1  0  0  0
  8  7  1  0  0  0
  7  6  1  0  0  0
  6  5  1  0  0  0
  2  1  1  0  0  0
  1 23  1  0  0  0
 30 32  1  0  0  0
 32 35  1  0  0  0
 39 40  1  0  0  0
 40 41  1  0  0  0
 41 42  1  0  0  0
 42 43  1  0  0  0
 43 44  1  0  0  0
 44 45  1  0  0  0
 45 46  1  0  0  0
 46 47  1  0  0  0
 47 48  2  0  0  0
 48 49  1  0  0  0
 49 50  1  0  0  0
 50 51  1  0  0  0
 51 52  1  0  0  0
 52 53  1  0  0  0
 53 54  1  0  0  0
 54 55  1  0  0  0
 55 56  1  0  0  0
M  CHG 1  26  -1
M  END
> <minimizedAffinity>
-9.05072

> <CNNscore>
0.3129704595

> <CNNaffinity>
7.5010862350

> <CNN_VS>
2.3476183414

> <CNNaffinity_variance>
1.7117013931

$$$$
/media/chris/experiments/cd1a-new-docking/inputs/ligands/7sh4_ligand.pdb


 56 55  0  0  0  0  0  0  0  0999 V2000
  -39.7771   61.3863   63.3863 C   0  0  0  0  0  0  0  0  0  0  0  0
  -40.3767   60.7978   62.1406 C   0  0  0  0  0  0  0  0  0  0  0  0
  -41.7727   60.6346   62.4684 O   0  0  0  0  0  0  0  0  0  0  0  0
  -42.5680   62.2437   61.1353 O   0  0  0  0  0  0  0  0  0  0  0  0
  -42.5838   61.6533   62.1815 C   0  0  0  0  0  0  0  0  0  0  0  0
  -43.5863   61.8738   63.2774 C   0  0  0  0  0  0  0  0  0  0  0  0
  -43.8619   60.6423   64.1234 C   0  0  0  0  0  0  0  0  0  0  0  0
  -45.3180   60.5170   64.5195 C   0  0  0  0  0  0  0  0  0  0  0  0
  -45.7693   59.0975   64.7790 C   0  0  0  0  0  0  0  0  0  0  0  0
  -47.2729   58.9285   64.6963 C   0  0  0  0  0  0  0  0  0  0  0  0
  -47.9640   59.1008   66.0267 C   0  0  0  0  0  0  0  0  0  0  0  0
  -49.1362   60.0440   65.9632 C   0  0  0  0  0  0  0  0  0  0  0  0
  -50.3970   59.3998   65.4308 C   0  0  0  0  0  0  0  0  0  0  0  0
  -51.1776   60.3147   64.5089 C   0  0  0  0  0  0  0  0  0  0  0  0
  -51.0618   59.9586   63.0416 C   0  0  0  0  0  0  0  0  0  0  0  0
  -50.7916   58.4803   62.7860 C   0  0  0  0  0  0  0  0  0  0  0  0
  -49.4948   58.2097   62.0474 C   0  0  0  0  0  0  0  0  0  0  0  0
  -49.6388   58.2593   60.5401 C   0  0  0  0  0  0  0  0  0  0  0  0
  -48.4824   57.6075   59.7948 C   0  0  0  0  0  0  0  0  0  0  0  0
  -48.2484   58.1860   58.4107 C   0  0  0  0  0  0  0  0  0  0  0  0
  -47.1591   56.3028   57.1446 C   0  0  0  0  0  0  0  0  0  0  0  0
  -46.9919   57.6909   57.7199 C   0  0  0  0  0  0  0  0  0  0  0  0
  -38.2840   61.1884   63.4441 C   0  0  0  0  0  0  0  0  0  0  0  0
  -37.6600   62.4496   63.7731 O   0  0  0  0  0  0  0  0  0  0  0  0
  -36.5864   62.6053   64.9500 P   0  0  0  0  0  0  0  0  0  0  0  0
  -36.9170   63.8283   65.7126 O   0  0  0  0  0  0  0  0  0  0  0  0
  -36.5054   61.3141   65.6746 O   0  0  0  0  0  0  0  0  0  0  0  0
  -37.3455   61.1451   66.1290 H   0  0  0  0  0  0  0  0  0  0  0  0
  -35.1898   62.8451   64.2187 O   0  0  0  0  0  0  0  0  0  0  0  0
  -34.6083   64.1646   64.1886 C   0  0  0  0  0  0  0  0  0  0  0  0
  -34.4217   63.3908   61.9283 O   0  0  0  0  0  0  0  0  0  0  0  0
  -34.4090   64.5640   62.7472 C   0  0  0  0  0  0  0  0  0  0  0  0
  -33.7461   62.7698   62.2425 H   0  0  0  0  0  0  0  0  0  0  0  0
  -36.7272   65.2260   62.8240 O   0  0  0  0  0  0  0  0  0  0  0  0
  -35.4559   65.5427   62.2718 C   0  0  0  0  0  0  0  0  0  0  0  0
  -37.3853   65.8645   62.5077 H   0  0  0  0  0  0  0  0  0  0  0  0
  -40.4476   60.7916   64.5467 O   0  0  0  0  0  0  0  0  0  0  0  0
  -39.0057   60.2757   66.1945 O   0  0  0  0  0  0  0  0  0  0  0  0
  -39.7266   59.9358   65.2962 C   0  0  0  0  0  0  0  0  0  0  0  0
  -39.9453   58.5119   64.8883 C   0  0  0  0  0  0  0  0  0  0  0  0
  -41.4075   58.1051   65.0408 C   0  0  0  0  0  0  0  0  0  0  0  0
  -41.9635   57.3451   63.8477 C   0  0  0  0  0  0  0  0  0  0  0  0
  -40.8864   56.7839   62.9265 C   0  0  0  0  0  0  0  0  0  0  0  0
  -41.4108   55.8163   61.8818 C   0  0  0  0  0  0  0  0  0  0  0  0
  -41.2515   56.2932   60.4354 C   0  0  0  0  0  0  0  0  0  0  0  0
  -41.0486   57.8002   60.2649 C   0  0  0  0  0  0  0  0  0  0  0  0
  -39.7750   58.1204   59.5414 C   0  0  0  0  0  0  0  0  0  0  0  0
  -38.5592   58.1271   60.0528 C   0  0  0  0  0  0  0  0  0  0  0  0
  -38.1959   57.8128   61.4696 C   0  0  0  0  0  0  0  0  0  0  0  0
  -36.9233   58.5265   61.9164 C   0  0  0  0  0  0  0  0  0  0  0  0
  -35.9943   57.6551   62.7435 C   0  0  0  0  0  0  0  0  0  0  0  0
  -35.6831   58.2267   64.1159 C   0  0  0  0  0  0  0  0  0  0  0  0
  -34.2250   58.5991   64.3271 C   0  0  0  0  0  0  0  0  0  0  0  0
  -33.3706   58.4326   63.0797 C   0  0  0  0  0  0  0  0  0  0  0  0
  -32.0403   59.1573   63.1357 C   0  0  0  0  0  0  0  0  0  0  0  0
  -31.9172   60.2283   62.0882 C   0  0  0  0  0  0  0  0  0  0  0  0
 21 22  1  0  0  0
  4  5  2  0  0  0
 25 24  1  0  0  0
 25 26  2  0  0  0
 25 27  1  0  0  0
 25 29  1  0  0  0
 22 20  1  0  0  0
  3  5  1  0  0  0
  3  2  1  0  0  0
 20 19  1  0  0  0
 24 23  1  0  0  0
 19 18  1  0  0  0
 18 17  1  0  0  0
 27 28  1  0  0  0
 17 16  1  0  0  0
 29 30  1  0  0  0
 16 15  1  0  0  0
 34 35  1  0  0  0
 34 36  1  0  0  0
 15 14  1  0  0  0
 31 32  1  0  0  0
 31 33  1  0  0  0
 14 13  1  0  0  0
 37  1  1  0  0  0
 37 39  1  0  0  0
 13 12  1  0  0  0
 38 39  2  0  0  0
 12 11  1  0  0  0
 11 10  1  0  0  0
 10  9  1  0  0  0
  9  8  1  0  0  0
  8  7  1  0  0  0
  7  6  1  0  0  0
  6  5  1  0  0  0
  2  1  1  0  0  0
  1 23  1  0  0  0
 30 32  1  0  0  0
 32 35  1  0  0  0
 39 40  1  0  0  0
 40 41  1  0  0  0
 41 42  1  0  0  0
 42 43  1  0  0  0
 43 44  1  0  0  0
 44 45  1  0  0  0
 45 46  1  0  0  0
 46 47  1  0  0  0
 47 48  2  0  0  0
 48 49  1  0  0  0
 49 50  1  0  0  0
 50 51  1  0  0  0
 51 52  1  0  0  0
 52 53  1  0  0  0
 53 54  1  0  0  0
 54 55  1  0  0  0
 55 56  1  0  0  0
M  CHG 1  26  -1
M  END
> <minimizedAffinity>
-8.45125

> <CNNscore>
0.2939258516

> <CNNaffinity>
7.3088965416

> <CNN_VS>
2.1482737064

> <CNNaffinity_variance>
1.1883217096

$$$$
/media/chris/experiments/cd1a-new-docking/inputs/ligands/7sh4_ligand.pdb


 56 55  0  0  0  0  0  0  0  0999 V2000
  -40.9751   60.4244   63.8024 C   0  0  0  0  0  0  0  0  0  0  0  0
  -41.5901   59.0670   63.6097 C   0  0  0  0  0  0  0  0  0  0  0  0
  -41.3700   58.7791   62.2127 O   0  0  0  0  0  0  0  0  0  0  0  0
  -41.3683   56.5860   62.6478 O   0  0  0  0  0  0  0  0  0  0  0  0
  -41.3096   57.4938   61.8630 C   0  0  0  0  0  0  0  0  0  0  0  0
  -41.2866   57.3383   60.3697 C   0  0  0  0  0  0  0  0  0  0  0  0
  -40.7115   58.5344   59.6301 C   0  0  0  0  0  0  0  0  0  0  0  0
  -39.2521   58.3539   59.2687 C   0  0  0  0  0  0  0  0  0  0  0  0
  -38.3535   59.4727   59.7446 C   0  0  0  0  0  0  0  0  0  0  0  0
  -38.1229   59.4524   61.2421 C   0  0  0  0  0  0  0  0  0  0  0  0
  -37.2078   58.3379   61.6871 C   0  0  0  0  0  0  0  0  0  0  0  0
  -37.7146   57.6110   62.9046 C   0  0  0  0  0  0  0  0  0  0  0  0
  -36.8888   57.8696   64.1453 C   0  0  0  0  0  0  0  0  0  0  0  0
  -35.3985   57.7841   63.8849 C   0  0  0  0  0  0  0  0  0  0  0  0
  -34.5884   58.8643   64.5706 C   0  0  0  0  0  0  0  0  0  0  0  0
  -33.0910   58.5811   64.6079 C   0  0  0  0  0  0  0  0  0  0  0  0
  -32.4869   58.2792   63.2499 C   0  0  0  0  0  0  0  0  0  0  0  0
  -32.5774   59.4389   62.2794 C   0  0  0  0  0  0  0  0  0  0  0  0
  -31.6872   60.6167   62.6512 C   0  0  0  0  0  0  0  0  0  0  0  0
  -32.1643   61.9418   62.0842 C   0  0  0  0  0  0  0  0  0  0  0  0
  -33.9144   63.7423   62.2610 C   0  0  0  0  0  0  0  0  0  0  0  0
  -33.0634   62.7409   63.0085 C   0  0  0  0  0  0  0  0  0  0  0  0
  -39.7493   60.3714   64.6777 C   0  0  0  0  0  0  0  0  0  0  0  0
  -38.9284   61.5277   64.3990 O   0  0  0  0  0  0  0  0  0  0  0  0
  -37.4143   61.6580   64.9014 P   0  0  0  0  0  0  0  0  0  0  0  0
  -37.2093   60.6839   65.9949 O   0  0  0  0  0  0  0  0  0  0  0  0
  -36.5272   61.5942   63.7149 O   0  0  0  0  0  0  0  0  0  0  0  0
  -36.5796   60.7102   63.3192 H   0  0  0  0  0  0  0  0  0  0  0  0
  -37.2994   63.1229   65.5207 O   0  0  0  0  0  0  0  0  0  0  0  0
  -36.1621   63.9521   65.2061 C   0  0  0  0  0  0  0  0  0  0  0  0
  -36.2056   63.9160   67.6018 O   0  0  0  0  0  0  0  0  0  0  0  0
  -35.3674   64.1694   66.4703 C   0  0  0  0  0  0  0  0  0  0  0  0
  -36.9940   64.4789   67.5527 H   0  0  0  0  0  0  0  0  0  0  0  0
  -33.5247   63.3814   67.8126 O   0  0  0  0  0  0  0  0  0  0  0  0
  -34.1340   63.3007   66.5305 C   0  0  0  0  0  0  0  0  0  0  0  0
  -32.7357   62.8177   67.8317 H   0  0  0  0  0  0  0  0  0  0  0  0
  -41.9966   61.3197   64.3546 O   0  0  0  0  0  0  0  0  0  0  0  0
  -42.8911   61.9601   62.3924 O   0  0  0  0  0  0  0  0  0  0  0  0
  -43.0212   61.6498   63.5451 C   0  0  0  0  0  0  0  0  0  0  0  0
  -44.3406   61.5657   64.2481 C   0  0  0  0  0  0  0  0  0  0  0  0
  -44.8345   60.1255   64.3394 C   0  0  0  0  0  0  0  0  0  0  0  0
  -45.7429   59.8596   65.5286 C   0  0  0  0  0  0  0  0  0  0  0  0
  -46.7512   58.7419   65.2878 C   0  0  0  0  0  0  0  0  0  0  0  0
  -48.1461   59.0483   65.8004 C   0  0  0  0  0  0  0  0  0  0  0  0
  -48.6442   60.4616   65.4849 C   0  0  0  0  0  0  0  0  0  0  0  0
  -48.8971   60.7476   64.0031 C   0  0  0  0  0  0  0  0  0  0  0  0
  -50.3444   60.6036   63.6390 C   0  0  0  0  0  0  0  0  0  0  0  0
  -50.9310   59.5262   63.1545 C   0  0  0  0  0  0  0  0  0  0  0  0
  -50.2703   58.2150   62.8674 C   0  0  0  0  0  0  0  0  0  0  0  0
  -49.2326   58.3175   61.7533 C   0  0  0  0  0  0  0  0  0  0  0  0
  -49.7164   59.0909   60.5392 C   0  0  0  0  0  0  0  0  0  0  0  0
  -50.2761   58.2081   59.4371 C   0  0  0  0  0  0  0  0  0  0  0  0
  -49.2248   57.5915   58.5293 C   0  0  0  0  0  0  0  0  0  0  0  0
  -47.9818   58.4534   58.3694 C   0  0  0  0  0  0  0  0  0  0  0  0
  -47.0007   57.9438   57.3323 C   0  0  0  0  0  0  0  0  0  0  0  0
  -47.0911   56.4575   57.1273 C   0  0  0  0  0  0  0  0  0  0  0  0
 21 22  1  0  0  0
  4  5  2  0  0  0
 25 24  1  0  0  0
 25 26  2  0  0  0
 25 27  1  0  0  0
 25 29  1  0  0  0
 22 20  1  0  0  0
  3  5  1  0  0  0
  3  2  1  0  0  0
 20 19  1  0  0  0
 24 23  1  0  0  0
 19 18  1  0  0  0
 18 17  1  0  0  0
 27 28  1  0  0  0
 17 16  1  0  0  0
 29 30  1  0  0  0
 16 15  1  0  0  0
 34 35  1  0  0  0
 34 36  1  0  0  0
 15 14  1  0  0  0
 31 32  1  0  0  0
 31 33  1  0  0  0
 14 13  1  0  0  0
 37  1  1  0  0  0
 37 39  1  0  0  0
 13 12  1  0  0  0
 38 39  2  0  0  0
 12 11  1  0  0  0
 11 10  1  0  0  0
 10  9  1  0  0  0
  9  8  1  0  0  0
  8  7  1  0  0  0
  7  6  1  0  0  0
  6  5  1  0  0  0
  2  1  1  0  0  0
  1 23  1  0  0  0
 30 32  1  0  0  0
 32 35  1  0  0  0
 39 40  1  0  0  0
 40 41  1  0  0  0
 41 42  1  0  0  0
 42 43  1  0  0  0
 43 44  1  0  0  0
 44 45  1  0  0  0
 45 46  1  0  0  0
 46 47  1  0  0  0
 47 48  2  0  0  0
 48 49  1  0  0  0
 49 50  1  0  0  0
 50 51  1  0  0  0
 51 52  1  0  0  0
 52 53  1  0  0  0
 53 54  1  0  0  0
 54 55  1  0  0  0
 55 56  1  0  0  0
M  CHG 1  26  -1
M  END
> <minimizedAffinity>
-8.82450

> <CNNscore>
0.2661283612

> <CNNaffinity>
7.1250066757

> <CNN_VS>
1.8961663246

> <CNNaffinity_variance>
1.0006999969

$$$$
