/media/chris/experiments/cd1a-new-docking/inputs/ligands/7sh4_ligand.pdb


 56 55  0  0  0  0  0  0  0  0999 V2000
  -41.8529   58.2926   63.3819 C   0  0  0  0  0  0  0  0  0  0  0  0
  -41.8569   57.9388   61.9216 C   0  0  0  0  0  0  0  0  0  0  0  0
  -41.3515   59.1253   61.2735 O   0  0  0  0  0  0  0  0  0  0  0  0
  -41.3132   58.3260   59.1856 O   0  0  0  0  0  0  0  0  0  0  0  0
  -40.8080   58.9689   60.0659 C   0  0  0  0  0  0  0  0  0  0  0  0
  -39.5635   59.7963   59.9199 C   0  0  0  0  0  0  0  0  0  0  0  0
  -38.2831   58.9824   59.8397 C   0  0  0  0  0  0  0  0  0  0  0  0
  -38.0796   58.0893   61.0453 C   0  0  0  0  0  0  0  0  0  0  0  0
  -36.8220   58.3856   61.8303 C   0  0  0  0  0  0  0  0  0  0  0  0
  -36.8161   57.7472   63.2046 C   0  0  0  0  0  0  0  0  0  0  0  0
  -35.9477   58.4813   64.1968 C   0  0  0  0  0  0  0  0  0  0  0  0
  -34.6556   57.7658   64.4904 C   0  0  0  0  0  0  0  0  0  0  0  0
  -33.4276   58.5716   64.1291 C   0  0  0  0  0  0  0  0  0  0  0  0
  -33.2330   58.7027   62.6321 C   0  0  0  0  0  0  0  0  0  0  0  0
  -32.3942   59.8942   62.2200 C   0  0  0  0  0  0  0  0  0  0  0  0
  -32.3868   61.0254   63.2420 C   0  0  0  0  0  0  0  0  0  0  0  0
  -33.3166   62.1731   62.8976 C   0  0  0  0  0  0  0  0  0  0  0  0
  -32.6132   63.3392   62.2340 C   0  0  0  0  0  0  0  0  0  0  0  0
  -31.9575   64.2971   63.2190 C   0  0  0  0  0  0  0  0  0  0  0  0
  -32.8890   64.7656   64.3227 C   0  0  0  0  0  0  0  0  0  0  0  0
  -33.5195   64.6403   66.7563 C   0  0  0  0  0  0  0  0  0  0  0  0
  -32.4343   64.4177   65.7274 C   0  0  0  0  0  0  0  0  0  0  0  0
  -40.4998   58.0820   64.0117 C   0  0  0  0  0  0  0  0  0  0  0  0
  -40.3326   59.0357   65.0844 O   0  0  0  0  0  0  0  0  0  0  0  0
  -39.9614   60.5717   64.8295 P   0  0  0  0  0  0  0  0  0  0  0  0
  -41.0117   61.1601   63.9707 O   0  0  0  0  0  0  0  0  0  0  0  0
  -39.6780   61.2019   66.1413 O   0  0  0  0  0  0  0  0  0  0  0  0
  -40.4914   61.2300   66.6691 H   0  0  0  0  0  0  0  0  0  0  0  0
  -38.6027   60.5449   63.9950 O   0  0  0  0  0  0  0  0  0  0  0  0
  -38.3317   61.5767   63.0245 C   0  0  0  0  0  0  0  0  0  0  0  0
  -37.0347   63.5915   62.9942 O   0  0  0  0  0  0  0  0  0  0  0  0
  -37.0034   62.2088   63.3605 C   0  0  0  0  0  0  0  0  0  0  0  0
  -37.2615   63.6720   62.0546 H   0  0  0  0  0  0  0  0  0  0  0  0
  -37.3171   63.0519   65.5986 O   0  0  0  0  0  0  0  0  0  0  0  0
  -36.6513   62.0646   64.8217 C   0  0  0  0  0  0  0  0  0  0  0  0
  -37.0789   62.9433   66.5325 H   0  0  0  0  0  0  0  0  0  0  0  0
  -42.8907   57.5021   64.0511 O   0  0  0  0  0  0  0  0  0  0  0  0
  -42.9144   57.3610   66.2960 O   0  0  0  0  0  0  0  0  0  0  0  0
  -43.2636   57.9013   65.2822 C   0  0  0  0  0  0  0  0  0  0  0  0
  -44.1486   59.1082   65.2359 C   0  0  0  0  0  0  0  0  0  0  0  0
  -45.6162   58.7321   65.4138 C   0  0  0  0  0  0  0  0  0  0  0  0
  -46.5441   59.3701   64.3929 C   0  0  0  0  0  0  0  0  0  0  0  0
  -47.5508   60.3375   65.0046 C   0  0  0  0  0  0  0  0  0  0  0  0
  -48.3269   59.7620   66.1748 C   0  0  0  0  0  0  0  0  0  0  0  0
  -49.8405   59.6809   65.9567 C   0  0  0  0  0  0  0  0  0  0  0  0
  -50.2817   58.8410   64.7561 C   0  0  0  0  0  0  0  0  0  0  0  0
  -51.1302   59.6244   63.7999 C   0  0  0  0  0  0  0  0  0  0  0  0
  -50.8000   59.9990   62.5793 C   0  0  0  0  0  0  0  0  0  0  0  0
  -49.5024   59.7170   61.8900 C   0  0  0  0  0  0  0  0  0  0  0  0
  -49.6639   59.5769   60.3791 C   0  0  0  0  0  0  0  0  0  0  0  0
  -50.1881   58.2192   59.9454 C   0  0  0  0  0  0  0  0  0  0  0  0
  -49.4854   57.0515   60.6162 C   0  0  0  0  0  0  0  0  0  0  0  0
  -48.6074   56.2280   59.6886 C   0  0  0  0  0  0  0  0  0  0  0  0
  -47.4679   57.0229   59.0694 C   0  0  0  0  0  0  0  0  0  0  0  0
  -47.5900   57.2214   57.5716 C   0  0  0  0  0  0  0  0  0  0  0  0
  -46.8751   58.4522   57.0881 C   0  0  0  0  0  0  0  0  0  0  0  0
 21 22  1  0  0  0
  4  5  2  0  0  0
 25 24  1  0  0  0
 25 26  2  0  0  0
 25 27  1  0  0  0
 25 29  1  0  0  0
 22 20  1  0  0  0
  3  5  1  0  0  0
  3  2  1  0  0  0
 20 19  1  0  0  0
 24 23  1  0  0  0
 19 18  1  0  0  0
 18 17  1  0  0  0
 27 28  1  0  0  0
 17 16  1  0  0  0
 29 30  1  0  0  0
 16 15  1  0  0  0
 34 35  1  0  0  0
 34 36  1  0  0  0
 15 14  1  0  0  0
 31 32  1  0  0  0
 31 33  1  0  0  0
 14 13  1  0  0  0
 37  1  1  0  0  0
 37 39  1  0  0  0
 13 12  1  0  0  0
 38 39  2  0  0  0
 12 11  1  0  0  0
 11 10  1  0  0  0
 10  9  1  0  0  0
  9  8  1  0  0  0
  8  7  1  0  0  0
  7  6  1  0  0  0
  6  5  1  0  0  0
  2  1  1  0  0  0
  1 23  1  0  0  0
 30 32  1  0  0  0
 32 35  1  0  0  0
 39 40  1  0  0  0
 40 41  1  0  0  0
 41 42  1  0  0  0
 42 43  1  0  0  0
 43 44  1  0  0  0
 44 45  1  0  0  0
 45 46  1  0  0  0
 46 47  1  0  0  0
 47 48  2  0  0  0
 48 49  1  0  0  0
 49 50  1  0  0  0
 50 51  1  0  0  0
 51 52  1  0  0  0
 52 53  1  0  0  0
 53 54  1  0  0  0
 54 55  1  0  0  0
 55 56  1  0  0  0
M  CHG 1  26  -1
M  END
> <minimizedAffinity>
-8.08695

> <CNNscore>
0.3818766475

> <CNNaffinity>
7.0097184181

> <CNN_VS>
2.6768476963

> <CNNaffinity_variance>
1.2971909046

$$$$
/media/chris/experiments/cd1a-new-docking/inputs/ligands/7sh4_ligand.pdb


 56 55  0  0  0  0  0  0  0  0999 V2000
  -40.0028   59.9969   65.1524 C   0  0  0  0  0  0  0  0  0  0  0  0
  -40.1907   60.7271   63.8527 C   0  0  0  0  0  0  0  0  0  0  0  0
  -41.4109   61.4737   64.0449 O   0  0  0  0  0  0  0  0  0  0  0  0
  -42.2660   60.6190   62.1640 O   0  0  0  0  0  0  0  0  0  0  0  0
  -42.3989   61.2500   63.1778 C   0  0  0  0  0  0  0  0  0  0  0  0
  -43.7056   61.7773   63.6964 C   0  0  0  0  0  0  0  0  0  0  0  0
  -44.6913   60.6968   64.1081 C   0  0  0  0  0  0  0  0  0  0  0  0
  -44.6436   60.3939   65.5909 C   0  0  0  0  0  0  0  0  0  0  0  0
  -45.8017   59.5602   66.0901 C   0  0  0  0  0  0  0  0  0  0  0  0
  -46.7170   59.0897   64.9779 C   0  0  0  0  0  0  0  0  0  0  0  0
  -48.0451   58.5767   65.4786 C   0  0  0  0  0  0  0  0  0  0  0  0
  -48.9715   59.6776   65.9231 C   0  0  0  0  0  0  0  0  0  0  0  0
  -50.4028   59.4740   65.4785 C   0  0  0  0  0  0  0  0  0  0  0  0
  -50.8059   60.4090   64.3563 C   0  0  0  0  0  0  0  0  0  0  0  0
  -51.3646   59.7061   63.1369 C   0  0  0  0  0  0  0  0  0  0  0  0
  -50.6383   58.4129   62.7845 C   0  0  0  0  0  0  0  0  0  0  0  0
  -49.3601   58.6197   61.9947 C   0  0  0  0  0  0  0  0  0  0  0  0
  -49.5959   59.1553   60.5974 C   0  0  0  0  0  0  0  0  0  0  0  0
  -50.2041   58.1336   59.6467 C   0  0  0  0  0  0  0  0  0  0  0  0
  -49.2629   57.7004   58.5370 C   0  0  0  0  0  0  0  0  0  0  0  0
  -47.0978   58.0554   57.3033 C   0  0  0  0  0  0  0  0  0  0  0  0
  -47.9538   58.4645   58.4806 C   0  0  0  0  0  0  0  0  0  0  0  0
  -38.6324   60.2250   65.7369 C   0  0  0  0  0  0  0  0  0  0  0  0
  -38.2681   61.6098   65.5419 O   0  0  0  0  0  0  0  0  0  0  0  0
  -36.7543   62.1258   65.6060 P   0  0  0  0  0  0  0  0  0  0  0  0
  -36.4081   62.3539   67.0255 O   0  0  0  0  0  0  0  0  0  0  0  0
  -35.9164   61.1982   64.8086 O   0  0  0  0  0  0  0  0  0  0  0  0
  -35.8980   60.3286   65.2381 H   0  0  0  0  0  0  0  0  0  0  0  0
  -36.7584   63.5395   64.8683 O   0  0  0  0  0  0  0  0  0  0  0  0
  -35.5143   64.2209   64.6079 C   0  0  0  0  0  0  0  0  0  0  0  0
  -34.3844   62.9869   62.8923 O   0  0  0  0  0  0  0  0  0  0  0  0
  -35.2188   64.1242   63.1313 C   0  0  0  0  0  0  0  0  0  0  0  0
  -33.5812   63.0561   63.4319 H   0  0  0  0  0  0  0  0  0  0  0  0
  -36.8516   62.6759   62.1043 O   0  0  0  0  0  0  0  0  0  0  0  0
  -36.4750   64.0331   62.2985 C   0  0  0  0  0  0  0  0  0  0  0  0
  -37.6589   62.6379   61.5681 H   0  0  0  0  0  0  0  0  0  0  0  0
  -40.2637   58.5724   64.9233 O   0  0  0  0  0  0  0  0  0  0  0  0
  -41.9964   58.1674   66.2995 O   0  0  0  0  0  0  0  0  0  0  0  0
  -41.5024   58.1253   65.2059 C   0  0  0  0  0  0  0  0  0  0  0  0
  -42.1948   57.5880   63.9918 C   0  0  0  0  0  0  0  0  0  0  0  0
  -41.7525   56.1615   63.6817 C   0  0  0  0  0  0  0  0  0  0  0  0
  -41.1617   55.9877   62.2921 C   0  0  0  0  0  0  0  0  0  0  0  0
  -41.5792   57.0774   61.3114 C   0  0  0  0  0  0  0  0  0  0  0  0
  -40.8863   56.9933   59.9640 C   0  0  0  0  0  0  0  0  0  0  0  0
  -40.5518   58.3486   59.3344 C   0  0  0  0  0  0  0  0  0  0  0  0
  -39.6647   59.2607   60.1845 C   0  0  0  0  0  0  0  0  0  0  0  0
  -38.2106   58.9217   60.0477 C   0  0  0  0  0  0  0  0  0  0  0  0
  -37.4182   58.4569   60.9939 C   0  0  0  0  0  0  0  0  0  0  0  0
  -37.8083   58.1679   62.4090 C   0  0  0  0  0  0  0  0  0  0  0  0
  -36.6823   57.5092   63.2007 C   0  0  0  0  0  0  0  0  0  0  0  0
  -35.3051   58.0597   62.8746 C   0  0  0  0  0  0  0  0  0  0  0  0
  -34.4437   58.3127   64.1000 C   0  0  0  0  0  0  0  0  0  0  0  0
  -32.9569   58.4354   63.8100 C   0  0  0  0  0  0  0  0  0  0  0  0
  -32.6536   59.0185   62.4383 C   0  0  0  0  0  0  0  0  0  0  0  0
  -32.1174   60.4359   62.4695 C   0  0  0  0  0  0  0  0  0  0  0  0
  -31.0644   60.6824   61.4254 C   0  0  0  0  0  0  0  0  0  0  0  0
 21 22  1  0  0  0
  4  5  2  0  0  0
 25 24  1  0  0  0
 25 26  2  0  0  0
 25 27  1  0  0  0
 25 29  1  0  0  0
 22 20  1  0  0  0
  3  5  1  0  0  0
  3  2  1  0  0  0
 20 19  1  0  0  0
 24 23  1  0  0  0
 19 18  1  0  0  0
 18 17  1  0  0  0
 27 28  1  0  0  0
 17 16  1  0  0  0
 29 30  1  0  0  0
 16 15  1  0  0  0
 34 35  1  0  0  0
 34 36  1  0  0  0
 15 14  1  0  0  0
 31 32  1  0  0  0
 31 33  1  0  0  0
 14 13  1  0  0  0
 37  1  1  0  0  0
 37 39  1  0  0  0
 13 12  1  0  0  0
 38 39  2  0  0  0
 12 11  1  0  0  0
 11 10  1  0  0  0
 10  9  1  0  0  0
  9  8  1  0  0  0
  8  7  1  0  0  0
  7  6  1  0  0  0
  6  5  1  0  0  0
  2  1  1  0  0  0
  1 23  1  0  0  0
 30 32  1  0  0  0
 32 35  1  0  0  0
 39 40  1  0  0  0
 40 41  1  0  0  0
 41 42  1  0  0  0
 42 43  1  0  0  0
 43 44  1  0  0  0
 44 45  1  0  0  0
 45 46  1  0  0  0
 46 47  1  0  0  0
 47 48  2  0  0  0
 48 49  1  0  0  0
 49 50  1  0  0  0
 50 51  1  0  0  0
 51 52  1  0  0  0
 52 53  1  0  0  0
 53 54  1  0  0  0
 54 55  1  0  0  0
 55 56  1  0  0  0
M  CHG 1  26  -1
M  END
> <minimizedAffinity>
-8.58693

> <CNNscore>
0.3124080002

> <CNNaffinity>
7.3432474136

> <CNN_VS>
2.2940893173

> <CNNaffinity_variance>
1.4973720312

$$$$
/media/chris/experiments/cd1a-new-docking/inputs/ligands/7sh4_ligand.pdb


 56 55  0  0  0  0  0  0  0  0999 V2000
  -40.4762   60.4308   65.4646 C   0  0  0  0  0  0  0  0  0  0  0  0
  -40.8399   60.2383   64.0195 C   0  0  0  0  0  0  0  0  0  0  0  0
  -39.9726   61.1528   63.3163 O   0  0  0  0  0  0  0  0  0  0  0  0
  -38.5249   60.8739   61.6352 O   0  0  0  0  0  0  0  0  0  0  0  0
  -39.6468   60.8336   62.0633 C   0  0  0  0  0  0  0  0  0  0  0  0
  -40.8344   60.3048   61.3118 C   0  0  0  0  0  0  0  0  0  0  0  0
  -40.6038   60.1470   59.8184 C   0  0  0  0  0  0  0  0  0  0  0  0
  -40.5049   58.6980   59.3904 C   0  0  0  0  0  0  0  0  0  0  0  0
  -41.6011   57.8137   59.9401 C   0  0  0  0  0  0  0  0  0  0  0  0
  -41.0710   56.6035   60.6822 C   0  0  0  0  0  0  0  0  0  0  0  0
  -41.1236   56.7568   62.1826 C   0  0  0  0  0  0  0  0  0  0  0  0
  -39.7773   57.0458   62.7922 C   0  0  0  0  0  0  0  0  0  0  0  0
  -38.6450   57.0137   61.7897 C   0  0  0  0  0  0  0  0  0  0  0  0
  -37.3776   57.6551   62.3175 C   0  0  0  0  0  0  0  0  0  0  0  0
  -37.4609   58.0874   63.7663 C   0  0  0  0  0  0  0  0  0  0  0  0
  -36.3008   57.5944   64.6239 C   0  0  0  0  0  0  0  0  0  0  0  0
  -34.9380   57.7883   63.9872 C   0  0  0  0  0  0  0  0  0  0  0  0
  -33.9684   58.5555   64.8625 C   0  0  0  0  0  0  0  0  0  0  0  0
  -32.5363   58.5395   64.3463 C   0  0  0  0  0  0  0  0  0  0  0  0
  -32.4198   58.8610   62.8670 C   0  0  0  0  0  0  0  0  0  0  0  0
  -32.4602   61.3752   62.7542 C   0  0  0  0  0  0  0  0  0  0  0  0
  -31.6387   60.1223   62.5511 C   0  0  0  0  0  0  0  0  0  0  0  0
  -38.9916   60.3107   65.6956 C   0  0  0  0  0  0  0  0  0  0  0  0
  -38.4466   61.6312   65.9145 O   0  0  0  0  0  0  0  0  0  0  0  0
  -37.1555   62.1759   65.1409 P   0  0  0  0  0  0  0  0  0  0  0  0
  -36.1595   61.0842   65.0873 O   0  0  0  0  0  0  0  0  0  0  0  0
  -37.6053   62.7929   63.8699 O   0  0  0  0  0  0  0  0  0  0  0  0
  -37.9690   62.1070   63.2883 H   0  0  0  0  0  0  0  0  0  0  0  0
  -36.5661   63.3334   66.0659 O   0  0  0  0  0  0  0  0  0  0  0  0
  -35.5349   63.0330   67.0284 C   0  0  0  0  0  0  0  0  0  0  0  0
  -33.3322   63.6717   67.7230 O   0  0  0  0  0  0  0  0  0  0  0  0
  -34.3490   63.9230   66.7484 C   0  0  0  0  0  0  0  0  0  0  0  0
  -33.6973   63.8020   68.6122 H   0  0  0  0  0  0  0  0  0  0  0  0
  -34.4303   64.6040   64.4358 O   0  0  0  0  0  0  0  0  0  0  0  0
  -33.7974   63.7248   65.3568 C   0  0  0  0  0  0  0  0  0  0  0  0
  -34.0635   64.4621   63.5492 H   0  0  0  0  0  0  0  0  0  0  0  0
  -41.2290   59.4587   66.2635 O   0  0  0  0  0  0  0  0  0  0  0  0
  -43.0070   58.2181   65.6639 O   0  0  0  0  0  0  0  0  0  0  0  0
  -42.5259   59.2814   65.9462 C   0  0  0  0  0  0  0  0  0  0  0  0
  -43.2977   60.5630   66.0056 C   0  0  0  0  0  0  0  0  0  0  0  0
  -44.8020   60.3112   65.9808 C   0  0  0  0  0  0  0  0  0  0  0  0
  -45.3978   60.2750   64.5830 C   0  0  0  0  0  0  0  0  0  0  0  0
  -46.9110   60.4575   64.5603 C   0  0  0  0  0  0  0  0  0  0  0  0
  -47.6724   59.3944   65.3302 C   0  0  0  0  0  0  0  0  0  0  0  0
  -48.9026   59.9108   66.0817 C   0  0  0  0  0  0  0  0  0  0  0  0
  -50.2430   59.3523   65.5989 C   0  0  0  0  0  0  0  0  0  0  0  0
  -50.9645   60.3121   64.7012 C   0  0  0  0  0  0  0  0  0  0  0  0
  -51.3643   60.0851   63.4650 C   0  0  0  0  0  0  0  0  0  0  0  0
  -51.1812   58.8141   62.6974 C   0  0  0  0  0  0  0  0  0  0  0  0
  -49.7111   58.4403   62.5319 C   0  0  0  0  0  0  0  0  0  0  0  0
  -49.1743   58.6830   61.1322 C   0  0  0  0  0  0  0  0  0  0  0  0
  -50.1196   58.2359   60.0305 C   0  0  0  0  0  0  0  0  0  0  0  0
  -49.4296   57.7747   58.7575 C   0  0  0  0  0  0  0  0  0  0  0  0
  -48.3381   56.7434   58.9998 C   0  0  0  0  0  0  0  0  0  0  0  0
  -47.0149   57.0706   58.3368 C   0  0  0  0  0  0  0  0  0  0  0  0
  -47.1250   58.1906   57.3402 C   0  0  0  0  0  0  0  0  0  0  0  0
 21 22  1  0  0  0
  4  5  2  0  0  0
 25 24  1  0  0  0
 25 26  2  0  0  0
 25 27  1  0  0  0
 25 29  1  0  0  0
 22 20  1  0  0  0
  3  5  1  0  0  0
  3  2  1  0  0  0
 20 19  1  0  0  0
 24 23  1  0  0  0
 19 18  1  0  0  0
 18 17  1  0  0  0
 27 28  1  0  0  0
 17 16  1  0  0  0
 29 30  1  0  0  0
 16 15  1  0  0  0
 34 35  1  0  0  0
 34 36  1  0  0  0
 15 14  1  0  0  0
 31 32  1  0  0  0
 31 33  1  0  0  0
 14 13  1  0  0  0
 37  1  1  0  0  0
 37 39  1  0  0  0
 13 12  1  0  0  0
 38 39  2  0  0  0
 12 11  1  0  0  0
 11 10  1  0  0  0
 10  9  1  0  0  0
  9  8  1  0  0  0
  8  7  1  0  0  0
  7  6  1  0  0  0
  6  5  1  0  0  0
  2  1  1  0  0  0
  1 23  1  0  0  0
 30 32  1  0  0  0
 32 35  1  0  0  0
 39 40  1  0  0  0
 40 41  1  0  0  0
 41 42  1  0  0  0
 42 43  1  0  0  0
 43 44  1  0  0  0
 44 45  1  0  0  0
 45 46  1  0  0  0
 46 47  1  0  0  0
 47 48  2  0  0  0
 48 49  1  0  0  0
 49 50  1  0  0  0
 50 51  1  0  0  0
 51 52  1  0  0  0
 52 53  1  0  0  0
 53 54  1  0  0  0
 54 55  1  0  0  0
 55 56  1  0  0  0
M  CHG 1  26  -1
M  END
> <minimizedAffinity>
-8.74004

> <CNNscore>
0.2997435629

> <CNNaffinity>
7.2315778732

> <CNN_VS>
2.1676189899

> <CNNaffinity_variance>
1.2074222565

$$$$
/media/chris/experiments/cd1a-new-docking/inputs/ligands/7sh4_ligand.pdb


 56 55  0  0  0  0  0  0  0  0999 V2000
  -40.1961   60.4058   65.2008 C   0  0  0  0  0  0  0  0  0  0  0  0
  -40.4684   60.5430   63.7295 C   0  0  0  0  0  0  0  0  0  0  0  0
  -41.3928   61.6483   63.6471 O   0  0  0  0  0  0  0  0  0  0  0  0
  -42.5314   61.8869   61.7376 O   0  0  0  0  0  0  0  0  0  0  0  0
  -42.4622   61.4846   62.8676 C   0  0  0  0  0  0  0  0  0  0  0  0
  -43.4995   60.6332   63.5413 C   0  0  0  0  0  0  0  0  0  0  0  0
  -44.6556   61.4187   64.1370 C   0  0  0  0  0  0  0  0  0  0  0  0
  -45.5888   60.5554   64.9596 C   0  0  0  0  0  0  0  0  0  0  0  0
  -46.4282   59.5990   64.1433 C   0  0  0  0  0  0  0  0  0  0  0  0
  -47.4076   58.8040   64.9830 C   0  0  0  0  0  0  0  0  0  0  0  0
  -47.7910   59.4997   66.2663 C   0  0  0  0  0  0  0  0  0  0  0  0
  -49.2139   59.9926   66.2660 C   0  0  0  0  0  0  0  0  0  0  0  0
  -50.1068   59.2486   65.2979 C   0  0  0  0  0  0  0  0  0  0  0  0
  -50.9765   60.1756   64.4730 C   0  0  0  0  0  0  0  0  0  0  0  0
  -51.1404   59.7476   63.0298 C   0  0  0  0  0  0  0  0  0  0  0  0
  -50.5483   58.3768   62.7227 C   0  0  0  0  0  0  0  0  0  0  0  0
  -51.0930   57.7393   61.4589 C   0  0  0  0  0  0  0  0  0  0  0  0
  -50.2109   57.9569   60.2466 C   0  0  0  0  0  0  0  0  0  0  0  0
  -49.1943   56.8457   60.0243 C   0  0  0  0  0  0  0  0  0  0  0  0
  -47.8376   57.3468   59.5622 C   0  0  0  0  0  0  0  0  0  0  0  0
  -47.2893   57.8832   57.1648 C   0  0  0  0  0  0  0  0  0  0  0  0
  -47.8870   58.3868   58.4591 C   0  0  0  0  0  0  0  0  0  0  0  0
  -38.7270   60.5208   65.5178 C   0  0  0  0  0  0  0  0  0  0  0  0
  -38.3188   61.8954   65.3384 O   0  0  0  0  0  0  0  0  0  0  0  0
  -37.0139   62.3116   64.5102 P   0  0  0  0  0  0  0  0  0  0  0  0
  -35.9581   61.3139   64.7874 O   0  0  0  0  0  0  0  0  0  0  0  0
  -37.4168   62.5502   63.1034 O   0  0  0  0  0  0  0  0  0  0  0  0
  -37.7055   61.7148   62.7036 H   0  0  0  0  0  0  0  0  0  0  0  0
  -36.5473   63.7051   65.1293 O   0  0  0  0  0  0  0  0  0  0  0  0
  -35.1944   64.1647   64.9336 C   0  0  0  0  0  0  0  0  0  0  0  0
  -35.5761   64.2396   67.2982 O   0  0  0  0  0  0  0  0  0  0  0  0
  -34.6234   64.5486   66.2765 C   0  0  0  0  0  0  0  0  0  0  0  0
  -36.4144   64.6879   67.1048 H   0  0  0  0  0  0  0  0  0  0  0  0
  -33.2989   63.3279   67.8809 O   0  0  0  0  0  0  0  0  0  0  0  0
  -33.3111   63.8583   66.5618 C   0  0  0  0  0  0  0  0  0  0  0  0
  -32.4495   62.8893   68.0452 H   0  0  0  0  0  0  0  0  0  0  0  0
  -40.7497   59.1264   65.6553 O   0  0  0  0  0  0  0  0  0  0  0  0
  -42.4409   60.1882   66.6908 O   0  0  0  0  0  0  0  0  0  0  0  0
  -41.9118   59.1709   66.3348 C   0  0  0  0  0  0  0  0  0  0  0  0
  -42.4726   57.8037   66.5761 C   0  0  0  0  0  0  0  0  0  0  0  0
  -43.6422   57.5067   65.6429 C   0  0  0  0  0  0  0  0  0  0  0  0
  -43.2285   57.2134   64.2101 C   0  0  0  0  0  0  0  0  0  0  0  0
  -42.0747   56.2233   64.0992 C   0  0  0  0  0  0  0  0  0  0  0  0
  -41.0378   56.5986   63.0568 C   0  0  0  0  0  0  0  0  0  0  0  0
  -41.1661   55.8439   61.7306 C   0  0  0  0  0  0  0  0  0  0  0  0
  -41.4200   56.7218   60.5032 C   0  0  0  0  0  0  0  0  0  0  0  0
  -41.3554   58.1834   60.8311 C   0  0  0  0  0  0  0  0  0  0  0  0
  -40.5532   59.0776   60.2870 C   0  0  0  0  0  0  0  0  0  0  0  0
  -39.5354   58.8181   59.2216 C   0  0  0  0  0  0  0  0  0  0  0  0
  -38.1598   58.4937   59.7968 C   0  0  0  0  0  0  0  0  0  0  0  0
  -38.0275   58.8107   61.2761 C   0  0  0  0  0  0  0  0  0  0  0  0
  -37.6645   57.6064   62.1278 C   0  0  0  0  0  0  0  0  0  0  0  0
  -37.3546   57.9323   63.5794 C   0  0  0  0  0  0  0  0  0  0  0  0
  -35.8659   57.9522   63.8910 C   0  0  0  0  0  0  0  0  0  0  0  0
  -34.9745   58.0010   62.6660 C   0  0  0  0  0  0  0  0  0  0  0  0
  -33.5208   58.1670   63.0110 C   0  0  0  0  0  0  0  0  0  0  0  0
 21 22  1  0  0  0
  4  5  2  0  0  0
 25 24  1  0  0  0
 25 26  2  0  0  0
 25 27  1  0  0  0
 25 29  1  0  0  0
 22 20  1  0  0  0
  3  5  1  0  0  0
  3  2  1  0  0  0
 20 19  1  0  0  0
 24 23  1  0  0  0
 19 18  1  0  0  0
 18 17  1  0  0  0
 27 28  1  0  0  0
 17 16  1  0  0  0
 29 30  1  0  0  0
 16 15  1  0  0  0
 34 35  1  0  0  0
 34 36  1  0  0  0
 15 14  1  0  0  0
 31 32  1  0  0  0
 31 33  1  0  0  0
 14 13  1  0  0  0
 37  1  1  0  0  0
 37 39  1  0  0  0
 13 12  1  0  0  0
 38 39  2  0  0  0
 12 11  1  0  0  0
 11 10  1  0  0  0
 10  9  1  0  0  0
  9  8  1  0  0  0
  8  7  1  0  0  0
  7  6  1  0  0  0
  6  5  1  0  0  0
  2  1  1  0  0  0
  1 23  1  0  0  0
 30 32  1  0  0  0
 32 35  1  0  0  0
 39 40  1  0  0  0
 40 41  1  0  0  0
 41 42  1  0  0  0
 42 43  1  0  0  0
 43 44  1  0  0  0
 44 45  1  0  0  0
 45 46  1  0  0  0
 46 47  1  0  0  0
 47 48  2  0  0  0
 48 49  1  0  0  0
 49 50  1  0  0  0
 50 51  1  0  0  0
 51 52  1  0  0  0
 52 53  1  0  0  0
 53 54  1  0  0  0
 54 55  1  0  0  0
 55 56  1  0  0  0
M  CHG 1  26  -1
M  END
> <minimizedAffinity>
-8.94287

> <CNNscore>
0.2809422314

> <CNNaffinity>
7.4833993912

> <CNN_VS>
2.1024029255

> <CNNaffinity_variance>
1.4269965887

$$$$
/media/chris/experiments/cd1a-new-docking/inputs/ligands/7sh4_ligand.pdb


 56 55  0  0  0  0  0  0  0  0999 V2000
  -40.4400   60.1128   63.7550 C   0  0  0  0  0  0  0  0  0  0  0  0
  -41.8034   60.7270   63.9015 C   0  0  0  0  0  0  0  0  0  0  0  0
  -42.6487   59.6169   64.2705 O   0  0  0  0  0  0  0  0  0  0  0  0
  -42.2512   58.6315   66.2379 O   0  0  0  0  0  0  0  0  0  0  0  0
  -42.8603   59.4257   65.5731 C   0  0  0  0  0  0  0  0  0  0  0  0
  -43.8576   60.4108   66.1111 C   0  0  0  0  0  0  0  0  0  0  0  0
  -45.2977   59.9300   66.0538 C   0  0  0  0  0  0  0  0  0  0  0  0
  -45.9983   60.3287   64.7721 C   0  0  0  0  0  0  0  0  0  0  0  0
  -47.1932   59.4694   64.4264 C   0  0  0  0  0  0  0  0  0  0  0  0
  -47.9091   58.9295   65.6481 C   0  0  0  0  0  0  0  0  0  0  0  0
  -49.1492   59.7125   66.0041 C   0  0  0  0  0  0  0  0  0  0  0  0
  -50.3893   59.1898   65.3282 C   0  0  0  0  0  0  0  0  0  0  0  0
  -51.1091   60.2339   64.5039 C   0  0  0  0  0  0  0  0  0  0  0  0
  -51.2084   59.8573   63.0395 C   0  0  0  0  0  0  0  0  0  0  0  0
  -49.9892   60.2288   62.2218 C   0  0  0  0  0  0  0  0  0  0  0  0
  -49.3638   59.0533   61.4794 C   0  0  0  0  0  0  0  0  0  0  0  0
  -49.5333   59.1151   59.9735 C   0  0  0  0  0  0  0  0  0  0  0  0
  -49.8359   57.7699   59.3461 C   0  0  0  0  0  0  0  0  0  0  0  0
  -48.8122   56.6949   59.6838 C   0  0  0  0  0  0  0  0  0  0  0  0
  -47.4724   56.8947   58.9982 C   0  0  0  0  0  0  0  0  0  0  0  0
  -46.8516   58.4238   57.0976 C   0  0  0  0  0  0  0  0  0  0  0  0
  -47.5550   57.1490   57.5051 C   0  0  0  0  0  0  0  0  0  0  0  0
  -39.4114   61.1184   63.3047 C   0  0  0  0  0  0  0  0  0  0  0  0
  -38.1373   60.7763   63.8945 O   0  0  0  0  0  0  0  0  0  0  0  0
  -37.9375   60.5713   65.4693 P   0  0  0  0  0  0  0  0  0  0  0  0
  -39.0584   61.2405   66.1640 O   0  0  0  0  0  0  0  0  0  0  0  0
  -37.7028   59.1290   65.7208 O   0  0  0  0  0  0  0  0  0  0  0  0
  -38.5061   58.6287   65.5078 H   0  0  0  0  0  0  0  0  0  0  0  0
  -36.5972   61.3561   65.8307 O   0  0  0  0  0  0  0  0  0  0  0  0
  -36.4979   62.7715   65.5723 C   0  0  0  0  0  0  0  0  0  0  0  0
  -36.0906   63.0176   67.9209 O   0  0  0  0  0  0  0  0  0  0  0  0
  -35.6088   63.3861   66.6252 C   0  0  0  0  0  0  0  0  0  0  0  0
  -37.0184   63.2868   68.0095 H   0  0  0  0  0  0  0  0  0  0  0  0
  -33.4217   63.2964   67.6387 O   0  0  0  0  0  0  0  0  0  0  0  0
  -34.1644   62.9742   66.4698 C   0  0  0  0  0  0  0  0  0  0  0  0
  -32.4982   63.0249   67.5200 H   0  0  0  0  0  0  0  0  0  0  0  0
  -40.5394   58.9853   62.8230 O   0  0  0  0  0  0  0  0  0  0  0  0
  -39.7215   57.5573   64.3566 O   0  0  0  0  0  0  0  0  0  0  0  0
  -40.2956   57.7579   63.3213 C   0  0  0  0  0  0  0  0  0  0  0  0
  -40.8416   56.6770   62.4407 C   0  0  0  0  0  0  0  0  0  0  0  0
  -41.6267   57.2551   61.2676 C   0  0  0  0  0  0  0  0  0  0  0  0
  -40.8605   57.2583   59.9549 C   0  0  0  0  0  0  0  0  0  0  0  0
  -40.7569   58.6369   59.3127 C   0  0  0  0  0  0  0  0  0  0  0  0
  -39.4057   59.3029   59.4960 C   0  0  0  0  0  0  0  0  0  0  0  0
  -38.2813   58.3550   59.9228 C   0  0  0  0  0  0  0  0  0  0  0  0
  -37.4448   58.8305   61.1127 C   0  0  0  0  0  0  0  0  0  0  0  0
  -37.1209   57.7127   62.0580 C   0  0  0  0  0  0  0  0  0  0  0  0
  -36.1159   57.6693   62.9109 C   0  0  0  0  0  0  0  0  0  0  0  0
  -35.0846   58.7337   63.1149 C   0  0  0  0  0  0  0  0  0  0  0  0
  -34.2072   58.4685   64.3347 C   0  0  0  0  0  0  0  0  0  0  0  0
  -32.7466   58.8274   64.1247 C   0  0  0  0  0  0  0  0  0  0  0  0
  -32.4506   59.3974   62.7481 C   0  0  0  0  0  0  0  0  0  0  0  0
  -31.0423   59.9441   62.5825 C   0  0  0  0  0  0  0  0  0  0  0  0
  -30.9823   61.4637   62.5527 C   0  0  0  0  0  0  0  0  0  0  0  0
  -32.1389   62.1178   61.8233 C   0  0  0  0  0  0  0  0  0  0  0  0
  -31.8355   63.5271   61.3975 C   0  0  0  0  0  0  0  0  0  0  0  0
 21 22  1  0  0  0
  4  5  2  0  0  0
 25 24  1  0  0  0
 25 26  2  0  0  0
 25 27  1  0  0  0
 25 29  1  0  0  0
 22 20  1  0  0  0
  3  5  1  0  0  0
  3  2  1  0  0  0
 20 19  1  0  0  0
 24 23  1  0  0  0
 19 18  1  0  0  0
 18 17  1  0  0  0
 27 28  1  0  0  0
 17 16  1  0  0  0
 29 30  1  0  0  0
 16 15  1  0  0  0
 34 35  1  0  0  0
 34 36  1  0  0  0
 15 14  1  0  0  0
 31 32  1  0  0  0
 31 33  1  0  0  0
 14 13  1  0  0  0
 37  1  1  0  0  0
 37 39  1  0  0  0
 13 12  1  0  0  0
 38 39  2  0  0  0
 12 11  1  0  0  0
 11 10  1  0  0  0
 10  9  1  0  0  0
  9  8  1  0  0  0
  8  7  1  0  0  0
  7  6  1  0  0  0
  6  5  1  0  0  0
  2  1  1  0  0  0
  1 23  1  0  0  0
 30 32  1  0  0  0
 32 35  1  0  0  0
 39 40  1  0  0  0
 40 41  1  0  0  0
 41 42  1  0  0  0
 42 43  1  0  0  0
 43 44  1  0  0  0
 44 45  1  0  0  0
 45 46  1  0  0  0
 46 47  1  0  0  0
 47 48  2  0  0  0
 48 49  1  0  0  0
 49 50  1  0  0  0
 50 51  1  0  0  0
 51 52  1  0  0  0
 52 53  1  0  0  0
 53 54  1  0  0  0
 54 55  1  0  0  0
 55 56  1  0  0  0
M  CHG 1  26  -1
M  END
> <minimizedAffinity>
-8.71412

> <CNNscore>
0.2804921567

> <CNNaffinity>
7.0188536644

> <CNN_VS>
1.9687334299

> <CNNaffinity_variance>
1.0508190393

$$$$
/media/chris/experiments/cd1a-new-docking/inputs/ligands/7sh4_ligand.pdb


 56 55  0  0  0  0  0  0  0  0999 V2000
  -42.7483   58.6828   64.0946 C   0  0  0  0  0  0  0  0  0  0  0  0
  -44.1776   59.0208   64.4117 C   0  0  0  0  0  0  0  0  0  0  0  0
  -44.6408   57.8916   65.1820 O   0  0  0  0  0  0  0  0  0  0  0  0
  -45.4456   57.3802   67.2045 O   0  0  0  0  0  0  0  0  0  0  0  0
  -45.3185   58.1593   66.2987 C   0  0  0  0  0  0  0  0  0  0  0  0
  -45.7843   59.5866   66.3216 C   0  0  0  0  0  0  0  0  0  0  0  0
  -47.2935   59.7481   66.2516 C   0  0  0  0  0  0  0  0  0  0  0  0
  -47.8771   59.2450   64.9481 C   0  0  0  0  0  0  0  0  0  0  0  0
  -49.1330   58.4190   65.1099 C   0  0  0  0  0  0  0  0  0  0  0  0
  -50.2775   59.1948   65.7300 C   0  0  0  0  0  0  0  0  0  0  0  0
  -50.9335   60.1556   64.7687 C   0  0  0  0  0  0  0  0  0  0  0  0
  -51.2087   59.5432   63.4207 C   0  0  0  0  0  0  0  0  0  0  0  0
  -50.6229   60.3332   62.2715 C   0  0  0  0  0  0  0  0  0  0  0  0
  -49.4190   59.6554   61.6490 C   0  0  0  0  0  0  0  0  0  0  0  0
  -49.4985   59.5156   60.1433 C   0  0  0  0  0  0  0  0  0  0  0  0
  -50.0501   58.1728   59.6776 C   0  0  0  0  0  0  0  0  0  0  0  0
  -49.6821   57.0096   60.5786 C   0  0  0  0  0  0  0  0  0  0  0  0
  -48.8203   55.9680   59.8951 C   0  0  0  0  0  0  0  0  0  0  0  0
  -47.5963   56.5488   59.2007 C   0  0  0  0  0  0  0  0  0  0  0  0
  -47.5064   56.1912   57.7279 C   0  0  0  0  0  0  0  0  0  0  0  0
  -47.0806   58.6348   57.2998 C   0  0  0  0  0  0  0  0  0  0  0  0
  -47.7003   57.3581   56.7783 C   0  0  0  0  0  0  0  0  0  0  0  0
  -42.0208   59.8394   63.4583 C   0  0  0  0  0  0  0  0  0  0  0  0
  -41.5315   60.7117   64.5014 O   0  0  0  0  0  0  0  0  0  0  0  0
  -40.6947   60.1777   65.7570 P   0  0  0  0  0  0  0  0  0  0  0  0
  -41.5090   60.3893   66.9732 O   0  0  0  0  0  0  0  0  0  0  0  0
  -40.2206   58.8075   65.4467 O   0  0  0  0  0  0  0  0  0  0  0  0
  -40.9809   58.2083   65.3853 H   0  0  0  0  0  0  0  0  0  0  0  0
  -39.4181   61.1288   65.8492 O   0  0  0  0  0  0  0  0  0  0  0  0
  -38.0971   60.5568   65.9369 C   0  0  0  0  0  0  0  0  0  0  0  0
  -37.8464   62.2878   64.2987 O   0  0  0  0  0  0  0  0  0  0  0  0
  -37.1306   61.4829   65.2403 C   0  0  0  0  0  0  0  0  0  0  0  0
  -38.3266   61.7136   63.6817 H   0  0  0  0  0  0  0  0  0  0  0  0
  -36.7328   63.7262   66.0325 O   0  0  0  0  0  0  0  0  0  0  0  0
  -36.3762   62.3612   66.2095 C   0  0  0  0  0  0  0  0  0  0  0  0
  -36.2389   64.2737   66.6627 H   0  0  0  0  0  0  0  0  0  0  0  0
  -42.7346   57.4953   63.2347 O   0  0  0  0  0  0  0  0  0  0  0  0
  -41.6740   56.0005   64.5389 O   0  0  0  0  0  0  0  0  0  0  0  0
  -41.7900   56.5691   63.4877 C   0  0  0  0  0  0  0  0  0  0  0  0
  -40.9156   56.3209   62.2979 C   0  0  0  0  0  0  0  0  0  0  0  0
  -41.5579   56.8383   61.0147 C   0  0  0  0  0  0  0  0  0  0  0  0
  -40.5575   57.2925   59.9644 C   0  0  0  0  0  0  0  0  0  0  0  0
  -40.9830   58.5543   59.2224 C   0  0  0  0  0  0  0  0  0  0  0  0
  -40.4405   59.8369   59.8250 C   0  0  0  0  0  0  0  0  0  0  0  0
  -38.9289   59.8357   60.0701 C   0  0  0  0  0  0  0  0  0  0  0  0
  -38.4930   60.3192   61.4550 C   0  0  0  0  0  0  0  0  0  0  0  0
  -38.5743   59.2321   62.4843 C   0  0  0  0  0  0  0  0  0  0  0  0
  -37.6317   58.3597   62.7841 C   0  0  0  0  0  0  0  0  0  0  0  0
  -36.2764   58.2740   62.1566 C   0  0  0  0  0  0  0  0  0  0  0  0
  -35.2606   57.5770   63.0571 C   0  0  0  0  0  0  0  0  0  0  0  0
  -34.9458   58.3446   64.3290 C   0  0  0  0  0  0  0  0  0  0  0  0
  -33.5103   58.8353   64.4057 C   0  0  0  0  0  0  0  0  0  0  0  0
  -32.7069   58.6330   63.1317 C   0  0  0  0  0  0  0  0  0  0  0  0
  -31.5055   59.5592   63.0199 C   0  0  0  0  0  0  0  0  0  0  0  0
  -31.5012   60.4250   61.7757 C   0  0  0  0  0  0  0  0  0  0  0  0
  -32.0538   61.8010   62.0229 C   0  0  0  0  0  0  0  0  0  0  0  0
 21 22  1  0  0  0
  4  5  2  0  0  0
 25 24  1  0  0  0
 25 26  2  0  0  0
 25 27  1  0  0  0
 25 29  1  0  0  0
 22 20  1  0  0  0
  3  5  1  0  0  0
  3  2  1  0  0  0
 20 19  1  0  0  0
 24 23  1  0  0  0
 19 18  1  0  0  0
 18 17  1  0  0  0
 27 28  1  0  0  0
 17 16  1  0  0  0
 29 30  1  0  0  0
 16 15  1  0  0  0
 34 35  1  0  0  0
 34 36  1  0  0  0
 15 14  1  0  0  0
 31 32  1  0  0  0
 31 33  1  0  0  0
 14 13  1  0  0  0
 37  1  1  0  0  0
 37 39  1  0  0  0
 13 12  1  0  0  0
 38 39  2  0  0  0
 12 11  1  0  0  0
 11 10  1  0  0  0
 10  9  1  0  0  0
  9  8  1  0  0  0
  8  7  1  0  0  0
  7  6  1  0  0  0
  6  5  1  0  0  0
  2  1  1  0  0  0
  1 23  1  0  0  0
 30 32  1  0  0  0
 32 35  1  0  0  0
 39 40  1  0  0  0
 40 41  1  0  0  0
 41 42  1  0  0  0
 42 43  1  0  0  0
 43 44  1  0  0  0
 44 45  1  0  0  0
 45 46  1  0  0  0
 46 47  1  0  0  0
 47 48  2  0  0  0
 48 49  1  0  0  0
 49 50  1  0  0  0
 50 51  1  0  0  0
 51 52  1  0  0  0
 52 53  1  0  0  0
 53 54  1  0  0  0
 54 55  1  0  0  0
 55 56  1  0  0  0
M  CHG 1  26  -1
M  END
> <minimizedAffinity>
-8.72979

> <CNNscore>
0.2803516686

> <CNNaffinity>
7.1567964554

> <CNN_VS>
2.0064198971

> <CNNaffinity_variance>
1.8709045649

$$$$
/media/chris/experiments/cd1a-new-docking/inputs/ligands/7sh4_ligand.pdb


 56 55  0  0  0  0  0  0  0  0999 V2000
  -40.7837   60.3087   62.8817 C   0  0  0  0  0  0  0  0  0  0  0  0
  -41.8126   61.3479   63.2270 C   0  0  0  0  0  0  0  0  0  0  0  0
  -42.8794   60.5930   63.8396 O   0  0  0  0  0  0  0  0  0  0  0  0
  -42.8161   61.8873   65.6617 O   0  0  0  0  0  0  0  0  0  0  0  0
  -43.3718   61.0640   64.9858 C   0  0  0  0  0  0  0  0  0  0  0  0
  -44.7500   60.5275   65.2453 C   0  0  0  0  0  0  0  0  0  0  0  0
  -44.9751   60.0598   66.6733 C   0  0  0  0  0  0  0  0  0  0  0  0
  -46.0075   58.9568   66.7731 C   0  0  0  0  0  0  0  0  0  0  0  0
  -46.4229   58.3751   65.4408 C   0  0  0  0  0  0  0  0  0  0  0  0
  -47.9169   58.4523   65.1996 C   0  0  0  0  0  0  0  0  0  0  0  0
  -48.5984   59.5129   66.0293 C   0  0  0  0  0  0  0  0  0  0  0  0
  -48.9352   60.7507   65.2406 C   0  0  0  0  0  0  0  0  0  0  0  0
  -49.3658   60.4590   63.8203 C   0  0  0  0  0  0  0  0  0  0  0  0
  -50.8676   60.3109   63.6825 C   0  0  0  0  0  0  0  0  0  0  0  0
  -51.2956   59.2135   62.7309 C   0  0  0  0  0  0  0  0  0  0  0  0
  -50.3105   58.0530   62.6459 C   0  0  0  0  0  0  0  0  0  0  0  0
  -49.7991   57.7804   61.2443 C   0  0  0  0  0  0  0  0  0  0  0  0
  -49.5028   59.0398   60.4561 C   0  0  0  0  0  0  0  0  0  0  0  0
  -48.7392   58.7855   59.1639 C   0  0  0  0  0  0  0  0  0  0  0  0
  -48.7783   57.3372   58.7098 C   0  0  0  0  0  0  0  0  0  0  0  0
  -46.9903   58.1867   57.1551 C   0  0  0  0  0  0  0  0  0  0  0  0
  -47.8403   57.0053   57.5649 C   0  0  0  0  0  0  0  0  0  0  0  0
  -39.7932   60.0997   63.9983 C   0  0  0  0  0  0  0  0  0  0  0  0
  -39.1012   61.3442   64.2451 O   0  0  0  0  0  0  0  0  0  0  0  0
  -37.6157   61.4079   64.8377 P   0  0  0  0  0  0  0  0  0  0  0  0
  -37.5015   60.3835   65.8982 O   0  0  0  0  0  0  0  0  0  0  0  0
  -36.6635   61.3665   63.7019 O   0  0  0  0  0  0  0  0  0  0  0  0
  -36.7174   60.5016   63.2660 H   0  0  0  0  0  0  0  0  0  0  0  0
  -37.4963   62.8417   65.5252 O   0  0  0  0  0  0  0  0  0  0  0  0
  -36.2790   63.6043   65.3967 C   0  0  0  0  0  0  0  0  0  0  0  0
  -36.2357   62.6776   67.6062 O   0  0  0  0  0  0  0  0  0  0  0  0
  -35.5545   63.5705   66.7199 C   0  0  0  0  0  0  0  0  0  0  0  0
  -37.1620   62.9520   67.6926 H   0  0  0  0  0  0  0  0  0  0  0  0
  -33.4045   63.3564   67.7924 O   0  0  0  0  0  0  0  0  0  0  0  0
  -34.1094   63.1578   66.5736 C   0  0  0  0  0  0  0  0  0  0  0  0
  -32.4799   63.0863   67.6789 H   0  0  0  0  0  0  0  0  0  0  0  0
  -40.1204   60.7115   61.6376 O   0  0  0  0  0  0  0  0  0  0  0  0
  -40.5496   60.7425   59.4297 O   0  0  0  0  0  0  0  0  0  0  0  0
  -40.5989   60.1870   60.4931 C   0  0  0  0  0  0  0  0  0  0  0  0
  -41.1814   58.8235   60.7020 C   0  0  0  0  0  0  0  0  0  0  0  0
  -40.3184   57.7426   60.0588 C   0  0  0  0  0  0  0  0  0  0  0  0
  -38.8286   57.9159   60.3047 C   0  0  0  0  0  0  0  0  0  0  0  0
  -38.3710   57.4007   61.6644 C   0  0  0  0  0  0  0  0  0  0  0  0
  -37.1355   58.0970   62.2042 C   0  0  0  0  0  0  0  0  0  0  0  0
  -36.8123   57.7774   63.6665 C   0  0  0  0  0  0  0  0  0  0  0  0
  -35.3435   57.9466   64.0611 C   0  0  0  0  0  0  0  0  0  0  0  0
  -34.4152   57.6605   62.9190 C   0  0  0  0  0  0  0  0  0  0  0  0
  -33.3390   58.3472   62.5883 C   0  0  0  0  0  0  0  0  0  0  0  0
  -32.8165   59.5612   63.2893 C   0  0  0  0  0  0  0  0  0  0  0  0
  -31.6077   60.1671   62.5821 C   0  0  0  0  0  0  0  0  0  0  0  0
  -31.8657   61.5502   62.0107 C   0  0  0  0  0  0  0  0  0  0  0  0
  -31.3923   62.6795   62.9096 C   0  0  0  0  0  0  0  0  0  0  0  0
  -32.3565   63.8497   63.0114 C   0  0  0  0  0  0  0  0  0  0  0  0
  -33.7890   63.4871   62.6505 C   0  0  0  0  0  0  0  0  0  0  0  0
  -34.3102   64.1763   61.4051 C   0  0  0  0  0  0  0  0  0  0  0  0
  -35.7728   64.5115   61.4951 C   0  0  0  0  0  0  0  0  0  0  0  0
 21 22  1  0  0  0
  4  5  2  0  0  0
 25 24  1  0  0  0
 25 26  2  0  0  0
 25 27  1  0  0  0
 25 29  1  0  0  0
 22 20  1  0  0  0
  3  5  1  0  0  0
  3  2  1  0  0  0
 20 19  1  0  0  0
 24 23  1  0  0  0
 19 18  1  0  0  0
 18 17  1  0  0  0
 27 28  1  0  0  0
 17 16  1  0  0  0
 29 30  1  0  0  0
 16 15  1  0  0  0
 34 35  1  0  0  0
 34 36  1  0  0  0
 15 14  1  0  0  0
 31 32  1  0  0  0
 31 33  1  0  0  0
 14 13  1  0  0  0
 37  1  1  0  0  0
 37 39  1  0  0  0
 13 12  1  0  0  0
 38 39  2  0  0  0
 12 11  1  0  0  0
 11 10  1  0  0  0
 10  9  1  0  0  0
  9  8  1  0  0  0
  8  7  1  0  0  0
  7  6  1  0  0  0
  6  5  1  0  0  0
  2  1  1  0  0  0
  1 23  1  0  0  0
 30 32  1  0  0  0
 32 35  1  0  0  0
 39 40  1  0  0  0
 40 41  1  0  0  0
 41 42  1  0  0  0
 42 43  1  0  0  0
 43 44  1  0  0  0
 44 45  1  0  0  0
 45 46  1  0  0  0
 46 47  1  0  0  0
 47 48  2  0  0  0
 48 49  1  0  0  0
 49 50  1  0  0  0
 50 51  1  0  0  0
 51 52  1  0  0  0
 52 53  1  0  0  0
 53 54  1  0  0  0
 54 55  1  0  0  0
 55 56  1  0  0  0
M  CHG 1  26  -1
M  END
> <minimizedAffinity>
-8.28751

> <CNNscore>
0.2791534364

> <CNNaffinity>
7.0254759789

> <CNN_VS>
1.9611858130

> <CNNaffinity_variance>
0.7386919856

$$$$
/media/chris/experiments/cd1a-new-docking/inputs/ligands/7sh4_ligand.pdb


 56 55  0  0  0  0  0  0  0  0999 V2000
  -41.5550   59.6837   63.4491 C   0  0  0  0  0  0  0  0  0  0  0  0
  -41.9885   59.0201   62.1726 C   0  0  0  0  0  0  0  0  0  0  0  0
  -41.3605   59.8076   61.1389 O   0  0  0  0  0  0  0  0  0  0  0  0
  -41.3479   58.2195   59.5649 O   0  0  0  0  0  0  0  0  0  0  0  0
  -40.8151   59.1423   60.1200 C   0  0  0  0  0  0  0  0  0  0  0  0
  -39.5238   59.7752   59.6879 C   0  0  0  0  0  0  0  0  0  0  0  0
  -38.3383   58.8250   59.6828 C   0  0  0  0  0  0  0  0  0  0  0  0
  -38.1658   58.0956   60.9985 C   0  0  0  0  0  0  0  0  0  0  0  0
  -36.8756   58.4148   61.7190 C   0  0  0  0  0  0  0  0  0  0  0  0
  -36.6228   57.5136   62.9106 C   0  0  0  0  0  0  0  0  0  0  0  0
  -35.2676   57.7267   63.5396 C   0  0  0  0  0  0  0  0  0  0  0  0
  -34.2767   58.3628   62.6009 C   0  0  0  0  0  0  0  0  0  0  0  0
  -32.8645   58.3834   63.1425 C   0  0  0  0  0  0  0  0  0  0  0  0
  -32.1459   59.6860   62.8540 C   0  0  0  0  0  0  0  0  0  0  0  0
  -32.9835   60.9224   63.1043 C   0  0  0  0  0  0  0  0  0  0  0  0
  -32.4725   62.1679   62.3888 C   0  0  0  0  0  0  0  0  0  0  0  0
  -32.2924   63.3696   63.2964 C   0  0  0  0  0  0  0  0  0  0  0  0
  -31.8801   64.6259   62.5570 C   0  0  0  0  0  0  0  0  0  0  0  0
  -32.8095   65.8076   62.7962 C   0  0  0  0  0  0  0  0  0  0  0  0
  -33.6741   66.1532   61.5969 C   0  0  0  0  0  0  0  0  0  0  0  0
  -35.5854   64.5457   61.2829 C   0  0  0  0  0  0  0  0  0  0  0  0
  -35.1577   65.9039   61.7910 C   0  0  0  0  0  0  0  0  0  0  0  0
  -40.3752   58.9869   64.0770 C   0  0  0  0  0  0  0  0  0  0  0  0
  -39.2100   59.8306   63.9404 O   0  0  0  0  0  0  0  0  0  0  0  0
  -38.2996   60.2606   65.1847 P   0  0  0  0  0  0  0  0  0  0  0  0
  -39.0823   61.1930   66.0242 O   0  0  0  0  0  0  0  0  0  0  0  0
  -37.7550   59.0290   65.8054 O   0  0  0  0  0  0  0  0  0  0  0  0
  -38.4797   58.5164   66.1966 H   0  0  0  0  0  0  0  0  0  0  0  0
  -37.0800   61.0725   64.5552 O   0  0  0  0  0  0  0  0  0  0  0  0
  -37.0286   62.5084   64.6792 C   0  0  0  0  0  0  0  0  0  0  0  0
  -35.4269   64.2877   64.7861 O   0  0  0  0  0  0  0  0  0  0  0  0
  -35.6274   62.9016   65.0782 C   0  0  0  0  0  0  0  0  0  0  0  0
  -35.6092   64.4499   63.8472 H   0  0  0  0  0  0  0  0  0  0  0  0
  -36.5611   62.4524   67.2565 O   0  0  0  0  0  0  0  0  0  0  0  0
  -35.3477   62.6306   66.5370 C   0  0  0  0  0  0  0  0  0  0  0  0
  -36.3612   62.2798   68.1898 H   0  0  0  0  0  0  0  0  0  0  0  0
  -42.7040   59.7296   64.3587 O   0  0  0  0  0  0  0  0  0  0  0  0
  -42.3588   61.5940   65.5690 O   0  0  0  0  0  0  0  0  0  0  0  0
  -43.0528   60.9377   64.8414 C   0  0  0  0  0  0  0  0  0  0  0  0
  -44.3984   61.3711   64.3481 C   0  0  0  0  0  0  0  0  0  0  0  0
  -45.4302   60.2562   64.4867 C   0  0  0  0  0  0  0  0  0  0  0  0
  -45.9061   60.0307   65.9125 C   0  0  0  0  0  0  0  0  0  0  0  0
  -46.6224   58.7001   66.1130 C   0  0  0  0  0  0  0  0  0  0  0  0
  -47.9790   58.6218   65.4375 C   0  0  0  0  0  0  0  0  0  0  0  0
  -48.9185   59.7876   65.7589 C   0  0  0  0  0  0  0  0  0  0  0  0
  -50.4097   59.4876   65.5922 C   0  0  0  0  0  0  0  0  0  0  0  0
  -51.0168   60.2552   64.4564 C   0  0  0  0  0  0  0  0  0  0  0  0
  -51.2050   59.8220   63.2250 C   0  0  0  0  0  0  0  0  0  0  0  0
  -50.8510   58.4655   62.7027 C   0  0  0  0  0  0  0  0  0  0  0  0
  -49.4655   58.4305   62.0642 C   0  0  0  0  0  0  0  0  0  0  0  0
  -49.4330   58.9778   60.6480 C   0  0  0  0  0  0  0  0  0  0  0  0
  -50.1358   58.0904   59.6351 C   0  0  0  0  0  0  0  0  0  0  0  0
  -49.2891   57.7188   58.4290 C   0  0  0  0  0  0  0  0  0  0  0  0
  -47.9564   58.4500   58.3762 C   0  0  0  0  0  0  0  0  0  0  0  0
  -46.9185   57.7885   57.4915 C   0  0  0  0  0  0  0  0  0  0  0  0
  -47.2404   56.3509   57.1926 C   0  0  0  0  0  0  0  0  0  0  0  0
 21 22  1  0  0  0
  4  5  2  0  0  0
 25 24  1  0  0  0
 25 26  2  0  0  0
 25 27  1  0  0  0
 25 29  1  0  0  0
 22 20  1  0  0  0
  3  5  1  0  0  0
  3  2  1  0  0  0
 20 19  1  0  0  0
 24 23  1  0  0  0
 19 18  1  0  0  0
 18 17  1  0  0  0
 27 28  1  0  0  0
 17 16  1  0  0  0
 29 30  1  0  0  0
 16 15  1  0  0  0
 34 35  1  0  0  0
 34 36  1  0  0  0
 15 14  1  0  0  0
 31 32  1  0  0  0
 31 33  1  0  0  0
 14 13  1  0  0  0
 37  1  1  0  0  0
 37 39  1  0  0  0
 13 12  1  0  0  0
 38 39  2  0  0  0
 12 11  1  0  0  0
 11 10  1  0  0  0
 10  9  1  0  0  0
  9  8  1  0  0  0
  8  7  1  0  0  0
  7  6  1  0  0  0
  6  5  1  0  0  0
  2  1  1  0  0  0
  1 23  1  0  0  0
 30 32  1  0  0  0
 32 35  1  0  0  0
 39 40  1  0  0  0
 40 41  1  0  0  0
 41 42  1  0  0  0
 42 43  1  0  0  0
 43 44  1  0  0  0
 44 45  1  0  0  0
 45 46  1  0  0  0
 46 47  1  0  0  0
 47 48  2  0  0  0
 48 49  1  0  0  0
 49 50  1  0  0  0
 50 51  1  0  0  0
 51 52  1  0  0  0
 52 53  1  0  0  0
 53 54  1  0  0  0
 54 55  1  0  0  0
 55 56  1  0  0  0
M  CHG 1  26  -1
M  END
> <minimizedAffinity>
-8.21947

> <CNNscore>
0.2335624099

> <CNNaffinity>
6.9122247696

> <CNN_VS>
1.6144359112

> <CNNaffinity_variance>
0.7130020857

$$$$
/media/chris/experiments/cd1a-new-docking/inputs/ligands/7sh4_ligand.pdb


 56 55  0  0  0  0  0  0  0  0999 V2000
  -38.6934   60.5486   64.7407 C   0  0  0  0  0  0  0  0  0  0  0  0
  -37.5210   59.9162   65.4358 C   0  0  0  0  0  0  0  0  0  0  0  0
  -36.6433   59.5284   64.3576 O   0  0  0  0  0  0  0  0  0  0  0  0
  -35.8279   57.4975   64.8157 O   0  0  0  0  0  0  0  0  0  0  0  0
  -36.5021   58.2215   64.1339 C   0  0  0  0  0  0  0  0  0  0  0  0
  -37.3866   57.7648   63.0097 C   0  0  0  0  0  0  0  0  0  0  0  0
  -37.4698   58.7422   61.8494 C   0  0  0  0  0  0  0  0  0  0  0  0
  -37.7885   58.0642   60.5335 C   0  0  0  0  0  0  0  0  0  0  0  0
  -38.3311   58.9950   59.4729 C   0  0  0  0  0  0  0  0  0  0  0  0
  -39.5871   58.4690   58.8081 C   0  0  0  0  0  0  0  0  0  0  0  0
  -40.8540   58.9059   59.5021 C   0  0  0  0  0  0  0  0  0  0  0  0
  -40.9257   60.3951   59.7133 C   0  0  0  0  0  0  0  0  0  0  0  0
  -41.1693   60.7862   61.1540 C   0  0  0  0  0  0  0  0  0  0  0  0
  -41.0334   59.6174   62.1088 C   0  0  0  0  0  0  0  0  0  0  0  0
  -42.3452   59.1490   62.7028 C   0  0  0  0  0  0  0  0  0  0  0  0
  -42.6074   57.6585   62.5188 C   0  0  0  0  0  0  0  0  0  0  0  0
  -41.7837   56.7707   63.4318 C   0  0  0  0  0  0  0  0  0  0  0  0
  -42.4928   56.4103   64.7210 C   0  0  0  0  0  0  0  0  0  0  0  0
  -43.7390   57.2438   64.9857 C   0  0  0  0  0  0  0  0  0  0  0  0
  -44.0251   57.4575   66.4614 C   0  0  0  0  0  0  0  0  0  0  0  0
  -46.5057   57.2431   66.0925 C   0  0  0  0  0  0  0  0  0  0  0  0
  -45.3993   58.0227   66.7662 C   0  0  0  0  0  0  0  0  0  0  0  0
  -38.2679   61.6403   63.7925 C   0  0  0  0  0  0  0  0  0  0  0  0
  -37.5230   62.6339   64.5315 O   0  0  0  0  0  0  0  0  0  0  0  0
  -36.2875   63.4354   63.9045 P   0  0  0  0  0  0  0  0  0  0  0  0
  -35.3887   62.4567   63.2555 O   0  0  0  0  0  0  0  0  0  0  0  0
  -36.8265   64.5541   63.0942 O   0  0  0  0  0  0  0  0  0  0  0  0
  -37.3029   64.1981   62.3279 H   0  0  0  0  0  0  0  0  0  0  0  0
  -35.5139   64.0613   65.1506 O   0  0  0  0  0  0  0  0  0  0  0  0
  -34.7884   63.2031   66.0545 C   0  0  0  0  0  0  0  0  0  0  0  0
  -33.2717   63.3517   67.9039 O   0  0  0  0  0  0  0  0  0  0  0  0
  -33.6995   64.0157   66.7110 C   0  0  0  0  0  0  0  0  0  0  0  0
  -34.0347   63.2078   68.4852 H   0  0  0  0  0  0  0  0  0  0  0  0
  -32.7795   63.7110   64.5021 O   0  0  0  0  0  0  0  0  0  0  0  0
  -32.5231   64.2481   65.7934 C   0  0  0  0  0  0  0  0  0  0  0  0
  -32.0140   63.8698   63.9281 H   0  0  0  0  0  0  0  0  0  0  0  0
  -39.6202   61.0483   65.7611 O   0  0  0  0  0  0  0  0  0  0  0  0
  -40.7532   59.1066   65.8389 O   0  0  0  0  0  0  0  0  0  0  0  0
  -40.7024   60.2915   66.0260 C   0  0  0  0  0  0  0  0  0  0  0  0
  -41.8254   61.1001   66.5980 C   0  0  0  0  0  0  0  0  0  0  0  0
  -43.1219   60.8813   65.8247 C   0  0  0  0  0  0  0  0  0  0  0  0
  -43.2756   61.7835   64.6112 C   0  0  0  0  0  0  0  0  0  0  0  0
  -44.6222   61.6401   63.9114 C   0  0  0  0  0  0  0  0  0  0  0  0
  -45.5317   60.5958   64.5316 C   0  0  0  0  0  0  0  0  0  0  0  0
  -47.0103   60.9905   64.5856 C   0  0  0  0  0  0  0  0  0  0  0  0
  -47.9708   60.0135   63.9039 C   0  0  0  0  0  0  0  0  0  0  0  0
  -49.2946   60.6459   63.5948 C   0  0  0  0  0  0  0  0  0  0  0  0
  -50.4323   60.0190   63.3666 C   0  0  0  0  0  0  0  0  0  0  0  0
  -50.6401   58.5375   63.3702 C   0  0  0  0  0  0  0  0  0  0  0  0
  -50.7392   57.9598   61.9614 C   0  0  0  0  0  0  0  0  0  0  0  0
  -49.3962   57.8089   61.2686 C   0  0  0  0  0  0  0  0  0  0  0  0
  -49.5006   57.6709   59.7595 C   0  0  0  0  0  0  0  0  0  0  0  0
  -48.7684   58.7481   58.9766 C   0  0  0  0  0  0  0  0  0  0  0  0
  -47.5525   58.2292   58.2242 C   0  0  0  0  0  0  0  0  0  0  0  0
  -47.2986   56.7453   58.4004 C   0  0  0  0  0  0  0  0  0  0  0  0
  -47.6146   55.9505   57.1642 C   0  0  0  0  0  0  0  0  0  0  0  0
 21 22  1  0  0  0
  4  5  2  0  0  0
 25 24  1  0  0  0
 25 26  2  0  0  0
 25 27  1  0  0  0
 25 29  1  0  0  0
 22 20  1  0  0  0
  3  5  1  0  0  0
  3  2  1  0  0  0
 20 19  1  0  0  0
 24 23  1  0  0  0
 19 18  1  0  0  0
 18 17  1  0  0  0
 27 28  1  0  0  0
 17 16  1  0  0  0
 29 30  1  0  0  0
 16 15  1  0  0  0
 34 35  1  0  0  0
 34 36  1  0  0  0
 15 14  1  0  0  0
 31 32  1  0  0  0
 31 33  1  0  0  0
 14 13  1  0  0  0
 37  1  1  0  0  0
 37 39  1  0  0  0
 13 12  1  0  0  0
 38 39  2  0  0  0
 12 11  1  0  0  0
 11 10  1  0  0  0
 10  9  1  0  0  0
  9  8  1  0  0  0
  8  7  1  0  0  0
  7  6  1  0  0  0
  6  5  1  0  0  0
  2  1  1  0  0  0
  1 23  1  0  0  0
 30 32  1  0  0  0
 32 35  1  0  0  0
 39 40  1  0  0  0
 40 41  1  0  0  0
 41 42  1  0  0  0
 42 43  1  0  0  0
 43 44  1  0  0  0
 44 45  1  0  0  0
 45 46  1  0  0  0
 46 47  1  0  0  0
 47 48  2  0  0  0
 48 49  1  0  0  0
 49 50  1  0  0  0
 50 51  1  0  0  0
 51 52  1  0  0  0
 52 53  1  0  0  0
 53 54  1  0  0  0
 54 55  1  0  0  0
 55 56  1  0  0  0
M  CHG 1  26  -1
M  END
> <minimizedAffinity>
-8.32250

> <CNNscore>
0.1945411265

> <CNNaffinity>
7.4738969803

> <CNN_VS>
1.4539803267

> <CNNaffinity_variance>
1.2355555296

$$$$
