/media/chris/experiments/cd1a-new-docking/inputs/ligands/7sh4_ligand.pdb


 56 55  0  0  0  0  0  0  0  0999 V2000
  -40.4964   59.6554   64.8247 C   0  0  0  0  0  0  0  0  0  0  0  0
  -41.3689   58.6826   65.5663 C   0  0  0  0  0  0  0  0  0  0  0  0
  -41.8010   57.7548   64.5486 O   0  0  0  0  0  0  0  0  0  0  0  0
  -43.4413   58.1348   63.0775 O   0  0  0  0  0  0  0  0  0  0  0  0
  -43.0804   57.8169   64.1785 C   0  0  0  0  0  0  0  0  0  0  0  0
  -43.9855   57.3212   65.2694 C   0  0  0  0  0  0  0  0  0  0  0  0
  -45.2270   58.1714   65.4800 C   0  0  0  0  0  0  0  0  0  0  0  0
  -44.9139   59.6487   65.5906 C   0  0  0  0  0  0  0  0  0  0  0  0
  -45.7557   60.5288   64.6946 C   0  0  0  0  0  0  0  0  0  0  0  0
  -47.0511   59.8708   64.2643 C   0  0  0  0  0  0  0  0  0  0  0  0
  -48.2772   60.5547   64.8178 C   0  0  0  0  0  0  0  0  0  0  0  0
  -49.0372   59.6986   65.7962 C   0  0  0  0  0  0  0  0  0  0  0  0
  -50.4926   59.5134   65.4276 C   0  0  0  0  0  0  0  0  0  0  0  0
  -50.8851   60.2885   64.1861 C   0  0  0  0  0  0  0  0  0  0  0  0
  -51.2080   59.4175   62.9902 C   0  0  0  0  0  0  0  0  0  0  0  0
  -50.1031   59.3781   61.9406 C   0  0  0  0  0  0  0  0  0  0  0  0
  -49.9763   58.0446   61.2293 C   0  0  0  0  0  0  0  0  0  0  0  0
  -50.2383   58.1296   59.7396 C   0  0  0  0  0  0  0  0  0  0  0  0
  -49.1584   57.4722   58.8916 C   0  0  0  0  0  0  0  0  0  0  0  0
  -48.0635   58.4286   58.4537 C   0  0  0  0  0  0  0  0  0  0  0  0
  -47.2922   56.3650   57.2362 C   0  0  0  0  0  0  0  0  0  0  0  0
  -47.0377   57.8299   57.5100 C   0  0  0  0  0  0  0  0  0  0  0  0
  -39.1723   59.8668   65.5129 C   0  0  0  0  0  0  0  0  0  0  0  0
  -38.8415   61.2727   65.4631 O   0  0  0  0  0  0  0  0  0  0  0  0
  -37.4661   61.8191   64.8536 P   0  0  0  0  0  0  0  0  0  0  0  0
  -36.3940   60.8678   65.2175 O   0  0  0  0  0  0  0  0  0  0  0  0
  -37.6871   62.1290   63.4205 O   0  0  0  0  0  0  0  0  0  0  0  0
  -37.8619   61.3075   62.9352 H   0  0  0  0  0  0  0  0  0  0  0  0
  -37.1831   63.1920   65.6137 O   0  0  0  0  0  0  0  0  0  0  0  0
  -36.0282   63.9836   65.2676 C   0  0  0  0  0  0  0  0  0  0  0  0
  -36.0659   64.0857   67.6614 O   0  0  0  0  0  0  0  0  0  0  0  0
  -35.2148   64.2104   66.5182 C   0  0  0  0  0  0  0  0  0  0  0  0
  -36.8093   64.7034   67.5801 H   0  0  0  0  0  0  0  0  0  0  0  0
  -33.3623   63.4415   67.8580 O   0  0  0  0  0  0  0  0  0  0  0  0
  -34.0509   63.2550   66.6282 C   0  0  0  0  0  0  0  0  0  0  0  0
  -32.6194   62.8201   67.9101 H   0  0  0  0  0  0  0  0  0  0  0  0
  -41.2342   60.9132   64.6715 O   0  0  0  0  0  0  0  0  0  0  0  0
  -42.6748   61.8525   63.2215 O   0  0  0  0  0  0  0  0  0  0  0  0
  -41.6826   61.2116   63.4370 C   0  0  0  0  0  0  0  0  0  0  0  0
  -40.7873   60.6653   62.3683 C   0  0  0  0  0  0  0  0  0  0  0  0
  -41.4296   60.7786   60.9893 C   0  0  0  0  0  0  0  0  0  0  0  0
  -40.6393   60.0984   59.8836 C   0  0  0  0  0  0  0  0  0  0  0  0
  -41.2108   58.7476   59.4680 C   0  0  0  0  0  0  0  0  0  0  0  0
  -40.3186   57.5688   59.8100 C   0  0  0  0  0  0  0  0  0  0  0  0
  -40.3481   57.1544   61.2839 C   0  0  0  0  0  0  0  0  0  0  0  0
  -38.9794   57.0616   61.9621 C   0  0  0  0  0  0  0  0  0  0  0  0
  -37.9953   58.0336   61.3834 C   0  0  0  0  0  0  0  0  0  0  0  0
  -36.8492   58.4064   61.9189 C   0  0  0  0  0  0  0  0  0  0  0  0
  -36.2883   57.9326   63.2225 C   0  0  0  0  0  0  0  0  0  0  0  0
  -34.7794   57.7130   63.1617 C   0  0  0  0  0  0  0  0  0  0  0  0
  -34.0072   58.4935   64.2109 C   0  0  0  0  0  0  0  0  0  0  0  0
  -32.6075   58.8865   63.7710 C   0  0  0  0  0  0  0  0  0  0  0  0
  -32.4817   59.2185   62.2934 C   0  0  0  0  0  0  0  0  0  0  0  0
  -32.0761   60.6605   62.0291 C   0  0  0  0  0  0  0  0  0  0  0  0
  -30.7472   61.0553   62.6420 C   0  0  0  0  0  0  0  0  0  0  0  0
  -29.5707   60.5374   61.8627 C   0  0  0  0  0  0  0  0  0  0  0  0
 21 22  1  0  0  0
  4  5  2  0  0  0
 25 24  1  0  0  0
 25 26  2  0  0  0
 25 27  1  0  0  0
 25 29  1  0  0  0
 22 20  1  0  0  0
  3  5  1  0  0  0
  3  2  1  0  0  0
 20 19  1  0  0  0
 24 23  1  0  0  0
 19 18  1  0  0  0
 18 17  1  0  0  0
 27 28  1  0  0  0
 17 16  1  0  0  0
 29 30  1  0  0  0
 16 15  1  0  0  0
 34 35  1  0  0  0
 34 36  1  0  0  0
 15 14  1  0  0  0
 31 32  1  0  0  0
 31 33  1  0  0  0
 14 13  1  0  0  0
 37  1  1  0  0  0
 37 39  1  0  0  0
 13 12  1  0  0  0
 38 39  2  0  0  0
 12 11  1  0  0  0
 11 10  1  0  0  0
 10  9  1  0  0  0
  9  8  1  0  0  0
  8  7  1  0  0  0
  7  6  1  0  0  0
  6  5  1  0  0  0
  2  1  1  0  0  0
  1 23  1  0  0  0
 30 32  1  0  0  0
 32 35  1  0  0  0
 39 40  1  0  0  0
 40 41  1  0  0  0
 41 42  1  0  0  0
 42 43  1  0  0  0
 43 44  1  0  0  0
 44 45  1  0  0  0
 45 46  1  0  0  0
 46 47  1  0  0  0
 47 48  2  0  0  0
 48 49  1  0  0  0
 49 50  1  0  0  0
 50 51  1  0  0  0
 51 52  1  0  0  0
 52 53  1  0  0  0
 53 54  1  0  0  0
 54 55  1  0  0  0
 55 56  1  0  0  0
M  CHG 1  26  -1
M  END
> <minimizedAffinity>
-9.04892

> <CNNscore>
0.5389918089

> <CNNaffinity>
7.4618005753

> <CNN_VS>
4.0218491554

> <CNNaffinity_variance>
1.2177162170

$$$$
/media/chris/experiments/cd1a-new-docking/inputs/ligands/7sh4_ligand.pdb


 56 55  0  0  0  0  0  0  0  0999 V2000
  -37.8975   61.5812   64.4171 C   0  0  0  0  0  0  0  0  0  0  0  0
  -36.8614   61.9198   63.3829 C   0  0  0  0  0  0  0  0  0  0  0  0
  -37.1547   63.2881   63.0298 O   0  0  0  0  0  0  0  0  0  0  0  0
  -36.2469   65.1768   62.2502 O   0  0  0  0  0  0  0  0  0  0  0  0
  -36.1360   64.0323   62.5982 C   0  0  0  0  0  0  0  0  0  0  0  0
  -34.8337   63.2954   62.7255 C   0  0  0  0  0  0  0  0  0  0  0  0
  -33.7297   63.8269   61.8271 C   0  0  0  0  0  0  0  0  0  0  0  0
  -32.5123   62.9270   61.7993 C   0  0  0  0  0  0  0  0  0  0  0  0
  -32.5419   61.8135   62.8216 C   0  0  0  0  0  0  0  0  0  0  0  0
  -31.5126   60.7343   62.5533 C   0  0  0  0  0  0  0  0  0  0  0  0
  -32.0963   59.3426   62.5564 C   0  0  0  0  0  0  0  0  0  0  0  0
  -33.5928   59.3327   62.7241 C   0  0  0  0  0  0  0  0  0  0  0  0
  -34.1688   57.9441   62.8920 C   0  0  0  0  0  0  0  0  0  0  0  0
  -35.0293   57.8134   64.1325 C   0  0  0  0  0  0  0  0  0  0  0  0
  -36.5156   57.9347   63.8691 C   0  0  0  0  0  0  0  0  0  0  0  0
  -36.8766   57.9880   62.3890 C   0  0  0  0  0  0  0  0  0  0  0  0
  -38.1497   57.2422   62.0380 C   0  0  0  0  0  0  0  0  0  0  0  0
  -38.8586   57.8008   60.8212 C   0  0  0  0  0  0  0  0  0  0  0  0
  -40.3532   57.5126   60.7999 C   0  0  0  0  0  0  0  0  0  0  0  0
  -41.1346   58.4238   59.8702 C   0  0  0  0  0  0  0  0  0  0  0  0
  -41.3834   60.5364   61.2158 C   0  0  0  0  0  0  0  0  0  0  0  0
  -40.7862   59.8958   59.9835 C   0  0  0  0  0  0  0  0  0  0  0  0
  -37.2765   61.1300   65.7142 C   0  0  0  0  0  0  0  0  0  0  0  0
  -36.0374   61.8473   65.9109 O   0  0  0  0  0  0  0  0  0  0  0  0
  -35.9085   63.1022   66.8960 P   0  0  0  0  0  0  0  0  0  0  0  0
  -36.5959   64.2506   66.2669 O   0  0  0  0  0  0  0  0  0  0  0  0
  -36.3338   62.6720   68.2497 O   0  0  0  0  0  0  0  0  0  0  0  0
  -37.2810   62.4633   68.2400 H   0  0  0  0  0  0  0  0  0  0  0  0
  -34.3501   63.4348   66.9546 O   0  0  0  0  0  0  0  0  0  0  0  0
  -33.6243   63.7076   65.7385 C   0  0  0  0  0  0  0  0  0  0  0  0
  -31.4963   64.4775   64.9504 O   0  0  0  0  0  0  0  0  0  0  0  0
  -32.3507   64.4330   66.0972 C   0  0  0  0  0  0  0  0  0  0  0  0
  -31.3373   63.5758   64.6304 H   0  0  0  0  0  0  0  0  0  0  0  0
  -33.2673   65.7892   67.8688 O   0  0  0  0  0  0  0  0  0  0  0  0
  -32.6091   65.8297   66.6092 C   0  0  0  0  0  0  0  0  0  0  0  0
  -33.4245   66.6941   68.1807 H   0  0  0  0  0  0  0  0  0  0  0  0
  -38.7894   60.5596   63.8595 O   0  0  0  0  0  0  0  0  0  0  0  0
  -40.6430   61.0801   65.0230 O   0  0  0  0  0  0  0  0  0  0  0  0
  -39.8931   60.2587   64.5706 C   0  0  0  0  0  0  0  0  0  0  0  0
  -40.0822   58.7802   64.7130 C   0  0  0  0  0  0  0  0  0  0  0  0
  -41.4918   58.3560   64.3131 C   0  0  0  0  0  0  0  0  0  0  0  0
  -42.1359   57.3724   65.2761 C   0  0  0  0  0  0  0  0  0  0  0  0
  -43.3024   57.9621   66.0606 C   0  0  0  0  0  0  0  0  0  0  0  0
  -44.6612   57.6931   65.4410 C   0  0  0  0  0  0  0  0  0  0  0  0
  -45.6297   58.8782   65.4911 C   0  0  0  0  0  0  0  0  0  0  0  0
  -47.0995   58.5099   65.7058 C   0  0  0  0  0  0  0  0  0  0  0  0
  -47.8985   59.6617   66.2377 C   0  0  0  0  0  0  0  0  0  0  0  0
  -49.1808   59.8918   66.0324 C   0  0  0  0  0  0  0  0  0  0  0  0
  -50.1110   59.0451   65.2225 C   0  0  0  0  0  0  0  0  0  0  0  0
  -50.9397   59.8669   64.2394 C   0  0  0  0  0  0  0  0  0  0  0  0
  -50.5846   59.6161   62.7844 C   0  0  0  0  0  0  0  0  0  0  0  0
  -50.6769   58.1556   62.3771 C   0  0  0  0  0  0  0  0  0  0  0  0
  -50.5926   57.9130   60.8793 C   0  0  0  0  0  0  0  0  0  0  0  0
  -49.7078   58.9142   60.1525 C   0  0  0  0  0  0  0  0  0  0  0  0
  -48.6241   58.2834   59.3010 C   0  0  0  0  0  0  0  0  0  0  0  0
  -48.6197   56.7825   59.3834 C   0  0  0  0  0  0  0  0  0  0  0  0
 21 22  1  0  0  0
  4  5  2  0  0  0
 25 24  1  0  0  0
 25 26  2  0  0  0
 25 27  1  0  0  0
 25 29  1  0  0  0
 22 20  1  0  0  0
  3  5  1  0  0  0
  3  2  1  0  0  0
 20 19  1  0  0  0
 24 23  1  0  0  0
 19 18  1  0  0  0
 18 17  1  0  0  0
 27 28  1  0  0  0
 17 16  1  0  0  0
 29 30  1  0  0  0
 16 15  1  0  0  0
 34 35  1  0  0  0
 34 36  1  0  0  0
 15 14  1  0  0  0
 31 32  1  0  0  0
 31 33  1  0  0  0
 14 13  1  0  0  0
 37  1  1  0  0  0
 37 39  1  0  0  0
 13 12  1  0  0  0
 38 39  2  0  0  0
 12 11  1  0  0  0
 11 10  1  0  0  0
 10  9  1  0  0  0
  9  8  1  0  0  0
  8  7  1  0  0  0
  7  6  1  0  0  0
  6  5  1  0  0  0
  2  1  1  0  0  0
  1 23  1  0  0  0
 30 32  1  0  0  0
 32 35  1  0  0  0
 39 40  1  0  0  0
 40 41  1  0  0  0
 41 42  1  0  0  0
 42 43  1  0  0  0
 43 44  1  0  0  0
 44 45  1  0  0  0
 45 46  1  0  0  0
 46 47  1  0  0  0
 47 48  2  0  0  0
 48 49  1  0  0  0
 49 50  1  0  0  0
 50 51  1  0  0  0
 51 52  1  0  0  0
 52 53  1  0  0  0
 53 54  1  0  0  0
 54 55  1  0  0  0
 55 56  1  0  0  0
M  CHG 1  26  -1
M  END
> <minimizedAffinity>
-8.10801

> <CNNscore>
0.5083529949

> <CNNaffinity>
7.3483352661

> <CNN_VS>
3.7355482578

> <CNNaffinity_variance>
0.7565494776

$$$$
/media/chris/experiments/cd1a-new-docking/inputs/ligands/7sh4_ligand.pdb


 56 55  0  0  0  0  0  0  0  0999 V2000
  -40.8449   59.8100   65.1367 C   0  0  0  0  0  0  0  0  0  0  0  0
  -41.7581   59.3807   66.2500 C   0  0  0  0  0  0  0  0  0  0  0  0
  -41.8401   57.9475   66.1014 O   0  0  0  0  0  0  0  0  0  0  0  0
  -44.0327   57.6233   66.3956 O   0  0  0  0  0  0  0  0  0  0  0  0
  -43.0269   57.4421   65.7639 C   0  0  0  0  0  0  0  0  0  0  0  0
  -42.9589   56.7341   64.4413 C   0  0  0  0  0  0  0  0  0  0  0  0
  -41.5505   56.3655   64.0065 C   0  0  0  0  0  0  0  0  0  0  0  0
  -41.4349   56.1543   62.5116 C   0  0  0  0  0  0  0  0  0  0  0  0
  -41.7754   57.3740   61.6858 C   0  0  0  0  0  0  0  0  0  0  0  0
  -41.3285   57.2570   60.2426 C   0  0  0  0  0  0  0  0  0  0  0  0
  -40.7796   58.5472   59.6843 C   0  0  0  0  0  0  0  0  0  0  0  0
  -39.3805   58.4069   59.1452 C   0  0  0  0  0  0  0  0  0  0  0  0
  -38.3482   59.1652   59.9498 C   0  0  0  0  0  0  0  0  0  0  0  0
  -37.6538   58.2957   60.9785 C   0  0  0  0  0  0  0  0  0  0  0  0
  -38.2959   58.3280   62.3496 C   0  0  0  0  0  0  0  0  0  0  0  0
  -37.3884   57.8257   63.4667 C   0  0  0  0  0  0  0  0  0  0  0  0
  -35.9098   58.0305   63.1985 C   0  0  0  0  0  0  0  0  0  0  0  0
  -35.0323   57.7182   64.3933 C   0  0  0  0  0  0  0  0  0  0  0  0
  -33.7240   58.4964   64.4096 C   0  0  0  0  0  0  0  0  0  0  0  0
  -32.9654   58.4374   63.0958 C   0  0  0  0  0  0  0  0  0  0  0  0
  -33.1845   60.9405   63.2435 C   0  0  0  0  0  0  0  0  0  0  0  0
  -32.4756   59.7790   62.5847 C   0  0  0  0  0  0  0  0  0  0  0  0
  -39.4073   59.8900   65.5826 C   0  0  0  0  0  0  0  0  0  0  0  0
  -39.0025   61.2772   65.6009 O   0  0  0  0  0  0  0  0  0  0  0  0
  -37.6651   61.7998   64.8939 P   0  0  0  0  0  0  0  0  0  0  0  0
  -36.5883   60.8256   65.1740 O   0  0  0  0  0  0  0  0  0  0  0  0
  -37.9847   62.1219   63.4823 O   0  0  0  0  0  0  0  0  0  0  0  0
  -38.2111   61.3067   63.0079 H   0  0  0  0  0  0  0  0  0  0  0  0
  -37.2996   63.1627   65.6366 O   0  0  0  0  0  0  0  0  0  0  0  0
  -36.1192   63.8983   65.2549 C   0  0  0  0  0  0  0  0  0  0  0  0
  -36.1306   64.1455   67.6384 O   0  0  0  0  0  0  0  0  0  0  0  0
  -35.2798   64.1243   66.4883 C   0  0  0  0  0  0  0  0  0  0  0  0
  -36.8156   64.8222   67.5215 H   0  0  0  0  0  0  0  0  0  0  0  0
  -33.3572   63.3935   67.7483 O   0  0  0  0  0  0  0  0  0  0  0  0
  -34.2065   63.0753   66.6533 C   0  0  0  0  0  0  0  0  0  0  0  0
  -32.6754   62.7094   67.8381 H   0  0  0  0  0  0  0  0  0  0  0  0
  -41.3231   61.0950   64.6170 O   0  0  0  0  0  0  0  0  0  0  0  0
  -40.6834   60.8728   62.4719 O   0  0  0  0  0  0  0  0  0  0  0  0
  -41.5092   61.1842   63.2860 C   0  0  0  0  0  0  0  0  0  0  0  0
  -42.8729   61.6995   62.9441 C   0  0  0  0  0  0  0  0  0  0  0  0
  -43.8352   61.5563   64.1190 C   0  0  0  0  0  0  0  0  0  0  0  0
  -44.5879   60.2362   64.1416 C   0  0  0  0  0  0  0  0  0  0  0  0
  -45.9285   60.3109   64.8635 C   0  0  0  0  0  0  0  0  0  0  0  0
  -47.0278   59.4948   64.2093 C   0  0  0  0  0  0  0  0  0  0  0  0
  -47.9179   58.7246   65.1889 C   0  0  0  0  0  0  0  0  0  0  0  0
  -49.2647   59.3813   65.4999 C   0  0  0  0  0  0  0  0  0  0  0  0
  -49.5756   60.5059   64.5583 C   0  0  0  0  0  0  0  0  0  0  0  0
  -50.4417   60.4835   63.5639 C   0  0  0  0  0  0  0  0  0  0  0  0
  -51.3007   59.3245   63.1674 C   0  0  0  0  0  0  0  0  0  0  0  0
  -50.6251   58.4247   62.1366 C   0  0  0  0  0  0  0  0  0  0  0  0
  -49.6219   59.1510   61.2578 C   0  0  0  0  0  0  0  0  0  0  0  0
  -49.7978   58.8746   59.7746 C   0  0  0  0  0  0  0  0  0  0  0  0
  -48.5275   58.4464   59.0589 C   0  0  0  0  0  0  0  0  0  0  0  0
  -48.7620   57.3930   57.9870 C   0  0  0  0  0  0  0  0  0  0  0  0
  -47.7536   57.4214   56.8557 C   0  0  0  0  0  0  0  0  0  0  0  0
  -46.7227   58.5026   57.0226 C   0  0  0  0  0  0  0  0  0  0  0  0
 21 22  1  0  0  0
  4  5  2  0  0  0
 25 24  1  0  0  0
 25 26  2  0  0  0
 25 27  1  0  0  0
 25 29  1  0  0  0
 22 20  1  0  0  0
  3  5  1  0  0  0
  3  2  1  0  0  0
 20 19  1  0  0  0
 24 23  1  0  0  0
 19 18  1  0  0  0
 18 17  1  0  0  0
 27 28  1  0  0  0
 17 16  1  0  0  0
 29 30  1  0  0  0
 16 15  1  0  0  0
 34 35  1  0  0  0
 34 36  1  0  0  0
 15 14  1  0  0  0
 31 32  1  0  0  0
 31 33  1  0  0  0
 14 13  1  0  0  0
 37  1  1  0  0  0
 37 39  1  0  0  0
 13 12  1  0  0  0
 38 39  2  0  0  0
 12 11  1  0  0  0
 11 10  1  0  0  0
 10  9  1  0  0  0
  9  8  1  0  0  0
  8  7  1  0  0  0
  7  6  1  0  0  0
  6  5  1  0  0  0
  2  1  1  0  0  0
  1 23  1  0  0  0
 30 32  1  0  0  0
 32 35  1  0  0  0
 39 40  1  0  0  0
 40 41  1  0  0  0
 41 42  1  0  0  0
 42 43  1  0  0  0
 43 44  1  0  0  0
 44 45  1  0  0  0
 45 46  1  0  0  0
 46 47  1  0  0  0
 47 48  2  0  0  0
 48 49  1  0  0  0
 49 50  1  0  0  0
 50 51  1  0  0  0
 51 52  1  0  0  0
 52 53  1  0  0  0
 53 54  1  0  0  0
 54 55  1  0  0  0
 55 56  1  0  0  0
M  CHG 1  26  -1
M  END
> <minimizedAffinity>
-9.01854

> <CNNscore>
0.4720978439

> <CNNaffinity>
7.5369162560

> <CNN_VS>
3.5581619740

> <CNNaffinity_variance>
1.6793401241

$$$$
/media/chris/experiments/cd1a-new-docking/inputs/ligands/7sh4_ligand.pdb


 56 55  0  0  0  0  0  0  0  0999 V2000
  -42.0954   60.2501   63.1214 C   0  0  0  0  0  0  0  0  0  0  0  0
  -41.3573   59.3143   62.2065 C   0  0  0  0  0  0  0  0  0  0  0  0
  -40.6411   60.1923   61.3125 O   0  0  0  0  0  0  0  0  0  0  0  0
  -41.0380   61.1366   59.3251 O   0  0  0  0  0  0  0  0  0  0  0  0
  -40.9922   60.1623   60.0266 C   0  0  0  0  0  0  0  0  0  0  0  0
  -41.1953   58.7520   59.5523 C   0  0  0  0  0  0  0  0  0  0  0  0
  -39.9111   58.0336   59.1739 C   0  0  0  0  0  0  0  0  0  0  0  0
  -38.6965   58.9360   59.2288 C   0  0  0  0  0  0  0  0  0  0  0  0
  -37.6810   58.5444   60.2782 C   0  0  0  0  0  0  0  0  0  0  0  0
  -38.2431   57.6055   61.3264 C   0  0  0  0  0  0  0  0  0  0  0  0
  -37.3574   57.4727   62.5411 C   0  0  0  0  0  0  0  0  0  0  0  0
  -36.0575   58.2209   62.4062 C   0  0  0  0  0  0  0  0  0  0  0  0
  -35.4070   58.5385   63.7344 C   0  0  0  0  0  0  0  0  0  0  0  0
  -33.9749   58.0499   63.8163 C   0  0  0  0  0  0  0  0  0  0  0  0
  -32.9775   59.1217   64.2031 C   0  0  0  0  0  0  0  0  0  0  0  0
  -32.9002   60.2776   63.2123 C   0  0  0  0  0  0  0  0  0  0  0  0
  -31.9244   60.0492   62.0740 C   0  0  0  0  0  0  0  0  0  0  0  0
  -30.4732   60.1700   62.4916 C   0  0  0  0  0  0  0  0  0  0  0  0
  -29.6651   61.1227   61.6217 C   0  0  0  0  0  0  0  0  0  0  0  0
  -29.2404   62.3905   62.3412 C   0  0  0  0  0  0  0  0  0  0  0  0
  -30.6305   64.4888   62.3276 C   0  0  0  0  0  0  0  0  0  0  0  0
  -30.3728   63.1579   62.9969 C   0  0  0  0  0  0  0  0  0  0  0  0
  -41.3498   60.4876   64.4096 C   0  0  0  0  0  0  0  0  0  0  0  0
  -40.2297   61.3614   64.1445 O   0  0  0  0  0  0  0  0  0  0  0  0
  -38.7081   60.8736   64.2374 P   0  0  0  0  0  0  0  0  0  0  0  0
  -38.6831   59.5884   64.9686 O   0  0  0  0  0  0  0  0  0  0  0  0
  -38.1212   60.9305   62.8769 O   0  0  0  0  0  0  0  0  0  0  0  0
  -38.5555   60.2744   62.3097 H   0  0  0  0  0  0  0  0  0  0  0  0
  -37.9690   61.9641   65.1358 O   0  0  0  0  0  0  0  0  0  0  0  0
  -36.6823   61.6686   65.7165 C   0  0  0  0  0  0  0  0  0  0  0  0
  -35.5278   62.4023   63.7489 O   0  0  0  0  0  0  0  0  0  0  0  0
  -35.6722   62.6376   65.1528 C   0  0  0  0  0  0  0  0  0  0  0  0
  -35.2828   61.4757   63.5998 H   0  0  0  0  0  0  0  0  0  0  0  0
  -36.7450   64.2052   66.6394 O   0  0  0  0  0  0  0  0  0  0  0  0
  -36.0540   64.0767   65.4034 C   0  0  0  0  0  0  0  0  0  0  0  0
  -36.9815   65.1349   66.7824 H   0  0  0  0  0  0  0  0  0  0  0  0
  -43.4328   59.7000   63.3632 O   0  0  0  0  0  0  0  0  0  0  0  0
  -43.4227   58.7302   65.3929 O   0  0  0  0  0  0  0  0  0  0  0  0
  -43.8218   59.5826   64.6474 C   0  0  0  0  0  0  0  0  0  0  0  0
  -44.7952   60.6513   65.0380 C   0  0  0  0  0  0  0  0  0  0  0  0
  -46.1967   60.3479   64.5177 C   0  0  0  0  0  0  0  0  0  0  0  0
  -46.7698   59.0334   65.0210 C   0  0  0  0  0  0  0  0  0  0  0  0
  -47.6428   59.1840   66.2616 C   0  0  0  0  0  0  0  0  0  0  0  0
  -48.7714   60.1860   66.1037 C   0  0  0  0  0  0  0  0  0  0  0  0
  -50.1522   59.5608   65.8859 C   0  0  0  0  0  0  0  0  0  0  0  0
  -50.9595   60.1516   64.7278 C   0  0  0  0  0  0  0  0  0  0  0  0
  -50.0993   60.4606   63.5394 C   0  0  0  0  0  0  0  0  0  0  0  0
  -49.7331   59.6188   62.5924 C   0  0  0  0  0  0  0  0  0  0  0  0
  -50.1039   58.1720   62.5056 C   0  0  0  0  0  0  0  0  0  0  0  0
  -50.8236   57.8324   61.2036 C   0  0  0  0  0  0  0  0  0  0  0  0
  -50.2251   58.5079   59.9823 C   0  0  0  0  0  0  0  0  0  0  0  0
  -49.5273   57.5475   59.0347 C   0  0  0  0  0  0  0  0  0  0  0  0
  -48.3563   56.7976   59.6477 C   0  0  0  0  0  0  0  0  0  0  0  0
  -47.1854   56.6187   58.6934 C   0  0  0  0  0  0  0  0  0  0  0  0
  -47.4496   57.1127   57.2850 C   0  0  0  0  0  0  0  0  0  0  0  0
  -46.7935   58.4348   56.9998 C   0  0  0  0  0  0  0  0  0  0  0  0
 21 22  1  0  0  0
  4  5  2  0  0  0
 25 24  1  0  0  0
 25 26  2  0  0  0
 25 27  1  0  0  0
 25 29  1  0  0  0
 22 20  1  0  0  0
  3  5  1  0  0  0
  3  2  1  0  0  0
 20 19  1  0  0  0
 24 23  1  0  0  0
 19 18  1  0  0  0
 18 17  1  0  0  0
 27 28  1  0  0  0
 17 16  1  0  0  0
 29 30  1  0  0  0
 16 15  1  0  0  0
 34 35  1  0  0  0
 34 36  1  0  0  0
 15 14  1  0  0  0
 31 32  1  0  0  0
 31 33  1  0  0  0
 14 13  1  0  0  0
 37  1  1  0  0  0
 37 39  1  0  0  0
 13 12  1  0  0  0
 38 39  2  0  0  0
 12 11  1  0  0  0
 11 10  1  0  0  0
 10  9  1  0  0  0
  9  8  1  0  0  0
  8  7  1  0  0  0
  7  6  1  0  0  0
  6  5  1  0  0  0
  2  1  1  0  0  0
  1 23  1  0  0  0
 30 32  1  0  0  0
 32 35  1  0  0  0
 39 40  1  0  0  0
 40 41  1  0  0  0
 41 42  1  0  0  0
 42 43  1  0  0  0
 43 44  1  0  0  0
 44 45  1  0  0  0
 45 46  1  0  0  0
 46 47  1  0  0  0
 47 48  2  0  0  0
 48 49  1  0  0  0
 49 50  1  0  0  0
 50 51  1  0  0  0
 51 52  1  0  0  0
 52 53  1  0  0  0
 53 54  1  0  0  0
 54 55  1  0  0  0
 55 56  1  0  0  0
M  CHG 1  26  -1
M  END
> <minimizedAffinity>
-8.41871

> <CNNscore>
0.3514201343

> <CNNaffinity>
6.8673124313

> <CNN_VS>
2.4133119583

> <CNNaffinity_variance>
0.8143033981

$$$$
/media/chris/experiments/cd1a-new-docking/inputs/ligands/7sh4_ligand.pdb


 56 55  0  0  0  0  0  0  0  0999 V2000
  -39.9692   60.0830   64.7418 C   0  0  0  0  0  0  0  0  0  0  0  0
  -40.6085   59.0217   65.5918 C   0  0  0  0  0  0  0  0  0  0  0  0
  -40.7720   57.9051   64.6920 O   0  0  0  0  0  0  0  0  0  0  0  0
  -41.8919   55.9788   64.5067 O   0  0  0  0  0  0  0  0  0  0  0  0
  -41.8247   57.1131   64.8972 C   0  0  0  0  0  0  0  0  0  0  0  0
  -42.8426   57.7805   65.7768 C   0  0  0  0  0  0  0  0  0  0  0  0
  -44.1868   58.0097   65.1068 C   0  0  0  0  0  0  0  0  0  0  0  0
  -45.3450   57.4612   65.9132 C   0  0  0  0  0  0  0  0  0  0  0  0
  -45.8184   58.3772   67.0190 C   0  0  0  0  0  0  0  0  0  0  0  0
  -46.3840   59.6853   66.5044 C   0  0  0  0  0  0  0  0  0  0  0  0
  -47.6342   59.5077   65.6780 C   0  0  0  0  0  0  0  0  0  0  0  0
  -47.4516   59.9147   64.2397 C   0  0  0  0  0  0  0  0  0  0  0  0
  -48.3954   61.0128   63.8021 C   0  0  0  0  0  0  0  0  0  0  0  0
  -49.8509   60.5976   63.8760 C   0  0  0  0  0  0  0  0  0  0  0  0
  -50.4402   60.1715   62.5477 C   0  0  0  0  0  0  0  0  0  0  0  0
  -51.2158   58.8607   62.6101 C   0  0  0  0  0  0  0  0  0  0  0  0
  -50.7388   57.8148   61.6208 C   0  0  0  0  0  0  0  0  0  0  0  0
  -49.2655   57.9295   61.2870 C   0  0  0  0  0  0  0  0  0  0  0  0
  -48.8480   57.1054   60.0770 C   0  0  0  0  0  0  0  0  0  0  0  0
  -48.7859   57.9061   58.7885 C   0  0  0  0  0  0  0  0  0  0  0  0
  -46.9815   58.4657   57.1252 C   0  0  0  0  0  0  0  0  0  0  0  0
  -47.8129   57.3712   57.7550 C   0  0  0  0  0  0  0  0  0  0  0  0
  -38.7172   60.6360   65.3731 C   0  0  0  0  0  0  0  0  0  0  0  0
  -37.8780   61.1892   64.3348 O   0  0  0  0  0  0  0  0  0  0  0  0
  -36.7023   62.2332   64.6340 P   0  0  0  0  0  0  0  0  0  0  0  0
  -37.2313   63.2691   65.5472 O   0  0  0  0  0  0  0  0  0  0  0  0
  -35.4996   61.4691   65.0440 O   0  0  0  0  0  0  0  0  0  0  0  0
  -35.6665   61.0360   65.8958 H   0  0  0  0  0  0  0  0  0  0  0  0
  -36.3876   62.9277   63.2335 O   0  0  0  0  0  0  0  0  0  0  0  0
  -35.1101   63.5596   63.0125 C   0  0  0  0  0  0  0  0  0  0  0  0
  -35.6390   63.7902   60.6867 O   0  0  0  0  0  0  0  0  0  0  0  0
  -35.2472   64.5176   61.8547 C   0  0  0  0  0  0  0  0  0  0  0  0
  -34.9970   63.0838   60.5151 H   0  0  0  0  0  0  0  0  0  0  0  0
  -36.0662   66.6960   61.2204 O   0  0  0  0  0  0  0  0  0  0  0  0
  -36.2368   65.6225   62.1370 C   0  0  0  0  0  0  0  0  0  0  0  0
  -36.7095   67.3947   61.4174 H   0  0  0  0  0  0  0  0  0  0  0  0
  -40.9604   61.1345   64.4933 O   0  0  0  0  0  0  0  0  0  0  0  0
  -42.8608   61.2299   63.2935 O   0  0  0  0  0  0  0  0  0  0  0  0
  -41.6765   61.0422   63.3563 C   0  0  0  0  0  0  0  0  0  0  0  0
  -40.8177   60.6965   62.1795 C   0  0  0  0  0  0  0  0  0  0  0  0
  -41.5292   60.9908   60.8627 C   0  0  0  0  0  0  0  0  0  0  0  0
  -40.8940   60.3202   59.6557 C   0  0  0  0  0  0  0  0  0  0  0  0
  -41.1205   58.8136   59.6057 C   0  0  0  0  0  0  0  0  0  0  0  0
  -39.8653   58.0101   59.3205 C   0  0  0  0  0  0  0  0  0  0  0  0
  -38.5749   58.8342   59.2901 C   0  0  0  0  0  0  0  0  0  0  0  0
  -37.8086   58.8938   60.6134 C   0  0  0  0  0  0  0  0  0  0  0  0
  -38.0738   57.6951   61.4741 C   0  0  0  0  0  0  0  0  0  0  0  0
  -37.5622   57.4524   62.6652 C   0  0  0  0  0  0  0  0  0  0  0  0
  -36.6063   58.3292   63.4107 C   0  0  0  0  0  0  0  0  0  0  0  0
  -35.1492   57.9787   63.1233 C   0  0  0  0  0  0  0  0  0  0  0  0
  -34.2244   58.1988   64.3074 C   0  0  0  0  0  0  0  0  0  0  0  0
  -32.8714   58.7742   63.9259 C   0  0  0  0  0  0  0  0  0  0  0  0
  -32.9379   59.9902   63.0169 C   0  0  0  0  0  0  0  0  0  0  0  0
  -31.8419   60.0189   61.9625 C   0  0  0  0  0  0  0  0  0  0  0  0
  -30.8472   61.1503   62.1299 C   0  0  0  0  0  0  0  0  0  0  0  0
  -29.4268   60.7141   61.9024 C   0  0  0  0  0  0  0  0  0  0  0  0
 21 22  1  0  0  0
  4  5  2  0  0  0
 25 24  1  0  0  0
 25 26  2  0  0  0
 25 27  1  0  0  0
 25 29  1  0  0  0
 22 20  1  0  0  0
  3  5  1  0  0  0
  3  2  1  0  0  0
 20 19  1  0  0  0
 24 23  1  0  0  0
 19 18  1  0  0  0
 18 17  1  0  0  0
 27 28  1  0  0  0
 17 16  1  0  0  0
 29 30  1  0  0  0
 16 15  1  0  0  0
 34 35  1  0  0  0
 34 36  1  0  0  0
 15 14  1  0  0  0
 31 32  1  0  0  0
 31 33  1  0  0  0
 14 13  1  0  0  0
 37  1  1  0  0  0
 37 39  1  0  0  0
 13 12  1  0  0  0
 38 39  2  0  0  0
 12 11  1  0  0  0
 11 10  1  0  0  0
 10  9  1  0  0  0
  9  8  1  0  0  0
  8  7  1  0  0  0
  7  6  1  0  0  0
  6  5  1  0  0  0
  2  1  1  0  0  0
  1 23  1  0  0  0
 30 32  1  0  0  0
 32 35  1  0  0  0
 39 40  1  0  0  0
 40 41  1  0  0  0
 41 42  1  0  0  0
 42 43  1  0  0  0
 43 44  1  0  0  0
 44 45  1  0  0  0
 45 46  1  0  0  0
 46 47  1  0  0  0
 47 48  2  0  0  0
 48 49  1  0  0  0
 49 50  1  0  0  0
 50 51  1  0  0  0
 51 52  1  0  0  0
 52 53  1  0  0  0
 53 54  1  0  0  0
 54 55  1  0  0  0
 55 56  1  0  0  0
M  CHG 1  26  -1
M  END
> <minimizedAffinity>
-8.45844

> <CNNscore>
0.3453828990

> <CNNaffinity>
7.3616752625

> <CNN_VS>
2.5425968170

> <CNNaffinity_variance>
1.3098590374

$$$$
/media/chris/experiments/cd1a-new-docking/inputs/ligands/7sh4_ligand.pdb


 56 55  0  0  0  0  0  0  0  0999 V2000
  -40.4492   60.0834   63.9268 C   0  0  0  0  0  0  0  0  0  0  0  0
  -40.1013   58.7189   64.4511 C   0  0  0  0  0  0  0  0  0  0  0  0
  -40.5197   57.8235   63.3993 O   0  0  0  0  0  0  0  0  0  0  0  0
  -42.5292   57.1848   64.1429 O   0  0  0  0  0  0  0  0  0  0  0  0
  -41.8304   57.6179   63.2668 C   0  0  0  0  0  0  0  0  0  0  0  0
  -42.3256   58.1125   61.9382 C   0  0  0  0  0  0  0  0  0  0  0  0
  -41.5982   57.5177   60.7442 C   0  0  0  0  0  0  0  0  0  0  0  0
  -40.9460   58.5692   59.8716 C   0  0  0  0  0  0  0  0  0  0  0  0
  -39.6161   58.1506   59.2867 C   0  0  0  0  0  0  0  0  0  0  0  0
  -38.4311   58.7238   60.0372 C   0  0  0  0  0  0  0  0  0  0  0  0
  -38.0162   57.8856   61.2217 C   0  0  0  0  0  0  0  0  0  0  0  0
  -36.8156   58.4393   61.9426 C   0  0  0  0  0  0  0  0  0  0  0  0
  -36.5807   57.8024   63.2944 C   0  0  0  0  0  0  0  0  0  0  0  0
  -35.1090   57.6425   63.6182 C   0  0  0  0  0  0  0  0  0  0  0  0
  -34.5693   58.6867   64.5730 C   0  0  0  0  0  0  0  0  0  0  0  0
  -33.2756   59.3415   64.1024 C   0  0  0  0  0  0  0  0  0  0  0  0
  -32.7981   58.8582   62.7465 C   0  0  0  0  0  0  0  0  0  0  0  0
  -32.2035   59.9578   61.8906 C   0  0  0  0  0  0  0  0  0  0  0  0
  -30.9647   60.6012   62.4978 C   0  0  0  0  0  0  0  0  0  0  0  0
  -31.0446   62.1152   62.5803 C   0  0  0  0  0  0  0  0  0  0  0  0
  -32.7787   63.5547   61.4593 C   0  0  0  0  0  0  0  0  0  0  0  0
  -32.4535   62.6739   62.6443 C   0  0  0  0  0  0  0  0  0  0  0  0
  -39.3131   60.6980   63.1502 C   0  0  0  0  0  0  0  0  0  0  0  0
  -38.7242   61.7526   63.9436 O   0  0  0  0  0  0  0  0  0  0  0  0
  -37.2919   61.6142   64.6443 P   0  0  0  0  0  0  0  0  0  0  0  0
  -37.3425   60.4583   65.5652 O   0  0  0  0  0  0  0  0  0  0  0  0
  -36.2554   61.6356   63.5843 O   0  0  0  0  0  0  0  0  0  0  0  0
  -36.3382   60.8404   63.0350 H   0  0  0  0  0  0  0  0  0  0  0  0
  -37.1219   62.9344   65.5223 O   0  0  0  0  0  0  0  0  0  0  0  0
  -36.0993   63.8955   65.1896 C   0  0  0  0  0  0  0  0  0  0  0  0
  -36.0867   64.0211   67.5826 O   0  0  0  0  0  0  0  0  0  0  0  0
  -35.2619   64.1444   66.4200 C   0  0  0  0  0  0  0  0  0  0  0  0
  -36.8390   64.6292   67.5114 H   0  0  0  0  0  0  0  0  0  0  0  0
  -33.4220   63.3516   67.7633 O   0  0  0  0  0  0  0  0  0  0  0  0
  -34.0847   63.2037   66.5141 C   0  0  0  0  0  0  0  0  0  0  0  0
  -32.6700   62.7404   67.8048 H   0  0  0  0  0  0  0  0  0  0  0  0
  -40.8489   60.9248   65.0591 O   0  0  0  0  0  0  0  0  0  0  0  0
  -42.2978   60.0203   66.5230 O   0  0  0  0  0  0  0  0  0  0  0  0
  -42.0777   60.7172   65.5704 C   0  0  0  0  0  0  0  0  0  0  0  0
  -43.1313   61.4726   64.8212 C   0  0  0  0  0  0  0  0  0  0  0  0
  -44.2130   60.5401   64.2853 C   0  0  0  0  0  0  0  0  0  0  0  0
  -45.4497   60.4607   65.1651 C   0  0  0  0  0  0  0  0  0  0  0  0
  -46.5360   59.5471   64.6091 C   0  0  0  0  0  0  0  0  0  0  0  0
  -47.9183   60.1726   64.5905 C   0  0  0  0  0  0  0  0  0  0  0  0
  -48.7674   59.8778   65.8303 C   0  0  0  0  0  0  0  0  0  0  0  0
  -50.1555   59.2990   65.5468 C   0  0  0  0  0  0  0  0  0  0  0  0
  -51.0567   60.2942   64.8794 C   0  0  0  0  0  0  0  0  0  0  0  0
  -51.5446   60.2183   63.6564 C   0  0  0  0  0  0  0  0  0  0  0  0
  -51.3000   59.1157   62.6753 C   0  0  0  0  0  0  0  0  0  0  0  0
  -50.0998   59.3932   61.7747 C   0  0  0  0  0  0  0  0  0  0  0  0
  -49.1468   58.2175   61.6498 C   0  0  0  0  0  0  0  0  0  0  0  0
  -49.7380   57.0291   60.9112 C   0  0  0  0  0  0  0  0  0  0  0  0
  -48.8668   56.4876   59.7901 C   0  0  0  0  0  0  0  0  0  0  0  0
  -48.5843   57.5065   58.6966 C   0  0  0  0  0  0  0  0  0  0  0  0
  -47.1245   57.6057   58.3009 C   0  0  0  0  0  0  0  0  0  0  0  0
  -46.9310   58.2140   56.9399 C   0  0  0  0  0  0  0  0  0  0  0  0
 21 22  1  0  0  0
  4  5  2  0  0  0
 25 24  1  0  0  0
 25 26  2  0  0  0
 25 27  1  0  0  0
 25 29  1  0  0  0
 22 20  1  0  0  0
  3  5  1  0  0  0
  3  2  1  0  0  0
 20 19  1  0  0  0
 24 23  1  0  0  0
 19 18  1  0  0  0
 18 17  1  0  0  0
 27 28  1  0  0  0
 17 16  1  0  0  0
 29 30  1  0  0  0
 16 15  1  0  0  0
 34 35  1  0  0  0
 34 36  1  0  0  0
 15 14  1  0  0  0
 31 32  1  0  0  0
 31 33  1  0  0  0
 14 13  1  0  0  0
 37  1  1  0  0  0
 37 39  1  0  0  0
 13 12  1  0  0  0
 38 39  2  0  0  0
 12 11  1  0  0  0
 11 10  1  0  0  0
 10  9  1  0  0  0
  9  8  1  0  0  0
  8  7  1  0  0  0
  7  6  1  0  0  0
  6  5  1  0  0  0
  2  1  1  0  0  0
  1 23  1  0  0  0
 30 32  1  0  0  0
 32 35  1  0  0  0
 39 40  1  0  0  0
 40 41  1  0  0  0
 41 42  1  0  0  0
 42 43  1  0  0  0
 43 44  1  0  0  0
 44 45  1  0  0  0
 45 46  1  0  0  0
 46 47  1  0  0  0
 47 48  2  0  0  0
 48 49  1  0  0  0
 49 50  1  0  0  0
 50 51  1  0  0  0
 51 52  1  0  0  0
 52 53  1  0  0  0
 53 54  1  0  0  0
 54 55  1  0  0  0
 55 56  1  0  0  0
M  CHG 1  26  -1
M  END
> <minimizedAffinity>
-8.79666

> <CNNscore>
0.3159400523

> <CNNaffinity>
7.0831055641

> <CNN_VS>
2.2378368378

> <CNNaffinity_variance>
1.1658462286

$$$$
/media/chris/experiments/cd1a-new-docking/inputs/ligands/7sh4_ligand.pdb


 56 55  0  0  0  0  0  0  0  0999 V2000
  -41.6115   58.6080   64.0521 C   0  0  0  0  0  0  0  0  0  0  0  0
  -42.5933   57.5509   64.4719 C   0  0  0  0  0  0  0  0  0  0  0  0
  -43.8166   58.2817   64.7012 O   0  0  0  0  0  0  0  0  0  0  0  0
  -44.0639   57.3988   66.7403 O   0  0  0  0  0  0  0  0  0  0  0  0
  -44.3103   58.2598   65.9395 C   0  0  0  0  0  0  0  0  0  0  0  0
  -45.0999   59.5035   66.2309 C   0  0  0  0  0  0  0  0  0  0  0  0
  -46.5943   59.3584   65.9983 C   0  0  0  0  0  0  0  0  0  0  0  0
  -47.0612   60.0518   64.7358 C   0  0  0  0  0  0  0  0  0  0  0  0
  -48.4217   60.7008   64.8528 C   0  0  0  0  0  0  0  0  0  0  0  0
  -49.2788   60.0897   65.9428 C   0  0  0  0  0  0  0  0  0  0  0  0
  -50.6017   59.5689   65.4365 C   0  0  0  0  0  0  0  0  0  0  0  0
  -51.2460   60.4819   64.4271 C   0  0  0  0  0  0  0  0  0  0  0  0
  -51.3745   59.8623   63.0531 C   0  0  0  0  0  0  0  0  0  0  0  0
  -50.7913   58.4654   62.9842 C   0  0  0  0  0  0  0  0  0  0  0  0
  -49.5367   58.3603   62.1427 C   0  0  0  0  0  0  0  0  0  0  0  0
  -49.4365   59.4199   61.0513 C   0  0  0  0  0  0  0  0  0  0  0  0
  -49.4479   58.8569   59.6431 C   0  0  0  0  0  0  0  0  0  0  0  0
  -49.1411   57.3745   59.5849 C   0  0  0  0  0  0  0  0  0  0  0  0
  -47.6556   57.0629   59.4673 C   0  0  0  0  0  0  0  0  0  0  0  0
  -47.2794   56.3792   58.1649 C   0  0  0  0  0  0  0  0  0  0  0  0
  -46.7942   58.5522   56.9908 C   0  0  0  0  0  0  0  0  0  0  0  0
  -47.5014   57.2178   56.9205 C   0  0  0  0  0  0  0  0  0  0  0  0
  -40.2998   58.4854   64.7843 C   0  0  0  0  0  0  0  0  0  0  0  0
  -39.3577   59.4191   64.2106 O   0  0  0  0  0  0  0  0  0  0  0  0
  -38.2746   60.2071   65.0868 P   0  0  0  0  0  0  0  0  0  0  0  0
  -38.9803   61.2598   65.8489 O   0  0  0  0  0  0  0  0  0  0  0  0
  -37.4677   59.2094   65.8298 O   0  0  0  0  0  0  0  0  0  0  0  0
  -38.0292   58.7590   66.4800 H   0  0  0  0  0  0  0  0  0  0  0  0
  -37.3175   60.9230   64.0313 O   0  0  0  0  0  0  0  0  0  0  0  0
  -37.5576   62.2941   63.6536 C   0  0  0  0  0  0  0  0  0  0  0  0
  -37.0002   63.5349   65.6265 O   0  0  0  0  0  0  0  0  0  0  0  0
  -36.5245   63.1617   64.3298 C   0  0  0  0  0  0  0  0  0  0  0  0
  -37.8610   63.9737   65.5412 H   0  0  0  0  0  0  0  0  0  0  0  0
  -34.7970   61.9187   63.1944 O   0  0  0  0  0  0  0  0  0  0  0  0
  -35.1840   62.4764   64.4437 C   0  0  0  0  0  0  0  0  0  0  0  0
  -33.9351   61.4836   63.2876 H   0  0  0  0  0  0  0  0  0  0  0  0
  -42.2288   59.9212   64.2630 O   0  0  0  0  0  0  0  0  0  0  0  0
  -42.6004   61.9072   63.2742 O   0  0  0  0  0  0  0  0  0  0  0  0
  -42.2608   60.7575   63.2077 C   0  0  0  0  0  0  0  0  0  0  0  0
  -41.8056   60.0880   61.9481 C   0  0  0  0  0  0  0  0  0  0  0  0
  -41.6068   61.0955   60.8201 C   0  0  0  0  0  0  0  0  0  0  0  0
  -41.0096   60.4969   59.5572 C   0  0  0  0  0  0  0  0  0  0  0  0
  -40.8695   58.9798   59.6088 C   0  0  0  0  0  0  0  0  0  0  0  0
  -39.7021   58.4404   58.8033 C   0  0  0  0  0  0  0  0  0  0  0  0
  -38.3226   58.8314   59.3411 C   0  0  0  0  0  0  0  0  0  0  0  0
  -38.2582   59.0810   60.8495 C   0  0  0  0  0  0  0  0  0  0  0  0
  -38.0385   57.8152   61.6225 C   0  0  0  0  0  0  0  0  0  0  0  0
  -36.9641   57.4926   62.3161 C   0  0  0  0  0  0  0  0  0  0  0  0
  -35.7341   58.3288   62.4782 C   0  0  0  0  0  0  0  0  0  0  0  0
  -34.6574   57.6272   63.3010 C   0  0  0  0  0  0  0  0  0  0  0  0
  -34.2425   58.3955   64.5435 C   0  0  0  0  0  0  0  0  0  0  0  0
  -32.7731   58.7802   64.5603 C   0  0  0  0  0  0  0  0  0  0  0  0
  -32.1391   58.9051   63.1849 C   0  0  0  0  0  0  0  0  0  0  0  0
  -31.8642   60.3434   62.7731 C   0  0  0  0  0  0  0  0  0  0  0  0
  -31.0449   60.4818   61.5054 C   0  0  0  0  0  0  0  0  0  0  0  0
  -29.6167   60.8652   61.7751 C   0  0  0  0  0  0  0  0  0  0  0  0
 21 22  1  0  0  0
  4  5  2  0  0  0
 25 24  1  0  0  0
 25 26  2  0  0  0
 25 27  1  0  0  0
 25 29  1  0  0  0
 22 20  1  0  0  0
  3  5  1  0  0  0
  3  2  1  0  0  0
 20 19  1  0  0  0
 24 23  1  0  0  0
 19 18  1  0  0  0
 18 17  1  0  0  0
 27 28  1  0  0  0
 17 16  1  0  0  0
 29 30  1  0  0  0
 16 15  1  0  0  0
 34 35  1  0  0  0
 34 36  1  0  0  0
 15 14  1  0  0  0
 31 32  1  0  0  0
 31 33  1  0  0  0
 14 13  1  0  0  0
 37  1  1  0  0  0
 37 39  1  0  0  0
 13 12  1  0  0  0
 38 39  2  0  0  0
 12 11  1  0  0  0
 11 10  1  0  0  0
 10  9  1  0  0  0
  9  8  1  0  0  0
  8  7  1  0  0  0
  7  6  1  0  0  0
  6  5  1  0  0  0
  2  1  1  0  0  0
  1 23  1  0  0  0
 30 32  1  0  0  0
 32 35  1  0  0  0
 39 40  1  0  0  0
 40 41  1  0  0  0
 41 42  1  0  0  0
 42 43  1  0  0  0
 43 44  1  0  0  0
 44 45  1  0  0  0
 45 46  1  0  0  0
 46 47  1  0  0  0
 47 48  2  0  0  0
 48 49  1  0  0  0
 49 50  1  0  0  0
 50 51  1  0  0  0
 51 52  1  0  0  0
 52 53  1  0  0  0
 53 54  1  0  0  0
 54 55  1  0  0  0
 55 56  1  0  0  0
M  CHG 1  26  -1
M  END
> <minimizedAffinity>
-8.65879

> <CNNscore>
0.2881777883

> <CNNaffinity>
7.0578107834

> <CNN_VS>
2.0339043140

> <CNNaffinity_variance>
1.3667575121

$$$$
/media/chris/experiments/cd1a-new-docking/inputs/ligands/7sh4_ligand.pdb


 56 55  0  0  0  0  0  0  0  0999 V2000
  -37.7812   61.7416   63.4777 C   0  0  0  0  0  0  0  0  0  0  0  0
  -37.3740   61.3743   64.8767 C   0  0  0  0  0  0  0  0  0  0  0  0
  -37.1372   62.6460   65.5168 O   0  0  0  0  0  0  0  0  0  0  0  0
  -36.3459   62.6344   67.6079 O   0  0  0  0  0  0  0  0  0  0  0  0
  -36.1598   62.6937   66.4224 C   0  0  0  0  0  0  0  0  0  0  0  0
  -34.8102   62.7035   65.7641 C   0  0  0  0  0  0  0  0  0  0  0  0
  -34.0406   61.4013   65.9069 C   0  0  0  0  0  0  0  0  0  0  0  0
  -33.9537   60.6263   64.6090 C   0  0  0  0  0  0  0  0  0  0  0  0
  -33.8789   59.1268   64.7870 C   0  0  0  0  0  0  0  0  0  0  0  0
  -34.6964   58.3663   63.7626 C   0  0  0  0  0  0  0  0  0  0  0  0
  -36.0154   57.8715   64.3039 C   0  0  0  0  0  0  0  0  0  0  0  0
  -37.0620   57.6979   63.2352 C   0  0  0  0  0  0  0  0  0  0  0  0
  -36.7415   58.4375   61.9552 C   0  0  0  0  0  0  0  0  0  0  0  0
  -37.7736   58.2045   60.8704 C   0  0  0  0  0  0  0  0  0  0  0  0
  -38.1957   59.4613   60.1387 C   0  0  0  0  0  0  0  0  0  0  0  0
  -39.5915   59.3810   59.5312 C   0  0  0  0  0  0  0  0  0  0  0  0
  -40.1458   57.9719   59.4449 C   0  0  0  0  0  0  0  0  0  0  0  0
  -41.3925   57.7631   60.2799 C   0  0  0  0  0  0  0  0  0  0  0  0
  -41.3719   56.4786   61.0966 C   0  0  0  0  0  0  0  0  0  0  0  0
  -40.7027   56.6302   62.4511 C   0  0  0  0  0  0  0  0  0  0  0  0
  -42.6791   57.2140   63.8963 C   0  0  0  0  0  0  0  0  0  0  0  0
  -41.5639   56.2277   63.6332 C   0  0  0  0  0  0  0  0  0  0  0  0
  -37.1141   63.0090   63.0083 C   0  0  0  0  0  0  0  0  0  0  0  0
  -35.7416   62.7132   62.6663 O   0  0  0  0  0  0  0  0  0  0  0  0
  -34.8288   63.7063   61.8047 P   0  0  0  0  0  0  0  0  0  0  0  0
  -33.4571   63.1549   61.7717 O   0  0  0  0  0  0  0  0  0  0  0  0
  -35.5208   63.9719   60.5204 O   0  0  0  0  0  0  0  0  0  0  0  0
  -35.5570   63.1556   59.9978 H   0  0  0  0  0  0  0  0  0  0  0  0
  -34.7905   65.0692   62.6315 O   0  0  0  0  0  0  0  0  0  0  0  0
  -34.0502   66.1991   62.1262 C   0  0  0  0  0  0  0  0  0  0  0  0
  -33.5269   68.0261   63.5858 O   0  0  0  0  0  0  0  0  0  0  0  0
  -33.1388   66.6985   63.2202 C   0  0  0  0  0  0  0  0  0  0  0  0
  -33.5160   68.5943   62.7998 H   0  0  0  0  0  0  0  0  0  0  0  0
  -32.3159   64.6668   64.2269 O   0  0  0  0  0  0  0  0  0  0  0  0
  -33.1504   65.7994   64.4331 C   0  0  0  0  0  0  0  0  0  0  0  0
  -32.3365   64.1022   65.0154 H   0  0  0  0  0  0  0  0  0  0  0  0
  -39.2427   61.8514   63.4362 O   0  0  0  0  0  0  0  0  0  0  0  0
  -39.6589   59.6536   63.6746 O   0  0  0  0  0  0  0  0  0  0  0  0
  -39.9334   60.7202   63.1964 C   0  0  0  0  0  0  0  0  0  0  0  0
  -41.0930   60.9555   62.2787 C   0  0  0  0  0  0  0  0  0  0  0  0
  -42.4204   60.6530   62.9667 C   0  0  0  0  0  0  0  0  0  0  0  0
  -43.1292   61.8841   63.5069 C   0  0  0  0  0  0  0  0  0  0  0  0
  -44.5313   61.5988   64.0328 C   0  0  0  0  0  0  0  0  0  0  0  0
  -44.5682   60.6199   65.1916 C   0  0  0  0  0  0  0  0  0  0  0  0
  -45.9210   59.9342   65.4031 C   0  0  0  0  0  0  0  0  0  0  0  0
  -46.9357   60.1331   64.2749 C   0  0  0  0  0  0  0  0  0  0  0  0
  -48.3410   60.2262   64.7892 C   0  0  0  0  0  0  0  0  0  0  0  0
  -49.4309   59.7957   64.1840 C   0  0  0  0  0  0  0  0  0  0  0  0
  -49.4918   59.1191   62.8511 C   0  0  0  0  0  0  0  0  0  0  0  0
  -49.6882   60.1072   61.7049 C   0  0  0  0  0  0  0  0  0  0  0  0
  -49.4604   59.5006   60.3315 C   0  0  0  0  0  0  0  0  0  0  0  0
  -49.2628   57.9947   60.3551 C   0  0  0  0  0  0  0  0  0  0  0  0
  -48.1916   57.4852   59.4053 C   0  0  0  0  0  0  0  0  0  0  0  0
  -47.8162   58.4858   58.3229 C   0  0  0  0  0  0  0  0  0  0  0  0
  -47.1226   57.8728   57.1226 C   0  0  0  0  0  0  0  0  0  0  0  0
  -47.1122   56.3702   57.1616 C   0  0  0  0  0  0  0  0  0  0  0  0
 21 22  1  0  0  0
  4  5  2  0  0  0
 25 24  1  0  0  0
 25 26  2  0  0  0
 25 27  1  0  0  0
 25 29  1  0  0  0
 22 20  1  0  0  0
  3  5  1  0  0  0
  3  2  1  0  0  0
 20 19  1  0  0  0
 24 23  1  0  0  0
 19 18  1  0  0  0
 18 17  1  0  0  0
 27 28  1  0  0  0
 17 16  1  0  0  0
 29 30  1  0  0  0
 16 15  1  0  0  0
 34 35  1  0  0  0
 34 36  1  0  0  0
 15 14  1  0  0  0
 31 32  1  0  0  0
 31 33  1  0  0  0
 14 13  1  0  0  0
 37  1  1  0  0  0
 37 39  1  0  0  0
 13 12  1  0  0  0
 38 39  2  0  0  0
 12 11  1  0  0  0
 11 10  1  0  0  0
 10  9  1  0  0  0
  9  8  1  0  0  0
  8  7  1  0  0  0
  7  6  1  0  0  0
  6  5  1  0  0  0
  2  1  1  0  0  0
  1 23  1  0  0  0
 30 32  1  0  0  0
 32 35  1  0  0  0
 39 40  1  0  0  0
 40 41  1  0  0  0
 41 42  1  0  0  0
 42 43  1  0  0  0
 43 44  1  0  0  0
 44 45  1  0  0  0
 45 46  1  0  0  0
 46 47  1  0  0  0
 47 48  2  0  0  0
 48 49  1  0  0  0
 49 50  1  0  0  0
 50 51  1  0  0  0
 51 52  1  0  0  0
 52 53  1  0  0  0
 53 54  1  0  0  0
 54 55  1  0  0  0
 55 56  1  0  0  0
M  CHG 1  26  -1
M  END
> <minimizedAffinity>
-8.08089

> <CNNscore>
0.2710739672

> <CNNaffinity>
7.3558897972

> <CNN_VS>
1.9939901829

> <CNNaffinity_variance>
0.7240389585

$$$$
/media/chris/experiments/cd1a-new-docking/inputs/ligands/7sh4_ligand.pdb


 56 55  0  0  0  0  0  0  0  0999 V2000
  -41.0842   59.6234   62.2655 C   0  0  0  0  0  0  0  0  0  0  0  0
  -42.1861   58.7229   62.7478 C   0  0  0  0  0  0  0  0  0  0  0  0
  -41.7367   58.2867   64.0481 O   0  0  0  0  0  0  0  0  0  0  0  0
  -42.4451   57.4727   66.0063 O   0  0  0  0  0  0  0  0  0  0  0  0
  -42.6781   57.9689   64.9373 C   0  0  0  0  0  0  0  0  0  0  0  0
  -44.0335   58.4252   64.4790 C   0  0  0  0  0  0  0  0  0  0  0  0
  -45.1013   58.3798   65.5589 C   0  0  0  0  0  0  0  0  0  0  0  0
  -46.4883   58.6683   65.0243 C   0  0  0  0  0  0  0  0  0  0  0  0
  -46.7281   60.1198   64.6759 C   0  0  0  0  0  0  0  0  0  0  0  0
  -48.1761   60.5368   64.8352 C   0  0  0  0  0  0  0  0  0  0  0  0
  -48.9327   59.6886   65.8280 C   0  0  0  0  0  0  0  0  0  0  0  0
  -50.3016   59.2928   65.3410 C   0  0  0  0  0  0  0  0  0  0  0  0
  -51.0542   60.4259   64.6792 C   0  0  0  0  0  0  0  0  0  0  0  0
  -51.6034   60.0477   63.3185 C   0  0  0  0  0  0  0  0  0  0  0  0
  -50.6104   59.3290   62.4293 C   0  0  0  0  0  0  0  0  0  0  0  0
  -51.1358   58.0195   61.8521 C   0  0  0  0  0  0  0  0  0  0  0  0
  -50.2121   57.3809   60.8328 C   0  0  0  0  0  0  0  0  0  0  0  0
  -50.1834   58.1110   59.5056 C   0  0  0  0  0  0  0  0  0  0  0  0
  -48.8285   58.7204   59.1736 C   0  0  0  0  0  0  0  0  0  0  0  0
  -47.7357   57.6894   58.9544 C   0  0  0  0  0  0  0  0  0  0  0  0
  -47.0681   56.1333   57.0920 C   0  0  0  0  0  0  0  0  0  0  0  0
  -47.2526   57.5712   57.5214 C   0  0  0  0  0  0  0  0  0  0  0  0
  -41.0581   60.9343   63.0090 C   0  0  0  0  0  0  0  0  0  0  0  0
  -39.7692   61.0824   63.6456 O   0  0  0  0  0  0  0  0  0  0  0  0
  -39.4877   60.6205   65.1520 P   0  0  0  0  0  0  0  0  0  0  0  0
  -40.6736   60.9646   65.9657 O   0  0  0  0  0  0  0  0  0  0  0  0
  -39.0273   59.2113   65.1243 O   0  0  0  0  0  0  0  0  0  0  0  0
  -39.7515   58.6404   64.8234 H   0  0  0  0  0  0  0  0  0  0  0  0
  -38.2715   61.5234   65.6503 O   0  0  0  0  0  0  0  0  0  0  0  0
  -36.9184   61.0370   65.5380 C   0  0  0  0  0  0  0  0  0  0  0  0
  -36.1941   61.5560   63.3135 O   0  0  0  0  0  0  0  0  0  0  0  0
  -36.1381   61.9966   64.6735 C   0  0  0  0  0  0  0  0  0  0  0  0
  -35.8651   60.6454   63.2547 H   0  0  0  0  0  0  0  0  0  0  0  0
  -36.7351   63.8116   66.1458 O   0  0  0  0  0  0  0  0  0  0  0  0
  -36.6473   63.4137   64.7836 C   0  0  0  0  0  0  0  0  0  0  0  0
  -37.0635   64.7229   66.1959 H   0  0  0  0  0  0  0  0  0  0  0  0
  -41.2492   59.8225   60.8223 O   0  0  0  0  0  0  0  0  0  0  0  0
  -40.9721   58.0038   59.5276 O   0  0  0  0  0  0  0  0  0  0  0  0
  -40.5405   59.0153   60.0096 C   0  0  0  0  0  0  0  0  0  0  0  0
  -39.1592   59.5390   59.7651 C   0  0  0  0  0  0  0  0  0  0  0  0
  -38.0980   58.6080   60.3431 C   0  0  0  0  0  0  0  0  0  0  0  0
  -37.7287   58.9144   61.7851 C   0  0  0  0  0  0  0  0  0  0  0  0
  -36.9987   57.7728   62.4834 C   0  0  0  0  0  0  0  0  0  0  0  0
  -35.5095   58.0070   62.6562 C   0  0  0  0  0  0  0  0  0  0  0  0
  -35.0262   57.9875   64.1091 C   0  0  0  0  0  0  0  0  0  0  0  0
  -33.9267   58.9980   64.4437 C   0  0  0  0  0  0  0  0  0  0  0  0
  -32.6223   58.6498   63.7918 C   0  0  0  0  0  0  0  0  0  0  0  0
  -31.9533   59.3866   62.9262 C   0  0  0  0  0  0  0  0  0  0  0  0
  -32.3588   60.7322   62.4131 C   0  0  0  0  0  0  0  0  0  0  0  0
  -31.2486   61.7692   62.5574 C   0  0  0  0  0  0  0  0  0  0  0  0
  -31.4574   63.0082   61.7047 C   0  0  0  0  0  0  0  0  0  0  0  0
  -32.9098   63.4415   61.6038 C   0  0  0  0  0  0  0  0  0  0  0  0
  -33.1509   64.9113   61.9051 C   0  0  0  0  0  0  0  0  0  0  0  0
  -33.7754   65.1552   63.2705 C   0  0  0  0  0  0  0  0  0  0  0  0
  -32.7828   65.1642   64.4160 C   0  0  0  0  0  0  0  0  0  0  0  0
  -32.9752   64.0113   65.3612 C   0  0  0  0  0  0  0  0  0  0  0  0
 21 22  1  0  0  0
  4  5  2  0  0  0
 25 24  1  0  0  0
 25 26  2  0  0  0
 25 27  1  0  0  0
 25 29  1  0  0  0
 22 20  1  0  0  0
  3  5  1  0  0  0
  3  2  1  0  0  0
 20 19  1  0  0  0
 24 23  1  0  0  0
 19 18  1  0  0  0
 18 17  1  0  0  0
 27 28  1  0  0  0
 17 16  1  0  0  0
 29 30  1  0  0  0
 16 15  1  0  0  0
 34 35  1  0  0  0
 34 36  1  0  0  0
 15 14  1  0  0  0
 31 32  1  0  0  0
 31 33  1  0  0  0
 14 13  1  0  0  0
 37  1  1  0  0  0
 37 39  1  0  0  0
 13 12  1  0  0  0
 38 39  2  0  0  0
 12 11  1  0  0  0
 11 10  1  0  0  0
 10  9  1  0  0  0
  9  8  1  0  0  0
  8  7  1  0  0  0
  7  6  1  0  0  0
  6  5  1  0  0  0
  2  1  1  0  0  0
  1 23  1  0  0  0
 30 32  1  0  0  0
 32 35  1  0  0  0
 39 40  1  0  0  0
 40 41  1  0  0  0
 41 42  1  0  0  0
 42 43  1  0  0  0
 43 44  1  0  0  0
 44 45  1  0  0  0
 45 46  1  0  0  0
 46 47  1  0  0  0
 47 48  2  0  0  0
 48 49  1  0  0  0
 49 50  1  0  0  0
 50 51  1  0  0  0
 51 52  1  0  0  0
 52 53  1  0  0  0
 53 54  1  0  0  0
 54 55  1  0  0  0
 55 56  1  0  0  0
M  CHG 1  26  -1
M  END
> <minimizedAffinity>
-8.30274

> <CNNscore>
0.2673350871

> <CNNaffinity>
6.8101205826

> <CNN_VS>
1.8205841780

> <CNNaffinity_variance>
0.8867235184

$$$$
