/media/chris/experiments/cd1a-new-docking/inputs/ligands/7sh4_ligand.pdb


 56 55  0  0  0  0  0  0  0  0999 V2000
  -41.1737   60.2196   64.2241 C   0  0  0  0  0  0  0  0  0  0  0  0
  -41.0302   59.5731   65.5729 C   0  0  0  0  0  0  0  0  0  0  0  0
  -40.9273   58.1644   65.2757 O   0  0  0  0  0  0  0  0  0  0  0  0
  -42.8438   57.6162   66.2886 O   0  0  0  0  0  0  0  0  0  0  0  0
  -42.0336   57.4343   65.4202 C   0  0  0  0  0  0  0  0  0  0  0  0
  -42.1879   56.4542   64.2930 C   0  0  0  0  0  0  0  0  0  0  0  0
  -41.1607   56.6157   63.1853 C   0  0  0  0  0  0  0  0  0  0  0  0
  -41.3167   55.5859   62.0863 C   0  0  0  0  0  0  0  0  0  0  0  0
  -41.2558   56.1580   60.6882 C   0  0  0  0  0  0  0  0  0  0  0  0
  -41.6980   57.6056   60.6198 C   0  0  0  0  0  0  0  0  0  0  0  0
  -41.0763   58.3630   59.4720 C   0  0  0  0  0  0  0  0  0  0  0  0
  -40.7484   59.7914   59.8185 C   0  0  0  0  0  0  0  0  0  0  0  0
  -39.2645   60.0502   59.9565 C   0  0  0  0  0  0  0  0  0  0  0  0
  -38.4259   58.8259   59.6499 C   0  0  0  0  0  0  0  0  0  0  0  0
  -37.4300   58.4718   60.7344 C   0  0  0  0  0  0  0  0  0  0  0  0
  -38.0644   57.8554   61.9760 C   0  0  0  0  0  0  0  0  0  0  0  0
  -37.2130   57.9725   63.2257 C   0  0  0  0  0  0  0  0  0  0  0  0
  -35.7742   57.5470   63.0159 C   0  0  0  0  0  0  0  0  0  0  0  0
  -34.7694   58.3928   63.7857 C   0  0  0  0  0  0  0  0  0  0  0  0
  -33.4372   58.5510   63.0748 C   0  0  0  0  0  0  0  0  0  0  0  0
  -31.9170   60.1702   61.8902 C   0  0  0  0  0  0  0  0  0  0  0  0
  -32.9208   59.9756   63.0039 C   0  0  0  0  0  0  0  0  0  0  0  0
  -39.8818   60.8348   63.7508 C   0  0  0  0  0  0  0  0  0  0  0  0
  -39.1197   61.2602   64.9026 O   0  0  0  0  0  0  0  0  0  0  0  0
  -37.5525   61.5785   64.8365 P   0  0  0  0  0  0  0  0  0  0  0  0
  -36.8474   60.5834   65.6728 O   0  0  0  0  0  0  0  0  0  0  0  0
  -37.1682   61.7109   63.4105 O   0  0  0  0  0  0  0  0  0  0  0  0
  -37.2635   60.8526   62.9689 H   0  0  0  0  0  0  0  0  0  0  0  0
  -37.3823   63.0070   65.5244 O   0  0  0  0  0  0  0  0  0  0  0  0
  -36.1280   63.7117   65.4232 C   0  0  0  0  0  0  0  0  0  0  0  0
  -35.9436   62.9405   67.6845 O   0  0  0  0  0  0  0  0  0  0  0  0
  -35.6533   64.0408   66.8172 C   0  0  0  0  0  0  0  0  0  0  0  0
  -36.8922   62.7417   67.6484 H   0  0  0  0  0  0  0  0  0  0  0  0
  -33.4781   63.4070   67.6449 O   0  0  0  0  0  0  0  0  0  0  0  0
  -34.1791   64.3641   66.8612 C   0  0  0  0  0  0  0  0  0  0  0  0
  -32.5345   63.6311   67.6611 H   0  0  0  0  0  0  0  0  0  0  0  0
  -42.2503   61.2121   64.3003 O   0  0  0  0  0  0  0  0  0  0  0  0
  -42.3626   61.9964   66.4056 O   0  0  0  0  0  0  0  0  0  0  0  0
  -42.8453   61.3769   65.4974 C   0  0  0  0  0  0  0  0  0  0  0  0
  -44.1857   60.7119   65.5533 C   0  0  0  0  0  0  0  0  0  0  0  0
  -44.9627   60.9107   64.2558 C   0  0  0  0  0  0  0  0  0  0  0  0
  -46.4684   60.7756   64.4122 C   0  0  0  0  0  0  0  0  0  0  0  0
  -46.9203   59.3634   64.7663 C   0  0  0  0  0  0  0  0  0  0  0  0
  -47.5946   59.2531   66.1212 C   0  0  0  0  0  0  0  0  0  0  0  0
  -48.8826   60.0698   66.2598 C   0  0  0  0  0  0  0  0  0  0  0  0
  -50.1562   59.3622   65.7921 C   0  0  0  0  0  0  0  0  0  0  0  0
  -50.8978   60.1576   64.7599 C   0  0  0  0  0  0  0  0  0  0  0  0
  -51.1760   59.7819   63.5267 C   0  0  0  0  0  0  0  0  0  0  0  0
  -50.8086   58.4752   62.8978 C   0  0  0  0  0  0  0  0  0  0  0  0
  -49.4958   58.5503   62.1234 C   0  0  0  0  0  0  0  0  0  0  0  0
  -49.4695   59.6470   61.0734 C   0  0  0  0  0  0  0  0  0  0  0  0
  -49.1778   59.1416   59.6709 C   0  0  0  0  0  0  0  0  0  0  0  0
  -49.5891   57.6998   59.4230 C   0  0  0  0  0  0  0  0  0  0  0  0
  -48.4099   56.7497   59.2798 C   0  0  0  0  0  0  0  0  0  0  0  0
  -47.3512   57.2156   58.2999 C   0  0  0  0  0  0  0  0  0  0  0  0
  -47.1092   56.2285   57.1924 C   0  0  0  0  0  0  0  0  0  0  0  0
 21 22  1  0  0  0
  4  5  2  0  0  0
 25 24  1  0  0  0
 25 26  2  0  0  0
 25 27  1  0  0  0
 25 29  1  0  0  0
 22 20  1  0  0  0
  3  5  1  0  0  0
  3  2  1  0  0  0
 20 19  1  0  0  0
 24 23  1  0  0  0
 19 18  1  0  0  0
 18 17  1  0  0  0
 27 28  1  0  0  0
 17 16  1  0  0  0
 29 30  1  0  0  0
 16 15  1  0  0  0
 34 35  1  0  0  0
 34 36  1  0  0  0
 15 14  1  0  0  0
 31 32  1  0  0  0
 31 33  1  0  0  0
 14 13  1  0  0  0
 37  1  1  0  0  0
 37 39  1  0  0  0
 13 12  1  0  0  0
 38 39  2  0  0  0
 12 11  1  0  0  0
 11 10  1  0  0  0
 10  9  1  0  0  0
  9  8  1  0  0  0
  8  7  1  0  0  0
  7  6  1  0  0  0
  6  5  1  0  0  0
  2  1  1  0  0  0
  1 23  1  0  0  0
 30 32  1  0  0  0
 32 35  1  0  0  0
 39 40  1  0  0  0
 40 41  1  0  0  0
 41 42  1  0  0  0
 42 43  1  0  0  0
 43 44  1  0  0  0
 44 45  1  0  0  0
 45 46  1  0  0  0
 46 47  1  0  0  0
 47 48  2  0  0  0
 48 49  1  0  0  0
 49 50  1  0  0  0
 50 51  1  0  0  0
 51 52  1  0  0  0
 52 53  1  0  0  0
 53 54  1  0  0  0
 54 55  1  0  0  0
 55 56  1  0  0  0
M  CHG 1  26  -1
M  END
> <minimizedAffinity>
-9.10665

> <CNNscore>
0.3326764405

> <CNNaffinity>
7.4281425476

> <CNN_VS>
2.4711680412

> <CNNaffinity_variance>
1.3717132807

$$$$
/media/chris/experiments/cd1a-new-docking/inputs/ligands/7sh4_ligand.pdb


 56 55  0  0  0  0  0  0  0  0999 V2000
  -35.6859   62.8816   63.8101 C   0  0  0  0  0  0  0  0  0  0  0  0
  -36.9129   62.9550   62.9459 C   0  0  0  0  0  0  0  0  0  0  0  0
  -37.3609   61.5858   62.8585 O   0  0  0  0  0  0  0  0  0  0  0  0
  -38.6258   61.3871   64.6915 O   0  0  0  0  0  0  0  0  0  0  0  0
  -38.4862   61.2761   63.5033 C   0  0  0  0  0  0  0  0  0  0  0  0
  -39.5758   60.8977   62.5419 C   0  0  0  0  0  0  0  0  0  0  0  0
  -40.9500   60.7753   63.1783 C   0  0  0  0  0  0  0  0  0  0  0  0
  -42.0518   61.3420   62.3081 C   0  0  0  0  0  0  0  0  0  0  0  0
  -43.3146   61.6964   63.0600 C   0  0  0  0  0  0  0  0  0  0  0  0
  -43.6133   60.7441   64.2000 C   0  0  0  0  0  0  0  0  0  0  0  0
  -45.0776   60.6911   64.5615 C   0  0  0  0  0  0  0  0  0  0  0  0
  -45.6418   59.2952   64.5282 C   0  0  0  0  0  0  0  0  0  0  0  0
  -47.0830   59.2192   64.9809 C   0  0  0  0  0  0  0  0  0  0  0  0
  -48.0643   59.4797   63.8560 C   0  0  0  0  0  0  0  0  0  0  0  0
  -49.1742   58.4545   63.7543 C   0  0  0  0  0  0  0  0  0  0  0  0
  -50.0726   58.6379   62.5365 C   0  0  0  0  0  0  0  0  0  0  0  0
  -49.7810   59.8946   61.7392 C   0  0  0  0  0  0  0  0  0  0  0  0
  -49.5087   59.6277   60.2729 C   0  0  0  0  0  0  0  0  0  0  0  0
  -49.5697   58.1532   59.8995 C   0  0  0  0  0  0  0  0  0  0  0  0
  -49.0599   57.8592   58.4999 C   0  0  0  0  0  0  0  0  0  0  0  0
  -46.9589   58.2312   57.1646 C   0  0  0  0  0  0  0  0  0  0  0  0
  -47.5652   57.6179   58.4064 C   0  0  0  0  0  0  0  0  0  0  0  0
  -35.3884   64.1966   64.4838 C   0  0  0  0  0  0  0  0  0  0  0  0
  -34.9603   63.9383   65.8397 O   0  0  0  0  0  0  0  0  0  0  0  0
  -33.4717   64.2310   66.3499 P   0  0  0  0  0  0  0  0  0  0  0  0
  -33.3530   65.6823   66.6076 O   0  0  0  0  0  0  0  0  0  0  0  0
  -33.1665   63.2849   67.4501 O   0  0  0  0  0  0  0  0  0  0  0  0
  -33.7313   63.4833   68.2132 H   0  0  0  0  0  0  0  0  0  0  0  0
  -32.5248   63.8719   65.1181 O   0  0  0  0  0  0  0  0  0  0  0  0
  -31.8126   64.9181   64.4266 C   0  0  0  0  0  0  0  0  0  0  0  0
  -31.0709   62.9588   63.2632 O   0  0  0  0  0  0  0  0  0  0  0  0
  -31.3034   64.3631   63.1191 C   0  0  0  0  0  0  0  0  0  0  0  0
  -30.4583   62.8063   63.9996 H   0  0  0  0  0  0  0  0  0  0  0  0
  -32.3895   63.4593   61.1641 O   0  0  0  0  0  0  0  0  0  0  0  0
  -32.2562   64.6189   61.9760 C   0  0  0  0  0  0  0  0  0  0  0  0
  -33.0044   63.6428   60.4367 H   0  0  0  0  0  0  0  0  0  0  0  0
  -34.5635   62.4317   62.9809 O   0  0  0  0  0  0  0  0  0  0  0  0
  -33.0808   60.7621   62.7084 O   0  0  0  0  0  0  0  0  0  0  0  0
  -33.9752   61.2707   63.3274 C   0  0  0  0  0  0  0  0  0  0  0  0
  -34.5565   60.7011   64.5843 C   0  0  0  0  0  0  0  0  0  0  0  0
  -34.0090   59.3067   64.8713 C   0  0  0  0  0  0  0  0  0  0  0  0
  -34.9112   58.1802   64.3948 C   0  0  0  0  0  0  0  0  0  0  0  0
  -36.3403   58.2819   64.9156 C   0  0  0  0  0  0  0  0  0  0  0  0
  -37.3988   57.9424   63.8827 C   0  0  0  0  0  0  0  0  0  0  0  0
  -36.9152   58.0054   62.4310 C   0  0  0  0  0  0  0  0  0  0  0  0
  -37.9921   57.7517   61.3739 C   0  0  0  0  0  0  0  0  0  0  0  0
  -37.8278   58.6384   60.1761 C   0  0  0  0  0  0  0  0  0  0  0  0
  -38.6792   58.7807   59.1790 C   0  0  0  0  0  0  0  0  0  0  0  0
  -39.9952   58.0836   59.0357 C   0  0  0  0  0  0  0  0  0  0  0  0
  -41.1076   58.7724   59.8209 C   0  0  0  0  0  0  0  0  0  0  0  0
  -41.7542   57.8838   60.8689 C   0  0  0  0  0  0  0  0  0  0  0  0
  -41.2679   56.4453   60.8329 C   0  0  0  0  0  0  0  0  0  0  0  0
  -41.1488   55.7866   62.1973 C   0  0  0  0  0  0  0  0  0  0  0  0
  -41.2262   56.7714   63.3540 C   0  0  0  0  0  0  0  0  0  0  0  0
  -42.3674   56.5111   64.3173 C   0  0  0  0  0  0  0  0  0  0  0  0
  -42.3653   57.4525   65.4892 C   0  0  0  0  0  0  0  0  0  0  0  0
 21 22  1  0  0  0
  4  5  2  0  0  0
 25 24  1  0  0  0
 25 26  2  0  0  0
 25 27  1  0  0  0
 25 29  1  0  0  0
 22 20  1  0  0  0
  3  5  1  0  0  0
  3  2  1  0  0  0
 20 19  1  0  0  0
 24 23  1  0  0  0
 19 18  1  0  0  0
 18 17  1  0  0  0
 27 28  1  0  0  0
 17 16  1  0  0  0
 29 30  1  0  0  0
 16 15  1  0  0  0
 34 35  1  0  0  0
 34 36  1  0  0  0
 15 14  1  0  0  0
 31 32  1  0  0  0
 31 33  1  0  0  0
 14 13  1  0  0  0
 37  1  1  0  0  0
 37 39  1  0  0  0
 13 12  1  0  0  0
 38 39  2  0  0  0
 12 11  1  0  0  0
 11 10  1  0  0  0
 10  9  1  0  0  0
  9  8  1  0  0  0
  8  7  1  0  0  0
  7  6  1  0  0  0
  6  5  1  0  0  0
  2  1  1  0  0  0
  1 23  1  0  0  0
 30 32  1  0  0  0
 32 35  1  0  0  0
 39 40  1  0  0  0
 40 41  1  0  0  0
 41 42  1  0  0  0
 42 43  1  0  0  0
 43 44  1  0  0  0
 44 45  1  0  0  0
 45 46  1  0  0  0
 46 47  1  0  0  0
 47 48  2  0  0  0
 48 49  1  0  0  0
 49 50  1  0  0  0
 50 51  1  0  0  0
 51 52  1  0  0  0
 52 53  1  0  0  0
 53 54  1  0  0  0
 54 55  1  0  0  0
 55 56  1  0  0  0
M  CHG 1  26  -1
M  END
> <minimizedAffinity>
-8.42317

> <CNNscore>
0.3176550269

> <CNNaffinity>
7.2085886002

> <CNN_VS>
2.2898445129

> <CNNaffinity_variance>
1.0613685846

$$$$
/media/chris/experiments/cd1a-new-docking/inputs/ligands/7sh4_ligand.pdb


 56 55  0  0  0  0  0  0  0  0999 V2000
  -39.9567   60.5778   64.8639 C   0  0  0  0  0  0  0  0  0  0  0  0
  -40.4136   60.5601   63.4326 C   0  0  0  0  0  0  0  0  0  0  0  0
  -41.3191   61.6803   63.3412 O   0  0  0  0  0  0  0  0  0  0  0  0
  -42.5658   61.9000   61.4982 O   0  0  0  0  0  0  0  0  0  0  0  0
  -42.4290   61.5029   62.6240 C   0  0  0  0  0  0  0  0  0  0  0  0
  -43.4179   60.6438   63.3580 C   0  0  0  0  0  0  0  0  0  0  0  0
  -44.5444   61.4204   64.0186 C   0  0  0  0  0  0  0  0  0  0  0  0
  -45.3581   60.5739   64.9745 C   0  0  0  0  0  0  0  0  0  0  0  0
  -46.7627   60.2792   64.4989 C   0  0  0  0  0  0  0  0  0  0  0  0
  -47.4704   59.2414   65.3462 C   0  0  0  0  0  0  0  0  0  0  0  0
  -48.7569   59.7463   65.9524 C   0  0  0  0  0  0  0  0  0  0  0  0
  -49.5327   60.6429   65.0239 C   0  0  0  0  0  0  0  0  0  0  0  0
  -50.8960   60.0966   64.6618 C   0  0  0  0  0  0  0  0  0  0  0  0
  -51.1699   60.1469   63.1723 C   0  0  0  0  0  0  0  0  0  0  0  0
  -51.1470   58.7933   62.4938 C   0  0  0  0  0  0  0  0  0  0  0  0
  -49.7903   58.1002   62.5473 C   0  0  0  0  0  0  0  0  0  0  0  0
  -49.0130   58.1658   61.2467 C   0  0  0  0  0  0  0  0  0  0  0  0
  -49.5367   57.2212   60.1841 C   0  0  0  0  0  0  0  0  0  0  0  0
  -49.4209   57.7702   58.7690 C   0  0  0  0  0  0  0  0  0  0  0  0
  -48.0334   58.2839   58.4281 C   0  0  0  0  0  0  0  0  0  0  0  0
  -47.4466   56.1471   57.2341 C   0  0  0  0  0  0  0  0  0  0  0  0
  -46.9907   57.2028   58.2156 C   0  0  0  0  0  0  0  0  0  0  0  0
  -38.4664   60.7708   64.9801 C   0  0  0  0  0  0  0  0  0  0  0  0
  -38.1136   62.0389   64.3835 O   0  0  0  0  0  0  0  0  0  0  0  0
  -36.6501   62.3539   63.8172 P   0  0  0  0  0  0  0  0  0  0  0  0
  -35.8484   61.1144   63.9056 O   0  0  0  0  0  0  0  0  0  0  0  0
  -36.7979   63.0140   62.4978 O   0  0  0  0  0  0  0  0  0  0  0  0
  -37.1773   62.3864   61.8629 H   0  0  0  0  0  0  0  0  0  0  0  0
  -36.0254   63.4161   64.8292 O   0  0  0  0  0  0  0  0  0  0  0  0
  -34.6391   63.3166   65.2148 C   0  0  0  0  0  0  0  0  0  0  0  0
  -33.5558   63.4775   67.3462 O   0  0  0  0  0  0  0  0  0  0  0  0
  -34.5745   62.7797   66.6235 C   0  0  0  0  0  0  0  0  0  0  0  0
  -32.7120   63.3967   66.8749 H   0  0  0  0  0  0  0  0  0  0  0  0
  -36.2640   64.2594   67.5036 O   0  0  0  0  0  0  0  0  0  0  0  0
  -35.8965   62.8952   67.3439 C   0  0  0  0  0  0  0  0  0  0  0  0
  -37.1142   64.3130   67.9674 H   0  0  0  0  0  0  0  0  0  0  0  0
  -40.3930   59.3324   65.5031 O   0  0  0  0  0  0  0  0  0  0  0  0
  -42.0339   60.4048   66.6066 O   0  0  0  0  0  0  0  0  0  0  0  0
  -41.5245   59.3841   66.2319 C   0  0  0  0  0  0  0  0  0  0  0  0
  -42.0797   58.0200   66.5025 C   0  0  0  0  0  0  0  0  0  0  0  0
  -43.4368   57.8263   65.8336 C   0  0  0  0  0  0  0  0  0  0  0  0
  -43.3835   56.9995   64.5594 C   0  0  0  0  0  0  0  0  0  0  0  0
  -42.0662   56.2562   64.3696 C   0  0  0  0  0  0  0  0  0  0  0  0
  -41.2709   56.7094   63.1594 C   0  0  0  0  0  0  0  0  0  0  0  0
  -41.2370   55.7023   62.0063 C   0  0  0  0  0  0  0  0  0  0  0  0
  -41.4432   56.3001   60.6128 C   0  0  0  0  0  0  0  0  0  0  0  0
  -41.4993   57.7981   60.6435 C   0  0  0  0  0  0  0  0  0  0  0  0
  -40.5670   58.6297   60.2208 C   0  0  0  0  0  0  0  0  0  0  0  0
  -39.2520   58.2489   59.6177 C   0  0  0  0  0  0  0  0  0  0  0  0
  -38.0879   58.4511   60.5835 C   0  0  0  0  0  0  0  0  0  0  0  0
  -38.0656   57.4538   61.7284 C   0  0  0  0  0  0  0  0  0  0  0  0
  -37.2481   57.9146   62.9228 C   0  0  0  0  0  0  0  0  0  0  0  0
  -35.7451   57.9053   62.6983 C   0  0  0  0  0  0  0  0  0  0  0  0
  -34.9453   57.6425   63.9652 C   0  0  0  0  0  0  0  0  0  0  0  0
  -33.6652   58.4476   64.0710 C   0  0  0  0  0  0  0  0  0  0  0  0
  -33.1548   58.9066   62.7337 C   0  0  0  0  0  0  0  0  0  0  0  0
 21 22  1  0  0  0
  4  5  2  0  0  0
 25 24  1  0  0  0
 25 26  2  0  0  0
 25 27  1  0  0  0
 25 29  1  0  0  0
 22 20  1  0  0  0
  3  5  1  0  0  0
  3  2  1  0  0  0
 20 19  1  0  0  0
 24 23  1  0  0  0
 19 18  1  0  0  0
 18 17  1  0  0  0
 27 28  1  0  0  0
 17 16  1  0  0  0
 29 30  1  0  0  0
 16 15  1  0  0  0
 34 35  1  0  0  0
 34 36  1  0  0  0
 15 14  1  0  0  0
 31 32  1  0  0  0
 31 33  1  0  0  0
 14 13  1  0  0  0
 37  1  1  0  0  0
 37 39  1  0  0  0
 13 12  1  0  0  0
 38 39  2  0  0  0
 12 11  1  0  0  0
 11 10  1  0  0  0
 10  9  1  0  0  0
  9  8  1  0  0  0
  8  7  1  0  0  0
  7  6  1  0  0  0
  6  5  1  0  0  0
  2  1  1  0  0  0
  1 23  1  0  0  0
 30 32  1  0  0  0
 32 35  1  0  0  0
 39 40  1  0  0  0
 40 41  1  0  0  0
 41 42  1  0  0  0
 42 43  1  0  0  0
 43 44  1  0  0  0
 44 45  1  0  0  0
 45 46  1  0  0  0
 46 47  1  0  0  0
 47 48  2  0  0  0
 48 49  1  0  0  0
 49 50  1  0  0  0
 50 51  1  0  0  0
 51 52  1  0  0  0
 52 53  1  0  0  0
 53 54  1  0  0  0
 54 55  1  0  0  0
 55 56  1  0  0  0
M  CHG 1  26  -1
M  END
> <minimizedAffinity>
-8.78815

> <CNNscore>
0.3120191991

> <CNNaffinity>
7.4247894287

> <CNN_VS>
2.3166768551

> <CNNaffinity_variance>
1.7829372883

$$$$
/media/chris/experiments/cd1a-new-docking/inputs/ligands/7sh4_ligand.pdb


 56 55  0  0  0  0  0  0  0  0999 V2000
  -41.1625   57.9258   61.0331 C   0  0  0  0  0  0  0  0  0  0  0  0
  -40.2190   57.6906   59.8876 C   0  0  0  0  0  0  0  0  0  0  0  0
  -38.9353   57.5138   60.5233 O   0  0  0  0  0  0  0  0  0  0  0  0
  -37.9410   58.9887   59.1685 O   0  0  0  0  0  0  0  0  0  0  0  0
  -37.9801   58.3894   60.2092 C   0  0  0  0  0  0  0  0  0  0  0  0
  -37.0482   58.6138   61.3652 C   0  0  0  0  0  0  0  0  0  0  0  0
  -37.3549   57.7602   62.5841 C   0  0  0  0  0  0  0  0  0  0  0  0
  -36.8470   58.3733   63.8720 C   0  0  0  0  0  0  0  0  0  0  0  0
  -35.7218   57.6019   64.5236 C   0  0  0  0  0  0  0  0  0  0  0  0
  -34.4081   58.3570   64.5255 C   0  0  0  0  0  0  0  0  0  0  0  0
  -34.5432   59.7853   64.0571 C   0  0  0  0  0  0  0  0  0  0  0  0
  -34.3419   60.7884   65.1621 C   0  0  0  0  0  0  0  0  0  0  0  0
  -35.4694   61.7903   65.2761 C   0  0  0  0  0  0  0  0  0  0  0  0
  -35.8635   62.3826   63.9382 C   0  0  0  0  0  0  0  0  0  0  0  0
  -36.2053   63.8569   63.9917 C   0  0  0  0  0  0  0  0  0  0  0  0
  -35.3318   64.7248   63.0930 C   0  0  0  0  0  0  0  0  0  0  0  0
  -34.2545   63.9560   62.3524 C   0  0  0  0  0  0  0  0  0  0  0  0
  -32.8483   64.3545   62.7516 C   0  0  0  0  0  0  0  0  0  0  0  0
  -32.4203   63.8074   64.1062 C   0  0  0  0  0  0  0  0  0  0  0  0
  -31.8534   64.8644   65.0369 C   0  0  0  0  0  0  0  0  0  0  0  0
  -33.7530   64.7685   66.6856 C   0  0  0  0  0  0  0  0  0  0  0  0
  -32.8933   65.6524   65.8108 C   0  0  0  0  0  0  0  0  0  0  0  0
  -41.3804   59.3941   61.2948 C   0  0  0  0  0  0  0  0  0  0  0  0
  -40.1914   59.9385   61.9098 O   0  0  0  0  0  0  0  0  0  0  0  0
  -40.1988   60.6227   63.3567 P   0  0  0  0  0  0  0  0  0  0  0  0
  -40.3088   59.5508   64.3695 O   0  0  0  0  0  0  0  0  0  0  0  0
  -39.0505   61.5578   63.4310 O   0  0  0  0  0  0  0  0  0  0  0  0
  -38.2216   61.0549   63.4011 H   0  0  0  0  0  0  0  0  0  0  0  0
  -41.5382   61.4865   63.4085 O   0  0  0  0  0  0  0  0  0  0  0  0
  -42.7888   60.8584   63.7570 C   0  0  0  0  0  0  0  0  0  0  0  0
  -44.8390   61.5175   64.8083 O   0  0  0  0  0  0  0  0  0  0  0  0
  -43.4156   61.6401   64.8854 C   0  0  0  0  0  0  0  0  0  0  0  0
  -45.1420   61.8109   63.9349 H   0  0  0  0  0  0  0  0  0  0  0  0
  -41.5542   61.5171   66.4146 O   0  0  0  0  0  0  0  0  0  0  0  0
  -42.9261   61.1869   66.2399 C   0  0  0  0  0  0  0  0  0  0  0  0
  -41.2586   61.2187   67.2889 H   0  0  0  0  0  0  0  0  0  0  0  0
  -40.6341   57.2377   62.2151 O   0  0  0  0  0  0  0  0  0  0  0  0
  -41.4891   55.1744   61.9469 O   0  0  0  0  0  0  0  0  0  0  0  0
  -41.2979   56.1421   62.6314 C   0  0  0  0  0  0  0  0  0  0  0  0
  -41.7516   56.2681   64.0528 C   0  0  0  0  0  0  0  0  0  0  0  0
  -42.9845   57.1586   64.1690 C   0  0  0  0  0  0  0  0  0  0  0  0
  -43.6048   57.1745   65.5564 C   0  0  0  0  0  0  0  0  0  0  0  0
  -44.6623   58.2572   65.7391 C   0  0  0  0  0  0  0  0  0  0  0  0
  -46.0885   57.7536   65.6158 C   0  0  0  0  0  0  0  0  0  0  0  0
  -47.1485   58.8561   65.5385 C   0  0  0  0  0  0  0  0  0  0  0  0
  -47.5746   59.2521   64.1232 C   0  0  0  0  0  0  0  0  0  0  0  0
  -48.2559   60.5874   64.0912 C   0  0  0  0  0  0  0  0  0  0  0  0
  -49.5553   60.8094   64.1330 C   0  0  0  0  0  0  0  0  0  0  0  0
  -50.6262   59.7687   64.2230 C   0  0  0  0  0  0  0  0  0  0  0  0
  -51.1081   59.3087   62.8501 C   0  0  0  0  0  0  0  0  0  0  0  0
  -50.2743   58.1874   62.2556 C   0  0  0  0  0  0  0  0  0  0  0  0
  -50.8215   57.6496   60.9446 C   0  0  0  0  0  0  0  0  0  0  0  0
  -50.3396   58.3922   59.7093 C   0  0  0  0  0  0  0  0  0  0  0  0
  -48.8368   58.6267   59.6916 C   0  0  0  0  0  0  0  0  0  0  0  0
  -48.1318   58.0518   58.4789 C   0  0  0  0  0  0  0  0  0  0  0  0
  -47.3741   56.7914   58.7900 C   0  0  0  0  0  0  0  0  0  0  0  0
 21 22  1  0  0  0
  4  5  2  0  0  0
 25 24  1  0  0  0
 25 26  2  0  0  0
 25 27  1  0  0  0
 25 29  1  0  0  0
 22 20  1  0  0  0
  3  5  1  0  0  0
  3  2  1  0  0  0
 20 19  1  0  0  0
 24 23  1  0  0  0
 19 18  1  0  0  0
 18 17  1  0  0  0
 27 28  1  0  0  0
 17 16  1  0  0  0
 29 30  1  0  0  0
 16 15  1  0  0  0
 34 35  1  0  0  0
 34 36  1  0  0  0
 15 14  1  0  0  0
 31 32  1  0  0  0
 31 33  1  0  0  0
 14 13  1  0  0  0
 37  1  1  0  0  0
 37 39  1  0  0  0
 13 12  1  0  0  0
 38 39  2  0  0  0
 12 11  1  0  0  0
 11 10  1  0  0  0
 10  9  1  0  0  0
  9  8  1  0  0  0
  8  7  1  0  0  0
  7  6  1  0  0  0
  6  5  1  0  0  0
  2  1  1  0  0  0
  1 23  1  0  0  0
 30 32  1  0  0  0
 32 35  1  0  0  0
 39 40  1  0  0  0
 40 41  1  0  0  0
 41 42  1  0  0  0
 42 43  1  0  0  0
 43 44  1  0  0  0
 44 45  1  0  0  0
 45 46  1  0  0  0
 46 47  1  0  0  0
 47 48  2  0  0  0
 48 49  1  0  0  0
 49 50  1  0  0  0
 50 51  1  0  0  0
 51 52  1  0  0  0
 52 53  1  0  0  0
 53 54  1  0  0  0
 54 55  1  0  0  0
 55 56  1  0  0  0
M  CHG 1  26  -1
M  END
> <minimizedAffinity>
-7.70985

> <CNNscore>
0.2866854072

> <CNNaffinity>
7.0035843849

> <CNN_VS>
2.0078253746

> <CNNaffinity_variance>
1.3475230932

$$$$
/media/chris/experiments/cd1a-new-docking/inputs/ligands/7sh4_ligand.pdb


 56 55  0  0  0  0  0  0  0  0999 V2000
  -36.7098   59.2506   63.9066 C   0  0  0  0  0  0  0  0  0  0  0  0
  -37.0391   59.7471   65.2860 C   0  0  0  0  0  0  0  0  0  0  0  0
  -38.4387   59.4324   65.4455 O   0  0  0  0  0  0  0  0  0  0  0  0
  -38.8924   61.5728   65.9058 O   0  0  0  0  0  0  0  0  0  0  0  0
  -39.2642   60.4527   65.6807 C   0  0  0  0  0  0  0  0  0  0  0  0
  -40.6978   60.0429   65.5027 C   0  0  0  0  0  0  0  0  0  0  0  0
  -41.6138   60.4832   66.6320 C   0  0  0  0  0  0  0  0  0  0  0  0
  -42.8813   61.1455   66.1345 C   0  0  0  0  0  0  0  0  0  0  0  0
  -43.2286   60.8189   64.6998 C   0  0  0  0  0  0  0  0  0  0  0  0
  -44.4390   61.5779   64.1949 C   0  0  0  0  0  0  0  0  0  0  0  0
  -45.7196   60.7850   64.2902 C   0  0  0  0  0  0  0  0  0  0  0  0
  -46.9511   61.6320   64.1064 C   0  0  0  0  0  0  0  0  0  0  0  0
  -48.1321   60.8630   63.5570 C   0  0  0  0  0  0  0  0  0  0  0  0
  -49.3825   61.0329   64.3959 C   0  0  0  0  0  0  0  0  0  0  0  0
  -50.5948   60.3062   63.8523 C   0  0  0  0  0  0  0  0  0  0  0  0
  -50.4506   59.8691   62.3989 C   0  0  0  0  0  0  0  0  0  0  0  0
  -50.8591   58.4309   62.1446 C   0  0  0  0  0  0  0  0  0  0  0  0
  -50.4339   57.9157   60.7847 C   0  0  0  0  0  0  0  0  0  0  0  0
  -49.2181   58.6321   60.2137 C   0  0  0  0  0  0  0  0  0  0  0  0
  -48.3485   57.7487   59.3370 C   0  0  0  0  0  0  0  0  0  0  0  0
  -46.7929   57.6000   57.3637 C   0  0  0  0  0  0  0  0  0  0  0  0
  -47.8783   58.3985   58.0494 C   0  0  0  0  0  0  0  0  0  0  0  0
  -35.2809   58.7831   63.7993 C   0  0  0  0  0  0  0  0  0  0  0  0
  -34.5582   59.6904   62.9373 O   0  0  0  0  0  0  0  0  0  0  0  0
  -33.4309   60.6890   63.4792 P   0  0  0  0  0  0  0  0  0  0  0  0
  -32.2183   59.8950   63.7724 O   0  0  0  0  0  0  0  0  0  0  0  0
  -33.3266   61.8250   62.5320 O   0  0  0  0  0  0  0  0  0  0  0  0
  -32.9850   61.5068   61.6818 H   0  0  0  0  0  0  0  0  0  0  0  0
  -33.9946   61.2528   64.8602 O   0  0  0  0  0  0  0  0  0  0  0  0
  -33.9256   62.6650   65.1449 C   0  0  0  0  0  0  0  0  0  0  0  0
  -33.3349   63.1565   67.4147 O   0  0  0  0  0  0  0  0  0  0  0  0
  -34.4401   62.8937   66.5449 C   0  0  0  0  0  0  0  0  0  0  0  0
  -32.7013   62.4240   67.3628 H   0  0  0  0  0  0  0  0  0  0  0  0
  -36.2595   63.9014   67.7666 O   0  0  0  0  0  0  0  0  0  0  0  0
  -35.4374   64.0252   66.6131 C   0  0  0  0  0  0  0  0  0  0  0  0
  -36.8924   64.6360   67.7929 H   0  0  0  0  0  0  0  0  0  0  0  0
  -37.0028   60.3211   62.9486 O   0  0  0  0  0  0  0  0  0  0  0  0
  -38.9441   61.2651   62.3158 O   0  0  0  0  0  0  0  0  0  0  0  0
  -38.2203   60.3088   62.3727 C   0  0  0  0  0  0  0  0  0  0  0  0
  -38.5545   58.9674   61.7971 C   0  0  0  0  0  0  0  0  0  0  0  0
  -37.6953   58.6534   60.5765 C   0  0  0  0  0  0  0  0  0  0  0  0
  -38.4505   58.7148   59.2589 C   0  0  0  0  0  0  0  0  0  0  0  0
  -39.7552   59.4990   59.3400 C   0  0  0  0  0  0  0  0  0  0  0  0
  -41.0002   58.6350   59.2624 C   0  0  0  0  0  0  0  0  0  0  0  0
  -40.7685   57.1547   59.5787 C   0  0  0  0  0  0  0  0  0  0  0  0
  -41.4689   56.6401   60.8381 C   0  0  0  0  0  0  0  0  0  0  0  0
  -42.1167   57.7461   61.6160 C   0  0  0  0  0  0  0  0  0  0  0  0
  -42.0140   57.9612   62.9131 C   0  0  0  0  0  0  0  0  0  0  0  0
  -41.2237   57.1420   63.8840 C   0  0  0  0  0  0  0  0  0  0  0  0
  -42.1100   56.4282   64.9006 C   0  0  0  0  0  0  0  0  0  0  0  0
  -43.5192   56.9886   64.9804 C   0  0  0  0  0  0  0  0  0  0  0  0
  -43.8495   57.6196   66.3220 C   0  0  0  0  0  0  0  0  0  0  0  0
  -45.3089   57.5037   66.7300 C   0  0  0  0  0  0  0  0  0  0  0  0
  -45.9355   58.8331   67.1222 C   0  0  0  0  0  0  0  0  0  0  0  0
  -47.3691   59.0052   66.6607 C   0  0  0  0  0  0  0  0  0  0  0  0
  -47.7727   57.9919   65.6264 C   0  0  0  0  0  0  0  0  0  0  0  0
 21 22  1  0  0  0
  4  5  2  0  0  0
 25 24  1  0  0  0
 25 26  2  0  0  0
 25 27  1  0  0  0
 25 29  1  0  0  0
 22 20  1  0  0  0
  3  5  1  0  0  0
  3  2  1  0  0  0
 20 19  1  0  0  0
 24 23  1  0  0  0
 19 18  1  0  0  0
 18 17  1  0  0  0
 27 28  1  0  0  0
 17 16  1  0  0  0
 29 30  1  0  0  0
 16 15  1  0  0  0
 34 35  1  0  0  0
 34 36  1  0  0  0
 15 14  1  0  0  0
 31 32  1  0  0  0
 31 33  1  0  0  0
 14 13  1  0  0  0
 37  1  1  0  0  0
 37 39  1  0  0  0
 13 12  1  0  0  0
 38 39  2  0  0  0
 12 11  1  0  0  0
 11 10  1  0  0  0
 10  9  1  0  0  0
  9  8  1  0  0  0
  8  7  1  0  0  0
  7  6  1  0  0  0
  6  5  1  0  0  0
  2  1  1  0  0  0
  1 23  1  0  0  0
 30 32  1  0  0  0
 32 35  1  0  0  0
 39 40  1  0  0  0
 40 41  1  0  0  0
 41 42  1  0  0  0
 42 43  1  0  0  0
 43 44  1  0  0  0
 44 45  1  0  0  0
 45 46  1  0  0  0
 46 47  1  0  0  0
 47 48  2  0  0  0
 48 49  1  0  0  0
 49 50  1  0  0  0
 50 51  1  0  0  0
 51 52  1  0  0  0
 52 53  1  0  0  0
 53 54  1  0  0  0
 54 55  1  0  0  0
 55 56  1  0  0  0
M  CHG 1  26  -1
M  END
> <minimizedAffinity>
-8.20184

> <CNNscore>
0.2701012790

> <CNNaffinity>
7.4882364273

> <CNN_VS>
2.0225822926

> <CNNaffinity_variance>
1.2829947472

$$$$
/media/chris/experiments/cd1a-new-docking/inputs/ligands/7sh4_ligand.pdb


 56 55  0  0  0  0  0  0  0  0999 V2000
  -39.2797   61.2368   63.2423 C   0  0  0  0  0  0  0  0  0  0  0  0
  -40.2843   61.0262   62.1450 C   0  0  0  0  0  0  0  0  0  0  0  0
  -41.5557   61.0408   62.8280 O   0  0  0  0  0  0  0  0  0  0  0  0
  -42.4732   62.1901   61.1438 O   0  0  0  0  0  0  0  0  0  0  0  0
  -42.5462   61.7175   62.2461 C   0  0  0  0  0  0  0  0  0  0  0  0
  -43.7868   61.6980   63.0920 C   0  0  0  0  0  0  0  0  0  0  0  0
  -43.5238   61.4958   64.5747 C   0  0  0  0  0  0  0  0  0  0  0  0
  -44.6178   60.7061   65.2618 C   0  0  0  0  0  0  0  0  0  0  0  0
  -45.9680   60.8032   64.5885 C   0  0  0  0  0  0  0  0  0  0  0  0
  -46.6385   59.4567   64.4067 C   0  0  0  0  0  0  0  0  0  0  0  0
  -47.8026   59.2415   65.3427 C   0  0  0  0  0  0  0  0  0  0  0  0
  -48.7243   60.4300   65.4182 C   0  0  0  0  0  0  0  0  0  0  0  0
  -49.3332   60.8032   64.0849 C   0  0  0  0  0  0  0  0  0  0  0  0
  -50.8117   60.4804   64.0058 C   0  0  0  0  0  0  0  0  0  0  0  0
  -51.1777   59.5311   62.8841 C   0  0  0  0  0  0  0  0  0  0  0  0
  -50.4672   58.1845   62.9601 C   0  0  0  0  0  0  0  0  0  0  0  0
  -49.7226   57.8083   61.6935 C   0  0  0  0  0  0  0  0  0  0  0  0
  -50.5856   57.8619   60.4494 C   0  0  0  0  0  0  0  0  0  0  0  0
  -49.7920   58.0502   59.1640 C   0  0  0  0  0  0  0  0  0  0  0  0
  -48.2879   58.0142   59.3676 C   0  0  0  0  0  0  0  0  0  0  0  0
  -47.0030   58.3062   57.2229 C   0  0  0  0  0  0  0  0  0  0  0  0
  -47.5133   57.3292   58.2577 C   0  0  0  0  0  0  0  0  0  0  0  0
  -37.8716   61.3242   62.7118 C   0  0  0  0  0  0  0  0  0  0  0  0
  -37.5151   62.7170   62.5660 O   0  0  0  0  0  0  0  0  0  0  0  0
  -36.3294   63.4003   63.3961 P   0  0  0  0  0  0  0  0  0  0  0  0
  -35.0502   62.8308   62.9207 O   0  0  0  0  0  0  0  0  0  0  0  0
  -36.5175   64.8702   63.3448 O   0  0  0  0  0  0  0  0  0  0  0  0
  -36.3910   65.1808   62.4347 H   0  0  0  0  0  0  0  0  0  0  0  0
  -36.5452   62.9312   64.9048 O   0  0  0  0  0  0  0  0  0  0  0  0
  -35.5280   62.1563   65.5720 C   0  0  0  0  0  0  0  0  0  0  0  0
  -33.5100   63.4487   65.5690 O   0  0  0  0  0  0  0  0  0  0  0  0
  -34.6510   63.0993   66.3584 C   0  0  0  0  0  0  0  0  0  0  0  0
  -33.0450   62.6418   65.2979 H   0  0  0  0  0  0  0  0  0  0  0  0
  -36.3796   64.0317   67.7588 O   0  0  0  0  0  0  0  0  0  0  0  0
  -35.3876   64.3449   66.7894 C   0  0  0  0  0  0  0  0  0  0  0  0
  -36.8411   64.8429   68.0229 H   0  0  0  0  0  0  0  0  0  0  0  0
  -39.4251   60.1502   64.2160 O   0  0  0  0  0  0  0  0  0  0  0  0
  -39.2399   61.2499   66.1695 O   0  0  0  0  0  0  0  0  0  0  0  0
  -38.9060   60.3552   65.4418 C   0  0  0  0  0  0  0  0  0  0  0  0
  -37.8782   59.3249   65.7946 C   0  0  0  0  0  0  0  0  0  0  0  0
  -37.8827   58.1679   64.8006 C   0  0  0  0  0  0  0  0  0  0  0  0
  -36.4959   57.7274   64.3613 C   0  0  0  0  0  0  0  0  0  0  0  0
  -36.2988   57.7517   62.8499 C   0  0  0  0  0  0  0  0  0  0  0  0
  -37.5732   58.0039   62.0656 C   0  0  0  0  0  0  0  0  0  0  0  0
  -37.3563   58.3192   60.5828 C   0  0  0  0  0  0  0  0  0  0  0  0
  -38.4329   59.1953   59.9387 C   0  0  0  0  0  0  0  0  0  0  0  0
  -39.2909   58.4236   58.9813 C   0  0  0  0  0  0  0  0  0  0  0  0
  -40.5441   58.0572   59.1667 C   0  0  0  0  0  0  0  0  0  0  0  0
  -41.3762   58.3385   60.3779 C   0  0  0  0  0  0  0  0  0  0  0  0
  -41.8811   57.0631   61.0465 C   0  0  0  0  0  0  0  0  0  0  0  0
  -40.8636   56.4144   61.9685 C   0  0  0  0  0  0  0  0  0  0  0  0
  -41.0438   56.7828   63.4310 C   0  0  0  0  0  0  0  0  0  0  0  0
  -42.1540   57.7863   63.6954 C   0  0  0  0  0  0  0  0  0  0  0  0
  -43.2525   57.2496   64.6005 C   0  0  0  0  0  0  0  0  0  0  0  0
  -43.0443   57.5436   66.0730 C   0  0  0  0  0  0  0  0  0  0  0  0
  -41.9855   58.5830   66.3144 C   0  0  0  0  0  0  0  0  0  0  0  0
 21 22  1  0  0  0
  4  5  2  0  0  0
 25 24  1  0  0  0
 25 26  2  0  0  0
 25 27  1  0  0  0
 25 29  1  0  0  0
 22 20  1  0  0  0
  3  5  1  0  0  0
  3  2  1  0  0  0
 20 19  1  0  0  0
 24 23  1  0  0  0
 19 18  1  0  0  0
 18 17  1  0  0  0
 27 28  1  0  0  0
 17 16  1  0  0  0
 29 30  1  0  0  0
 16 15  1  0  0  0
 34 35  1  0  0  0
 34 36  1  0  0  0
 15 14  1  0  0  0
 31 32  1  0  0  0
 31 33  1  0  0  0
 14 13  1  0  0  0
 37  1  1  0  0  0
 37 39  1  0  0  0
 13 12  1  0  0  0
 38 39  2  0  0  0
 12 11  1  0  0  0
 11 10  1  0  0  0
 10  9  1  0  0  0
  9  8  1  0  0  0
  8  7  1  0  0  0
  7  6  1  0  0  0
  6  5  1  0  0  0
  2  1  1  0  0  0
  1 23  1  0  0  0
 30 32  1  0  0  0
 32 35  1  0  0  0
 39 40  1  0  0  0
 40 41  1  0  0  0
 41 42  1  0  0  0
 42 43  1  0  0  0
 43 44  1  0  0  0
 44 45  1  0  0  0
 45 46  1  0  0  0
 46 47  1  0  0  0
 47 48  2  0  0  0
 48 49  1  0  0  0
 49 50  1  0  0  0
 50 51  1  0  0  0
 51 52  1  0  0  0
 52 53  1  0  0  0
 53 54  1  0  0  0
 54 55  1  0  0  0
 55 56  1  0  0  0
M  CHG 1  26  -1
M  END
> <minimizedAffinity>
-8.63686

> <CNNscore>
0.2267423719

> <CNNaffinity>
7.3740806580

> <CNN_VS>
1.6720165014

> <CNNaffinity_variance>
1.5505682230

$$$$
/media/chris/experiments/cd1a-new-docking/inputs/ligands/7sh4_ligand.pdb


 56 55  0  0  0  0  0  0  0  0999 V2000
  -34.8447   61.6378   63.9657 C   0  0  0  0  0  0  0  0  0  0  0  0
  -35.9744   62.5386   63.5535 C   0  0  0  0  0  0  0  0  0  0  0  0
  -36.9413   61.6408   62.9686 O   0  0  0  0  0  0  0  0  0  0  0  0
  -38.3389   61.8886   64.6962 O   0  0  0  0  0  0  0  0  0  0  0  0
  -38.1381   61.5779   63.5530 C   0  0  0  0  0  0  0  0  0  0  0  0
  -39.2038   61.1938   62.5673 C   0  0  0  0  0  0  0  0  0  0  0  0
  -40.5582   60.9129   63.1959 C   0  0  0  0  0  0  0  0  0  0  0  0
  -41.6935   60.9786   62.1962 C   0  0  0  0  0  0  0  0  0  0  0  0
  -42.8648   61.8233   62.6436 C   0  0  0  0  0  0  0  0  0  0  0  0
  -43.2831   61.5476   64.0736 C   0  0  0  0  0  0  0  0  0  0  0  0
  -44.7719   61.3566   64.2306 C   0  0  0  0  0  0  0  0  0  0  0  0
  -45.1273   60.1161   65.0069 C   0  0  0  0  0  0  0  0  0  0  0  0
  -46.5992   60.0184   65.3415 C   0  0  0  0  0  0  0  0  0  0  0  0
  -47.4538   59.6931   64.1332 C   0  0  0  0  0  0  0  0  0  0  0  0
  -48.5788   58.7197   64.4161 C   0  0  0  0  0  0  0  0  0  0  0  0
  -49.5759   58.5810   63.2713 C   0  0  0  0  0  0  0  0  0  0  0  0
  -49.9209   59.8925   62.5923 C   0  0  0  0  0  0  0  0  0  0  0  0
  -49.7012   59.8703   61.0934 C   0  0  0  0  0  0  0  0  0  0  0  0
  -49.0799   58.5762   60.5868 C   0  0  0  0  0  0  0  0  0  0  0  0
  -49.1987   58.3924   59.0844 C   0  0  0  0  0  0  0  0  0  0  0  0
  -47.3310   56.8554   58.3879 C   0  0  0  0  0  0  0  0  0  0  0  0
  -47.8754   58.2654   58.3537 C   0  0  0  0  0  0  0  0  0  0  0  0
  -33.5312   62.3736   64.0377 C   0  0  0  0  0  0  0  0  0  0  0  0
  -33.3595   63.1387   62.8238 O   0  0  0  0  0  0  0  0  0  0  0  0
  -31.9240   63.5914   62.2796 P   0  0  0  0  0  0  0  0  0  0  0  0
  -30.9287   62.5944   62.7290 O   0  0  0  0  0  0  0  0  0  0  0  0
  -32.0476   63.8706   60.8286 O   0  0  0  0  0  0  0  0  0  0  0  0
  -32.2407   63.0459   60.3559 H   0  0  0  0  0  0  0  0  0  0  0  0
  -31.6075   64.9687   63.0182 O   0  0  0  0  0  0  0  0  0  0  0  0
  -31.4567   65.0003   64.4523 C   0  0  0  0  0  0  0  0  0  0  0  0
  -33.6837   65.8466   64.1942 O   0  0  0  0  0  0  0  0  0  0  0  0
  -32.5187   65.9079   65.0225 C   0  0  0  0  0  0  0  0  0  0  0  0
  -33.4446   66.0754   63.2825 H   0  0  0  0  0  0  0  0  0  0  0  0
  -32.5037   64.2122   66.7379 O   0  0  0  0  0  0  0  0  0  0  0  0
  -32.8730   65.5541   66.4470 C   0  0  0  0  0  0  0  0  0  0  0  0
  -32.7388   64.0039   67.6557 H   0  0  0  0  0  0  0  0  0  0  0  0
  -34.7848   60.5133   63.0267 O   0  0  0  0  0  0  0  0  0  0  0  0
  -33.1225   59.0594   62.5990 O   0  0  0  0  0  0  0  0  0  0  0  0
  -33.9577   59.4981   63.3418 C   0  0  0  0  0  0  0  0  0  0  0  0
  -34.1917   58.9956   64.7327 C   0  0  0  0  0  0  0  0  0  0  0  0
  -34.5020   57.5022   64.7426 C   0  0  0  0  0  0  0  0  0  0  0  0
  -35.9056   57.1674   65.2200 C   0  0  0  0  0  0  0  0  0  0  0  0
  -36.9008   58.3071   65.0344 C   0  0  0  0  0  0  0  0  0  0  0  0
  -37.8329   58.1255   63.8509 C   0  0  0  0  0  0  0  0  0  0  0  0
  -37.1253   57.8870   62.5139 C   0  0  0  0  0  0  0  0  0  0  0  0
  -38.0462   57.5396   61.3422 C   0  0  0  0  0  0  0  0  0  0  0  0
  -37.9583   58.5482   60.2363 C   0  0  0  0  0  0  0  0  0  0  0  0
  -38.8554   58.7635   59.2940 C   0  0  0  0  0  0  0  0  0  0  0  0
  -40.1564   58.0427   59.1324 C   0  0  0  0  0  0  0  0  0  0  0  0
  -41.1289   58.3338   60.2717 C   0  0  0  0  0  0  0  0  0  0  0  0
  -41.9499   57.1285   60.6952 C   0  0  0  0  0  0  0  0  0  0  0  0
  -41.1717   56.1214   61.5243 C   0  0  0  0  0  0  0  0  0  0  0  0
  -41.4770   56.1610   63.0125 C   0  0  0  0  0  0  0  0  0  0  0  0
  -41.3698   57.5533   63.6158 C   0  0  0  0  0  0  0  0  0  0  0  0
  -42.1592   57.7387   64.8966 C   0  0  0  0  0  0  0  0  0  0  0  0
  -43.3959   56.8855   64.9461 C   0  0  0  0  0  0  0  0  0  0  0  0
 21 22  1  0  0  0
  4  5  2  0  0  0
 25 24  1  0  0  0
 25 26  2  0  0  0
 25 27  1  0  0  0
 25 29  1  0  0  0
 22 20  1  0  0  0
  3  5  1  0  0  0
  3  2  1  0  0  0
 20 19  1  0  0  0
 24 23  1  0  0  0
 19 18  1  0  0  0
 18 17  1  0  0  0
 27 28  1  0  0  0
 17 16  1  0  0  0
 29 30  1  0  0  0
 16 15  1  0  0  0
 34 35  1  0  0  0
 34 36  1  0  0  0
 15 14  1  0  0  0
 31 32  1  0  0  0
 31 33  1  0  0  0
 14 13  1  0  0  0
 37  1  1  0  0  0
 37 39  1  0  0  0
 13 12  1  0  0  0
 38 39  2  0  0  0
 12 11  1  0  0  0
 11 10  1  0  0  0
 10  9  1  0  0  0
  9  8  1  0  0  0
  8  7  1  0  0  0
  7  6  1  0  0  0
  6  5  1  0  0  0
  2  1  1  0  0  0
  1 23  1  0  0  0
 30 32  1  0  0  0
 32 35  1  0  0  0
 39 40  1  0  0  0
 40 41  1  0  0  0
 41 42  1  0  0  0
 42 43  1  0  0  0
 43 44  1  0  0  0
 44 45  1  0  0  0
 45 46  1  0  0  0
 46 47  1  0  0  0
 47 48  2  0  0  0
 48 49  1  0  0  0
 49 50  1  0  0  0
 50 51  1  0  0  0
 51 52  1  0  0  0
 52 53  1  0  0  0
 53 54  1  0  0  0
 54 55  1  0  0  0
 55 56  1  0  0  0
M  CHG 1  26  -1
M  END
> <minimizedAffinity>
-7.92708

> <CNNscore>
0.2254343778

> <CNNaffinity>
7.1046447754

> <CNN_VS>
1.6016311646

> <CNNaffinity_variance>
1.0120633841

$$$$
/media/chris/experiments/cd1a-new-docking/inputs/ligands/7sh4_ligand.pdb


 56 55  0  0  0  0  0  0  0  0999 V2000
  -39.5867   61.5234   63.3652 C   0  0  0  0  0  0  0  0  0  0  0  0
  -40.2671   60.9328   62.1627 C   0  0  0  0  0  0  0  0  0  0  0  0
  -41.6141   60.6776   62.6139 O   0  0  0  0  0  0  0  0  0  0  0  0
  -42.7724   62.2043   61.4619 O   0  0  0  0  0  0  0  0  0  0  0  0
  -42.4877   61.6790   62.5044 C   0  0  0  0  0  0  0  0  0  0  0  0
  -43.1489   61.9686   63.8211 C   0  0  0  0  0  0  0  0  0  0  0  0
  -44.4981   61.2933   63.9997 C   0  0  0  0  0  0  0  0  0  0  0  0
  -44.5170   60.3185   65.1582 C   0  0  0  0  0  0  0  0  0  0  0  0
  -45.7078   59.3870   65.1645 C   0  0  0  0  0  0  0  0  0  0  0  0
  -47.0300   60.1133   65.0224 C   0  0  0  0  0  0  0  0  0  0  0  0
  -47.9106   59.9880   66.2416 C   0  0  0  0  0  0  0  0  0  0  0  0
  -49.3713   59.8533   65.9011 C   0  0  0  0  0  0  0  0  0  0  0  0
  -49.7542   60.5488   64.6136 C   0  0  0  0  0  0  0  0  0  0  0  0
  -51.1265   60.1432   64.1151 C   0  0  0  0  0  0  0  0  0  0  0  0
  -51.1178   59.4754   62.7559 C   0  0  0  0  0  0  0  0  0  0  0  0
  -50.1566   58.2965   62.6550 C   0  0  0  0  0  0  0  0  0  0  0  0
  -49.0221   58.5088   61.6711 C   0  0  0  0  0  0  0  0  0  0  0  0
  -49.4813   59.0384   60.3280 C   0  0  0  0  0  0  0  0  0  0  0  0
  -49.2952   58.0492   59.1860 C   0  0  0  0  0  0  0  0  0  0  0  0
  -48.0933   57.1381   59.3609 C   0  0  0  0  0  0  0  0  0  0  0  0
  -47.1260   58.4456   57.4399 C   0  0  0  0  0  0  0  0  0  0  0  0
  -47.1236   57.1355   58.1944 C   0  0  0  0  0  0  0  0  0  0  0  0
  -38.0886   61.5647   63.2047 C   0  0  0  0  0  0  0  0  0  0  0  0
  -37.5970   62.8110   63.7464 O   0  0  0  0  0  0  0  0  0  0  0  0
  -36.4293   63.6577   63.0525 P   0  0  0  0  0  0  0  0  0  0  0  0
  -36.2509   63.1489   61.6755 O   0  0  0  0  0  0  0  0  0  0  0  0
  -36.7251   65.0976   63.2472 O   0  0  0  0  0  0  0  0  0  0  0  0
  -37.5260   65.3328   62.7532 H   0  0  0  0  0  0  0  0  0  0  0  0
  -35.1095   63.3127   63.8784 O   0  0  0  0  0  0  0  0  0  0  0  0
  -34.3136   62.1646   63.5199 C   0  0  0  0  0  0  0  0  0  0  0  0
  -33.2107   62.9375   61.5378 O   0  0  0  0  0  0  0  0  0  0  0  0
  -33.0151   62.6525   62.9262 C   0  0  0  0  0  0  0  0  0  0  0  0
  -33.5544   62.1482   61.0910 H   0  0  0  0  0  0  0  0  0  0  0  0
  -32.9234   65.0618   62.9987 O   0  0  0  0  0  0  0  0  0  0  0  0
  -32.4798   63.8718   63.6380 C   0  0  0  0  0  0  0  0  0  0  0  0
  -32.5700   65.8328   63.4694 H   0  0  0  0  0  0  0  0  0  0  0  0
  -39.9839   60.7505   64.5462 O   0  0  0  0  0  0  0  0  0  0  0  0
  -38.4808   61.2418   66.1461 O   0  0  0  0  0  0  0  0  0  0  0  0
  -39.0138   60.4408   65.4277 C   0  0  0  0  0  0  0  0  0  0  0  0
  -38.6934   58.9781   65.4176 C   0  0  0  0  0  0  0  0  0  0  0  0
  -39.7100   58.1891   64.5987 C   0  0  0  0  0  0  0  0  0  0  0  0
  -41.0538   58.0147   65.2869 C   0  0  0  0  0  0  0  0  0  0  0  0
  -42.1444   57.4769   64.3676 C   0  0  0  0  0  0  0  0  0  0  0  0
  -41.9386   56.0342   63.9445 C   0  0  0  0  0  0  0  0  0  0  0  0
  -41.4321   55.8575   62.5101 C   0  0  0  0  0  0  0  0  0  0  0  0
  -41.3399   57.1451   61.6884 C   0  0  0  0  0  0  0  0  0  0  0  0
  -41.3795   56.8780   60.2136 C   0  0  0  0  0  0  0  0  0  0  0  0
  -40.8159   57.6027   59.2668 C   0  0  0  0  0  0  0  0  0  0  0  0
  -40.0135   58.8491   59.4689 C   0  0  0  0  0  0  0  0  0  0  0  0
  -38.5300   58.6402   59.1785 C   0  0  0  0  0  0  0  0  0  0  0  0
  -37.6374   58.8425   60.3902 C   0  0  0  0  0  0  0  0  0  0  0  0
  -37.9963   57.9525   61.5677 C   0  0  0  0  0  0  0  0  0  0  0  0
  -36.8029   57.4430   62.3586 C   0  0  0  0  0  0  0  0  0  0  0  0
  -36.0462   58.5423   63.0886 C   0  0  0  0  0  0  0  0  0  0  0  0
  -34.6362   58.1624   63.4953 C   0  0  0  0  0  0  0  0  0  0  0  0
  -33.6175   58.4948   62.4411 C   0  0  0  0  0  0  0  0  0  0  0  0
 21 22  1  0  0  0
  4  5  2  0  0  0
 25 24  1  0  0  0
 25 26  2  0  0  0
 25 27  1  0  0  0
 25 29  1  0  0  0
 22 20  1  0  0  0
  3  5  1  0  0  0
  3  2  1  0  0  0
 20 19  1  0  0  0
 24 23  1  0  0  0
 19 18  1  0  0  0
 18 17  1  0  0  0
 27 28  1  0  0  0
 17 16  1  0  0  0
 29 30  1  0  0  0
 16 15  1  0  0  0
 34 35  1  0  0  0
 34 36  1  0  0  0
 15 14  1  0  0  0
 31 32  1  0  0  0
 31 33  1  0  0  0
 14 13  1  0  0  0
 37  1  1  0  0  0
 37 39  1  0  0  0
 13 12  1  0  0  0
 38 39  2  0  0  0
 12 11  1  0  0  0
 11 10  1  0  0  0
 10  9  1  0  0  0
  9  8  1  0  0  0
  8  7  1  0  0  0
  7  6  1  0  0  0
  6  5  1  0  0  0
  2  1  1  0  0  0
  1 23  1  0  0  0
 30 32  1  0  0  0
 32 35  1  0  0  0
 39 40  1  0  0  0
 40 41  1  0  0  0
 41 42  1  0  0  0
 42 43  1  0  0  0
 43 44  1  0  0  0
 44 45  1  0  0  0
 45 46  1  0  0  0
 46 47  1  0  0  0
 47 48  2  0  0  0
 48 49  1  0  0  0
 49 50  1  0  0  0
 50 51  1  0  0  0
 51 52  1  0  0  0
 52 53  1  0  0  0
 53 54  1  0  0  0
 54 55  1  0  0  0
 55 56  1  0  0  0
M  CHG 1  26  -1
M  END
> <minimizedAffinity>
-8.31359

> <CNNscore>
0.2179999650

> <CNNaffinity>
7.1918807030

> <CNN_VS>
1.5678297281

> <CNNaffinity_variance>
1.5167214870

$$$$
/media/chris/experiments/cd1a-new-docking/inputs/ligands/7sh4_ligand.pdb


 56 55  0  0  0  0  0  0  0  0999 V2000
  -43.1975   60.2769   65.0808 C   0  0  0  0  0  0  0  0  0  0  0  0
  -42.3064   59.9120   66.2342 C   0  0  0  0  0  0  0  0  0  0  0  0
  -41.7817   58.6166   65.8738 O   0  0  0  0  0  0  0  0  0  0  0  0
  -43.2389   57.2808   66.9185 O   0  0  0  0  0  0  0  0  0  0  0  0
  -42.6254   57.5858   65.9314 C   0  0  0  0  0  0  0  0  0  0  0  0
  -42.7963   56.9485   64.5825 C   0  0  0  0  0  0  0  0  0  0  0  0
  -41.4956   56.4970   63.9402 C   0  0  0  0  0  0  0  0  0  0  0  0
  -41.4779   56.7080   62.4409 C   0  0  0  0  0  0  0  0  0  0  0  0
  -40.1407   56.4310   61.7922 C   0  0  0  0  0  0  0  0  0  0  0  0
  -39.7229   57.5075   60.8111 C   0  0  0  0  0  0  0  0  0  0  0  0
  -38.3084   57.9886   61.0239 C   0  0  0  0  0  0  0  0  0  0  0  0
  -37.6662   57.4023   62.2534 C   0  0  0  0  0  0  0  0  0  0  0  0
  -36.2763   57.9373   62.5178 C   0  0  0  0  0  0  0  0  0  0  0  0
  -35.8838   57.8502   63.9788 C   0  0  0  0  0  0  0  0  0  0  0  0
  -34.3956   57.9790   64.2276 C   0  0  0  0  0  0  0  0  0  0  0  0
  -33.5890   58.3156   62.9785 C   0  0  0  0  0  0  0  0  0  0  0  0
  -32.6931   59.5295   63.1320 C   0  0  0  0  0  0  0  0  0  0  0  0
  -33.4582   60.8186   63.3517 C   0  0  0  0  0  0  0  0  0  0  0  0
  -32.6033   62.0690   63.2004 C   0  0  0  0  0  0  0  0  0  0  0  0
  -31.4549   61.9051   62.2209 C   0  0  0  0  0  0  0  0  0  0  0  0
  -32.3387   64.1116   61.3928 C   0  0  0  0  0  0  0  0  0  0  0  0
  -31.3909   62.9624   61.1350 C   0  0  0  0  0  0  0  0  0  0  0  0
  -42.5560   61.2906   64.1683 C   0  0  0  0  0  0  0  0  0  0  0  0
  -41.1299   61.2899   64.4018 O   0  0  0  0  0  0  0  0  0  0  0  0
  -40.0800   60.6860   63.3554 P   0  0  0  0  0  0  0  0  0  0  0  0
  -39.5275   59.4398   63.9286 O   0  0  0  0  0  0  0  0  0  0  0  0
  -40.7338   60.6299   62.0258 O   0  0  0  0  0  0  0  0  0  0  0  0
  -41.4574   59.9843   62.0483 H   0  0  0  0  0  0  0  0  0  0  0  0
  -38.8999   61.7556   63.2763 O   0  0  0  0  0  0  0  0  0  0  0  0
  -37.5280   61.3261   63.3921 C   0  0  0  0  0  0  0  0  0  0  0  0
  -36.9754   63.6039   62.8931 O   0  0  0  0  0  0  0  0  0  0  0  0
  -36.6874   62.5180   63.7791 C   0  0  0  0  0  0  0  0  0  0  0  0
  -36.8272   63.3218   61.9770 H   0  0  0  0  0  0  0  0  0  0  0  0
  -37.6618   61.9558   65.9128 O   0  0  0  0  0  0  0  0  0  0  0  0
  -36.9132   62.9401   65.2111 C   0  0  0  0  0  0  0  0  0  0  0  0
  -37.7963   62.2442   66.8291 H   0  0  0  0  0  0  0  0  0  0  0  0
  -44.4725   60.7622   65.6182 O   0  0  0  0  0  0  0  0  0  0  0  0
  -45.5517   59.4327   67.0770 O   0  0  0  0  0  0  0  0  0  0  0  0
  -45.3860   59.8321   65.9568 C   0  0  0  0  0  0  0  0  0  0  0  0
  -46.1806   59.3705   64.7746 C   0  0  0  0  0  0  0  0  0  0  0  0
  -47.2681   60.3745   64.4058 C   0  0  0  0  0  0  0  0  0  0  0  0
  -48.3526   60.5234   65.4603 C   0  0  0  0  0  0  0  0  0  0  0  0
  -49.3016   59.3325   65.5312 C   0  0  0  0  0  0  0  0  0  0  0  0
  -50.7687   59.7058   65.4270 C   0  0  0  0  0  0  0  0  0  0  0  0
  -51.1435   60.4644   64.1505 C   0  0  0  0  0  0  0  0  0  0  0  0
  -50.9832   59.6723   62.8511 C   0  0  0  0  0  0  0  0  0  0  0  0
  -49.7365   60.0506   62.1091 C   0  0  0  0  0  0  0  0  0  0  0  0
  -49.4862   59.8403   60.8315 C   0  0  0  0  0  0  0  0  0  0  0  0
  -50.4008   59.1776   59.8502 C   0  0  0  0  0  0  0  0  0  0  0  0
  -50.0019   57.7322   59.5667 C   0  0  0  0  0  0  0  0  0  0  0  0
  -48.6529   57.3470   60.1479 C   0  0  0  0  0  0  0  0  0  0  0  0
  -48.1007   56.0440   59.5960 C   0  0  0  0  0  0  0  0  0  0  0  0
  -46.9446   56.2118   58.6239 C   0  0  0  0  0  0  0  0  0  0  0  0
  -47.3740   56.2012   57.1647 C   0  0  0  0  0  0  0  0  0  0  0  0
  -47.8352   57.5474   56.6422 C   0  0  0  0  0  0  0  0  0  0  0  0
  -46.9481   58.6776   57.0840 C   0  0  0  0  0  0  0  0  0  0  0  0
 21 22  1  0  0  0
  4  5  2  0  0  0
 25 24  1  0  0  0
 25 26  2  0  0  0
 25 27  1  0  0  0
 25 29  1  0  0  0
 22 20  1  0  0  0
  3  5  1  0  0  0
  3  2  1  0  0  0
 20 19  1  0  0  0
 24 23  1  0  0  0
 19 18  1  0  0  0
 18 17  1  0  0  0
 27 28  1  0  0  0
 17 16  1  0  0  0
 29 30  1  0  0  0
 16 15  1  0  0  0
 34 35  1  0  0  0
 34 36  1  0  0  0
 15 14  1  0  0  0
 31 32  1  0  0  0
 31 33  1  0  0  0
 14 13  1  0  0  0
 37  1  1  0  0  0
 37 39  1  0  0  0
 13 12  1  0  0  0
 38 39  2  0  0  0
 12 11  1  0  0  0
 11 10  1  0  0  0
 10  9  1  0  0  0
  9  8  1  0  0  0
  8  7  1  0  0  0
  7  6  1  0  0  0
  6  5  1  0  0  0
  2  1  1  0  0  0
  1 23  1  0  0  0
 30 32  1  0  0  0
 32 35  1  0  0  0
 39 40  1  0  0  0
 40 41  1  0  0  0
 41 42  1  0  0  0
 42 43  1  0  0  0
 43 44  1  0  0  0
 44 45  1  0  0  0
 45 46  1  0  0  0
 46 47  1  0  0  0
 47 48  2  0  0  0
 48 49  1  0  0  0
 49 50  1  0  0  0
 50 51  1  0  0  0
 51 52  1  0  0  0
 52 53  1  0  0  0
 53 54  1  0  0  0
 54 55  1  0  0  0
 55 56  1  0  0  0
M  CHG 1  26  -1
M  END
> <minimizedAffinity>
-7.99197

> <CNNscore>
0.2114224732

> <CNNaffinity>
6.8647170067

> <CNN_VS>
1.4513554573

> <CNNaffinity_variance>
1.1649911404

$$$$
