/media/chris/experiments/cd1a-new-docking/inputs/ligands/7sh4_ligand.pdb


 56 55  0  0  0  0  0  0  0  0999 V2000
  -39.9573   60.9731   63.1105 C   0  0  0  0  0  0  0  0  0  0  0  0
  -40.5915   60.5618   61.8119 C   0  0  0  0  0  0  0  0  0  0  0  0
  -39.4913   60.5381   60.8781 O   0  0  0  0  0  0  0  0  0  0  0  0
  -38.6869   59.4520   59.0969 O   0  0  0  0  0  0  0  0  0  0  0  0
  -39.5930   59.7004   59.8458 C   0  0  0  0  0  0  0  0  0  0  0  0
  -40.9344   59.0257   59.8246 C   0  0  0  0  0  0  0  0  0  0  0  0
  -40.8686   57.5106   59.9180 C   0  0  0  0  0  0  0  0  0  0  0  0
  -41.3835   56.9819   61.2401 C   0  0  0  0  0  0  0  0  0  0  0  0
  -40.3272   56.8699   62.3159 C   0  0  0  0  0  0  0  0  0  0  0  0
  -38.9158   56.8767   61.7647 C   0  0  0  0  0  0  0  0  0  0  0  0
  -37.9384   57.6186   62.6434 C   0  0  0  0  0  0  0  0  0  0  0  0
  -36.8138   58.2522   61.8679 C   0  0  0  0  0  0  0  0  0  0  0  0
  -35.6576   58.6923   62.7383 C   0  0  0  0  0  0  0  0  0  0  0  0
  -34.7048   57.5596   63.0628 C   0  0  0  0  0  0  0  0  0  0  0  0
  -33.2456   57.8956   62.8373 C   0  0  0  0  0  0  0  0  0  0  0  0
  -32.9785   59.3843   62.6469 C   0  0  0  0  0  0  0  0  0  0  0  0
  -31.5502   59.7973   62.9464 C   0  0  0  0  0  0  0  0  0  0  0  0
  -30.9461   60.6908   61.8824 C   0  0  0  0  0  0  0  0  0  0  0  0
  -29.4457   60.5027   61.7074 C   0  0  0  0  0  0  0  0  0  0  0  0
  -28.6141   61.2931   62.7018 C   0  0  0  0  0  0  0  0  0  0  0  0
  -28.8381   63.5363   61.5822 C   0  0  0  0  0  0  0  0  0  0  0  0
  -29.0222   62.7458   62.8576 C   0  0  0  0  0  0  0  0  0  0  0  0
  -38.5017   61.3263   62.9429 C   0  0  0  0  0  0  0  0  0  0  0  0
  -38.0604   62.0485   64.1143 O   0  0  0  0  0  0  0  0  0  0  0  0
  -36.6752   62.8485   64.1693 P   0  0  0  0  0  0  0  0  0  0  0  0
  -35.5777   61.8783   63.9668 O   0  0  0  0  0  0  0  0  0  0  0  0
  -36.7767   64.0106   63.2538 O   0  0  0  0  0  0  0  0  0  0  0  0
  -36.8428   63.6963   62.3385 H   0  0  0  0  0  0  0  0  0  0  0  0
  -36.5686   63.4066   65.6592 O   0  0  0  0  0  0  0  0  0  0  0  0
  -35.5798   62.8700   66.5617 C   0  0  0  0  0  0  0  0  0  0  0  0
  -33.5120   63.3993   67.6510 O   0  0  0  0  0  0  0  0  0  0  0  0
  -34.5568   63.9440   66.8395 C   0  0  0  0  0  0  0  0  0  0  0  0
  -33.8931   63.0256   68.4609 H   0  0  0  0  0  0  0  0  0  0  0  0
  -33.2374   65.7086   65.8577 O   0  0  0  0  0  0  0  0  0  0  0  0
  -33.9809   64.5306   65.5730 C   0  0  0  0  0  0  0  0  0  0  0  0
  -32.8761   66.0700   65.0334 H   0  0  0  0  0  0  0  0  0  0  0  0
  -40.1433   59.8880   64.0790 O   0  0  0  0  0  0  0  0  0  0  0  0
  -41.3912   61.1403   65.4699 O   0  0  0  0  0  0  0  0  0  0  0  0
  -41.0858   60.0680   65.0241 C   0  0  0  0  0  0  0  0  0  0  0  0
  -41.7187   58.7756   65.4380 C   0  0  0  0  0  0  0  0  0  0  0  0
  -43.2042   58.9511   65.7364 C   0  0  0  0  0  0  0  0  0  0  0  0
  -44.0559   59.1976   64.5021 C   0  0  0  0  0  0  0  0  0  0  0  0
  -45.0003   60.3862   64.6403 C   0  0  0  0  0  0  0  0  0  0  0  0
  -46.2587   60.0854   65.4332 C   0  0  0  0  0  0  0  0  0  0  0  0
  -46.8316   58.6829   65.2102 C   0  0  0  0  0  0  0  0  0  0  0  0
  -48.1858   58.6377   64.4992 C   0  0  0  0  0  0  0  0  0  0  0  0
  -49.3267   58.5161   65.4642 C   0  0  0  0  0  0  0  0  0  0  0  0
  -50.3913   59.2921   65.5267 C   0  0  0  0  0  0  0  0  0  0  0  0
  -50.6843   60.4616   64.6408 C   0  0  0  0  0  0  0  0  0  0  0  0
  -51.5276   60.0771   63.4287 C   0  0  0  0  0  0  0  0  0  0  0  0
  -50.7069   59.7650   62.1895 C   0  0  0  0  0  0  0  0  0  0  0  0
  -50.6942   58.2913   61.8217 C   0  0  0  0  0  0  0  0  0  0  0  0
  -50.3133   58.0058   60.3784 C   0  0  0  0  0  0  0  0  0  0  0  0
  -49.2184   58.9194   59.8490 C   0  0  0  0  0  0  0  0  0  0  0  0
  -48.3651   58.3010   58.7593 C   0  0  0  0  0  0  0  0  0  0  0  0
  -47.5774   57.1145   59.2407 C   0  0  0  0  0  0  0  0  0  0  0  0
 21 22  1  0  0  0
  4  5  2  0  0  0
 25 24  1  0  0  0
 25 26  2  0  0  0
 25 27  1  0  0  0
 25 29  1  0  0  0
 22 20  1  0  0  0
  3  5  1  0  0  0
  3  2  1  0  0  0
 20 19  1  0  0  0
 24 23  1  0  0  0
 19 18  1  0  0  0
 18 17  1  0  0  0
 27 28  1  0  0  0
 17 16  1  0  0  0
 29 30  1  0  0  0
 16 15  1  0  0  0
 34 35  1  0  0  0
 34 36  1  0  0  0
 15 14  1  0  0  0
 31 32  1  0  0  0
 31 33  1  0  0  0
 14 13  1  0  0  0
 37  1  1  0  0  0
 37 39  1  0  0  0
 13 12  1  0  0  0
 38 39  2  0  0  0
 12 11  1  0  0  0
 11 10  1  0  0  0
 10  9  1  0  0  0
  9  8  1  0  0  0
  8  7  1  0  0  0
  7  6  1  0  0  0
  6  5  1  0  0  0
  2  1  1  0  0  0
  1 23  1  0  0  0
 30 32  1  0  0  0
 32 35  1  0  0  0
 39 40  1  0  0  0
 40 41  1  0  0  0
 41 42  1  0  0  0
 42 43  1  0  0  0
 43 44  1  0  0  0
 44 45  1  0  0  0
 45 46  1  0  0  0
 46 47  1  0  0  0
 47 48  2  0  0  0
 48 49  1  0  0  0
 49 50  1  0  0  0
 50 51  1  0  0  0
 51 52  1  0  0  0
 52 53  1  0  0  0
 53 54  1  0  0  0
 54 55  1  0  0  0
 55 56  1  0  0  0
M  CHG 1  26  -1
M  END
> <minimizedAffinity>
-8.61291

> <CNNscore>
0.5894637108

> <CNNaffinity>
7.2663130760

> <CNN_VS>
4.2832279205

> <CNNaffinity_variance>
0.8121992946

$$$$
/media/chris/experiments/cd1a-new-docking/inputs/ligands/7sh4_ligand.pdb


 56 55  0  0  0  0  0  0  0  0999 V2000
  -40.5393   60.0536   65.0274 C   0  0  0  0  0  0  0  0  0  0  0  0
  -40.7260   58.5774   65.2363 C   0  0  0  0  0  0  0  0  0  0  0  0
  -41.1094   58.0862   63.9344 O   0  0  0  0  0  0  0  0  0  0  0  0
  -41.8953   56.1600   64.7536 O   0  0  0  0  0  0  0  0  0  0  0  0
  -41.4296   56.7949   63.8461 C   0  0  0  0  0  0  0  0  0  0  0  0
  -41.2500   56.2859   62.4448 C   0  0  0  0  0  0  0  0  0  0  0  0
  -41.7379   57.2424   61.3699 C   0  0  0  0  0  0  0  0  0  0  0  0
  -40.9624   57.1145   60.0756 C   0  0  0  0  0  0  0  0  0  0  0  0
  -40.9233   58.3801   59.2496 C   0  0  0  0  0  0  0  0  0  0  0  0
  -39.8499   59.3499   59.7003 C   0  0  0  0  0  0  0  0  0  0  0  0
  -38.4537   58.8947   59.3520 C   0  0  0  0  0  0  0  0  0  0  0  0
  -37.6338   58.5331   60.5622 C   0  0  0  0  0  0  0  0  0  0  0  0
  -38.2539   58.9872   61.8651 C   0  0  0  0  0  0  0  0  0  0  0  0
  -37.5549   58.4091   63.0789 C   0  0  0  0  0  0  0  0  0  0  0  0
  -36.1560   57.8995   62.8021 C   0  0  0  0  0  0  0  0  0  0  0  0
  -35.3528   57.5902   64.0603 C   0  0  0  0  0  0  0  0  0  0  0  0
  -34.1339   58.4734   64.2459 C   0  0  0  0  0  0  0  0  0  0  0  0
  -33.2357   58.5237   63.0268 C   0  0  0  0  0  0  0  0  0  0  0  0
  -32.0732   59.4969   63.1651 C   0  0  0  0  0  0  0  0  0  0  0  0
  -31.6742   60.1566   61.8572 C   0  0  0  0  0  0  0  0  0  0  0  0
  -29.2138   60.6852   61.9084 C   0  0  0  0  0  0  0  0  0  0  0  0
  -30.6186   61.2381   61.9879 C   0  0  0  0  0  0  0  0  0  0  0  0
  -39.2514   60.5524   65.6309 C   0  0  0  0  0  0  0  0  0  0  0  0
  -38.6370   61.4834   64.7121 O   0  0  0  0  0  0  0  0  0  0  0  0
  -37.1540   62.0506   64.9143 P   0  0  0  0  0  0  0  0  0  0  0  0
  -37.2326   63.2327   65.7993 O   0  0  0  0  0  0  0  0  0  0  0  0
  -36.2779   60.9216   65.3097 O   0  0  0  0  0  0  0  0  0  0  0  0
  -36.5400   60.6008   66.1868 H   0  0  0  0  0  0  0  0  0  0  0  0
  -36.6915   62.5475   63.4713 O   0  0  0  0  0  0  0  0  0  0  0  0
  -35.3933   63.1514   63.2980 C   0  0  0  0  0  0  0  0  0  0  0  0
  -34.4116   65.3297   63.4816 O   0  0  0  0  0  0  0  0  0  0  0  0
  -35.5843   64.6287   63.0571 C   0  0  0  0  0  0  0  0  0  0  0  0
  -34.2292   65.1217   64.4113 H   0  0  0  0  0  0  0  0  0  0  0  0
  -35.7011   63.7879   60.7992 O   0  0  0  0  0  0  0  0  0  0  0  0
  -35.8833   64.9413   61.6105 C   0  0  0  0  0  0  0  0  0  0  0  0
  -35.8974   64.0082   59.8753 H   0  0  0  0  0  0  0  0  0  0  0  0
  -41.7036   60.7494   65.5843 O   0  0  0  0  0  0  0  0  0  0  0  0
  -42.2548   62.0207   63.8122 O   0  0  0  0  0  0  0  0  0  0  0  0
  -42.5730   61.2844   64.7057 C   0  0  0  0  0  0  0  0  0  0  0  0
  -43.9783   60.8371   64.9648 C   0  0  0  0  0  0  0  0  0  0  0  0
  -44.3050   59.5539   64.2074 C   0  0  0  0  0  0  0  0  0  0  0  0
  -44.7010   58.3927   65.1044 C   0  0  0  0  0  0  0  0  0  0  0  0
  -45.5372   58.8100   66.3087 C   0  0  0  0  0  0  0  0  0  0  0  0
  -47.0348   58.7188   66.0815 C   0  0  0  0  0  0  0  0  0  0  0  0
  -47.7278   60.0658   65.8572 C   0  0  0  0  0  0  0  0  0  0  0  0
  -47.9864   60.4297   64.3935 C   0  0  0  0  0  0  0  0  0  0  0  0
  -49.3766   60.9477   64.1773 C   0  0  0  0  0  0  0  0  0  0  0  0
  -50.4410   60.2371   63.8589 C   0  0  0  0  0  0  0  0  0  0  0  0
  -50.4829   58.7566   63.6473 C   0  0  0  0  0  0  0  0  0  0  0  0
  -50.8411   58.3834   62.2118 C   0  0  0  0  0  0  0  0  0  0  0  0
  -49.8332   58.8708   61.1856 C   0  0  0  0  0  0  0  0  0  0  0  0
  -48.9852   57.7609   60.5888 C   0  0  0  0  0  0  0  0  0  0  0  0
  -48.7318   57.8953   59.0963 C   0  0  0  0  0  0  0  0  0  0  0  0
  -48.0659   56.6730   58.4827 C   0  0  0  0  0  0  0  0  0  0  0  0
  -46.9778   56.9960   57.4780 C   0  0  0  0  0  0  0  0  0  0  0  0
  -46.9377   58.4537   57.1129 C   0  0  0  0  0  0  0  0  0  0  0  0
 21 22  1  0  0  0
  4  5  2  0  0  0
 25 24  1  0  0  0
 25 26  2  0  0  0
 25 27  1  0  0  0
 25 29  1  0  0  0
 22 20  1  0  0  0
  3  5  1  0  0  0
  3  2  1  0  0  0
 20 19  1  0  0  0
 24 23  1  0  0  0
 19 18  1  0  0  0
 18 17  1  0  0  0
 27 28  1  0  0  0
 17 16  1  0  0  0
 29 30  1  0  0  0
 16 15  1  0  0  0
 34 35  1  0  0  0
 34 36  1  0  0  0
 15 14  1  0  0  0
 31 32  1  0  0  0
 31 33  1  0  0  0
 14 13  1  0  0  0
 37  1  1  0  0  0
 37 39  1  0  0  0
 13 12  1  0  0  0
 38 39  2  0  0  0
 12 11  1  0  0  0
 11 10  1  0  0  0
 10  9  1  0  0  0
  9  8  1  0  0  0
  8  7  1  0  0  0
  7  6  1  0  0  0
  6  5  1  0  0  0
  2  1  1  0  0  0
  1 23  1  0  0  0
 30 32  1  0  0  0
 32 35  1  0  0  0
 39 40  1  0  0  0
 40 41  1  0  0  0
 41 42  1  0  0  0
 42 43  1  0  0  0
 43 44  1  0  0  0
 44 45  1  0  0  0
 45 46  1  0  0  0
 46 47  1  0  0  0
 47 48  2  0  0  0
 48 49  1  0  0  0
 49 50  1  0  0  0
 50 51  1  0  0  0
 51 52  1  0  0  0
 52 53  1  0  0  0
 53 54  1  0  0  0
 54 55  1  0  0  0
 55 56  1  0  0  0
M  CHG 1  26  -1
M  END
> <minimizedAffinity>
-8.44858

> <CNNscore>
0.5838974714

> <CNNaffinity>
7.6395821571

> <CNN_VS>
4.4607329369

> <CNNaffinity_variance>
1.3645622730

$$$$
/media/chris/experiments/cd1a-new-docking/inputs/ligands/7sh4_ligand.pdb


 56 55  0  0  0  0  0  0  0  0999 V2000
  -40.1137   59.0667   65.3114 C   0  0  0  0  0  0  0  0  0  0  0  0
  -40.6972   60.1939   66.1155 C   0  0  0  0  0  0  0  0  0  0  0  0
  -41.5184   60.9097   65.1687 O   0  0  0  0  0  0  0  0  0  0  0  0
  -43.1223   61.1730   66.7040 O   0  0  0  0  0  0  0  0  0  0  0  0
  -42.7479   61.2406   65.5644 C   0  0  0  0  0  0  0  0  0  0  0  0
  -43.5453   61.8193   64.4311 C   0  0  0  0  0  0  0  0  0  0  0  0
  -43.4549   61.0245   63.1394 C   0  0  0  0  0  0  0  0  0  0  0  0
  -42.6704   61.7436   62.0624 C   0  0  0  0  0  0  0  0  0  0  0  0
  -41.3862   61.0516   61.6653 C   0  0  0  0  0  0  0  0  0  0  0  0
  -41.3043   60.7587   60.1809 C   0  0  0  0  0  0  0  0  0  0  0  0
  -40.4438   59.5616   59.8581 C   0  0  0  0  0  0  0  0  0  0  0  0
  -38.9708   59.8739   59.8763 C   0  0  0  0  0  0  0  0  0  0  0  0
  -38.0959   58.6405   59.9117 C   0  0  0  0  0  0  0  0  0  0  0  0
  -37.9156   58.0906   61.3122 C   0  0  0  0  0  0  0  0  0  0  0  0
  -36.6323   58.5274   61.9872 C   0  0  0  0  0  0  0  0  0  0  0  0
  -36.0919   57.5189   62.9946 C   0  0  0  0  0  0  0  0  0  0  0  0
  -34.7587   57.9096   63.6029 C   0  0  0  0  0  0  0  0  0  0  0  0
  -33.7254   58.3220   62.5745 C   0  0  0  0  0  0  0  0  0  0  0  0
  -32.6380   59.2298   63.1321 C   0  0  0  0  0  0  0  0  0  0  0  0
  -31.8659   59.9810   62.0623 C   0  0  0  0  0  0  0  0  0  0  0  0
  -31.0836   62.1874   61.1372 C   0  0  0  0  0  0  0  0  0  0  0  0
  -31.9569   61.4922   62.1569 C   0  0  0  0  0  0  0  0  0  0  0  0
  -38.6510   59.2796   65.0164 C   0  0  0  0  0  0  0  0  0  0  0  0
  -38.2581   60.5748   65.5229 O   0  0  0  0  0  0  0  0  0  0  0  0
  -37.4448   61.6387   64.6462 P   0  0  0  0  0  0  0  0  0  0  0  0
  -36.0962   61.0878   64.3926 O   0  0  0  0  0  0  0  0  0  0  0  0
  -38.2871   62.0222   63.4876 O   0  0  0  0  0  0  0  0  0  0  0  0
  -38.4001   61.2568   62.9026 H   0  0  0  0  0  0  0  0  0  0  0  0
  -37.2838   62.9210   65.5804 O   0  0  0  0  0  0  0  0  0  0  0  0
  -36.2406   63.8808   65.3149 C   0  0  0  0  0  0  0  0  0  0  0  0
  -36.2913   63.9369   67.7100 O   0  0  0  0  0  0  0  0  0  0  0  0
  -35.4301   64.0631   66.5746 C   0  0  0  0  0  0  0  0  0  0  0  0
  -37.0188   64.5741   67.6365 H   0  0  0  0  0  0  0  0  0  0  0  0
  -33.4343   63.4056   67.7590 O   0  0  0  0  0  0  0  0  0  0  0  0
  -34.2907   63.0773   66.6726 C   0  0  0  0  0  0  0  0  0  0  0  0
  -32.7100   62.7623   67.8056 H   0  0  0  0  0  0  0  0  0  0  0  0
  -40.8988   58.9224   64.0815 O   0  0  0  0  0  0  0  0  0  0  0  0
  -40.3665   56.8465   63.3978 O   0  0  0  0  0  0  0  0  0  0  0  0
  -41.1925   57.6681   63.6883 C   0  0  0  0  0  0  0  0  0  0  0  0
  -42.6684   57.4160   63.6748 C   0  0  0  0  0  0  0  0  0  0  0  0
  -43.2763   57.5807   65.0641 C   0  0  0  0  0  0  0  0  0  0  0  0
  -44.6815   58.1596   65.0572 C   0  0  0  0  0  0  0  0  0  0  0  0
  -45.5210   57.7370   66.2574 C   0  0  0  0  0  0  0  0  0  0  0  0
  -46.4193   58.8336   66.7989 C   0  0  0  0  0  0  0  0  0  0  0  0
  -46.5659   60.0487   65.8787 C   0  0  0  0  0  0  0  0  0  0  0  0
  -47.8015   60.0371   64.9760 C   0  0  0  0  0  0  0  0  0  0  0  0
  -49.0005   59.4601   65.6670 C   0  0  0  0  0  0  0  0  0  0  0  0
  -50.2619   59.6126   65.3139 C   0  0  0  0  0  0  0  0  0  0  0  0
  -50.7619   60.3969   64.1420 C   0  0  0  0  0  0  0  0  0  0  0  0
  -51.4561   59.5175   63.1062 C   0  0  0  0  0  0  0  0  0  0  0  0
  -50.5022   58.6421   62.3123 C   0  0  0  0  0  0  0  0  0  0  0  0
  -49.5620   59.4250   61.4121 C   0  0  0  0  0  0  0  0  0  0  0  0
  -49.6693   59.0787   59.9362 C   0  0  0  0  0  0  0  0  0  0  0  0
  -48.5743   58.1396   59.4534 C   0  0  0  0  0  0  0  0  0  0  0  0
  -47.8122   58.6427   58.2435 C   0  0  0  0  0  0  0  0  0  0  0  0
  -47.0188   57.5611   57.5650 C   0  0  0  0  0  0  0  0  0  0  0  0
 21 22  1  0  0  0
  4  5  2  0  0  0
 25 24  1  0  0  0
 25 26  2  0  0  0
 25 27  1  0  0  0
 25 29  1  0  0  0
 22 20  1  0  0  0
  3  5  1  0  0  0
  3  2  1  0  0  0
 20 19  1  0  0  0
 24 23  1  0  0  0
 19 18  1  0  0  0
 18 17  1  0  0  0
 27 28  1  0  0  0
 17 16  1  0  0  0
 29 30  1  0  0  0
 16 15  1  0  0  0
 34 35  1  0  0  0
 34 36  1  0  0  0
 15 14  1  0  0  0
 31 32  1  0  0  0
 31 33  1  0  0  0
 14 13  1  0  0  0
 37  1  1  0  0  0
 37 39  1  0  0  0
 13 12  1  0  0  0
 38 39  2  0  0  0
 12 11  1  0  0  0
 11 10  1  0  0  0
 10  9  1  0  0  0
  9  8  1  0  0  0
  8  7  1  0  0  0
  7  6  1  0  0  0
  6  5  1  0  0  0
  2  1  1  0  0  0
  1 23  1  0  0  0
 30 32  1  0  0  0
 32 35  1  0  0  0
 39 40  1  0  0  0
 40 41  1  0  0  0
 41 42  1  0  0  0
 42 43  1  0  0  0
 43 44  1  0  0  0
 44 45  1  0  0  0
 45 46  1  0  0  0
 46 47  1  0  0  0
 47 48  2  0  0  0
 48 49  1  0  0  0
 49 50  1  0  0  0
 50 51  1  0  0  0
 51 52  1  0  0  0
 52 53  1  0  0  0
 53 54  1  0  0  0
 54 55  1  0  0  0
 55 56  1  0  0  0
M  CHG 1  26  -1
M  END
> <minimizedAffinity>
-8.71208

> <CNNscore>
0.5262134671

> <CNNaffinity>
7.5315217972

> <CNN_VS>
3.9631881714

> <CNNaffinity_variance>
1.2708641291

$$$$
/media/chris/experiments/cd1a-new-docking/inputs/ligands/7sh4_ligand.pdb


 56 55  0  0  0  0  0  0  0  0999 V2000
  -40.3301   60.1098   64.1891 C   0  0  0  0  0  0  0  0  0  0  0  0
  -40.6804   58.7492   64.7218 C   0  0  0  0  0  0  0  0  0  0  0  0
  -41.4859   58.1623   63.6779 O   0  0  0  0  0  0  0  0  0  0  0  0
  -41.6584   56.0932   64.5075 O   0  0  0  0  0  0  0  0  0  0  0  0
  -41.4716   56.8327   63.5792 C   0  0  0  0  0  0  0  0  0  0  0  0
  -41.3193   56.3962   62.1505 C   0  0  0  0  0  0  0  0  0  0  0  0
  -41.7088   57.4554   61.1332 C   0  0  0  0  0  0  0  0  0  0  0  0
  -41.0862   57.2192   59.7733 C   0  0  0  0  0  0  0  0  0  0  0  0
  -40.1884   58.3399   59.3003 C   0  0  0  0  0  0  0  0  0  0  0  0
  -40.0528   59.4591   60.3126 C   0  0  0  0  0  0  0  0  0  0  0  0
  -38.6269   59.7000   60.7445 C   0  0  0  0  0  0  0  0  0  0  0  0
  -37.7942   58.4453   60.7505 C   0  0  0  0  0  0  0  0  0  0  0  0
  -38.0555   57.5568   61.9465 C   0  0  0  0  0  0  0  0  0  0  0  0
  -36.9908   57.6876   63.0167 C   0  0  0  0  0  0  0  0  0  0  0  0
  -35.6450   58.1474   62.4965 C   0  0  0  0  0  0  0  0  0  0  0  0
  -34.4882   57.8685   63.4494 C   0  0  0  0  0  0  0  0  0  0  0  0
  -33.1261   58.2264   62.8863 C   0  0  0  0  0  0  0  0  0  0  0  0
  -32.3517   59.1966   63.7549 C   0  0  0  0  0  0  0  0  0  0  0  0
  -32.0758   60.5331   63.0803 C   0  0  0  0  0  0  0  0  0  0  0  0
  -31.7021   60.4081   61.6141 C   0  0  0  0  0  0  0  0  0  0  0  0
  -29.7677   61.9703   62.0054 C   0  0  0  0  0  0  0  0  0  0  0  0
  -30.2523   60.7244   61.2994 C   0  0  0  0  0  0  0  0  0  0  0  0
  -38.9156   60.5040   64.5292 C   0  0  0  0  0  0  0  0  0  0  0  0
  -38.5643   61.6801   63.7664 O   0  0  0  0  0  0  0  0  0  0  0  0
  -37.0869   62.2958   63.7529 P   0  0  0  0  0  0  0  0  0  0  0  0
  -36.1629   61.2578   63.2474 O   0  0  0  0  0  0  0  0  0  0  0  0
  -37.1385   63.6039   63.0565 O   0  0  0  0  0  0  0  0  0  0  0  0
  -37.3551   63.4641   62.1214 H   0  0  0  0  0  0  0  0  0  0  0  0
  -36.7292   62.5690   65.2826 O   0  0  0  0  0  0  0  0  0  0  0  0
  -36.2851   63.8770   65.6973 C   0  0  0  0  0  0  0  0  0  0  0  0
  -36.1245   62.9435   67.8985 O   0  0  0  0  0  0  0  0  0  0  0  0
  -35.4205   63.7191   66.9239 C   0  0  0  0  0  0  0  0  0  0  0  0
  -36.9770   63.3638   68.0919 H   0  0  0  0  0  0  0  0  0  0  0  0
  -33.1349   63.3847   67.6186 O   0  0  0  0  0  0  0  0  0  0  0  0
  -34.0897   63.0786   66.6105 C   0  0  0  0  0  0  0  0  0  0  0  0
  -32.2881   62.9653   67.4000 H   0  0  0  0  0  0  0  0  0  0  0  0
  -41.3020   61.0747   64.7128 O   0  0  0  0  0  0  0  0  0  0  0  0
  -42.4120   61.2266   62.7621 O   0  0  0  0  0  0  0  0  0  0  0  0
  -42.3931   61.3122   63.9597 C   0  0  0  0  0  0  0  0  0  0  0  0
  -43.5817   61.6767   64.7942 C   0  0  0  0  0  0  0  0  0  0  0  0
  -44.8608   61.0495   64.2491 C   0  0  0  0  0  0  0  0  0  0  0  0
  -45.2237   59.7249   64.8999 C   0  0  0  0  0  0  0  0  0  0  0  0
  -46.4547   59.8026   65.7956 C   0  0  0  0  0  0  0  0  0  0  0  0
  -47.6496   59.0285   65.2705 C   0  0  0  0  0  0  0  0  0  0  0  0
  -49.0061   59.5400   65.7636 C   0  0  0  0  0  0  0  0  0  0  0  0
  -49.6210   60.6650   64.9284 C   0  0  0  0  0  0  0  0  0  0  0  0
  -50.9797   60.3039   64.4073 C   0  0  0  0  0  0  0  0  0  0  0  0
  -51.2834   59.9629   63.1701 C   0  0  0  0  0  0  0  0  0  0  0  0
  -50.3289   59.8634   62.0223 C   0  0  0  0  0  0  0  0  0  0  0  0
  -49.5710   58.5391   62.0083 C   0  0  0  0  0  0  0  0  0  0  0  0
  -50.2145   57.4778   61.1330 C   0  0  0  0  0  0  0  0  0  0  0  0
  -49.4330   57.1764   59.8658 C   0  0  0  0  0  0  0  0  0  0  0  0
  -49.1122   58.3967   59.0186 C   0  0  0  0  0  0  0  0  0  0  0  0
  -47.7799   58.2958   58.2914 C   0  0  0  0  0  0  0  0  0  0  0  0
  -47.0921   56.9528   58.4369 C   0  0  0  0  0  0  0  0  0  0  0  0
  -47.2886   56.0661   57.2390 C   0  0  0  0  0  0  0  0  0  0  0  0
 21 22  1  0  0  0
  4  5  2  0  0  0
 25 24  1  0  0  0
 25 26  2  0  0  0
 25 27  1  0  0  0
 25 29  1  0  0  0
 22 20  1  0  0  0
  3  5  1  0  0  0
  3  2  1  0  0  0
 20 19  1  0  0  0
 24 23  1  0  0  0
 19 18  1  0  0  0
 18 17  1  0  0  0
 27 28  1  0  0  0
 17 16  1  0  0  0
 29 30  1  0  0  0
 16 15  1  0  0  0
 34 35  1  0  0  0
 34 36  1  0  0  0
 15 14  1  0  0  0
 31 32  1  0  0  0
 31 33  1  0  0  0
 14 13  1  0  0  0
 37  1  1  0  0  0
 37 39  1  0  0  0
 13 12  1  0  0  0
 38 39  2  0  0  0
 12 11  1  0  0  0
 11 10  1  0  0  0
 10  9  1  0  0  0
  9  8  1  0  0  0
  8  7  1  0  0  0
  7  6  1  0  0  0
  6  5  1  0  0  0
  2  1  1  0  0  0
  1 23  1  0  0  0
 30 32  1  0  0  0
 32 35  1  0  0  0
 39 40  1  0  0  0
 40 41  1  0  0  0
 41 42  1  0  0  0
 42 43  1  0  0  0
 43 44  1  0  0  0
 44 45  1  0  0  0
 45 46  1  0  0  0
 46 47  1  0  0  0
 47 48  2  0  0  0
 48 49  1  0  0  0
 49 50  1  0  0  0
 50 51  1  0  0  0
 51 52  1  0  0  0
 52 53  1  0  0  0
 53 54  1  0  0  0
 54 55  1  0  0  0
 55 56  1  0  0  0
M  CHG 1  26  -1
M  END
> <minimizedAffinity>
-8.84721

> <CNNscore>
0.5213316679

> <CNNaffinity>
7.4216880798

> <CNN_VS>
3.8691611290

> <CNNaffinity_variance>
1.0364489555

$$$$
/media/chris/experiments/cd1a-new-docking/inputs/ligands/7sh4_ligand.pdb


 56 55  0  0  0  0  0  0  0  0999 V2000
  -41.0704   59.2477   64.3214 C   0  0  0  0  0  0  0  0  0  0  0  0
  -41.2662   57.7797   64.0681 C   0  0  0  0  0  0  0  0  0  0  0  0
  -41.6077   57.7094   62.6676 O   0  0  0  0  0  0  0  0  0  0  0  0
  -41.4776   55.5088   62.2940 O   0  0  0  0  0  0  0  0  0  0  0  0
  -41.1882   56.6363   61.9966 C   0  0  0  0  0  0  0  0  0  0  0  0
  -40.4230   57.0306   60.7661 C   0  0  0  0  0  0  0  0  0  0  0  0
  -39.6313   58.3189   60.9140 C   0  0  0  0  0  0  0  0  0  0  0  0
  -38.1345   58.0907   60.9119 C   0  0  0  0  0  0  0  0  0  0  0  0
  -37.6039   57.4507   62.1747 C   0  0  0  0  0  0  0  0  0  0  0  0
  -36.1386   57.7483   62.4203 C   0  0  0  0  0  0  0  0  0  0  0  0
  -35.7742   57.7700   63.8846 C   0  0  0  0  0  0  0  0  0  0  0  0
  -34.5087   58.5368   64.1646 C   0  0  0  0  0  0  0  0  0  0  0  0
  -33.7915   58.9895   62.9122 C   0  0  0  0  0  0  0  0  0  0  0  0
  -32.7127   60.0156   63.1939 C   0  0  0  0  0  0  0  0  0  0  0  0
  -31.3240   59.5844   62.7711 C   0  0  0  0  0  0  0  0  0  0  0  0
  -30.6945   60.4843   61.7138 C   0  0  0  0  0  0  0  0  0  0  0  0
  -29.3013   60.9685   62.0669 C   0  0  0  0  0  0  0  0  0  0  0  0
  -29.0610   62.4217   61.7121 C   0  0  0  0  0  0  0  0  0  0  0  0
  -29.2301   63.3730   62.8885 C   0  0  0  0  0  0  0  0  0  0  0  0
  -30.6319   63.9428   63.0125 C   0  0  0  0  0  0  0  0  0  0  0  0
  -32.6546   63.5384   61.5701 C   0  0  0  0  0  0  0  0  0  0  0  0
  -31.3179   64.2342   61.6914 C   0  0  0  0  0  0  0  0  0  0  0  0
  -39.8720   59.5167   65.1950 C   0  0  0  0  0  0  0  0  0  0  0  0
  -38.7120   59.6941   64.3515 O   0  0  0  0  0  0  0  0  0  0  0  0
  -38.2204   61.1301   63.8435 P   0  0  0  0  0  0  0  0  0  0  0  0
  -36.9281   60.9519   63.1473 O   0  0  0  0  0  0  0  0  0  0  0  0
  -39.3410   61.7696   63.1126 O   0  0  0  0  0  0  0  0  0  0  0  0
  -39.5239   61.2710   62.3009 H   0  0  0  0  0  0  0  0  0  0  0  0
  -37.9523   61.9775   65.1674 O   0  0  0  0  0  0  0  0  0  0  0  0
  -36.7490   61.7596   65.9322 C   0  0  0  0  0  0  0  0  0  0  0  0
  -35.8860   63.0673   67.7453 O   0  0  0  0  0  0  0  0  0  0  0  0
  -36.2015   63.1022   66.3503 C   0  0  0  0  0  0  0  0  0  0  0  0
  -36.6742   62.8103   68.2488 H   0  0  0  0  0  0  0  0  0  0  0  0
  -34.8251   62.6520   64.4212 O   0  0  0  0  0  0  0  0  0  0  0  0
  -34.9845   63.5009   65.5506 C   0  0  0  0  0  0  0  0  0  0  0  0
  -34.0397   62.9233   63.9210 H   0  0  0  0  0  0  0  0  0  0  0  0
  -42.3016   59.7825   64.9113 O   0  0  0  0  0  0  0  0  0  0  0  0
  -42.0702   61.8242   63.9957 O   0  0  0  0  0  0  0  0  0  0  0  0
  -42.7708   60.9379   64.4023 C   0  0  0  0  0  0  0  0  0  0  0  0
  -44.2676   60.9768   64.3871 C   0  0  0  0  0  0  0  0  0  0  0  0
  -44.8641   59.8832   65.2675 C   0  0  0  0  0  0  0  0  0  0  0  0
  -46.0954   59.2180   64.6749 C   0  0  0  0  0  0  0  0  0  0  0  0
  -47.2075   58.9791   65.6897 C   0  0  0  0  0  0  0  0  0  0  0  0
  -48.2716   58.0043   65.2209 C   0  0  0  0  0  0  0  0  0  0  0  0
  -49.7078   58.5205   65.3470 C   0  0  0  0  0  0  0  0  0  0  0  0
  -49.8860   60.0191   65.0943 C   0  0  0  0  0  0  0  0  0  0  0  0
  -51.2336   60.3388   64.5201 C   0  0  0  0  0  0  0  0  0  0  0  0
  -51.6214   60.1569   63.2729 C   0  0  0  0  0  0  0  0  0  0  0  0
  -50.7923   59.5885   62.1647 C   0  0  0  0  0  0  0  0  0  0  0  0
  -51.0346   58.0956   61.9629 C   0  0  0  0  0  0  0  0  0  0  0  0
  -50.1826   57.4827   60.8652 C   0  0  0  0  0  0  0  0  0  0  0  0
  -50.0877   58.3412   59.6158 C   0  0  0  0  0  0  0  0  0  0  0  0
  -48.6732   58.7485   59.2376 C   0  0  0  0  0  0  0  0  0  0  0  0
  -48.2296   58.2119   57.8851 C   0  0  0  0  0  0  0  0  0  0  0  0
  -46.9506   57.3995   57.9273 C   0  0  0  0  0  0  0  0  0  0  0  0
  -47.1321   56.0634   58.5919 C   0  0  0  0  0  0  0  0  0  0  0  0
 21 22  1  0  0  0
  4  5  2  0  0  0
 25 24  1  0  0  0
 25 26  2  0  0  0
 25 27  1  0  0  0
 25 29  1  0  0  0
 22 20  1  0  0  0
  3  5  1  0  0  0
  3  2  1  0  0  0
 20 19  1  0  0  0
 24 23  1  0  0  0
 19 18  1  0  0  0
 18 17  1  0  0  0
 27 28  1  0  0  0
 17 16  1  0  0  0
 29 30  1  0  0  0
 16 15  1  0  0  0
 34 35  1  0  0  0
 34 36  1  0  0  0
 15 14  1  0  0  0
 31 32  1  0  0  0
 31 33  1  0  0  0
 14 13  1  0  0  0
 37  1  1  0  0  0
 37 39  1  0  0  0
 13 12  1  0  0  0
 38 39  2  0  0  0
 12 11  1  0  0  0
 11 10  1  0  0  0
 10  9  1  0  0  0
  9  8  1  0  0  0
  8  7  1  0  0  0
  7  6  1  0  0  0
  6  5  1  0  0  0
  2  1  1  0  0  0
  1 23  1  0  0  0
 30 32  1  0  0  0
 32 35  1  0  0  0
 39 40  1  0  0  0
 40 41  1  0  0  0
 41 42  1  0  0  0
 42 43  1  0  0  0
 43 44  1  0  0  0
 44 45  1  0  0  0
 45 46  1  0  0  0
 46 47  1  0  0  0
 47 48  2  0  0  0
 48 49  1  0  0  0
 49 50  1  0  0  0
 50 51  1  0  0  0
 51 52  1  0  0  0
 52 53  1  0  0  0
 53 54  1  0  0  0
 54 55  1  0  0  0
 55 56  1  0  0  0
M  CHG 1  26  -1
M  END
> <minimizedAffinity>
-8.22364

> <CNNscore>
0.4532852769

> <CNNaffinity>
6.9753470421

> <CNN_VS>
3.1618220806

> <CNNaffinity_variance>
0.6492606401

$$$$
/media/chris/experiments/cd1a-new-docking/inputs/ligands/7sh4_ligand.pdb


 56 55  0  0  0  0  0  0  0  0999 V2000
  -39.6095   60.1987   63.5192 C   0  0  0  0  0  0  0  0  0  0  0  0
  -40.9120   60.0543   64.2543 C   0  0  0  0  0  0  0  0  0  0  0  0
  -41.5888   61.3064   64.0149 O   0  0  0  0  0  0  0  0  0  0  0  0
  -42.6730   61.9181   65.8721 O   0  0  0  0  0  0  0  0  0  0  0  0
  -42.6884   61.5452   64.7301 C   0  0  0  0  0  0  0  0  0  0  0  0
  -43.9239   61.4089   63.8875 C   0  0  0  0  0  0  0  0  0  0  0  0
  -45.1333   60.8808   64.6405 C   0  0  0  0  0  0  0  0  0  0  0  0
  -45.0230   59.4063   64.9665 C   0  0  0  0  0  0  0  0  0  0  0  0
  -46.2562   58.8221   65.6174 C   0  0  0  0  0  0  0  0  0  0  0  0
  -47.5464   59.3858   65.0574 C   0  0  0  0  0  0  0  0  0  0  0  0
  -48.6145   58.3386   64.8568 C   0  0  0  0  0  0  0  0  0  0  0  0
  -49.9678   58.7765   65.3514 C   0  0  0  0  0  0  0  0  0  0  0  0
  -50.3794   60.1412   64.8451 C   0  0  0  0  0  0  0  0  0  0  0  0
  -50.6053   60.1660   63.3469 C   0  0  0  0  0  0  0  0  0  0  0  0
  -51.4655   59.0307   62.8327 C   0  0  0  0  0  0  0  0  0  0  0  0
  -50.8668   58.2962   61.6386 C   0  0  0  0  0  0  0  0  0  0  0  0
  -49.5856   58.9152   61.1136 C   0  0  0  0  0  0  0  0  0  0  0  0
  -48.5982   57.8960   60.5826 C   0  0  0  0  0  0  0  0  0  0  0  0
  -48.5219   57.8547   59.0628 C   0  0  0  0  0  0  0  0  0  0  0  0
  -47.8365   56.6124   58.5224 C   0  0  0  0  0  0  0  0  0  0  0  0
  -46.7507   58.2564   56.9559 C   0  0  0  0  0  0  0  0  0  0  0  0
  -47.1124   56.8096   57.2041 C   0  0  0  0  0  0  0  0  0  0  0  0
  -38.5298   60.7875   64.3906 C   0  0  0  0  0  0  0  0  0  0  0  0
  -38.1904   62.0993   63.8882 O   0  0  0  0  0  0  0  0  0  0  0  0
  -36.6852   62.5469   63.5788 P   0  0  0  0  0  0  0  0  0  0  0  0
  -35.7784   61.5206   64.1367 O   0  0  0  0  0  0  0  0  0  0  0  0
  -36.5883   62.8745   62.1359 O   0  0  0  0  0  0  0  0  0  0  0  0
  -36.7177   62.0685   61.6120 H   0  0  0  0  0  0  0  0  0  0  0  0
  -36.4675   63.8947   64.4028 O   0  0  0  0  0  0  0  0  0  0  0  0
  -35.2138   64.6018   64.3115 C   0  0  0  0  0  0  0  0  0  0  0  0
  -33.4240   65.3103   65.7387 O   0  0  0  0  0  0  0  0  0  0  0  0
  -34.3955   64.2795   65.5376 C   0  0  0  0  0  0  0  0  0  0  0  0
  -32.8818   65.4040   64.9398 H   0  0  0  0  0  0  0  0  0  0  0  0
  -35.4045   62.7455   67.1020 O   0  0  0  0  0  0  0  0  0  0  0  0
  -35.2491   64.1199   66.7727 C   0  0  0  0  0  0  0  0  0  0  0  0
  -35.9548   62.6635   67.8965 H   0  0  0  0  0  0  0  0  0  0  0  0
  -39.8430   61.0123   62.3219 O   0  0  0  0  0  0  0  0  0  0  0  0
  -38.1561   60.4585   60.9406 O   0  0  0  0  0  0  0  0  0  0  0  0
  -39.3322   60.5539   61.1630 C   0  0  0  0  0  0  0  0  0  0  0  0
  -40.4043   60.1610   60.1944 C   0  0  0  0  0  0  0  0  0  0  0  0
  -40.3409   58.6733   59.8637 C   0  0  0  0  0  0  0  0  0  0  0  0
  -41.2123   57.8056   60.7568 C   0  0  0  0  0  0  0  0  0  0  0  0
  -40.4193   56.8402   61.6303 C   0  0  0  0  0  0  0  0  0  0  0  0
  -38.9151   57.0159   61.5357 C   0  0  0  0  0  0  0  0  0  0  0  0
  -38.2352   57.4020   62.8524 C   0  0  0  0  0  0  0  0  0  0  0  0
  -36.7290   57.6550   62.7582 C   0  0  0  0  0  0  0  0  0  0  0  0
  -36.0804   57.7133   64.1087 C   0  0  0  0  0  0  0  0  0  0  0  0
  -34.8809   58.1858   64.3863 C   0  0  0  0  0  0  0  0  0  0  0  0
  -33.9123   58.7669   63.4053 C   0  0  0  0  0  0  0  0  0  0  0  0
  -32.4615   58.4725   63.7751 C   0  0  0  0  0  0  0  0  0  0  0  0
  -31.4540   59.3013   62.9976 C   0  0  0  0  0  0  0  0  0  0  0  0
  -32.0868   60.2258   61.9719 C   0  0  0  0  0  0  0  0  0  0  0  0
  -31.1557   61.2989   61.4322 C   0  0  0  0  0  0  0  0  0  0  0  0
  -29.6826   60.9398   61.5543 C   0  0  0  0  0  0  0  0  0  0  0  0
  -28.7938   62.0938   61.9740 C   0  0  0  0  0  0  0  0  0  0  0  0
  -29.4317   62.9701   63.0156 C   0  0  0  0  0  0  0  0  0  0  0  0
 21 22  1  0  0  0
  4  5  2  0  0  0
 25 24  1  0  0  0
 25 26  2  0  0  0
 25 27  1  0  0  0
 25 29  1  0  0  0
 22 20  1  0  0  0
  3  5  1  0  0  0
  3  2  1  0  0  0
 20 19  1  0  0  0
 24 23  1  0  0  0
 19 18  1  0  0  0
 18 17  1  0  0  0
 27 28  1  0  0  0
 17 16  1  0  0  0
 29 30  1  0  0  0
 16 15  1  0  0  0
 34 35  1  0  0  0
 34 36  1  0  0  0
 15 14  1  0  0  0
 31 32  1  0  0  0
 31 33  1  0  0  0
 14 13  1  0  0  0
 37  1  1  0  0  0
 37 39  1  0  0  0
 13 12  1  0  0  0
 38 39  2  0  0  0
 12 11  1  0  0  0
 11 10  1  0  0  0
 10  9  1  0  0  0
  9  8  1  0  0  0
  8  7  1  0  0  0
  7  6  1  0  0  0
  6  5  1  0  0  0
  2  1  1  0  0  0
  1 23  1  0  0  0
 30 32  1  0  0  0
 32 35  1  0  0  0
 39 40  1  0  0  0
 40 41  1  0  0  0
 41 42  1  0  0  0
 42 43  1  0  0  0
 43 44  1  0  0  0
 44 45  1  0  0  0
 45 46  1  0  0  0
 46 47  1  0  0  0
 47 48  2  0  0  0
 48 49  1  0  0  0
 49 50  1  0  0  0
 50 51  1  0  0  0
 51 52  1  0  0  0
 52 53  1  0  0  0
 53 54  1  0  0  0
 54 55  1  0  0  0
 55 56  1  0  0  0
M  CHG 1  26  -1
M  END
> <minimizedAffinity>
-8.33410

> <CNNscore>
0.4336729944

> <CNNaffinity>
7.1624631882

> <CNN_VS>
3.1061668396

> <CNNaffinity_variance>
0.4381626248

$$$$
/media/chris/experiments/cd1a-new-docking/inputs/ligands/7sh4_ligand.pdb


 56 55  0  0  0  0  0  0  0  0999 V2000
  -41.0624   59.9928   65.3985 C   0  0  0  0  0  0  0  0  0  0  0  0
  -42.2020   60.9709   65.3494 C   0  0  0  0  0  0  0  0  0  0  0  0
  -41.9994   61.6812   64.1095 O   0  0  0  0  0  0  0  0  0  0  0  0
  -44.1753   61.8209   63.6145 O   0  0  0  0  0  0  0  0  0  0  0  0
  -43.0298   61.7275   63.2645 C   0  0  0  0  0  0  0  0  0  0  0  0
  -42.5606   61.7744   61.8388 C   0  0  0  0  0  0  0  0  0  0  0  0
  -41.4817   60.7574   61.5068 C   0  0  0  0  0  0  0  0  0  0  0  0
  -41.1243   60.7411   60.0355 C   0  0  0  0  0  0  0  0  0  0  0  0
  -40.3462   59.5200   59.6008 C   0  0  0  0  0  0  0  0  0  0  0  0
  -41.2197   58.2966   59.4103 C   0  0  0  0  0  0  0  0  0  0  0  0
  -40.7632   57.1085   60.2214 C   0  0  0  0  0  0  0  0  0  0  0  0
  -40.9898   57.2835   61.6998 C   0  0  0  0  0  0  0  0  0  0  0  0
  -39.7087   57.3213   62.5032 C   0  0  0  0  0  0  0  0  0  0  0  0
  -38.4719   57.1757   61.6400 C   0  0  0  0  0  0  0  0  0  0  0  0
  -37.2871   57.9902   62.1154 C   0  0  0  0  0  0  0  0  0  0  0  0
  -37.0894   57.9660   63.6268 C   0  0  0  0  0  0  0  0  0  0  0  0
  -35.6361   57.9133   64.0573 C   0  0  0  0  0  0  0  0  0  0  0  0
  -34.6954   57.4837   62.9501 C   0  0  0  0  0  0  0  0  0  0  0  0
  -33.7646   58.5912   62.4762 C   0  0  0  0  0  0  0  0  0  0  0  0
  -32.5806   58.8254   63.3973 C   0  0  0  0  0  0  0  0  0  0  0  0
  -31.8446   60.9853   62.3348 C   0  0  0  0  0  0  0  0  0  0  0  0
  -31.4340   59.5979   62.7732 C   0  0  0  0  0  0  0  0  0  0  0  0
  -39.8695   60.4735   64.6126 C   0  0  0  0  0  0  0  0  0  0  0  0
  -38.9967   61.2117   65.4967 O   0  0  0  0  0  0  0  0  0  0  0  0
  -37.5096   61.6403   65.0886 P   0  0  0  0  0  0  0  0  0  0  0  0
  -36.5666   60.7286   65.7713 O   0  0  0  0  0  0  0  0  0  0  0  0
  -37.4502   61.7508   63.6111 O   0  0  0  0  0  0  0  0  0  0  0  0
  -37.5702   60.8730   63.2161 H   0  0  0  0  0  0  0  0  0  0  0  0
  -37.3088   63.1004   65.6974 O   0  0  0  0  0  0  0  0  0  0  0  0
  -36.1480   63.8780   65.3397 C   0  0  0  0  0  0  0  0  0  0  0  0
  -36.2523   63.9334   67.7331 O   0  0  0  0  0  0  0  0  0  0  0  0
  -35.4457   64.2956   66.6083 C   0  0  0  0  0  0  0  0  0  0  0  0
  -37.1317   64.3325   67.6423 H   0  0  0  0  0  0  0  0  0  0  0  0
  -34.1528   62.2627   66.7276 O   0  0  0  0  0  0  0  0  0  0  0  0
  -34.0717   63.6822   66.7332 C   0  0  0  0  0  0  0  0  0  0  0  0
  -33.2620   61.8876   66.8086 H   0  0  0  0  0  0  0  0  0  0  0  0
  -41.5453   58.6968   64.9116 O   0  0  0  0  0  0  0  0  0  0  0  0
  -42.3133   57.9488   66.8892 O   0  0  0  0  0  0  0  0  0  0  0  0
  -42.4184   58.0365   65.6963 C   0  0  0  0  0  0  0  0  0  0  0  0
  -43.5433   57.4421   64.9067 C   0  0  0  0  0  0  0  0  0  0  0  0
  -44.8998   57.8429   65.4776 C   0  0  0  0  0  0  0  0  0  0  0  0
  -45.3971   59.1950   64.9934 C   0  0  0  0  0  0  0  0  0  0  0  0
  -46.8235   59.1636   64.4567 C   0  0  0  0  0  0  0  0  0  0  0  0
  -47.8339   58.5759   65.4242 C   0  0  0  0  0  0  0  0  0  0  0  0
  -48.6993   59.6114   66.1479 C   0  0  0  0  0  0  0  0  0  0  0  0
  -50.0867   59.8379   65.5433 C   0  0  0  0  0  0  0  0  0  0  0  0
  -50.0271   60.6375   64.2763 C   0  0  0  0  0  0  0  0  0  0  0  0
  -50.4804   60.2725   63.0929 C   0  0  0  0  0  0  0  0  0  0  0  0
  -51.1540   58.9770   62.7668 C   0  0  0  0  0  0  0  0  0  0  0  0
  -50.1648   57.8992   62.3332 C   0  0  0  0  0  0  0  0  0  0  0  0
  -50.1758   57.6273   60.8391 C   0  0  0  0  0  0  0  0  0  0  0  0
  -49.1093   56.6432   60.3904 C   0  0  0  0  0  0  0  0  0  0  0  0
  -48.0571   57.2330   59.4658 C   0  0  0  0  0  0  0  0  0  0  0  0
  -47.8168   56.4026   58.2142 C   0  0  0  0  0  0  0  0  0  0  0  0
  -47.7327   57.2136   56.9363 C   0  0  0  0  0  0  0  0  0  0  0  0
  -46.8768   58.4409   57.0819 C   0  0  0  0  0  0  0  0  0  0  0  0
 21 22  1  0  0  0
  4  5  2  0  0  0
 25 24  1  0  0  0
 25 26  2  0  0  0
 25 27  1  0  0  0
 25 29  1  0  0  0
 22 20  1  0  0  0
  3  5  1  0  0  0
  3  2  1  0  0  0
 20 19  1  0  0  0
 24 23  1  0  0  0
 19 18  1  0  0  0
 18 17  1  0  0  0
 27 28  1  0  0  0
 17 16  1  0  0  0
 29 30  1  0  0  0
 16 15  1  0  0  0
 34 35  1  0  0  0
 34 36  1  0  0  0
 15 14  1  0  0  0
 31 32  1  0  0  0
 31 33  1  0  0  0
 14 13  1  0  0  0
 37  1  1  0  0  0
 37 39  1  0  0  0
 13 12  1  0  0  0
 38 39  2  0  0  0
 12 11  1  0  0  0
 11 10  1  0  0  0
 10  9  1  0  0  0
  9  8  1  0  0  0
  8  7  1  0  0  0
  7  6  1  0  0  0
  6  5  1  0  0  0
  2  1  1  0  0  0
  1 23  1  0  0  0
 30 32  1  0  0  0
 32 35  1  0  0  0
 39 40  1  0  0  0
 40 41  1  0  0  0
 41 42  1  0  0  0
 42 43  1  0  0  0
 43 44  1  0  0  0
 44 45  1  0  0  0
 45 46  1  0  0  0
 46 47  1  0  0  0
 47 48  2  0  0  0
 48 49  1  0  0  0
 49 50  1  0  0  0
 50 51  1  0  0  0
 51 52  1  0  0  0
 52 53  1  0  0  0
 53 54  1  0  0  0
 54 55  1  0  0  0
 55 56  1  0  0  0
M  CHG 1  26  -1
M  END
> <minimizedAffinity>
-8.87373

> <CNNscore>
0.4145414233

> <CNNaffinity>
7.3602724075

> <CNN_VS>
3.0511376858

> <CNNaffinity_variance>
1.6148712635

$$$$
/media/chris/experiments/cd1a-new-docking/inputs/ligands/7sh4_ligand.pdb


 56 55  0  0  0  0  0  0  0  0999 V2000
  -40.9845   60.7509   63.6519 C   0  0  0  0  0  0  0  0  0  0  0  0
  -41.6821   60.3955   62.3694 C   0  0  0  0  0  0  0  0  0  0  0  0
  -40.6415   60.4748   61.3723 O   0  0  0  0  0  0  0  0  0  0  0  0
  -41.0828   61.1643   59.2917 O   0  0  0  0  0  0  0  0  0  0  0  0
  -41.0044   60.2823   60.1038 C   0  0  0  0  0  0  0  0  0  0  0  0
  -41.1748   58.8208   59.8040 C   0  0  0  0  0  0  0  0  0  0  0  0
  -39.9679   58.1785   59.1411 C   0  0  0  0  0  0  0  0  0  0  0  0
  -38.7138   59.0173   59.2681 C   0  0  0  0  0  0  0  0  0  0  0  0
  -37.7078   58.4808   60.2610 C   0  0  0  0  0  0  0  0  0  0  0  0
  -38.3375   57.6195   61.3369 C   0  0  0  0  0  0  0  0  0  0  0  0
  -37.5875   57.6615   62.6460 C   0  0  0  0  0  0  0  0  0  0  0  0
  -36.2069   58.2482   62.5144 C   0  0  0  0  0  0  0  0  0  0  0  0
  -35.1408   57.4385   63.2187 C   0  0  0  0  0  0  0  0  0  0  0  0
  -34.7832   57.9999   64.5800 C   0  0  0  0  0  0  0  0  0  0  0  0
  -33.8461   59.1885   64.5316 C   0  0  0  0  0  0  0  0  0  0  0  0
  -32.4612   58.8594   63.9862 C   0  0  0  0  0  0  0  0  0  0  0  0
  -32.1587   59.5002   62.6453 C   0  0  0  0  0  0  0  0  0  0  0  0
  -32.3653   61.0011   62.6351 C   0  0  0  0  0  0  0  0  0  0  0  0
  -31.2933   61.7594   61.8650 C   0  0  0  0  0  0  0  0  0  0  0  0
  -30.2057   60.8651   61.2972 C   0  0  0  0  0  0  0  0  0  0  0  0
  -28.5540   62.2628   62.5833 C   0  0  0  0  0  0  0  0  0  0  0  0
  -28.9007   60.8836   62.0704 C   0  0  0  0  0  0  0  0  0  0  0  0
  -39.5077   60.4553   63.5938 C   0  0  0  0  0  0  0  0  0  0  0  0
  -38.7788   61.6666   63.8940 O   0  0  0  0  0  0  0  0  0  0  0  0
  -37.3087   61.6600   64.5269 P   0  0  0  0  0  0  0  0  0  0  0  0
  -37.1871   60.4654   65.3900 O   0  0  0  0  0  0  0  0  0  0  0  0
  -36.3318   61.8466   63.4271 O   0  0  0  0  0  0  0  0  0  0  0  0
  -36.3512   61.0728   62.8426 H   0  0  0  0  0  0  0  0  0  0  0  0
  -37.2458   62.9500   65.4622 O   0  0  0  0  0  0  0  0  0  0  0  0
  -36.2246   63.9460   65.2499 C   0  0  0  0  0  0  0  0  0  0  0  0
  -36.3333   64.0699   67.6405 O   0  0  0  0  0  0  0  0  0  0  0  0
  -35.4354   64.0980   66.5271 C   0  0  0  0  0  0  0  0  0  0  0  0
  -37.0061   64.7600   67.5309 H   0  0  0  0  0  0  0  0  0  0  0  0
  -33.9676   62.5432   65.4105 O   0  0  0  0  0  0  0  0  0  0  0  0
  -34.3803   63.0290   66.6814 C   0  0  0  0  0  0  0  0  0  0  0  0
  -33.2909   61.8587   65.5301 H   0  0  0  0  0  0  0  0  0  0  0  0
  -41.6385   60.0295   64.7482 O   0  0  0  0  0  0  0  0  0  0  0  0
  -41.9631   61.7204   66.1959 O   0  0  0  0  0  0  0  0  0  0  0  0
  -42.3770   60.7604   65.6052 C   0  0  0  0  0  0  0  0  0  0  0  0
  -43.7782   60.2448   65.7185 C   0  0  0  0  0  0  0  0  0  0  0  0
  -44.7168   60.9599   64.7519 C   0  0  0  0  0  0  0  0  0  0  0  0
  -46.0740   60.2923   64.6032 C   0  0  0  0  0  0  0  0  0  0  0  0
  -46.8455   60.1808   65.9132 C   0  0  0  0  0  0  0  0  0  0  0  0
  -47.9032   59.0927   65.9156 C   0  0  0  0  0  0  0  0  0  0  0  0
  -49.3365   59.5987   66.1015 C   0  0  0  0  0  0  0  0  0  0  0  0
  -50.3770   58.9625   65.1772 C   0  0  0  0  0  0  0  0  0  0  0  0
  -51.0866   59.9828   64.3385 C   0  0  0  0  0  0  0  0  0  0  0  0
  -50.6652   60.4963   63.1992 C   0  0  0  0  0  0  0  0  0  0  0  0
  -49.3840   60.1643   62.5016 C   0  0  0  0  0  0  0  0  0  0  0  0
  -49.6073   59.3532   61.2286 C   0  0  0  0  0  0  0  0  0  0  0  0
  -49.8596   57.8773   61.4826 C   0  0  0  0  0  0  0  0  0  0  0  0
  -49.7504   57.0165   60.2359 C   0  0  0  0  0  0  0  0  0  0  0  0
  -48.3645   56.4459   59.9841 C   0  0  0  0  0  0  0  0  0  0  0  0
  -47.8566   56.6903   58.5712 C   0  0  0  0  0  0  0  0  0  0  0  0
  -47.7844   58.1531   58.1805 C   0  0  0  0  0  0  0  0  0  0  0  0
  -46.8324   58.4053   57.0448 C   0  0  0  0  0  0  0  0  0  0  0  0
 21 22  1  0  0  0
  4  5  2  0  0  0
 25 24  1  0  0  0
 25 26  2  0  0  0
 25 27  1  0  0  0
 25 29  1  0  0  0
 22 20  1  0  0  0
  3  5  1  0  0  0
  3  2  1  0  0  0
 20 19  1  0  0  0
 24 23  1  0  0  0
 19 18  1  0  0  0
 18 17  1  0  0  0
 27 28  1  0  0  0
 17 16  1  0  0  0
 29 30  1  0  0  0
 16 15  1  0  0  0
 34 35  1  0  0  0
 34 36  1  0  0  0
 15 14  1  0  0  0
 31 32  1  0  0  0
 31 33  1  0  0  0
 14 13  1  0  0  0
 37  1  1  0  0  0
 37 39  1  0  0  0
 13 12  1  0  0  0
 38 39  2  0  0  0
 12 11  1  0  0  0
 11 10  1  0  0  0
 10  9  1  0  0  0
  9  8  1  0  0  0
  8  7  1  0  0  0
  7  6  1  0  0  0
  6  5  1  0  0  0
  2  1  1  0  0  0
  1 23  1  0  0  0
 30 32  1  0  0  0
 32 35  1  0  0  0
 39 40  1  0  0  0
 40 41  1  0  0  0
 41 42  1  0  0  0
 42 43  1  0  0  0
 43 44  1  0  0  0
 44 45  1  0  0  0
 45 46  1  0  0  0
 46 47  1  0  0  0
 47 48  2  0  0  0
 48 49  1  0  0  0
 49 50  1  0  0  0
 50 51  1  0  0  0
 51 52  1  0  0  0
 52 53  1  0  0  0
 53 54  1  0  0  0
 54 55  1  0  0  0
 55 56  1  0  0  0
M  CHG 1  26  -1
M  END
> <minimizedAffinity>
-8.83593

> <CNNscore>
0.3805097938

> <CNNaffinity>
6.9721159935

> <CNN_VS>
2.6529583931

> <CNNaffinity_variance>
0.8966608047

$$$$
/media/chris/experiments/cd1a-new-docking/inputs/ligands/7sh4_ligand.pdb


 56 55  0  0  0  0  0  0  0  0999 V2000
  -42.5917   59.7019   65.4697 C   0  0  0  0  0  0  0  0  0  0  0  0
  -42.8451   58.2213   65.5066 C   0  0  0  0  0  0  0  0  0  0  0  0
  -42.6885   57.8058   64.1333 O   0  0  0  0  0  0  0  0  0  0  0  0
  -42.1396   55.6794   64.5529 O   0  0  0  0  0  0  0  0  0  0  0  0
  -41.9956   56.6877   63.9156 C   0  0  0  0  0  0  0  0  0  0  0  0
  -41.1177   56.8204   62.7045 C   0  0  0  0  0  0  0  0  0  0  0  0
  -41.6421   57.7929   61.6616 C   0  0  0  0  0  0  0  0  0  0  0  0
  -41.4465   57.2950   60.2450 C   0  0  0  0  0  0  0  0  0  0  0  0
  -40.7592   58.2835   59.3306 C   0  0  0  0  0  0  0  0  0  0  0  0
  -40.4416   59.5996   60.0110 C   0  0  0  0  0  0  0  0  0  0  0  0
  -38.9631   59.8971   60.0682 C   0  0  0  0  0  0  0  0  0  0  0  0
  -38.1114   58.6557   60.0319 C   0  0  0  0  0  0  0  0  0  0  0  0
  -37.9796   57.9785   61.3781 C   0  0  0  0  0  0  0  0  0  0  0  0
  -36.8958   58.5944   62.2396 C   0  0  0  0  0  0  0  0  0  0  0  0
  -36.0316   57.5827   62.9627 C   0  0  0  0  0  0  0  0  0  0  0  0
  -35.6992   57.9710   64.3989 C   0  0  0  0  0  0  0  0  0  0  0  0
  -34.8480   59.2206   64.5181 C   0  0  0  0  0  0  0  0  0  0  0  0
  -33.3972   58.9317   64.8457 C   0  0  0  0  0  0  0  0  0  0  0  0
  -32.5786   58.4805   63.6441 C   0  0  0  0  0  0  0  0  0  0  0  0
  -32.7697   59.3530   62.4164 C   0  0  0  0  0  0  0  0  0  0  0  0
  -30.4553   60.3427   62.4243 C   0  0  0  0  0  0  0  0  0  0  0  0
  -31.9408   60.6233   62.4053 C   0  0  0  0  0  0  0  0  0  0  0  0
  -41.5499   60.1231   66.4742 C   0  0  0  0  0  0  0  0  0  0  0  0
  -40.5969   60.9904   65.8200 O   0  0  0  0  0  0  0  0  0  0  0  0
  -39.4340   60.4398   64.8680 P   0  0  0  0  0  0  0  0  0  0  0  0
  -38.8978   59.2002   65.4702 O   0  0  0  0  0  0  0  0  0  0  0  0
  -39.9574   60.3896   63.4816 O   0  0  0  0  0  0  0  0  0  0  0  0
  -40.6585   59.7218   63.4246 H   0  0  0  0  0  0  0  0  0  0  0  0
  -38.2870   61.5464   64.9189 O   0  0  0  0  0  0  0  0  0  0  0  0
  -37.3078   61.5226   65.9775 C   0  0  0  0  0  0  0  0  0  0  0  0
  -36.8857   63.7044   65.0811 O   0  0  0  0  0  0  0  0  0  0  0  0
  -36.2591   62.5658   65.6791 C   0  0  0  0  0  0  0  0  0  0  0  0
  -37.3742   63.4267   64.2905 H   0  0  0  0  0  0  0  0  0  0  0  0
  -36.2918   62.8180   68.0778 O   0  0  0  0  0  0  0  0  0  0  0  0
  -35.4934   62.9803   66.9126 C   0  0  0  0  0  0  0  0  0  0  0  0
  -35.7837   63.0888   68.8583 H   0  0  0  0  0  0  0  0  0  0  0  0
  -43.8658   60.3938   65.6882 O   0  0  0  0  0  0  0  0  0  0  0  0
  -43.8634   61.5302   63.7468 O   0  0  0  0  0  0  0  0  0  0  0  0
  -44.4566   60.9407   64.6084 C   0  0  0  0  0  0  0  0  0  0  0  0
  -45.9361   60.7100   64.6019 C   0  0  0  0  0  0  0  0  0  0  0  0
  -46.2707   59.2257   64.7104 C   0  0  0  0  0  0  0  0  0  0  0  0
  -47.4480   58.9245   65.6231 C   0  0  0  0  0  0  0  0  0  0  0  0
  -48.4751   57.9839   65.0033 C   0  0  0  0  0  0  0  0  0  0  0  0
  -49.9089   58.2937   65.3916 C   0  0  0  0  0  0  0  0  0  0  0  0
  -50.1841   59.7714   65.6841 C   0  0  0  0  0  0  0  0  0  0  0  0
  -50.4715   60.6364   64.4549 C   0  0  0  0  0  0  0  0  0  0  0  0
  -51.2975   59.9117   63.4349 C   0  0  0  0  0  0  0  0  0  0  0  0
  -50.8985   59.4992   62.2475 C   0  0  0  0  0  0  0  0  0  0  0  0
  -49.5294   59.6684   61.6685 C   0  0  0  0  0  0  0  0  0  0  0  0
  -49.4894   59.3725   60.1721 C   0  0  0  0  0  0  0  0  0  0  0  0
  -50.1110   58.0384   59.7977 C   0  0  0  0  0  0  0  0  0  0  0  0
  -49.4871   56.8527   60.5132 C   0  0  0  0  0  0  0  0  0  0  0  0
  -48.4083   56.1346   59.7192 C   0  0  0  0  0  0  0  0  0  0  0  0
  -48.2707   56.6391   58.2908 C   0  0  0  0  0  0  0  0  0  0  0  0
  -46.9501   57.3231   57.9972 C   0  0  0  0  0  0  0  0  0  0  0  0
  -47.1159   58.5954   57.2139 C   0  0  0  0  0  0  0  0  0  0  0  0
 21 22  1  0  0  0
  4  5  2  0  0  0
 25 24  1  0  0  0
 25 26  2  0  0  0
 25 27  1  0  0  0
 25 29  1  0  0  0
 22 20  1  0  0  0
  3  5  1  0  0  0
  3  2  1  0  0  0
 20 19  1  0  0  0
 24 23  1  0  0  0
 19 18  1  0  0  0
 18 17  1  0  0  0
 27 28  1  0  0  0
 17 16  1  0  0  0
 29 30  1  0  0  0
 16 15  1  0  0  0
 34 35  1  0  0  0
 34 36  1  0  0  0
 15 14  1  0  0  0
 31 32  1  0  0  0
 31 33  1  0  0  0
 14 13  1  0  0  0
 37  1  1  0  0  0
 37 39  1  0  0  0
 13 12  1  0  0  0
 38 39  2  0  0  0
 12 11  1  0  0  0
 11 10  1  0  0  0
 10  9  1  0  0  0
  9  8  1  0  0  0
  8  7  1  0  0  0
  7  6  1  0  0  0
  6  5  1  0  0  0
  2  1  1  0  0  0
  1 23  1  0  0  0
 30 32  1  0  0  0
 32 35  1  0  0  0
 39 40  1  0  0  0
 40 41  1  0  0  0
 41 42  1  0  0  0
 42 43  1  0  0  0
 43 44  1  0  0  0
 44 45  1  0  0  0
 45 46  1  0  0  0
 46 47  1  0  0  0
 47 48  2  0  0  0
 48 49  1  0  0  0
 49 50  1  0  0  0
 50 51  1  0  0  0
 51 52  1  0  0  0
 52 53  1  0  0  0
 53 54  1  0  0  0
 54 55  1  0  0  0
 55 56  1  0  0  0
M  CHG 1  26  -1
M  END
> <minimizedAffinity>
-8.77383

> <CNNscore>
0.3645629585

> <CNNaffinity>
7.3191709518

> <CNN_VS>
2.6682987213

> <CNNaffinity_variance>
1.6995576620

$$$$
