/media/chris/experiments/cd1a-new-docking/inputs/ligands/7sh4_ligand.pdb


 56 55  0  0  0  0  0  0  0  0999 V2000
  -40.3644   58.3831   62.2311 C   0  0  0  0  0  0  0  0  0  0  0  0
  -41.6032   57.5401   62.3428 C   0  0  0  0  0  0  0  0  0  0  0  0
  -42.1134   57.8418   63.6588 O   0  0  0  0  0  0  0  0  0  0  0  0
  -41.7788   55.7346   64.3278 O   0  0  0  0  0  0  0  0  0  0  0  0
  -42.2793   56.8144   64.4925 C   0  0  0  0  0  0  0  0  0  0  0  0
  -43.0594   57.2231   65.7087 C   0  0  0  0  0  0  0  0  0  0  0  0
  -44.4848   57.6589   65.4141 C   0  0  0  0  0  0  0  0  0  0  0  0
  -45.3152   57.8343   66.6680 C   0  0  0  0  0  0  0  0  0  0  0  0
  -46.6593   58.4858   66.4347 C   0  0  0  0  0  0  0  0  0  0  0  0
  -46.6748   59.3971   65.2242 C   0  0  0  0  0  0  0  0  0  0  0  0
  -47.9359   60.2190   65.1156 C   0  0  0  0  0  0  0  0  0  0  0  0
  -48.9017   59.9664   66.2431 C   0  0  0  0  0  0  0  0  0  0  0  0
  -50.2953   59.6139   65.7721 C   0  0  0  0  0  0  0  0  0  0  0  0
  -50.2911   58.6870   64.5733 C   0  0  0  0  0  0  0  0  0  0  0  0
  -51.0063   59.2429   63.3598 C   0  0  0  0  0  0  0  0  0  0  0  0
  -50.6884   58.5035   62.0651 C   0  0  0  0  0  0  0  0  0  0  0  0
  -49.3381   58.8550   61.4705 C   0  0  0  0  0  0  0  0  0  0  0  0
  -49.4162   59.3146   60.0289 C   0  0  0  0  0  0  0  0  0  0  0  0
  -49.1874   58.1984   59.0193 C   0  0  0  0  0  0  0  0  0  0  0  0
  -47.9969   57.3156   59.3487 C   0  0  0  0  0  0  0  0  0  0  0  0
  -47.0638   58.2735   57.2163 C   0  0  0  0  0  0  0  0  0  0  0  0
  -47.0036   57.1407   58.2158 C   0  0  0  0  0  0  0  0  0  0  0  0
  -40.6148   59.8137   62.6341 C   0  0  0  0  0  0  0  0  0  0  0  0
  -39.4054   60.3523   63.2133 O   0  0  0  0  0  0  0  0  0  0  0  0
  -39.0777   60.2617   64.7773 P   0  0  0  0  0  0  0  0  0  0  0  0
  -39.0956   58.8353   65.1670 O   0  0  0  0  0  0  0  0  0  0  0  0
  -37.8534   61.0562   65.0392 O   0  0  0  0  0  0  0  0  0  0  0  0
  -37.0954   60.6351   64.6044 H   0  0  0  0  0  0  0  0  0  0  0  0
  -40.2969   60.9855   65.5071 O   0  0  0  0  0  0  0  0  0  0  0  0
  -41.2170   60.2169   66.3087 C   0  0  0  0  0  0  0  0  0  0  0  0
  -42.3169   62.2514   66.9356 O   0  0  0  0  0  0  0  0  0  0  0  0
  -42.5310   60.9567   66.3658 C   0  0  0  0  0  0  0  0  0  0  0  0
  -41.9016   62.1566   67.8071 H   0  0  0  0  0  0  0  0  0  0  0  0
  -42.6516   62.2043   64.3049 O   0  0  0  0  0  0  0  0  0  0  0  0
  -43.1775   61.0856   65.0074 C   0  0  0  0  0  0  0  0  0  0  0  0
  -43.0783   62.2704   63.4363 H   0  0  0  0  0  0  0  0  0  0  0  0
  -39.8635   58.2873   60.8564 O   0  0  0  0  0  0  0  0  0  0  0  0
  -37.9395   58.5854   59.7296 O   0  0  0  0  0  0  0  0  0  0  0  0
  -38.5294   58.1907   60.6981 C   0  0  0  0  0  0  0  0  0  0  0  0
  -37.8696   57.5503   61.8799 C   0  0  0  0  0  0  0  0  0  0  0  0
  -36.5280   58.2048   62.1937 C   0  0  0  0  0  0  0  0  0  0  0  0
  -36.0208   57.9275   63.5993 C   0  0  0  0  0  0  0  0  0  0  0  0
  -35.1112   59.0218   64.1462 C   0  0  0  0  0  0  0  0  0  0  0  0
  -33.7181   58.5420   64.5086 C   0  0  0  0  0  0  0  0  0  0  0  0
  -32.6937   58.6467   63.3752 C   0  0  0  0  0  0  0  0  0  0  0  0
  -32.1252   60.0476   63.1382 C   0  0  0  0  0  0  0  0  0  0  0  0
  -31.5057   60.1833   61.7796 C   0  0  0  0  0  0  0  0  0  0  0  0
  -31.1181   61.3024   61.1991 C   0  0  0  0  0  0  0  0  0  0  0  0
  -31.2152   62.6776   61.7801 C   0  0  0  0  0  0  0  0  0  0  0  0
  -32.5534   63.3450   61.4763 C   0  0  0  0  0  0  0  0  0  0  0  0
  -33.2418   63.9170   62.7032 C   0  0  0  0  0  0  0  0  0  0  0  0
  -34.2414   62.9671   63.3400 C   0  0  0  0  0  0  0  0  0  0  0  0
  -34.0877   62.8063   64.8434 C   0  0  0  0  0  0  0  0  0  0  0  0
  -34.0209   64.1297   65.5903 C   0  0  0  0  0  0  0  0  0  0  0  0
  -35.0569   64.2781   66.6867 C   0  0  0  0  0  0  0  0  0  0  0  0
  -35.7270   62.9779   67.0334 C   0  0  0  0  0  0  0  0  0  0  0  0
 21 22  1  0  0  0
  4  5  2  0  0  0
 25 24  1  0  0  0
 25 26  2  0  0  0
 25 27  1  0  0  0
 25 29  1  0  0  0
 22 20  1  0  0  0
  3  5  1  0  0  0
  3  2  1  0  0  0
 20 19  1  0  0  0
 24 23  1  0  0  0
 19 18  1  0  0  0
 18 17  1  0  0  0
 27 28  1  0  0  0
 17 16  1  0  0  0
 29 30  1  0  0  0
 16 15  1  0  0  0
 34 35  1  0  0  0
 34 36  1  0  0  0
 15 14  1  0  0  0
 31 32  1  0  0  0
 31 33  1  0  0  0
 14 13  1  0  0  0
 37  1  1  0  0  0
 37 39  1  0  0  0
 13 12  1  0  0  0
 38 39  2  0  0  0
 12 11  1  0  0  0
 11 10  1  0  0  0
 10  9  1  0  0  0
  9  8  1  0  0  0
  8  7  1  0  0  0
  7  6  1  0  0  0
  6  5  1  0  0  0
  2  1  1  0  0  0
  1 23  1  0  0  0
 30 32  1  0  0  0
 32 35  1  0  0  0
 39 40  1  0  0  0
 40 41  1  0  0  0
 41 42  1  0  0  0
 42 43  1  0  0  0
 43 44  1  0  0  0
 44 45  1  0  0  0
 45 46  1  0  0  0
 46 47  1  0  0  0
 47 48  2  0  0  0
 48 49  1  0  0  0
 49 50  1  0  0  0
 50 51  1  0  0  0
 51 52  1  0  0  0
 52 53  1  0  0  0
 53 54  1  0  0  0
 54 55  1  0  0  0
 55 56  1  0  0  0
M  CHG 1  26  -1
M  END
> <minimizedAffinity>
-8.04439

> <CNNscore>
0.4009464383

> <CNNaffinity>
6.9930496216

> <CNN_VS>
2.8038382530

> <CNNaffinity_variance>
1.2371022701

$$$$
/media/chris/experiments/cd1a-new-docking/inputs/ligands/7sh4_ligand.pdb


 56 55  0  0  0  0  0  0  0  0999 V2000
  -40.3228   60.2797   64.9638 C   0  0  0  0  0  0  0  0  0  0  0  0
  -40.8264   60.7539   63.6299 C   0  0  0  0  0  0  0  0  0  0  0  0
  -41.8985   61.6607   63.9637 O   0  0  0  0  0  0  0  0  0  0  0  0
  -42.7425   61.8956   61.9065 O   0  0  0  0  0  0  0  0  0  0  0  0
  -42.9007   61.7589   63.0897 C   0  0  0  0  0  0  0  0  0  0  0  0
  -44.2280   61.5512   63.7605 C   0  0  0  0  0  0  0  0  0  0  0  0
  -44.1460   60.8025   65.0800 C   0  0  0  0  0  0  0  0  0  0  0  0
  -45.5051   60.3941   65.6078 C   0  0  0  0  0  0  0  0  0  0  0  0
  -46.3487   59.6247   64.6168 C   0  0  0  0  0  0  0  0  0  0  0  0
  -47.8258   59.6444   64.9537 C   0  0  0  0  0  0  0  0  0  0  0  0
  -48.4433   58.2680   64.9982 C   0  0  0  0  0  0  0  0  0  0  0  0
  -49.9464   58.2943   64.9089 C   0  0  0  0  0  0  0  0  0  0  0  0
  -50.5416   59.6533   65.2039 C   0  0  0  0  0  0  0  0  0  0  0  0
  -51.2942   60.2316   64.0226 C   0  0  0  0  0  0  0  0  0  0  0  0
  -51.0029   59.5418   62.7065 C   0  0  0  0  0  0  0  0  0  0  0  0
  -49.9606   60.2566   61.8539 C   0  0  0  0  0  0  0  0  0  0  0  0
  -49.4444   59.4309   60.6911 C   0  0  0  0  0  0  0  0  0  0  0  0
  -50.1681   58.1107   60.5219 C   0  0  0  0  0  0  0  0  0  0  0  0
  -49.2350   56.9128   60.4128 C   0  0  0  0  0  0  0  0  0  0  0  0
  -48.0514   57.1464   59.4909 C   0  0  0  0  0  0  0  0  0  0  0  0
  -47.4156   56.1334   57.2762 C   0  0  0  0  0  0  0  0  0  0  0  0
  -48.3700   57.0469   58.0112 C   0  0  0  0  0  0  0  0  0  0  0  0
  -38.9150   60.7447   65.2353 C   0  0  0  0  0  0  0  0  0  0  0  0
  -38.4218   61.4406   64.0687 O   0  0  0  0  0  0  0  0  0  0  0  0
  -37.0083   62.1909   64.0395 P   0  0  0  0  0  0  0  0  0  0  0  0
  -36.0220   61.2852   63.4122 O   0  0  0  0  0  0  0  0  0  0  0  0
  -37.2126   63.5374   63.4530 O   0  0  0  0  0  0  0  0  0  0  0  0
  -37.4634   63.4492   62.5202 H   0  0  0  0  0  0  0  0  0  0  0  0
  -36.5985   62.3798   65.5689 O   0  0  0  0  0  0  0  0  0  0  0  0
  -35.2300   62.6718   65.9184 C   0  0  0  0  0  0  0  0  0  0  0  0
  -36.1248   64.3041   67.4274 O   0  0  0  0  0  0  0  0  0  0  0  0
  -35.1555   64.1017   66.3948 C   0  0  0  0  0  0  0  0  0  0  0  0
  -37.0046   64.0643   67.0967 H   0  0  0  0  0  0  0  0  0  0  0  0
  -33.2562   63.4466   67.7296 O   0  0  0  0  0  0  0  0  0  0  0  0
  -33.7787   64.4706   66.8929 C   0  0  0  0  0  0  0  0  0  0  0  0
  -32.3728   63.7013   68.0391 H   0  0  0  0  0  0  0  0  0  0  0  0
  -40.4274   58.8177   65.0035 O   0  0  0  0  0  0  0  0  0  0  0  0
  -42.0231   58.4090   66.5355 O   0  0  0  0  0  0  0  0  0  0  0  0
  -41.6003   58.3006   65.4169 C   0  0  0  0  0  0  0  0  0  0  0  0
  -42.3207   57.5917   64.3121 C   0  0  0  0  0  0  0  0  0  0  0  0
  -41.6683   56.2512   63.9893 C   0  0  0  0  0  0  0  0  0  0  0  0
  -41.2063   56.1220   62.5471 C   0  0  0  0  0  0  0  0  0  0  0  0
  -41.5791   57.3176   61.6780 C   0  0  0  0  0  0  0  0  0  0  0  0
  -41.2877   57.1219   60.2018 C   0  0  0  0  0  0  0  0  0  0  0  0
  -41.1701   58.4203   59.3985 C   0  0  0  0  0  0  0  0  0  0  0  0
  -40.2555   59.4841   60.0097 C   0  0  0  0  0  0  0  0  0  0  0  0
  -38.8552   59.3963   59.4812 C   0  0  0  0  0  0  0  0  0  0  0  0
  -37.8704   58.6725   59.9768 C   0  0  0  0  0  0  0  0  0  0  0  0
  -37.9468   57.7815   61.1763 C   0  0  0  0  0  0  0  0  0  0  0  0
  -37.5721   58.5070   62.4654 C   0  0  0  0  0  0  0  0  0  0  0  0
  -37.6291   57.6246   63.7000 C   0  0  0  0  0  0  0  0  0  0  0  0
  -36.6176   58.0037   64.7679 C   0  0  0  0  0  0  0  0  0  0  0  0
  -35.1925   57.5695   64.4678 C   0  0  0  0  0  0  0  0  0  0  0  0
  -34.1529   58.6261   64.8092 C   0  0  0  0  0  0  0  0  0  0  0  0
  -33.3561   59.1222   63.6189 C   0  0  0  0  0  0  0  0  0  0  0  0
  -33.7226   58.4209   62.3408 C   0  0  0  0  0  0  0  0  0  0  0  0
 21 22  1  0  0  0
  4  5  2  0  0  0
 25 24  1  0  0  0
 25 26  2  0  0  0
 25 27  1  0  0  0
 25 29  1  0  0  0
 22 20  1  0  0  0
  3  5  1  0  0  0
  3  2  1  0  0  0
 20 19  1  0  0  0
 24 23  1  0  0  0
 19 18  1  0  0  0
 18 17  1  0  0  0
 27 28  1  0  0  0
 17 16  1  0  0  0
 29 30  1  0  0  0
 16 15  1  0  0  0
 34 35  1  0  0  0
 34 36  1  0  0  0
 15 14  1  0  0  0
 31 32  1  0  0  0
 31 33  1  0  0  0
 14 13  1  0  0  0
 37  1  1  0  0  0
 37 39  1  0  0  0
 13 12  1  0  0  0
 38 39  2  0  0  0
 12 11  1  0  0  0
 11 10  1  0  0  0
 10  9  1  0  0  0
  9  8  1  0  0  0
  8  7  1  0  0  0
  7  6  1  0  0  0
  6  5  1  0  0  0
  2  1  1  0  0  0
  1 23  1  0  0  0
 30 32  1  0  0  0
 32 35  1  0  0  0
 39 40  1  0  0  0
 40 41  1  0  0  0
 41 42  1  0  0  0
 42 43  1  0  0  0
 43 44  1  0  0  0
 44 45  1  0  0  0
 45 46  1  0  0  0
 46 47  1  0  0  0
 47 48  2  0  0  0
 48 49  1  0  0  0
 49 50  1  0  0  0
 50 51  1  0  0  0
 51 52  1  0  0  0
 52 53  1  0  0  0
 53 54  1  0  0  0
 54 55  1  0  0  0
 55 56  1  0  0  0
M  CHG 1  26  -1
M  END
> <minimizedAffinity>
-8.85063

> <CNNscore>
0.3391078115

> <CNNaffinity>
7.4592733383

> <CNN_VS>
2.5294978619

> <CNNaffinity_variance>
1.6384322643

$$$$
/media/chris/experiments/cd1a-new-docking/inputs/ligands/7sh4_ligand.pdb


 56 55  0  0  0  0  0  0  0  0999 V2000
  -41.0987   57.0466   63.9586 C   0  0  0  0  0  0  0  0  0  0  0  0
  -41.9669   56.8452   65.1683 C   0  0  0  0  0  0  0  0  0  0  0  0
  -43.3116   56.9177   64.6490 O   0  0  0  0  0  0  0  0  0  0  0  0
  -44.4882   57.9655   66.2356 O   0  0  0  0  0  0  0  0  0  0  0  0
  -44.0832   57.9044   65.1061 C   0  0  0  0  0  0  0  0  0  0  0  0
  -44.2674   58.9741   64.0685 C   0  0  0  0  0  0  0  0  0  0  0  0
  -44.4986   60.3619   64.6422 C   0  0  0  0  0  0  0  0  0  0  0  0
  -45.9119   60.8590   64.4227 C   0  0  0  0  0  0  0  0  0  0  0  0
  -46.9424   60.2114   65.3195 C   0  0  0  0  0  0  0  0  0  0  0  0
  -47.8487   59.2468   64.5819 C   0  0  0  0  0  0  0  0  0  0  0  0
  -48.6559   58.3667   65.5045 C   0  0  0  0  0  0  0  0  0  0  0  0
  -50.1361   58.4331   65.2352 C   0  0  0  0  0  0  0  0  0  0  0  0
  -50.7082   59.8272   65.3665 C   0  0  0  0  0  0  0  0  0  0  0  0
  -51.0703   60.4397   64.0286 C   0  0  0  0  0  0  0  0  0  0  0  0
  -51.3648   59.4250   62.9438 C   0  0  0  0  0  0  0  0  0  0  0  0
  -50.2592   59.2990   61.9017 C   0  0  0  0  0  0  0  0  0  0  0  0
  -50.1844   57.9340   61.2448 C   0  0  0  0  0  0  0  0  0  0  0  0
  -50.1726   57.9941   59.7310 C   0  0  0  0  0  0  0  0  0  0  0  0
  -48.8145   58.3545   59.1452 C   0  0  0  0  0  0  0  0  0  0  0  0
  -47.8755   57.1687   59.0133 C   0  0  0  0  0  0  0  0  0  0  0  0
  -47.1730   58.2084   56.8313 C   0  0  0  0  0  0  0  0  0  0  0  0
  -46.7557   57.3545   58.0071 C   0  0  0  0  0  0  0  0  0  0  0  0
  -40.5989   58.4644   63.8501 C   0  0  0  0  0  0  0  0  0  0  0  0
  -40.3890   58.9867   65.1812 O   0  0  0  0  0  0  0  0  0  0  0  0
  -40.7466   60.4928   65.5882 P   0  0  0  0  0  0  0  0  0  0  0  0
  -41.2371   61.1896   64.3796 O   0  0  0  0  0  0  0  0  0  0  0  0
  -41.6155   60.4525   66.7891 O   0  0  0  0  0  0  0  0  0  0  0  0
  -42.4679   60.0513   66.5582 H   0  0  0  0  0  0  0  0  0  0  0  0
  -39.3595   61.1574   66.0092 O   0  0  0  0  0  0  0  0  0  0  0  0
  -38.1179   60.5977   65.5347 C   0  0  0  0  0  0  0  0  0  0  0  0
  -38.4330   62.1293   63.7189 O   0  0  0  0  0  0  0  0  0  0  0  0
  -37.4583   61.6056   64.6258 C   0  0  0  0  0  0  0  0  0  0  0  0
  -38.8468   61.3995   63.2321 H   0  0  0  0  0  0  0  0  0  0  0  0
  -36.3925   63.7665   64.5114 O   0  0  0  0  0  0  0  0  0  0  0  0
  -36.8034   62.7292   65.3929 C   0  0  0  0  0  0  0  0  0  0  0  0
  -35.9749   64.4779   65.0217 H   0  0  0  0  0  0  0  0  0  0  0  0
  -41.8619   56.6491   62.7714 O   0  0  0  0  0  0  0  0  0  0  0  0
  -40.8477   54.7091   62.2536 O   0  0  0  0  0  0  0  0  0  0  0  0
  -41.2691   55.7846   61.9257 C   0  0  0  0  0  0  0  0  0  0  0  0
  -41.2154   56.3165   60.5270 C   0  0  0  0  0  0  0  0  0  0  0  0
  -41.5409   57.8061   60.4827 C   0  0  0  0  0  0  0  0  0  0  0  0
  -40.6128   58.6134   59.5900 C   0  0  0  0  0  0  0  0  0  0  0  0
  -40.1608   59.9296   60.2121 C   0  0  0  0  0  0  0  0  0  0  0  0
  -38.8069   59.8570   60.8935 C   0  0  0  0  0  0  0  0  0  0  0  0
  -37.8637   58.7936   60.3240 C   0  0  0  0  0  0  0  0  0  0  0  0
  -36.9300   58.1376   61.3437 C   0  0  0  0  0  0  0  0  0  0  0  0
  -37.5840   57.9699   62.6824 C   0  0  0  0  0  0  0  0  0  0  0  0
  -36.9788   57.7374   63.8308 C   0  0  0  0  0  0  0  0  0  0  0  0
  -35.5041   57.5933   64.0381 C   0  0  0  0  0  0  0  0  0  0  0  0
  -34.8315   58.9201   64.3783 C   0  0  0  0  0  0  0  0  0  0  0  0
  -33.3780   58.7776   64.7944 C   0  0  0  0  0  0  0  0  0  0  0  0
  -32.4232   58.6046   63.6258 C   0  0  0  0  0  0  0  0  0  0  0  0
  -32.6810   59.5422   62.4579 C   0  0  0  0  0  0  0  0  0  0  0  0
  -31.5461   60.5235   62.2071 C   0  0  0  0  0  0  0  0  0  0  0  0
  -31.9217   61.9765   62.4199 C   0  0  0  0  0  0  0  0  0  0  0  0
  -33.1923   62.1395   63.2065 C   0  0  0  0  0  0  0  0  0  0  0  0
 21 22  1  0  0  0
  4  5  2  0  0  0
 25 24  1  0  0  0
 25 26  2  0  0  0
 25 27  1  0  0  0
 25 29  1  0  0  0
 22 20  1  0  0  0
  3  5  1  0  0  0
  3  2  1  0  0  0
 20 19  1  0  0  0
 24 23  1  0  0  0
 19 18  1  0  0  0
 18 17  1  0  0  0
 27 28  1  0  0  0
 17 16  1  0  0  0
 29 30  1  0  0  0
 16 15  1  0  0  0
 34 35  1  0  0  0
 34 36  1  0  0  0
 15 14  1  0  0  0
 31 32  1  0  0  0
 31 33  1  0  0  0
 14 13  1  0  0  0
 37  1  1  0  0  0
 37 39  1  0  0  0
 13 12  1  0  0  0
 38 39  2  0  0  0
 12 11  1  0  0  0
 11 10  1  0  0  0
 10  9  1  0  0  0
  9  8  1  0  0  0
  8  7  1  0  0  0
  7  6  1  0  0  0
  6  5  1  0  0  0
  2  1  1  0  0  0
  1 23  1  0  0  0
 30 32  1  0  0  0
 32 35  1  0  0  0
 39 40  1  0  0  0
 40 41  1  0  0  0
 41 42  1  0  0  0
 42 43  1  0  0  0
 43 44  1  0  0  0
 44 45  1  0  0  0
 45 46  1  0  0  0
 46 47  1  0  0  0
 47 48  2  0  0  0
 48 49  1  0  0  0
 49 50  1  0  0  0
 50 51  1  0  0  0
 51 52  1  0  0  0
 52 53  1  0  0  0
 53 54  1  0  0  0
 54 55  1  0  0  0
 55 56  1  0  0  0
M  CHG 1  26  -1
M  END
> <minimizedAffinity>
-8.50180

> <CNNscore>
0.2781541646

> <CNNaffinity>
7.2381324768

> <CNN_VS>
2.0133166313

> <CNNaffinity_variance>
1.6198112965

$$$$
/media/chris/experiments/cd1a-new-docking/inputs/ligands/7sh4_ligand.pdb


 56 55  0  0  0  0  0  0  0  0999 V2000
  -38.2057   60.8055   64.9066 C   0  0  0  0  0  0  0  0  0  0  0  0
  -39.1185   60.2259   65.9499 C   0  0  0  0  0  0  0  0  0  0  0  0
  -40.2473   61.1252   65.9647 O   0  0  0  0  0  0  0  0  0  0  0  0
  -42.2372   61.1524   66.9842 O   0  0  0  0  0  0  0  0  0  0  0  0
  -41.4321   60.6022   66.2822 C   0  0  0  0  0  0  0  0  0  0  0  0
  -41.6688   59.3117   65.5519 C   0  0  0  0  0  0  0  0  0  0  0  0
  -42.4777   58.2934   66.3376 C   0  0  0  0  0  0  0  0  0  0  0  0
  -43.3559   57.4338   65.4530 C   0  0  0  0  0  0  0  0  0  0  0  0
  -44.5977   58.1321   64.9472 C   0  0  0  0  0  0  0  0  0  0  0  0
  -45.5470   58.5331   66.0581 C   0  0  0  0  0  0  0  0  0  0  0  0
  -46.1083   59.9235   65.8868 C   0  0  0  0  0  0  0  0  0  0  0  0
  -46.4394   60.2520   64.4549 C   0  0  0  0  0  0  0  0  0  0  0  0
  -47.7211   59.6096   63.9725 C   0  0  0  0  0  0  0  0  0  0  0  0
  -48.8917   59.8714   64.8986 C   0  0  0  0  0  0  0  0  0  0  0  0
  -50.2061   59.2998   64.4100 C   0  0  0  0  0  0  0  0  0  0  0  0
  -50.0514   58.2378   63.3272 C   0  0  0  0  0  0  0  0  0  0  0  0
  -50.9418   58.4557   62.1189 C   0  0  0  0  0  0  0  0  0  0  0  0
  -50.4403   57.7622   60.8686 C   0  0  0  0  0  0  0  0  0  0  0  0
  -49.9007   58.7192   59.8148 C   0  0  0  0  0  0  0  0  0  0  0  0
  -48.5295   58.3337   59.2891 C   0  0  0  0  0  0  0  0  0  0  0  0
  -47.3141   56.2893   58.4650 C   0  0  0  0  0  0  0  0  0  0  0  0
  -48.1118   56.9071   59.5910 C   0  0  0  0  0  0  0  0  0  0  0  0
  -37.1400   61.6832   65.5113 C   0  0  0  0  0  0  0  0  0  0  0  0
  -37.1796   62.9752   64.8652 O   0  0  0  0  0  0  0  0  0  0  0  0
  -36.0872   63.4425   63.7927 P   0  0  0  0  0  0  0  0  0  0  0  0
  -35.4100   62.2350   63.2730 O   0  0  0  0  0  0  0  0  0  0  0  0
  -36.7466   64.3587   62.8313 O   0  0  0  0  0  0  0  0  0  0  0  0
  -37.4038   63.8668   62.3145 H   0  0  0  0  0  0  0  0  0  0  0  0
  -35.0175   64.2877   64.6200 O   0  0  0  0  0  0  0  0  0  0  0  0
  -34.0050   63.6111   65.3928 C   0  0  0  0  0  0  0  0  0  0  0  0
  -33.3509   63.3913   67.6875 O   0  0  0  0  0  0  0  0  0  0  0  0
  -33.8775   64.3091   66.7246 C   0  0  0  0  0  0  0  0  0  0  0  0
  -33.9176   62.6052   67.7287 H   0  0  0  0  0  0  0  0  0  0  0  0
  -32.5058   65.7191   65.3287 O   0  0  0  0  0  0  0  0  0  0  0  0
  -33.0066   65.5401   66.6474 C   0  0  0  0  0  0  0  0  0  0  0  0
  -31.9496   66.5134   65.2992 H   0  0  0  0  0  0  0  0  0  0  0  0
  -39.0227   61.5376   63.9338 O   0  0  0  0  0  0  0  0  0  0  0  0
  -38.2018   61.1753   61.8710 O   0  0  0  0  0  0  0  0  0  0  0  0
  -39.0756   61.0399   62.6834 C   0  0  0  0  0  0  0  0  0  0  0  0
  -40.3436   60.2835   62.4344 C   0  0  0  0  0  0  0  0  0  0  0  0
  -41.1805   60.9400   61.3412 C   0  0  0  0  0  0  0  0  0  0  0  0
  -40.9506   60.3585   59.9559 C   0  0  0  0  0  0  0  0  0  0  0  0
  -41.2418   58.8649   59.8656 C   0  0  0  0  0  0  0  0  0  0  0  0
  -40.1319   58.0580   59.2181 C   0  0  0  0  0  0  0  0  0  0  0  0
  -38.8048   58.8070   59.0674 C   0  0  0  0  0  0  0  0  0  0  0  0
  -37.7400   58.4625   60.1112 C   0  0  0  0  0  0  0  0  0  0  0  0
  -38.2958   57.6397   61.2346 C   0  0  0  0  0  0  0  0  0  0  0  0
  -37.7528   57.4609   62.4231 C   0  0  0  0  0  0  0  0  0  0  0  0
  -36.4619   58.0471   62.9010 C   0  0  0  0  0  0  0  0  0  0  0  0
  -36.2811   57.9054   64.4095 C   0  0  0  0  0  0  0  0  0  0  0  0
  -34.8414   57.6700   64.8314 C   0  0  0  0  0  0  0  0  0  0  0  0
  -33.9796   58.9199   64.7833 C   0  0  0  0  0  0  0  0  0  0  0  0
  -32.6034   58.7128   64.1730 C   0  0  0  0  0  0  0  0  0  0  0  0
  -32.4437   59.3598   62.8056 C   0  0  0  0  0  0  0  0  0  0  0  0
  -31.0608   59.9213   62.5408 C   0  0  0  0  0  0  0  0  0  0  0  0
  -31.0679   61.0290   61.5246 C   0  0  0  0  0  0  0  0  0  0  0  0
 21 22  1  0  0  0
  4  5  2  0  0  0
 25 24  1  0  0  0
 25 26  2  0  0  0
 25 27  1  0  0  0
 25 29  1  0  0  0
 22 20  1  0  0  0
  3  5  1  0  0  0
  3  2  1  0  0  0
 20 19  1  0  0  0
 24 23  1  0  0  0
 19 18  1  0  0  0
 18 17  1  0  0  0
 27 28  1  0  0  0
 17 16  1  0  0  0
 29 30  1  0  0  0
 16 15  1  0  0  0
 34 35  1  0  0  0
 34 36  1  0  0  0
 15 14  1  0  0  0
 31 32  1  0  0  0
 31 33  1  0  0  0
 14 13  1  0  0  0
 37  1  1  0  0  0
 37 39  1  0  0  0
 13 12  1  0  0  0
 38 39  2  0  0  0
 12 11  1  0  0  0
 11 10  1  0  0  0
 10  9  1  0  0  0
  9  8  1  0  0  0
  8  7  1  0  0  0
  7  6  1  0  0  0
  6  5  1  0  0  0
  2  1  1  0  0  0
  1 23  1  0  0  0
 30 32  1  0  0  0
 32 35  1  0  0  0
 39 40  1  0  0  0
 40 41  1  0  0  0
 41 42  1  0  0  0
 42 43  1  0  0  0
 43 44  1  0  0  0
 44 45  1  0  0  0
 45 46  1  0  0  0
 46 47  1  0  0  0
 47 48  2  0  0  0
 48 49  1  0  0  0
 49 50  1  0  0  0
 50 51  1  0  0  0
 51 52  1  0  0  0
 52 53  1  0  0  0
 53 54  1  0  0  0
 54 55  1  0  0  0
 55 56  1  0  0  0
M  CHG 1  26  -1
M  END
> <minimizedAffinity>
-8.57162

> <CNNscore>
0.2766638100

> <CNNaffinity>
7.1641516685

> <CNN_VS>
1.9820615053

> <CNNaffinity_variance>
1.3408794403

$$$$
/media/chris/experiments/cd1a-new-docking/inputs/ligands/7sh4_ligand.pdb


 56 55  0  0  0  0  0  0  0  0999 V2000
  -38.2154   60.6223   64.8772 C   0  0  0  0  0  0  0  0  0  0  0  0
  -39.2587   60.4422   65.9433 C   0  0  0  0  0  0  0  0  0  0  0  0
  -40.4646   60.9603   65.3429 O   0  0  0  0  0  0  0  0  0  0  0  0
  -41.5680   59.0406   65.6540 O   0  0  0  0  0  0  0  0  0  0  0  0
  -41.5713   60.2299   65.4832 C   0  0  0  0  0  0  0  0  0  0  0  0
  -42.7942   61.1003   65.5249 C   0  0  0  0  0  0  0  0  0  0  0  0
  -43.3495   61.4562   64.1561 C   0  0  0  0  0  0  0  0  0  0  0  0
  -44.8632   61.4727   64.1239 C   0  0  0  0  0  0  0  0  0  0  0  0
  -45.5108   60.3139   64.8474 C   0  0  0  0  0  0  0  0  0  0  0  0
  -46.9876   60.1725   64.5391 C   0  0  0  0  0  0  0  0  0  0  0  0
  -47.7006   59.2233   65.4708 C   0  0  0  0  0  0  0  0  0  0  0  0
  -48.9647   59.8038   66.0478 C   0  0  0  0  0  0  0  0  0  0  0  0
  -50.2224   59.2547   65.4117 C   0  0  0  0  0  0  0  0  0  0  0  0
  -51.0546   60.3275   64.7388 C   0  0  0  0  0  0  0  0  0  0  0  0
  -51.3501   60.0554   63.2788 C   0  0  0  0  0  0  0  0  0  0  0  0
  -50.7142   58.7748   62.7498 C   0  0  0  0  0  0  0  0  0  0  0  0
  -49.3367   58.9742   62.1475 C   0  0  0  0  0  0  0  0  0  0  0  0
  -49.0495   58.0495   60.9822 C   0  0  0  0  0  0  0  0  0  0  0  0
  -49.5496   58.5789   59.6454 C   0  0  0  0  0  0  0  0  0  0  0  0
  -49.0489   57.7855   58.4517 C   0  0  0  0  0  0  0  0  0  0  0  0
  -47.0340   58.2839   57.0277 C   0  0  0  0  0  0  0  0  0  0  0  0
  -47.5389   57.7062   58.3305 C   0  0  0  0  0  0  0  0  0  0  0  0
  -36.8672   60.9664   65.4568 C   0  0  0  0  0  0  0  0  0  0  0  0
  -37.0197   62.0879   66.3553 O   0  0  0  0  0  0  0  0  0  0  0  0
  -36.0390   63.3527   66.3380 P   0  0  0  0  0  0  0  0  0  0  0  0
  -36.3095   64.1250   65.1062 O   0  0  0  0  0  0  0  0  0  0  0  0
  -36.1483   64.0395   67.6476 O   0  0  0  0  0  0  0  0  0  0  0  0
  -37.0364   64.4183   67.7411 H   0  0  0  0  0  0  0  0  0  0  0  0
  -34.5688   62.7459   66.2242 O   0  0  0  0  0  0  0  0  0  0  0  0
  -33.4953   63.3038   67.0093 C   0  0  0  0  0  0  0  0  0  0  0  0
  -33.1507   64.1281   64.7858 O   0  0  0  0  0  0  0  0  0  0  0  0
  -32.7284   64.2743   66.1449 C   0  0  0  0  0  0  0  0  0  0  0  0
  -33.0345   63.2059   64.5084 H   0  0  0  0  0  0  0  0  0  0  0  0
  -33.5218   65.7590   67.8725 O   0  0  0  0  0  0  0  0  0  0  0  0
  -32.9027   65.7054   66.5936 C   0  0  0  0  0  0  0  0  0  0  0  0
  -33.6250   66.6847   68.1432 H   0  0  0  0  0  0  0  0  0  0  0  0
  -38.6824   61.6520   63.9437 O   0  0  0  0  0  0  0  0  0  0  0  0
  -37.1637   62.3098   62.4201 O   0  0  0  0  0  0  0  0  0  0  0  0
  -38.1287   61.6593   62.7159 C   0  0  0  0  0  0  0  0  0  0  0  0
  -38.8480   60.7471   61.7712 C   0  0  0  0  0  0  0  0  0  0  0  0
  -40.3578   60.8022   61.9817 C   0  0  0  0  0  0  0  0  0  0  0  0
  -41.1645   60.3136   60.7899 C   0  0  0  0  0  0  0  0  0  0  0  0
  -40.3222   59.6153   59.7284 C   0  0  0  0  0  0  0  0  0  0  0  0
  -40.6765   58.1543   59.5224 C   0  0  0  0  0  0  0  0  0  0  0  0
  -41.6623   57.5875   60.5479 C   0  0  0  0  0  0  0  0  0  0  0  0
  -41.0814   56.5399   61.5002 C   0  0  0  0  0  0  0  0  0  0  0  0
  -40.4503   57.1636   62.7088 C   0  0  0  0  0  0  0  0  0  0  0  0
  -39.1694   57.4259   62.8814 C   0  0  0  0  0  0  0  0  0  0  0  0
  -38.0729   57.1554   61.9001 C   0  0  0  0  0  0  0  0  0  0  0  0
  -36.8811   58.0900   62.0863 C   0  0  0  0  0  0  0  0  0  0  0  0
  -36.0993   57.8338   63.3627 C   0  0  0  0  0  0  0  0  0  0  0  0
  -34.6271   57.5426   63.1281 C   0  0  0  0  0  0  0  0  0  0  0  0
  -33.8140   58.7406   62.6664 C   0  0  0  0  0  0  0  0  0  0  0  0
  -32.5051   58.9118   63.4222 C   0  0  0  0  0  0  0  0  0  0  0  0
  -31.4452   59.6854   62.6634 C   0  0  0  0  0  0  0  0  0  0  0  0
  -31.8343   61.1164   62.4173 C   0  0  0  0  0  0  0  0  0  0  0  0
 21 22  1  0  0  0
  4  5  2  0  0  0
 25 24  1  0  0  0
 25 26  2  0  0  0
 25 27  1  0  0  0
 25 29  1  0  0  0
 22 20  1  0  0  0
  3  5  1  0  0  0
  3  2  1  0  0  0
 20 19  1  0  0  0
 24 23  1  0  0  0
 19 18  1  0  0  0
 18 17  1  0  0  0
 27 28  1  0  0  0
 17 16  1  0  0  0
 29 30  1  0  0  0
 16 15  1  0  0  0
 34 35  1  0  0  0
 34 36  1  0  0  0
 15 14  1  0  0  0
 31 32  1  0  0  0
 31 33  1  0  0  0
 14 13  1  0  0  0
 37  1  1  0  0  0
 37 39  1  0  0  0
 13 12  1  0  0  0
 38 39  2  0  0  0
 12 11  1  0  0  0
 11 10  1  0  0  0
 10  9  1  0  0  0
  9  8  1  0  0  0
  8  7  1  0  0  0
  7  6  1  0  0  0
  6  5  1  0  0  0
  2  1  1  0  0  0
  1 23  1  0  0  0
 30 32  1  0  0  0
 32 35  1  0  0  0
 39 40  1  0  0  0
 40 41  1  0  0  0
 41 42  1  0  0  0
 42 43  1  0  0  0
 43 44  1  0  0  0
 44 45  1  0  0  0
 45 46  1  0  0  0
 46 47  1  0  0  0
 47 48  2  0  0  0
 48 49  1  0  0  0
 49 50  1  0  0  0
 50 51  1  0  0  0
 51 52  1  0  0  0
 52 53  1  0  0  0
 53 54  1  0  0  0
 54 55  1  0  0  0
 55 56  1  0  0  0
M  CHG 1  26  -1
M  END
> <minimizedAffinity>
-8.99687

> <CNNscore>
0.2668172121

> <CNNaffinity>
7.1186079979

> <CNN_VS>
1.8993670940

> <CNNaffinity_variance>
1.1512601376

$$$$
/media/chris/experiments/cd1a-new-docking/inputs/ligands/7sh4_ligand.pdb


 56 55  0  0  0  0  0  0  0  0999 V2000
  -38.9302   61.4937   63.3710 C   0  0  0  0  0  0  0  0  0  0  0  0
  -39.9200   61.0086   62.3499 C   0  0  0  0  0  0  0  0  0  0  0  0
  -41.2013   61.2071   62.9839 O   0  0  0  0  0  0  0  0  0  0  0  0
  -42.1975   61.5114   61.0053 O   0  0  0  0  0  0  0  0  0  0  0  0
  -42.2064   61.6049   62.2032 C   0  0  0  0  0  0  0  0  0  0  0  0
  -43.3810   62.0600   63.0205 C   0  0  0  0  0  0  0  0  0  0  0  0
  -43.5984   61.2598   64.2937 C   0  0  0  0  0  0  0  0  0  0  0  0
  -44.7826   60.3209   64.2009 C   0  0  0  0  0  0  0  0  0  0  0  0
  -45.4532   60.0370   65.5258 C   0  0  0  0  0  0  0  0  0  0  0  0
  -46.8562   59.4851   65.3745 C   0  0  0  0  0  0  0  0  0  0  0  0
  -47.8034   59.9686   66.4453 C   0  0  0  0  0  0  0  0  0  0  0  0
  -49.2427   59.9667   66.0023 C   0  0  0  0  0  0  0  0  0  0  0  0
  -49.4281   60.3905   64.5622 C   0  0  0  0  0  0  0  0  0  0  0  0
  -50.8868   60.4823   64.1621 C   0  0  0  0  0  0  0  0  0  0  0  0
  -51.2848   59.5302   63.0540 C   0  0  0  0  0  0  0  0  0  0  0  0
  -50.5146   58.2146   63.0660 C   0  0  0  0  0  0  0  0  0  0  0  0
  -49.5948   58.0282   61.8745 C   0  0  0  0  0  0  0  0  0  0  0  0
  -50.3185   58.0638   60.5439 C   0  0  0  0  0  0  0  0  0  0  0  0
  -49.4750   58.6201   59.4053 C   0  0  0  0  0  0  0  0  0  0  0  0
  -48.1704   57.8727   59.1939 C   0  0  0  0  0  0  0  0  0  0  0  0
  -46.9141   58.3808   57.0728 C   0  0  0  0  0  0  0  0  0  0  0  0
  -47.8994   57.4620   57.7591 C   0  0  0  0  0  0  0  0  0  0  0  0
  -37.6375   61.9415   62.7383 C   0  0  0  0  0  0  0  0  0  0  0  0
  -37.0325   62.9490   63.5793 O   0  0  0  0  0  0  0  0  0  0  0  0
  -36.0081   64.0445   63.0204 P   0  0  0  0  0  0  0  0  0  0  0  0
  -35.2216   63.4232   61.9331 O   0  0  0  0  0  0  0  0  0  0  0  0
  -36.7698   65.2831   62.7302 O   0  0  0  0  0  0  0  0  0  0  0  0
  -37.3821   65.1217   61.9955 H   0  0  0  0  0  0  0  0  0  0  0  0
  -35.0160   64.3515   64.2305 O   0  0  0  0  0  0  0  0  0  0  0  0
  -34.2239   63.2899   64.8012 C   0  0  0  0  0  0  0  0  0  0  0  0
  -33.6701   62.5464   67.0108 O   0  0  0  0  0  0  0  0  0  0  0  0
  -34.7485   62.9962   66.1852 C   0  0  0  0  0  0  0  0  0  0  0  0
  -33.2467   61.7769   66.5990 H   0  0  0  0  0  0  0  0  0  0  0  0
  -36.8203   64.1707   66.5682 O   0  0  0  0  0  0  0  0  0  0  0  0
  -35.4197   64.1948   66.8119 C   0  0  0  0  0  0  0  0  0  0  0  0
  -37.2331   64.9471   66.9778 H   0  0  0  0  0  0  0  0  0  0  0  0
  -38.7123   60.4224   64.3480 O   0  0  0  0  0  0  0  0  0  0  0  0
  -38.2586   61.3728   66.3357 O   0  0  0  0  0  0  0  0  0  0  0  0
  -38.9753   60.7092   65.6374 C   0  0  0  0  0  0  0  0  0  0  0  0
  -40.2748   60.1181   66.0893 C   0  0  0  0  0  0  0  0  0  0  0  0
  -40.5798   58.8143   65.3587 C   0  0  0  0  0  0  0  0  0  0  0  0
  -41.9582   58.2482   65.6576 C   0  0  0  0  0  0  0  0  0  0  0  0
  -42.5365   57.4174   64.5179 C   0  0  0  0  0  0  0  0  0  0  0  0
  -41.6058   56.3307   64.0126 C   0  0  0  0  0  0  0  0  0  0  0  0
  -41.2465   56.4396   62.5280 C   0  0  0  0  0  0  0  0  0  0  0  0
  -41.6590   57.7492   61.8523 C   0  0  0  0  0  0  0  0  0  0  0  0
  -41.8106   57.5958   60.3685 C   0  0  0  0  0  0  0  0  0  0  0  0
  -41.0953   58.1968   59.4376 C   0  0  0  0  0  0  0  0  0  0  0  0
  -39.9756   59.1615   59.6703 C   0  0  0  0  0  0  0  0  0  0  0  0
  -38.6054   58.5283   59.4464 C   0  0  0  0  0  0  0  0  0  0  0  0
  -37.6908   58.6109   60.6558 C   0  0  0  0  0  0  0  0  0  0  0  0
  -37.8098   57.4213   61.5929 C   0  0  0  0  0  0  0  0  0  0  0  0
  -37.4963   57.7315   63.0472 C   0  0  0  0  0  0  0  0  0  0  0  0
  -36.1915   58.4900   63.2369 C   0  0  0  0  0  0  0  0  0  0  0  0
  -34.9588   57.6085   63.2709 C   0  0  0  0  0  0  0  0  0  0  0  0
  -33.8073   58.1892   62.4985 C   0  0  0  0  0  0  0  0  0  0  0  0
 21 22  1  0  0  0
  4  5  2  0  0  0
 25 24  1  0  0  0
 25 26  2  0  0  0
 25 27  1  0  0  0
 25 29  1  0  0  0
 22 20  1  0  0  0
  3  5  1  0  0  0
  3  2  1  0  0  0
 20 19  1  0  0  0
 24 23  1  0  0  0
 19 18  1  0  0  0
 18 17  1  0  0  0
 27 28  1  0  0  0
 17 16  1  0  0  0
 29 30  1  0  0  0
 16 15  1  0  0  0
 34 35  1  0  0  0
 34 36  1  0  0  0
 15 14  1  0  0  0
 31 32  1  0  0  0
 31 33  1  0  0  0
 14 13  1  0  0  0
 37  1  1  0  0  0
 37 39  1  0  0  0
 13 12  1  0  0  0
 38 39  2  0  0  0
 12 11  1  0  0  0
 11 10  1  0  0  0
 10  9  1  0  0  0
  9  8  1  0  0  0
  8  7  1  0  0  0
  7  6  1  0  0  0
  6  5  1  0  0  0
  2  1  1  0  0  0
  1 23  1  0  0  0
 30 32  1  0  0  0
 32 35  1  0  0  0
 39 40  1  0  0  0
 40 41  1  0  0  0
 41 42  1  0  0  0
 42 43  1  0  0  0
 43 44  1  0  0  0
 44 45  1  0  0  0
 45 46  1  0  0  0
 46 47  1  0  0  0
 47 48  2  0  0  0
 48 49  1  0  0  0
 49 50  1  0  0  0
 50 51  1  0  0  0
 51 52  1  0  0  0
 52 53  1  0  0  0
 53 54  1  0  0  0
 54 55  1  0  0  0
 55 56  1  0  0  0
M  CHG 1  26  -1
M  END
> <minimizedAffinity>
-8.64678

> <CNNscore>
0.2665745318

> <CNNaffinity>
7.3253159523

> <CNN_VS>
1.9527426958

> <CNNaffinity_variance>
1.5541570187

$$$$
/media/chris/experiments/cd1a-new-docking/inputs/ligands/7sh4_ligand.pdb


 56 55  0  0  0  0  0  0  0  0999 V2000
  -40.2587   57.7408   61.9502 C   0  0  0  0  0  0  0  0  0  0  0  0
  -40.6848   56.5477   62.7580 C   0  0  0  0  0  0  0  0  0  0  0  0
  -40.9386   57.0882   64.0720 O   0  0  0  0  0  0  0  0  0  0  0  0
  -42.6031   55.6837   64.5783 O   0  0  0  0  0  0  0  0  0  0  0  0
  -42.1039   56.7749   64.6393 C   0  0  0  0  0  0  0  0  0  0  0  0
  -42.6339   57.9175   65.4568 C   0  0  0  0  0  0  0  0  0  0  0  0
  -44.0312   58.3664   65.0632 C   0  0  0  0  0  0  0  0  0  0  0  0
  -44.3923   59.7233   65.6298 C   0  0  0  0  0  0  0  0  0  0  0  0
  -45.8715   59.9190   65.8734 C   0  0  0  0  0  0  0  0  0  0  0  0
  -46.6342   60.2976   64.6201 C   0  0  0  0  0  0  0  0  0  0  0  0
  -47.5817   59.2199   64.1530 C   0  0  0  0  0  0  0  0  0  0  0  0
  -48.2592   58.4993   65.2887 C   0  0  0  0  0  0  0  0  0  0  0  0
  -49.7638   58.4363   65.1471 C   0  0  0  0  0  0  0  0  0  0  0  0
  -50.4364   59.7597   65.4512 C   0  0  0  0  0  0  0  0  0  0  0  0
  -51.2014   60.3469   64.2837 C   0  0  0  0  0  0  0  0  0  0  0  0
  -51.2462   59.4408   63.0585 C   0  0  0  0  0  0  0  0  0  0  0  0
  -50.2593   59.8238   61.9724 C   0  0  0  0  0  0  0  0  0  0  0  0
  -49.7016   58.6337   61.2187 C   0  0  0  0  0  0  0  0  0  0  0  0
  -49.5990   58.8565   59.7163 C   0  0  0  0  0  0  0  0  0  0  0  0
  -48.6036   57.9365   59.0321 C   0  0  0  0  0  0  0  0  0  0  0  0
  -47.2489   57.7387   56.9199 C   0  0  0  0  0  0  0  0  0  0  0  0
  -47.6550   58.6291   58.0723 C   0  0  0  0  0  0  0  0  0  0  0  0
  -41.4064   58.3424   61.1804 C   0  0  0  0  0  0  0  0  0  0  0  0
  -42.1909   59.1594   62.0779 O   0  0  0  0  0  0  0  0  0  0  0  0
  -41.7589   60.6407   62.5036 P   0  0  0  0  0  0  0  0  0  0  0  0
  -40.7550   61.1223   61.5305 O   0  0  0  0  0  0  0  0  0  0  0  0
  -42.9911   61.4394   62.7100 O   0  0  0  0  0  0  0  0  0  0  0  0
  -43.4499   61.5511   61.8627 H   0  0  0  0  0  0  0  0  0  0  0  0
  -41.0365   60.4806   63.9161 O   0  0  0  0  0  0  0  0  0  0  0  0
  -39.6200   60.7249   64.0337 C   0  0  0  0  0  0  0  0  0  0  0  0
  -39.0212   58.7020   65.1703 O   0  0  0  0  0  0  0  0  0  0  0  0
  -39.1387   60.1190   65.3293 C   0  0  0  0  0  0  0  0  0  0  0  0
  -39.8716   58.3376   64.8788 H   0  0  0  0  0  0  0  0  0  0  0  0
  -37.8543   62.1233   65.7180 O   0  0  0  0  0  0  0  0  0  0  0  0
  -37.8226   60.7033   65.7832 C   0  0  0  0  0  0  0  0  0  0  0  0
  -37.0017   62.4797   66.0129 H   0  0  0  0  0  0  0  0  0  0  0  0
  -39.1667   57.3305   61.0618 O   0  0  0  0  0  0  0  0  0  0  0  0
  -38.0727   58.6765   59.6294 O   0  0  0  0  0  0  0  0  0  0  0  0
  -38.2533   58.2680   60.7439 C   0  0  0  0  0  0  0  0  0  0  0  0
  -37.5047   58.7518   61.9470 C   0  0  0  0  0  0  0  0  0  0  0  0
  -36.6644   57.6398   62.5669 C   0  0  0  0  0  0  0  0  0  0  0  0
  -35.1954   57.9945   62.7285 C   0  0  0  0  0  0  0  0  0  0  0  0
  -34.8801   58.7042   64.0402 C   0  0  0  0  0  0  0  0  0  0  0  0
  -33.4350   58.5693   64.4828 C   0  0  0  0  0  0  0  0  0  0  0  0
  -32.4040   58.9189   63.4059 C   0  0  0  0  0  0  0  0  0  0  0  0
  -32.5587   60.3078   62.7823 C   0  0  0  0  0  0  0  0  0  0  0  0
  -31.3087   60.7571   62.0868 C   0  0  0  0  0  0  0  0  0  0  0  0
  -31.0945   61.9361   61.5360 C   0  0  0  0  0  0  0  0  0  0  0  0
  -32.0598   63.0782   61.4918 C   0  0  0  0  0  0  0  0  0  0  0  0
  -31.7295   64.1599   62.5161 C   0  0  0  0  0  0  0  0  0  0  0  0
  -32.9162   65.0327   62.8852 C   0  0  0  0  0  0  0  0  0  0  0  0
  -32.9751   65.3902   64.3603 C   0  0  0  0  0  0  0  0  0  0  0  0
  -32.5266   64.2796   65.2957 C   0  0  0  0  0  0  0  0  0  0  0  0
  -33.3226   64.2200   66.5905 C   0  0  0  0  0  0  0  0  0  0  0  0
  -34.3154   63.0765   66.6583 C   0  0  0  0  0  0  0  0  0  0  0  0
  -34.2031   62.1389   65.4887 C   0  0  0  0  0  0  0  0  0  0  0  0
 21 22  1  0  0  0
  4  5  2  0  0  0
 25 24  1  0  0  0
 25 26  2  0  0  0
 25 27  1  0  0  0
 25 29  1  0  0  0
 22 20  1  0  0  0
  3  5  1  0  0  0
  3  2  1  0  0  0
 20 19  1  0  0  0
 24 23  1  0  0  0
 19 18  1  0  0  0
 18 17  1  0  0  0
 27 28  1  0  0  0
 17 16  1  0  0  0
 29 30  1  0  0  0
 16 15  1  0  0  0
 34 35  1  0  0  0
 34 36  1  0  0  0
 15 14  1  0  0  0
 31 32  1  0  0  0
 31 33  1  0  0  0
 14 13  1  0  0  0
 37  1  1  0  0  0
 37 39  1  0  0  0
 13 12  1  0  0  0
 38 39  2  0  0  0
 12 11  1  0  0  0
 11 10  1  0  0  0
 10  9  1  0  0  0
  9  8  1  0  0  0
  8  7  1  0  0  0
  7  6  1  0  0  0
  6  5  1  0  0  0
  2  1  1  0  0  0
  1 23  1  0  0  0
 30 32  1  0  0  0
 32 35  1  0  0  0
 39 40  1  0  0  0
 40 41  1  0  0  0
 41 42  1  0  0  0
 42 43  1  0  0  0
 43 44  1  0  0  0
 44 45  1  0  0  0
 45 46  1  0  0  0
 46 47  1  0  0  0
 47 48  2  0  0  0
 48 49  1  0  0  0
 49 50  1  0  0  0
 50 51  1  0  0  0
 51 52  1  0  0  0
 52 53  1  0  0  0
 53 54  1  0  0  0
 54 55  1  0  0  0
 55 56  1  0  0  0
M  CHG 1  26  -1
M  END
> <minimizedAffinity>
-7.86866

> <CNNscore>
0.2529566884

> <CNNaffinity>
6.6263399124

> <CNN_VS>
1.6761770248

> <CNNaffinity_variance>
1.3352020979

$$$$
/media/chris/experiments/cd1a-new-docking/inputs/ligands/7sh4_ligand.pdb


 56 55  0  0  0  0  0  0  0  0999 V2000
  -41.8579   59.9532   65.4036 C   0  0  0  0  0  0  0  0  0  0  0  0
  -40.6224   60.2761   66.1955 C   0  0  0  0  0  0  0  0  0  0  0  0
  -39.5654   59.5957   65.4864 O   0  0  0  0  0  0  0  0  0  0  0  0
  -38.6898   61.4732   64.6451 O   0  0  0  0  0  0  0  0  0  0  0  0
  -38.5578   60.3459   65.0392 C   0  0  0  0  0  0  0  0  0  0  0  0
  -37.2412   59.6449   65.2120 C   0  0  0  0  0  0  0  0  0  0  0  0
  -37.2913   58.1523   64.9322 C   0  0  0  0  0  0  0  0  0  0  0  0
  -37.3872   57.8359   63.4546 C   0  0  0  0  0  0  0  0  0  0  0  0
  -36.1241   58.1256   62.6759 C   0  0  0  0  0  0  0  0  0  0  0  0
  -34.8672   57.6865   63.3993 C   0  0  0  0  0  0  0  0  0  0  0  0
  -33.5999   58.0811   62.6811 C   0  0  0  0  0  0  0  0  0  0  0  0
  -32.6740   58.9084   63.5332 C   0  0  0  0  0  0  0  0  0  0  0  0
  -31.6067   59.6263   62.7373 C   0  0  0  0  0  0  0  0  0  0  0  0
  -31.9017   61.1021   62.5605 C   0  0  0  0  0  0  0  0  0  0  0  0
  -31.1906   61.7379   61.3844 C   0  0  0  0  0  0  0  0  0  0  0  0
  -31.4945   63.2216   61.2096 C   0  0  0  0  0  0  0  0  0  0  0  0
  -32.9097   63.6100   61.5928 C   0  0  0  0  0  0  0  0  0  0  0  0
  -33.0273   65.0330   62.0993 C   0  0  0  0  0  0  0  0  0  0  0  0
  -33.5759   65.1330   63.5159 C   0  0  0  0  0  0  0  0  0  0  0  0
  -33.1119   64.0114   64.4279 C   0  0  0  0  0  0  0  0  0  0  0  0
  -33.4840   63.4669   66.8571 C   0  0  0  0  0  0  0  0  0  0  0  0
  -32.8625   64.4246   65.8660 C   0  0  0  0  0  0  0  0  0  0  0  0
  -42.5668   61.1957   64.9289 C   0  0  0  0  0  0  0  0  0  0  0  0
  -41.9024   61.6859   63.7428 O   0  0  0  0  0  0  0  0  0  0  0  0
  -41.9626   60.9230   62.3370 P   0  0  0  0  0  0  0  0  0  0  0  0
  -42.8159   59.7266   62.5015 O   0  0  0  0  0  0  0  0  0  0  0  0
  -42.3165   61.9118   61.2901 O   0  0  0  0  0  0  0  0  0  0  0  0
  -43.2215   62.2284   61.4370 H   0  0  0  0  0  0  0  0  0  0  0  0
  -40.4720   60.4288   62.0602 O   0  0  0  0  0  0  0  0  0  0  0  0
  -40.1938   59.0211   61.9153 C   0  0  0  0  0  0  0  0  0  0  0  0
  -41.3192   58.3835   59.8980 O   0  0  0  0  0  0  0  0  0  0  0  0
  -40.0398   58.7155   60.4456 C   0  0  0  0  0  0  0  0  0  0  0  0
  -41.7026   57.6450   60.3966 H   0  0  0  0  0  0  0  0  0  0  0  0
  -38.1059   60.1235   60.1357 O   0  0  0  0  0  0  0  0  0  0  0  0
  -39.4279   59.8645   59.6806 C   0  0  0  0  0  0  0  0  0  0  0  0
  -37.7302   60.8634   59.6333 H   0  0  0  0  0  0  0  0  0  0  0  0
  -42.7305   59.1145   66.2312 O   0  0  0  0  0  0  0  0  0  0  0  0
  -42.4444   57.1616   65.1522 O   0  0  0  0  0  0  0  0  0  0  0  0
  -43.1631   57.9607   65.6875 C   0  0  0  0  0  0  0  0  0  0  0  0
  -44.6417   57.7859   65.8466 C   0  0  0  0  0  0  0  0  0  0  0  0
  -45.2993   59.0519   66.3866 C   0  0  0  0  0  0  0  0  0  0  0  0
  -46.8096   58.9513   66.5243 C   0  0  0  0  0  0  0  0  0  0  0  0
  -47.5451   58.9549   65.1891 C   0  0  0  0  0  0  0  0  0  0  0  0
  -47.3427   60.2204   64.3767 C   0  0  0  0  0  0  0  0  0  0  0  0
  -48.6286   60.9945   64.0729 C   0  0  0  0  0  0  0  0  0  0  0  0
  -49.8866   60.4654   64.7654 C   0  0  0  0  0  0  0  0  0  0  0  0
  -51.0452   60.3503   63.8209 C   0  0  0  0  0  0  0  0  0  0  0  0
  -51.2944   59.3498   62.9985 C   0  0  0  0  0  0  0  0  0  0  0  0
  -50.4682   58.1129   62.8374 C   0  0  0  0  0  0  0  0  0  0  0  0
  -49.4427   58.2398   61.7146 C   0  0  0  0  0  0  0  0  0  0  0  0
  -49.9090   59.1067   60.5582 C   0  0  0  0  0  0  0  0  0  0  0  0
  -50.0212   58.3581   59.2413 C   0  0  0  0  0  0  0  0  0  0  0  0
  -48.7571   57.6250   58.8242 C   0  0  0  0  0  0  0  0  0  0  0  0
  -47.7262   58.5249   58.1599 C   0  0  0  0  0  0  0  0  0  0  0  0
  -46.8534   57.8228   57.1387 C   0  0  0  0  0  0  0  0  0  0  0  0
  -47.0704   56.3356   57.1128 C   0  0  0  0  0  0  0  0  0  0  0  0
 21 22  1  0  0  0
  4  5  2  0  0  0
 25 24  1  0  0  0
 25 26  2  0  0  0
 25 27  1  0  0  0
 25 29  1  0  0  0
 22 20  1  0  0  0
  3  5  1  0  0  0
  3  2  1  0  0  0
 20 19  1  0  0  0
 24 23  1  0  0  0
 19 18  1  0  0  0
 18 17  1  0  0  0
 27 28  1  0  0  0
 17 16  1  0  0  0
 29 30  1  0  0  0
 16 15  1  0  0  0
 34 35  1  0  0  0
 34 36  1  0  0  0
 15 14  1  0  0  0
 31 32  1  0  0  0
 31 33  1  0  0  0
 14 13  1  0  0  0
 37  1  1  0  0  0
 37 39  1  0  0  0
 13 12  1  0  0  0
 38 39  2  0  0  0
 12 11  1  0  0  0
 11 10  1  0  0  0
 10  9  1  0  0  0
  9  8  1  0  0  0
  8  7  1  0  0  0
  7  6  1  0  0  0
  6  5  1  0  0  0
  2  1  1  0  0  0
  1 23  1  0  0  0
 30 32  1  0  0  0
 32 35  1  0  0  0
 39 40  1  0  0  0
 40 41  1  0  0  0
 41 42  1  0  0  0
 42 43  1  0  0  0
 43 44  1  0  0  0
 44 45  1  0  0  0
 45 46  1  0  0  0
 46 47  1  0  0  0
 47 48  2  0  0  0
 48 49  1  0  0  0
 49 50  1  0  0  0
 50 51  1  0  0  0
 51 52  1  0  0  0
 52 53  1  0  0  0
 53 54  1  0  0  0
 54 55  1  0  0  0
 55 56  1  0  0  0
M  CHG 1  26  -1
M  END
> <minimizedAffinity>
-8.15190

> <CNNscore>
0.2528240681

> <CNNaffinity>
6.7758550644

> <CNN_VS>
1.7130992413

> <CNNaffinity_variance>
0.7081723809

$$$$
/media/chris/experiments/cd1a-new-docking/inputs/ligands/7sh4_ligand.pdb


 56 55  0  0  0  0  0  0  0  0999 V2000
  -38.6772   59.0410   63.5462 C   0  0  0  0  0  0  0  0  0  0  0  0
  -39.8595   59.3657   64.4147 C   0  0  0  0  0  0  0  0  0  0  0  0
  -40.6521   60.2603   63.6055 O   0  0  0  0  0  0  0  0  0  0  0  0
  -42.0449   61.9187   64.1615 O   0  0  0  0  0  0  0  0  0  0  0  0
  -41.7621   60.7510   64.1578 C   0  0  0  0  0  0  0  0  0  0  0  0
  -42.6545   59.6494   64.6529 C   0  0  0  0  0  0  0  0  0  0  0  0
  -44.0855   59.7367   64.1498 C   0  0  0  0  0  0  0  0  0  0  0  0
  -45.0326   60.3232   65.1753 C   0  0  0  0  0  0  0  0  0  0  0  0
  -46.4587   60.4621   64.6933 C   0  0  0  0  0  0  0  0  0  0  0  0
  -47.1068   59.1320   64.3666 C   0  0  0  0  0  0  0  0  0  0  0  0
  -48.0882   58.6753   65.4181 C   0  0  0  0  0  0  0  0  0  0  0  0
  -48.9923   59.7797   65.8984 C   0  0  0  0  0  0  0  0  0  0  0  0
  -50.4312   59.6094   65.4640 C   0  0  0  0  0  0  0  0  0  0  0  0
  -50.7749   60.4350   64.2407 C   0  0  0  0  0  0  0  0  0  0  0  0
  -51.3605   59.6323   63.0980 C   0  0  0  0  0  0  0  0  0  0  0  0
  -50.6332   58.3193   62.8312 C   0  0  0  0  0  0  0  0  0  0  0  0
  -50.3734   58.0462   61.3622 C   0  0  0  0  0  0  0  0  0  0  0  0
  -49.7219   59.2078   60.6399 C   0  0  0  0  0  0  0  0  0  0  0  0
  -48.8939   58.7890   59.4331 C   0  0  0  0  0  0  0  0  0  0  0  0
  -48.1140   57.5042   59.6475 C   0  0  0  0  0  0  0  0  0  0  0  0
  -47.7342   57.6169   57.1618 C   0  0  0  0  0  0  0  0  0  0  0  0
  -47.2229   57.1014   58.4879 C   0  0  0  0  0  0  0  0  0  0  0  0
  -38.7921   57.6741   62.9215 C   0  0  0  0  0  0  0  0  0  0  0  0
  -40.1634   57.2298   63.0236 O   0  0  0  0  0  0  0  0  0  0  0  0
  -41.0580   56.8758   61.7444 P   0  0  0  0  0  0  0  0  0  0  0  0
  -41.1653   55.4037   61.6538 O   0  0  0  0  0  0  0  0  0  0  0  0
  -42.3033   57.6776   61.8159 O   0  0  0  0  0  0  0  0  0  0  0  0
  -42.8327   57.3859   62.5745 H   0  0  0  0  0  0  0  0  0  0  0  0
  -40.2188   57.3853   60.4879 O   0  0  0  0  0  0  0  0  0  0  0  0
  -40.8228   58.2803   59.5317 C   0  0  0  0  0  0  0  0  0  0  0  0
  -40.6519   60.3124   60.7901 O   0  0  0  0  0  0  0  0  0  0  0  0
  -40.1447   59.6237   59.6432 C   0  0  0  0  0  0  0  0  0  0  0  0
  -41.6171   60.3836   60.7239 H   0  0  0  0  0  0  0  0  0  0  0  0
  -38.1079   60.4974   60.5952 O   0  0  0  0  0  0  0  0  0  0  0  0
  -38.6421   59.5037   59.7298 C   0  0  0  0  0  0  0  0  0  0  0  0
  -37.1432   60.4043   60.6379 H   0  0  0  0  0  0  0  0  0  0  0  0
  -37.4614   59.1658   64.3562 O   0  0  0  0  0  0  0  0  0  0  0  0
  -36.1149   60.0006   62.7592 O   0  0  0  0  0  0  0  0  0  0  0  0
  -36.2936   59.2670   63.6928 C   0  0  0  0  0  0  0  0  0  0  0  0
  -35.2419   58.3707   64.2696 C   0  0  0  0  0  0  0  0  0  0  0  0
  -33.8836   59.0630   64.3197 C   0  0  0  0  0  0  0  0  0  0  0  0
  -33.0116   58.7982   63.1033 C   0  0  0  0  0  0  0  0  0  0  0  0
  -31.9112   59.8342   62.9048 C   0  0  0  0  0  0  0  0  0  0  0  0
  -32.3953   61.1413   62.3051 C   0  0  0  0  0  0  0  0  0  0  0  0
  -32.0603   62.3847   63.1338 C   0  0  0  0  0  0  0  0  0  0  0  0
  -32.2279   63.7190   62.4035 C   0  0  0  0  0  0  0  0  0  0  0  0
  -33.4589   63.7438   61.5479 C   0  0  0  0  0  0  0  0  0  0  0  0
  -34.6413   64.2221   61.8831 C   0  0  0  0  0  0  0  0  0  0  0  0
  -35.0020   64.8448   63.1948 C   0  0  0  0  0  0  0  0  0  0  0  0
  -36.2264   64.1936   63.8315 C   0  0  0  0  0  0  0  0  0  0  0  0
  -36.0279   63.8175   65.2893 C   0  0  0  0  0  0  0  0  0  0  0  0
  -35.4756   62.4166   65.4881 C   0  0  0  0  0  0  0  0  0  0  0  0
  -34.0494   62.3703   66.0108 C   0  0  0  0  0  0  0  0  0  0  0  0
  -33.6515   63.6110   66.7956 C   0  0  0  0  0  0  0  0  0  0  0  0
  -32.4567   64.3503   66.2267 C   0  0  0  0  0  0  0  0  0  0  0  0
  -32.7904   65.7520   65.7982 C   0  0  0  0  0  0  0  0  0  0  0  0
 21 22  1  0  0  0
  4  5  2  0  0  0
 25 24  1  0  0  0
 25 26  2  0  0  0
 25 27  1  0  0  0
 25 29  1  0  0  0
 22 20  1  0  0  0
  3  5  1  0  0  0
  3  2  1  0  0  0
 20 19  1  0  0  0
 24 23  1  0  0  0
 19 18  1  0  0  0
 18 17  1  0  0  0
 27 28  1  0  0  0
 17 16  1  0  0  0
 29 30  1  0  0  0
 16 15  1  0  0  0
 34 35  1  0  0  0
 34 36  1  0  0  0
 15 14  1  0  0  0
 31 32  1  0  0  0
 31 33  1  0  0  0
 14 13  1  0  0  0
 37  1  1  0  0  0
 37 39  1  0  0  0
 13 12  1  0  0  0
 38 39  2  0  0  0
 12 11  1  0  0  0
 11 10  1  0  0  0
 10  9  1  0  0  0
  9  8  1  0  0  0
  8  7  1  0  0  0
  7  6  1  0  0  0
  6  5  1  0  0  0
  2  1  1  0  0  0
  1 23  1  0  0  0
 30 32  1  0  0  0
 32 35  1  0  0  0
 39 40  1  0  0  0
 40 41  1  0  0  0
 41 42  1  0  0  0
 42 43  1  0  0  0
 43 44  1  0  0  0
 44 45  1  0  0  0
 45 46  1  0  0  0
 46 47  1  0  0  0
 47 48  2  0  0  0
 48 49  1  0  0  0
 49 50  1  0  0  0
 50 51  1  0  0  0
 51 52  1  0  0  0
 52 53  1  0  0  0
 53 54  1  0  0  0
 54 55  1  0  0  0
 55 56  1  0  0  0
M  CHG 1  26  -1
M  END
> <minimizedAffinity>
-7.83950

> <CNNscore>
0.2112559527

> <CNNaffinity>
6.8003721237

> <CNN_VS>
1.4366190434

> <CNNaffinity_variance>
0.7678452730

$$$$
