/media/chris/experiments/cd1a-new-docking/inputs/ligands/4x6d_2_ligand.pdb
 OpenBabel07012320263D

 48 47  0  0  0  0  0  0  0  0999 V2000
  -45.3082   56.5653   64.7882 C   0  0  0  0  0  0  0  0  0  0  0  0
  -46.1468   57.2332   64.1523 O   0  0  0  0  0  0  0  0  0  0  0  0
  -43.8361   56.8565   64.6340 C   0  0  0  0  0  0  0  0  0  0  0  0
  -45.7130   55.6624   65.5509 O   0  0  0  0  0  0  0  0  0  0  0  0
  -43.5624   58.2865   65.0721 C   0  0  0  0  0  0  0  0  0  0  0  0
  -43.9331   58.5099   66.5271 C   0  0  0  0  0  0  0  0  0  0  0  0
  -45.4106   58.2057   66.7127 C   0  0  0  0  0  0  0  0  0  0  0  0
  -46.2472   59.1068   65.8203 C   0  0  0  0  0  0  0  0  0  0  0  0
  -47.7410   58.8580   65.9770 C   0  0  0  0  0  0  0  0  0  0  0  0
  -48.4570   59.8040   65.0240 C   0  0  0  0  0  0  0  0  0  0  0  0
  -49.9570   59.6540   65.1090 C   0  0  0  0  0  0  0  0  0  0  0  0
  -50.8212   60.8150   64.8434 C   0  0  0  0  0  0  0  0  0  0  0  0
  -50.1916   62.1787   64.7081 C   0  0  0  0  0  0  0  0  0  0  0  0
  -50.4793   62.7722   63.3334 C   0  0  0  0  0  0  0  0  0  0  0  0
  -49.8223   64.1459   63.2010 C   0  0  0  0  0  0  0  0  0  0  0  0
  -50.3286   65.1199   64.2639 C   0  0  0  0  0  0  0  0  0  0  0  0
  -49.6856   66.5020   64.1238 C   0  0  0  0  0  0  0  0  0  0  0  0
  -50.1623   67.4897   65.1856 C   0  0  0  0  0  0  0  0  0  0  0  0
  -43.5524   56.7353   63.6094 H   0  0  0  0  0  0  0  0  0  0  0  0
  -43.2699   56.1798   65.2392 H   0  0  0  0  0  0  0  0  0  0  0  0
  -45.0980   55.1495   66.0374 H   0  0  0  0  0  0  0  0  0  0  0  0
  -44.1368   58.9518   64.4620 H   0  0  0  0  0  0  0  0  0  0  0  0
  -42.5145   58.4735   64.9629 H   0  0  0  0  0  0  0  0  0  0  0  0
  -43.7398   59.5278   66.7945 H   0  0  0  0  0  0  0  0  0  0  0  0
  -43.3498   57.8664   67.1521 H   0  0  0  0  0  0  0  0  0  0  0  0
  -45.6801   58.3716   67.7348 H   0  0  0  0  0  0  0  0  0  0  0  0
  -45.5931   57.1851   66.4481 H   0  0  0  0  0  0  0  0  0  0  0  0
  -45.9748   58.9289   64.8010 H   0  0  0  0  0  0  0  0  0  0  0  0
  -46.0543   60.1191   66.1082 H   0  0  0  0  0  0  0  0  0  0  0  0
  -48.0419   59.0556   66.9846 H   0  0  0  0  0  0  0  0  0  0  0  0
  -47.9820   57.8397   65.7538 H   0  0  0  0  0  0  0  0  0  0  0  0
  -48.1435   59.5908   64.0234 H   0  0  0  0  0  0  0  0  0  0  0  0
  -48.2063   60.8071   65.2994 H   0  0  0  0  0  0  0  0  0  0  0  0
  -50.3741   58.7419   65.3521 H   0  0  0  0  0  0  0  0  0  0  0  0
  -51.8424   60.6979   64.7512 H   0  0  0  0  0  0  0  0  0  0  0  0
  -49.1332   62.0913   64.8382 H   0  0  0  0  0  0  0  0  0  0  0  0
  -50.6058   62.8240   65.4544 H   0  0  0  0  0  0  0  0  0  0  0  0
  -51.5370   62.8730   63.2066 H   0  0  0  0  0  0  0  0  0  0  0  0
  -50.0808   62.1218   62.5829 H   0  0  0  0  0  0  0  0  0  0  0  0
  -50.0431   64.5440   62.2327 H   0  0  0  0  0  0  0  0  0  0  0  0
  -48.7676   64.0252   63.3349 H   0  0  0  0  0  0  0  0  0  0  0  0
  -50.0968   64.7270   65.2318 H   0  0  0  0  0  0  0  0  0  0  0  0
  -51.3850   65.2310   64.1357 H   0  0  0  0  0  0  0  0  0  0  0  0
  -49.9280   66.8951   63.1586 H   0  0  0  0  0  0  0  0  0  0  0  0
  -48.6302   66.3794   64.2504 H   0  0  0  0  0  0  0  0  0  0  0  0
  -51.2177   67.6365   65.0879 H   0  0  0  0  0  0  0  0  0  0  0  0
  -49.6586   68.4246   65.0549 H   0  0  0  0  0  0  0  0  0  0  0  0
  -49.9449   67.1003   66.1582 H   0  0  0  0  0  0  0  0  0  0  0  0
  1  2  2  0  0  0  0
  1  3  1  0  0  0  0
  1  4  1  0  0  0  0
  3  5  1  0  0  0  0
  3 19  1  0  0  0  0
  3 20  1  0  0  0  0
  4 21  1  0  0  0  0
  5  6  1  0  0  0  0
  5 22  1  0  0  0  0
  5 23  1  0  0  0  0
  6  7  1  0  0  0  0
  6 24  1  0  0  0  0
  6 25  1  0  0  0  0
  7  8  1  0  0  0  0
  7 26  1  0  0  0  0
  7 27  1  0  0  0  0
  8  9  1  0  0  0  0
  8 28  1  0  0  0  0
  8 29  1  0  0  0  0
  9 10  1  0  0  0  0
  9 30  1  0  0  0  0
  9 31  1  0  0  0  0
 10 11  1  0  0  0  0
 10 32  1  0  0  0  0
 10 33  1  0  0  0  0
 11 12  2  0  0  0  0
 11 34  1  0  0  0  0
 12 13  1  0  0  0  0
 12 35  1  0  0  0  0
 13 14  1  0  0  0  0
 13 36  1  0  0  0  0
 13 37  1  0  0  0  0
 14 15  1  0  0  0  0
 14 38  1  0  0  0  0
 14 39  1  0  0  0  0
 15 16  1  0  0  0  0
 15 40  1  0  0  0  0
 15 41  1  0  0  0  0
 16 17  1  0  0  0  0
 16 42  1  0  0  0  0
 16 43  1  0  0  0  0
 17 18  1  0  0  0  0
 17 44  1  0  0  0  0
 17 45  1  0  0  0  0
 18 46  1  0  0  0  0
 18 47  1  0  0  0  0
 18 48  1  0  0  0  0
M  END
$$$$