/media/chris/experiments/cd1a-new-docking/inputs/ligands/4x6d_2_ligand.pdb
 OpenBabel07012320263D

 48 47  0  0  0  0  0  0  0  0999 V2000
  -45.2239   53.8279   65.4268 C   0  0  0  0  0  0  0  0  0  0  0  0
  -45.4361   52.7480   64.8416 O   0  0  0  0  0  0  0  0  0  0  0  0
  -45.7330   54.0395   66.8309 C   0  0  0  0  0  0  0  0  0  0  0  0
  -44.5824   54.7185   64.8298 O   0  0  0  0  0  0  0  0  0  0  0  0
  -45.3531   55.4372   67.2935 C   0  0  0  0  0  0  0  0  0  0  0  0
  -45.9645   56.5083   66.4084 C   0  0  0  0  0  0  0  0  0  0  0  0
  -47.4788   56.3899   66.4640 C   0  0  0  0  0  0  0  0  0  0  0  0
  -48.1197   57.4400   65.5725 C   0  0  0  0  0  0  0  0  0  0  0  0
  -47.7410   58.8580   65.9770 C   0  0  0  0  0  0  0  0  0  0  0  0
  -48.4570   59.8040   65.0240 C   0  0  0  0  0  0  0  0  0  0  0  0
  -49.9570   59.6540   65.1090 C   0  0  0  0  0  0  0  0  0  0  0  0
  -50.5762   58.3511   64.8186 C   0  0  0  0  0  0  0  0  0  0  0  0
  -49.7261   57.2529   64.2305 C   0  0  0  0  0  0  0  0  0  0  0  0
  -49.7029   56.0370   65.1503 C   0  0  0  0  0  0  0  0  0  0  0  0
  -48.8248   54.9375   64.5531 C   0  0  0  0  0  0  0  0  0  0  0  0
  -48.7920   53.6948   65.4414 C   0  0  0  0  0  0  0  0  0  0  0  0
  -47.8997   52.5978   64.8552 C   0  0  0  0  0  0  0  0  0  0  0  0
  -47.8635   51.3378   65.7161 C   0  0  0  0  0  0  0  0  0  0  0  0
  -45.2940   53.3145   67.4840 H   0  0  0  0  0  0  0  0  0  0  0  0
  -46.7973   53.9313   66.8482 H   0  0  0  0  0  0  0  0  0  0  0  0
  -44.4127   55.5371   65.2529 H   0  0  0  0  0  0  0  0  0  0  0  0
  -44.2878   55.5331   67.2680 H   0  0  0  0  0  0  0  0  0  0  0  0
  -45.7272   55.5724   68.2868 H   0  0  0  0  0  0  0  0  0  0  0  0
  -45.6309   56.3746   65.4005 H   0  0  0  0  0  0  0  0  0  0  0  0
  -45.6643   57.4762   66.7517 H   0  0  0  0  0  0  0  0  0  0  0  0
  -47.8078   56.5333   67.4720 H   0  0  0  0  0  0  0  0  0  0  0  0
  -47.7660   55.4179   66.1210 H   0  0  0  0  0  0  0  0  0  0  0  0
  -49.1831   57.3384   65.6327 H   0  0  0  0  0  0  0  0  0  0  0  0
  -47.7650   57.2806   64.5757 H   0  0  0  0  0  0  0  0  0  0  0  0
  -46.6822   58.9911   65.8990 H   0  0  0  0  0  0  0  0  0  0  0  0
  -48.0249   59.0527   66.9901 H   0  0  0  0  0  0  0  0  0  0  0  0
  -48.1435   59.5908   64.0234 H   0  0  0  0  0  0  0  0  0  0  0  0
  -48.2063   60.8071   65.2994 H   0  0  0  0  0  0  0  0  0  0  0  0
  -50.5450   60.4611   65.3695 H   0  0  0  0  0  0  0  0  0  0  0  0
  -51.5768   58.1913   65.0143 H   0  0  0  0  0  0  0  0  0  0  0  0
  -48.7273   57.6138   64.1003 H   0  0  0  0  0  0  0  0  0  0  0  0
  -50.1425   56.9632   63.2884 H   0  0  0  0  0  0  0  0  0  0  0  0
  -50.6994   55.6665   65.2709 H   0  0  0  0  0  0  0  0  0  0  0  0
  -49.3020   56.3259   66.0993 H   0  0  0  0  0  0  0  0  0  0  0  0
  -47.8283   55.3113   64.4429 H   0  0  0  0  0  0  0  0  0  0  0  0
  -49.2372   54.6593   63.6058 H   0  0  0  0  0  0  0  0  0  0  0  0
  -49.7872   53.3147   65.5414 H   0  0  0  0  0  0  0  0  0  0  0  0
  -48.3897   53.9770   66.3919 H   0  0  0  0  0  0  0  0  0  0  0  0
  -46.9039   52.9790   64.7661 H   0  0  0  0  0  0  0  0  0  0  0  0
  -48.3085   52.3254   63.9046 H   0  0  0  0  0  0  0  0  0  0  0  0
  -47.4585   51.5745   66.6778 H   0  0  0  0  0  0  0  0  0  0  0  0
  -47.2502   50.5998   65.2426 H   0  0  0  0  0  0  0  0  0  0  0  0
  -48.8564   50.9559   65.8313 H   0  0  0  0  0  0  0  0  0  0  0  0
  1  2  2  0  0  0  0
  1  3  1  0  0  0  0
  1  4  1  0  0  0  0
  3  5  1  0  0  0  0
  3 19  1  0  0  0  0
  3 20  1  0  0  0  0
  4 21  1  0  0  0  0
  5  6  1  0  0  0  0
  5 22  1  0  0  0  0
  5 23  1  0  0  0  0
  6  7  1  0  0  0  0
  6 24  1  0  0  0  0
  6 25  1  0  0  0  0
  7  8  1  0  0  0  0
  7 26  1  0  0  0  0
  7 27  1  0  0  0  0
  8  9  1  0  0  0  0
  8 28  1  0  0  0  0
  8 29  1  0  0  0  0
  9 10  1  0  0  0  0
  9 30  1  0  0  0  0
  9 31  1  0  0  0  0
 10 11  1  0  0  0  0
 10 32  1  0  0  0  0
 10 33  1  0  0  0  0
 11 12  2  0  0  0  0
 11 34  1  0  0  0  0
 12 13  1  0  0  0  0
 12 35  1  0  0  0  0
 13 14  1  0  0  0  0
 13 36  1  0  0  0  0
 13 37  1  0  0  0  0
 14 15  1  0  0  0  0
 14 38  1  0  0  0  0
 14 39  1  0  0  0  0
 15 16  1  0  0  0  0
 15 40  1  0  0  0  0
 15 41  1  0  0  0  0
 16 17  1  0  0  0  0
 16 42  1  0  0  0  0
 16 43  1  0  0  0  0
 17 18  1  0  0  0  0
 17 44  1  0  0  0  0
 17 45  1  0  0  0  0
 18 46  1  0  0  0  0
 18 47  1  0  0  0  0
 18 48  1  0  0  0  0
M  END
$$$$
/media/chris/experiments/cd1a-new-docking/inputs/ligands/4x6d_2_ligand.pdb
 OpenBabel07012320263D

 48 47  0  0  0  0  0  0  0  0999 V2000
  -43.5648   57.6939   65.2776 C   0  0  0  0  0  0  0  0  0  0  0  0
  -42.3521   57.9819   65.2739 O   0  0  0  0  0  0  0  0  0  0  0  0
  -44.0133   56.3067   64.8901 C   0  0  0  0  0  0  0  0  0  0  0  0
  -44.3894   58.5712   65.6109 O   0  0  0  0  0  0  0  0  0  0  0  0
  -45.5302   56.2346   64.9637 C   0  0  0  0  0  0  0  0  0  0  0  0
  -46.1871   57.2204   64.0143 C   0  0  0  0  0  0  0  0  0  0  0  0
  -47.6965   57.1075   64.1518 C   0  0  0  0  0  0  0  0  0  0  0  0
  -48.1197   57.4400   65.5725 C   0  0  0  0  0  0  0  0  0  0  0  0
  -47.7410   58.8580   65.9770 C   0  0  0  0  0  0  0  0  0  0  0  0
  -48.4570   59.8040   65.0240 C   0  0  0  0  0  0  0  0  0  0  0  0
  -49.9570   59.6540   65.1090 C   0  0  0  0  0  0  0  0  0  0  0  0
  -50.7186   59.2616   63.9126 C   0  0  0  0  0  0  0  0  0  0  0  0
  -50.0176   59.2310   62.5777 C   0  0  0  0  0  0  0  0  0  0  0  0
  -50.6820   60.1909   61.5969 C   0  0  0  0  0  0  0  0  0  0  0  0
  -50.6148   61.6224   62.1285 C   0  0  0  0  0  0  0  0  0  0  0  0
  -51.2876   62.6112   61.1776 C   0  0  0  0  0  0  0  0  0  0  0  0
  -51.2072   64.0485   61.6984 C   0  0  0  0  0  0  0  0  0  0  0  0
  -51.8878   65.0545   60.7739 C   0  0  0  0  0  0  0  0  0  0  0  0
  -43.5877   55.5917   65.5628 H   0  0  0  0  0  0  0  0  0  0  0  0
  -43.6904   56.0891   63.8935 H   0  0  0  0  0  0  0  0  0  0  0  0
  -45.3054   58.3740   65.6199 H   0  0  0  0  0  0  0  0  0  0  0  0
  -45.8397   56.4576   65.9634 H   0  0  0  0  0  0  0  0  0  0  0  0
  -45.8309   55.2478   64.6796 H   0  0  0  0  0  0  0  0  0  0  0  0
  -45.9005   56.9952   63.0083 H   0  0  0  0  0  0  0  0  0  0  0  0
  -45.8753   58.2156   64.2533 H   0  0  0  0  0  0  0  0  0  0  0  0
  -47.9991   56.1084   63.9174 H   0  0  0  0  0  0  0  0  0  0  0  0
  -48.1612   57.7971   63.4784 H   0  0  0  0  0  0  0  0  0  0  0  0
  -47.6440   56.7537   66.2417 H   0  0  0  0  0  0  0  0  0  0  0  0
  -49.1857   57.3618   65.6210 H   0  0  0  0  0  0  0  0  0  0  0  0
  -46.6822   58.9911   65.8990 H   0  0  0  0  0  0  0  0  0  0  0  0
  -48.0249   59.0527   66.9901 H   0  0  0  0  0  0  0  0  0  0  0  0
  -48.1435   59.5908   64.0234 H   0  0  0  0  0  0  0  0  0  0  0  0
  -48.2063   60.8071   65.2994 H   0  0  0  0  0  0  0  0  0  0  0  0
  -50.4456   59.8258   66.0016 H   0  0  0  0  0  0  0  0  0  0  0  0
  -51.7171   59.0111   63.9859 H   0  0  0  0  0  0  0  0  0  0  0  0
  -50.0609   58.2382   62.1811 H   0  0  0  0  0  0  0  0  0  0  0  0
  -49.0002   59.5316   62.7169 H   0  0  0  0  0  0  0  0  0  0  0  0
  -51.7063   59.9102   61.4671 H   0  0  0  0  0  0  0  0  0  0  0  0
  -50.1675   60.1429   60.6599 H   0  0  0  0  0  0  0  0  0  0  0  0
  -49.5884   61.9001   62.2480 H   0  0  0  0  0  0  0  0  0  0  0  0
  -51.1325   61.6551   63.0644 H   0  0  0  0  0  0  0  0  0  0  0  0
  -52.3169   62.3401   61.0680 H   0  0  0  0  0  0  0  0  0  0  0  0
  -50.7758   62.5694   60.2389 H   0  0  0  0  0  0  0  0  0  0  0  0
  -50.1765   64.3185   61.7971 H   0  0  0  0  0  0  0  0  0  0  0  0
  -51.7187   64.0786   62.6377 H   0  0  0  0  0  0  0  0  0  0  0  0
  -51.3998   65.0508   59.8216 H   0  0  0  0  0  0  0  0  0  0  0  0
  -51.8248   66.0327   61.2031 H   0  0  0  0  0  0  0  0  0  0  0  0
  -52.9158   64.7854   60.6490 H   0  0  0  0  0  0  0  0  0  0  0  0
  1  2  2  0  0  0  0
  1  3  1  0  0  0  0
  1  4  1  0  0  0  0
  3  5  1  0  0  0  0
  3 19  1  0  0  0  0
  3 20  1  0  0  0  0
  4 21  1  0  0  0  0
  5  6  1  0  0  0  0
  5 22  1  0  0  0  0
  5 23  1  0  0  0  0
  6  7  1  0  0  0  0
  6 24  1  0  0  0  0
  6 25  1  0  0  0  0
  7  8  1  0  0  0  0
  7 26  1  0  0  0  0
  7 27  1  0  0  0  0
  8  9  1  0  0  0  0
  8 28  1  0  0  0  0
  8 29  1  0  0  0  0
  9 10  1  0  0  0  0
  9 30  1  0  0  0  0
  9 31  1  0  0  0  0
 10 11  1  0  0  0  0
 10 32  1  0  0  0  0
 10 33  1  0  0  0  0
 11 12  2  0  0  0  0
 11 34  1  0  0  0  0
 12 13  1  0  0  0  0
 12 35  1  0  0  0  0
 13 14  1  0  0  0  0
 13 36  1  0  0  0  0
 13 37  1  0  0  0  0
 14 15  1  0  0  0  0
 14 38  1  0  0  0  0
 14 39  1  0  0  0  0
 15 16  1  0  0  0  0
 15 40  1  0  0  0  0
 15 41  1  0  0  0  0
 16 17  1  0  0  0  0
 16 42  1  0  0  0  0
 16 43  1  0  0  0  0
 17 18  1  0  0  0  0
 17 44  1  0  0  0  0
 17 45  1  0  0  0  0
 18 46  1  0  0  0  0
 18 47  1  0  0  0  0
 18 48  1  0  0  0  0
M  END
$$$$
/media/chris/experiments/cd1a-new-docking/inputs/ligands/4x6d_2_ligand.pdb
 OpenBabel07012320263D

 48 47  0  0  0  0  0  0  0  0999 V2000
  -41.9397   58.8709   61.2734 C   0  0  0  0  0  0  0  0  0  0  0  0
  -40.9803   59.4917   60.7754 O   0  0  0  0  0  0  0  0  0  0  0  0
  -42.3191   59.0966   62.7158 C   0  0  0  0  0  0  0  0  0  0  0  0
  -42.5746   58.0699   60.5548 O   0  0  0  0  0  0  0  0  0  0  0  0
  -43.8159   58.8835   62.8767 C   0  0  0  0  0  0  0  0  0  0  0  0
  -44.2663   59.1133   64.3081 C   0  0  0  0  0  0  0  0  0  0  0  0
  -45.7632   58.8672   64.4003 C   0  0  0  0  0  0  0  0  0  0  0  0
  -46.2472   59.1068   65.8203 C   0  0  0  0  0  0  0  0  0  0  0  0
  -47.7410   58.8580   65.9770 C   0  0  0  0  0  0  0  0  0  0  0  0
  -48.4570   59.8040   65.0240 C   0  0  0  0  0  0  0  0  0  0  0  0
  -49.9570   59.6540   65.1090 C   0  0  0  0  0  0  0  0  0  0  0  0
  -50.7835   60.8081   65.4966 C   0  0  0  0  0  0  0  0  0  0  0  0
  -50.1051   62.0523   66.0125 C   0  0  0  0  0  0  0  0  0  0  0  0
  -49.2848   61.7422   67.2599 C   0  0  0  0  0  0  0  0  0  0  0  0
  -50.1840   61.1747   68.3580 C   0  0  0  0  0  0  0  0  0  0  0  0
  -50.8581   59.8748   67.9216 C   0  0  0  0  0  0  0  0  0  0  0  0
  -49.8354   58.7847   67.5910 C   0  0  0  0  0  0  0  0  0  0  0  0
  -48.9527   58.4175   68.7809 C   0  0  0  0  0  0  0  0  0  0  0  0
  -42.0672   60.0969   63.0001 H   0  0  0  0  0  0  0  0  0  0  0  0
  -41.7882   58.4083   63.3397 H   0  0  0  0  0  0  0  0  0  0  0  0
  -43.2988   57.5938   60.9109 H   0  0  0  0  0  0  0  0  0  0  0  0
  -44.0552   57.8793   62.5951 H   0  0  0  0  0  0  0  0  0  0  0  0
  -44.3219   59.5887   62.2510 H   0  0  0  0  0  0  0  0  0  0  0  0
  -44.0499   60.1211   64.5950 H   0  0  0  0  0  0  0  0  0  0  0  0
  -43.7484   58.4435   64.9624 H   0  0  0  0  0  0  0  0  0  0  0  0
  -45.9731   57.8557   64.1212 H   0  0  0  0  0  0  0  0  0  0  0  0
  -46.2693   59.5404   63.7404 H   0  0  0  0  0  0  0  0  0  0  0  0
  -46.0386   60.1217   66.0873 H   0  0  0  0  0  0  0  0  0  0  0  0
  -45.7343   58.4185   66.4591 H   0  0  0  0  0  0  0  0  0  0  0  0
  -48.0419   59.0556   66.9846 H   0  0  0  0  0  0  0  0  0  0  0  0
  -47.9820   57.8397   65.7538 H   0  0  0  0  0  0  0  0  0  0  0  0
  -48.1435   59.5908   64.0234 H   0  0  0  0  0  0  0  0  0  0  0  0
  -48.2063   60.8071   65.2994 H   0  0  0  0  0  0  0  0  0  0  0  0
  -50.4004   58.7467   64.8964 H   0  0  0  0  0  0  0  0  0  0  0  0
  -51.8116   60.7668   65.4166 H   0  0  0  0  0  0  0  0  0  0  0  0
  -50.8484   62.7831   66.2539 H   0  0  0  0  0  0  0  0  0  0  0  0
  -49.4492   62.4257   65.2540 H   0  0  0  0  0  0  0  0  0  0  0  0
  -48.8229   62.6411   67.6112 H   0  0  0  0  0  0  0  0  0  0  0  0
  -48.5366   61.0180   67.0135 H   0  0  0  0  0  0  0  0  0  0  0  0
  -50.9395   61.8947   68.5940 H   0  0  0  0  0  0  0  0  0  0  0  0
  -49.5747   60.9638   69.2119 H   0  0  0  0  0  0  0  0  0  0  0  0
  -51.4515   60.0676   67.0523 H   0  0  0  0  0  0  0  0  0  0  0  0
  -51.4636   59.5267   68.7322 H   0  0  0  0  0  0  0  0  0  0  0  0
  -49.2095   59.1336   66.7964 H   0  0  0  0  0  0  0  0  0  0  0  0
  -50.3805   57.9070   67.3127 H   0  0  0  0  0  0  0  0  0  0  0  0
  -48.3912   59.2755   69.0867 H   0  0  0  0  0  0  0  0  0  0  0  0
  -48.2811   57.6339   68.4984 H   0  0  0  0  0  0  0  0  0  0  0  0
  -49.5669   58.0857   69.5918 H   0  0  0  0  0  0  0  0  0  0  0  0
  1  2  2  0  0  0  0
  1  3  1  0  0  0  0
  1  4  1  0  0  0  0
  3  5  1  0  0  0  0
  3 19  1  0  0  0  0
  3 20  1  0  0  0  0
  4 21  1  0  0  0  0
  5  6  1  0  0  0  0
  5 22  1  0  0  0  0
  5 23  1  0  0  0  0
  6  7  1  0  0  0  0
  6 24  1  0  0  0  0
  6 25  1  0  0  0  0
  7  8  1  0  0  0  0
  7 26  1  0  0  0  0
  7 27  1  0  0  0  0
  8  9  1  0  0  0  0
  8 28  1  0  0  0  0
  8 29  1  0  0  0  0
  9 10  1  0  0  0  0
  9 30  1  0  0  0  0
  9 31  1  0  0  0  0
 10 11  1  0  0  0  0
 10 32  1  0  0  0  0
 10 33  1  0  0  0  0
 11 12  2  0  0  0  0
 11 34  1  0  0  0  0
 12 13  1  0  0  0  0
 12 35  1  0  0  0  0
 13 14  1  0  0  0  0
 13 36  1  0  0  0  0
 13 37  1  0  0  0  0
 14 15  1  0  0  0  0
 14 38  1  0  0  0  0
 14 39  1  0  0  0  0
 15 16  1  0  0  0  0
 15 40  1  0  0  0  0
 15 41  1  0  0  0  0
 16 17  1  0  0  0  0
 16 42  1  0  0  0  0
 16 43  1  0  0  0  0
 17 18  1  0  0  0  0
 17 44  1  0  0  0  0
 17 45  1  0  0  0  0
 18 46  1  0  0  0  0
 18 47  1  0  0  0  0
 18 48  1  0  0  0  0
M  END
$$$$
/media/chris/experiments/cd1a-new-docking/inputs/ligands/4x6d_2_ligand.pdb
 OpenBabel07012320263D

 48 47  0  0  0  0  0  0  0  0999 V2000
  -46.1256   64.6588   67.3950 C   0  0  0  0  0  0  0  0  0  0  0  0
  -45.7500   64.9264   68.5531 O   0  0  0  0  0  0  0  0  0  0  0  0
  -46.5656   63.2583   67.0479 C   0  0  0  0  0  0  0  0  0  0  0  0
  -46.1328   65.5700   66.5404 O   0  0  0  0  0  0  0  0  0  0  0  0
  -45.8196   62.2687   67.9288 C   0  0  0  0  0  0  0  0  0  0  0  0
  -46.2061   60.8344   67.6161 C   0  0  0  0  0  0  0  0  0  0  0  0
  -45.8552   60.5327   66.1684 C   0  0  0  0  0  0  0  0  0  0  0  0
  -46.2472   59.1068   65.8203 C   0  0  0  0  0  0  0  0  0  0  0  0
  -47.7410   58.8580   65.9770 C   0  0  0  0  0  0  0  0  0  0  0  0
  -48.4570   59.8040   65.0240 C   0  0  0  0  0  0  0  0  0  0  0  0
  -49.9570   59.6540   65.1090 C   0  0  0  0  0  0  0  0  0  0  0  0
  -50.5393   58.3522   65.4718 C   0  0  0  0  0  0  0  0  0  0  0  0
  -49.6411   57.1425   65.5365 C   0  0  0  0  0  0  0  0  0  0  0  0
  -50.4381   55.8977   65.9107 C   0  0  0  0  0  0  0  0  0  0  0  0
  -49.5153   54.6817   65.9905 C   0  0  0  0  0  0  0  0  0  0  0  0
  -48.8068   54.4212   64.6620 C   0  0  0  0  0  0  0  0  0  0  0  0
  -49.8006   54.1739   63.5242 C   0  0  0  0  0  0  0  0  0  0  0  0
  -50.7145   52.9789   63.7826 C   0  0  0  0  0  0  0  0  0  0  0  0
  -46.3466   63.0585   66.0198 H   0  0  0  0  0  0  0  0  0  0  0  0
  -47.6189   63.1613   67.2095 H   0  0  0  0  0  0  0  0  0  0  0  0
  -46.4118   65.3886   65.6645 H   0  0  0  0  0  0  0  0  0  0  0  0
  -46.0501   62.4743   68.9532 H   0  0  0  0  0  0  0  0  0  0  0  0
  -44.7720   62.3798   67.7412 H   0  0  0  0  0  0  0  0  0  0  0  0
  -47.2579   60.7056   67.7648 H   0  0  0  0  0  0  0  0  0  0  0  0
  -45.6762   60.1674   68.2635 H   0  0  0  0  0  0  0  0  0  0  0  0
  -44.8015   60.6542   66.0274 H   0  0  0  0  0  0  0  0  0  0  0  0
  -46.3888   61.2071   65.5317 H   0  0  0  0  0  0  0  0  0  0  0  0
  -45.7183   58.4380   66.4668 H   0  0  0  0  0  0  0  0  0  0  0  0
  -45.9962   58.9421   64.7933 H   0  0  0  0  0  0  0  0  0  0  0  0
  -48.0419   59.0556   66.9846 H   0  0  0  0  0  0  0  0  0  0  0  0
  -47.9820   57.8397   65.7538 H   0  0  0  0  0  0  0  0  0  0  0  0
  -48.1435   59.5908   64.0234 H   0  0  0  0  0  0  0  0  0  0  0  0
  -48.2063   60.8071   65.2994 H   0  0  0  0  0  0  0  0  0  0  0  0
  -50.5707   60.4603   64.9136 H   0  0  0  0  0  0  0  0  0  0  0  0
  -51.5469   58.2683   65.6788 H   0  0  0  0  0  0  0  0  0  0  0  0
  -48.8821   57.3078   66.2724 H   0  0  0  0  0  0  0  0  0  0  0  0
  -49.1989   56.9910   64.5740 H   0  0  0  0  0  0  0  0  0  0  0  0
  -51.1890   55.7230   65.1688 H   0  0  0  0  0  0  0  0  0  0  0  0
  -50.8954   56.0510   66.8658 H   0  0  0  0  0  0  0  0  0  0  0  0
  -50.0971   53.8213   66.2476 H   0  0  0  0  0  0  0  0  0  0  0  0
  -48.7701   54.8770   66.7330 H   0  0  0  0  0  0  0  0  0  0  0  0
  -48.1801   53.5603   64.7672 H   0  0  0  0  0  0  0  0  0  0  0  0
  -48.2314   55.2894   64.4171 H   0  0  0  0  0  0  0  0  0  0  0  0
  -49.2509   53.9949   62.6238 H   0  0  0  0  0  0  0  0  0  0  0  0
  -50.4214   55.0418   63.4461 H   0  0  0  0  0  0  0  0  0  0  0  0
  -50.1245   52.0902   63.8666 H   0  0  0  0  0  0  0  0  0  0  0  0
  -51.4032   52.8744   62.9704 H   0  0  0  0  0  0  0  0  0  0  0  0
  -51.2565   53.1345   64.6920 H   0  0  0  0  0  0  0  0  0  0  0  0
  1  2  2  0  0  0  0
  1  3  1  0  0  0  0
  1  4  1  0  0  0  0
  3  5  1  0  0  0  0
  3 19  1  0  0  0  0
  3 20  1  0  0  0  0
  4 21  1  0  0  0  0
  5  6  1  0  0  0  0
  5 22  1  0  0  0  0
  5 23  1  0  0  0  0
  6  7  1  0  0  0  0
  6 24  1  0  0  0  0
  6 25  1  0  0  0  0
  7  8  1  0  0  0  0
  7 26  1  0  0  0  0
  7 27  1  0  0  0  0
  8  9  1  0  0  0  0
  8 28  1  0  0  0  0
  8 29  1  0  0  0  0
  9 10  1  0  0  0  0
  9 30  1  0  0  0  0
  9 31  1  0  0  0  0
 10 11  1  0  0  0  0
 10 32  1  0  0  0  0
 10 33  1  0  0  0  0
 11 12  2  0  0  0  0
 11 34  1  0  0  0  0
 12 13  1  0  0  0  0
 12 35  1  0  0  0  0
 13 14  1  0  0  0  0
 13 36  1  0  0  0  0
 13 37  1  0  0  0  0
 14 15  1  0  0  0  0
 14 38  1  0  0  0  0
 14 39  1  0  0  0  0
 15 16  1  0  0  0  0
 15 40  1  0  0  0  0
 15 41  1  0  0  0  0
 16 17  1  0  0  0  0
 16 42  1  0  0  0  0
 16 43  1  0  0  0  0
 17 18  1  0  0  0  0
 17 44  1  0  0  0  0
 17 45  1  0  0  0  0
 18 46  1  0  0  0  0
 18 47  1  0  0  0  0
 18 48  1  0  0  0  0
M  END
$$$$
/media/chris/experiments/cd1a-new-docking/inputs/ligands/4x6d_2_ligand.pdb
 OpenBabel07012320263D

 48 47  0  0  0  0  0  0  0  0999 V2000
  -43.2308   59.1795   69.2964 C   0  0  0  0  0  0  0  0  0  0  0  0
  -43.9247   59.7057   70.1882 O   0  0  0  0  0  0  0  0  0  0  0  0
  -43.4867   57.7514   68.8835 C   0  0  0  0  0  0  0  0  0  0  0  0
  -42.3316   59.8581   68.7563 O   0  0  0  0  0  0  0  0  0  0  0  0
  -43.1233   57.5839   67.4167 C   0  0  0  0  0  0  0  0  0  0  0  0
  -43.9331   58.5099   66.5271 C   0  0  0  0  0  0  0  0  0  0  0  0
  -45.4106   58.2057   66.7127 C   0  0  0  0  0  0  0  0  0  0  0  0
  -46.2472   59.1068   65.8203 C   0  0  0  0  0  0  0  0  0  0  0  0
  -47.7410   58.8580   65.9770 C   0  0  0  0  0  0  0  0  0  0  0  0
  -48.4570   59.8040   65.0240 C   0  0  0  0  0  0  0  0  0  0  0  0
  -49.9570   59.6540   65.1090 C   0  0  0  0  0  0  0  0  0  0  0  0
  -50.7835   60.8081   65.4966 C   0  0  0  0  0  0  0  0  0  0  0  0
  -50.1051   62.0523   66.0125 C   0  0  0  0  0  0  0  0  0  0  0  0
  -49.1679   62.6325   64.9591 C   0  0  0  0  0  0  0  0  0  0  0  0
  -49.9524   63.0132   63.7037 C   0  0  0  0  0  0  0  0  0  0  0  0
  -49.0408   63.5832   62.6180 C   0  0  0  0  0  0  0  0  0  0  0  0
  -49.8254   63.9817   61.3654 C   0  0  0  0  0  0  0  0  0  0  0  0
  -48.9344   64.5387   60.2582 C   0  0  0  0  0  0  0  0  0  0  0  0
  -44.5212   57.5176   69.0251 H   0  0  0  0  0  0  0  0  0  0  0  0
  -42.8912   57.0919   69.4796 H   0  0  0  0  0  0  0  0  0  0  0  0
  -41.7993   59.4804   68.0841 H   0  0  0  0  0  0  0  0  0  0  0  0
  -43.3122   56.5716   67.1262 H   0  0  0  0  0  0  0  0  0  0  0  0
  -42.0886   57.8303   67.2997 H   0  0  0  0  0  0  0  0  0  0  0  0
  -43.6602   58.3542   65.5043 H   0  0  0  0  0  0  0  0  0  0  0  0
  -43.7373   59.5281   66.7913 H   0  0  0  0  0  0  0  0  0  0  0  0
  -45.6801   58.3716   67.7348 H   0  0  0  0  0  0  0  0  0  0  0  0
  -45.5931   57.1851   66.4481 H   0  0  0  0  0  0  0  0  0  0  0  0
  -45.9748   58.9289   64.8010 H   0  0  0  0  0  0  0  0  0  0  0  0
  -46.0543   60.1191   66.1082 H   0  0  0  0  0  0  0  0  0  0  0  0
  -48.0419   59.0556   66.9846 H   0  0  0  0  0  0  0  0  0  0  0  0
  -47.9820   57.8397   65.7538 H   0  0  0  0  0  0  0  0  0  0  0  0
  -48.1435   59.5908   64.0234 H   0  0  0  0  0  0  0  0  0  0  0  0
  -48.2063   60.8071   65.2994 H   0  0  0  0  0  0  0  0  0  0  0  0
  -50.4004   58.7467   64.8964 H   0  0  0  0  0  0  0  0  0  0  0  0
  -51.8116   60.7668   65.4166 H   0  0  0  0  0  0  0  0  0  0  0  0
  -49.5406   61.8071   66.8878 H   0  0  0  0  0  0  0  0  0  0  0  0
  -50.8537   62.7806   66.2450 H   0  0  0  0  0  0  0  0  0  0  0  0
  -48.4274   61.9031   64.7050 H   0  0  0  0  0  0  0  0  0  0  0  0
  -48.6983   63.5086   65.3553 H   0  0  0  0  0  0  0  0  0  0  0  0
  -50.6851   63.7487   63.9625 H   0  0  0  0  0  0  0  0  0  0  0  0
  -50.4158   62.1286   63.3192 H   0  0  0  0  0  0  0  0  0  0  0  0
  -48.3158   62.8429   62.3512 H   0  0  0  0  0  0  0  0  0  0  0  0
  -48.5697   64.4613   63.0077 H   0  0  0  0  0  0  0  0  0  0  0  0
  -50.5423   64.7289   61.6350 H   0  0  0  0  0  0  0  0  0  0  0  0
  -50.2945   63.0981   60.9859 H   0  0  0  0  0  0  0  0  0  0  0  0
  -48.4477   65.4264   60.6047 H   0  0  0  0  0  0  0  0  0  0  0  0
  -49.5326   64.7710   59.4020 H   0  0  0  0  0  0  0  0  0  0  0  0
  -48.1983   63.8093   59.9918 H   0  0  0  0  0  0  0  0  0  0  0  0
  1  2  2  0  0  0  0
  1  3  1  0  0  0  0
  1  4  1  0  0  0  0
  3  5  1  0  0  0  0
  3 19  1  0  0  0  0
  3 20  1  0  0  0  0
  4 21  1  0  0  0  0
  5  6  1  0  0  0  0
  5 22  1  0  0  0  0
  5 23  1  0  0  0  0
  6  7  1  0  0  0  0
  6 24  1  0  0  0  0
  6 25  1  0  0  0  0
  7  8  1  0  0  0  0
  7 26  1  0  0  0  0
  7 27  1  0  0  0  0
  8  9  1  0  0  0  0
  8 28  1  0  0  0  0
  8 29  1  0  0  0  0
  9 10  1  0  0  0  0
  9 30  1  0  0  0  0
  9 31  1  0  0  0  0
 10 11  1  0  0  0  0
 10 32  1  0  0  0  0
 10 33  1  0  0  0  0
 11 12  2  0  0  0  0
 11 34  1  0  0  0  0
 12 13  1  0  0  0  0
 12 35  1  0  0  0  0
 13 14  1  0  0  0  0
 13 36  1  0  0  0  0
 13 37  1  0  0  0  0
 14 15  1  0  0  0  0
 14 38  1  0  0  0  0
 14 39  1  0  0  0  0
 15 16  1  0  0  0  0
 15 40  1  0  0  0  0
 15 41  1  0  0  0  0
 16 17  1  0  0  0  0
 16 42  1  0  0  0  0
 16 43  1  0  0  0  0
 17 18  1  0  0  0  0
 17 44  1  0  0  0  0
 17 45  1  0  0  0  0
 18 46  1  0  0  0  0
 18 47  1  0  0  0  0
 18 48  1  0  0  0  0
M  END
$$$$
/media/chris/experiments/cd1a-new-docking/inputs/ligands/4x6d_2_ligand.pdb
 OpenBabel07012320263D

 48 47  0  0  0  0  0  0  0  0999 V2000
  -45.3082   56.5653   64.7882 C   0  0  0  0  0  0  0  0  0  0  0  0
  -46.1468   57.2332   64.1523 O   0  0  0  0  0  0  0  0  0  0  0  0
  -43.8361   56.8565   64.6340 C   0  0  0  0  0  0  0  0  0  0  0  0
  -45.7130   55.6624   65.5509 O   0  0  0  0  0  0  0  0  0  0  0  0
  -43.5624   58.2865   65.0721 C   0  0  0  0  0  0  0  0  0  0  0  0
  -43.9331   58.5099   66.5271 C   0  0  0  0  0  0  0  0  0  0  0  0
  -45.4106   58.2057   66.7127 C   0  0  0  0  0  0  0  0  0  0  0  0
  -46.2472   59.1068   65.8203 C   0  0  0  0  0  0  0  0  0  0  0  0
  -47.7410   58.8580   65.9770 C   0  0  0  0  0  0  0  0  0  0  0  0
  -48.4570   59.8040   65.0240 C   0  0  0  0  0  0  0  0  0  0  0  0
  -49.9570   59.6540   65.1090 C   0  0  0  0  0  0  0  0  0  0  0  0
  -50.8212   60.8150   64.8434 C   0  0  0  0  0  0  0  0  0  0  0  0
  -50.1916   62.1787   64.7081 C   0  0  0  0  0  0  0  0  0  0  0  0
  -50.4793   62.7722   63.3334 C   0  0  0  0  0  0  0  0  0  0  0  0
  -49.8223   64.1459   63.2010 C   0  0  0  0  0  0  0  0  0  0  0  0
  -50.3286   65.1199   64.2639 C   0  0  0  0  0  0  0  0  0  0  0  0
  -49.6856   66.5020   64.1238 C   0  0  0  0  0  0  0  0  0  0  0  0
  -50.1623   67.4897   65.1856 C   0  0  0  0  0  0  0  0  0  0  0  0
  -43.5524   56.7353   63.6094 H   0  0  0  0  0  0  0  0  0  0  0  0
  -43.2699   56.1798   65.2392 H   0  0  0  0  0  0  0  0  0  0  0  0
  -45.0980   55.1495   66.0374 H   0  0  0  0  0  0  0  0  0  0  0  0
  -44.1368   58.9518   64.4620 H   0  0  0  0  0  0  0  0  0  0  0  0
  -42.5145   58.4735   64.9629 H   0  0  0  0  0  0  0  0  0  0  0  0
  -43.7398   59.5278   66.7945 H   0  0  0  0  0  0  0  0  0  0  0  0
  -43.3498   57.8664   67.1521 H   0  0  0  0  0  0  0  0  0  0  0  0
  -45.6801   58.3716   67.7348 H   0  0  0  0  0  0  0  0  0  0  0  0
  -45.5931   57.1851   66.4481 H   0  0  0  0  0  0  0  0  0  0  0  0
  -45.9748   58.9289   64.8010 H   0  0  0  0  0  0  0  0  0  0  0  0
  -46.0543   60.1191   66.1082 H   0  0  0  0  0  0  0  0  0  0  0  0
  -48.0419   59.0556   66.9846 H   0  0  0  0  0  0  0  0  0  0  0  0
  -47.9820   57.8397   65.7538 H   0  0  0  0  0  0  0  0  0  0  0  0
  -48.1435   59.5908   64.0234 H   0  0  0  0  0  0  0  0  0  0  0  0
  -48.2063   60.8071   65.2994 H   0  0  0  0  0  0  0  0  0  0  0  0
  -50.3741   58.7419   65.3521 H   0  0  0  0  0  0  0  0  0  0  0  0
  -51.8424   60.6979   64.7512 H   0  0  0  0  0  0  0  0  0  0  0  0
  -49.1332   62.0913   64.8382 H   0  0  0  0  0  0  0  0  0  0  0  0
  -50.6058   62.8240   65.4544 H   0  0  0  0  0  0  0  0  0  0  0  0
  -51.5370   62.8730   63.2066 H   0  0  0  0  0  0  0  0  0  0  0  0
  -50.0808   62.1218   62.5829 H   0  0  0  0  0  0  0  0  0  0  0  0
  -50.0431   64.5440   62.2327 H   0  0  0  0  0  0  0  0  0  0  0  0
  -48.7676   64.0252   63.3349 H   0  0  0  0  0  0  0  0  0  0  0  0
  -50.0968   64.7270   65.2318 H   0  0  0  0  0  0  0  0  0  0  0  0
  -51.3850   65.2310   64.1357 H   0  0  0  0  0  0  0  0  0  0  0  0
  -49.9280   66.8951   63.1586 H   0  0  0  0  0  0  0  0  0  0  0  0
  -48.6302   66.3794   64.2504 H   0  0  0  0  0  0  0  0  0  0  0  0
  -51.2177   67.6365   65.0879 H   0  0  0  0  0  0  0  0  0  0  0  0
  -49.6586   68.4246   65.0549 H   0  0  0  0  0  0  0  0  0  0  0  0
  -49.9449   67.1003   66.1582 H   0  0  0  0  0  0  0  0  0  0  0  0
  1  2  2  0  0  0  0
  1  3  1  0  0  0  0
  1  4  1  0  0  0  0
  3  5  1  0  0  0  0
  3 19  1  0  0  0  0
  3 20  1  0  0  0  0
  4 21  1  0  0  0  0
  5  6  1  0  0  0  0
  5 22  1  0  0  0  0
  5 23  1  0  0  0  0
  6  7  1  0  0  0  0
  6 24  1  0  0  0  0
  6 25  1  0  0  0  0
  7  8  1  0  0  0  0
  7 26  1  0  0  0  0
  7 27  1  0  0  0  0
  8  9  1  0  0  0  0
  8 28  1  0  0  0  0
  8 29  1  0  0  0  0
  9 10  1  0  0  0  0
  9 30  1  0  0  0  0
  9 31  1  0  0  0  0
 10 11  1  0  0  0  0
 10 32  1  0  0  0  0
 10 33  1  0  0  0  0
 11 12  2  0  0  0  0
 11 34  1  0  0  0  0
 12 13  1  0  0  0  0
 12 35  1  0  0  0  0
 13 14  1  0  0  0  0
 13 36  1  0  0  0  0
 13 37  1  0  0  0  0
 14 15  1  0  0  0  0
 14 38  1  0  0  0  0
 14 39  1  0  0  0  0
 15 16  1  0  0  0  0
 15 40  1  0  0  0  0
 15 41  1  0  0  0  0
 16 17  1  0  0  0  0
 16 42  1  0  0  0  0
 16 43  1  0  0  0  0
 17 18  1  0  0  0  0
 17 44  1  0  0  0  0
 17 45  1  0  0  0  0
 18 46  1  0  0  0  0
 18 47  1  0  0  0  0
 18 48  1  0  0  0  0
M  END
$$$$
/media/chris/experiments/cd1a-new-docking/inputs/ligands/4x6d_2_ligand.pdb
 OpenBabel07012320263D

 48 47  0  0  0  0  0  0  0  0999 V2000
  -47.1615   52.3788   65.4746 C   0  0  0  0  0  0  0  0  0  0  0  0
  -46.9340   52.7930   66.6281 O   0  0  0  0  0  0  0  0  0  0  0  0
  -47.8252   53.2816   64.4647 C   0  0  0  0  0  0  0  0  0  0  0  0
  -46.8258   51.2125   65.1782 O   0  0  0  0  0  0  0  0  0  0  0  0
  -47.4618   54.7256   64.7722 C   0  0  0  0  0  0  0  0  0  0  0  0
  -48.1147   55.6897   63.7983 C   0  0  0  0  0  0  0  0  0  0  0  0
  -47.6965   57.1075   64.1518 C   0  0  0  0  0  0  0  0  0  0  0  0
  -48.1197   57.4400   65.5725 C   0  0  0  0  0  0  0  0  0  0  0  0
  -47.7410   58.8580   65.9770 C   0  0  0  0  0  0  0  0  0  0  0  0
  -48.4570   59.8040   65.0240 C   0  0  0  0  0  0  0  0  0  0  0  0
  -49.9570   59.6540   65.1090 C   0  0  0  0  0  0  0  0  0  0  0  0
  -50.7186   59.2616   63.9126 C   0  0  0  0  0  0  0  0  0  0  0  0
  -50.0176   59.2310   62.5777 C   0  0  0  0  0  0  0  0  0  0  0  0
  -50.6306   58.1701   61.6702 C   0  0  0  0  0  0  0  0  0  0  0  0
  -50.5230   56.7906   62.3197 C   0  0  0  0  0  0  0  0  0  0  0  0
  -51.1129   55.6983   61.4289 C   0  0  0  0  0  0  0  0  0  0  0  0
  -51.0227   54.3175   62.0836 C   0  0  0  0  0  0  0  0  0  0  0  0
  -51.7841   54.2350   63.4040 C   0  0  0  0  0  0  0  0  0  0  0  0
  -48.8869   53.1601   64.5189 H   0  0  0  0  0  0  0  0  0  0  0  0
  -47.4910   53.0279   63.4804 H   0  0  0  0  0  0  0  0  0  0  0  0
  -46.9884   50.8829   64.3163 H   0  0  0  0  0  0  0  0  0  0  0  0
  -46.3994   54.8364   64.7098 H   0  0  0  0  0  0  0  0  0  0  0  0
  -47.8148   54.9556   65.7558 H   0  0  0  0  0  0  0  0  0  0  0  0
  -49.1790   55.6021   63.8657 H   0  0  0  0  0  0  0  0  0  0  0  0
  -47.8064   55.4598   62.7998 H   0  0  0  0  0  0  0  0  0  0  0  0
  -48.1623   57.7927   63.4747 H   0  0  0  0  0  0  0  0  0  0  0  0
  -46.6321   57.1868   64.0766 H   0  0  0  0  0  0  0  0  0  0  0  0
  -47.6440   56.7537   66.2417 H   0  0  0  0  0  0  0  0  0  0  0  0
  -49.1857   57.3618   65.6210 H   0  0  0  0  0  0  0  0  0  0  0  0
  -46.6822   58.9911   65.8990 H   0  0  0  0  0  0  0  0  0  0  0  0
  -48.0249   59.0527   66.9901 H   0  0  0  0  0  0  0  0  0  0  0  0
  -48.1435   59.5908   64.0234 H   0  0  0  0  0  0  0  0  0  0  0  0
  -48.2063   60.8071   65.2994 H   0  0  0  0  0  0  0  0  0  0  0  0
  -50.4456   59.8258   66.0016 H   0  0  0  0  0  0  0  0  0  0  0  0
  -51.7171   59.0111   63.9859 H   0  0  0  0  0  0  0  0  0  0  0  0
  -48.9824   59.0073   62.7298 H   0  0  0  0  0  0  0  0  0  0  0  0
  -50.1264   60.1874   62.1104 H   0  0  0  0  0  0  0  0  0  0  0  0
  -50.1101   58.1617   60.7353 H   0  0  0  0  0  0  0  0  0  0  0  0
  -51.6633   58.4012   61.5124 H   0  0  0  0  0  0  0  0  0  0  0  0
  -51.0524   56.8031   63.2495 H   0  0  0  0  0  0  0  0  0  0  0  0
  -49.4863   56.5734   62.4712 H   0  0  0  0  0  0  0  0  0  0  0  0
  -50.5754   55.6784   60.5039 H   0  0  0  0  0  0  0  0  0  0  0  0
  -52.1469   55.9229   61.2693 H   0  0  0  0  0  0  0  0  0  0  0  0
  -49.9928   54.0943   62.2689 H   0  0  0  0  0  0  0  0  0  0  0  0
  -51.4682   53.6140   61.4117 H   0  0  0  0  0  0  0  0  0  0  0  0
  -51.3635   54.9282   64.1022 H   0  0  0  0  0  0  0  0  0  0  0  0
  -51.7093   53.2428   63.7974 H   0  0  0  0  0  0  0  0  0  0  0  0
  -52.8132   54.4762   63.2380 H   0  0  0  0  0  0  0  0  0  0  0  0
  1  2  2  0  0  0  0
  1  3  1  0  0  0  0
  1  4  1  0  0  0  0
  3  5  1  0  0  0  0
  3 19  1  0  0  0  0
  3 20  1  0  0  0  0
  4 21  1  0  0  0  0
  5  6  1  0  0  0  0
  5 22  1  0  0  0  0
  5 23  1  0  0  0  0
  6  7  1  0  0  0  0
  6 24  1  0  0  0  0
  6 25  1  0  0  0  0
  7  8  1  0  0  0  0
  7 26  1  0  0  0  0
  7 27  1  0  0  0  0
  8  9  1  0  0  0  0
  8 28  1  0  0  0  0
  8 29  1  0  0  0  0
  9 10  1  0  0  0  0
  9 30  1  0  0  0  0
  9 31  1  0  0  0  0
 10 11  1  0  0  0  0
 10 32  1  0  0  0  0
 10 33  1  0  0  0  0
 11 12  2  0  0  0  0
 11 34  1  0  0  0  0
 12 13  1  0  0  0  0
 12 35  1  0  0  0  0
 13 14  1  0  0  0  0
 13 36  1  0  0  0  0
 13 37  1  0  0  0  0
 14 15  1  0  0  0  0
 14 38  1  0  0  0  0
 14 39  1  0  0  0  0
 15 16  1  0  0  0  0
 15 40  1  0  0  0  0
 15 41  1  0  0  0  0
 16 17  1  0  0  0  0
 16 42  1  0  0  0  0
 16 43  1  0  0  0  0
 17 18  1  0  0  0  0
 17 44  1  0  0  0  0
 17 45  1  0  0  0  0
 18 46  1  0  0  0  0
 18 47  1  0  0  0  0
 18 48  1  0  0  0  0
M  END
$$$$
/media/chris/experiments/cd1a-new-docking/inputs/ligands/4x6d_2_ligand.pdb
 OpenBabel07012320263D

 48 47  0  0  0  0  0  0  0  0999 V2000
  -42.2422   60.3686   62.8045 C   0  0  0  0  0  0  0  0  0  0  0  0
  -42.7710   61.0857   61.9327 O   0  0  0  0  0  0  0  0  0  0  0  0
  -42.5206   60.6247   64.2647 C   0  0  0  0  0  0  0  0  0  0  0  0
  -41.4884   59.4404   62.4424 O   0  0  0  0  0  0  0  0  0  0  0  0
  -44.0102   60.4644   64.5237 C   0  0  0  0  0  0  0  0  0  0  0  0
  -44.3599   60.7269   65.9774 C   0  0  0  0  0  0  0  0  0  0  0  0
  -45.8552   60.5327   66.1684 C   0  0  0  0  0  0  0  0  0  0  0  0
  -46.2472   59.1068   65.8203 C   0  0  0  0  0  0  0  0  0  0  0  0
  -47.7410   58.8580   65.9770 C   0  0  0  0  0  0  0  0  0  0  0  0
  -48.4570   59.8040   65.0240 C   0  0  0  0  0  0  0  0  0  0  0  0
  -49.9570   59.6540   65.1090 C   0  0  0  0  0  0  0  0  0  0  0  0
  -50.8212   60.8150   64.8434 C   0  0  0  0  0  0  0  0  0  0  0  0
  -50.1916   62.1787   64.7081 C   0  0  0  0  0  0  0  0  0  0  0  0
  -50.7402   63.1337   65.7626 C   0  0  0  0  0  0  0  0  0  0  0  0
  -50.4283   62.6108   67.1647 C   0  0  0  0  0  0  0  0  0  0  0  0
  -51.0354   61.2288   67.4011 C   0  0  0  0  0  0  0  0  0  0  0  0
  -52.5576   61.2390   67.2392 C   0  0  0  0  0  0  0  0  0  0  0  0
  -53.1908   59.8724   67.4874 C   0  0  0  0  0  0  0  0  0  0  0  0
  -42.2181   61.6194   64.5179 H   0  0  0  0  0  0  0  0  0  0  0  0
  -41.9737   59.9266   64.8634 H   0  0  0  0  0  0  0  0  0  0  0  0
  -41.0815   58.8904   63.0826 H   0  0  0  0  0  0  0  0  0  0  0  0
  -44.3000   59.4655   64.2725 H   0  0  0  0  0  0  0  0  0  0  0  0
  -44.5317   61.1786   63.9215 H   0  0  0  0  0  0  0  0  0  0  0  0
  -44.0925   61.7303   66.2354 H   0  0  0  0  0  0  0  0  0  0  0  0
  -43.8235   60.0480   66.6070 H   0  0  0  0  0  0  0  0  0  0  0  0
  -46.3840   61.2104   65.5311 H   0  0  0  0  0  0  0  0  0  0  0  0
  -46.1045   60.7238   67.1913 H   0  0  0  0  0  0  0  0  0  0  0  0
  -45.7183   58.4380   66.4668 H   0  0  0  0  0  0  0  0  0  0  0  0
  -45.9962   58.9421   64.7933 H   0  0  0  0  0  0  0  0  0  0  0  0
  -48.0419   59.0556   66.9846 H   0  0  0  0  0  0  0  0  0  0  0  0
  -47.9820   57.8397   65.7538 H   0  0  0  0  0  0  0  0  0  0  0  0
  -48.1435   59.5908   64.0234 H   0  0  0  0  0  0  0  0  0  0  0  0
  -48.2063   60.8071   65.2994 H   0  0  0  0  0  0  0  0  0  0  0  0
  -50.3741   58.7419   65.3521 H   0  0  0  0  0  0  0  0  0  0  0  0
  -51.8424   60.6979   64.7512 H   0  0  0  0  0  0  0  0  0  0  0  0
  -50.4059   62.5694   63.7353 H   0  0  0  0  0  0  0  0  0  0  0  0
  -49.1348   62.0846   64.8463 H   0  0  0  0  0  0  0  0  0  0  0  0
  -51.8004   63.2182   65.6451 H   0  0  0  0  0  0  0  0  0  0  0  0
  -50.2803   64.0917   65.6379 H   0  0  0  0  0  0  0  0  0  0  0  0
  -50.8277   63.2929   67.8858 H   0  0  0  0  0  0  0  0  0  0  0  0
  -49.3658   62.5291   67.2612 H   0  0  0  0  0  0  0  0  0  0  0  0
  -50.7952   60.9106   68.3940 H   0  0  0  0  0  0  0  0  0  0  0  0
  -50.6288   60.5588   66.6725 H   0  0  0  0  0  0  0  0  0  0  0  0
  -52.7928   61.5483   66.2423 H   0  0  0  0  0  0  0  0  0  0  0  0
  -52.9535   61.9135   67.9695 H   0  0  0  0  0  0  0  0  0  0  0  0
  -52.8159   59.1705   66.7721 H   0  0  0  0  0  0  0  0  0  0  0  0
  -54.2536   59.9487   67.3891 H   0  0  0  0  0  0  0  0  0  0  0  0
  -52.9468   59.5403   68.4748 H   0  0  0  0  0  0  0  0  0  0  0  0
  1  2  2  0  0  0  0
  1  3  1  0  0  0  0
  1  4  1  0  0  0  0
  3  5  1  0  0  0  0
  3 19  1  0  0  0  0
  3 20  1  0  0  0  0
  4 21  1  0  0  0  0
  5  6  1  0  0  0  0
  5 22  1  0  0  0  0
  5 23  1  0  0  0  0
  6  7  1  0  0  0  0
  6 24  1  0  0  0  0
  6 25  1  0  0  0  0
  7  8  1  0  0  0  0
  7 26  1  0  0  0  0
  7 27  1  0  0  0  0
  8  9  1  0  0  0  0
  8 28  1  0  0  0  0
  8 29  1  0  0  0  0
  9 10  1  0  0  0  0
  9 30  1  0  0  0  0
  9 31  1  0  0  0  0
 10 11  1  0  0  0  0
 10 32  1  0  0  0  0
 10 33  1  0  0  0  0
 11 12  2  0  0  0  0
 11 34  1  0  0  0  0
 12 13  1  0  0  0  0
 12 35  1  0  0  0  0
 13 14  1  0  0  0  0
 13 36  1  0  0  0  0
 13 37  1  0  0  0  0
 14 15  1  0  0  0  0
 14 38  1  0  0  0  0
 14 39  1  0  0  0  0
 15 16  1  0  0  0  0
 15 40  1  0  0  0  0
 15 41  1  0  0  0  0
 16 17  1  0  0  0  0
 16 42  1  0  0  0  0
 16 43  1  0  0  0  0
 17 18  1  0  0  0  0
 17 44  1  0  0  0  0
 17 45  1  0  0  0  0
 18 46  1  0  0  0  0
 18 47  1  0  0  0  0
 18 48  1  0  0  0  0
M  END
$$$$
/media/chris/experiments/cd1a-new-docking/inputs/ligands/4x6d_2_ligand.pdb
 OpenBabel07012320263D

 48 47  0  0  0  0  0  0  0  0999 V2000
  -47.5759   53.7285   60.5511 C   0  0  0  0  0  0  0  0  0  0  0  0
  -46.7815   52.7952   60.3239 O   0  0  0  0  0  0  0  0  0  0  0  0
  -48.0665   53.9783   61.9556 C   0  0  0  0  0  0  0  0  0  0  0  0
  -47.9476   54.4462   59.5984 O   0  0  0  0  0  0  0  0  0  0  0  0
  -47.6638   55.3810   62.3820 C   0  0  0  0  0  0  0  0  0  0  0  0
  -48.1147   55.6897   63.7983 C   0  0  0  0  0  0  0  0  0  0  0  0
  -47.6965   57.1075   64.1518 C   0  0  0  0  0  0  0  0  0  0  0  0
  -48.1197   57.4400   65.5725 C   0  0  0  0  0  0  0  0  0  0  0  0
  -47.7410   58.8580   65.9770 C   0  0  0  0  0  0  0  0  0  0  0  0
  -48.4570   59.8040   65.0240 C   0  0  0  0  0  0  0  0  0  0  0  0
  -49.9570   59.6540   65.1090 C   0  0  0  0  0  0  0  0  0  0  0  0
  -50.7833   59.9126   63.9192 C   0  0  0  0  0  0  0  0  0  0  0  0
  -50.1406   60.5325   62.7039 C   0  0  0  0  0  0  0  0  0  0  0  0
  -49.0268   59.6399   62.1677 C   0  0  0  0  0  0  0  0  0  0  0  0
  -49.5893   58.2792   61.7573 C   0  0  0  0  0  0  0  0  0  0  0  0
  -50.2577   57.5659   62.9317 C   0  0  0  0  0  0  0  0  0  0  0  0
  -50.8071   56.1951   62.5287 C   0  0  0  0  0  0  0  0  0  0  0  0
  -51.4956   55.4685   63.6811 C   0  0  0  0  0  0  0  0  0  0  0  0
  -47.6296   53.2626   62.6202 H   0  0  0  0  0  0  0  0  0  0  0  0
  -49.1319   53.8843   61.9869 H   0  0  0  0  0  0  0  0  0  0  0  0
  -48.5445   55.1526   59.7491 H   0  0  0  0  0  0  0  0  0  0  0  0
  -48.1104   56.0879   61.7143 H   0  0  0  0  0  0  0  0  0  0  0  0
  -46.5962   55.4449   62.3510 H   0  0  0  0  0  0  0  0  0  0  0  0
  -47.6587   55.0009   64.4783 H   0  0  0  0  0  0  0  0  0  0  0  0
  -49.1786   55.5984   63.8674 H   0  0  0  0  0  0  0  0  0  0  0  0
  -48.1623   57.7927   63.4747 H   0  0  0  0  0  0  0  0  0  0  0  0
  -46.6321   57.1868   64.0766 H   0  0  0  0  0  0  0  0  0  0  0  0
  -47.6440   56.7537   66.2417 H   0  0  0  0  0  0  0  0  0  0  0  0
  -49.1857   57.3618   65.6210 H   0  0  0  0  0  0  0  0  0  0  0  0
  -46.6822   58.9911   65.8990 H   0  0  0  0  0  0  0  0  0  0  0  0
  -48.0249   59.0527   66.9901 H   0  0  0  0  0  0  0  0  0  0  0  0
  -48.1435   59.5908   64.0234 H   0  0  0  0  0  0  0  0  0  0  0  0
  -48.2063   60.8071   65.2994 H   0  0  0  0  0  0  0  0  0  0  0  0
  -50.4005   59.3715   65.9970 H   0  0  0  0  0  0  0  0  0  0  0  0
  -51.7872   59.6735   63.9164 H   0  0  0  0  0  0  0  0  0  0  0  0
  -49.7302   61.4840   62.9706 H   0  0  0  0  0  0  0  0  0  0  0  0
  -50.8842   60.6484   61.9433 H   0  0  0  0  0  0  0  0  0  0  0  0
  -48.2879   59.5014   62.9291 H   0  0  0  0  0  0  0  0  0  0  0  0
  -48.5873   60.1076   61.3115 H   0  0  0  0  0  0  0  0  0  0  0  0
  -48.7897   57.6697   61.3912 H   0  0  0  0  0  0  0  0  0  0  0  0
  -50.3281   58.4386   61.0000 H   0  0  0  0  0  0  0  0  0  0  0  0
  -51.0647   58.1704   63.2897 H   0  0  0  0  0  0  0  0  0  0  0  0
  -49.5203   57.4171   63.6926 H   0  0  0  0  0  0  0  0  0  0  0  0
  -49.9954   55.5909   62.1806 H   0  0  0  0  0  0  0  0  0  0  0  0
  -51.5404   56.3547   61.7661 H   0  0  0  0  0  0  0  0  0  0  0  0
  -50.7886   55.2919   64.4646 H   0  0  0  0  0  0  0  0  0  0  0  0
  -51.8829   54.5339   63.3329 H   0  0  0  0  0  0  0  0  0  0  0  0
  -52.2979   56.0705   64.0537 H   0  0  0  0  0  0  0  0  0  0  0  0
  1  2  2  0  0  0  0
  1  3  1  0  0  0  0
  1  4  1  0  0  0  0
  3  5  1  0  0  0  0
  3 19  1  0  0  0  0
  3 20  1  0  0  0  0
  4 21  1  0  0  0  0
  5  6  1  0  0  0  0
  5 22  1  0  0  0  0
  5 23  1  0  0  0  0
  6  7  1  0  0  0  0
  6 24  1  0  0  0  0
  6 25  1  0  0  0  0
  7  8  1  0  0  0  0
  7 26  1  0  0  0  0
  7 27  1  0  0  0  0
  8  9  1  0  0  0  0
  8 28  1  0  0  0  0
  8 29  1  0  0  0  0
  9 10  1  0  0  0  0
  9 30  1  0  0  0  0
  9 31  1  0  0  0  0
 10 11  1  0  0  0  0
 10 32  1  0  0  0  0
 10 33  1  0  0  0  0
 11 12  2  0  0  0  0
 11 34  1  0  0  0  0
 12 13  1  0  0  0  0
 12 35  1  0  0  0  0
 13 14  1  0  0  0  0
 13 36  1  0  0  0  0
 13 37  1  0  0  0  0
 14 15  1  0  0  0  0
 14 38  1  0  0  0  0
 14 39  1  0  0  0  0
 15 16  1  0  0  0  0
 15 40  1  0  0  0  0
 15 41  1  0  0  0  0
 16 17  1  0  0  0  0
 16 42  1  0  0  0  0
 16 43  1  0  0  0  0
 17 18  1  0  0  0  0
 17 44  1  0  0  0  0
 17 45  1  0  0  0  0
 18 46  1  0  0  0  0
 18 47  1  0  0  0  0
 18 48  1  0  0  0  0
M  END
$$$$
/media/chris/experiments/cd1a-new-docking/inputs/ligands/4x6d_2_ligand.pdb
 OpenBabel07012320263D

 48 47  0  0  0  0  0  0  0  0999 V2000
  -49.3232   53.1214   64.5425 C   0  0  0  0  0  0  0  0  0  0  0  0
  -50.0689   54.0834   64.2738 O   0  0  0  0  0  0  0  0  0  0  0  0
  -47.8252   53.2816   64.4647 C   0  0  0  0  0  0  0  0  0  0  0  0
  -49.8414   52.0353   64.8783 O   0  0  0  0  0  0  0  0  0  0  0  0
  -47.4618   54.7256   64.7722 C   0  0  0  0  0  0  0  0  0  0  0  0
  -48.1147   55.6897   63.7983 C   0  0  0  0  0  0  0  0  0  0  0  0
  -47.6965   57.1075   64.1518 C   0  0  0  0  0  0  0  0  0  0  0  0
  -48.1197   57.4400   65.5725 C   0  0  0  0  0  0  0  0  0  0  0  0
  -47.7410   58.8580   65.9770 C   0  0  0  0  0  0  0  0  0  0  0  0
  -48.4570   59.8040   65.0240 C   0  0  0  0  0  0  0  0  0  0  0  0
  -49.9570   59.6540   65.1090 C   0  0  0  0  0  0  0  0  0  0  0  0
  -50.7186   59.2616   63.9126 C   0  0  0  0  0  0  0  0  0  0  0  0
  -50.0176   59.2310   62.5777 C   0  0  0  0  0  0  0  0  0  0  0  0
  -49.4561   60.6056   62.2311 C   0  0  0  0  0  0  0  0  0  0  0  0
  -48.4388   61.0435   63.2845 C   0  0  0  0  0  0  0  0  0  0  0  0
  -47.8670   62.4269   62.9781 C   0  0  0  0  0  0  0  0  0  0  0  0
  -46.8348   62.8616   64.0216 C   0  0  0  0  0  0  0  0  0  0  0  0
  -45.6343   61.9219   64.0974 C   0  0  0  0  0  0  0  0  0  0  0  0
  -47.4887   53.0293   63.4808 H   0  0  0  0  0  0  0  0  0  0  0  0
  -47.3563   52.6331   65.1750 H   0  0  0  0  0  0  0  0  0  0  0  0
  -49.2975   51.3005   65.0841 H   0  0  0  0  0  0  0  0  0  0  0  0
  -46.3994   54.8364   64.7098 H   0  0  0  0  0  0  0  0  0  0  0  0
  -47.8148   54.9556   65.7558 H   0  0  0  0  0  0  0  0  0  0  0  0
  -49.1790   55.6021   63.8657 H   0  0  0  0  0  0  0  0  0  0  0  0
  -47.8064   55.4598   62.7998 H   0  0  0  0  0  0  0  0  0  0  0  0
  -48.1623   57.7927   63.4747 H   0  0  0  0  0  0  0  0  0  0  0  0
  -46.6321   57.1868   64.0766 H   0  0  0  0  0  0  0  0  0  0  0  0
  -47.6440   56.7537   66.2417 H   0  0  0  0  0  0  0  0  0  0  0  0
  -49.1857   57.3618   65.6210 H   0  0  0  0  0  0  0  0  0  0  0  0
  -46.6822   58.9911   65.8990 H   0  0  0  0  0  0  0  0  0  0  0  0
  -48.0249   59.0527   66.9901 H   0  0  0  0  0  0  0  0  0  0  0  0
  -48.1435   59.5908   64.0234 H   0  0  0  0  0  0  0  0  0  0  0  0
  -48.2063   60.8071   65.2994 H   0  0  0  0  0  0  0  0  0  0  0  0
  -50.4456   59.8258   66.0016 H   0  0  0  0  0  0  0  0  0  0  0  0
  -51.7171   59.0111   63.9859 H   0  0  0  0  0  0  0  0  0  0  0  0
  -50.7149   58.9358   61.8217 H   0  0  0  0  0  0  0  0  0  0  0  0
  -49.2086   58.5327   62.6303 H   0  0  0  0  0  0  0  0  0  0  0  0
  -50.2562   61.3153   62.1965 H   0  0  0  0  0  0  0  0  0  0  0  0
  -48.9710   60.5536   61.2788 H   0  0  0  0  0  0  0  0  0  0  0  0
  -47.6375   60.3348   63.3083 H   0  0  0  0  0  0  0  0  0  0  0  0
  -48.9374   61.0909   64.2300 H   0  0  0  0  0  0  0  0  0  0  0  0
  -48.6673   63.1371   62.9663 H   0  0  0  0  0  0  0  0  0  0  0  0
  -47.3784   62.3808   62.0273 H   0  0  0  0  0  0  0  0  0  0  0  0
  -47.3090   62.8878   64.9805 H   0  0  0  0  0  0  0  0  0  0  0  0
  -46.4706   63.8248   63.7309 H   0  0  0  0  0  0  0  0  0  0  0  0
  -45.9633   60.9457   64.3867 H   0  0  0  0  0  0  0  0  0  0  0  0
  -44.9369   62.2918   64.8197 H   0  0  0  0  0  0  0  0  0  0  0  0
  -45.1613   61.8695   63.1391 H   0  0  0  0  0  0  0  0  0  0  0  0
  1  2  2  0  0  0  0
  1  3  1  0  0  0  0
  1  4  1  0  0  0  0
  3  5  1  0  0  0  0
  3 19  1  0  0  0  0
  3 20  1  0  0  0  0
  4 21  1  0  0  0  0
  5  6  1  0  0  0  0
  5 22  1  0  0  0  0
  5 23  1  0  0  0  0
  6  7  1  0  0  0  0
  6 24  1  0  0  0  0
  6 25  1  0  0  0  0
  7  8  1  0  0  0  0
  7 26  1  0  0  0  0
  7 27  1  0  0  0  0
  8  9  1  0  0  0  0
  8 28  1  0  0  0  0
  8 29  1  0  0  0  0
  9 10  1  0  0  0  0
  9 30  1  0  0  0  0
  9 31  1  0  0  0  0
 10 11  1  0  0  0  0
 10 32  1  0  0  0  0
 10 33  1  0  0  0  0
 11 12  2  0  0  0  0
 11 34  1  0  0  0  0
 12 13  1  0  0  0  0
 12 35  1  0  0  0  0
 13 14  1  0  0  0  0
 13 36  1  0  0  0  0
 13 37  1  0  0  0  0
 14 15  1  0  0  0  0
 14 38  1  0  0  0  0
 14 39  1  0  0  0  0
 15 16  1  0  0  0  0
 15 40  1  0  0  0  0
 15 41  1  0  0  0  0
 16 17  1  0  0  0  0
 16 42  1  0  0  0  0
 16 43  1  0  0  0  0
 17 18  1  0  0  0  0
 17 44  1  0  0  0  0
 17 45  1  0  0  0  0
 18 46  1  0  0  0  0
 18 47  1  0  0  0  0
 18 48  1  0  0  0  0
M  END
$$$$
/media/chris/experiments/cd1a-new-docking/inputs/ligands/4x6d_2_ligand.pdb
 OpenBabel07012320263D

 48 47  0  0  0  0  0  0  0  0999 V2000
  -43.2372   59.0578   69.2624 C   0  0  0  0  0  0  0  0  0  0  0  0
  -43.7737   58.7010   70.3295 O   0  0  0  0  0  0  0  0  0  0  0  0
  -43.9372   60.0395   68.3559 C   0  0  0  0  0  0  0  0  0  0  0  0
  -42.1163   58.5910   68.9684 O   0  0  0  0  0  0  0  0  0  0  0  0
  -45.4409   59.8827   68.5178 C   0  0  0  0  0  0  0  0  0  0  0  0
  -46.2061   60.8344   67.6161 C   0  0  0  0  0  0  0  0  0  0  0  0
  -45.8552   60.5327   66.1684 C   0  0  0  0  0  0  0  0  0  0  0  0
  -46.2472   59.1068   65.8203 C   0  0  0  0  0  0  0  0  0  0  0  0
  -47.7410   58.8580   65.9770 C   0  0  0  0  0  0  0  0  0  0  0  0
  -48.4570   59.8040   65.0240 C   0  0  0  0  0  0  0  0  0  0  0  0
  -49.9570   59.6540   65.1090 C   0  0  0  0  0  0  0  0  0  0  0  0
  -50.5394   58.6752   66.0408 C   0  0  0  0  0  0  0  0  0  0  0  0
  -49.6283   57.6907   66.7300 C   0  0  0  0  0  0  0  0  0  0  0  0
  -50.4264   56.7583   67.6347 C   0  0  0  0  0  0  0  0  0  0  0  0
  -49.4916   55.7767   68.3410 C   0  0  0  0  0  0  0  0  0  0  0  0
  -48.7054   54.9270   67.3438 C   0  0  0  0  0  0  0  0  0  0  0  0
  -49.6296   54.1130   66.4346 C   0  0  0  0  0  0  0  0  0  0  0  0
  -50.5387   53.1624   67.2092 C   0  0  0  0  0  0  0  0  0  0  0  0
  -43.6644   59.8458   67.3395 H   0  0  0  0  0  0  0  0  0  0  0  0
  -43.6492   61.0370   68.6145 H   0  0  0  0  0  0  0  0  0  0  0  0
  -41.6967   58.8471   68.1706 H   0  0  0  0  0  0  0  0  0  0  0  0
  -45.7026   60.0838   69.5356 H   0  0  0  0  0  0  0  0  0  0  0  0
  -45.7027   58.8819   68.2445 H   0  0  0  0  0  0  0  0  0  0  0  0
  -45.9364   61.8436   67.8480 H   0  0  0  0  0  0  0  0  0  0  0  0
  -47.2580   60.7090   67.7672 H   0  0  0  0  0  0  0  0  0  0  0  0
  -44.8015   60.6542   66.0274 H   0  0  0  0  0  0  0  0  0  0  0  0
  -46.3888   61.2071   65.5317 H   0  0  0  0  0  0  0  0  0  0  0  0
  -45.7183   58.4380   66.4668 H   0  0  0  0  0  0  0  0  0  0  0  0
  -45.9962   58.9421   64.7933 H   0  0  0  0  0  0  0  0  0  0  0  0
  -48.0419   59.0556   66.9846 H   0  0  0  0  0  0  0  0  0  0  0  0
  -47.9820   57.8397   65.7538 H   0  0  0  0  0  0  0  0  0  0  0  0
  -48.1435   59.5908   64.0234 H   0  0  0  0  0  0  0  0  0  0  0  0
  -48.2063   60.8071   65.2994 H   0  0  0  0  0  0  0  0  0  0  0  0
  -50.5707   60.2349   64.5166 H   0  0  0  0  0  0  0  0  0  0  0  0
  -51.5556   58.6627   66.2199 H   0  0  0  0  0  0  0  0  0  0  0  0
  -48.9146   58.2266   67.3202 H   0  0  0  0  0  0  0  0  0  0  0  0
  -49.1302   57.1046   65.9861 H   0  0  0  0  0  0  0  0  0  0  0  0
  -51.1316   56.2116   67.0441 H   0  0  0  0  0  0  0  0  0  0  0  0
  -50.9392   57.3418   68.3705 H   0  0  0  0  0  0  0  0  0  0  0  0
  -50.0741   55.1303   68.9637 H   0  0  0  0  0  0  0  0  0  0  0  0
  -48.7925   56.3414   68.9218 H   0  0  0  0  0  0  0  0  0  0  0  0
  -48.0728   54.2549   67.8851 H   0  0  0  0  0  0  0  0  0  0  0  0
  -48.1301   55.5860   66.7276 H   0  0  0  0  0  0  0  0  0  0  0  0
  -49.0273   53.5377   65.7628 H   0  0  0  0  0  0  0  0  0  0  0  0
  -50.2579   54.8047   65.9135 H   0  0  0  0  0  0  0  0  0  0  0  0
  -49.9412   52.4542   67.7442 H   0  0  0  0  0  0  0  0  0  0  0  0
  -51.1788   52.6448   66.5256 H   0  0  0  0  0  0  0  0  0  0  0  0
  -51.1334   53.7219   67.9007 H   0  0  0  0  0  0  0  0  0  0  0  0
  1  2  2  0  0  0  0
  1  3  1  0  0  0  0
  1  4  1  0  0  0  0
  3  5  1  0  0  0  0
  3 19  1  0  0  0  0
  3 20  1  0  0  0  0
  4 21  1  0  0  0  0
  5  6  1  0  0  0  0
  5 22  1  0  0  0  0
  5 23  1  0  0  0  0
  6  7  1  0  0  0  0
  6 24  1  0  0  0  0
  6 25  1  0  0  0  0
  7  8  1  0  0  0  0
  7 26  1  0  0  0  0
  7 27  1  0  0  0  0
  8  9  1  0  0  0  0
  8 28  1  0  0  0  0
  8 29  1  0  0  0  0
  9 10  1  0  0  0  0
  9 30  1  0  0  0  0
  9 31  1  0  0  0  0
 10 11  1  0  0  0  0
 10 32  1  0  0  0  0
 10 33  1  0  0  0  0
 11 12  2  0  0  0  0
 11 34  1  0  0  0  0
 12 13  1  0  0  0  0
 12 35  1  0  0  0  0
 13 14  1  0  0  0  0
 13 36  1  0  0  0  0
 13 37  1  0  0  0  0
 14 15  1  0  0  0  0
 14 38  1  0  0  0  0
 14 39  1  0  0  0  0
 15 16  1  0  0  0  0
 15 40  1  0  0  0  0
 15 41  1  0  0  0  0
 16 17  1  0  0  0  0
 16 42  1  0  0  0  0
 16 43  1  0  0  0  0
 17 18  1  0  0  0  0
 17 44  1  0  0  0  0
 17 45  1  0  0  0  0
 18 46  1  0  0  0  0
 18 47  1  0  0  0  0
 18 48  1  0  0  0  0
M  END
$$$$
/media/chris/experiments/cd1a-new-docking/inputs/ligands/4x6d_2_ligand.pdb
 OpenBabel07012320263D

 48 47  0  0  0  0  0  0  0  0999 V2000
  -46.5547   55.6911   68.8906 C   0  0  0  0  0  0  0  0  0  0  0  0
  -46.9372   54.5241   68.6769 O   0  0  0  0  0  0  0  0  0  0  0  0
  -45.1054   56.0595   68.6928 C   0  0  0  0  0  0  0  0  0  0  0  0
  -47.3930   56.5390   69.2637 O   0  0  0  0  0  0  0  0  0  0  0  0
  -44.9128   57.5277   69.0378 C   0  0  0  0  0  0  0  0  0  0  0  0
  -45.7757   58.4272   68.1713 C   0  0  0  0  0  0  0  0  0  0  0  0
  -45.4106   58.2057   66.7127 C   0  0  0  0  0  0  0  0  0  0  0  0
  -46.2472   59.1068   65.8203 C   0  0  0  0  0  0  0  0  0  0  0  0
  -47.7410   58.8580   65.9770 C   0  0  0  0  0  0  0  0  0  0  0  0
  -48.4570   59.8040   65.0240 C   0  0  0  0  0  0  0  0  0  0  0  0
  -49.9570   59.6540   65.1090 C   0  0  0  0  0  0  0  0  0  0  0  0
  -50.8212   60.8150   64.8434 C   0  0  0  0  0  0  0  0  0  0  0  0
  -50.1916   62.1787   64.7081 C   0  0  0  0  0  0  0  0  0  0  0  0
  -50.4793   62.7722   63.3334 C   0  0  0  0  0  0  0  0  0  0  0  0
  -49.9298   61.8601   62.2368 C   0  0  0  0  0  0  0  0  0  0  0  0
  -50.1853   62.4330   60.8436 C   0  0  0  0  0  0  0  0  0  0  0  0
  -49.5116   63.7945   60.6543 C   0  0  0  0  0  0  0  0  0  0  0  0
  -47.9941   63.7332   60.8080 C   0  0  0  0  0  0  0  0  0  0  0  0
  -44.8293   55.8922   67.6727 H   0  0  0  0  0  0  0  0  0  0  0  0
  -44.4906   55.4567   69.3281 H   0  0  0  0  0  0  0  0  0  0  0  0
  -47.1249   57.4214   69.4294 H   0  0  0  0  0  0  0  0  0  0  0  0
  -43.8851   57.7865   68.8902 H   0  0  0  0  0  0  0  0  0  0  0  0
  -45.2021   57.6708   70.0580 H   0  0  0  0  0  0  0  0  0  0  0  0
  -45.6034   59.4503   68.4330 H   0  0  0  0  0  0  0  0  0  0  0  0
  -46.8088   58.1950   68.3251 H   0  0  0  0  0  0  0  0  0  0  0  0
  -45.5932   57.1837   66.4538 H   0  0  0  0  0  0  0  0  0  0  0  0
  -44.3757   58.4386   66.5723 H   0  0  0  0  0  0  0  0  0  0  0  0
  -45.9748   58.9289   64.8010 H   0  0  0  0  0  0  0  0  0  0  0  0
  -46.0543   60.1191   66.1082 H   0  0  0  0  0  0  0  0  0  0  0  0
  -48.0419   59.0556   66.9846 H   0  0  0  0  0  0  0  0  0  0  0  0
  -47.9820   57.8397   65.7538 H   0  0  0  0  0  0  0  0  0  0  0  0
  -48.1435   59.5908   64.0234 H   0  0  0  0  0  0  0  0  0  0  0  0
  -48.2063   60.8071   65.2994 H   0  0  0  0  0  0  0  0  0  0  0  0
  -50.3741   58.7419   65.3521 H   0  0  0  0  0  0  0  0  0  0  0  0
  -51.8424   60.6979   64.7512 H   0  0  0  0  0  0  0  0  0  0  0  0
  -49.1332   62.0913   64.8382 H   0  0  0  0  0  0  0  0  0  0  0  0
  -50.6058   62.8240   65.4544 H   0  0  0  0  0  0  0  0  0  0  0  0
  -50.0144   63.7330   63.2592 H   0  0  0  0  0  0  0  0  0  0  0  0
  -51.5379   62.8669   63.2095 H   0  0  0  0  0  0  0  0  0  0  0  0
  -50.4046   60.9040   62.3109 H   0  0  0  0  0  0  0  0  0  0  0  0
  -48.8720   61.7747   62.3733 H   0  0  0  0  0  0  0  0  0  0  0  0
  -51.2401   62.5466   60.7043 H   0  0  0  0  0  0  0  0  0  0  0  0
  -49.7722   61.7558   60.1255 H   0  0  0  0  0  0  0  0  0  0  0  0
  -49.9015   64.4728   61.3842 H   0  0  0  0  0  0  0  0  0  0  0  0
  -49.7202   64.1199   59.6565 H   0  0  0  0  0  0  0  0  0  0  0  0
  -47.7487   63.4101   61.7980 H   0  0  0  0  0  0  0  0  0  0  0  0
  -47.5788   64.7043   60.6365 H   0  0  0  0  0  0  0  0  0  0  0  0
  -47.5913   63.0424   60.0971 H   0  0  0  0  0  0  0  0  0  0  0  0
  1  2  2  0  0  0  0
  1  3  1  0  0  0  0
  1  4  1  0  0  0  0
  3  5  1  0  0  0  0
  3 19  1  0  0  0  0
  3 20  1  0  0  0  0
  4 21  1  0  0  0  0
  5  6  1  0  0  0  0
  5 22  1  0  0  0  0
  5 23  1  0  0  0  0
  6  7  1  0  0  0  0
  6 24  1  0  0  0  0
  6 25  1  0  0  0  0
  7  8  1  0  0  0  0
  7 26  1  0  0  0  0
  7 27  1  0  0  0  0
  8  9  1  0  0  0  0
  8 28  1  0  0  0  0
  8 29  1  0  0  0  0
  9 10  1  0  0  0  0
  9 30  1  0  0  0  0
  9 31  1  0  0  0  0
 10 11  1  0  0  0  0
 10 32  1  0  0  0  0
 10 33  1  0  0  0  0
 11 12  2  0  0  0  0
 11 34  1  0  0  0  0
 12 13  1  0  0  0  0
 12 35  1  0  0  0  0
 13 14  1  0  0  0  0
 13 36  1  0  0  0  0
 13 37  1  0  0  0  0
 14 15  1  0  0  0  0
 14 38  1  0  0  0  0
 14 39  1  0  0  0  0
 15 16  1  0  0  0  0
 15 40  1  0  0  0  0
 15 41  1  0  0  0  0
 16 17  1  0  0  0  0
 16 42  1  0  0  0  0
 16 43  1  0  0  0  0
 17 18  1  0  0  0  0
 17 44  1  0  0  0  0
 17 45  1  0  0  0  0
 18 46  1  0  0  0  0
 18 47  1  0  0  0  0
 18 48  1  0  0  0  0
M  END
$$$$
/media/chris/experiments/cd1a-new-docking/inputs/ligands/4x6d_2_ligand.pdb
 OpenBabel07012320263D

 48 47  0  0  0  0  0  0  0  0999 V2000
  -46.1256   64.6588   67.3950 C   0  0  0  0  0  0  0  0  0  0  0  0
  -45.7500   64.9264   68.5531 O   0  0  0  0  0  0  0  0  0  0  0  0
  -46.5656   63.2583   67.0479 C   0  0  0  0  0  0  0  0  0  0  0  0
  -46.1328   65.5700   66.5404 O   0  0  0  0  0  0  0  0  0  0  0  0
  -45.8196   62.2687   67.9288 C   0  0  0  0  0  0  0  0  0  0  0  0
  -46.2061   60.8344   67.6161 C   0  0  0  0  0  0  0  0  0  0  0  0
  -45.8552   60.5327   66.1684 C   0  0  0  0  0  0  0  0  0  0  0  0
  -46.2472   59.1068   65.8203 C   0  0  0  0  0  0  0  0  0  0  0  0
  -47.7410   58.8580   65.9770 C   0  0  0  0  0  0  0  0  0  0  0  0
  -48.4570   59.8040   65.0240 C   0  0  0  0  0  0  0  0  0  0  0  0
  -49.9570   59.6540   65.1090 C   0  0  0  0  0  0  0  0  0  0  0  0
  -50.7186   59.2616   63.9126 C   0  0  0  0  0  0  0  0  0  0  0  0
  -50.0176   59.2310   62.5777 C   0  0  0  0  0  0  0  0  0  0  0  0
  -50.0620   57.8305   61.9765 C   0  0  0  0  0  0  0  0  0  0  0  0
  -49.3339   57.8072   60.6327 C   0  0  0  0  0  0  0  0  0  0  0  0
  -49.9571   58.7820   59.6347 C   0  0  0  0  0  0  0  0  0  0  0  0
  -51.4302   58.4618   59.3683 C   0  0  0  0  0  0  0  0  0  0  0  0
  -52.0720   59.4117   58.3604 C   0  0  0  0  0  0  0  0  0  0  0  0
  -46.3466   63.0585   66.0198 H   0  0  0  0  0  0  0  0  0  0  0  0
  -47.6189   63.1613   67.2095 H   0  0  0  0  0  0  0  0  0  0  0  0
  -46.4118   65.3886   65.6645 H   0  0  0  0  0  0  0  0  0  0  0  0
  -46.0501   62.4743   68.9532 H   0  0  0  0  0  0  0  0  0  0  0  0
  -44.7720   62.3798   67.7412 H   0  0  0  0  0  0  0  0  0  0  0  0
  -47.2579   60.7056   67.7648 H   0  0  0  0  0  0  0  0  0  0  0  0
  -45.6762   60.1674   68.2635 H   0  0  0  0  0  0  0  0  0  0  0  0
  -44.8015   60.6542   66.0274 H   0  0  0  0  0  0  0  0  0  0  0  0
  -46.3888   61.2071   65.5317 H   0  0  0  0  0  0  0  0  0  0  0  0
  -45.7183   58.4380   66.4668 H   0  0  0  0  0  0  0  0  0  0  0  0
  -45.9962   58.9421   64.7933 H   0  0  0  0  0  0  0  0  0  0  0  0
  -48.0419   59.0556   66.9846 H   0  0  0  0  0  0  0  0  0  0  0  0
  -47.9820   57.8397   65.7538 H   0  0  0  0  0  0  0  0  0  0  0  0
  -48.1435   59.5908   64.0234 H   0  0  0  0  0  0  0  0  0  0  0  0
  -48.2063   60.8071   65.2994 H   0  0  0  0  0  0  0  0  0  0  0  0
  -50.4456   59.8258   66.0016 H   0  0  0  0  0  0  0  0  0  0  0  0
  -51.7171   59.0111   63.9859 H   0  0  0  0  0  0  0  0  0  0  0  0
  -48.9970   59.5239   62.7103 H   0  0  0  0  0  0  0  0  0  0  0  0
  -50.5147   59.9062   61.9130 H   0  0  0  0  0  0  0  0  0  0  0  0
  -51.0818   57.5411   61.8306 H   0  0  0  0  0  0  0  0  0  0  0  0
  -49.5800   57.1488   62.6457 H   0  0  0  0  0  0  0  0  0  0  0  0
  -49.3840   56.8178   60.2284 H   0  0  0  0  0  0  0  0  0  0  0  0
  -48.3191   58.1031   60.7984 H   0  0  0  0  0  0  0  0  0  0  0  0
  -49.4182   58.7243   58.7121 H   0  0  0  0  0  0  0  0  0  0  0  0
  -49.9018   59.7654   60.0528 H   0  0  0  0  0  0  0  0  0  0  0  0
  -51.9667   58.5302   60.2914 H   0  0  0  0  0  0  0  0  0  0  0  0
  -51.4745   57.4763   58.9538 H   0  0  0  0  0  0  0  0  0  0  0  0
  -52.0447   60.4102   58.7440 H   0  0  0  0  0  0  0  0  0  0  0  0
  -53.0882   59.1213   58.1937 H   0  0  0  0  0  0  0  0  0  0  0  0
  -51.5329   59.3695   57.4371 H   0  0  0  0  0  0  0  0  0  0  0  0
  1  2  2  0  0  0  0
  1  3  1  0  0  0  0
  1  4  1  0  0  0  0
  3  5  1  0  0  0  0
  3 19  1  0  0  0  0
  3 20  1  0  0  0  0
  4 21  1  0  0  0  0
  5  6  1  0  0  0  0
  5 22  1  0  0  0  0
  5 23  1  0  0  0  0
  6  7  1  0  0  0  0
  6 24  1  0  0  0  0
  6 25  1  0  0  0  0
  7  8  1  0  0  0  0
  7 26  1  0  0  0  0
  7 27  1  0  0  0  0
  8  9  1  0  0  0  0
  8 28  1  0  0  0  0
  8 29  1  0  0  0  0
  9 10  1  0  0  0  0
  9 30  1  0  0  0  0
  9 31  1  0  0  0  0
 10 11  1  0  0  0  0
 10 32  1  0  0  0  0
 10 33  1  0  0  0  0
 11 12  2  0  0  0  0
 11 34  1  0  0  0  0
 12 13  1  0  0  0  0
 12 35  1  0  0  0  0
 13 14  1  0  0  0  0
 13 36  1  0  0  0  0
 13 37  1  0  0  0  0
 14 15  1  0  0  0  0
 14 38  1  0  0  0  0
 14 39  1  0  0  0  0
 15 16  1  0  0  0  0
 15 40  1  0  0  0  0
 15 41  1  0  0  0  0
 16 17  1  0  0  0  0
 16 42  1  0  0  0  0
 16 43  1  0  0  0  0
 17 18  1  0  0  0  0
 17 44  1  0  0  0  0
 17 45  1  0  0  0  0
 18 46  1  0  0  0  0
 18 47  1  0  0  0  0
 18 48  1  0  0  0  0
M  END
$$$$
/media/chris/experiments/cd1a-new-docking/inputs/ligands/4x6d_2_ligand.pdb
 OpenBabel07012320263D

 48 47  0  0  0  0  0  0  0  0999 V2000
  -49.9479   60.2618   71.4778 C   0  0  0  0  0  0  0  0  0  0  0  0
  -50.3464   60.7710   72.5435 O   0  0  0  0  0  0  0  0  0  0  0  0
  -50.1902   58.7986   71.2024 C   0  0  0  0  0  0  0  0  0  0  0  0
  -49.3540   60.9864   70.6513 O   0  0  0  0  0  0  0  0  0  0  0  0
  -49.5907   58.4398   69.8520 C   0  0  0  0  0  0  0  0  0  0  0  0
  -48.0920   58.6794   69.8201 C   0  0  0  0  0  0  0  0  0  0  0  0
  -47.5633   58.3181   68.4417 C   0  0  0  0  0  0  0  0  0  0  0  0
  -48.2208   59.1879   67.3837 C   0  0  0  0  0  0  0  0  0  0  0  0
  -47.7410   58.8580   65.9770 C   0  0  0  0  0  0  0  0  0  0  0  0
  -48.4570   59.8040   65.0240 C   0  0  0  0  0  0  0  0  0  0  0  0
  -49.9570   59.6540   65.1090 C   0  0  0  0  0  0  0  0  0  0  0  0
  -50.7833   59.9126   63.9192 C   0  0  0  0  0  0  0  0  0  0  0  0
  -50.1406   60.5325   62.7039 C   0  0  0  0  0  0  0  0  0  0  0  0
  -50.2672   59.6101   61.4964 C   0  0  0  0  0  0  0  0  0  0  0  0
  -49.5975   60.2403   60.2755 C   0  0  0  0  0  0  0  0  0  0  0  0
  -49.7202   59.3495   59.0401 C   0  0  0  0  0  0  0  0  0  0  0  0
  -49.0809   57.9763   59.2611 C   0  0  0  0  0  0  0  0  0  0  0  0
  -49.1751   57.0725   58.0346 C   0  0  0  0  0  0  0  0  0  0  0  0
  -51.2426   58.6061   71.1896 H   0  0  0  0  0  0  0  0  0  0  0  0
  -49.7327   58.2075   71.9680 H   0  0  0  0  0  0  0  0  0  0  0  0
  -49.0469   60.6221   69.8444 H   0  0  0  0  0  0  0  0  0  0  0  0
  -50.0537   59.0399   69.0967 H   0  0  0  0  0  0  0  0  0  0  0  0
  -49.7654   57.3989   69.6760 H   0  0  0  0  0  0  0  0  0  0  0  0
  -47.6152   58.0694   70.5586 H   0  0  0  0  0  0  0  0  0  0  0  0
  -47.8855   59.7084   70.0286 H   0  0  0  0  0  0  0  0  0  0  0  0
  -47.7794   57.2901   68.2384 H   0  0  0  0  0  0  0  0  0  0  0  0
  -46.5059   58.4803   68.4195 H   0  0  0  0  0  0  0  0  0  0  0  0
  -47.9938   60.2125   67.5922 H   0  0  0  0  0  0  0  0  0  0  0  0
  -49.2742   59.0031   67.4195 H   0  0  0  0  0  0  0  0  0  0  0  0
  -47.9815   57.8436   65.7361 H   0  0  0  0  0  0  0  0  0  0  0  0
  -46.6800   58.9732   65.9008 H   0  0  0  0  0  0  0  0  0  0  0  0
  -48.1435   59.5908   64.0234 H   0  0  0  0  0  0  0  0  0  0  0  0
  -48.2063   60.8071   65.2994 H   0  0  0  0  0  0  0  0  0  0  0  0
  -50.4005   59.3715   65.9970 H   0  0  0  0  0  0  0  0  0  0  0  0
  -51.7872   59.6735   63.9164 H   0  0  0  0  0  0  0  0  0  0  0  0
  -49.1043   60.7070   62.9053 H   0  0  0  0  0  0  0  0  0  0  0  0
  -50.6371   61.4548   62.4853 H   0  0  0  0  0  0  0  0  0  0  0  0
  -51.3031   59.4452   61.2851 H   0  0  0  0  0  0  0  0  0  0  0  0
  -49.7858   58.6802   61.7165 H   0  0  0  0  0  0  0  0  0  0  0  0
  -48.5606   60.3946   60.4899 H   0  0  0  0  0  0  0  0  0  0  0  0
  -50.0886   61.1679   60.0676 H   0  0  0  0  0  0  0  0  0  0  0  0
  -49.2328   59.8297   58.2175 H   0  0  0  0  0  0  0  0  0  0  0  0
  -50.7609   59.2025   58.8393 H   0  0  0  0  0  0  0  0  0  0  0  0
  -49.5777   57.4959   60.0781 H   0  0  0  0  0  0  0  0  0  0  0  0
  -48.0423   58.1347   59.4641 H   0  0  0  0  0  0  0  0  0  0  0  0
  -50.2040   56.8926   57.8023 H   0  0  0  0  0  0  0  0  0  0  0  0
  -48.6876   56.1422   58.2388 H   0  0  0  0  0  0  0  0  0  0  0  0
  -48.6998   57.5492   57.2029 H   0  0  0  0  0  0  0  0  0  0  0  0
  1  2  2  0  0  0  0
  1  3  1  0  0  0  0
  1  4  1  0  0  0  0
  3  5  1  0  0  0  0
  3 19  1  0  0  0  0
  3 20  1  0  0  0  0
  4 21  1  0  0  0  0
  5  6  1  0  0  0  0
  5 22  1  0  0  0  0
  5 23  1  0  0  0  0
  6  7  1  0  0  0  0
  6 24  1  0  0  0  0
  6 25  1  0  0  0  0
  7  8  1  0  0  0  0
  7 26  1  0  0  0  0
  7 27  1  0  0  0  0
  8  9  1  0  0  0  0
  8 28  1  0  0  0  0
  8 29  1  0  0  0  0
  9 10  1  0  0  0  0
  9 30  1  0  0  0  0
  9 31  1  0  0  0  0
 10 11  1  0  0  0  0
 10 32  1  0  0  0  0
 10 33  1  0  0  0  0
 11 12  2  0  0  0  0
 11 34  1  0  0  0  0
 12 13  1  0  0  0  0
 12 35  1  0  0  0  0
 13 14  1  0  0  0  0
 13 36  1  0  0  0  0
 13 37  1  0  0  0  0
 14 15  1  0  0  0  0
 14 38  1  0  0  0  0
 14 39  1  0  0  0  0
 15 16  1  0  0  0  0
 15 40  1  0  0  0  0
 15 41  1  0  0  0  0
 16 17  1  0  0  0  0
 16 42  1  0  0  0  0
 16 43  1  0  0  0  0
 17 18  1  0  0  0  0
 17 44  1  0  0  0  0
 17 45  1  0  0  0  0
 18 46  1  0  0  0  0
 18 47  1  0  0  0  0
 18 48  1  0  0  0  0
M  END
$$$$
/media/chris/experiments/cd1a-new-docking/inputs/ligands/4x6d_2_ligand.pdb
 OpenBabel07012320263D

 48 47  0  0  0  0  0  0  0  0999 V2000
  -51.3886   54.9565   67.5867 C   0  0  0  0  0  0  0  0  0  0  0  0
  -51.9413   54.5566   68.6299 O   0  0  0  0  0  0  0  0  0  0  0  0
  -49.8843   55.0408   67.5129 C   0  0  0  0  0  0  0  0  0  0  0  0
  -52.1033   55.2775   66.6135 O   0  0  0  0  0  0  0  0  0  0  0  0
  -49.4395   56.4210   67.9701 C   0  0  0  0  0  0  0  0  0  0  0  0
  -47.9310   56.5769   67.9029 C   0  0  0  0  0  0  0  0  0  0  0  0
  -47.4788   56.3899   66.4640 C   0  0  0  0  0  0  0  0  0  0  0  0
  -48.1197   57.4400   65.5725 C   0  0  0  0  0  0  0  0  0  0  0  0
  -47.7410   58.8580   65.9770 C   0  0  0  0  0  0  0  0  0  0  0  0
  -48.4570   59.8040   65.0240 C   0  0  0  0  0  0  0  0  0  0  0  0
  -49.9570   59.6540   65.1090 C   0  0  0  0  0  0  0  0  0  0  0  0
  -50.7186   59.2616   63.9126 C   0  0  0  0  0  0  0  0  0  0  0  0
  -50.0176   59.2310   62.5777 C   0  0  0  0  0  0  0  0  0  0  0  0
  -50.0620   57.8305   61.9765 C   0  0  0  0  0  0  0  0  0  0  0  0
  -49.3883   56.8294   62.9147 C   0  0  0  0  0  0  0  0  0  0  0  0
  -49.3990   55.4155   62.3354 C   0  0  0  0  0  0  0  0  0  0  0  0
  -48.7404   54.4069   63.2800 C   0  0  0  0  0  0  0  0  0  0  0  0
  -48.7230   52.9884   62.7164 C   0  0  0  0  0  0  0  0  0  0  0  0
  -49.5654   54.8775   66.5047 H   0  0  0  0  0  0  0  0  0  0  0  0
  -49.4504   54.2948   68.1453 H   0  0  0  0  0  0  0  0  0  0  0  0
  -51.7066   55.5805   65.8206 H   0  0  0  0  0  0  0  0  0  0  0  0
  -49.7587   56.5710   68.9803 H   0  0  0  0  0  0  0  0  0  0  0  0
  -49.8786   57.1458   67.3170 H   0  0  0  0  0  0  0  0  0  0  0  0
  -47.4660   55.8400   68.5239 H   0  0  0  0  0  0  0  0  0  0  0  0
  -47.6522   57.5513   68.2462 H   0  0  0  0  0  0  0  0  0  0  0  0
  -47.7668   55.4162   66.1266 H   0  0  0  0  0  0  0  0  0  0  0  0
  -46.4148   56.4930   66.4159 H   0  0  0  0  0  0  0  0  0  0  0  0
  -49.1831   57.3384   65.6327 H   0  0  0  0  0  0  0  0  0  0  0  0
  -47.7650   57.2806   64.5757 H   0  0  0  0  0  0  0  0  0  0  0  0
  -46.6822   58.9911   65.8990 H   0  0  0  0  0  0  0  0  0  0  0  0
  -48.0249   59.0527   66.9901 H   0  0  0  0  0  0  0  0  0  0  0  0
  -48.1435   59.5908   64.0234 H   0  0  0  0  0  0  0  0  0  0  0  0
  -48.2063   60.8071   65.2994 H   0  0  0  0  0  0  0  0  0  0  0  0
  -50.4456   59.8258   66.0016 H   0  0  0  0  0  0  0  0  0  0  0  0
  -51.7171   59.0111   63.9859 H   0  0  0  0  0  0  0  0  0  0  0  0
  -48.9970   59.5239   62.7103 H   0  0  0  0  0  0  0  0  0  0  0  0
  -50.5147   59.9062   61.9130 H   0  0  0  0  0  0  0  0  0  0  0  0
  -49.5504   57.8332   61.0368 H   0  0  0  0  0  0  0  0  0  0  0  0
  -51.0834   57.5438   61.8366 H   0  0  0  0  0  0  0  0  0  0  0  0
  -49.9095   56.8250   63.8492 H   0  0  0  0  0  0  0  0  0  0  0  0
  -48.3693   57.1284   63.0451 H   0  0  0  0  0  0  0  0  0  0  0  0
  -48.8674   55.4181   61.4068 H   0  0  0  0  0  0  0  0  0  0  0  0
  -50.4184   55.1222   62.1953 H   0  0  0  0  0  0  0  0  0  0  0  0
  -49.2810   54.4006   64.2034 H   0  0  0  0  0  0  0  0  0  0  0  0
  -47.7236   54.7109   63.4158 H   0  0  0  0  0  0  0  0  0  0  0  0
  -49.7275   52.6513   62.5676 H   0  0  0  0  0  0  0  0  0  0  0  0
  -48.2265   52.3371   63.4050 H   0  0  0  0  0  0  0  0  0  0  0  0
  -48.2027   52.9825   61.7814 H   0  0  0  0  0  0  0  0  0  0  0  0
  1  2  2  0  0  0  0
  1  3  1  0  0  0  0
  1  4  1  0  0  0  0
  3  5  1  0  0  0  0
  3 19  1  0  0  0  0
  3 20  1  0  0  0  0
  4 21  1  0  0  0  0
  5  6  1  0  0  0  0
  5 22  1  0  0  0  0
  5 23  1  0  0  0  0
  6  7  1  0  0  0  0
  6 24  1  0  0  0  0
  6 25  1  0  0  0  0
  7  8  1  0  0  0  0
  7 26  1  0  0  0  0
  7 27  1  0  0  0  0
  8  9  1  0  0  0  0
  8 28  1  0  0  0  0
  8 29  1  0  0  0  0
  9 10  1  0  0  0  0
  9 30  1  0  0  0  0
  9 31  1  0  0  0  0
 10 11  1  0  0  0  0
 10 32  1  0  0  0  0
 10 33  1  0  0  0  0
 11 12  2  0  0  0  0
 11 34  1  0  0  0  0
 12 13  1  0  0  0  0
 12 35  1  0  0  0  0
 13 14  1  0  0  0  0
 13 36  1  0  0  0  0
 13 37  1  0  0  0  0
 14 15  1  0  0  0  0
 14 38  1  0  0  0  0
 14 39  1  0  0  0  0
 15 16  1  0  0  0  0
 15 40  1  0  0  0  0
 15 41  1  0  0  0  0
 16 17  1  0  0  0  0
 16 42  1  0  0  0  0
 16 43  1  0  0  0  0
 17 18  1  0  0  0  0
 17 44  1  0  0  0  0
 17 45  1  0  0  0  0
 18 46  1  0  0  0  0
 18 47  1  0  0  0  0
 18 48  1  0  0  0  0
M  END
$$$$
/media/chris/experiments/cd1a-new-docking/inputs/ligands/4x6d_2_ligand.pdb
 OpenBabel07012320263D

 48 47  0  0  0  0  0  0  0  0999 V2000
  -51.3248   54.8903   67.6735 C   0  0  0  0  0  0  0  0  0  0  0  0
  -50.1622   54.4909   67.4672 O   0  0  0  0  0  0  0  0  0  0  0  0
  -51.9892   55.8225   66.6911 C   0  0  0  0  0  0  0  0  0  0  0  0
  -51.9206   54.5000   68.6999 O   0  0  0  0  0  0  0  0  0  0  0  0
  -51.4369   55.5563   65.2998 C   0  0  0  0  0  0  0  0  0  0  0  0
  -49.9342   55.7639   65.2417 C   0  0  0  0  0  0  0  0  0  0  0  0
  -49.6179   57.1967   65.6381 C   0  0  0  0  0  0  0  0  0  0  0  0
  -48.1197   57.4400   65.5725 C   0  0  0  0  0  0  0  0  0  0  0  0
  -47.7410   58.8580   65.9770 C   0  0  0  0  0  0  0  0  0  0  0  0
  -48.4570   59.8040   65.0240 C   0  0  0  0  0  0  0  0  0  0  0  0
  -49.9570   59.6540   65.1090 C   0  0  0  0  0  0  0  0  0  0  0  0
  -50.7188   60.4801   66.0590 C   0  0  0  0  0  0  0  0  0  0  0  0
  -49.9693   61.2990   67.0798 C   0  0  0  0  0  0  0  0  0  0  0  0
  -50.7922   61.4588   68.3534 C   0  0  0  0  0  0  0  0  0  0  0  0
  -51.0829   60.0915   68.9717 C   0  0  0  0  0  0  0  0  0  0  0  0
  -51.9220   60.2123   70.2429 C   0  0  0  0  0  0  0  0  0  0  0  0
  -52.2006   58.8460   70.8746 C   0  0  0  0  0  0  0  0  0  0  0  0
  -52.9461   57.8990   69.9379 C   0  0  0  0  0  0  0  0  0  0  0  0
  -51.7890   56.8365   66.9680 H   0  0  0  0  0  0  0  0  0  0  0  0
  -53.0463   55.6575   66.6966 H   0  0  0  0  0  0  0  0  0  0  0  0
  -52.7950   54.7891   68.8726 H   0  0  0  0  0  0  0  0  0  0  0  0
  -51.9059   56.2237   64.6073 H   0  0  0  0  0  0  0  0  0  0  0  0
  -51.6421   54.5365   65.0494 H   0  0  0  0  0  0  0  0  0  0  0  0
  -49.5849   55.5813   64.2470 H   0  0  0  0  0  0  0  0  0  0  0  0
  -49.4491   55.0870   65.9136 H   0  0  0  0  0  0  0  0  0  0  0  0
  -49.9611   57.3712   66.6364 H   0  0  0  0  0  0  0  0  0  0  0  0
  -50.1101   57.8633   64.9611 H   0  0  0  0  0  0  0  0  0  0  0  0
  -47.7878   57.2690   64.5698 H   0  0  0  0  0  0  0  0  0  0  0  0
  -47.6509   56.7692   66.2619 H   0  0  0  0  0  0  0  0  0  0  0  0
  -46.6822   58.9911   65.8990 H   0  0  0  0  0  0  0  0  0  0  0  0
  -48.0249   59.0527   66.9901 H   0  0  0  0  0  0  0  0  0  0  0  0
  -48.1435   59.5908   64.0234 H   0  0  0  0  0  0  0  0  0  0  0  0
  -48.2063   60.8071   65.2994 H   0  0  0  0  0  0  0  0  0  0  0  0
  -50.4455   58.9755   64.5039 H   0  0  0  0  0  0  0  0  0  0  0  0
  -51.7502   60.4989   66.0272 H   0  0  0  0  0  0  0  0  0  0  0  0
  -49.7632   62.2662   66.6713 H   0  0  0  0  0  0  0  0  0  0  0  0
  -49.0566   60.7953   67.3213 H   0  0  0  0  0  0  0  0  0  0  0  0
  -51.7166   61.9436   68.1180 H   0  0  0  0  0  0  0  0  0  0  0  0
  -50.2381   62.0473   69.0545 H   0  0  0  0  0  0  0  0  0  0  0  0
  -50.1552   59.6157   69.2126 H   0  0  0  0  0  0  0  0  0  0  0  0
  -51.6365   59.5149   68.2604 H   0  0  0  0  0  0  0  0  0  0  0  0
  -52.8543   60.6773   69.9991 H   0  0  0  0  0  0  0  0  0  0  0  0
  -51.3718   60.7983   70.9491 H   0  0  0  0  0  0  0  0  0  0  0  0
  -52.7916   58.9910   71.7547 H   0  0  0  0  0  0  0  0  0  0  0  0
  -51.2554   58.3974   71.0989 H   0  0  0  0  0  0  0  0  0  0  0  0
  -53.8995   58.3179   69.6920 H   0  0  0  0  0  0  0  0  0  0  0  0
  -53.0855   56.9550   70.4219 H   0  0  0  0  0  0  0  0  0  0  0  0
  -52.3760   57.7603   69.0431 H   0  0  0  0  0  0  0  0  0  0  0  0
  1  2  2  0  0  0  0
  1  3  1  0  0  0  0
  1  4  1  0  0  0  0
  3  5  1  0  0  0  0
  3 19  1  0  0  0  0
  3 20  1  0  0  0  0
  4 21  1  0  0  0  0
  5  6  1  0  0  0  0
  5 22  1  0  0  0  0
  5 23  1  0  0  0  0
  6  7  1  0  0  0  0
  6 24  1  0  0  0  0
  6 25  1  0  0  0  0
  7  8  1  0  0  0  0
  7 26  1  0  0  0  0
  7 27  1  0  0  0  0
  8  9  1  0  0  0  0
  8 28  1  0  0  0  0
  8 29  1  0  0  0  0
  9 10  1  0  0  0  0
  9 30  1  0  0  0  0
  9 31  1  0  0  0  0
 10 11  1  0  0  0  0
 10 32  1  0  0  0  0
 10 33  1  0  0  0  0
 11 12  2  0  0  0  0
 11 34  1  0  0  0  0
 12 13  1  0  0  0  0
 12 35  1  0  0  0  0
 13 14  1  0  0  0  0
 13 36  1  0  0  0  0
 13 37  1  0  0  0  0
 14 15  1  0  0  0  0
 14 38  1  0  0  0  0
 14 39  1  0  0  0  0
 15 16  1  0  0  0  0
 15 40  1  0  0  0  0
 15 41  1  0  0  0  0
 16 17  1  0  0  0  0
 16 42  1  0  0  0  0
 16 43  1  0  0  0  0
 17 18  1  0  0  0  0
 17 44  1  0  0  0  0
 17 45  1  0  0  0  0
 18 46  1  0  0  0  0
 18 47  1  0  0  0  0
 18 48  1  0  0  0  0
M  END
$$$$
/media/chris/experiments/cd1a-new-docking/inputs/ligands/4x6d_2_ligand.pdb
 OpenBabel07012320263D

 48 47  0  0  0  0  0  0  0  0999 V2000
  -43.0897   55.7992   65.8292 C   0  0  0  0  0  0  0  0  0  0  0  0
  -43.5544   54.6750   66.1012 O   0  0  0  0  0  0  0  0  0  0  0  0
  -43.8125   56.7016   64.8603 C   0  0  0  0  0  0  0  0  0  0  0  0
  -42.0252   56.1575   66.3764 O   0  0  0  0  0  0  0  0  0  0  0  0
  -43.5499   58.1507   65.2380 C   0  0  0  0  0  0  0  0  0  0  0  0
  -44.2663   59.1133   64.3081 C   0  0  0  0  0  0  0  0  0  0  0  0
  -45.7632   58.8672   64.4003 C   0  0  0  0  0  0  0  0  0  0  0  0
  -46.2472   59.1068   65.8203 C   0  0  0  0  0  0  0  0  0  0  0  0
  -47.7410   58.8580   65.9770 C   0  0  0  0  0  0  0  0  0  0  0  0
  -48.4570   59.8040   65.0240 C   0  0  0  0  0  0  0  0  0  0  0  0
  -49.9570   59.6540   65.1090 C   0  0  0  0  0  0  0  0  0  0  0  0
  -50.7835   60.8081   65.4966 C   0  0  0  0  0  0  0  0  0  0  0  0
  -50.1051   62.0523   66.0125 C   0  0  0  0  0  0  0  0  0  0  0  0
  -49.2848   61.7422   67.2599 C   0  0  0  0  0  0  0  0  0  0  0  0
  -48.6162   63.0129   67.7839 C   0  0  0  0  0  0  0  0  0  0  0  0
  -47.7702   62.7360   69.0259 C   0  0  0  0  0  0  0  0  0  0  0  0
  -46.6443   61.7394   68.7387 C   0  0  0  0  0  0  0  0  0  0  0  0
  -45.6703   62.2342   67.6726 C   0  0  0  0  0  0  0  0  0  0  0  0
  -44.8634   56.5049   64.9035 H   0  0  0  0  0  0  0  0  0  0  0  0
  -43.4601   56.5189   63.8666 H   0  0  0  0  0  0  0  0  0  0  0  0
  -41.6600   56.9989   66.1849 H   0  0  0  0  0  0  0  0  0  0  0  0
  -42.4976   58.3372   65.1861 H   0  0  0  0  0  0  0  0  0  0  0  0
  -43.9194   58.3086   66.2297 H   0  0  0  0  0  0  0  0  0  0  0  0
  -43.9374   58.9526   63.3026 H   0  0  0  0  0  0  0  0  0  0  0  0
  -44.0471   60.1214   64.5919 H   0  0  0  0  0  0  0  0  0  0  0  0
  -45.9731   57.8557   64.1212 H   0  0  0  0  0  0  0  0  0  0  0  0
  -46.2693   59.5404   63.7404 H   0  0  0  0  0  0  0  0  0  0  0  0
  -46.0386   60.1217   66.0873 H   0  0  0  0  0  0  0  0  0  0  0  0
  -45.7343   58.4185   66.4591 H   0  0  0  0  0  0  0  0  0  0  0  0
  -48.0419   59.0556   66.9846 H   0  0  0  0  0  0  0  0  0  0  0  0
  -47.9820   57.8397   65.7538 H   0  0  0  0  0  0  0  0  0  0  0  0
  -48.1435   59.5908   64.0234 H   0  0  0  0  0  0  0  0  0  0  0  0
  -48.2063   60.8071   65.2994 H   0  0  0  0  0  0  0  0  0  0  0  0
  -50.4004   58.7467   64.8964 H   0  0  0  0  0  0  0  0  0  0  0  0
  -51.8116   60.7668   65.4166 H   0  0  0  0  0  0  0  0  0  0  0  0
  -50.8484   62.7831   66.2539 H   0  0  0  0  0  0  0  0  0  0  0  0
  -49.4492   62.4257   65.2540 H   0  0  0  0  0  0  0  0  0  0  0  0
  -48.5321   61.0215   67.0173 H   0  0  0  0  0  0  0  0  0  0  0  0
  -49.9343   61.3532   68.0160 H   0  0  0  0  0  0  0  0  0  0  0  0
  -49.3741   63.7261   68.0327 H   0  0  0  0  0  0  0  0  0  0  0  0
  -47.9708   63.3900   67.0183 H   0  0  0  0  0  0  0  0  0  0  0  0
  -48.4007   62.3345   69.7915 H   0  0  0  0  0  0  0  0  0  0  0  0
  -47.3256   63.6583   69.3367 H   0  0  0  0  0  0  0  0  0  0  0  0
  -47.0788   60.8207   68.4041 H   0  0  0  0  0  0  0  0  0  0  0  0
  -46.0902   61.6113   69.6450 H   0  0  0  0  0  0  0  0  0  0  0  0
  -46.1927   62.3736   66.7493 H   0  0  0  0  0  0  0  0  0  0  0  0
  -44.8928   61.5116   67.5369 H   0  0  0  0  0  0  0  0  0  0  0  0
  -45.2425   63.1641   67.9843 H   0  0  0  0  0  0  0  0  0  0  0  0
  1  2  2  0  0  0  0
  1  3  1  0  0  0  0
  1  4  1  0  0  0  0
  3  5  1  0  0  0  0
  3 19  1  0  0  0  0
  3 20  1  0  0  0  0
  4 21  1  0  0  0  0
  5  6  1  0  0  0  0
  5 22  1  0  0  0  0
  5 23  1  0  0  0  0
  6  7  1  0  0  0  0
  6 24  1  0  0  0  0
  6 25  1  0  0  0  0
  7  8  1  0  0  0  0
  7 26  1  0  0  0  0
  7 27  1  0  0  0  0
  8  9  1  0  0  0  0
  8 28  1  0  0  0  0
  8 29  1  0  0  0  0
  9 10  1  0  0  0  0
  9 30  1  0  0  0  0
  9 31  1  0  0  0  0
 10 11  1  0  0  0  0
 10 32  1  0  0  0  0
 10 33  1  0  0  0  0
 11 12  2  0  0  0  0
 11 34  1  0  0  0  0
 12 13  1  0  0  0  0
 12 35  1  0  0  0  0
 13 14  1  0  0  0  0
 13 36  1  0  0  0  0
 13 37  1  0  0  0  0
 14 15  1  0  0  0  0
 14 38  1  0  0  0  0
 14 39  1  0  0  0  0
 15 16  1  0  0  0  0
 15 40  1  0  0  0  0
 15 41  1  0  0  0  0
 16 17  1  0  0  0  0
 16 42  1  0  0  0  0
 16 43  1  0  0  0  0
 17 18  1  0  0  0  0
 17 44  1  0  0  0  0
 17 45  1  0  0  0  0
 18 46  1  0  0  0  0
 18 47  1  0  0  0  0
 18 48  1  0  0  0  0
M  END
$$$$
/media/chris/experiments/cd1a-new-docking/inputs/ligands/4x6d_2_ligand.pdb
 OpenBabel07012320263D

 48 47  0  0  0  0  0  0  0  0999 V2000
  -45.6016   59.4578   71.1943 C   0  0  0  0  0  0  0  0  0  0  0  0
  -44.4218   59.8574   71.2398 O   0  0  0  0  0  0  0  0  0  0  0  0
  -45.8994   58.0173   70.8598 C   0  0  0  0  0  0  0  0  0  0  0  0
  -46.5203   60.2698   71.4343 O   0  0  0  0  0  0  0  0  0  0  0  0
  -47.4053   57.8076   70.8558 C   0  0  0  0  0  0  0  0  0  0  0  0
  -48.0920   58.6794   69.8201 C   0  0  0  0  0  0  0  0  0  0  0  0
  -47.5633   58.3181   68.4417 C   0  0  0  0  0  0  0  0  0  0  0  0
  -48.2208   59.1879   67.3837 C   0  0  0  0  0  0  0  0  0  0  0  0
  -47.7410   58.8580   65.9770 C   0  0  0  0  0  0  0  0  0  0  0  0
  -48.4570   59.8040   65.0240 C   0  0  0  0  0  0  0  0  0  0  0  0
  -49.9570   59.6540   65.1090 C   0  0  0  0  0  0  0  0  0  0  0  0
  -50.5762   58.3511   64.8186 C   0  0  0  0  0  0  0  0  0  0  0  0
  -49.7261   57.2529   64.2305 C   0  0  0  0  0  0  0  0  0  0  0  0
  -49.1267   57.6890   62.8981 C   0  0  0  0  0  0  0  0  0  0  0  0
  -48.2817   56.5627   62.3031 C   0  0  0  0  0  0  0  0  0  0  0  0
  -47.6501   56.9714   60.9732 C   0  0  0  0  0  0  0  0  0  0  0  0
  -46.8171   55.8399   60.3657 C   0  0  0  0  0  0  0  0  0  0  0  0
  -46.1606   56.2289   59.0437 C   0  0  0  0  0  0  0  0  0  0  0  0
  -45.4509   57.3795   71.5926 H   0  0  0  0  0  0  0  0  0  0  0  0
  -45.5004   57.7817   69.8954 H   0  0  0  0  0  0  0  0  0  0  0  0
  -47.4136   59.9886   71.4051 H   0  0  0  0  0  0  0  0  0  0  0  0
  -47.7915   58.0500   71.8238 H   0  0  0  0  0  0  0  0  0  0  0  0
  -47.5984   56.7842   70.6106 H   0  0  0  0  0  0  0  0  0  0  0  0
  -47.8865   59.7094   70.0247 H   0  0  0  0  0  0  0  0  0  0  0  0
  -49.1493   58.5189   69.8556 H   0  0  0  0  0  0  0  0  0  0  0  0
  -47.7794   57.2901   68.2384 H   0  0  0  0  0  0  0  0  0  0  0  0
  -46.5059   58.4803   68.4195 H   0  0  0  0  0  0  0  0  0  0  0  0
  -47.9938   60.2125   67.5922 H   0  0  0  0  0  0  0  0  0  0  0  0
  -49.2742   59.0031   67.4195 H   0  0  0  0  0  0  0  0  0  0  0  0
  -47.9815   57.8436   65.7361 H   0  0  0  0  0  0  0  0  0  0  0  0
  -46.6800   58.9732   65.9008 H   0  0  0  0  0  0  0  0  0  0  0  0
  -48.1435   59.5908   64.0234 H   0  0  0  0  0  0  0  0  0  0  0  0
  -48.2063   60.8071   65.2994 H   0  0  0  0  0  0  0  0  0  0  0  0
  -50.5450   60.4611   65.3695 H   0  0  0  0  0  0  0  0  0  0  0  0
  -51.5768   58.1913   65.0143 H   0  0  0  0  0  0  0  0  0  0  0  0
  -50.3320   56.3848   64.0755 H   0  0  0  0  0  0  0  0  0  0  0  0
  -48.9295   57.0337   64.9104 H   0  0  0  0  0  0  0  0  0  0  0  0
  -48.5095   58.5492   63.0533 H   0  0  0  0  0  0  0  0  0  0  0  0
  -49.9199   57.9249   62.2199 H   0  0  0  0  0  0  0  0  0  0  0  0
  -48.9061   55.7088   62.1425 H   0  0  0  0  0  0  0  0  0  0  0  0
  -47.4938   56.3380   62.9913 H   0  0  0  0  0  0  0  0  0  0  0  0
  -47.0165   57.8180   61.1368 H   0  0  0  0  0  0  0  0  0  0  0  0
  -48.4390   57.2065   60.2897 H   0  0  0  0  0  0  0  0  0  0  0  0
  -47.4565   54.9991   60.1949 H   0  0  0  0  0  0  0  0  0  0  0  0
  -46.0339   55.6107   61.0577 H   0  0  0  0  0  0  0  0  0  0  0  0
  -46.9177   56.4655   58.3255 H   0  0  0  0  0  0  0  0  0  0  0  0
  -45.5709   55.4117   58.6841 H   0  0  0  0  0  0  0  0  0  0  0  0
  -45.5331   57.0823   59.1946 H   0  0  0  0  0  0  0  0  0  0  0  0
  1  2  2  0  0  0  0
  1  3  1  0  0  0  0
  1  4  1  0  0  0  0
  3  5  1  0  0  0  0
  3 19  1  0  0  0  0
  3 20  1  0  0  0  0
  4 21  1  0  0  0  0
  5  6  1  0  0  0  0
  5 22  1  0  0  0  0
  5 23  1  0  0  0  0
  6  7  1  0  0  0  0
  6 24  1  0  0  0  0
  6 25  1  0  0  0  0
  7  8  1  0  0  0  0
  7 26  1  0  0  0  0
  7 27  1  0  0  0  0
  8  9  1  0  0  0  0
  8 28  1  0  0  0  0
  8 29  1  0  0  0  0
  9 10  1  0  0  0  0
  9 30  1  0  0  0  0
  9 31  1  0  0  0  0
 10 11  1  0  0  0  0
 10 32  1  0  0  0  0
 10 33  1  0  0  0  0
 11 12  2  0  0  0  0
 11 34  1  0  0  0  0
 12 13  1  0  0  0  0
 12 35  1  0  0  0  0
 13 14  1  0  0  0  0
 13 36  1  0  0  0  0
 13 37  1  0  0  0  0
 14 15  1  0  0  0  0
 14 38  1  0  0  0  0
 14 39  1  0  0  0  0
 15 16  1  0  0  0  0
 15 40  1  0  0  0  0
 15 41  1  0  0  0  0
 16 17  1  0  0  0  0
 16 42  1  0  0  0  0
 16 43  1  0  0  0  0
 17 18  1  0  0  0  0
 17 44  1  0  0  0  0
 17 45  1  0  0  0  0
 18 46  1  0  0  0  0
 18 47  1  0  0  0  0
 18 48  1  0  0  0  0
M  END
$$$$
/media/chris/experiments/cd1a-new-docking/inputs/ligands/4x6d_2_ligand.pdb
 OpenBabel07012320263D

 48 47  0  0  0  0  0  0  0  0999 V2000
  -44.3566   61.0984   62.1639 C   0  0  0  0  0  0  0  0  0  0  0  0
  -44.6139   59.9746   61.6900 O   0  0  0  0  0  0  0  0  0  0  0  0
  -44.7320   61.4217   63.5887 C   0  0  0  0  0  0  0  0  0  0  0  0
  -43.7826   61.9387   61.4392 O   0  0  0  0  0  0  0  0  0  0  0  0
  -44.0102   60.4644   64.5237 C   0  0  0  0  0  0  0  0  0  0  0  0
  -44.3599   60.7269   65.9774 C   0  0  0  0  0  0  0  0  0  0  0  0
  -45.8552   60.5327   66.1684 C   0  0  0  0  0  0  0  0  0  0  0  0
  -46.2472   59.1068   65.8203 C   0  0  0  0  0  0  0  0  0  0  0  0
  -47.7410   58.8580   65.9770 C   0  0  0  0  0  0  0  0  0  0  0  0
  -48.4570   59.8040   65.0240 C   0  0  0  0  0  0  0  0  0  0  0  0
  -49.9570   59.6540   65.1090 C   0  0  0  0  0  0  0  0  0  0  0  0
  -50.8212   60.8150   64.8434 C   0  0  0  0  0  0  0  0  0  0  0  0
  -50.1916   62.1787   64.7081 C   0  0  0  0  0  0  0  0  0  0  0  0
  -50.4793   62.7722   63.3334 C   0  0  0  0  0  0  0  0  0  0  0  0
  -49.9298   61.8601   62.2368 C   0  0  0  0  0  0  0  0  0  0  0  0
  -48.4210   61.6597   62.3710 C   0  0  0  0  0  0  0  0  0  0  0  0
  -47.6603   62.9859   62.2939 C   0  0  0  0  0  0  0  0  0  0  0  0
  -46.1482   62.8112   62.4083 C   0  0  0  0  0  0  0  0  0  0  0  0
  -45.7893   61.3152   63.7135 H   0  0  0  0  0  0  0  0  0  0  0  0
  -44.4496   62.4284   63.8159 H   0  0  0  0  0  0  0  0  0  0  0  0
  -43.5808   62.7889   61.7773 H   0  0  0  0  0  0  0  0  0  0  0  0
  -42.9547   60.5834   64.3943 H   0  0  0  0  0  0  0  0  0  0  0  0
  -44.3168   59.4681   64.2821 H   0  0  0  0  0  0  0  0  0  0  0  0
  -44.0925   61.7303   66.2354 H   0  0  0  0  0  0  0  0  0  0  0  0
  -43.8235   60.0480   66.6070 H   0  0  0  0  0  0  0  0  0  0  0  0
  -46.3840   61.2104   65.5311 H   0  0  0  0  0  0  0  0  0  0  0  0
  -46.1045   60.7238   67.1913 H   0  0  0  0  0  0  0  0  0  0  0  0
  -45.7183   58.4380   66.4668 H   0  0  0  0  0  0  0  0  0  0  0  0
  -45.9962   58.9421   64.7933 H   0  0  0  0  0  0  0  0  0  0  0  0
  -48.0419   59.0556   66.9846 H   0  0  0  0  0  0  0  0  0  0  0  0
  -47.9820   57.8397   65.7538 H   0  0  0  0  0  0  0  0  0  0  0  0
  -48.1435   59.5908   64.0234 H   0  0  0  0  0  0  0  0  0  0  0  0
  -48.2063   60.8071   65.2994 H   0  0  0  0  0  0  0  0  0  0  0  0
  -50.3741   58.7419   65.3521 H   0  0  0  0  0  0  0  0  0  0  0  0
  -51.8424   60.6979   64.7512 H   0  0  0  0  0  0  0  0  0  0  0  0
  -49.1332   62.0913   64.8382 H   0  0  0  0  0  0  0  0  0  0  0  0
  -50.6058   62.8240   65.4544 H   0  0  0  0  0  0  0  0  0  0  0  0
  -50.0144   63.7330   63.2592 H   0  0  0  0  0  0  0  0  0  0  0  0
  -51.5379   62.8669   63.2095 H   0  0  0  0  0  0  0  0  0  0  0  0
  -50.1377   62.2997   61.2837 H   0  0  0  0  0  0  0  0  0  0  0  0
  -50.4025   60.9047   62.3300 H   0  0  0  0  0  0  0  0  0  0  0  0
  -48.0850   61.0217   61.5805 H   0  0  0  0  0  0  0  0  0  0  0  0
  -48.2283   61.2219   63.3282 H   0  0  0  0  0  0  0  0  0  0  0  0
  -47.9923   63.6168   63.0918 H   0  0  0  0  0  0  0  0  0  0  0  0
  -47.8620   63.4164   61.3353 H   0  0  0  0  0  0  0  0  0  0  0  0
  -45.9097   62.3812   63.3587 H   0  0  0  0  0  0  0  0  0  0  0  0
  -45.6711   63.7647   62.3185 H   0  0  0  0  0  0  0  0  0  0  0  0
  -45.8037   62.1651   61.6280 H   0  0  0  0  0  0  0  0  0  0  0  0
  1  2  2  0  0  0  0
  1  3  1  0  0  0  0
  1  4  1  0  0  0  0
  3  5  1  0  0  0  0
  3 19  1  0  0  0  0
  3 20  1  0  0  0  0
  4 21  1  0  0  0  0
  5  6  1  0  0  0  0
  5 22  1  0  0  0  0
  5 23  1  0  0  0  0
  6  7  1  0  0  0  0
  6 24  1  0  0  0  0
  6 25  1  0  0  0  0
  7  8  1  0  0  0  0
  7 26  1  0  0  0  0
  7 27  1  0  0  0  0
  8  9  1  0  0  0  0
  8 28  1  0  0  0  0
  8 29  1  0  0  0  0
  9 10  1  0  0  0  0
  9 30  1  0  0  0  0
  9 31  1  0  0  0  0
 10 11  1  0  0  0  0
 10 32  1  0  0  0  0
 10 33  1  0  0  0  0
 11 12  2  0  0  0  0
 11 34  1  0  0  0  0
 12 13  1  0  0  0  0
 12 35  1  0  0  0  0
 13 14  1  0  0  0  0
 13 36  1  0  0  0  0
 13 37  1  0  0  0  0
 14 15  1  0  0  0  0
 14 38  1  0  0  0  0
 14 39  1  0  0  0  0
 15 16  1  0  0  0  0
 15 40  1  0  0  0  0
 15 41  1  0  0  0  0
 16 17  1  0  0  0  0
 16 42  1  0  0  0  0
 16 43  1  0  0  0  0
 17 18  1  0  0  0  0
 17 44  1  0  0  0  0
 17 45  1  0  0  0  0
 18 46  1  0  0  0  0
 18 47  1  0  0  0  0
 18 48  1  0  0  0  0
M  END
$$$$
/media/chris/experiments/cd1a-new-docking/inputs/ligands/4x6d_2_ligand.pdb
 OpenBabel07012320263D

 48 47  0  0  0  0  0  0  0  0999 V2000
  -45.2110   53.8729   65.5166 C   0  0  0  0  0  0  0  0  0  0  0  0
  -45.4500   52.8056   64.9187 O   0  0  0  0  0  0  0  0  0  0  0  0
  -45.7207   54.0831   66.9207 C   0  0  0  0  0  0  0  0  0  0  0  0
  -44.5424   54.7519   64.9323 O   0  0  0  0  0  0  0  0  0  0  0  0
  -47.2371   53.9721   66.9222 C   0  0  0  0  0  0  0  0  0  0  0  0
  -47.8772   54.9973   66.0036 C   0  0  0  0  0  0  0  0  0  0  0  0
  -47.4788   56.3899   66.4640 C   0  0  0  0  0  0  0  0  0  0  0  0
  -48.1197   57.4400   65.5725 C   0  0  0  0  0  0  0  0  0  0  0  0
  -47.7410   58.8580   65.9770 C   0  0  0  0  0  0  0  0  0  0  0  0
  -48.4570   59.8040   65.0240 C   0  0  0  0  0  0  0  0  0  0  0  0
  -49.9570   59.6540   65.1090 C   0  0  0  0  0  0  0  0  0  0  0  0
  -50.5764   59.2356   66.3765 C   0  0  0  0  0  0  0  0  0  0  0  0
  -49.6910   58.7540   67.4984 C   0  0  0  0  0  0  0  0  0  0  0  0
  -50.5250   58.3539   68.7105 C   0  0  0  0  0  0  0  0  0  0  0  0
  -49.6170   57.8842   69.8469 C   0  0  0  0  0  0  0  0  0  0  0  0
  -48.6586   58.9857   70.2973 C   0  0  0  0  0  0  0  0  0  0  0  0
  -49.4070   60.2150   70.8190 C   0  0  0  0  0  0  0  0  0  0  0  0
  -50.2857   59.9068   72.0284 C   0  0  0  0  0  0  0  0  0  0  0  0
  -45.4324   55.0544   67.2647 H   0  0  0  0  0  0  0  0  0  0  0  0
  -45.3047   53.3412   67.5697 H   0  0  0  0  0  0  0  0  0  0  0  0
  -44.3523   55.5609   65.3651 H   0  0  0  0  0  0  0  0  0  0  0  0
  -47.5950   54.1281   67.9184 H   0  0  0  0  0  0  0  0  0  0  0  0
  -47.5000   52.9973   66.5679 H   0  0  0  0  0  0  0  0  0  0  0  0
  -48.9419   54.8978   66.0414 H   0  0  0  0  0  0  0  0  0  0  0  0
  -47.5457   54.8397   64.9986 H   0  0  0  0  0  0  0  0  0  0  0  0
  -46.4143   56.4871   66.4157 H   0  0  0  0  0  0  0  0  0  0  0  0
  -47.8132   56.5343   67.4701 H   0  0  0  0  0  0  0  0  0  0  0  0
  -49.1831   57.3384   65.6327 H   0  0  0  0  0  0  0  0  0  0  0  0
  -47.7650   57.2806   64.5757 H   0  0  0  0  0  0  0  0  0  0  0  0
  -46.6822   58.9911   65.8990 H   0  0  0  0  0  0  0  0  0  0  0  0
  -48.0249   59.0527   66.9901 H   0  0  0  0  0  0  0  0  0  0  0  0
  -48.1435   59.5908   64.0234 H   0  0  0  0  0  0  0  0  0  0  0  0
  -48.2063   60.8071   65.2994 H   0  0  0  0  0  0  0  0  0  0  0  0
  -50.5449   59.8440   64.2824 H   0  0  0  0  0  0  0  0  0  0  0  0
  -51.6008   59.2711   66.4959 H   0  0  0  0  0  0  0  0  0  0  0  0
  -49.0199   59.5391   67.7778 H   0  0  0  0  0  0  0  0  0  0  0  0
  -49.1431   57.8991   67.1610 H   0  0  0  0  0  0  0  0  0  0  0  0
  -51.1875   57.5595   68.4366 H   0  0  0  0  0  0  0  0  0  0  0  0
  -51.0872   59.2019   69.0418 H   0  0  0  0  0  0  0  0  0  0  0  0
  -49.0461   57.0443   69.5099 H   0  0  0  0  0  0  0  0  0  0  0  0
  -50.2349   57.6191   70.6793 H   0  0  0  0  0  0  0  0  0  0  0  0
  -48.0515   59.2773   69.4658 H   0  0  0  0  0  0  0  0  0  0  0  0
  -48.0598   58.5986   71.0951 H   0  0  0  0  0  0  0  0  0  0  0  0
  -50.0272   60.5954   70.0344 H   0  0  0  0  0  0  0  0  0  0  0  0
  -48.6735   60.9297   71.1289 H   0  0  0  0  0  0  0  0  0  0  0  0
  -51.0334   59.1925   71.7534 H   0  0  0  0  0  0  0  0  0  0  0  0
  -50.7581   60.8062   72.3645 H   0  0  0  0  0  0  0  0  0  0  0  0
  -49.6817   59.5058   72.8153 H   0  0  0  0  0  0  0  0  0  0  0  0
  1  2  2  0  0  0  0
  1  3  1  0  0  0  0
  1  4  1  0  0  0  0
  3  5  1  0  0  0  0
  3 19  1  0  0  0  0
  3 20  1  0  0  0  0
  4 21  1  0  0  0  0
  5  6  1  0  0  0  0
  5 22  1  0  0  0  0
  5 23  1  0  0  0  0
  6  7  1  0  0  0  0
  6 24  1  0  0  0  0
  6 25  1  0  0  0  0
  7  8  1  0  0  0  0
  7 26  1  0  0  0  0
  7 27  1  0  0  0  0
  8  9  1  0  0  0  0
  8 28  1  0  0  0  0
  8 29  1  0  0  0  0
  9 10  1  0  0  0  0
  9 30  1  0  0  0  0
  9 31  1  0  0  0  0
 10 11  1  0  0  0  0
 10 32  1  0  0  0  0
 10 33  1  0  0  0  0
 11 12  2  0  0  0  0
 11 34  1  0  0  0  0
 12 13  1  0  0  0  0
 12 35  1  0  0  0  0
 13 14  1  0  0  0  0
 13 36  1  0  0  0  0
 13 37  1  0  0  0  0
 14 15  1  0  0  0  0
 14 38  1  0  0  0  0
 14 39  1  0  0  0  0
 15 16  1  0  0  0  0
 15 40  1  0  0  0  0
 15 41  1  0  0  0  0
 16 17  1  0  0  0  0
 16 42  1  0  0  0  0
 16 43  1  0  0  0  0
 17 18  1  0  0  0  0
 17 44  1  0  0  0  0
 17 45  1  0  0  0  0
 18 46  1  0  0  0  0
 18 47  1  0  0  0  0
 18 48  1  0  0  0  0
M  END
$$$$
/media/chris/experiments/cd1a-new-docking/inputs/ligands/4x6d_2_ligand.pdb
 OpenBabel07012320263D

 48 47  0  0  0  0  0  0  0  0999 V2000
  -44.3267   64.5576   65.9013 C   0  0  0  0  0  0  0  0  0  0  0  0
  -44.3258   65.4787   65.0615 O   0  0  0  0  0  0  0  0  0  0  0  0
  -44.7438   63.1657   65.4959 C   0  0  0  0  0  0  0  0  0  0  0  0
  -43.9732   64.8121   67.0722 O   0  0  0  0  0  0  0  0  0  0  0  0
  -43.9963   62.1531   66.3490 C   0  0  0  0  0  0  0  0  0  0  0  0
  -44.3599   60.7269   65.9774 C   0  0  0  0  0  0  0  0  0  0  0  0
  -45.8552   60.5327   66.1684 C   0  0  0  0  0  0  0  0  0  0  0  0
  -46.2472   59.1068   65.8203 C   0  0  0  0  0  0  0  0  0  0  0  0
  -47.7410   58.8580   65.9770 C   0  0  0  0  0  0  0  0  0  0  0  0
  -48.4570   59.8040   65.0240 C   0  0  0  0  0  0  0  0  0  0  0  0
  -49.9570   59.6540   65.1090 C   0  0  0  0  0  0  0  0  0  0  0  0
  -50.7835   60.8081   65.4966 C   0  0  0  0  0  0  0  0  0  0  0  0
  -50.1051   62.0523   66.0125 C   0  0  0  0  0  0  0  0  0  0  0  0
  -51.1340   63.1184   66.3728 C   0  0  0  0  0  0  0  0  0  0  0  0
  -50.4349   64.3804   66.8777 C   0  0  0  0  0  0  0  0  0  0  0  0
  -51.4378   65.4661   67.2651 C   0  0  0  0  0  0  0  0  0  0  0  0
  -52.3258   65.8697   66.0853 C   0  0  0  0  0  0  0  0  0  0  0  0
  -51.5295   66.4034   64.8974 C   0  0  0  0  0  0  0  0  0  0  0  0
  -44.5088   63.0077   64.4641 H   0  0  0  0  0  0  0  0  0  0  0  0
  -45.7977   63.0494   65.6395 H   0  0  0  0  0  0  0  0  0  0  0  0
  -43.9672   64.1330   67.7179 H   0  0  0  0  0  0  0  0  0  0  0  0
  -44.2428   62.3170   67.3772 H   0  0  0  0  0  0  0  0  0  0  0  0
  -42.9479   62.2844   66.1798 H   0  0  0  0  0  0  0  0  0  0  0  0
  -43.8263   60.0451   66.6061 H   0  0  0  0  0  0  0  0  0  0  0  0
  -44.0983   60.5409   64.9567 H   0  0  0  0  0  0  0  0  0  0  0  0
  -46.3840   61.2104   65.5311 H   0  0  0  0  0  0  0  0  0  0  0  0
  -46.1045   60.7238   67.1913 H   0  0  0  0  0  0  0  0  0  0  0  0
  -45.7183   58.4380   66.4668 H   0  0  0  0  0  0  0  0  0  0  0  0
  -45.9962   58.9421   64.7933 H   0  0  0  0  0  0  0  0  0  0  0  0
  -48.0419   59.0556   66.9846 H   0  0  0  0  0  0  0  0  0  0  0  0
  -47.9820   57.8397   65.7538 H   0  0  0  0  0  0  0  0  0  0  0  0
  -48.1435   59.5908   64.0234 H   0  0  0  0  0  0  0  0  0  0  0  0
  -48.2063   60.8071   65.2994 H   0  0  0  0  0  0  0  0  0  0  0  0
  -50.4004   58.7467   64.8964 H   0  0  0  0  0  0  0  0  0  0  0  0
  -51.8116   60.7668   65.4166 H   0  0  0  0  0  0  0  0  0  0  0  0
  -49.4524   62.4356   65.2562 H   0  0  0  0  0  0  0  0  0  0  0  0
  -49.5486   61.8010   66.8912 H   0  0  0  0  0  0  0  0  0  0  0  0
  -51.7793   62.7417   67.1387 H   0  0  0  0  0  0  0  0  0  0  0  0
  -51.7038   63.3613   65.5003 H   0  0  0  0  0  0  0  0  0  0  0  0
  -49.7980   64.7568   66.1047 H   0  0  0  0  0  0  0  0  0  0  0  0
  -49.8698   64.1225   67.7489 H   0  0  0  0  0  0  0  0  0  0  0  0
  -50.9014   66.3273   67.6049 H   0  0  0  0  0  0  0  0  0  0  0  0
  -52.0683   65.0754   68.0364 H   0  0  0  0  0  0  0  0  0  0  0  0
  -53.0026   66.6312   66.4124 H   0  0  0  0  0  0  0  0  0  0  0  0
  -52.8422   64.9919   65.7572 H   0  0  0  0  0  0  0  0  0  0  0  0
  -50.9985   67.2847   65.1910 H   0  0  0  0  0  0  0  0  0  0  0  0
  -52.1988   66.6402   64.0969 H   0  0  0  0  0  0  0  0  0  0  0  0
  -50.8330   65.6592   64.5717 H   0  0  0  0  0  0  0  0  0  0  0  0
  1  2  2  0  0  0  0
  1  3  1  0  0  0  0
  1  4  1  0  0  0  0
  3  5  1  0  0  0  0
  3 19  1  0  0  0  0
  3 20  1  0  0  0  0
  4 21  1  0  0  0  0
  5  6  1  0  0  0  0
  5 22  1  0  0  0  0
  5 23  1  0  0  0  0
  6  7  1  0  0  0  0
  6 24  1  0  0  0  0
  6 25  1  0  0  0  0
  7  8  1  0  0  0  0
  7 26  1  0  0  0  0
  7 27  1  0  0  0  0
  8  9  1  0  0  0  0
  8 28  1  0  0  0  0
  8 29  1  0  0  0  0
  9 10  1  0  0  0  0
  9 30  1  0  0  0  0
  9 31  1  0  0  0  0
 10 11  1  0  0  0  0
 10 32  1  0  0  0  0
 10 33  1  0  0  0  0
 11 12  2  0  0  0  0
 11 34  1  0  0  0  0
 12 13  1  0  0  0  0
 12 35  1  0  0  0  0
 13 14  1  0  0  0  0
 13 36  1  0  0  0  0
 13 37  1  0  0  0  0
 14 15  1  0  0  0  0
 14 38  1  0  0  0  0
 14 39  1  0  0  0  0
 15 16  1  0  0  0  0
 15 40  1  0  0  0  0
 15 41  1  0  0  0  0
 16 17  1  0  0  0  0
 16 42  1  0  0  0  0
 16 43  1  0  0  0  0
 17 18  1  0  0  0  0
 17 44  1  0  0  0  0
 17 45  1  0  0  0  0
 18 46  1  0  0  0  0
 18 47  1  0  0  0  0
 18 48  1  0  0  0  0
M  END
$$$$
/media/chris/experiments/cd1a-new-docking/inputs/ligands/4x6d_2_ligand.pdb
 OpenBabel07012320263D

 48 47  0  0  0  0  0  0  0  0999 V2000
  -51.3248   54.8903   67.6735 C   0  0  0  0  0  0  0  0  0  0  0  0
  -51.6388   54.9265   68.8792 O   0  0  0  0  0  0  0  0  0  0  0  0
  -51.9892   55.8225   66.6911 C   0  0  0  0  0  0  0  0  0  0  0  0
  -50.4528   54.0753   67.3043 O   0  0  0  0  0  0  0  0  0  0  0  0
  -51.4369   55.5563   65.2998 C   0  0  0  0  0  0  0  0  0  0  0  0
  -49.9342   55.7639   65.2417 C   0  0  0  0  0  0  0  0  0  0  0  0
  -49.6179   57.1967   65.6381 C   0  0  0  0  0  0  0  0  0  0  0  0
  -48.1197   57.4400   65.5725 C   0  0  0  0  0  0  0  0  0  0  0  0
  -47.7410   58.8580   65.9770 C   0  0  0  0  0  0  0  0  0  0  0  0
  -48.4570   59.8040   65.0240 C   0  0  0  0  0  0  0  0  0  0  0  0
  -49.9570   59.6540   65.1090 C   0  0  0  0  0  0  0  0  0  0  0  0
  -50.6441   59.9169   66.3834 C   0  0  0  0  0  0  0  0  0  0  0  0
  -49.8198   60.1160   67.6305 C   0  0  0  0  0  0  0  0  0  0  0  0
  -50.0740   61.4941   68.2314 C   0  0  0  0  0  0  0  0  0  0  0  0
  -49.7199   62.5859   67.2219 C   0  0  0  0  0  0  0  0  0  0  0  0
  -49.9463   63.9832   67.7972 C   0  0  0  0  0  0  0  0  0  0  0  0
  -49.0811   64.2380   69.0341 C   0  0  0  0  0  0  0  0  0  0  0  0
  -47.5856   64.1444   68.7429 C   0  0  0  0  0  0  0  0  0  0  0  0
  -51.7890   56.8365   66.9680 H   0  0  0  0  0  0  0  0  0  0  0  0
  -53.0463   55.6575   66.6966 H   0  0  0  0  0  0  0  0  0  0  0  0
  -50.2031   54.0330   66.4022 H   0  0  0  0  0  0  0  0  0  0  0  0
  -51.9059   56.2237   64.6073 H   0  0  0  0  0  0  0  0  0  0  0  0
  -51.6421   54.5365   65.0494 H   0  0  0  0  0  0  0  0  0  0  0  0
  -49.5849   55.5813   64.2470 H   0  0  0  0  0  0  0  0  0  0  0  0
  -49.4491   55.0870   65.9136 H   0  0  0  0  0  0  0  0  0  0  0  0
  -49.9611   57.3712   66.6364 H   0  0  0  0  0  0  0  0  0  0  0  0
  -50.1101   57.8633   64.9611 H   0  0  0  0  0  0  0  0  0  0  0  0
  -47.7878   57.2690   64.5698 H   0  0  0  0  0  0  0  0  0  0  0  0
  -47.6509   56.7692   66.2619 H   0  0  0  0  0  0  0  0  0  0  0  0
  -46.6822   58.9911   65.8990 H   0  0  0  0  0  0  0  0  0  0  0  0
  -48.0249   59.0527   66.9901 H   0  0  0  0  0  0  0  0  0  0  0  0
  -48.1435   59.5908   64.0234 H   0  0  0  0  0  0  0  0  0  0  0  0
  -48.2063   60.8071   65.2994 H   0  0  0  0  0  0  0  0  0  0  0  0
  -50.4976   59.3686   64.2776 H   0  0  0  0  0  0  0  0  0  0  0  0
  -51.6743   59.9642   66.4232 H   0  0  0  0  0  0  0  0  0  0  0  0
  -48.7825   60.0265   67.3836 H   0  0  0  0  0  0  0  0  0  0  0  0
  -50.0967   59.3720   68.3479 H   0  0  0  0  0  0  0  0  0  0  0  0
  -49.4711   61.6141   69.1072 H   0  0  0  0  0  0  0  0  0  0  0  0
  -51.1100   61.5775   68.4855 H   0  0  0  0  0  0  0  0  0  0  0  0
  -50.3318   62.4658   66.3524 H   0  0  0  0  0  0  0  0  0  0  0  0
  -48.6826   62.4902   66.9775 H   0  0  0  0  0  0  0  0  0  0  0  0
  -50.9764   64.0827   68.0691 H   0  0  0  0  0  0  0  0  0  0  0  0
  -49.6741   64.6981   67.0491 H   0  0  0  0  0  0  0  0  0  0  0  0
  -49.3297   63.5122   69.7800 H   0  0  0  0  0  0  0  0  0  0  0  0
  -49.2816   65.2352   69.3662 H   0  0  0  0  0  0  0  0  0  0  0  0
  -47.3488   63.1564   68.4072 H   0  0  0  0  0  0  0  0  0  0  0  0
  -47.0345   64.3598   69.6344 H   0  0  0  0  0  0  0  0  0  0  0  0
  -47.3253   64.8512   67.9830 H   0  0  0  0  0  0  0  0  0  0  0  0
  1  2  2  0  0  0  0
  1  3  1  0  0  0  0
  1  4  1  0  0  0  0
  3  5  1  0  0  0  0
  3 19  1  0  0  0  0
  3 20  1  0  0  0  0
  4 21  1  0  0  0  0
  5  6  1  0  0  0  0
  5 22  1  0  0  0  0
  5 23  1  0  0  0  0
  6  7  1  0  0  0  0
  6 24  1  0  0  0  0
  6 25  1  0  0  0  0
  7  8  1  0  0  0  0
  7 26  1  0  0  0  0
  7 27  1  0  0  0  0
  8  9  1  0  0  0  0
  8 28  1  0  0  0  0
  8 29  1  0  0  0  0
  9 10  1  0  0  0  0
  9 30  1  0  0  0  0
  9 31  1  0  0  0  0
 10 11  1  0  0  0  0
 10 32  1  0  0  0  0
 10 33  1  0  0  0  0
 11 12  2  0  0  0  0
 11 34  1  0  0  0  0
 12 13  1  0  0  0  0
 12 35  1  0  0  0  0
 13 14  1  0  0  0  0
 13 36  1  0  0  0  0
 13 37  1  0  0  0  0
 14 15  1  0  0  0  0
 14 38  1  0  0  0  0
 14 39  1  0  0  0  0
 15 16  1  0  0  0  0
 15 40  1  0  0  0  0
 15 41  1  0  0  0  0
 16 17  1  0  0  0  0
 16 42  1  0  0  0  0
 16 43  1  0  0  0  0
 17 18  1  0  0  0  0
 17 44  1  0  0  0  0
 17 45  1  0  0  0  0
 18 46  1  0  0  0  0
 18 47  1  0  0  0  0
 18 48  1  0  0  0  0
M  END
$$$$
/media/chris/experiments/cd1a-new-docking/inputs/ligands/4x6d_2_ligand.pdb
 OpenBabel07012320263D

 48 47  0  0  0  0  0  0  0  0999 V2000
  -49.3951   53.2338   64.2157 C   0  0  0  0  0  0  0  0  0  0  0  0
  -49.7519   53.9921   63.2930 O   0  0  0  0  0  0  0  0  0  0  0  0
  -49.8575   53.4924   65.6281 C   0  0  0  0  0  0  0  0  0  0  0  0
  -48.6574   52.2628   63.9438 O   0  0  0  0  0  0  0  0  0  0  0  0
  -49.3891   54.8726   66.0610 C   0  0  0  0  0  0  0  0  0  0  0  0
  -47.8772   54.9973   66.0036 C   0  0  0  0  0  0  0  0  0  0  0  0
  -47.4788   56.3899   66.4640 C   0  0  0  0  0  0  0  0  0  0  0  0
  -48.1197   57.4400   65.5725 C   0  0  0  0  0  0  0  0  0  0  0  0
  -47.7410   58.8580   65.9770 C   0  0  0  0  0  0  0  0  0  0  0  0
  -48.4570   59.8040   65.0240 C   0  0  0  0  0  0  0  0  0  0  0  0
  -49.9570   59.6540   65.1090 C   0  0  0  0  0  0  0  0  0  0  0  0
  -50.8211   60.4770   64.2480 C   0  0  0  0  0  0  0  0  0  0  0  0
  -50.2050   61.6051   63.4592 C   0  0  0  0  0  0  0  0  0  0  0  0
  -50.9694   61.8359   62.1602 C   0  0  0  0  0  0  0  0  0  0  0  0
  -52.4207   62.2112   62.4588 C   0  0  0  0  0  0  0  0  0  0  0  0
  -53.2227   62.4335   61.1773 C   0  0  0  0  0  0  0  0  0  0  0  0
  -54.6725   62.8264   61.4725 C   0  0  0  0  0  0  0  0  0  0  0  0
  -54.7863   64.1253   62.2662 C   0  0  0  0  0  0  0  0  0  0  0  0
  -49.4442   52.7527   66.2814 H   0  0  0  0  0  0  0  0  0  0  0  0
  -50.9255   53.4445   65.6718 H   0  0  0  0  0  0  0  0  0  0  0  0
  -48.3785   51.6815   64.6236 H   0  0  0  0  0  0  0  0  0  0  0  0
  -49.7136   55.0496   67.0651 H   0  0  0  0  0  0  0  0  0  0  0  0
  -49.8083   55.5924   65.3894 H   0  0  0  0  0  0  0  0  0  0  0  0
  -47.5421   54.8416   64.9995 H   0  0  0  0  0  0  0  0  0  0  0  0
  -47.4292   54.2635   66.6406 H   0  0  0  0  0  0  0  0  0  0  0  0
  -46.4143   56.4871   66.4157 H   0  0  0  0  0  0  0  0  0  0  0  0
  -47.8132   56.5343   67.4701 H   0  0  0  0  0  0  0  0  0  0  0  0
  -49.1831   57.3384   65.6327 H   0  0  0  0  0  0  0  0  0  0  0  0
  -47.7650   57.2806   64.5757 H   0  0  0  0  0  0  0  0  0  0  0  0
  -46.6822   58.9911   65.8990 H   0  0  0  0  0  0  0  0  0  0  0  0
  -48.0249   59.0527   66.9901 H   0  0  0  0  0  0  0  0  0  0  0  0
  -48.1435   59.5908   64.0234 H   0  0  0  0  0  0  0  0  0  0  0  0
  -48.2063   60.8071   65.2994 H   0  0  0  0  0  0  0  0  0  0  0  0
  -50.3741   58.9777   65.7676 H   0  0  0  0  0  0  0  0  0  0  0  0
  -51.8332   60.2852   64.1849 H   0  0  0  0  0  0  0  0  0  0  0  0
  -49.1892   61.3593   63.2299 H   0  0  0  0  0  0  0  0  0  0  0  0
  -50.2478   62.4985   64.0465 H   0  0  0  0  0  0  0  0  0  0  0  0
  -50.9495   60.9404   61.5749 H   0  0  0  0  0  0  0  0  0  0  0  0
  -50.5066   62.6361   61.6213 H   0  0  0  0  0  0  0  0  0  0  0  0
  -52.4341   63.1116   63.0367 H   0  0  0  0  0  0  0  0  0  0  0  0
  -52.8700   61.4030   62.9972 H   0  0  0  0  0  0  0  0  0  0  0  0
  -53.2189   61.5291   60.6056 H   0  0  0  0  0  0  0  0  0  0  0  0
  -52.7657   63.2346   60.6348 H   0  0  0  0  0  0  0  0  0  0  0  0
  -55.1311   62.0409   62.0359 H   0  0  0  0  0  0  0  0  0  0  0  0
  -55.1609   62.9805   60.5330 H   0  0  0  0  0  0  0  0  0  0  0  0
  -54.3066   64.0067   63.2152 H   0  0  0  0  0  0  0  0  0  0  0  0
  -55.8189   64.3626   62.4157 H   0  0  0  0  0  0  0  0  0  0  0  0
  -54.3134   64.9173   61.7239 H   0  0  0  0  0  0  0  0  0  0  0  0
  1  2  2  0  0  0  0
  1  3  1  0  0  0  0
  1  4  1  0  0  0  0
  3  5  1  0  0  0  0
  3 19  1  0  0  0  0
  3 20  1  0  0  0  0
  4 21  1  0  0  0  0
  5  6  1  0  0  0  0
  5 22  1  0  0  0  0
  5 23  1  0  0  0  0
  6  7  1  0  0  0  0
  6 24  1  0  0  0  0
  6 25  1  0  0  0  0
  7  8  1  0  0  0  0
  7 26  1  0  0  0  0
  7 27  1  0  0  0  0
  8  9  1  0  0  0  0
  8 28  1  0  0  0  0
  8 29  1  0  0  0  0
  9 10  1  0  0  0  0
  9 30  1  0  0  0  0
  9 31  1  0  0  0  0
 10 11  1  0  0  0  0
 10 32  1  0  0  0  0
 10 33  1  0  0  0  0
 11 12  2  0  0  0  0
 11 34  1  0  0  0  0
 12 13  1  0  0  0  0
 12 35  1  0  0  0  0
 13 14  1  0  0  0  0
 13 36  1  0  0  0  0
 13 37  1  0  0  0  0
 14 15  1  0  0  0  0
 14 38  1  0  0  0  0
 14 39  1  0  0  0  0
 15 16  1  0  0  0  0
 15 40  1  0  0  0  0
 15 41  1  0  0  0  0
 16 17  1  0  0  0  0
 16 42  1  0  0  0  0
 16 43  1  0  0  0  0
 17 18  1  0  0  0  0
 17 44  1  0  0  0  0
 17 45  1  0  0  0  0
 18 46  1  0  0  0  0
 18 47  1  0  0  0  0
 18 48  1  0  0  0  0
M  END
$$$$
/media/chris/experiments/cd1a-new-docking/inputs/ligands/4x6d_2_ligand.pdb
 OpenBabel07012320263D

 48 47  0  0  0  0  0  0  0  0999 V2000
  -47.5759   53.7285   60.5511 C   0  0  0  0  0  0  0  0  0  0  0  0
  -47.9539   54.4630   59.6177 O   0  0  0  0  0  0  0  0  0  0  0  0
  -48.0665   53.9783   61.9556 C   0  0  0  0  0  0  0  0  0  0  0  0
  -46.7935   52.7884   60.2965 O   0  0  0  0  0  0  0  0  0  0  0  0
  -47.6638   55.3810   62.3820 C   0  0  0  0  0  0  0  0  0  0  0  0
  -48.1147   55.6897   63.7983 C   0  0  0  0  0  0  0  0  0  0  0  0
  -47.6965   57.1075   64.1518 C   0  0  0  0  0  0  0  0  0  0  0  0
  -48.1197   57.4400   65.5725 C   0  0  0  0  0  0  0  0  0  0  0  0
  -47.7410   58.8580   65.9770 C   0  0  0  0  0  0  0  0  0  0  0  0
  -48.4570   59.8040   65.0240 C   0  0  0  0  0  0  0  0  0  0  0  0
  -49.9570   59.6540   65.1090 C   0  0  0  0  0  0  0  0  0  0  0  0
  -50.6441   59.9169   66.3834 C   0  0  0  0  0  0  0  0  0  0  0  0
  -49.8198   60.1160   67.6305 C   0  0  0  0  0  0  0  0  0  0  0  0
  -49.5864   58.7874   68.3413 C   0  0  0  0  0  0  0  0  0  0  0  0
  -50.9216   58.1497   68.7247 C   0  0  0  0  0  0  0  0  0  0  0  0
  -51.7852   57.8638   67.4970 C   0  0  0  0  0  0  0  0  0  0  0  0
  -51.1010   56.8922   66.5320 C   0  0  0  0  0  0  0  0  0  0  0  0
  -50.8108   55.5331   67.1633 C   0  0  0  0  0  0  0  0  0  0  0  0
  -47.6296   53.2626   62.6202 H   0  0  0  0  0  0  0  0  0  0  0  0
  -49.1319   53.8843   61.9869 H   0  0  0  0  0  0  0  0  0  0  0  0
  -46.4980   52.2253   60.9846 H   0  0  0  0  0  0  0  0  0  0  0  0
  -48.1104   56.0879   61.7143 H   0  0  0  0  0  0  0  0  0  0  0  0
  -46.5962   55.4449   62.3510 H   0  0  0  0  0  0  0  0  0  0  0  0
  -47.6587   55.0009   64.4783 H   0  0  0  0  0  0  0  0  0  0  0  0
  -49.1786   55.5984   63.8674 H   0  0  0  0  0  0  0  0  0  0  0  0
  -48.1623   57.7927   63.4747 H   0  0  0  0  0  0  0  0  0  0  0  0
  -46.6321   57.1868   64.0766 H   0  0  0  0  0  0  0  0  0  0  0  0
  -47.6440   56.7537   66.2417 H   0  0  0  0  0  0  0  0  0  0  0  0
  -49.1857   57.3618   65.6210 H   0  0  0  0  0  0  0  0  0  0  0  0
  -46.6822   58.9911   65.8990 H   0  0  0  0  0  0  0  0  0  0  0  0
  -48.0249   59.0527   66.9901 H   0  0  0  0  0  0  0  0  0  0  0  0
  -48.1435   59.5908   64.0234 H   0  0  0  0  0  0  0  0  0  0  0  0
  -48.2063   60.8071   65.2994 H   0  0  0  0  0  0  0  0  0  0  0  0
  -50.4976   59.3686   64.2776 H   0  0  0  0  0  0  0  0  0  0  0  0
  -51.6743   59.9642   66.4232 H   0  0  0  0  0  0  0  0  0  0  0  0
  -50.3365   60.7812   68.2904 H   0  0  0  0  0  0  0  0  0  0  0  0
  -48.8722   60.5287   67.3537 H   0  0  0  0  0  0  0  0  0  0  0  0
  -49.0091   58.9570   69.2261 H   0  0  0  0  0  0  0  0  0  0  0  0
  -49.0617   58.1274   67.6824 H   0  0  0  0  0  0  0  0  0  0  0  0
  -51.4507   58.8166   69.3730 H   0  0  0  0  0  0  0  0  0  0  0  0
  -50.7187   57.2198   69.2134 H   0  0  0  0  0  0  0  0  0  0  0  0
  -51.9744   58.7841   66.9851 H   0  0  0  0  0  0  0  0  0  0  0  0
  -52.6968   57.4134   67.8303 H   0  0  0  0  0  0  0  0  0  0  0  0
  -50.1760   57.3241   66.2114 H   0  0  0  0  0  0  0  0  0  0  0  0
  -51.7697   56.7293   65.7127 H   0  0  0  0  0  0  0  0  0  0  0  0
  -50.1424   55.6589   67.9893 H   0  0  0  0  0  0  0  0  0  0  0  0
  -50.3613   54.8904   66.4354 H   0  0  0  0  0  0  0  0  0  0  0  0
  -51.7253   55.0972   67.5077 H   0  0  0  0  0  0  0  0  0  0  0  0
  1  2  2  0  0  0  0
  1  3  1  0  0  0  0
  1  4  1  0  0  0  0
  3  5  1  0  0  0  0
  3 19  1  0  0  0  0
  3 20  1  0  0  0  0
  4 21  1  0  0  0  0
  5  6  1  0  0  0  0
  5 22  1  0  0  0  0
  5 23  1  0  0  0  0
  6  7  1  0  0  0  0
  6 24  1  0  0  0  0
  6 25  1  0  0  0  0
  7  8  1  0  0  0  0
  7 26  1  0  0  0  0
  7 27  1  0  0  0  0
  8  9  1  0  0  0  0
  8 28  1  0  0  0  0
  8 29  1  0  0  0  0
  9 10  1  0  0  0  0
  9 30  1  0  0  0  0
  9 31  1  0  0  0  0
 10 11  1  0  0  0  0
 10 32  1  0  0  0  0
 10 33  1  0  0  0  0
 11 12  2  0  0  0  0
 11 34  1  0  0  0  0
 12 13  1  0  0  0  0
 12 35  1  0  0  0  0
 13 14  1  0  0  0  0
 13 36  1  0  0  0  0
 13 37  1  0  0  0  0
 14 15  1  0  0  0  0
 14 38  1  0  0  0  0
 14 39  1  0  0  0  0
 15 16  1  0  0  0  0
 15 40  1  0  0  0  0
 15 41  1  0  0  0  0
 16 17  1  0  0  0  0
 16 42  1  0  0  0  0
 16 43  1  0  0  0  0
 17 18  1  0  0  0  0
 17 44  1  0  0  0  0
 17 45  1  0  0  0  0
 18 46  1  0  0  0  0
 18 47  1  0  0  0  0
 18 48  1  0  0  0  0
M  END
$$$$
/media/chris/experiments/cd1a-new-docking/inputs/ligands/4x6d_2_ligand.pdb
 OpenBabel07012320263D

 48 47  0  0  0  0  0  0  0  0999 V2000
  -45.0149   59.1222   70.9188 C   0  0  0  0  0  0  0  0  0  0  0  0
  -43.9004   59.4849   71.3433 O   0  0  0  0  0  0  0  0  0  0  0  0
  -45.2389   57.6863   70.5144 C   0  0  0  0  0  0  0  0  0  0  0  0
  -45.9322   59.9669   70.8421 O   0  0  0  0  0  0  0  0  0  0  0  0
  -44.9128   57.5277   69.0378 C   0  0  0  0  0  0  0  0  0  0  0  0
  -45.7757   58.4272   68.1713 C   0  0  0  0  0  0  0  0  0  0  0  0
  -45.4106   58.2057   66.7127 C   0  0  0  0  0  0  0  0  0  0  0  0
  -46.2472   59.1068   65.8203 C   0  0  0  0  0  0  0  0  0  0  0  0
  -47.7410   58.8580   65.9770 C   0  0  0  0  0  0  0  0  0  0  0  0
  -48.4570   59.8040   65.0240 C   0  0  0  0  0  0  0  0  0  0  0  0
  -49.9570   59.6540   65.1090 C   0  0  0  0  0  0  0  0  0  0  0  0
  -50.6439   58.6943   64.2300 C   0  0  0  0  0  0  0  0  0  0  0  0
  -49.8682   58.0413   63.1137 C   0  0  0  0  0  0  0  0  0  0  0  0
  -50.4131   56.6476   62.8211 C   0  0  0  0  0  0  0  0  0  0  0  0
  -49.6089   55.9886   61.7006 C   0  0  0  0  0  0  0  0  0  0  0  0
  -48.1366   55.8319   62.0778 C   0  0  0  0  0  0  0  0  0  0  0  0
  -47.9557   54.9523   63.3175 C   0  0  0  0  0  0  0  0  0  0  0  0
  -48.4895   53.5354   63.1240 C   0  0  0  0  0  0  0  0  0  0  0  0
  -46.2613   57.4213   70.6859 H   0  0  0  0  0  0  0  0  0  0  0  0
  -44.6066   57.0462   71.0936 H   0  0  0  0  0  0  0  0  0  0  0  0
  -46.7770   59.7137   70.5256 H   0  0  0  0  0  0  0  0  0  0  0  0
  -45.0790   56.5096   68.7536 H   0  0  0  0  0  0  0  0  0  0  0  0
  -43.8899   57.8054   68.8910 H   0  0  0  0  0  0  0  0  0  0  0  0
  -45.6034   59.4503   68.4330 H   0  0  0  0  0  0  0  0  0  0  0  0
  -46.8088   58.1950   68.3251 H   0  0  0  0  0  0  0  0  0  0  0  0
  -45.5932   57.1837   66.4538 H   0  0  0  0  0  0  0  0  0  0  0  0
  -44.3757   58.4386   66.5723 H   0  0  0  0  0  0  0  0  0  0  0  0
  -45.9748   58.9289   64.8010 H   0  0  0  0  0  0  0  0  0  0  0  0
  -46.0543   60.1191   66.1082 H   0  0  0  0  0  0  0  0  0  0  0  0
  -48.0419   59.0556   66.9846 H   0  0  0  0  0  0  0  0  0  0  0  0
  -47.9820   57.8397   65.7538 H   0  0  0  0  0  0  0  0  0  0  0  0
  -48.1435   59.5908   64.0234 H   0  0  0  0  0  0  0  0  0  0  0  0
  -48.2063   60.8071   65.2994 H   0  0  0  0  0  0  0  0  0  0  0  0
  -50.4978   60.2216   65.7801 H   0  0  0  0  0  0  0  0  0  0  0  0
  -51.6410   58.4716   64.3753 H   0  0  0  0  0  0  0  0  0  0  0  0
  -48.8400   57.9634   63.3994 H   0  0  0  0  0  0  0  0  0  0  0  0
  -49.9648   58.6400   62.2321 H   0  0  0  0  0  0  0  0  0  0  0  0
  -51.4376   56.7246   62.5221 H   0  0  0  0  0  0  0  0  0  0  0  0
  -50.3334   56.0498   63.7049 H   0  0  0  0  0  0  0  0  0  0  0  0
  -49.6789   56.5942   60.8213 H   0  0  0  0  0  0  0  0  0  0  0  0
  -50.0145   55.0135   61.5283 H   0  0  0  0  0  0  0  0  0  0  0  0
  -47.7256   56.7995   62.2771 H   0  0  0  0  0  0  0  0  0  0  0  0
  -47.6330   55.3601   61.2600 H   0  0  0  0  0  0  0  0  0  0  0  0
  -48.4763   55.4044   64.1358 H   0  0  0  0  0  0  0  0  0  0  0  0
  -46.9053   54.8765   63.5068 H   0  0  0  0  0  0  0  0  0  0  0  0
  -49.5415   53.5737   62.9320 H   0  0  0  0  0  0  0  0  0  0  0  0
  -48.3093   52.9623   64.0094 H   0  0  0  0  0  0  0  0  0  0  0  0
  -47.9921   53.0770   62.2950 H   0  0  0  0  0  0  0  0  0  0  0  0
  1  2  2  0  0  0  0
  1  3  1  0  0  0  0
  1  4  1  0  0  0  0
  3  5  1  0  0  0  0
  3 19  1  0  0  0  0
  3 20  1  0  0  0  0
  4 21  1  0  0  0  0
  5  6  1  0  0  0  0
  5 22  1  0  0  0  0
  5 23  1  0  0  0  0
  6  7  1  0  0  0  0
  6 24  1  0  0  0  0
  6 25  1  0  0  0  0
  7  8  1  0  0  0  0
  7 26  1  0  0  0  0
  7 27  1  0  0  0  0
  8  9  1  0  0  0  0
  8 28  1  0  0  0  0
  8 29  1  0  0  0  0
  9 10  1  0  0  0  0
  9 30  1  0  0  0  0
  9 31  1  0  0  0  0
 10 11  1  0  0  0  0
 10 32  1  0  0  0  0
 10 33  1  0  0  0  0
 11 12  2  0  0  0  0
 11 34  1  0  0  0  0
 12 13  1  0  0  0  0
 12 35  1  0  0  0  0
 13 14  1  0  0  0  0
 13 36  1  0  0  0  0
 13 37  1  0  0  0  0
 14 15  1  0  0  0  0
 14 38  1  0  0  0  0
 14 39  1  0  0  0  0
 15 16  1  0  0  0  0
 15 40  1  0  0  0  0
 15 41  1  0  0  0  0
 16 17  1  0  0  0  0
 16 42  1  0  0  0  0
 16 43  1  0  0  0  0
 17 18  1  0  0  0  0
 17 44  1  0  0  0  0
 17 45  1  0  0  0  0
 18 46  1  0  0  0  0
 18 47  1  0  0  0  0
 18 48  1  0  0  0  0
M  END
$$$$
/media/chris/experiments/cd1a-new-docking/inputs/ligands/4x6d_2_ligand.pdb
 OpenBabel07012320263D

 48 47  0  0  0  0  0  0  0  0999 V2000
  -42.2683   62.2925   65.0706 C   0  0  0  0  0  0  0  0  0  0  0  0
  -41.1959   62.6176   65.6167 O   0  0  0  0  0  0  0  0  0  0  0  0
  -42.4918   60.8661   64.6338 C   0  0  0  0  0  0  0  0  0  0  0  0
  -43.1447   63.1664   64.9004 O   0  0  0  0  0  0  0  0  0  0  0  0
  -43.9755   60.5452   64.7197 C   0  0  0  0  0  0  0  0  0  0  0  0
  -44.2663   59.1133   64.3081 C   0  0  0  0  0  0  0  0  0  0  0  0
  -45.7632   58.8672   64.4003 C   0  0  0  0  0  0  0  0  0  0  0  0
  -46.2472   59.1068   65.8203 C   0  0  0  0  0  0  0  0  0  0  0  0
  -47.7410   58.8580   65.9770 C   0  0  0  0  0  0  0  0  0  0  0  0
  -48.4570   59.8040   65.0240 C   0  0  0  0  0  0  0  0  0  0  0  0
  -49.9570   59.6540   65.1090 C   0  0  0  0  0  0  0  0  0  0  0  0
  -50.7835   60.8081   65.4966 C   0  0  0  0  0  0  0  0  0  0  0  0
  -50.1051   62.0523   66.0125 C   0  0  0  0  0  0  0  0  0  0  0  0
  -49.2848   61.7422   67.2599 C   0  0  0  0  0  0  0  0  0  0  0  0
  -48.6162   63.0129   67.7839 C   0  0  0  0  0  0  0  0  0  0  0  0
  -47.7702   62.7360   69.0259 C   0  0  0  0  0  0  0  0  0  0  0  0
  -46.6443   61.7394   68.7387 C   0  0  0  0  0  0  0  0  0  0  0  0
  -45.6703   62.2342   67.6726 C   0  0  0  0  0  0  0  0  0  0  0  0
  -41.9449   60.2056   65.2738 H   0  0  0  0  0  0  0  0  0  0  0  0
  -42.1540   60.7408   63.6262 H   0  0  0  0  0  0  0  0  0  0  0  0
  -43.9574   62.9416   64.4918 H   0  0  0  0  0  0  0  0  0  0  0  0
  -44.5113   61.2075   64.0722 H   0  0  0  0  0  0  0  0  0  0  0  0
  -44.2847   60.6688   65.7365 H   0  0  0  0  0  0  0  0  0  0  0  0
  -43.7510   58.4404   64.9613 H   0  0  0  0  0  0  0  0  0  0  0  0
  -43.9340   58.9507   63.3040 H   0  0  0  0  0  0  0  0  0  0  0  0
  -45.9731   57.8557   64.1212 H   0  0  0  0  0  0  0  0  0  0  0  0
  -46.2693   59.5404   63.7404 H   0  0  0  0  0  0  0  0  0  0  0  0
  -46.0386   60.1217   66.0873 H   0  0  0  0  0  0  0  0  0  0  0  0
  -45.7343   58.4185   66.4591 H   0  0  0  0  0  0  0  0  0  0  0  0
  -48.0419   59.0556   66.9846 H   0  0  0  0  0  0  0  0  0  0  0  0
  -47.9820   57.8397   65.7538 H   0  0  0  0  0  0  0  0  0  0  0  0
  -48.1435   59.5908   64.0234 H   0  0  0  0  0  0  0  0  0  0  0  0
  -48.2063   60.8071   65.2994 H   0  0  0  0  0  0  0  0  0  0  0  0
  -50.4004   58.7467   64.8964 H   0  0  0  0  0  0  0  0  0  0  0  0
  -51.8116   60.7668   65.4166 H   0  0  0  0  0  0  0  0  0  0  0  0
  -50.8484   62.7831   66.2539 H   0  0  0  0  0  0  0  0  0  0  0  0
  -49.4492   62.4257   65.2540 H   0  0  0  0  0  0  0  0  0  0  0  0
  -48.5321   61.0215   67.0173 H   0  0  0  0  0  0  0  0  0  0  0  0
  -49.9343   61.3532   68.0160 H   0  0  0  0  0  0  0  0  0  0  0  0
  -49.3741   63.7261   68.0327 H   0  0  0  0  0  0  0  0  0  0  0  0
  -47.9708   63.3900   67.0183 H   0  0  0  0  0  0  0  0  0  0  0  0
  -48.4007   62.3345   69.7915 H   0  0  0  0  0  0  0  0  0  0  0  0
  -47.3256   63.6583   69.3367 H   0  0  0  0  0  0  0  0  0  0  0  0
  -47.0788   60.8207   68.4041 H   0  0  0  0  0  0  0  0  0  0  0  0
  -46.0902   61.6113   69.6450 H   0  0  0  0  0  0  0  0  0  0  0  0
  -46.1927   62.3736   66.7493 H   0  0  0  0  0  0  0  0  0  0  0  0
  -44.8928   61.5116   67.5369 H   0  0  0  0  0  0  0  0  0  0  0  0
  -45.2425   63.1641   67.9843 H   0  0  0  0  0  0  0  0  0  0  0  0
  1  2  2  0  0  0  0
  1  3  1  0  0  0  0
  1  4  1  0  0  0  0
  3  5  1  0  0  0  0
  3 19  1  0  0  0  0
  3 20  1  0  0  0  0
  4 21  1  0  0  0  0
  5  6  1  0  0  0  0
  5 22  1  0  0  0  0
  5 23  1  0  0  0  0
  6  7  1  0  0  0  0
  6 24  1  0  0  0  0
  6 25  1  0  0  0  0
  7  8  1  0  0  0  0
  7 26  1  0  0  0  0
  7 27  1  0  0  0  0
  8  9  1  0  0  0  0
  8 28  1  0  0  0  0
  8 29  1  0  0  0  0
  9 10  1  0  0  0  0
  9 30  1  0  0  0  0
  9 31  1  0  0  0  0
 10 11  1  0  0  0  0
 10 32  1  0  0  0  0
 10 33  1  0  0  0  0
 11 12  2  0  0  0  0
 11 34  1  0  0  0  0
 12 13  1  0  0  0  0
 12 35  1  0  0  0  0
 13 14  1  0  0  0  0
 13 36  1  0  0  0  0
 13 37  1  0  0  0  0
 14 15  1  0  0  0  0
 14 38  1  0  0  0  0
 14 39  1  0  0  0  0
 15 16  1  0  0  0  0
 15 40  1  0  0  0  0
 15 41  1  0  0  0  0
 16 17  1  0  0  0  0
 16 42  1  0  0  0  0
 16 43  1  0  0  0  0
 17 18  1  0  0  0  0
 17 44  1  0  0  0  0
 17 45  1  0  0  0  0
 18 46  1  0  0  0  0
 18 47  1  0  0  0  0
 18 48  1  0  0  0  0
M  END
$$$$
/media/chris/experiments/cd1a-new-docking/inputs/ligands/4x6d_2_ligand.pdb
 OpenBabel07012320263D

 48 47  0  0  0  0  0  0  0  0999 V2000
  -45.2558   53.8756   65.6348 C   0  0  0  0  0  0  0  0  0  0  0  0
  -44.0126   53.8489   65.7211 O   0  0  0  0  0  0  0  0  0  0  0  0
  -45.9253   54.8005   64.6490 C   0  0  0  0  0  0  0  0  0  0  0  0
  -45.9254   53.1225   66.3733 O   0  0  0  0  0  0  0  0  0  0  0  0
  -45.5302   56.2346   64.9637 C   0  0  0  0  0  0  0  0  0  0  0  0
  -46.1871   57.2204   64.0143 C   0  0  0  0  0  0  0  0  0  0  0  0
  -47.6965   57.1075   64.1518 C   0  0  0  0  0  0  0  0  0  0  0  0
  -48.1197   57.4400   65.5725 C   0  0  0  0  0  0  0  0  0  0  0  0
  -47.7410   58.8580   65.9770 C   0  0  0  0  0  0  0  0  0  0  0  0
  -48.4570   59.8040   65.0240 C   0  0  0  0  0  0  0  0  0  0  0  0
  -49.9570   59.6540   65.1090 C   0  0  0  0  0  0  0  0  0  0  0  0
  -50.7188   60.4801   66.0590 C   0  0  0  0  0  0  0  0  0  0  0  0
  -49.9693   61.2990   67.0798 C   0  0  0  0  0  0  0  0  0  0  0  0
  -50.9379   62.0649   67.9742 C   0  0  0  0  0  0  0  0  0  0  0  0
  -50.1674   62.9044   68.9931 C   0  0  0  0  0  0  0  0  0  0  0  0
  -49.2729   62.0385   69.8788 C   0  0  0  0  0  0  0  0  0  0  0  0
  -50.0785   60.9935   70.6550 C   0  0  0  0  0  0  0  0  0  0  0  0
  -51.1371   61.6136   71.5632 C   0  0  0  0  0  0  0  0  0  0  0  0
  -46.9875   54.6968   64.7250 H   0  0  0  0  0  0  0  0  0  0  0  0
  -45.6168   54.5518   63.6551 H   0  0  0  0  0  0  0  0  0  0  0  0
  -46.8611   53.1280   66.3233 H   0  0  0  0  0  0  0  0  0  0  0  0
  -44.4676   56.3278   64.8794 H   0  0  0  0  0  0  0  0  0  0  0  0
  -45.8579   56.4601   65.9570 H   0  0  0  0  0  0  0  0  0  0  0  0
  -45.9005   56.9952   63.0083 H   0  0  0  0  0  0  0  0  0  0  0  0
  -45.8753   58.2156   64.2533 H   0  0  0  0  0  0  0  0  0  0  0  0
  -47.9991   56.1084   63.9174 H   0  0  0  0  0  0  0  0  0  0  0  0
  -48.1612   57.7971   63.4784 H   0  0  0  0  0  0  0  0  0  0  0  0
  -47.6440   56.7537   66.2417 H   0  0  0  0  0  0  0  0  0  0  0  0
  -49.1857   57.3618   65.6210 H   0  0  0  0  0  0  0  0  0  0  0  0
  -46.6822   58.9911   65.8990 H   0  0  0  0  0  0  0  0  0  0  0  0
  -48.0249   59.0527   66.9901 H   0  0  0  0  0  0  0  0  0  0  0  0
  -48.1435   59.5908   64.0234 H   0  0  0  0  0  0  0  0  0  0  0  0
  -48.2063   60.8071   65.2994 H   0  0  0  0  0  0  0  0  0  0  0  0
  -50.4455   58.9755   64.5039 H   0  0  0  0  0  0  0  0  0  0  0  0
  -51.7502   60.4989   66.0272 H   0  0  0  0  0  0  0  0  0  0  0  0
  -49.3337   61.9951   66.5734 H   0  0  0  0  0  0  0  0  0  0  0  0
  -49.3872   60.6395   67.6891 H   0  0  0  0  0  0  0  0  0  0  0  0
  -51.5654   61.3698   68.4918 H   0  0  0  0  0  0  0  0  0  0  0  0
  -51.5333   62.7142   67.3670 H   0  0  0  0  0  0  0  0  0  0  0  0
  -50.8670   63.4265   69.6120 H   0  0  0  0  0  0  0  0  0  0  0  0
  -49.5436   63.5890   68.4573 H   0  0  0  0  0  0  0  0  0  0  0  0
  -48.7618   62.6691   70.5760 H   0  0  0  0  0  0  0  0  0  0  0  0
  -48.5809   61.5218   69.2471 H   0  0  0  0  0  0  0  0  0  0  0  0
  -49.4043   60.4214   71.2577 H   0  0  0  0  0  0  0  0  0  0  0  0
  -50.5877   60.3836   69.9384 H   0  0  0  0  0  0  0  0  0  0  0  0
  -50.6611   62.2324   72.2950 H   0  0  0  0  0  0  0  0  0  0  0  0
  -51.6847   60.8368   72.0548 H   0  0  0  0  0  0  0  0  0  0  0  0
  -51.8075   62.2063   70.9766 H   0  0  0  0  0  0  0  0  0  0  0  0
  1  2  2  0  0  0  0
  1  3  1  0  0  0  0
  1  4  1  0  0  0  0
  3  5  1  0  0  0  0
  3 19  1  0  0  0  0
  3 20  1  0  0  0  0
  4 21  1  0  0  0  0
  5  6  1  0  0  0  0
  5 22  1  0  0  0  0
  5 23  1  0  0  0  0
  6  7  1  0  0  0  0
  6 24  1  0  0  0  0
  6 25  1  0  0  0  0
  7  8  1  0  0  0  0
  7 26  1  0  0  0  0
  7 27  1  0  0  0  0
  8  9  1  0  0  0  0
  8 28  1  0  0  0  0
  8 29  1  0  0  0  0
  9 10  1  0  0  0  0
  9 30  1  0  0  0  0
  9 31  1  0  0  0  0
 10 11  1  0  0  0  0
 10 32  1  0  0  0  0
 10 33  1  0  0  0  0
 11 12  2  0  0  0  0
 11 34  1  0  0  0  0
 12 13  1  0  0  0  0
 12 35  1  0  0  0  0
 13 14  1  0  0  0  0
 13 36  1  0  0  0  0
 13 37  1  0  0  0  0
 14 15  1  0  0  0  0
 14 38  1  0  0  0  0
 14 39  1  0  0  0  0
 15 16  1  0  0  0  0
 15 40  1  0  0  0  0
 15 41  1  0  0  0  0
 16 17  1  0  0  0  0
 16 42  1  0  0  0  0
 16 43  1  0  0  0  0
 17 18  1  0  0  0  0
 17 44  1  0  0  0  0
 17 45  1  0  0  0  0
 18 46  1  0  0  0  0
 18 47  1  0  0  0  0
 18 48  1  0  0  0  0
M  END
$$$$
/media/chris/experiments/cd1a-new-docking/inputs/ligands/4x6d_2_ligand.pdb
 OpenBabel07012320263D

 48 47  0  0  0  0  0  0  0  0999 V2000
  -44.3267   64.5576   65.9013 C   0  0  0  0  0  0  0  0  0  0  0  0
  -43.1350   64.9078   65.7967 O   0  0  0  0  0  0  0  0  0  0  0  0
  -44.7438   63.1657   65.4959 C   0  0  0  0  0  0  0  0  0  0  0  0
  -45.1564   65.3771   66.3494 O   0  0  0  0  0  0  0  0  0  0  0  0
  -43.9963   62.1531   66.3490 C   0  0  0  0  0  0  0  0  0  0  0  0
  -44.3599   60.7269   65.9774 C   0  0  0  0  0  0  0  0  0  0  0  0
  -45.8552   60.5327   66.1684 C   0  0  0  0  0  0  0  0  0  0  0  0
  -46.2472   59.1068   65.8203 C   0  0  0  0  0  0  0  0  0  0  0  0
  -47.7410   58.8580   65.9770 C   0  0  0  0  0  0  0  0  0  0  0  0
  -48.4570   59.8040   65.0240 C   0  0  0  0  0  0  0  0  0  0  0  0
  -49.9570   59.6540   65.1090 C   0  0  0  0  0  0  0  0  0  0  0  0
  -50.6439   58.6943   64.2300 C   0  0  0  0  0  0  0  0  0  0  0  0
  -49.8682   58.0413   63.1137 C   0  0  0  0  0  0  0  0  0  0  0  0
  -49.3087   59.0905   62.1593 C   0  0  0  0  0  0  0  0  0  0  0  0
  -50.4438   59.9187   61.5576 C   0  0  0  0  0  0  0  0  0  0  0  0
  -51.2362   60.6589   62.6341 C   0  0  0  0  0  0  0  0  0  0  0  0
  -52.3848   61.4758   62.0367 C   0  0  0  0  0  0  0  0  0  0  0  0
  -53.4001   60.6153   61.2892 C   0  0  0  0  0  0  0  0  0  0  0  0
  -44.5088   63.0077   64.4641 H   0  0  0  0  0  0  0  0  0  0  0  0
  -45.7977   63.0494   65.6395 H   0  0  0  0  0  0  0  0  0  0  0  0
  -46.0568   65.1327   66.4356 H   0  0  0  0  0  0  0  0  0  0  0  0
  -44.2428   62.3170   67.3772 H   0  0  0  0  0  0  0  0  0  0  0  0
  -42.9479   62.2844   66.1798 H   0  0  0  0  0  0  0  0  0  0  0  0
  -43.8263   60.0451   66.6061 H   0  0  0  0  0  0  0  0  0  0  0  0
  -44.0983   60.5409   64.9567 H   0  0  0  0  0  0  0  0  0  0  0  0
  -46.3840   61.2104   65.5311 H   0  0  0  0  0  0  0  0  0  0  0  0
  -46.1045   60.7238   67.1913 H   0  0  0  0  0  0  0  0  0  0  0  0
  -45.7183   58.4380   66.4668 H   0  0  0  0  0  0  0  0  0  0  0  0
  -45.9962   58.9421   64.7933 H   0  0  0  0  0  0  0  0  0  0  0  0
  -48.0419   59.0556   66.9846 H   0  0  0  0  0  0  0  0  0  0  0  0
  -47.9820   57.8397   65.7538 H   0  0  0  0  0  0  0  0  0  0  0  0
  -48.1435   59.5908   64.0234 H   0  0  0  0  0  0  0  0  0  0  0  0
  -48.2063   60.8071   65.2994 H   0  0  0  0  0  0  0  0  0  0  0  0
  -50.4978   60.2216   65.7801 H   0  0  0  0  0  0  0  0  0  0  0  0
  -51.6410   58.4716   64.3753 H   0  0  0  0  0  0  0  0  0  0  0  0
  -50.5172   57.3849   62.5725 H   0  0  0  0  0  0  0  0  0  0  0  0
  -49.0532   57.4923   63.5370 H   0  0  0  0  0  0  0  0  0  0  0  0
  -48.7726   58.6021   61.3726 H   0  0  0  0  0  0  0  0  0  0  0  0
  -48.6532   59.7399   62.7011 H   0  0  0  0  0  0  0  0  0  0  0  0
  -51.1054   59.2662   61.0271 H   0  0  0  0  0  0  0  0  0  0  0  0
  -50.0139   60.6459   60.9009 H   0  0  0  0  0  0  0  0  0  0  0  0
  -50.5765   61.3199   63.1562 H   0  0  0  0  0  0  0  0  0  0  0  0
  -51.6562   59.9309   63.2962 H   0  0  0  0  0  0  0  0  0  0  0  0
  -51.9758   62.1915   61.3545 H   0  0  0  0  0  0  0  0  0  0  0  0
  -52.8990   61.9473   62.8479 H   0  0  0  0  0  0  0  0  0  0  0  0
  -52.9181   60.1271   60.4682 H   0  0  0  0  0  0  0  0  0  0  0  0
  -54.1907   61.2353   60.9212 H   0  0  0  0  0  0  0  0  0  0  0  0
  -53.8032   59.8805   61.9544 H   0  0  0  0  0  0  0  0  0  0  0  0
  1  2  2  0  0  0  0
  1  3  1  0  0  0  0
  1  4  1  0  0  0  0
  3  5  1  0  0  0  0
  3 19  1  0  0  0  0
  3 20  1  0  0  0  0
  4 21  1  0  0  0  0
  5  6  1  0  0  0  0
  5 22  1  0  0  0  0
  5 23  1  0  0  0  0
  6  7  1  0  0  0  0
  6 24  1  0  0  0  0
  6 25  1  0  0  0  0
  7  8  1  0  0  0  0
  7 26  1  0  0  0  0
  7 27  1  0  0  0  0
  8  9  1  0  0  0  0
  8 28  1  0  0  0  0
  8 29  1  0  0  0  0
  9 10  1  0  0  0  0
  9 30  1  0  0  0  0
  9 31  1  0  0  0  0
 10 11  1  0  0  0  0
 10 32  1  0  0  0  0
 10 33  1  0  0  0  0
 11 12  2  0  0  0  0
 11 34  1  0  0  0  0
 12 13  1  0  0  0  0
 12 35  1  0  0  0  0
 13 14  1  0  0  0  0
 13 36  1  0  0  0  0
 13 37  1  0  0  0  0
 14 15  1  0  0  0  0
 14 38  1  0  0  0  0
 14 39  1  0  0  0  0
 15 16  1  0  0  0  0
 15 40  1  0  0  0  0
 15 41  1  0  0  0  0
 16 17  1  0  0  0  0
 16 42  1  0  0  0  0
 16 43  1  0  0  0  0
 17 18  1  0  0  0  0
 17 44  1  0  0  0  0
 17 45  1  0  0  0  0
 18 46  1  0  0  0  0
 18 47  1  0  0  0  0
 18 48  1  0  0  0  0
M  END
$$$$
/media/chris/experiments/cd1a-new-docking/inputs/ligands/4x6d_2_ligand.pdb
 OpenBabel07012320263D

 48 47  0  0  0  0  0  0  0  0999 V2000
  -44.4069   62.9337   64.0440 C   0  0  0  0  0  0  0  0  0  0  0  0
  -44.1177   61.7887   63.6452 O   0  0  0  0  0  0  0  0  0  0  0  0
  -44.7438   63.1657   65.4959 C   0  0  0  0  0  0  0  0  0  0  0  0
  -44.4061   63.8741   63.2214 O   0  0  0  0  0  0  0  0  0  0  0  0
  -43.9963   62.1531   66.3490 C   0  0  0  0  0  0  0  0  0  0  0  0
  -44.3599   60.7269   65.9774 C   0  0  0  0  0  0  0  0  0  0  0  0
  -45.8552   60.5327   66.1684 C   0  0  0  0  0  0  0  0  0  0  0  0
  -46.2472   59.1068   65.8203 C   0  0  0  0  0  0  0  0  0  0  0  0
  -47.7410   58.8580   65.9770 C   0  0  0  0  0  0  0  0  0  0  0  0
  -48.4570   59.8040   65.0240 C   0  0  0  0  0  0  0  0  0  0  0  0
  -49.9570   59.6540   65.1090 C   0  0  0  0  0  0  0  0  0  0  0  0
  -50.7833   59.9126   63.9192 C   0  0  0  0  0  0  0  0  0  0  0  0
  -50.1406   60.5325   62.7039 C   0  0  0  0  0  0  0  0  0  0  0  0
  -51.1480   61.3781   61.9325 C   0  0  0  0  0  0  0  0  0  0  0  0
  -51.6738   62.5111   62.8135 C   0  0  0  0  0  0  0  0  0  0  0  0
  -52.3539   61.9785   64.0739 C   0  0  0  0  0  0  0  0  0  0  0  0
  -52.8971   63.1099   64.9504 C   0  0  0  0  0  0  0  0  0  0  0  0
  -53.5669   62.6044   66.2256 C   0  0  0  0  0  0  0  0  0  0  0  0
  -45.7973   63.0490   65.6422 H   0  0  0  0  0  0  0  0  0  0  0  0
  -44.4561   64.1568   65.7784 H   0  0  0  0  0  0  0  0  0  0  0  0
  -44.6208   64.7420   63.5019 H   0  0  0  0  0  0  0  0  0  0  0  0
  -44.2428   62.3170   67.3772 H   0  0  0  0  0  0  0  0  0  0  0  0
  -42.9479   62.2844   66.1798 H   0  0  0  0  0  0  0  0  0  0  0  0
  -43.8263   60.0451   66.6061 H   0  0  0  0  0  0  0  0  0  0  0  0
  -44.0983   60.5409   64.9567 H   0  0  0  0  0  0  0  0  0  0  0  0
  -46.3840   61.2104   65.5311 H   0  0  0  0  0  0  0  0  0  0  0  0
  -46.1045   60.7238   67.1913 H   0  0  0  0  0  0  0  0  0  0  0  0
  -45.7183   58.4380   66.4668 H   0  0  0  0  0  0  0  0  0  0  0  0
  -45.9962   58.9421   64.7933 H   0  0  0  0  0  0  0  0  0  0  0  0
  -48.0419   59.0556   66.9846 H   0  0  0  0  0  0  0  0  0  0  0  0
  -47.9820   57.8397   65.7538 H   0  0  0  0  0  0  0  0  0  0  0  0
  -48.1435   59.5908   64.0234 H   0  0  0  0  0  0  0  0  0  0  0  0
  -48.2063   60.8071   65.2994 H   0  0  0  0  0  0  0  0  0  0  0  0
  -50.4005   59.3715   65.9970 H   0  0  0  0  0  0  0  0  0  0  0  0
  -51.7872   59.6735   63.9164 H   0  0  0  0  0  0  0  0  0  0  0  0
  -49.7731   59.7557   62.0664 H   0  0  0  0  0  0  0  0  0  0  0  0
  -49.3368   61.1622   63.0238 H   0  0  0  0  0  0  0  0  0  0  0  0
  -51.9661   60.7604   61.6260 H   0  0  0  0  0  0  0  0  0  0  0  0
  -50.6654   61.7989   61.0752 H   0  0  0  0  0  0  0  0  0  0  0  0
  -52.3821   63.0854   62.2537 H   0  0  0  0  0  0  0  0  0  0  0  0
  -50.8420   63.1139   63.1130 H   0  0  0  0  0  0  0  0  0  0  0  0
  -51.6418   61.4144   64.6392 H   0  0  0  0  0  0  0  0  0  0  0  0
  -53.1786   61.3670   63.7726 H   0  0  0  0  0  0  0  0  0  0  0  0
  -53.6157   63.6652   64.3845 H   0  0  0  0  0  0  0  0  0  0  0  0
  -52.0658   63.7165   65.2433 H   0  0  0  0  0  0  0  0  0  0  0  0
  -54.4059   61.9919   65.9691 H   0  0  0  0  0  0  0  0  0  0  0  0
  -53.8989   63.4380   66.8086 H   0  0  0  0  0  0  0  0  0  0  0  0
  -52.8654   62.0292   66.7930 H   0  0  0  0  0  0  0  0  0  0  0  0
  1  2  2  0  0  0  0
  1  3  1  0  0  0  0
  1  4  1  0  0  0  0
  3  5  1  0  0  0  0
  3 19  1  0  0  0  0
  3 20  1  0  0  0  0
  4 21  1  0  0  0  0
  5  6  1  0  0  0  0
  5 22  1  0  0  0  0
  5 23  1  0  0  0  0
  6  7  1  0  0  0  0
  6 24  1  0  0  0  0
  6 25  1  0  0  0  0
  7  8  1  0  0  0  0
  7 26  1  0  0  0  0
  7 27  1  0  0  0  0
  8  9  1  0  0  0  0
  8 28  1  0  0  0  0
  8 29  1  0  0  0  0
  9 10  1  0  0  0  0
  9 30  1  0  0  0  0
  9 31  1  0  0  0  0
 10 11  1  0  0  0  0
 10 32  1  0  0  0  0
 10 33  1  0  0  0  0
 11 12  2  0  0  0  0
 11 34  1  0  0  0  0
 12 13  1  0  0  0  0
 12 35  1  0  0  0  0
 13 14  1  0  0  0  0
 13 36  1  0  0  0  0
 13 37  1  0  0  0  0
 14 15  1  0  0  0  0
 14 38  1  0  0  0  0
 14 39  1  0  0  0  0
 15 16  1  0  0  0  0
 15 40  1  0  0  0  0
 15 41  1  0  0  0  0
 16 17  1  0  0  0  0
 16 42  1  0  0  0  0
 16 43  1  0  0  0  0
 17 18  1  0  0  0  0
 17 44  1  0  0  0  0
 17 45  1  0  0  0  0
 18 46  1  0  0  0  0
 18 47  1  0  0  0  0
 18 48  1  0  0  0  0
M  END
$$$$
/media/chris/experiments/cd1a-new-docking/inputs/ligands/4x6d_2_ligand.pdb
 OpenBabel07012320263D

 48 47  0  0  0  0  0  0  0  0999 V2000
  -44.2646   61.3450   62.4028 C   0  0  0  0  0  0  0  0  0  0  0  0
  -44.8878   60.5581   61.6639 O   0  0  0  0  0  0  0  0  0  0  0  0
  -44.7010   61.5448   63.8329 C   0  0  0  0  0  0  0  0  0  0  0  0
  -43.2782   61.9534   61.9361 O   0  0  0  0  0  0  0  0  0  0  0  0
  -43.9755   60.5452   64.7197 C   0  0  0  0  0  0  0  0  0  0  0  0
  -44.2663   59.1133   64.3081 C   0  0  0  0  0  0  0  0  0  0  0  0
  -45.7632   58.8672   64.4003 C   0  0  0  0  0  0  0  0  0  0  0  0
  -46.2472   59.1068   65.8203 C   0  0  0  0  0  0  0  0  0  0  0  0
  -47.7410   58.8580   65.9770 C   0  0  0  0  0  0  0  0  0  0  0  0
  -48.4570   59.8040   65.0240 C   0  0  0  0  0  0  0  0  0  0  0  0
  -49.9570   59.6540   65.1090 C   0  0  0  0  0  0  0  0  0  0  0  0
  -50.7835   60.8081   65.4966 C   0  0  0  0  0  0  0  0  0  0  0  0
  -50.1051   62.0523   66.0125 C   0  0  0  0  0  0  0  0  0  0  0  0
  -49.1679   62.6325   64.9591 C   0  0  0  0  0  0  0  0  0  0  0  0
  -49.9524   63.0132   63.7037 C   0  0  0  0  0  0  0  0  0  0  0  0
  -49.0408   63.5832   62.6180 C   0  0  0  0  0  0  0  0  0  0  0  0
  -47.9784   62.5732   62.1768 C   0  0  0  0  0  0  0  0  0  0  0  0
  -47.0431   63.1248   61.1040 C   0  0  0  0  0  0  0  0  0  0  0  0
  -45.7571   61.3913   63.9099 H   0  0  0  0  0  0  0  0  0  0  0  0
  -44.4656   62.5407   64.1455 H   0  0  0  0  0  0  0  0  0  0  0  0
  -42.7968   62.5491   62.4759 H   0  0  0  0  0  0  0  0  0  0  0  0
  -44.2925   60.6860   65.7319 H   0  0  0  0  0  0  0  0  0  0  0  0
  -42.9236   60.7134   64.6197 H   0  0  0  0  0  0  0  0  0  0  0  0
  -43.7510   58.4404   64.9613 H   0  0  0  0  0  0  0  0  0  0  0  0
  -43.9340   58.9507   63.3040 H   0  0  0  0  0  0  0  0  0  0  0  0
  -45.9731   57.8557   64.1212 H   0  0  0  0  0  0  0  0  0  0  0  0
  -46.2693   59.5404   63.7404 H   0  0  0  0  0  0  0  0  0  0  0  0
  -46.0386   60.1217   66.0873 H   0  0  0  0  0  0  0  0  0  0  0  0
  -45.7343   58.4185   66.4591 H   0  0  0  0  0  0  0  0  0  0  0  0
  -48.0419   59.0556   66.9846 H   0  0  0  0  0  0  0  0  0  0  0  0
  -47.9820   57.8397   65.7538 H   0  0  0  0  0  0  0  0  0  0  0  0
  -48.1435   59.5908   64.0234 H   0  0  0  0  0  0  0  0  0  0  0  0
  -48.2063   60.8071   65.2994 H   0  0  0  0  0  0  0  0  0  0  0  0
  -50.4004   58.7467   64.8964 H   0  0  0  0  0  0  0  0  0  0  0  0
  -51.8116   60.7668   65.4166 H   0  0  0  0  0  0  0  0  0  0  0  0
  -49.5406   61.8071   66.8878 H   0  0  0  0  0  0  0  0  0  0  0  0
  -50.8537   62.7806   66.2450 H   0  0  0  0  0  0  0  0  0  0  0  0
  -48.4274   61.9031   64.7050 H   0  0  0  0  0  0  0  0  0  0  0  0
  -48.6983   63.5086   65.3553 H   0  0  0  0  0  0  0  0  0  0  0  0
  -50.6851   63.7487   63.9625 H   0  0  0  0  0  0  0  0  0  0  0  0
  -50.4158   62.1286   63.3192 H   0  0  0  0  0  0  0  0  0  0  0  0
  -48.5519   64.4552   62.9995 H   0  0  0  0  0  0  0  0  0  0  0  0
  -49.6457   63.8210   61.7680 H   0  0  0  0  0  0  0  0  0  0  0  0
  -48.4716   61.7072   61.7873 H   0  0  0  0  0  0  0  0  0  0  0  0
  -47.3816   62.3401   63.0338 H   0  0  0  0  0  0  0  0  0  0  0  0
  -47.6087   63.3695   60.2292 H   0  0  0  0  0  0  0  0  0  0  0  0
  -46.3077   62.3874   60.8584 H   0  0  0  0  0  0  0  0  0  0  0  0
  -46.5574   64.0043   61.4721 H   0  0  0  0  0  0  0  0  0  0  0  0
  1  2  2  0  0  0  0
  1  3  1  0  0  0  0
  1  4  1  0  0  0  0
  3  5  1  0  0  0  0
  3 19  1  0  0  0  0
  3 20  1  0  0  0  0
  4 21  1  0  0  0  0
  5  6  1  0  0  0  0
  5 22  1  0  0  0  0
  5 23  1  0  0  0  0
  6  7  1  0  0  0  0
  6 24  1  0  0  0  0
  6 25  1  0  0  0  0
  7  8  1  0  0  0  0
  7 26  1  0  0  0  0
  7 27  1  0  0  0  0
  8  9  1  0  0  0  0
  8 28  1  0  0  0  0
  8 29  1  0  0  0  0
  9 10  1  0  0  0  0
  9 30  1  0  0  0  0
  9 31  1  0  0  0  0
 10 11  1  0  0  0  0
 10 32  1  0  0  0  0
 10 33  1  0  0  0  0
 11 12  2  0  0  0  0
 11 34  1  0  0  0  0
 12 13  1  0  0  0  0
 12 35  1  0  0  0  0
 13 14  1  0  0  0  0
 13 36  1  0  0  0  0
 13 37  1  0  0  0  0
 14 15  1  0  0  0  0
 14 38  1  0  0  0  0
 14 39  1  0  0  0  0
 15 16  1  0  0  0  0
 15 40  1  0  0  0  0
 15 41  1  0  0  0  0
 16 17  1  0  0  0  0
 16 42  1  0  0  0  0
 16 43  1  0  0  0  0
 17 18  1  0  0  0  0
 17 44  1  0  0  0  0
 17 45  1  0  0  0  0
 18 46  1  0  0  0  0
 18 47  1  0  0  0  0
 18 48  1  0  0  0  0
M  END
$$$$
/media/chris/experiments/cd1a-new-docking/inputs/ligands/4x6d_2_ligand.pdb
 OpenBabel07012320263D

 48 47  0  0  0  0  0  0  0  0999 V2000
  -41.9397   58.8709   61.2734 C   0  0  0  0  0  0  0  0  0  0  0  0
  -41.4159   59.7900   60.6142 O   0  0  0  0  0  0  0  0  0  0  0  0
  -42.3191   59.0966   62.7158 C   0  0  0  0  0  0  0  0  0  0  0  0
  -42.1445   57.7724   60.7145 O   0  0  0  0  0  0  0  0  0  0  0  0
  -43.8159   58.8835   62.8767 C   0  0  0  0  0  0  0  0  0  0  0  0
  -44.2663   59.1133   64.3081 C   0  0  0  0  0  0  0  0  0  0  0  0
  -45.7632   58.8672   64.4003 C   0  0  0  0  0  0  0  0  0  0  0  0
  -46.2472   59.1068   65.8203 C   0  0  0  0  0  0  0  0  0  0  0  0
  -47.7410   58.8580   65.9770 C   0  0  0  0  0  0  0  0  0  0  0  0
  -48.4570   59.8040   65.0240 C   0  0  0  0  0  0  0  0  0  0  0  0
  -49.9570   59.6540   65.1090 C   0  0  0  0  0  0  0  0  0  0  0  0
  -50.7833   59.9126   63.9192 C   0  0  0  0  0  0  0  0  0  0  0  0
  -50.1406   60.5325   62.7039 C   0  0  0  0  0  0  0  0  0  0  0  0
  -51.1662   60.7323   61.5934 C   0  0  0  0  0  0  0  0  0  0  0  0
  -51.7873   59.3927   61.1984 C   0  0  0  0  0  0  0  0  0  0  0  0
  -50.7318   58.4020   60.7094 C   0  0  0  0  0  0  0  0  0  0  0  0
  -49.9691   58.9347   59.4937 C   0  0  0  0  0  0  0  0  0  0  0  0
  -48.9194   57.9554   58.9749 C   0  0  0  0  0  0  0  0  0  0  0  0
  -42.0672   60.0969   63.0001 H   0  0  0  0  0  0  0  0  0  0  0  0
  -41.7882   58.4083   63.3397 H   0  0  0  0  0  0  0  0  0  0  0  0
  -42.5373   57.0692   61.1933 H   0  0  0  0  0  0  0  0  0  0  0  0
  -44.0552   57.8793   62.5951 H   0  0  0  0  0  0  0  0  0  0  0  0
  -44.3219   59.5887   62.2510 H   0  0  0  0  0  0  0  0  0  0  0  0
  -44.0499   60.1211   64.5950 H   0  0  0  0  0  0  0  0  0  0  0  0
  -43.7484   58.4435   64.9624 H   0  0  0  0  0  0  0  0  0  0  0  0
  -45.9731   57.8557   64.1212 H   0  0  0  0  0  0  0  0  0  0  0  0
  -46.2693   59.5404   63.7404 H   0  0  0  0  0  0  0  0  0  0  0  0
  -46.0386   60.1217   66.0873 H   0  0  0  0  0  0  0  0  0  0  0  0
  -45.7343   58.4185   66.4591 H   0  0  0  0  0  0  0  0  0  0  0  0
  -48.0419   59.0556   66.9846 H   0  0  0  0  0  0  0  0  0  0  0  0
  -47.9820   57.8397   65.7538 H   0  0  0  0  0  0  0  0  0  0  0  0
  -48.1435   59.5908   64.0234 H   0  0  0  0  0  0  0  0  0  0  0  0
  -48.2063   60.8071   65.2994 H   0  0  0  0  0  0  0  0  0  0  0  0
  -50.4005   59.3715   65.9970 H   0  0  0  0  0  0  0  0  0  0  0  0
  -51.7872   59.6735   63.9164 H   0  0  0  0  0  0  0  0  0  0  0  0
  -49.3623   59.8884   62.3513 H   0  0  0  0  0  0  0  0  0  0  0  0
  -49.7390   61.4861   62.9763 H   0  0  0  0  0  0  0  0  0  0  0  0
  -50.6840   61.1630   60.7408 H   0  0  0  0  0  0  0  0  0  0  0  0
  -51.9384   61.3839   61.9456 H   0  0  0  0  0  0  0  0  0  0  0  0
  -52.4974   59.5574   60.4151 H   0  0  0  0  0  0  0  0  0  0  0  0
  -52.2599   58.9764   62.0634 H   0  0  0  0  0  0  0  0  0  0  0  0
  -51.2152   57.4861   60.4405 H   0  0  0  0  0  0  0  0  0  0  0  0
  -50.0286   58.2488   61.5012 H   0  0  0  0  0  0  0  0  0  0  0  0
  -49.4795   59.8451   59.7700 H   0  0  0  0  0  0  0  0  0  0  0  0
  -50.6811   59.0872   58.7097 H   0  0  0  0  0  0  0  0  0  0  0  0
  -48.1886   57.7793   59.7363 H   0  0  0  0  0  0  0  0  0  0  0  0
  -48.4420   58.3688   58.1111 H   0  0  0  0  0  0  0  0  0  0  0  0
  -49.3918   57.0316   58.7134 H   0  0  0  0  0  0  0  0  0  0  0  0
  1  2  2  0  0  0  0
  1  3  1  0  0  0  0
  1  4  1  0  0  0  0
  3  5  1  0  0  0  0
  3 19  1  0  0  0  0
  3 20  1  0  0  0  0
  4 21  1  0  0  0  0
  5  6  1  0  0  0  0
  5 22  1  0  0  0  0
  5 23  1  0  0  0  0
  6  7  1  0  0  0  0
  6 24  1  0  0  0  0
  6 25  1  0  0  0  0
  7  8  1  0  0  0  0
  7 26  1  0  0  0  0
  7 27  1  0  0  0  0
  8  9  1  0  0  0  0
  8 28  1  0  0  0  0
  8 29  1  0  0  0  0
  9 10  1  0  0  0  0
  9 30  1  0  0  0  0
  9 31  1  0  0  0  0
 10 11  1  0  0  0  0
 10 32  1  0  0  0  0
 10 33  1  0  0  0  0
 11 12  2  0  0  0  0
 11 34  1  0  0  0  0
 12 13  1  0  0  0  0
 12 35  1  0  0  0  0
 13 14  1  0  0  0  0
 13 36  1  0  0  0  0
 13 37  1  0  0  0  0
 14 15  1  0  0  0  0
 14 38  1  0  0  0  0
 14 39  1  0  0  0  0
 15 16  1  0  0  0  0
 15 40  1  0  0  0  0
 15 41  1  0  0  0  0
 16 17  1  0  0  0  0
 16 42  1  0  0  0  0
 16 43  1  0  0  0  0
 17 18  1  0  0  0  0
 17 44  1  0  0  0  0
 17 45  1  0  0  0  0
 18 46  1  0  0  0  0
 18 47  1  0  0  0  0
 18 48  1  0  0  0  0
M  END
$$$$
/media/chris/experiments/cd1a-new-docking/inputs/ligands/4x6d_2_ligand.pdb
 OpenBabel07012320263D

 48 47  0  0  0  0  0  0  0  0999 V2000
  -43.5369   57.7597   65.3354 C   0  0  0  0  0  0  0  0  0  0  0  0
  -42.4113   57.8876   65.8554 O   0  0  0  0  0  0  0  0  0  0  0  0
  -43.9947   56.4078   64.8473 C   0  0  0  0  0  0  0  0  0  0  0  0
  -44.2696   58.7666   65.2341 O   0  0  0  0  0  0  0  0  0  0  0  0
  -45.5073   56.3184   64.9733 C   0  0  0  0  0  0  0  0  0  0  0  0
  -45.9645   56.5083   66.4084 C   0  0  0  0  0  0  0  0  0  0  0  0
  -47.4788   56.3899   66.4640 C   0  0  0  0  0  0  0  0  0  0  0  0
  -48.1197   57.4400   65.5725 C   0  0  0  0  0  0  0  0  0  0  0  0
  -47.7410   58.8580   65.9770 C   0  0  0  0  0  0  0  0  0  0  0  0
  -48.4570   59.8040   65.0240 C   0  0  0  0  0  0  0  0  0  0  0  0
  -49.9570   59.6540   65.1090 C   0  0  0  0  0  0  0  0  0  0  0  0
  -50.7835   60.8081   65.4966 C   0  0  0  0  0  0  0  0  0  0  0  0
  -50.1051   62.0523   66.0125 C   0  0  0  0  0  0  0  0  0  0  0  0
  -51.1340   63.1184   66.3728 C   0  0  0  0  0  0  0  0  0  0  0  0
  -50.4349   64.3804   66.8777 C   0  0  0  0  0  0  0  0  0  0  0  0
  -51.4378   65.4661   67.2651 C   0  0  0  0  0  0  0  0  0  0  0  0
  -52.3702   65.0067   68.3890 C   0  0  0  0  0  0  0  0  0  0  0  0
  -51.6240   64.6514   69.6723 C   0  0  0  0  0  0  0  0  0  0  0  0
  -43.5401   55.6407   65.4387 H   0  0  0  0  0  0  0  0  0  0  0  0
  -43.7104   56.2792   63.8238 H   0  0  0  0  0  0  0  0  0  0  0  0
  -45.1191   58.6907   64.8461 H   0  0  0  0  0  0  0  0  0  0  0  0
  -45.8272   55.3560   64.6321 H   0  0  0  0  0  0  0  0  0  0  0  0
  -45.9376   57.0985   64.3807 H   0  0  0  0  0  0  0  0  0  0  0  0
  -45.6672   57.4760   66.7547 H   0  0  0  0  0  0  0  0  0  0  0  0
  -45.5199   55.7608   67.0317 H   0  0  0  0  0  0  0  0  0  0  0  0
  -47.8078   56.5333   67.4720 H   0  0  0  0  0  0  0  0  0  0  0  0
  -47.7660   55.4179   66.1210 H   0  0  0  0  0  0  0  0  0  0  0  0
  -49.1831   57.3384   65.6327 H   0  0  0  0  0  0  0  0  0  0  0  0
  -47.7650   57.2806   64.5757 H   0  0  0  0  0  0  0  0  0  0  0  0
  -46.6822   58.9911   65.8990 H   0  0  0  0  0  0  0  0  0  0  0  0
  -48.0249   59.0527   66.9901 H   0  0  0  0  0  0  0  0  0  0  0  0
  -48.1435   59.5908   64.0234 H   0  0  0  0  0  0  0  0  0  0  0  0
  -48.2063   60.8071   65.2994 H   0  0  0  0  0  0  0  0  0  0  0  0
  -50.4004   58.7467   64.8964 H   0  0  0  0  0  0  0  0  0  0  0  0
  -51.8116   60.7668   65.4166 H   0  0  0  0  0  0  0  0  0  0  0  0
  -49.4524   62.4356   65.2562 H   0  0  0  0  0  0  0  0  0  0  0  0
  -49.5486   61.8010   66.8912 H   0  0  0  0  0  0  0  0  0  0  0  0
  -51.7793   62.7417   67.1387 H   0  0  0  0  0  0  0  0  0  0  0  0
  -51.7038   63.3613   65.5003 H   0  0  0  0  0  0  0  0  0  0  0  0
  -49.7980   64.7568   66.1047 H   0  0  0  0  0  0  0  0  0  0  0  0
  -49.8698   64.1225   67.7489 H   0  0  0  0  0  0  0  0  0  0  0  0
  -52.0267   65.7152   66.4072 H   0  0  0  0  0  0  0  0  0  0  0  0
  -50.8889   66.3150   67.6157 H   0  0  0  0  0  0  0  0  0  0  0  0
  -52.9067   64.1430   68.0558 H   0  0  0  0  0  0  0  0  0  0  0  0
  -53.0267   65.8210   68.6144 H   0  0  0  0  0  0  0  0  0  0  0  0
  -50.9559   63.8374   69.4827 H   0  0  0  0  0  0  0  0  0  0  0  0
  -52.3274   64.3672   70.4268 H   0  0  0  0  0  0  0  0  0  0  0  0
  -51.0656   65.5006   70.0070 H   0  0  0  0  0  0  0  0  0  0  0  0
  1  2  2  0  0  0  0
  1  3  1  0  0  0  0
  1  4  1  0  0  0  0
  3  5  1  0  0  0  0
  3 19  1  0  0  0  0
  3 20  1  0  0  0  0
  4 21  1  0  0  0  0
  5  6  1  0  0  0  0
  5 22  1  0  0  0  0
  5 23  1  0  0  0  0
  6  7  1  0  0  0  0
  6 24  1  0  0  0  0
  6 25  1  0  0  0  0
  7  8  1  0  0  0  0
  7 26  1  0  0  0  0
  7 27  1  0  0  0  0
  8  9  1  0  0  0  0
  8 28  1  0  0  0  0
  8 29  1  0  0  0  0
  9 10  1  0  0  0  0
  9 30  1  0  0  0  0
  9 31  1  0  0  0  0
 10 11  1  0  0  0  0
 10 32  1  0  0  0  0
 10 33  1  0  0  0  0
 11 12  2  0  0  0  0
 11 34  1  0  0  0  0
 12 13  1  0  0  0  0
 12 35  1  0  0  0  0
 13 14  1  0  0  0  0
 13 36  1  0  0  0  0
 13 37  1  0  0  0  0
 14 15  1  0  0  0  0
 14 38  1  0  0  0  0
 14 39  1  0  0  0  0
 15 16  1  0  0  0  0
 15 40  1  0  0  0  0
 15 41  1  0  0  0  0
 16 17  1  0  0  0  0
 16 42  1  0  0  0  0
 16 43  1  0  0  0  0
 17 18  1  0  0  0  0
 17 44  1  0  0  0  0
 17 45  1  0  0  0  0
 18 46  1  0  0  0  0
 18 47  1  0  0  0  0
 18 48  1  0  0  0  0
M  END
$$$$
/media/chris/experiments/cd1a-new-docking/inputs/ligands/4x6d_2_ligand.pdb
 OpenBabel07012320263D

 48 47  0  0  0  0  0  0  0  0999 V2000
  -43.3268   55.3324   65.8885 C   0  0  0  0  0  0  0  0  0  0  0  0
  -43.5917   54.2919   65.2553 O   0  0  0  0  0  0  0  0  0  0  0  0
  -43.8344   55.5091   67.2980 C   0  0  0  0  0  0  0  0  0  0  0  0
  -42.6345   56.2127   65.3347 O   0  0  0  0  0  0  0  0  0  0  0  0
  -45.3531   55.4372   67.2935 C   0  0  0  0  0  0  0  0  0  0  0  0
  -45.9645   56.5083   66.4084 C   0  0  0  0  0  0  0  0  0  0  0  0
  -47.4788   56.3899   66.4640 C   0  0  0  0  0  0  0  0  0  0  0  0
  -48.1197   57.4400   65.5725 C   0  0  0  0  0  0  0  0  0  0  0  0
  -47.7410   58.8580   65.9770 C   0  0  0  0  0  0  0  0  0  0  0  0
  -48.4570   59.8040   65.0240 C   0  0  0  0  0  0  0  0  0  0  0  0
  -49.9570   59.6540   65.1090 C   0  0  0  0  0  0  0  0  0  0  0  0
  -50.7835   60.8081   65.4966 C   0  0  0  0  0  0  0  0  0  0  0  0
  -50.1051   62.0523   66.0125 C   0  0  0  0  0  0  0  0  0  0  0  0
  -51.1340   63.1184   66.3728 C   0  0  0  0  0  0  0  0  0  0  0  0
  -50.4349   64.3804   66.8777 C   0  0  0  0  0  0  0  0  0  0  0  0
  -49.5790   64.0978   68.1115 C   0  0  0  0  0  0  0  0  0  0  0  0
  -50.4114   63.5363   69.2670 C   0  0  0  0  0  0  0  0  0  0  0  0
  -49.5817   63.2613   70.5184 C   0  0  0  0  0  0  0  0  0  0  0  0
  -43.5221   56.4608   67.6744 H   0  0  0  0  0  0  0  0  0  0  0  0
  -43.4391   54.7356   67.9228 H   0  0  0  0  0  0  0  0  0  0  0  0
  -42.4248   57.0018   65.7944 H   0  0  0  0  0  0  0  0  0  0  0  0
  -45.7093   55.5693   68.2937 H   0  0  0  0  0  0  0  0  0  0  0  0
  -45.6401   54.4817   66.9067 H   0  0  0  0  0  0  0  0  0  0  0  0
  -45.6309   56.3746   65.4005 H   0  0  0  0  0  0  0  0  0  0  0  0
  -45.6643   57.4762   66.7517 H   0  0  0  0  0  0  0  0  0  0  0  0
  -47.8078   56.5333   67.4720 H   0  0  0  0  0  0  0  0  0  0  0  0
  -47.7660   55.4179   66.1210 H   0  0  0  0  0  0  0  0  0  0  0  0
  -49.1831   57.3384   65.6327 H   0  0  0  0  0  0  0  0  0  0  0  0
  -47.7650   57.2806   64.5757 H   0  0  0  0  0  0  0  0  0  0  0  0
  -46.6822   58.9911   65.8990 H   0  0  0  0  0  0  0  0  0  0  0  0
  -48.0249   59.0527   66.9901 H   0  0  0  0  0  0  0  0  0  0  0  0
  -48.1435   59.5908   64.0234 H   0  0  0  0  0  0  0  0  0  0  0  0
  -48.2063   60.8071   65.2994 H   0  0  0  0  0  0  0  0  0  0  0  0
  -50.4004   58.7467   64.8964 H   0  0  0  0  0  0  0  0  0  0  0  0
  -51.8116   60.7668   65.4166 H   0  0  0  0  0  0  0  0  0  0  0  0
  -49.4524   62.4356   65.2562 H   0  0  0  0  0  0  0  0  0  0  0  0
  -49.5486   61.8010   66.8912 H   0  0  0  0  0  0  0  0  0  0  0  0
  -51.7793   62.7417   67.1387 H   0  0  0  0  0  0  0  0  0  0  0  0
  -51.7038   63.3613   65.5003 H   0  0  0  0  0  0  0  0  0  0  0  0
  -51.1760   65.1100   67.1296 H   0  0  0  0  0  0  0  0  0  0  0  0
  -49.7921   64.7388   66.1010 H   0  0  0  0  0  0  0  0  0  0  0  0
  -49.1175   65.0096   68.4286 H   0  0  0  0  0  0  0  0  0  0  0  0
  -48.8448   63.3663   67.8454 H   0  0  0  0  0  0  0  0  0  0  0  0
  -50.8630   62.6200   68.9486 H   0  0  0  0  0  0  0  0  0  0  0  0
  -51.1436   64.2734   69.5229 H   0  0  0  0  0  0  0  0  0  0  0  0
  -48.8366   62.5258   70.2978 H   0  0  0  0  0  0  0  0  0  0  0  0
  -50.2201   62.8999   71.2973 H   0  0  0  0  0  0  0  0  0  0  0  0
  -49.1068   64.1656   70.8373 H   0  0  0  0  0  0  0  0  0  0  0  0
  1  2  2  0  0  0  0
  1  3  1  0  0  0  0
  1  4  1  0  0  0  0
  3  5  1  0  0  0  0
  3 19  1  0  0  0  0
  3 20  1  0  0  0  0
  4 21  1  0  0  0  0
  5  6  1  0  0  0  0
  5 22  1  0  0  0  0
  5 23  1  0  0  0  0
  6  7  1  0  0  0  0
  6 24  1  0  0  0  0
  6 25  1  0  0  0  0
  7  8  1  0  0  0  0
  7 26  1  0  0  0  0
  7 27  1  0  0  0  0
  8  9  1  0  0  0  0
  8 28  1  0  0  0  0
  8 29  1  0  0  0  0
  9 10  1  0  0  0  0
  9 30  1  0  0  0  0
  9 31  1  0  0  0  0
 10 11  1  0  0  0  0
 10 32  1  0  0  0  0
 10 33  1  0  0  0  0
 11 12  2  0  0  0  0
 11 34  1  0  0  0  0
 12 13  1  0  0  0  0
 12 35  1  0  0  0  0
 13 14  1  0  0  0  0
 13 36  1  0  0  0  0
 13 37  1  0  0  0  0
 14 15  1  0  0  0  0
 14 38  1  0  0  0  0
 14 39  1  0  0  0  0
 15 16  1  0  0  0  0
 15 40  1  0  0  0  0
 15 41  1  0  0  0  0
 16 17  1  0  0  0  0
 16 42  1  0  0  0  0
 16 43  1  0  0  0  0
 17 18  1  0  0  0  0
 17 44  1  0  0  0  0
 17 45  1  0  0  0  0
 18 46  1  0  0  0  0
 18 47  1  0  0  0  0
 18 48  1  0  0  0  0
M  END
$$$$
/media/chris/experiments/cd1a-new-docking/inputs/ligands/4x6d_2_ligand.pdb
 OpenBabel07012320263D

 48 47  0  0  0  0  0  0  0  0999 V2000
  -46.7908   53.7485   70.1502 C   0  0  0  0  0  0  0  0  0  0  0  0
  -47.4766   53.0206   70.8942 O   0  0  0  0  0  0  0  0  0  0  0  0
  -47.4490   54.5254   69.0372 C   0  0  0  0  0  0  0  0  0  0  0  0
  -45.5597   53.8212   70.3501 O   0  0  0  0  0  0  0  0  0  0  0  0
  -47.2059   56.0105   69.2546 C   0  0  0  0  0  0  0  0  0  0  0  0
  -47.8599   56.8518   68.1734 C   0  0  0  0  0  0  0  0  0  0  0  0
  -47.5633   58.3181   68.4417 C   0  0  0  0  0  0  0  0  0  0  0  0
  -48.2208   59.1879   67.3837 C   0  0  0  0  0  0  0  0  0  0  0  0
  -47.7410   58.8580   65.9770 C   0  0  0  0  0  0  0  0  0  0  0  0
  -48.4570   59.8040   65.0240 C   0  0  0  0  0  0  0  0  0  0  0  0
  -49.9570   59.6540   65.1090 C   0  0  0  0  0  0  0  0  0  0  0  0
  -50.8211   60.4770   64.2480 C   0  0  0  0  0  0  0  0  0  0  0  0
  -50.2050   61.6051   63.4592 C   0  0  0  0  0  0  0  0  0  0  0  0
  -49.1519   61.0754   62.4921 C   0  0  0  0  0  0  0  0  0  0  0  0
  -49.7861   60.1014   61.4993 C   0  0  0  0  0  0  0  0  0  0  0  0
  -50.8744   60.7738   60.6638 C   0  0  0  0  0  0  0  0  0  0  0  0
  -50.3218   61.9379   59.8375 C   0  0  0  0  0  0  0  0  0  0  0  0
  -49.2438   61.5049   58.8473 C   0  0  0  0  0  0  0  0  0  0  0  0
  -48.5012   54.3309   69.0383 H   0  0  0  0  0  0  0  0  0  0  0  0
  -47.0360   54.2268   68.0964 H   0  0  0  0  0  0  0  0  0  0  0  0
  -45.0272   54.3630   69.8015 H   0  0  0  0  0  0  0  0  0  0  0  0
  -46.1518   56.1939   69.2462 H   0  0  0  0  0  0  0  0  0  0  0  0
  -47.6359   56.2842   70.1953 H   0  0  0  0  0  0  0  0  0  0  0  0
  -48.9178   56.6917   68.1848 H   0  0  0  0  0  0  0  0  0  0  0  0
  -47.4735   56.5738   67.2152 H   0  0  0  0  0  0  0  0  0  0  0  0
  -46.5050   58.4745   68.4202 H   0  0  0  0  0  0  0  0  0  0  0  0
  -47.9520   58.5831   69.4027 H   0  0  0  0  0  0  0  0  0  0  0  0
  -47.9938   60.2125   67.5922 H   0  0  0  0  0  0  0  0  0  0  0  0
  -49.2742   59.0031   67.4195 H   0  0  0  0  0  0  0  0  0  0  0  0
  -47.9815   57.8436   65.7361 H   0  0  0  0  0  0  0  0  0  0  0  0
  -46.6800   58.9732   65.9008 H   0  0  0  0  0  0  0  0  0  0  0  0
  -48.1435   59.5908   64.0234 H   0  0  0  0  0  0  0  0  0  0  0  0
  -48.2063   60.8071   65.2994 H   0  0  0  0  0  0  0  0  0  0  0  0
  -50.3741   58.9777   65.7676 H   0  0  0  0  0  0  0  0  0  0  0  0
  -51.8332   60.2852   64.1849 H   0  0  0  0  0  0  0  0  0  0  0  0
  -49.7455   62.2959   64.1348 H   0  0  0  0  0  0  0  0  0  0  0  0
  -50.9745   62.0914   62.8967 H   0  0  0  0  0  0  0  0  0  0  0  0
  -48.3881   60.5692   63.0444 H   0  0  0  0  0  0  0  0  0  0  0  0
  -48.7300   61.8973   61.9523 H   0  0  0  0  0  0  0  0  0  0  0  0
  -50.2190   59.2867   62.0414 H   0  0  0  0  0  0  0  0  0  0  0  0
  -49.0211   59.7571   60.8353 H   0  0  0  0  0  0  0  0  0  0  0  0
  -51.6342   61.1450   61.3194 H   0  0  0  0  0  0  0  0  0  0  0  0
  -51.2708   60.0456   59.9874 H   0  0  0  0  0  0  0  0  0  0  0  0
  -49.9015   62.6611   60.5049 H   0  0  0  0  0  0  0  0  0  0  0  0
  -51.1339   62.3434   59.2709 H   0  0  0  0  0  0  0  0  0  0  0  0
  -48.4134   61.0930   59.3816 H   0  0  0  0  0  0  0  0  0  0  0  0
  -48.9186   62.3524   58.2808 H   0  0  0  0  0  0  0  0  0  0  0  0
  -49.6440   60.7656   58.1852 H   0  0  0  0  0  0  0  0  0  0  0  0
  1  2  2  0  0  0  0
  1  3  1  0  0  0  0
  1  4  1  0  0  0  0
  3  5  1  0  0  0  0
  3 19  1  0  0  0  0
  3 20  1  0  0  0  0
  4 21  1  0  0  0  0
  5  6  1  0  0  0  0
  5 22  1  0  0  0  0
  5 23  1  0  0  0  0
  6  7  1  0  0  0  0
  6 24  1  0  0  0  0
  6 25  1  0  0  0  0
  7  8  1  0  0  0  0
  7 26  1  0  0  0  0
  7 27  1  0  0  0  0
  8  9  1  0  0  0  0
  8 28  1  0  0  0  0
  8 29  1  0  0  0  0
  9 10  1  0  0  0  0
  9 30  1  0  0  0  0
  9 31  1  0  0  0  0
 10 11  1  0  0  0  0
 10 32  1  0  0  0  0
 10 33  1  0  0  0  0
 11 12  2  0  0  0  0
 11 34  1  0  0  0  0
 12 13  1  0  0  0  0
 12 35  1  0  0  0  0
 13 14  1  0  0  0  0
 13 36  1  0  0  0  0
 13 37  1  0  0  0  0
 14 15  1  0  0  0  0
 14 38  1  0  0  0  0
 14 39  1  0  0  0  0
 15 16  1  0  0  0  0
 15 40  1  0  0  0  0
 15 41  1  0  0  0  0
 16 17  1  0  0  0  0
 16 42  1  0  0  0  0
 16 43  1  0  0  0  0
 17 18  1  0  0  0  0
 17 44  1  0  0  0  0
 17 45  1  0  0  0  0
 18 46  1  0  0  0  0
 18 47  1  0  0  0  0
 18 48  1  0  0  0  0
M  END
$$$$
/media/chris/experiments/cd1a-new-docking/inputs/ligands/4x6d_2_ligand.pdb
 OpenBabel07012320263D

 48 47  0  0  0  0  0  0  0  0999 V2000
  -43.1900   55.7441   65.8943 C   0  0  0  0  0  0  0  0  0  0  0  0
  -42.8070   54.6312   65.4839 O   0  0  0  0  0  0  0  0  0  0  0  0
  -43.8361   56.7194   64.9420 C   0  0  0  0  0  0  0  0  0  0  0  0
  -43.0315   56.0263   67.1010 O   0  0  0  0  0  0  0  0  0  0  0  0
  -45.3394   56.4914   64.9389 C   0  0  0  0  0  0  0  0  0  0  0  0
  -46.0494   57.4338   63.9837 C   0  0  0  0  0  0  0  0  0  0  0  0
  -45.7632   58.8672   64.4003 C   0  0  0  0  0  0  0  0  0  0  0  0
  -46.2472   59.1068   65.8203 C   0  0  0  0  0  0  0  0  0  0  0  0
  -47.7410   58.8580   65.9770 C   0  0  0  0  0  0  0  0  0  0  0  0
  -48.4570   59.8040   65.0240 C   0  0  0  0  0  0  0  0  0  0  0  0
  -49.9570   59.6540   65.1090 C   0  0  0  0  0  0  0  0  0  0  0  0
  -50.7835   60.8081   65.4966 C   0  0  0  0  0  0  0  0  0  0  0  0
  -50.1051   62.0523   66.0125 C   0  0  0  0  0  0  0  0  0  0  0  0
  -49.2848   61.7422   67.2599 C   0  0  0  0  0  0  0  0  0  0  0  0
  -48.6162   63.0129   67.7839 C   0  0  0  0  0  0  0  0  0  0  0  0
  -47.7702   62.7360   69.0259 C   0  0  0  0  0  0  0  0  0  0  0  0
  -47.1128   64.0095   69.5639 C   0  0  0  0  0  0  0  0  0  0  0  0
  -46.2475   63.7568   70.7957 C   0  0  0  0  0  0  0  0  0  0  0  0
  -43.4488   56.5674   63.9562 H   0  0  0  0  0  0  0  0  0  0  0  0
  -43.6244   57.7209   65.2536 H   0  0  0  0  0  0  0  0  0  0  0  0
  -43.3129   56.8578   67.4286 H   0  0  0  0  0  0  0  0  0  0  0  0
  -45.7162   56.6513   65.9275 H   0  0  0  0  0  0  0  0  0  0  0  0
  -45.5234   55.4883   64.6153 H   0  0  0  0  0  0  0  0  0  0  0  0
  -47.1035   57.2534   64.0189 H   0  0  0  0  0  0  0  0  0  0  0  0
  -45.6986   57.2699   62.9862 H   0  0  0  0  0  0  0  0  0  0  0  0
  -46.2699   59.5361   63.7365 H   0  0  0  0  0  0  0  0  0  0  0  0
  -44.7081   59.0396   64.3570 H   0  0  0  0  0  0  0  0  0  0  0  0
  -46.0386   60.1217   66.0873 H   0  0  0  0  0  0  0  0  0  0  0  0
  -45.7343   58.4185   66.4591 H   0  0  0  0  0  0  0  0  0  0  0  0
  -48.0419   59.0556   66.9846 H   0  0  0  0  0  0  0  0  0  0  0  0
  -47.9820   57.8397   65.7538 H   0  0  0  0  0  0  0  0  0  0  0  0
  -48.1435   59.5908   64.0234 H   0  0  0  0  0  0  0  0  0  0  0  0
  -48.2063   60.8071   65.2994 H   0  0  0  0  0  0  0  0  0  0  0  0
  -50.4004   58.7467   64.8964 H   0  0  0  0  0  0  0  0  0  0  0  0
  -51.8116   60.7668   65.4166 H   0  0  0  0  0  0  0  0  0  0  0  0
  -50.8484   62.7831   66.2539 H   0  0  0  0  0  0  0  0  0  0  0  0
  -49.4492   62.4257   65.2540 H   0  0  0  0  0  0  0  0  0  0  0  0
  -48.5321   61.0215   67.0173 H   0  0  0  0  0  0  0  0  0  0  0  0
  -49.9343   61.3532   68.0160 H   0  0  0  0  0  0  0  0  0  0  0  0
  -49.3741   63.7261   68.0327 H   0  0  0  0  0  0  0  0  0  0  0  0
  -47.9708   63.3900   67.0183 H   0  0  0  0  0  0  0  0  0  0  0  0
  -47.0052   62.0319   68.7734 H   0  0  0  0  0  0  0  0  0  0  0  0
  -48.4150   62.3487   69.7868 H   0  0  0  0  0  0  0  0  0  0  0  0
  -47.8816   64.7068   69.8240 H   0  0  0  0  0  0  0  0  0  0  0  0
  -46.4734   64.3901   68.7950 H   0  0  0  0  0  0  0  0  0  0  0  0
  -46.8571   63.3742   71.5874 H   0  0  0  0  0  0  0  0  0  0  0  0
  -45.7932   64.6743   71.1068 H   0  0  0  0  0  0  0  0  0  0  0  0
  -45.4855   63.0448   70.5563 H   0  0  0  0  0  0  0  0  0  0  0  0
  1  2  2  0  0  0  0
  1  3  1  0  0  0  0
  1  4  1  0  0  0  0
  3  5  1  0  0  0  0
  3 19  1  0  0  0  0
  3 20  1  0  0  0  0
  4 21  1  0  0  0  0
  5  6  1  0  0  0  0
  5 22  1  0  0  0  0
  5 23  1  0  0  0  0
  6  7  1  0  0  0  0
  6 24  1  0  0  0  0
  6 25  1  0  0  0  0
  7  8  1  0  0  0  0
  7 26  1  0  0  0  0
  7 27  1  0  0  0  0
  8  9  1  0  0  0  0
  8 28  1  0  0  0  0
  8 29  1  0  0  0  0
  9 10  1  0  0  0  0
  9 30  1  0  0  0  0
  9 31  1  0  0  0  0
 10 11  1  0  0  0  0
 10 32  1  0  0  0  0
 10 33  1  0  0  0  0
 11 12  2  0  0  0  0
 11 34  1  0  0  0  0
 12 13  1  0  0  0  0
 12 35  1  0  0  0  0
 13 14  1  0  0  0  0
 13 36  1  0  0  0  0
 13 37  1  0  0  0  0
 14 15  1  0  0  0  0
 14 38  1  0  0  0  0
 14 39  1  0  0  0  0
 15 16  1  0  0  0  0
 15 40  1  0  0  0  0
 15 41  1  0  0  0  0
 16 17  1  0  0  0  0
 16 42  1  0  0  0  0
 16 43  1  0  0  0  0
 17 18  1  0  0  0  0
 17 44  1  0  0  0  0
 17 45  1  0  0  0  0
 18 46  1  0  0  0  0
 18 47  1  0  0  0  0
 18 48  1  0  0  0  0
M  END
$$$$
/media/chris/experiments/cd1a-new-docking/inputs/ligands/4x6d_2_ligand.pdb
 OpenBabel07012320263D

 48 47  0  0  0  0  0  0  0  0999 V2000
  -51.7170   56.1969   62.9329 C   0  0  0  0  0  0  0  0  0  0  0  0
  -51.1806   57.0955   62.2558 O   0  0  0  0  0  0  0  0  0  0  0  0
  -52.1710   56.4821   64.3429 C   0  0  0  0  0  0  0  0  0  0  0  0
  -51.8716   55.0688   62.4189 O   0  0  0  0  0  0  0  0  0  0  0  0
  -51.4369   55.5563   65.2998 C   0  0  0  0  0  0  0  0  0  0  0  0
  -49.9342   55.7639   65.2417 C   0  0  0  0  0  0  0  0  0  0  0  0
  -49.6179   57.1967   65.6381 C   0  0  0  0  0  0  0  0  0  0  0  0
  -48.1197   57.4400   65.5725 C   0  0  0  0  0  0  0  0  0  0  0  0
  -47.7410   58.8580   65.9770 C   0  0  0  0  0  0  0  0  0  0  0  0
  -48.4570   59.8040   65.0240 C   0  0  0  0  0  0  0  0  0  0  0  0
  -49.9570   59.6540   65.1090 C   0  0  0  0  0  0  0  0  0  0  0  0
  -50.7188   60.4801   66.0590 C   0  0  0  0  0  0  0  0  0  0  0  0
  -49.9693   61.2990   67.0798 C   0  0  0  0  0  0  0  0  0  0  0  0
  -50.2775   62.7829   66.9134 C   0  0  0  0  0  0  0  0  0  0  0  0
  -49.8834   63.2524   65.5132 C   0  0  0  0  0  0  0  0  0  0  0  0
  -50.1627   64.7416   65.3163 C   0  0  0  0  0  0  0  0  0  0  0  0
  -49.3726   65.6056   66.3025 C   0  0  0  0  0  0  0  0  0  0  0  0
  -49.6474   67.0980   66.1377 C   0  0  0  0  0  0  0  0  0  0  0  0
  -53.2250   56.3148   64.4205 H   0  0  0  0  0  0  0  0  0  0  0  0
  -51.9564   57.5005   64.5913 H   0  0  0  0  0  0  0  0  0  0  0  0
  -52.2728   54.3803   62.9118 H   0  0  0  0  0  0  0  0  0  0  0  0
  -51.6570   54.5424   65.0383 H   0  0  0  0  0  0  0  0  0  0  0  0
  -51.7653   55.7765   66.2940 H   0  0  0  0  0  0  0  0  0  0  0  0
  -49.5849   55.5813   64.2470 H   0  0  0  0  0  0  0  0  0  0  0  0
  -49.4491   55.0870   65.9136 H   0  0  0  0  0  0  0  0  0  0  0  0
  -49.9611   57.3712   66.6364 H   0  0  0  0  0  0  0  0  0  0  0  0
  -50.1101   57.8633   64.9611 H   0  0  0  0  0  0  0  0  0  0  0  0
  -47.7878   57.2690   64.5698 H   0  0  0  0  0  0  0  0  0  0  0  0
  -47.6509   56.7692   66.2619 H   0  0  0  0  0  0  0  0  0  0  0  0
  -46.6822   58.9911   65.8990 H   0  0  0  0  0  0  0  0  0  0  0  0
  -48.0249   59.0527   66.9901 H   0  0  0  0  0  0  0  0  0  0  0  0
  -48.1435   59.5908   64.0234 H   0  0  0  0  0  0  0  0  0  0  0  0
  -48.2063   60.8071   65.2994 H   0  0  0  0  0  0  0  0  0  0  0  0
  -50.4455   58.9755   64.5039 H   0  0  0  0  0  0  0  0  0  0  0  0
  -51.7502   60.4989   66.0272 H   0  0  0  0  0  0  0  0  0  0  0  0
  -48.9185   61.1423   66.9526 H   0  0  0  0  0  0  0  0  0  0  0  0
  -50.2751   60.9921   68.0582 H   0  0  0  0  0  0  0  0  0  0  0  0
  -49.7270   63.3417   67.6411 H   0  0  0  0  0  0  0  0  0  0  0  0
  -51.3274   62.9380   67.0500 H   0  0  0  0  0  0  0  0  0  0  0  0
  -50.4433   62.6961   64.7907 H   0  0  0  0  0  0  0  0  0  0  0  0
  -48.8326   63.0913   65.3911 H   0  0  0  0  0  0  0  0  0  0  0  0
  -51.2079   64.9196   65.4606 H   0  0  0  0  0  0  0  0  0  0  0  0
  -49.8594   65.0078   64.3253 H   0  0  0  0  0  0  0  0  0  0  0  0
  -48.3282   65.4316   66.1481 H   0  0  0  0  0  0  0  0  0  0  0  0
  -49.6808   65.3295   67.2893 H   0  0  0  0  0  0  0  0  0  0  0  0
  -49.3499   67.4094   65.1582 H   0  0  0  0  0  0  0  0  0  0  0  0
  -49.0921   67.6459   66.8701 H   0  0  0  0  0  0  0  0  0  0  0  0
  -50.6927   67.2849   66.2693 H   0  0  0  0  0  0  0  0  0  0  0  0
  1  2  2  0  0  0  0
  1  3  1  0  0  0  0
  1  4  1  0  0  0  0
  3  5  1  0  0  0  0
  3 19  1  0  0  0  0
  3 20  1  0  0  0  0
  4 21  1  0  0  0  0
  5  6  1  0  0  0  0
  5 22  1  0  0  0  0
  5 23  1  0  0  0  0
  6  7  1  0  0  0  0
  6 24  1  0  0  0  0
  6 25  1  0  0  0  0
  7  8  1  0  0  0  0
  7 26  1  0  0  0  0
  7 27  1  0  0  0  0
  8  9  1  0  0  0  0
  8 28  1  0  0  0  0
  8 29  1  0  0  0  0
  9 10  1  0  0  0  0
  9 30  1  0  0  0  0
  9 31  1  0  0  0  0
 10 11  1  0  0  0  0
 10 32  1  0  0  0  0
 10 33  1  0  0  0  0
 11 12  2  0  0  0  0
 11 34  1  0  0  0  0
 12 13  1  0  0  0  0
 12 35  1  0  0  0  0
 13 14  1  0  0  0  0
 13 36  1  0  0  0  0
 13 37  1  0  0  0  0
 14 15  1  0  0  0  0
 14 38  1  0  0  0  0
 14 39  1  0  0  0  0
 15 16  1  0  0  0  0
 15 40  1  0  0  0  0
 15 41  1  0  0  0  0
 16 17  1  0  0  0  0
 16 42  1  0  0  0  0
 16 43  1  0  0  0  0
 17 18  1  0  0  0  0
 17 44  1  0  0  0  0
 17 45  1  0  0  0  0
 18 46  1  0  0  0  0
 18 47  1  0  0  0  0
 18 48  1  0  0  0  0
M  END
$$$$
/media/chris/experiments/cd1a-new-docking/inputs/ligands/4x6d_2_ligand.pdb
 OpenBabel07012320263D

 48 47  0  0  0  0  0  0  0  0999 V2000
  -51.1850   53.1774   65.9066 C   0  0  0  0  0  0  0  0  0  0  0  0
  -50.8695   52.0285   65.5403 O   0  0  0  0  0  0  0  0  0  0  0  0
  -51.8239   54.1332   64.9300 C   0  0  0  0  0  0  0  0  0  0  0  0
  -50.9656   53.5119   67.0902 O   0  0  0  0  0  0  0  0  0  0  0  0
  -51.4369   55.5563   65.2998 C   0  0  0  0  0  0  0  0  0  0  0  0
  -49.9342   55.7639   65.2417 C   0  0  0  0  0  0  0  0  0  0  0  0
  -49.6179   57.1967   65.6381 C   0  0  0  0  0  0  0  0  0  0  0  0
  -48.1197   57.4400   65.5725 C   0  0  0  0  0  0  0  0  0  0  0  0
  -47.7410   58.8580   65.9770 C   0  0  0  0  0  0  0  0  0  0  0  0
  -48.4570   59.8040   65.0240 C   0  0  0  0  0  0  0  0  0  0  0  0
  -49.9570   59.6540   65.1090 C   0  0  0  0  0  0  0  0  0  0  0  0
  -50.7188   60.4801   66.0590 C   0  0  0  0  0  0  0  0  0  0  0  0
  -49.9693   61.2990   67.0798 C   0  0  0  0  0  0  0  0  0  0  0  0
  -49.7566   60.5009   68.3615 C   0  0  0  0  0  0  0  0  0  0  0  0
  -49.0118   61.3460   69.3946 C   0  0  0  0  0  0  0  0  0  0  0  0
  -47.6484   61.8011   68.8764 C   0  0  0  0  0  0  0  0  0  0  0  0
  -46.7505   60.6152   68.5149 C   0  0  0  0  0  0  0  0  0  0  0  0
  -45.3750   61.0433   68.0102 C   0  0  0  0  0  0  0  0  0  0  0  0
  -52.8880   54.0293   64.9712 H   0  0  0  0  0  0  0  0  0  0  0  0
  -51.4862   53.9143   63.9385 H   0  0  0  0  0  0  0  0  0  0  0  0
  -51.1956   54.3712   67.3845 H   0  0  0  0  0  0  0  0  0  0  0  0
  -51.7768   55.7608   66.2935 H   0  0  0  0  0  0  0  0  0  0  0  0
  -51.8922   56.2194   64.5941 H   0  0  0  0  0  0  0  0  0  0  0  0
  -49.5849   55.5813   64.2470 H   0  0  0  0  0  0  0  0  0  0  0  0
  -49.4491   55.0870   65.9136 H   0  0  0  0  0  0  0  0  0  0  0  0
  -49.9611   57.3712   66.6364 H   0  0  0  0  0  0  0  0  0  0  0  0
  -50.1101   57.8633   64.9611 H   0  0  0  0  0  0  0  0  0  0  0  0
  -47.7878   57.2690   64.5698 H   0  0  0  0  0  0  0  0  0  0  0  0
  -47.6509   56.7692   66.2619 H   0  0  0  0  0  0  0  0  0  0  0  0
  -46.6822   58.9911   65.8990 H   0  0  0  0  0  0  0  0  0  0  0  0
  -48.0249   59.0527   66.9901 H   0  0  0  0  0  0  0  0  0  0  0  0
  -48.1435   59.5908   64.0234 H   0  0  0  0  0  0  0  0  0  0  0  0
  -48.2063   60.8071   65.2994 H   0  0  0  0  0  0  0  0  0  0  0  0
  -50.4455   58.9755   64.5039 H   0  0  0  0  0  0  0  0  0  0  0  0
  -51.7502   60.4989   66.0272 H   0  0  0  0  0  0  0  0  0  0  0  0
  -50.5323   62.1807   67.3046 H   0  0  0  0  0  0  0  0  0  0  0  0
  -49.0138   61.5610   66.6757 H   0  0  0  0  0  0  0  0  0  0  0  0
  -49.1821   59.6255   68.1411 H   0  0  0  0  0  0  0  0  0  0  0  0
  -50.7096   60.2227   68.7607 H   0  0  0  0  0  0  0  0  0  0  0  0
  -48.8691   60.7637   70.2809 H   0  0  0  0  0  0  0  0  0  0  0  0
  -49.5988   62.2171   69.5983 H   0  0  0  0  0  0  0  0  0  0  0  0
  -47.1661   62.3816   69.6350 H   0  0  0  0  0  0  0  0  0  0  0  0
  -47.8066   62.3797   67.9903 H   0  0  0  0  0  0  0  0  0  0  0  0
  -47.2321   60.0432   67.7495 H   0  0  0  0  0  0  0  0  0  0  0  0
  -46.6013   60.0421   69.4061 H   0  0  0  0  0  0  0  0  0  0  0  0
  -45.4869   61.6207   67.1164 H   0  0  0  0  0  0  0  0  0  0  0  0
  -44.7852   60.1750   67.8025 H   0  0  0  0  0  0  0  0  0  0  0  0
  -44.8887   61.6342   68.7580 H   0  0  0  0  0  0  0  0  0  0  0  0
  1  2  2  0  0  0  0
  1  3  1  0  0  0  0
  1  4  1  0  0  0  0
  3  5  1  0  0  0  0
  3 19  1  0  0  0  0
  3 20  1  0  0  0  0
  4 21  1  0  0  0  0
  5  6  1  0  0  0  0
  5 22  1  0  0  0  0
  5 23  1  0  0  0  0
  6  7  1  0  0  0  0
  6 24  1  0  0  0  0
  6 25  1  0  0  0  0
  7  8  1  0  0  0  0
  7 26  1  0  0  0  0
  7 27  1  0  0  0  0
  8  9  1  0  0  0  0
  8 28  1  0  0  0  0
  8 29  1  0  0  0  0
  9 10  1  0  0  0  0
  9 30  1  0  0  0  0
  9 31  1  0  0  0  0
 10 11  1  0  0  0  0
 10 32  1  0  0  0  0
 10 33  1  0  0  0  0
 11 12  2  0  0  0  0
 11 34  1  0  0  0  0
 12 13  1  0  0  0  0
 12 35  1  0  0  0  0
 13 14  1  0  0  0  0
 13 36  1  0  0  0  0
 13 37  1  0  0  0  0
 14 15  1  0  0  0  0
 14 38  1  0  0  0  0
 14 39  1  0  0  0  0
 15 16  1  0  0  0  0
 15 40  1  0  0  0  0
 15 41  1  0  0  0  0
 16 17  1  0  0  0  0
 16 42  1  0  0  0  0
 16 43  1  0  0  0  0
 17 18  1  0  0  0  0
 17 44  1  0  0  0  0
 17 45  1  0  0  0  0
 18 46  1  0  0  0  0
 18 47  1  0  0  0  0
 18 48  1  0  0  0  0
M  END
$$$$
/media/chris/experiments/cd1a-new-docking/inputs/ligands/4x6d_2_ligand.pdb
 OpenBabel07012320263D

 48 47  0  0  0  0  0  0  0  0999 V2000
  -47.8202   61.7967   71.9346 C   0  0  0  0  0  0  0  0  0  0  0  0
  -48.3513   61.4603   73.0109 O   0  0  0  0  0  0  0  0  0  0  0  0
  -48.5713   62.6720   70.9623 C   0  0  0  0  0  0  0  0  0  0  0  0
  -46.6621   61.3992   71.6863 O   0  0  0  0  0  0  0  0  0  0  0  0
  -48.1263   62.3404   69.5468 C   0  0  0  0  0  0  0  0  0  0  0  0
  -48.4141   60.8930   69.1910 C   0  0  0  0  0  0  0  0  0  0  0  0
  -47.9302   60.6268   67.7751 C   0  0  0  0  0  0  0  0  0  0  0  0
  -48.2208   59.1879   67.3837 C   0  0  0  0  0  0  0  0  0  0  0  0
  -47.7410   58.8580   65.9770 C   0  0  0  0  0  0  0  0  0  0  0  0
  -48.4570   59.8040   65.0240 C   0  0  0  0  0  0  0  0  0  0  0  0
  -49.9570   59.6540   65.1090 C   0  0  0  0  0  0  0  0  0  0  0  0
  -50.7833   59.9126   63.9192 C   0  0  0  0  0  0  0  0  0  0  0  0
  -50.1406   60.5325   62.7039 C   0  0  0  0  0  0  0  0  0  0  0  0
  -50.2291   62.0536   62.7629 C   0  0  0  0  0  0  0  0  0  0  0  0
  -49.5905   62.6703   61.5187 C   0  0  0  0  0  0  0  0  0  0  0  0
  -48.1205   62.2763   61.3828 C   0  0  0  0  0  0  0  0  0  0  0  0
  -47.2965   62.7204   62.5941 C   0  0  0  0  0  0  0  0  0  0  0  0
  -45.8197   62.3534   62.4751 C   0  0  0  0  0  0  0  0  0  0  0  0
  -48.3630   63.7005   71.1716 H   0  0  0  0  0  0  0  0  0  0  0  0
  -49.6226   62.4983   71.0593 H   0  0  0  0  0  0  0  0  0  0  0  0
  -46.2459   61.6414   70.8825 H   0  0  0  0  0  0  0  0  0  0  0  0
  -47.0738   62.5148   69.4645 H   0  0  0  0  0  0  0  0  0  0  0  0
  -48.6730   62.9645   68.8710 H   0  0  0  0  0  0  0  0  0  0  0  0
  -49.4669   60.7112   69.2506 H   0  0  0  0  0  0  0  0  0  0  0  0
  -47.9070   60.2446   69.8747 H   0  0  0  0  0  0  0  0  0  0  0  0
  -46.8757   60.8012   67.7232 H   0  0  0  0  0  0  0  0  0  0  0  0
  -48.4421   61.2823   67.1019 H   0  0  0  0  0  0  0  0  0  0  0  0
  -49.2773   59.0257   67.4327 H   0  0  0  0  0  0  0  0  0  0  0  0
  -47.6933   58.5529   68.0644 H   0  0  0  0  0  0  0  0  0  0  0  0
  -47.9815   57.8436   65.7361 H   0  0  0  0  0  0  0  0  0  0  0  0
  -46.6800   58.9732   65.9008 H   0  0  0  0  0  0  0  0  0  0  0  0
  -48.1435   59.5908   64.0234 H   0  0  0  0  0  0  0  0  0  0  0  0
  -48.2063   60.8071   65.2994 H   0  0  0  0  0  0  0  0  0  0  0  0
  -50.4005   59.3715   65.9970 H   0  0  0  0  0  0  0  0  0  0  0  0
  -51.7872   59.6735   63.9164 H   0  0  0  0  0  0  0  0  0  0  0  0
  -50.6432   60.1855   61.8254 H   0  0  0  0  0  0  0  0  0  0  0  0
  -49.1091   60.2491   62.6784 H   0  0  0  0  0  0  0  0  0  0  0  0
  -49.7153   62.4036   63.6338 H   0  0  0  0  0  0  0  0  0  0  0  0
  -51.2589   62.3411   62.8048 H   0  0  0  0  0  0  0  0  0  0  0  0
  -49.6590   63.7360   61.5859 H   0  0  0  0  0  0  0  0  0  0  0  0
  -50.1141   62.3056   60.6597 H   0  0  0  0  0  0  0  0  0  0  0  0
  -47.7190   62.7358   60.5039 H   0  0  0  0  0  0  0  0  0  0  0  0
  -48.0676   61.2095   61.3187 H   0  0  0  0  0  0  0  0  0  0  0  0
  -47.6955   62.2510   63.4690 H   0  0  0  0  0  0  0  0  0  0  0  0
  -47.3586   63.7871   62.6509 H   0  0  0  0  0  0  0  0  0  0  0  0
  -45.7201   61.2897   62.4159 H   0  0  0  0  0  0  0  0  0  0  0  0
  -45.2923   62.7138   63.3335 H   0  0  0  0  0  0  0  0  0  0  0  0
  -45.4113   62.7995   61.5924 H   0  0  0  0  0  0  0  0  0  0  0  0
  1  2  2  0  0  0  0
  1  3  1  0  0  0  0
  1  4  1  0  0  0  0
  3  5  1  0  0  0  0
  3 19  1  0  0  0  0
  3 20  1  0  0  0  0
  4 21  1  0  0  0  0
  5  6  1  0  0  0  0
  5 22  1  0  0  0  0
  5 23  1  0  0  0  0
  6  7  1  0  0  0  0
  6 24  1  0  0  0  0
  6 25  1  0  0  0  0
  7  8  1  0  0  0  0
  7 26  1  0  0  0  0
  7 27  1  0  0  0  0
  8  9  1  0  0  0  0
  8 28  1  0  0  0  0
  8 29  1  0  0  0  0
  9 10  1  0  0  0  0
  9 30  1  0  0  0  0
  9 31  1  0  0  0  0
 10 11  1  0  0  0  0
 10 32  1  0  0  0  0
 10 33  1  0  0  0  0
 11 12  2  0  0  0  0
 11 34  1  0  0  0  0
 12 13  1  0  0  0  0
 12 35  1  0  0  0  0
 13 14  1  0  0  0  0
 13 36  1  0  0  0  0
 13 37  1  0  0  0  0
 14 15  1  0  0  0  0
 14 38  1  0  0  0  0
 14 39  1  0  0  0  0
 15 16  1  0  0  0  0
 15 40  1  0  0  0  0
 15 41  1  0  0  0  0
 16 17  1  0  0  0  0
 16 42  1  0  0  0  0
 16 43  1  0  0  0  0
 17 18  1  0  0  0  0
 17 44  1  0  0  0  0
 17 45  1  0  0  0  0
 18 46  1  0  0  0  0
 18 47  1  0  0  0  0
 18 48  1  0  0  0  0
M  END
$$$$
/media/chris/experiments/cd1a-new-docking/inputs/ligands/4x6d_2_ligand.pdb
 OpenBabel07012320263D

 48 47  0  0  0  0  0  0  0  0999 V2000
  -43.2372   59.0578   69.2624 C   0  0  0  0  0  0  0  0  0  0  0  0
  -43.4223   57.8335   69.1187 O   0  0  0  0  0  0  0  0  0  0  0  0
  -43.9372   60.0395   68.3559 C   0  0  0  0  0  0  0  0  0  0  0  0
  -42.4701   59.4470   70.1684 O   0  0  0  0  0  0  0  0  0  0  0  0
  -45.4409   59.8827   68.5178 C   0  0  0  0  0  0  0  0  0  0  0  0
  -46.2061   60.8344   67.6161 C   0  0  0  0  0  0  0  0  0  0  0  0
  -45.8552   60.5327   66.1684 C   0  0  0  0  0  0  0  0  0  0  0  0
  -46.2472   59.1068   65.8203 C   0  0  0  0  0  0  0  0  0  0  0  0
  -47.7410   58.8580   65.9770 C   0  0  0  0  0  0  0  0  0  0  0  0
  -48.4570   59.8040   65.0240 C   0  0  0  0  0  0  0  0  0  0  0  0
  -49.9570   59.6540   65.1090 C   0  0  0  0  0  0  0  0  0  0  0  0
  -50.8211   60.4770   64.2480 C   0  0  0  0  0  0  0  0  0  0  0  0
  -50.2050   61.6051   63.4592 C   0  0  0  0  0  0  0  0  0  0  0  0
  -50.4196   61.3983   61.9638 C   0  0  0  0  0  0  0  0  0  0  0  0
  -49.7925   60.0783   61.5160 C   0  0  0  0  0  0  0  0  0  0  0  0
  -48.2915   60.0402   61.7991 C   0  0  0  0  0  0  0  0  0  0  0  0
  -47.5473   61.1715   61.0851 C   0  0  0  0  0  0  0  0  0  0  0  0
  -46.0423   61.1455   61.3382 C   0  0  0  0  0  0  0  0  0  0  0  0
  -43.6644   59.8458   67.3395 H   0  0  0  0  0  0  0  0  0  0  0  0
  -43.6492   61.0370   68.6145 H   0  0  0  0  0  0  0  0  0  0  0  0
  -42.3181   60.3632   70.2923 H   0  0  0  0  0  0  0  0  0  0  0  0
  -45.7026   60.0838   69.5356 H   0  0  0  0  0  0  0  0  0  0  0  0
  -45.7027   58.8819   68.2445 H   0  0  0  0  0  0  0  0  0  0  0  0
  -45.9364   61.8436   67.8480 H   0  0  0  0  0  0  0  0  0  0  0  0
  -47.2580   60.7090   67.7672 H   0  0  0  0  0  0  0  0  0  0  0  0
  -44.8015   60.6542   66.0274 H   0  0  0  0  0  0  0  0  0  0  0  0
  -46.3888   61.2071   65.5317 H   0  0  0  0  0  0  0  0  0  0  0  0
  -45.7183   58.4380   66.4668 H   0  0  0  0  0  0  0  0  0  0  0  0
  -45.9962   58.9421   64.7933 H   0  0  0  0  0  0  0  0  0  0  0  0
  -48.0419   59.0556   66.9846 H   0  0  0  0  0  0  0  0  0  0  0  0
  -47.9820   57.8397   65.7538 H   0  0  0  0  0  0  0  0  0  0  0  0
  -48.1435   59.5908   64.0234 H   0  0  0  0  0  0  0  0  0  0  0  0
  -48.2063   60.8071   65.2994 H   0  0  0  0  0  0  0  0  0  0  0  0
  -50.3741   58.9777   65.7676 H   0  0  0  0  0  0  0  0  0  0  0  0
  -51.8332   60.2852   64.1849 H   0  0  0  0  0  0  0  0  0  0  0  0
  -49.1550   61.6423   63.6614 H   0  0  0  0  0  0  0  0  0  0  0  0
  -50.6723   62.5228   63.7497 H   0  0  0  0  0  0  0  0  0  0  0  0
  -49.9654   62.2050   61.4271 H   0  0  0  0  0  0  0  0  0  0  0  0
  -51.4702   61.3705   61.7633 H   0  0  0  0  0  0  0  0  0  0  0  0
  -49.9500   59.9588   60.4644 H   0  0  0  0  0  0  0  0  0  0  0  0
  -50.2556   59.2858   62.0659 H   0  0  0  0  0  0  0  0  0  0  0  0
  -47.8998   59.1027   61.4636 H   0  0  0  0  0  0  0  0  0  0  0  0
  -48.1494   60.1627   62.8525 H   0  0  0  0  0  0  0  0  0  0  0  0
  -47.9355   62.1068   61.4308 H   0  0  0  0  0  0  0  0  0  0  0  0
  -47.6983   61.0417   60.0338 H   0  0  0  0  0  0  0  0  0  0  0  0
  -45.8542   61.2732   62.3838 H   0  0  0  0  0  0  0  0  0  0  0  0
  -45.5750   61.9383   60.7924 H   0  0  0  0  0  0  0  0  0  0  0  0
  -45.6426   60.2067   61.0160 H   0  0  0  0  0  0  0  0  0  0  0  0
  1  2  2  0  0  0  0
  1  3  1  0  0  0  0
  1  4  1  0  0  0  0
  3  5  1  0  0  0  0
  3 19  1  0  0  0  0
  3 20  1  0  0  0  0
  4 21  1  0  0  0  0
  5  6  1  0  0  0  0
  5 22  1  0  0  0  0
  5 23  1  0  0  0  0
  6  7  1  0  0  0  0
  6 24  1  0  0  0  0
  6 25  1  0  0  0  0
  7  8  1  0  0  0  0
  7 26  1  0  0  0  0
  7 27  1  0  0  0  0
  8  9  1  0  0  0  0
  8 28  1  0  0  0  0
  8 29  1  0  0  0  0
  9 10  1  0  0  0  0
  9 30  1  0  0  0  0
  9 31  1  0  0  0  0
 10 11  1  0  0  0  0
 10 32  1  0  0  0  0
 10 33  1  0  0  0  0
 11 12  2  0  0  0  0
 11 34  1  0  0  0  0
 12 13  1  0  0  0  0
 12 35  1  0  0  0  0
 13 14  1  0  0  0  0
 13 36  1  0  0  0  0
 13 37  1  0  0  0  0
 14 15  1  0  0  0  0
 14 38  1  0  0  0  0
 14 39  1  0  0  0  0
 15 16  1  0  0  0  0
 15 40  1  0  0  0  0
 15 41  1  0  0  0  0
 16 17  1  0  0  0  0
 16 42  1  0  0  0  0
 16 43  1  0  0  0  0
 17 18  1  0  0  0  0
 17 44  1  0  0  0  0
 17 45  1  0  0  0  0
 18 46  1  0  0  0  0
 18 47  1  0  0  0  0
 18 48  1  0  0  0  0
M  END
$$$$
/media/chris/experiments/cd1a-new-docking/inputs/ligands/4x6d_2_ligand.pdb
 OpenBabel07012320263D

 48 47  0  0  0  0  0  0  0  0999 V2000
  -49.7737   56.2528   61.4443 C   0  0  0  0  0  0  0  0  0  0  0  0
  -50.3318   55.9483   62.5164 O   0  0  0  0  0  0  0  0  0  0  0  0
  -48.2696   56.3456   61.3749 C   0  0  0  0  0  0  0  0  0  0  0  0
  -50.4827   56.4722   60.4393 O   0  0  0  0  0  0  0  0  0  0  0  0
  -47.6638   55.3810   62.3820 C   0  0  0  0  0  0  0  0  0  0  0  0
  -48.1147   55.6897   63.7983 C   0  0  0  0  0  0  0  0  0  0  0  0
  -47.6965   57.1075   64.1518 C   0  0  0  0  0  0  0  0  0  0  0  0
  -48.1197   57.4400   65.5725 C   0  0  0  0  0  0  0  0  0  0  0  0
  -47.7410   58.8580   65.9770 C   0  0  0  0  0  0  0  0  0  0  0  0
  -48.4570   59.8040   65.0240 C   0  0  0  0  0  0  0  0  0  0  0  0
  -49.9570   59.6540   65.1090 C   0  0  0  0  0  0  0  0  0  0  0  0
  -50.7188   60.4801   66.0590 C   0  0  0  0  0  0  0  0  0  0  0  0
  -49.9693   61.2990   67.0798 C   0  0  0  0  0  0  0  0  0  0  0  0
  -50.7922   61.4588   68.3534 C   0  0  0  0  0  0  0  0  0  0  0  0
  -51.0829   60.0915   68.9717 C   0  0  0  0  0  0  0  0  0  0  0  0
  -51.8517   59.1874   68.0094 C   0  0  0  0  0  0  0  0  0  0  0  0
  -52.1599   57.8230   68.6314 C   0  0  0  0  0  0  0  0  0  0  0  0
  -50.9037   57.0626   69.0483 C   0  0  0  0  0  0  0  0  0  0  0  0
  -47.9614   57.3440   61.6050 H   0  0  0  0  0  0  0  0  0  0  0  0
  -47.9383   56.0924   60.3895 H   0  0  0  0  0  0  0  0  0  0  0  0
  -50.0818   56.7024   59.6243 H   0  0  0  0  0  0  0  0  0  0  0  0
  -46.5974   55.4545   62.3341 H   0  0  0  0  0  0  0  0  0  0  0  0
  -47.9921   54.3928   62.1359 H   0  0  0  0  0  0  0  0  0  0  0  0
  -47.6587   55.0009   64.4783 H   0  0  0  0  0  0  0  0  0  0  0  0
  -49.1786   55.5984   63.8674 H   0  0  0  0  0  0  0  0  0  0  0  0
  -48.1623   57.7927   63.4747 H   0  0  0  0  0  0  0  0  0  0  0  0
  -46.6321   57.1868   64.0766 H   0  0  0  0  0  0  0  0  0  0  0  0
  -47.6440   56.7537   66.2417 H   0  0  0  0  0  0  0  0  0  0  0  0
  -49.1857   57.3618   65.6210 H   0  0  0  0  0  0  0  0  0  0  0  0
  -46.6822   58.9911   65.8990 H   0  0  0  0  0  0  0  0  0  0  0  0
  -48.0249   59.0527   66.9901 H   0  0  0  0  0  0  0  0  0  0  0  0
  -48.1435   59.5908   64.0234 H   0  0  0  0  0  0  0  0  0  0  0  0
  -48.2063   60.8071   65.2994 H   0  0  0  0  0  0  0  0  0  0  0  0
  -50.4455   58.9755   64.5039 H   0  0  0  0  0  0  0  0  0  0  0  0
  -51.7502   60.4989   66.0272 H   0  0  0  0  0  0  0  0  0  0  0  0
  -49.7632   62.2662   66.6713 H   0  0  0  0  0  0  0  0  0  0  0  0
  -49.0566   60.7953   67.3213 H   0  0  0  0  0  0  0  0  0  0  0  0
  -51.7166   61.9436   68.1180 H   0  0  0  0  0  0  0  0  0  0  0  0
  -50.2381   62.0473   69.0545 H   0  0  0  0  0  0  0  0  0  0  0  0
  -51.6655   60.2288   69.8586 H   0  0  0  0  0  0  0  0  0  0  0  0
  -50.1481   59.6214   69.1957 H   0  0  0  0  0  0  0  0  0  0  0  0
  -51.2634   59.0407   67.1278 H   0  0  0  0  0  0  0  0  0  0  0  0
  -52.7813   59.6639   67.7777 H   0  0  0  0  0  0  0  0  0  0  0  0
  -52.6936   57.2340   67.9151 H   0  0  0  0  0  0  0  0  0  0  0  0
  -52.7382   57.9963   69.5149 H   0  0  0  0  0  0  0  0  0  0  0  0
  -50.2997   56.8717   68.1860 H   0  0  0  0  0  0  0  0  0  0  0  0
  -51.1827   56.1341   69.5010 H   0  0  0  0  0  0  0  0  0  0  0  0
  -50.3482   57.6489   69.7501 H   0  0  0  0  0  0  0  0  0  0  0  0
  1  2  2  0  0  0  0
  1  3  1  0  0  0  0
  1  4  1  0  0  0  0
  3  5  1  0  0  0  0
  3 19  1  0  0  0  0
  3 20  1  0  0  0  0
  4 21  1  0  0  0  0
  5  6  1  0  0  0  0
  5 22  1  0  0  0  0
  5 23  1  0  0  0  0
  6  7  1  0  0  0  0
  6 24  1  0  0  0  0
  6 25  1  0  0  0  0
  7  8  1  0  0  0  0
  7 26  1  0  0  0  0
  7 27  1  0  0  0  0
  8  9  1  0  0  0  0
  8 28  1  0  0  0  0
  8 29  1  0  0  0  0
  9 10  1  0  0  0  0
  9 30  1  0  0  0  0
  9 31  1  0  0  0  0
 10 11  1  0  0  0  0
 10 32  1  0  0  0  0
 10 33  1  0  0  0  0
 11 12  2  0  0  0  0
 11 34  1  0  0  0  0
 12 13  1  0  0  0  0
 12 35  1  0  0  0  0
 13 14  1  0  0  0  0
 13 36  1  0  0  0  0
 13 37  1  0  0  0  0
 14 15  1  0  0  0  0
 14 38  1  0  0  0  0
 14 39  1  0  0  0  0
 15 16  1  0  0  0  0
 15 40  1  0  0  0  0
 15 41  1  0  0  0  0
 16 17  1  0  0  0  0
 16 42  1  0  0  0  0
 16 43  1  0  0  0  0
 17 18  1  0  0  0  0
 17 44  1  0  0  0  0
 17 45  1  0  0  0  0
 18 46  1  0  0  0  0
 18 47  1  0  0  0  0
 18 48  1  0  0  0  0
M  END
$$$$
/media/chris/experiments/cd1a-new-docking/inputs/ligands/4x6d_2_ligand.pdb
 OpenBabel07012320263D

 48 47  0  0  0  0  0  0  0  0999 V2000
  -45.4677   54.5115   63.3340 C   0  0  0  0  0  0  0  0  0  0  0  0
  -46.1939   54.7681   62.3539 O   0  0  0  0  0  0  0  0  0  0  0  0
  -45.9451   54.8233   64.7305 C   0  0  0  0  0  0  0  0  0  0  0  0
  -44.3497   53.9914   63.1332 O   0  0  0  0  0  0  0  0  0  0  0  0
  -47.4618   54.7256   64.7722 C   0  0  0  0  0  0  0  0  0  0  0  0
  -48.1147   55.6897   63.7983 C   0  0  0  0  0  0  0  0  0  0  0  0
  -47.6965   57.1075   64.1518 C   0  0  0  0  0  0  0  0  0  0  0  0
  -48.1197   57.4400   65.5725 C   0  0  0  0  0  0  0  0  0  0  0  0
  -47.7410   58.8580   65.9770 C   0  0  0  0  0  0  0  0  0  0  0  0
  -48.4570   59.8040   65.0240 C   0  0  0  0  0  0  0  0  0  0  0  0
  -49.9570   59.6540   65.1090 C   0  0  0  0  0  0  0  0  0  0  0  0
  -50.8211   60.4770   64.2480 C   0  0  0  0  0  0  0  0  0  0  0  0
  -50.2050   61.6051   63.4592 C   0  0  0  0  0  0  0  0  0  0  0  0
  -49.1519   61.0754   62.4921 C   0  0  0  0  0  0  0  0  0  0  0  0
  -48.5222   62.2284   61.7108 C   0  0  0  0  0  0  0  0  0  0  0  0
  -47.4724   61.7321   60.7177 C   0  0  0  0  0  0  0  0  0  0  0  0
  -46.8270   62.8856   59.9456 C   0  0  0  0  0  0  0  0  0  0  0  0
  -47.8379   63.7077   59.1504 C   0  0  0  0  0  0  0  0  0  0  0  0
  -45.6425   55.8137   64.9997 H   0  0  0  0  0  0  0  0  0  0  0  0
  -45.5201   54.1248   65.4207 H   0  0  0  0  0  0  0  0  0  0  0  0
  -43.7894   53.7910   63.8570 H   0  0  0  0  0  0  0  0  0  0  0  0
  -47.7967   54.9535   65.7626 H   0  0  0  0  0  0  0  0  0  0  0  0
  -47.7393   53.7307   64.4925 H   0  0  0  0  0  0  0  0  0  0  0  0
  -49.1790   55.6021   63.8657 H   0  0  0  0  0  0  0  0  0  0  0  0
  -47.8064   55.4598   62.7998 H   0  0  0  0  0  0  0  0  0  0  0  0
  -48.1623   57.7927   63.4747 H   0  0  0  0  0  0  0  0  0  0  0  0
  -46.6321   57.1868   64.0766 H   0  0  0  0  0  0  0  0  0  0  0  0
  -47.6440   56.7537   66.2417 H   0  0  0  0  0  0  0  0  0  0  0  0
  -49.1857   57.3618   65.6210 H   0  0  0  0  0  0  0  0  0  0  0  0
  -46.6822   58.9911   65.8990 H   0  0  0  0  0  0  0  0  0  0  0  0
  -48.0249   59.0527   66.9901 H   0  0  0  0  0  0  0  0  0  0  0  0
  -48.1435   59.5908   64.0234 H   0  0  0  0  0  0  0  0  0  0  0  0
  -48.2063   60.8071   65.2994 H   0  0  0  0  0  0  0  0  0  0  0  0
  -50.3741   58.9777   65.7676 H   0  0  0  0  0  0  0  0  0  0  0  0
  -51.8332   60.2852   64.1849 H   0  0  0  0  0  0  0  0  0  0  0  0
  -49.7455   62.2959   64.1348 H   0  0  0  0  0  0  0  0  0  0  0  0
  -50.9745   62.0914   62.8967 H   0  0  0  0  0  0  0  0  0  0  0  0
  -49.6124   60.3946   61.8069 H   0  0  0  0  0  0  0  0  0  0  0  0
  -48.3883   60.5741   63.0491 H   0  0  0  0  0  0  0  0  0  0  0  0
  -48.0563   62.9009   62.4005 H   0  0  0  0  0  0  0  0  0  0  0  0
  -49.2965   62.7197   61.1596 H   0  0  0  0  0  0  0  0  0  0  0  0
  -47.9414   61.0691   60.0210 H   0  0  0  0  0  0  0  0  0  0  0  0
  -46.7044   61.2314   61.2694 H   0  0  0  0  0  0  0  0  0  0  0  0
  -46.1064   62.4807   59.2662 H   0  0  0  0  0  0  0  0  0  0  0  0
  -46.3753   63.5388   60.6627 H   0  0  0  0  0  0  0  0  0  0  0  0
  -48.3105   63.0834   58.4211 H   0  0  0  0  0  0  0  0  0  0  0  0
  -47.3342   64.5130   58.6579 H   0  0  0  0  0  0  0  0  0  0  0  0
  -48.5777   64.1029   59.8148 H   0  0  0  0  0  0  0  0  0  0  0  0
  1  2  2  0  0  0  0
  1  3  1  0  0  0  0
  1  4  1  0  0  0  0
  3  5  1  0  0  0  0
  3 19  1  0  0  0  0
  3 20  1  0  0  0  0
  4 21  1  0  0  0  0
  5  6  1  0  0  0  0
  5 22  1  0  0  0  0
  5 23  1  0  0  0  0
  6  7  1  0  0  0  0
  6 24  1  0  0  0  0
  6 25  1  0  0  0  0
  7  8  1  0  0  0  0
  7 26  1  0  0  0  0
  7 27  1  0  0  0  0
  8  9  1  0  0  0  0
  8 28  1  0  0  0  0
  8 29  1  0  0  0  0
  9 10  1  0  0  0  0
  9 30  1  0  0  0  0
  9 31  1  0  0  0  0
 10 11  1  0  0  0  0
 10 32  1  0  0  0  0
 10 33  1  0  0  0  0
 11 12  2  0  0  0  0
 11 34  1  0  0  0  0
 12 13  1  0  0  0  0
 12 35  1  0  0  0  0
 13 14  1  0  0  0  0
 13 36  1  0  0  0  0
 13 37  1  0  0  0  0
 14 15  1  0  0  0  0
 14 38  1  0  0  0  0
 14 39  1  0  0  0  0
 15 16  1  0  0  0  0
 15 40  1  0  0  0  0
 15 41  1  0  0  0  0
 16 17  1  0  0  0  0
 16 42  1  0  0  0  0
 16 43  1  0  0  0  0
 17 18  1  0  0  0  0
 17 44  1  0  0  0  0
 17 45  1  0  0  0  0
 18 46  1  0  0  0  0
 18 47  1  0  0  0  0
 18 48  1  0  0  0  0
M  END
$$$$
/media/chris/experiments/cd1a-new-docking/inputs/ligands/4x6d_2_ligand.pdb
 OpenBabel07012320263D

 48 47  0  0  0  0  0  0  0  0999 V2000
  -43.1822   59.3485   69.2528 C   0  0  0  0  0  0  0  0  0  0  0  0
  -43.3184   59.3954   70.4910 O   0  0  0  0  0  0  0  0  0  0  0  0
  -44.0316   60.2240   68.3654 C   0  0  0  0  0  0  0  0  0  0  0  0
  -42.3313   58.5707   68.7713 O   0  0  0  0  0  0  0  0  0  0  0  0
  -43.6749   59.9555   66.9120 C   0  0  0  0  0  0  0  0  0  0  0  0
  -43.9331   58.5099   66.5271 C   0  0  0  0  0  0  0  0  0  0  0  0
  -45.4106   58.2057   66.7127 C   0  0  0  0  0  0  0  0  0  0  0  0
  -46.2472   59.1068   65.8203 C   0  0  0  0  0  0  0  0  0  0  0  0
  -47.7410   58.8580   65.9770 C   0  0  0  0  0  0  0  0  0  0  0  0
  -48.4570   59.8040   65.0240 C   0  0  0  0  0  0  0  0  0  0  0  0
  -49.9570   59.6540   65.1090 C   0  0  0  0  0  0  0  0  0  0  0  0
  -50.8212   60.8150   64.8434 C   0  0  0  0  0  0  0  0  0  0  0  0
  -50.1916   62.1787   64.7081 C   0  0  0  0  0  0  0  0  0  0  0  0
  -50.4793   62.7722   63.3334 C   0  0  0  0  0  0  0  0  0  0  0  0
  -49.9298   61.8601   62.2368 C   0  0  0  0  0  0  0  0  0  0  0  0
  -48.4210   61.6597   62.3710 C   0  0  0  0  0  0  0  0  0  0  0  0
  -47.6603   62.9859   62.2939 C   0  0  0  0  0  0  0  0  0  0  0  0
  -46.1482   62.8112   62.4083 C   0  0  0  0  0  0  0  0  0  0  0  0
  -43.8473   61.2527   68.5952 H   0  0  0  0  0  0  0  0  0  0  0  0
  -45.0663   60.0060   68.5285 H   0  0  0  0  0  0  0  0  0  0  0  0
  -42.2141   58.5211   67.8429 H   0  0  0  0  0  0  0  0  0  0  0  0
  -42.6380   60.1738   66.7636 H   0  0  0  0  0  0  0  0  0  0  0  0
  -44.2904   60.5788   66.2974 H   0  0  0  0  0  0  0  0  0  0  0  0
  -43.3523   57.8632   67.1512 H   0  0  0  0  0  0  0  0  0  0  0  0
  -43.6567   58.3525   65.5055 H   0  0  0  0  0  0  0  0  0  0  0  0
  -45.6801   58.3716   67.7348 H   0  0  0  0  0  0  0  0  0  0  0  0
  -45.5931   57.1851   66.4481 H   0  0  0  0  0  0  0  0  0  0  0  0
  -45.9748   58.9289   64.8010 H   0  0  0  0  0  0  0  0  0  0  0  0
  -46.0543   60.1191   66.1082 H   0  0  0  0  0  0  0  0  0  0  0  0
  -48.0419   59.0556   66.9846 H   0  0  0  0  0  0  0  0  0  0  0  0
  -47.9820   57.8397   65.7538 H   0  0  0  0  0  0  0  0  0  0  0  0
  -48.1435   59.5908   64.0234 H   0  0  0  0  0  0  0  0  0  0  0  0
  -48.2063   60.8071   65.2994 H   0  0  0  0  0  0  0  0  0  0  0  0
  -50.3741   58.7419   65.3521 H   0  0  0  0  0  0  0  0  0  0  0  0
  -51.8424   60.6979   64.7512 H   0  0  0  0  0  0  0  0  0  0  0  0
  -49.1332   62.0913   64.8382 H   0  0  0  0  0  0  0  0  0  0  0  0
  -50.6058   62.8240   65.4544 H   0  0  0  0  0  0  0  0  0  0  0  0
  -50.0144   63.7330   63.2592 H   0  0  0  0  0  0  0  0  0  0  0  0
  -51.5379   62.8669   63.2095 H   0  0  0  0  0  0  0  0  0  0  0  0
  -50.1377   62.2997   61.2837 H   0  0  0  0  0  0  0  0  0  0  0  0
  -50.4025   60.9047   62.3300 H   0  0  0  0  0  0  0  0  0  0  0  0
  -48.0850   61.0217   61.5805 H   0  0  0  0  0  0  0  0  0  0  0  0
  -48.2283   61.2219   63.3282 H   0  0  0  0  0  0  0  0  0  0  0  0
  -47.9923   63.6168   63.0918 H   0  0  0  0  0  0  0  0  0  0  0  0
  -47.8620   63.4164   61.3353 H   0  0  0  0  0  0  0  0  0  0  0  0
  -45.9097   62.3812   63.3587 H   0  0  0  0  0  0  0  0  0  0  0  0
  -45.6711   63.7647   62.3185 H   0  0  0  0  0  0  0  0  0  0  0  0
  -45.8037   62.1651   61.6280 H   0  0  0  0  0  0  0  0  0  0  0  0
  1  2  2  0  0  0  0
  1  3  1  0  0  0  0
  1  4  1  0  0  0  0
  3  5  1  0  0  0  0
  3 19  1  0  0  0  0
  3 20  1  0  0  0  0
  4 21  1  0  0  0  0
  5  6  1  0  0  0  0
  5 22  1  0  0  0  0
  5 23  1  0  0  0  0
  6  7  1  0  0  0  0
  6 24  1  0  0  0  0
  6 25  1  0  0  0  0
  7  8  1  0  0  0  0
  7 26  1  0  0  0  0
  7 27  1  0  0  0  0
  8  9  1  0  0  0  0
  8 28  1  0  0  0  0
  8 29  1  0  0  0  0
  9 10  1  0  0  0  0
  9 30  1  0  0  0  0
  9 31  1  0  0  0  0
 10 11  1  0  0  0  0
 10 32  1  0  0  0  0
 10 33  1  0  0  0  0
 11 12  2  0  0  0  0
 11 34  1  0  0  0  0
 12 13  1  0  0  0  0
 12 35  1  0  0  0  0
 13 14  1  0  0  0  0
 13 36  1  0  0  0  0
 13 37  1  0  0  0  0
 14 15  1  0  0  0  0
 14 38  1  0  0  0  0
 14 39  1  0  0  0  0
 15 16  1  0  0  0  0
 15 40  1  0  0  0  0
 15 41  1  0  0  0  0
 16 17  1  0  0  0  0
 16 42  1  0  0  0  0
 16 43  1  0  0  0  0
 17 18  1  0  0  0  0
 17 44  1  0  0  0  0
 17 45  1  0  0  0  0
 18 46  1  0  0  0  0
 18 47  1  0  0  0  0
 18 48  1  0  0  0  0
M  END
$$$$
/media/chris/experiments/cd1a-new-docking/inputs/ligands/4x6d_2_ligand.pdb
 OpenBabel07012320263D

 48 47  0  0  0  0  0  0  0  0999 V2000
  -46.4633   54.0346   67.1395 C   0  0  0  0  0  0  0  0  0  0  0  0
  -46.8877   53.6413   68.2435 O   0  0  0  0  0  0  0  0  0  0  0  0
  -45.0078   54.3950   66.9742 C   0  0  0  0  0  0  0  0  0  0  0  0
  -47.2632   54.1174   66.1834 O   0  0  0  0  0  0  0  0  0  0  0  0
  -44.8221   55.8724   67.2813 C   0  0  0  0  0  0  0  0  0  0  0  0
  -45.6568   56.7472   66.3634 C   0  0  0  0  0  0  0  0  0  0  0  0
  -45.4106   58.2057   66.7127 C   0  0  0  0  0  0  0  0  0  0  0  0
  -46.2472   59.1068   65.8203 C   0  0  0  0  0  0  0  0  0  0  0  0
  -47.7410   58.8580   65.9770 C   0  0  0  0  0  0  0  0  0  0  0  0
  -48.4570   59.8040   65.0240 C   0  0  0  0  0  0  0  0  0  0  0  0
  -49.9570   59.6540   65.1090 C   0  0  0  0  0  0  0  0  0  0  0  0
  -50.6439   58.6943   64.2300 C   0  0  0  0  0  0  0  0  0  0  0  0
  -49.8682   58.0413   63.1137 C   0  0  0  0  0  0  0  0  0  0  0  0
  -49.3087   59.0905   62.1593 C   0  0  0  0  0  0  0  0  0  0  0  0
  -48.5397   58.4170   61.0229 C   0  0  0  0  0  0  0  0  0  0  0  0
  -49.4369   57.4895   60.2046 C   0  0  0  0  0  0  0  0  0  0  0  0
  -50.5980   58.2463   59.5547 C   0  0  0  0  0  0  0  0  0  0  0  0
  -50.1328   59.3340   58.5901 C   0  0  0  0  0  0  0  0  0  0  0  0
  -44.7019   54.1971   65.9681 H   0  0  0  0  0  0  0  0  0  0  0  0
  -44.4136   53.8103   67.6449 H   0  0  0  0  0  0  0  0  0  0  0  0
  -46.9633   54.4110   65.3457 H   0  0  0  0  0  0  0  0  0  0  0  0
  -43.7899   56.1252   67.1568 H   0  0  0  0  0  0  0  0  0  0  0  0
  -45.1413   56.0460   68.2878 H   0  0  0  0  0  0  0  0  0  0  0  0
  -46.6937   56.5171   66.4933 H   0  0  0  0  0  0  0  0  0  0  0  0
  -45.3827   56.5677   65.3447 H   0  0  0  0  0  0  0  0  0  0  0  0
  -44.3744   58.4328   66.5724 H   0  0  0  0  0  0  0  0  0  0  0  0
  -45.6857   58.3718   67.7333 H   0  0  0  0  0  0  0  0  0  0  0  0
  -45.9748   58.9289   64.8010 H   0  0  0  0  0  0  0  0  0  0  0  0
  -46.0543   60.1191   66.1082 H   0  0  0  0  0  0  0  0  0  0  0  0
  -48.0419   59.0556   66.9846 H   0  0  0  0  0  0  0  0  0  0  0  0
  -47.9820   57.8397   65.7538 H   0  0  0  0  0  0  0  0  0  0  0  0
  -48.1435   59.5908   64.0234 H   0  0  0  0  0  0  0  0  0  0  0  0
  -48.2063   60.8071   65.2994 H   0  0  0  0  0  0  0  0  0  0  0  0
  -50.4978   60.2216   65.7801 H   0  0  0  0  0  0  0  0  0  0  0  0
  -51.6410   58.4716   64.3753 H   0  0  0  0  0  0  0  0  0  0  0  0
  -50.5172   57.3849   62.5725 H   0  0  0  0  0  0  0  0  0  0  0  0
  -49.0532   57.4923   63.5370 H   0  0  0  0  0  0  0  0  0  0  0  0
  -48.6488   59.7398   62.6959 H   0  0  0  0  0  0  0  0  0  0  0  0
  -50.1196   59.6529   61.7457 H   0  0  0  0  0  0  0  0  0  0  0  0
  -47.7371   57.8446   61.4390 H   0  0  0  0  0  0  0  0  0  0  0  0
  -48.1689   59.1813   60.3724 H   0  0  0  0  0  0  0  0  0  0  0  0
  -49.8343   56.7344   60.8501 H   0  0  0  0  0  0  0  0  0  0  0  0
  -48.8446   57.0578   59.4251 H   0  0  0  0  0  0  0  0  0  0  0  0
  -51.1831   58.7017   60.3262 H   0  0  0  0  0  0  0  0  0  0  0  0
  -51.1665   57.5377   58.9893 H   0  0  0  0  0  0  0  0  0  0  0  0
  -49.5589   60.0624   59.1240 H   0  0  0  0  0  0  0  0  0  0  0  0
  -50.9847   59.8060   58.1470 H   0  0  0  0  0  0  0  0  0  0  0  0
  -49.5285   58.8961   57.8233 H   0  0  0  0  0  0  0  0  0  0  0  0
  1  2  2  0  0  0  0
  1  3  1  0  0  0  0
  1  4  1  0  0  0  0
  3  5  1  0  0  0  0
  3 19  1  0  0  0  0
  3 20  1  0  0  0  0
  4 21  1  0  0  0  0
  5  6  1  0  0  0  0
  5 22  1  0  0  0  0
  5 23  1  0  0  0  0
  6  7  1  0  0  0  0
  6 24  1  0  0  0  0
  6 25  1  0  0  0  0
  7  8  1  0  0  0  0
  7 26  1  0  0  0  0
  7 27  1  0  0  0  0
  8  9  1  0  0  0  0
  8 28  1  0  0  0  0
  8 29  1  0  0  0  0
  9 10  1  0  0  0  0
  9 30  1  0  0  0  0
  9 31  1  0  0  0  0
 10 11  1  0  0  0  0
 10 32  1  0  0  0  0
 10 33  1  0  0  0  0
 11 12  2  0  0  0  0
 11 34  1  0  0  0  0
 12 13  1  0  0  0  0
 12 35  1  0  0  0  0
 13 14  1  0  0  0  0
 13 36  1  0  0  0  0
 13 37  1  0  0  0  0
 14 15  1  0  0  0  0
 14 38  1  0  0  0  0
 14 39  1  0  0  0  0
 15 16  1  0  0  0  0
 15 40  1  0  0  0  0
 15 41  1  0  0  0  0
 16 17  1  0  0  0  0
 16 42  1  0  0  0  0
 16 43  1  0  0  0  0
 17 18  1  0  0  0  0
 17 44  1  0  0  0  0
 17 45  1  0  0  0  0
 18 46  1  0  0  0  0
 18 47  1  0  0  0  0
 18 48  1  0  0  0  0
M  END
$$$$
/media/chris/experiments/cd1a-new-docking/inputs/ligands/4x6d_2_ligand.pdb
 OpenBabel07012320263D

 48 47  0  0  0  0  0  0  0  0999 V2000
  -49.2243   56.0849   70.6728 C   0  0  0  0  0  0  0  0  0  0  0  0
  -49.8742   56.3103   71.7123 O   0  0  0  0  0  0  0  0  0  0  0  0
  -47.7404   56.3534   70.6360 C   0  0  0  0  0  0  0  0  0  0  0  0
  -49.8250   55.6319   69.6753 O   0  0  0  0  0  0  0  0  0  0  0  0
  -47.2059   56.0105   69.2546 C   0  0  0  0  0  0  0  0  0  0  0  0
  -47.8599   56.8518   68.1734 C   0  0  0  0  0  0  0  0  0  0  0  0
  -47.5633   58.3181   68.4417 C   0  0  0  0  0  0  0  0  0  0  0  0
  -48.2208   59.1879   67.3837 C   0  0  0  0  0  0  0  0  0  0  0  0
  -47.7410   58.8580   65.9770 C   0  0  0  0  0  0  0  0  0  0  0  0
  -48.4570   59.8040   65.0240 C   0  0  0  0  0  0  0  0  0  0  0  0
  -49.9570   59.6540   65.1090 C   0  0  0  0  0  0  0  0  0  0  0  0
  -50.5762   58.3511   64.8186 C   0  0  0  0  0  0  0  0  0  0  0  0
  -49.7261   57.2529   64.2305 C   0  0  0  0  0  0  0  0  0  0  0  0
  -49.7573   57.3032   62.7069 C   0  0  0  0  0  0  0  0  0  0  0  0
  -48.9069   56.1758   62.1219 C   0  0  0  0  0  0  0  0  0  0  0  0
  -48.9010   56.2060   60.5943 C   0  0  0  0  0  0  0  0  0  0  0  0
  -48.0644   55.0678   60.0044 C   0  0  0  0  0  0  0  0  0  0  0  0
  -48.0283   55.0858   58.4785 C   0  0  0  0  0  0  0  0  0  0  0  0
  -47.2489   55.7498   71.3702 H   0  0  0  0  0  0  0  0  0  0  0  0
  -47.5559   57.3860   70.8474 H   0  0  0  0  0  0  0  0  0  0  0  0
  -49.3539   55.4560   68.8847 H   0  0  0  0  0  0  0  0  0  0  0  0
  -47.3999   54.9774   69.0545 H   0  0  0  0  0  0  0  0  0  0  0  0
  -46.1553   56.2130   69.2442 H   0  0  0  0  0  0  0  0  0  0  0  0
  -48.9178   56.6917   68.1848 H   0  0  0  0  0  0  0  0  0  0  0  0
  -47.4735   56.5738   67.2152 H   0  0  0  0  0  0  0  0  0  0  0  0
  -46.5050   58.4745   68.4202 H   0  0  0  0  0  0  0  0  0  0  0  0
  -47.9520   58.5831   69.4027 H   0  0  0  0  0  0  0  0  0  0  0  0
  -47.9938   60.2125   67.5922 H   0  0  0  0  0  0  0  0  0  0  0  0
  -49.2742   59.0031   67.4195 H   0  0  0  0  0  0  0  0  0  0  0  0
  -47.9815   57.8436   65.7361 H   0  0  0  0  0  0  0  0  0  0  0  0
  -46.6800   58.9732   65.9008 H   0  0  0  0  0  0  0  0  0  0  0  0
  -48.1435   59.5908   64.0234 H   0  0  0  0  0  0  0  0  0  0  0  0
  -48.2063   60.8071   65.2994 H   0  0  0  0  0  0  0  0  0  0  0  0
  -50.5450   60.4611   65.3695 H   0  0  0  0  0  0  0  0  0  0  0  0
  -51.5768   58.1913   65.0143 H   0  0  0  0  0  0  0  0  0  0  0  0
  -50.1004   56.3056   64.5582 H   0  0  0  0  0  0  0  0  0  0  0  0
  -48.7164   57.3872   64.5582 H   0  0  0  0  0  0  0  0  0  0  0  0
  -49.3707   58.2448   62.3768 H   0  0  0  0  0  0  0  0  0  0  0  0
  -50.7677   57.1855   62.3752 H   0  0  0  0  0  0  0  0  0  0  0  0
  -49.3035   55.2372   62.4486 H   0  0  0  0  0  0  0  0  0  0  0  0
  -47.9008   56.3065   62.4618 H   0  0  0  0  0  0  0  0  0  0  0  0
  -48.4933   57.1400   60.2683 H   0  0  0  0  0  0  0  0  0  0  0  0
  -49.9091   56.0863   60.2563 H   0  0  0  0  0  0  0  0  0  0  0  0
  -48.4814   54.1360   60.3250 H   0  0  0  0  0  0  0  0  0  0  0  0
  -47.0600   55.1949   60.3508 H   0  0  0  0  0  0  0  0  0  0  0  0
  -49.0200   54.9606   58.0968 H   0  0  0  0  0  0  0  0  0  0  0  0
  -47.4075   54.2883   58.1270 H   0  0  0  0  0  0  0  0  0  0  0  0
  -47.6320   56.0211   58.1421 H   0  0  0  0  0  0  0  0  0  0  0  0
  1  2  2  0  0  0  0
  1  3  1  0  0  0  0
  1  4  1  0  0  0  0
  3  5  1  0  0  0  0
  3 19  1  0  0  0  0
  3 20  1  0  0  0  0
  4 21  1  0  0  0  0
  5  6  1  0  0  0  0
  5 22  1  0  0  0  0
  5 23  1  0  0  0  0
  6  7  1  0  0  0  0
  6 24  1  0  0  0  0
  6 25  1  0  0  0  0
  7  8  1  0  0  0  0
  7 26  1  0  0  0  0
  7 27  1  0  0  0  0
  8  9  1  0  0  0  0
  8 28  1  0  0  0  0
  8 29  1  0  0  0  0
  9 10  1  0  0  0  0
  9 30  1  0  0  0  0
  9 31  1  0  0  0  0
 10 11  1  0  0  0  0
 10 32  1  0  0  0  0
 10 33  1  0  0  0  0
 11 12  2  0  0  0  0
 11 34  1  0  0  0  0
 12 13  1  0  0  0  0
 12 35  1  0  0  0  0
 13 14  1  0  0  0  0
 13 36  1  0  0  0  0
 13 37  1  0  0  0  0
 14 15  1  0  0  0  0
 14 38  1  0  0  0  0
 14 39  1  0  0  0  0
 15 16  1  0  0  0  0
 15 40  1  0  0  0  0
 15 41  1  0  0  0  0
 16 17  1  0  0  0  0
 16 42  1  0  0  0  0
 16 43  1  0  0  0  0
 17 18  1  0  0  0  0
 17 44  1  0  0  0  0
 17 45  1  0  0  0  0
 18 46  1  0  0  0  0
 18 47  1  0  0  0  0
 18 48  1  0  0  0  0
M  END
$$$$
/media/chris/experiments/cd1a-new-docking/inputs/ligands/4x6d_2_ligand.pdb
 OpenBabel07012320263D

 48 47  0  0  0  0  0  0  0  0999 V2000
  -45.0624   54.8991   63.0600 C   0  0  0  0  0  0  0  0  0  0  0  0
  -44.1660   54.0825   62.7710 O   0  0  0  0  0  0  0  0  0  0  0  0
  -45.4944   55.0708   64.4951 C   0  0  0  0  0  0  0  0  0  0  0  0
  -45.5847   55.5672   62.1425 O   0  0  0  0  0  0  0  0  0  0  0  0
  -45.2570   56.5118   64.9179 C   0  0  0  0  0  0  0  0  0  0  0  0
  -45.6568   56.7472   66.3634 C   0  0  0  0  0  0  0  0  0  0  0  0
  -45.4106   58.2057   66.7127 C   0  0  0  0  0  0  0  0  0  0  0  0
  -46.2472   59.1068   65.8203 C   0  0  0  0  0  0  0  0  0  0  0  0
  -47.7410   58.8580   65.9770 C   0  0  0  0  0  0  0  0  0  0  0  0
  -48.4570   59.8040   65.0240 C   0  0  0  0  0  0  0  0  0  0  0  0
  -49.9570   59.6540   65.1090 C   0  0  0  0  0  0  0  0  0  0  0  0
  -50.5394   58.6752   66.0408 C   0  0  0  0  0  0  0  0  0  0  0  0
  -49.6283   57.6907   66.7300 C   0  0  0  0  0  0  0  0  0  0  0  0
  -50.4264   56.7583   67.6347 C   0  0  0  0  0  0  0  0  0  0  0  0
  -51.4403   55.9624   66.8131 C   0  0  0  0  0  0  0  0  0  0  0  0
  -50.7568   55.0962   65.7562 C   0  0  0  0  0  0  0  0  0  0  0  0
  -49.8074   54.0728   66.3842 C   0  0  0  0  0  0  0  0  0  0  0  0
  -50.5175   53.1015   67.3236 C   0  0  0  0  0  0  0  0  0  0  0  0
  -44.9256   54.4155   65.1211 H   0  0  0  0  0  0  0  0  0  0  0  0
  -46.5337   54.8345   64.5891 H   0  0  0  0  0  0  0  0  0  0  0  0
  -46.2601   56.1860   62.3396 H   0  0  0  0  0  0  0  0  0  0  0  0
  -45.8343   57.1571   64.2892 H   0  0  0  0  0  0  0  0  0  0  0  0
  -44.2114   56.7187   64.8237 H   0  0  0  0  0  0  0  0  0  0  0  0
  -45.0718   56.1210   67.0041 H   0  0  0  0  0  0  0  0  0  0  0  0
  -46.6926   56.5134   66.4950 H   0  0  0  0  0  0  0  0  0  0  0  0
  -44.3744   58.4328   66.5724 H   0  0  0  0  0  0  0  0  0  0  0  0
  -45.6857   58.3718   67.7333 H   0  0  0  0  0  0  0  0  0  0  0  0
  -45.9748   58.9289   64.8010 H   0  0  0  0  0  0  0  0  0  0  0  0
  -46.0543   60.1191   66.1082 H   0  0  0  0  0  0  0  0  0  0  0  0
  -48.0419   59.0556   66.9846 H   0  0  0  0  0  0  0  0  0  0  0  0
  -47.9820   57.8397   65.7538 H   0  0  0  0  0  0  0  0  0  0  0  0
  -48.1435   59.5908   64.0234 H   0  0  0  0  0  0  0  0  0  0  0  0
  -48.2063   60.8071   65.2994 H   0  0  0  0  0  0  0  0  0  0  0  0
  -50.5707   60.2349   64.5166 H   0  0  0  0  0  0  0  0  0  0  0  0
  -51.5556   58.6627   66.2199 H   0  0  0  0  0  0  0  0  0  0  0  0
  -48.9146   58.2266   67.3202 H   0  0  0  0  0  0  0  0  0  0  0  0
  -49.1302   57.1046   65.9861 H   0  0  0  0  0  0  0  0  0  0  0  0
  -50.9448   57.3379   68.3697 H   0  0  0  0  0  0  0  0  0  0  0  0
  -49.7540   56.0771   68.1128 H   0  0  0  0  0  0  0  0  0  0  0  0
  -52.1039   56.6455   66.3253 H   0  0  0  0  0  0  0  0  0  0  0  0
  -51.9750   55.3169   67.4782 H   0  0  0  0  0  0  0  0  0  0  0  0
  -50.1978   55.7290   65.0990 H   0  0  0  0  0  0  0  0  0  0  0  0
  -51.5157   54.5618   65.2239 H   0  0  0  0  0  0  0  0  0  0  0  0
  -49.0579   54.5978   66.9388 H   0  0  0  0  0  0  0  0  0  0  0  0
  -49.3836   53.4972   65.5879 H   0  0  0  0  0  0  0  0  0  0  0  0
  -50.9546   53.6453   68.1349 H   0  0  0  0  0  0  0  0  0  0  0  0
  -49.8109   52.3954   67.7072 H   0  0  0  0  0  0  0  0  0  0  0  0
  -51.2846   52.5831   66.7873 H   0  0  0  0  0  0  0  0  0  0  0  0
  1  2  2  0  0  0  0
  1  3  1  0  0  0  0
  1  4  1  0  0  0  0
  3  5  1  0  0  0  0
  3 19  1  0  0  0  0
  3 20  1  0  0  0  0
  4 21  1  0  0  0  0
  5  6  1  0  0  0  0
  5 22  1  0  0  0  0
  5 23  1  0  0  0  0
  6  7  1  0  0  0  0
  6 24  1  0  0  0  0
  6 25  1  0  0  0  0
  7  8  1  0  0  0  0
  7 26  1  0  0  0  0
  7 27  1  0  0  0  0
  8  9  1  0  0  0  0
  8 28  1  0  0  0  0
  8 29  1  0  0  0  0
  9 10  1  0  0  0  0
  9 30  1  0  0  0  0
  9 31  1  0  0  0  0
 10 11  1  0  0  0  0
 10 32  1  0  0  0  0
 10 33  1  0  0  0  0
 11 12  2  0  0  0  0
 11 34  1  0  0  0  0
 12 13  1  0  0  0  0
 12 35  1  0  0  0  0
 13 14  1  0  0  0  0
 13 36  1  0  0  0  0
 13 37  1  0  0  0  0
 14 15  1  0  0  0  0
 14 38  1  0  0  0  0
 14 39  1  0  0  0  0
 15 16  1  0  0  0  0
 15 40  1  0  0  0  0
 15 41  1  0  0  0  0
 16 17  1  0  0  0  0
 16 42  1  0  0  0  0
 16 43  1  0  0  0  0
 17 18  1  0  0  0  0
 17 44  1  0  0  0  0
 17 45  1  0  0  0  0
 18 46  1  0  0  0  0
 18 47  1  0  0  0  0
 18 48  1  0  0  0  0
M  END
$$$$
/media/chris/experiments/cd1a-new-docking/inputs/ligands/4x6d_2_ligand.pdb
 OpenBabel07012320263D

 48 47  0  0  0  0  0  0  0  0999 V2000
  -45.0149   59.1222   70.9188 C   0  0  0  0  0  0  0  0  0  0  0  0
  -43.8886   59.6397   70.7869 O   0  0  0  0  0  0  0  0  0  0  0  0
  -45.2389   57.6863   70.5144 C   0  0  0  0  0  0  0  0  0  0  0  0
  -45.9414   59.8131   71.3932 O   0  0  0  0  0  0  0  0  0  0  0  0
  -44.9128   57.5277   69.0378 C   0  0  0  0  0  0  0  0  0  0  0  0
  -45.7757   58.4272   68.1713 C   0  0  0  0  0  0  0  0  0  0  0  0
  -45.4106   58.2057   66.7127 C   0  0  0  0  0  0  0  0  0  0  0  0
  -46.2472   59.1068   65.8203 C   0  0  0  0  0  0  0  0  0  0  0  0
  -47.7410   58.8580   65.9770 C   0  0  0  0  0  0  0  0  0  0  0  0
  -48.4570   59.8040   65.0240 C   0  0  0  0  0  0  0  0  0  0  0  0
  -49.9570   59.6540   65.1090 C   0  0  0  0  0  0  0  0  0  0  0  0
  -50.5764   59.2356   66.3765 C   0  0  0  0  0  0  0  0  0  0  0  0
  -49.6910   58.7540   67.4984 C   0  0  0  0  0  0  0  0  0  0  0  0
  -50.5250   58.3539   68.7105 C   0  0  0  0  0  0  0  0  0  0  0  0
  -49.6170   57.8842   69.8469 C   0  0  0  0  0  0  0  0  0  0  0  0
  -48.7632   56.6874   69.4309 C   0  0  0  0  0  0  0  0  0  0  0  0
  -49.6223   55.4950   69.0024 C   0  0  0  0  0  0  0  0  0  0  0  0
  -48.7924   54.2794   68.5979 C   0  0  0  0  0  0  0  0  0  0  0  0
  -46.2613   57.4213   70.6859 H   0  0  0  0  0  0  0  0  0  0  0  0
  -44.6066   57.0462   71.0936 H   0  0  0  0  0  0  0  0  0  0  0  0
  -46.7951   59.4420   71.5002 H   0  0  0  0  0  0  0  0  0  0  0  0
  -45.0790   56.5096   68.7536 H   0  0  0  0  0  0  0  0  0  0  0  0
  -43.8899   57.8054   68.8910 H   0  0  0  0  0  0  0  0  0  0  0  0
  -45.6034   59.4503   68.4330 H   0  0  0  0  0  0  0  0  0  0  0  0
  -46.8088   58.1950   68.3251 H   0  0  0  0  0  0  0  0  0  0  0  0
  -45.5932   57.1837   66.4538 H   0  0  0  0  0  0  0  0  0  0  0  0
  -44.3757   58.4386   66.5723 H   0  0  0  0  0  0  0  0  0  0  0  0
  -45.9748   58.9289   64.8010 H   0  0  0  0  0  0  0  0  0  0  0  0
  -46.0543   60.1191   66.1082 H   0  0  0  0  0  0  0  0  0  0  0  0
  -48.0419   59.0556   66.9846 H   0  0  0  0  0  0  0  0  0  0  0  0
  -47.9820   57.8397   65.7538 H   0  0  0  0  0  0  0  0  0  0  0  0
  -48.1435   59.5908   64.0234 H   0  0  0  0  0  0  0  0  0  0  0  0
  -48.2063   60.8071   65.2994 H   0  0  0  0  0  0  0  0  0  0  0  0
  -50.5449   59.8440   64.2824 H   0  0  0  0  0  0  0  0  0  0  0  0
  -51.6008   59.2711   66.4959 H   0  0  0  0  0  0  0  0  0  0  0  0
  -49.0199   59.5391   67.7778 H   0  0  0  0  0  0  0  0  0  0  0  0
  -49.1431   57.8991   67.1610 H   0  0  0  0  0  0  0  0  0  0  0  0
  -51.1875   57.5595   68.4366 H   0  0  0  0  0  0  0  0  0  0  0  0
  -51.0872   59.2019   69.0418 H   0  0  0  0  0  0  0  0  0  0  0  0
  -50.2240   57.6034   70.6822 H   0  0  0  0  0  0  0  0  0  0  0  0
  -48.9603   58.6892   70.1032 H   0  0  0  0  0  0  0  0  0  0  0  0
  -48.1522   56.3938   70.2588 H   0  0  0  0  0  0  0  0  0  0  0  0
  -48.1639   56.9820   68.5948 H   0  0  0  0  0  0  0  0  0  0  0  0
  -50.2242   55.7902   68.1684 H   0  0  0  0  0  0  0  0  0  0  0  0
  -50.2191   55.2106   69.8437 H   0  0  0  0  0  0  0  0  0  0  0  0
  -48.1810   54.5290   67.7560 H   0  0  0  0  0  0  0  0  0  0  0  0
  -49.4451   53.4724   68.3379 H   0  0  0  0  0  0  0  0  0  0  0  0
  -48.1692   53.9846   69.4163 H   0  0  0  0  0  0  0  0  0  0  0  0
  1  2  2  0  0  0  0
  1  3  1  0  0  0  0
  1  4  1  0  0  0  0
  3  5  1  0  0  0  0
  3 19  1  0  0  0  0
  3 20  1  0  0  0  0
  4 21  1  0  0  0  0
  5  6  1  0  0  0  0
  5 22  1  0  0  0  0
  5 23  1  0  0  0  0
  6  7  1  0  0  0  0
  6 24  1  0  0  0  0
  6 25  1  0  0  0  0
  7  8  1  0  0  0  0
  7 26  1  0  0  0  0
  7 27  1  0  0  0  0
  8  9  1  0  0  0  0
  8 28  1  0  0  0  0
  8 29  1  0  0  0  0
  9 10  1  0  0  0  0
  9 30  1  0  0  0  0
  9 31  1  0  0  0  0
 10 11  1  0  0  0  0
 10 32  1  0  0  0  0
 10 33  1  0  0  0  0
 11 12  2  0  0  0  0
 11 34  1  0  0  0  0
 12 13  1  0  0  0  0
 12 35  1  0  0  0  0
 13 14  1  0  0  0  0
 13 36  1  0  0  0  0
 13 37  1  0  0  0  0
 14 15  1  0  0  0  0
 14 38  1  0  0  0  0
 14 39  1  0  0  0  0
 15 16  1  0  0  0  0
 15 40  1  0  0  0  0
 15 41  1  0  0  0  0
 16 17  1  0  0  0  0
 16 42  1  0  0  0  0
 16 43  1  0  0  0  0
 17 18  1  0  0  0  0
 17 44  1  0  0  0  0
 17 45  1  0  0  0  0
 18 46  1  0  0  0  0
 18 47  1  0  0  0  0
 18 48  1  0  0  0  0
M  END
$$$$
/media/chris/experiments/cd1a-new-docking/inputs/ligands/4x6d_2_ligand.pdb
 OpenBabel07012320263D

 48 47  0  0  0  0  0  0  0  0999 V2000
  -45.2444   53.8464   65.3405 C   0  0  0  0  0  0  0  0  0  0  0  0
  -45.4757   53.8174   66.5650 O   0  0  0  0  0  0  0  0  0  0  0  0
  -45.8810   54.9061   64.4760 C   0  0  0  0  0  0  0  0  0  0  0  0
  -44.4773   52.9887   64.8538 O   0  0  0  0  0  0  0  0  0  0  0  0
  -47.3935   54.7913   64.5795 C   0  0  0  0  0  0  0  0  0  0  0  0
  -47.8772   54.9973   66.0036 C   0  0  0  0  0  0  0  0  0  0  0  0
  -47.4788   56.3899   66.4640 C   0  0  0  0  0  0  0  0  0  0  0  0
  -48.1197   57.4400   65.5725 C   0  0  0  0  0  0  0  0  0  0  0  0
  -47.7410   58.8580   65.9770 C   0  0  0  0  0  0  0  0  0  0  0  0
  -48.4570   59.8040   65.0240 C   0  0  0  0  0  0  0  0  0  0  0  0
  -49.9570   59.6540   65.1090 C   0  0  0  0  0  0  0  0  0  0  0  0
  -50.7188   60.4801   66.0590 C   0  0  0  0  0  0  0  0  0  0  0  0
  -49.9693   61.2990   67.0798 C   0  0  0  0  0  0  0  0  0  0  0  0
  -50.7436   62.5647   67.4307 C   0  0  0  0  0  0  0  0  0  0  0  0
  -49.9670   63.3951   68.4523 C   0  0  0  0  0  0  0  0  0  0  0  0
  -50.7225   64.6650   68.8409 C   0  0  0  0  0  0  0  0  0  0  0  0
  -49.9400   65.5080   69.8511 C   0  0  0  0  0  0  0  0  0  0  0  0
  -48.5887   65.9742   69.3157 C   0  0  0  0  0  0  0  0  0  0  0  0
  -45.5800   54.7667   63.4587 H   0  0  0  0  0  0  0  0  0  0  0  0
  -45.5699   55.8751   64.8063 H   0  0  0  0  0  0  0  0  0  0  0  0
  -44.2910   52.9940   63.9355 H   0  0  0  0  0  0  0  0  0  0  0  0
  -47.6906   53.8176   64.2501 H   0  0  0  0  0  0  0  0  0  0  0  0
  -47.8281   55.5532   63.9667 H   0  0  0  0  0  0  0  0  0  0  0  0
  -47.4300   54.2659   66.6439 H   0  0  0  0  0  0  0  0  0  0  0  0
  -48.9415   54.8939   66.0429 H   0  0  0  0  0  0  0  0  0  0  0  0
  -46.4143   56.4871   66.4157 H   0  0  0  0  0  0  0  0  0  0  0  0
  -47.8132   56.5343   67.4701 H   0  0  0  0  0  0  0  0  0  0  0  0
  -49.1831   57.3384   65.6327 H   0  0  0  0  0  0  0  0  0  0  0  0
  -47.7650   57.2806   64.5757 H   0  0  0  0  0  0  0  0  0  0  0  0
  -46.6822   58.9911   65.8990 H   0  0  0  0  0  0  0  0  0  0  0  0
  -48.0249   59.0527   66.9901 H   0  0  0  0  0  0  0  0  0  0  0  0
  -48.1435   59.5908   64.0234 H   0  0  0  0  0  0  0  0  0  0  0  0
  -48.2063   60.8071   65.2994 H   0  0  0  0  0  0  0  0  0  0  0  0
  -50.4455   58.9755   64.5039 H   0  0  0  0  0  0  0  0  0  0  0  0
  -51.7502   60.4989   66.0272 H   0  0  0  0  0  0  0  0  0  0  0  0
  -49.0149   61.5708   66.6796 H   0  0  0  0  0  0  0  0  0  0  0  0
  -49.8472   60.7138   67.9672 H   0  0  0  0  0  0  0  0  0  0  0  0
  -51.6931   62.2947   67.8436 H   0  0  0  0  0  0  0  0  0  0  0  0
  -50.8821   63.1456   66.5428 H   0  0  0  0  0  0  0  0  0  0  0  0
  -49.0226   63.6690   68.0304 H   0  0  0  0  0  0  0  0  0  0  0  0
  -49.8362   62.8022   69.3334 H   0  0  0  0  0  0  0  0  0  0  0  0
  -51.6617   64.3900   69.2737 H   0  0  0  0  0  0  0  0  0  0  0  0
  -50.8623   65.2515   67.9570 H   0  0  0  0  0  0  0  0  0  0  0  0
  -49.7747   64.9209   70.7302 H   0  0  0  0  0  0  0  0  0  0  0  0
  -50.5216   66.3817   70.0590 H   0  0  0  0  0  0  0  0  0  0  0  0
  -47.9789   65.1228   69.0964 H   0  0  0  0  0  0  0  0  0  0  0  0
  -48.1033   66.5804   70.0518 H   0  0  0  0  0  0  0  0  0  0  0  0
  -48.7366   66.5463   68.4237 H   0  0  0  0  0  0  0  0  0  0  0  0
  1  2  2  0  0  0  0
  1  3  1  0  0  0  0
  1  4  1  0  0  0  0
  3  5  1  0  0  0  0
  3 19  1  0  0  0  0
  3 20  1  0  0  0  0
  4 21  1  0  0  0  0
  5  6  1  0  0  0  0
  5 22  1  0  0  0  0
  5 23  1  0  0  0  0
  6  7  1  0  0  0  0
  6 24  1  0  0  0  0
  6 25  1  0  0  0  0
  7  8  1  0  0  0  0
  7 26  1  0  0  0  0
  7 27  1  0  0  0  0
  8  9  1  0  0  0  0
  8 28  1  0  0  0  0
  8 29  1  0  0  0  0
  9 10  1  0  0  0  0
  9 30  1  0  0  0  0
  9 31  1  0  0  0  0
 10 11  1  0  0  0  0
 10 32  1  0  0  0  0
 10 33  1  0  0  0  0
 11 12  2  0  0  0  0
 11 34  1  0  0  0  0
 12 13  1  0  0  0  0
 12 35  1  0  0  0  0
 13 14  1  0  0  0  0
 13 36  1  0  0  0  0
 13 37  1  0  0  0  0
 14 15  1  0  0  0  0
 14 38  1  0  0  0  0
 14 39  1  0  0  0  0
 15 16  1  0  0  0  0
 15 40  1  0  0  0  0
 15 41  1  0  0  0  0
 16 17  1  0  0  0  0
 16 42  1  0  0  0  0
 16 43  1  0  0  0  0
 17 18  1  0  0  0  0
 17 44  1  0  0  0  0
 17 45  1  0  0  0  0
 18 46  1  0  0  0  0
 18 47  1  0  0  0  0
 18 48  1  0  0  0  0
M  END
$$$$
/media/chris/experiments/cd1a-new-docking/inputs/ligands/4x6d_2_ligand.pdb
 OpenBabel07012320263D

 48 47  0  0  0  0  0  0  0  0999 V2000
  -49.7737   56.2528   61.4443 C   0  0  0  0  0  0  0  0  0  0  0  0
  -50.4779   56.9522   60.6902 O   0  0  0  0  0  0  0  0  0  0  0  0
  -48.2696   56.3456   61.3749 C   0  0  0  0  0  0  0  0  0  0  0  0
  -50.3382   55.4856   62.2527 O   0  0  0  0  0  0  0  0  0  0  0  0
  -47.6638   55.3810   62.3820 C   0  0  0  0  0  0  0  0  0  0  0  0
  -48.1147   55.6897   63.7983 C   0  0  0  0  0  0  0  0  0  0  0  0
  -47.6965   57.1075   64.1518 C   0  0  0  0  0  0  0  0  0  0  0  0
  -48.1197   57.4400   65.5725 C   0  0  0  0  0  0  0  0  0  0  0  0
  -47.7410   58.8580   65.9770 C   0  0  0  0  0  0  0  0  0  0  0  0
  -48.4570   59.8040   65.0240 C   0  0  0  0  0  0  0  0  0  0  0  0
  -49.9570   59.6540   65.1090 C   0  0  0  0  0  0  0  0  0  0  0  0
  -50.7186   59.2616   63.9126 C   0  0  0  0  0  0  0  0  0  0  0  0
  -50.0176   59.2310   62.5777 C   0  0  0  0  0  0  0  0  0  0  0  0
  -49.4561   60.6056   62.2311 C   0  0  0  0  0  0  0  0  0  0  0  0
  -50.5807   61.6395   62.1784 C   0  0  0  0  0  0  0  0  0  0  0  0
  -50.0560   63.0280   61.8160 C   0  0  0  0  0  0  0  0  0  0  0  0
  -49.3866   63.0437   60.4394 C   0  0  0  0  0  0  0  0  0  0  0  0
  -50.3371   62.6499   59.3118 C   0  0  0  0  0  0  0  0  0  0  0  0
  -47.9614   57.3440   61.6050 H   0  0  0  0  0  0  0  0  0  0  0  0
  -47.9383   56.0924   60.3895 H   0  0  0  0  0  0  0  0  0  0  0  0
  -49.8261   54.9518   62.8278 H   0  0  0  0  0  0  0  0  0  0  0  0
  -46.5974   55.4545   62.3341 H   0  0  0  0  0  0  0  0  0  0  0  0
  -47.9921   54.3928   62.1359 H   0  0  0  0  0  0  0  0  0  0  0  0
  -47.6587   55.0009   64.4783 H   0  0  0  0  0  0  0  0  0  0  0  0
  -49.1786   55.5984   63.8674 H   0  0  0  0  0  0  0  0  0  0  0  0
  -48.1623   57.7927   63.4747 H   0  0  0  0  0  0  0  0  0  0  0  0
  -46.6321   57.1868   64.0766 H   0  0  0  0  0  0  0  0  0  0  0  0
  -47.6440   56.7537   66.2417 H   0  0  0  0  0  0  0  0  0  0  0  0
  -49.1857   57.3618   65.6210 H   0  0  0  0  0  0  0  0  0  0  0  0
  -46.6822   58.9911   65.8990 H   0  0  0  0  0  0  0  0  0  0  0  0
  -48.0249   59.0527   66.9901 H   0  0  0  0  0  0  0  0  0  0  0  0
  -48.1435   59.5908   64.0234 H   0  0  0  0  0  0  0  0  0  0  0  0
  -48.2063   60.8071   65.2994 H   0  0  0  0  0  0  0  0  0  0  0  0
  -50.4456   59.8258   66.0016 H   0  0  0  0  0  0  0  0  0  0  0  0
  -51.7171   59.0111   63.9859 H   0  0  0  0  0  0  0  0  0  0  0  0
  -50.7149   58.9358   61.8217 H   0  0  0  0  0  0  0  0  0  0  0  0
  -49.2086   58.5327   62.6303 H   0  0  0  0  0  0  0  0  0  0  0  0
  -48.9737   60.5597   61.2771 H   0  0  0  0  0  0  0  0  0  0  0  0
  -48.7526   60.8943   62.9838 H   0  0  0  0  0  0  0  0  0  0  0  0
  -51.0533   61.6869   63.1372 H   0  0  0  0  0  0  0  0  0  0  0  0
  -51.2755   61.3380   61.4225 H   0  0  0  0  0  0  0  0  0  0  0  0
  -49.3407   63.3305   62.5520 H   0  0  0  0  0  0  0  0  0  0  0  0
  -50.8881   63.7002   61.7879 H   0  0  0  0  0  0  0  0  0  0  0  0
  -48.5668   62.3561   60.4506 H   0  0  0  0  0  0  0  0  0  0  0  0
  -49.0631   64.0461   60.2512 H   0  0  0  0  0  0  0  0  0  0  0  0
  -50.6813   61.6490   59.4687 H   0  0  0  0  0  0  0  0  0  0  0  0
  -49.8228   62.7075   58.3753 H   0  0  0  0  0  0  0  0  0  0  0  0
  -51.1735   63.3171   59.3010 H   0  0  0  0  0  0  0  0  0  0  0  0
  1  2  2  0  0  0  0
  1  3  1  0  0  0  0
  1  4  1  0  0  0  0
  3  5  1  0  0  0  0
  3 19  1  0  0  0  0
  3 20  1  0  0  0  0
  4 21  1  0  0  0  0
  5  6  1  0  0  0  0
  5 22  1  0  0  0  0
  5 23  1  0  0  0  0
  6  7  1  0  0  0  0
  6 24  1  0  0  0  0
  6 25  1  0  0  0  0
  7  8  1  0  0  0  0
  7 26  1  0  0  0  0
  7 27  1  0  0  0  0
  8  9  1  0  0  0  0
  8 28  1  0  0  0  0
  8 29  1  0  0  0  0
  9 10  1  0  0  0  0
  9 30  1  0  0  0  0
  9 31  1  0  0  0  0
 10 11  1  0  0  0  0
 10 32  1  0  0  0  0
 10 33  1  0  0  0  0
 11 12  2  0  0  0  0
 11 34  1  0  0  0  0
 12 13  1  0  0  0  0
 12 35  1  0  0  0  0
 13 14  1  0  0  0  0
 13 36  1  0  0  0  0
 13 37  1  0  0  0  0
 14 15  1  0  0  0  0
 14 38  1  0  0  0  0
 14 39  1  0  0  0  0
 15 16  1  0  0  0  0
 15 40  1  0  0  0  0
 15 41  1  0  0  0  0
 16 17  1  0  0  0  0
 16 42  1  0  0  0  0
 16 43  1  0  0  0  0
 17 18  1  0  0  0  0
 17 44  1  0  0  0  0
 17 45  1  0  0  0  0
 18 46  1  0  0  0  0
 18 47  1  0  0  0  0
 18 48  1  0  0  0  0
M  END
$$$$
/media/chris/experiments/cd1a-new-docking/inputs/ligands/4x6d_2_ligand.pdb
 OpenBabel07012320263D

 48 47  0  0  0  0  0  0  0  0999 V2000
  -45.1469   53.0302   67.8358 C   0  0  0  0  0  0  0  0  0  0  0  0
  -45.4610   53.0126   69.0419 O   0  0  0  0  0  0  0  0  0  0  0  0
  -45.7207   54.0831   66.9207 C   0  0  0  0  0  0  0  0  0  0  0  0
  -44.3507   52.1667   67.4099 O   0  0  0  0  0  0  0  0  0  0  0  0
  -47.2371   53.9721   66.9222 C   0  0  0  0  0  0  0  0  0  0  0  0
  -47.8772   54.9973   66.0036 C   0  0  0  0  0  0  0  0  0  0  0  0
  -47.4788   56.3899   66.4640 C   0  0  0  0  0  0  0  0  0  0  0  0
  -48.1197   57.4400   65.5725 C   0  0  0  0  0  0  0  0  0  0  0  0
  -47.7410   58.8580   65.9770 C   0  0  0  0  0  0  0  0  0  0  0  0
  -48.4570   59.8040   65.0240 C   0  0  0  0  0  0  0  0  0  0  0  0
  -49.9570   59.6540   65.1090 C   0  0  0  0  0  0  0  0  0  0  0  0
  -50.8211   60.4770   64.2480 C   0  0  0  0  0  0  0  0  0  0  0  0
  -50.2050   61.6051   63.4592 C   0  0  0  0  0  0  0  0  0  0  0  0
  -51.2672   62.3408   62.6496 C   0  0  0  0  0  0  0  0  0  0  0  0
  -50.6293   63.4703   61.8410 C   0  0  0  0  0  0  0  0  0  0  0  0
  -49.9216   64.4811   62.7420 C   0  0  0  0  0  0  0  0  0  0  0  0
  -49.2962   65.6232   61.9370 C   0  0  0  0  0  0  0  0  0  0  0  0
  -48.5676   66.6386   62.8134 C   0  0  0  0  0  0  0  0  0  0  0  0
  -45.3517   53.9341   65.9274 H   0  0  0  0  0  0  0  0  0  0  0  0
  -45.4304   55.0545   67.2628 H   0  0  0  0  0  0  0  0  0  0  0  0
  -44.1024   52.1634   66.5064 H   0  0  0  0  0  0  0  0  0  0  0  0
  -47.5950   54.1281   67.9184 H   0  0  0  0  0  0  0  0  0  0  0  0
  -47.5000   52.9973   66.5679 H   0  0  0  0  0  0  0  0  0  0  0  0
  -48.9419   54.8978   66.0414 H   0  0  0  0  0  0  0  0  0  0  0  0
  -47.5457   54.8397   64.9986 H   0  0  0  0  0  0  0  0  0  0  0  0
  -46.4143   56.4871   66.4157 H   0  0  0  0  0  0  0  0  0  0  0  0
  -47.8132   56.5343   67.4701 H   0  0  0  0  0  0  0  0  0  0  0  0
  -49.1831   57.3384   65.6327 H   0  0  0  0  0  0  0  0  0  0  0  0
  -47.7650   57.2806   64.5757 H   0  0  0  0  0  0  0  0  0  0  0  0
  -46.6822   58.9911   65.8990 H   0  0  0  0  0  0  0  0  0  0  0  0
  -48.0249   59.0527   66.9901 H   0  0  0  0  0  0  0  0  0  0  0  0
  -48.1435   59.5908   64.0234 H   0  0  0  0  0  0  0  0  0  0  0  0
  -48.2063   60.8071   65.2994 H   0  0  0  0  0  0  0  0  0  0  0  0
  -50.3741   58.9777   65.7676 H   0  0  0  0  0  0  0  0  0  0  0  0
  -51.8332   60.2852   64.1849 H   0  0  0  0  0  0  0  0  0  0  0  0
  -49.4691   61.2064   62.7926 H   0  0  0  0  0  0  0  0  0  0  0  0
  -49.7538   62.2950   64.1413 H   0  0  0  0  0  0  0  0  0  0  0  0
  -51.9969   62.7518   63.3155 H   0  0  0  0  0  0  0  0  0  0  0  0
  -51.7324   61.6508   61.9770 H   0  0  0  0  0  0  0  0  0  0  0  0
  -51.3935   63.9747   61.2875 H   0  0  0  0  0  0  0  0  0  0  0  0
  -49.9008   63.0407   61.1855 H   0  0  0  0  0  0  0  0  0  0  0  0
  -49.1497   63.9784   63.2864 H   0  0  0  0  0  0  0  0  0  0  0  0
  -50.6492   64.9017   63.4042 H   0  0  0  0  0  0  0  0  0  0  0  0
  -50.0728   66.1289   61.4021 H   0  0  0  0  0  0  0  0  0  0  0  0
  -48.5732   65.1920   61.2766 H   0  0  0  0  0  0  0  0  0  0  0  0
  -49.2634   67.0911   63.4888 H   0  0  0  0  0  0  0  0  0  0  0  0
  -48.1286   67.3934   62.1951 H   0  0  0  0  0  0  0  0  0  0  0  0
  -47.8003   66.1432   63.3707 H   0  0  0  0  0  0  0  0  0  0  0  0
  1  2  2  0  0  0  0
  1  3  1  0  0  0  0
  1  4  1  0  0  0  0
  3  5  1  0  0  0  0
  3 19  1  0  0  0  0
  3 20  1  0  0  0  0
  4 21  1  0  0  0  0
  5  6  1  0  0  0  0
  5 22  1  0  0  0  0
  5 23  1  0  0  0  0
  6  7  1  0  0  0  0
  6 24  1  0  0  0  0
  6 25  1  0  0  0  0
  7  8  1  0  0  0  0
  7 26  1  0  0  0  0
  7 27  1  0  0  0  0
  8  9  1  0  0  0  0
  8 28  1  0  0  0  0
  8 29  1  0  0  0  0
  9 10  1  0  0  0  0
  9 30  1  0  0  0  0
  9 31  1  0  0  0  0
 10 11  1  0  0  0  0
 10 32  1  0  0  0  0
 10 33  1  0  0  0  0
 11 12  2  0  0  0  0
 11 34  1  0  0  0  0
 12 13  1  0  0  0  0
 12 35  1  0  0  0  0
 13 14  1  0  0  0  0
 13 36  1  0  0  0  0
 13 37  1  0  0  0  0
 14 15  1  0  0  0  0
 14 38  1  0  0  0  0
 14 39  1  0  0  0  0
 15 16  1  0  0  0  0
 15 40  1  0  0  0  0
 15 41  1  0  0  0  0
 16 17  1  0  0  0  0
 16 42  1  0  0  0  0
 16 43  1  0  0  0  0
 17 18  1  0  0  0  0
 17 44  1  0  0  0  0
 17 45  1  0  0  0  0
 18 46  1  0  0  0  0
 18 47  1  0  0  0  0
 18 48  1  0  0  0  0
M  END
$$$$
/media/chris/experiments/cd1a-new-docking/inputs/ligands/4x6d_2_ligand.pdb
 OpenBabel07012320263D

 48 47  0  0  0  0  0  0  0  0999 V2000
  -47.8282   57.7492   61.7072 C   0  0  0  0  0  0  0  0  0  0  0  0
  -46.6163   58.0407   61.7011 O   0  0  0  0  0  0  0  0  0  0  0  0
  -48.2696   56.3456   61.3749 C   0  0  0  0  0  0  0  0  0  0  0  0
  -48.6580   58.6372   61.9966 O   0  0  0  0  0  0  0  0  0  0  0  0
  -47.6638   55.3810   62.3820 C   0  0  0  0  0  0  0  0  0  0  0  0
  -48.1147   55.6897   63.7983 C   0  0  0  0  0  0  0  0  0  0  0  0
  -47.6965   57.1075   64.1518 C   0  0  0  0  0  0  0  0  0  0  0  0
  -48.1197   57.4400   65.5725 C   0  0  0  0  0  0  0  0  0  0  0  0
  -47.7410   58.8580   65.9770 C   0  0  0  0  0  0  0  0  0  0  0  0
  -48.4570   59.8040   65.0240 C   0  0  0  0  0  0  0  0  0  0  0  0
  -49.9570   59.6540   65.1090 C   0  0  0  0  0  0  0  0  0  0  0  0
  -50.8212   60.8150   64.8434 C   0  0  0  0  0  0  0  0  0  0  0  0
  -50.1916   62.1787   64.7081 C   0  0  0  0  0  0  0  0  0  0  0  0
  -51.2550   63.2415   64.4536 C   0  0  0  0  0  0  0  0  0  0  0  0
  -52.0282   62.9218   63.1744 C   0  0  0  0  0  0  0  0  0  0  0  0
  -51.1067   62.8585   61.9573 C   0  0  0  0  0  0  0  0  0  0  0  0
  -51.8801   62.5557   60.6713 C   0  0  0  0  0  0  0  0  0  0  0  0
  -50.9790   62.4701   59.4422 C   0  0  0  0  0  0  0  0  0  0  0  0
  -47.9386   56.0897   60.3901 H   0  0  0  0  0  0  0  0  0  0  0  0
  -49.3371   56.2847   61.4151 H   0  0  0  0  0  0  0  0  0  0  0  0
  -49.5735   58.4377   62.0066 H   0  0  0  0  0  0  0  0  0  0  0  0
  -46.5974   55.4545   62.3341 H   0  0  0  0  0  0  0  0  0  0  0  0
  -47.9921   54.3928   62.1359 H   0  0  0  0  0  0  0  0  0  0  0  0
  -47.6587   55.0009   64.4783 H   0  0  0  0  0  0  0  0  0  0  0  0
  -49.1786   55.5984   63.8674 H   0  0  0  0  0  0  0  0  0  0  0  0
  -48.1623   57.7927   63.4747 H   0  0  0  0  0  0  0  0  0  0  0  0
  -46.6321   57.1868   64.0766 H   0  0  0  0  0  0  0  0  0  0  0  0
  -47.6440   56.7537   66.2417 H   0  0  0  0  0  0  0  0  0  0  0  0
  -49.1857   57.3618   65.6210 H   0  0  0  0  0  0  0  0  0  0  0  0
  -46.6822   58.9911   65.8990 H   0  0  0  0  0  0  0  0  0  0  0  0
  -48.0249   59.0527   66.9901 H   0  0  0  0  0  0  0  0  0  0  0  0
  -48.1435   59.5908   64.0234 H   0  0  0  0  0  0  0  0  0  0  0  0
  -48.2063   60.8071   65.2994 H   0  0  0  0  0  0  0  0  0  0  0  0
  -50.3741   58.7419   65.3521 H   0  0  0  0  0  0  0  0  0  0  0  0
  -51.8424   60.6979   64.7512 H   0  0  0  0  0  0  0  0  0  0  0  0
  -49.5031   62.1679   63.8891 H   0  0  0  0  0  0  0  0  0  0  0  0
  -49.6820   62.4139   65.6191 H   0  0  0  0  0  0  0  0  0  0  0  0
  -50.7827   64.1961   64.3515 H   0  0  0  0  0  0  0  0  0  0  0  0
  -51.9368   63.2564   65.2782 H   0  0  0  0  0  0  0  0  0  0  0  0
  -52.7627   63.6832   63.0139 H   0  0  0  0  0  0  0  0  0  0  0  0
  -52.4888   61.9635   63.2940 H   0  0  0  0  0  0  0  0  0  0  0  0
  -50.3799   62.0889   62.1133 H   0  0  0  0  0  0  0  0  0  0  0  0
  -50.6386   63.8141   61.8456 H   0  0  0  0  0  0  0  0  0  0  0  0
  -52.5988   63.3326   60.5142 H   0  0  0  0  0  0  0  0  0  0  0  0
  -52.3464   61.6006   60.7946 H   0  0  0  0  0  0  0  0  0  0  0  0
  -50.4948   63.4118   59.2886 H   0  0  0  0  0  0  0  0  0  0  0  0
  -51.5695   62.2283   58.5832 H   0  0  0  0  0  0  0  0  0  0  0  0
  -50.2411   61.7101   59.5931 H   0  0  0  0  0  0  0  0  0  0  0  0
  1  2  2  0  0  0  0
  1  3  1  0  0  0  0
  1  4  1  0  0  0  0
  3  5  1  0  0  0  0
  3 19  1  0  0  0  0
  3 20  1  0  0  0  0
  4 21  1  0  0  0  0
  5  6  1  0  0  0  0
  5 22  1  0  0  0  0
  5 23  1  0  0  0  0
  6  7  1  0  0  0  0
  6 24  1  0  0  0  0
  6 25  1  0  0  0  0
  7  8  1  0  0  0  0
  7 26  1  0  0  0  0
  7 27  1  0  0  0  0
  8  9  1  0  0  0  0
  8 28  1  0  0  0  0
  8 29  1  0  0  0  0
  9 10  1  0  0  0  0
  9 30  1  0  0  0  0
  9 31  1  0  0  0  0
 10 11  1  0  0  0  0
 10 32  1  0  0  0  0
 10 33  1  0  0  0  0
 11 12  2  0  0  0  0
 11 34  1  0  0  0  0
 12 13  1  0  0  0  0
 12 35  1  0  0  0  0
 13 14  1  0  0  0  0
 13 36  1  0  0  0  0
 13 37  1  0  0  0  0
 14 15  1  0  0  0  0
 14 38  1  0  0  0  0
 14 39  1  0  0  0  0
 15 16  1  0  0  0  0
 15 40  1  0  0  0  0
 15 41  1  0  0  0  0
 16 17  1  0  0  0  0
 16 42  1  0  0  0  0
 16 43  1  0  0  0  0
 17 18  1  0  0  0  0
 17 44  1  0  0  0  0
 17 45  1  0  0  0  0
 18 46  1  0  0  0  0
 18 47  1  0  0  0  0
 18 48  1  0  0  0  0
M  END
$$$$
