/media/chris/experiments/cd1a-new-docking/inputs/ligands/4x6d_2_ligand.pdb
 OpenBabel07012320263D

 48 47  0  0  0  0  0  0  0  0999 V2000
  -43.1822   59.3485   69.2528 C   0  0  0  0  0  0  0  0  0  0  0  0
  -43.3184   59.3954   70.4910 O   0  0  0  0  0  0  0  0  0  0  0  0
  -44.0316   60.2240   68.3654 C   0  0  0  0  0  0  0  0  0  0  0  0
  -42.3313   58.5707   68.7713 O   0  0  0  0  0  0  0  0  0  0  0  0
  -43.6749   59.9555   66.9120 C   0  0  0  0  0  0  0  0  0  0  0  0
  -43.9331   58.5099   66.5271 C   0  0  0  0  0  0  0  0  0  0  0  0
  -45.4106   58.2057   66.7127 C   0  0  0  0  0  0  0  0  0  0  0  0
  -46.2472   59.1068   65.8203 C   0  0  0  0  0  0  0  0  0  0  0  0
  -47.7410   58.8580   65.9770 C   0  0  0  0  0  0  0  0  0  0  0  0
  -48.4570   59.8040   65.0240 C   0  0  0  0  0  0  0  0  0  0  0  0
  -49.9570   59.6540   65.1090 C   0  0  0  0  0  0  0  0  0  0  0  0
  -50.8212   60.8150   64.8434 C   0  0  0  0  0  0  0  0  0  0  0  0
  -50.1916   62.1787   64.7081 C   0  0  0  0  0  0  0  0  0  0  0  0
  -50.4793   62.7722   63.3334 C   0  0  0  0  0  0  0  0  0  0  0  0
  -49.9298   61.8601   62.2368 C   0  0  0  0  0  0  0  0  0  0  0  0
  -48.4210   61.6597   62.3710 C   0  0  0  0  0  0  0  0  0  0  0  0
  -47.6603   62.9859   62.2939 C   0  0  0  0  0  0  0  0  0  0  0  0
  -46.1482   62.8112   62.4083 C   0  0  0  0  0  0  0  0  0  0  0  0
  -43.8473   61.2527   68.5952 H   0  0  0  0  0  0  0  0  0  0  0  0
  -45.0663   60.0060   68.5285 H   0  0  0  0  0  0  0  0  0  0  0  0
  -42.2141   58.5211   67.8429 H   0  0  0  0  0  0  0  0  0  0  0  0
  -42.6380   60.1738   66.7636 H   0  0  0  0  0  0  0  0  0  0  0  0
  -44.2904   60.5788   66.2974 H   0  0  0  0  0  0  0  0  0  0  0  0
  -43.3523   57.8632   67.1512 H   0  0  0  0  0  0  0  0  0  0  0  0
  -43.6567   58.3525   65.5055 H   0  0  0  0  0  0  0  0  0  0  0  0
  -45.6801   58.3716   67.7348 H   0  0  0  0  0  0  0  0  0  0  0  0
  -45.5931   57.1851   66.4481 H   0  0  0  0  0  0  0  0  0  0  0  0
  -45.9748   58.9289   64.8010 H   0  0  0  0  0  0  0  0  0  0  0  0
  -46.0543   60.1191   66.1082 H   0  0  0  0  0  0  0  0  0  0  0  0
  -48.0419   59.0556   66.9846 H   0  0  0  0  0  0  0  0  0  0  0  0
  -47.9820   57.8397   65.7538 H   0  0  0  0  0  0  0  0  0  0  0  0
  -48.1435   59.5908   64.0234 H   0  0  0  0  0  0  0  0  0  0  0  0
  -48.2063   60.8071   65.2994 H   0  0  0  0  0  0  0  0  0  0  0  0
  -50.3741   58.7419   65.3521 H   0  0  0  0  0  0  0  0  0  0  0  0
  -51.8424   60.6979   64.7512 H   0  0  0  0  0  0  0  0  0  0  0  0
  -49.1332   62.0913   64.8382 H   0  0  0  0  0  0  0  0  0  0  0  0
  -50.6058   62.8240   65.4544 H   0  0  0  0  0  0  0  0  0  0  0  0
  -50.0144   63.7330   63.2592 H   0  0  0  0  0  0  0  0  0  0  0  0
  -51.5379   62.8669   63.2095 H   0  0  0  0  0  0  0  0  0  0  0  0
  -50.1377   62.2997   61.2837 H   0  0  0  0  0  0  0  0  0  0  0  0
  -50.4025   60.9047   62.3300 H   0  0  0  0  0  0  0  0  0  0  0  0
  -48.0850   61.0217   61.5805 H   0  0  0  0  0  0  0  0  0  0  0  0
  -48.2283   61.2219   63.3282 H   0  0  0  0  0  0  0  0  0  0  0  0
  -47.9923   63.6168   63.0918 H   0  0  0  0  0  0  0  0  0  0  0  0
  -47.8620   63.4164   61.3353 H   0  0  0  0  0  0  0  0  0  0  0  0
  -45.9097   62.3812   63.3587 H   0  0  0  0  0  0  0  0  0  0  0  0
  -45.6711   63.7647   62.3185 H   0  0  0  0  0  0  0  0  0  0  0  0
  -45.8037   62.1651   61.6280 H   0  0  0  0  0  0  0  0  0  0  0  0
  1  2  2  0  0  0  0
  1  3  1  0  0  0  0
  1  4  1  0  0  0  0
  3  5  1  0  0  0  0
  3 19  1  0  0  0  0
  3 20  1  0  0  0  0
  4 21  1  0  0  0  0
  5  6  1  0  0  0  0
  5 22  1  0  0  0  0
  5 23  1  0  0  0  0
  6  7  1  0  0  0  0
  6 24  1  0  0  0  0
  6 25  1  0  0  0  0
  7  8  1  0  0  0  0
  7 26  1  0  0  0  0
  7 27  1  0  0  0  0
  8  9  1  0  0  0  0
  8 28  1  0  0  0  0
  8 29  1  0  0  0  0
  9 10  1  0  0  0  0
  9 30  1  0  0  0  0
  9 31  1  0  0  0  0
 10 11  1  0  0  0  0
 10 32  1  0  0  0  0
 10 33  1  0  0  0  0
 11 12  2  0  0  0  0
 11 34  1  0  0  0  0
 12 13  1  0  0  0  0
 12 35  1  0  0  0  0
 13 14  1  0  0  0  0
 13 36  1  0  0  0  0
 13 37  1  0  0  0  0
 14 15  1  0  0  0  0
 14 38  1  0  0  0  0
 14 39  1  0  0  0  0
 15 16  1  0  0  0  0
 15 40  1  0  0  0  0
 15 41  1  0  0  0  0
 16 17  1  0  0  0  0
 16 42  1  0  0  0  0
 16 43  1  0  0  0  0
 17 18  1  0  0  0  0
 17 44  1  0  0  0  0
 17 45  1  0  0  0  0
 18 46  1  0  0  0  0
 18 47  1  0  0  0  0
 18 48  1  0  0  0  0
M  END
$$$$