/media/chris/experiments/cd1a-new-docking/inputs/ligands/4x6d_2_ligand.pdb
 OpenBabel07012320263D

 48 47  0  0  0  0  0  0  0  0999 V2000
  -51.3248   54.8903   67.6735 C   0  0  0  0  0  0  0  0  0  0  0  0
  -51.6388   54.9265   68.8792 O   0  0  0  0  0  0  0  0  0  0  0  0
  -51.9892   55.8225   66.6911 C   0  0  0  0  0  0  0  0  0  0  0  0
  -50.4528   54.0753   67.3043 O   0  0  0  0  0  0  0  0  0  0  0  0
  -51.4369   55.5563   65.2998 C   0  0  0  0  0  0  0  0  0  0  0  0
  -49.9342   55.7639   65.2417 C   0  0  0  0  0  0  0  0  0  0  0  0
  -49.6179   57.1967   65.6381 C   0  0  0  0  0  0  0  0  0  0  0  0
  -48.1197   57.4400   65.5725 C   0  0  0  0  0  0  0  0  0  0  0  0
  -47.7410   58.8580   65.9770 C   0  0  0  0  0  0  0  0  0  0  0  0
  -48.4570   59.8040   65.0240 C   0  0  0  0  0  0  0  0  0  0  0  0
  -49.9570   59.6540   65.1090 C   0  0  0  0  0  0  0  0  0  0  0  0
  -50.6441   59.9169   66.3834 C   0  0  0  0  0  0  0  0  0  0  0  0
  -49.8198   60.1160   67.6305 C   0  0  0  0  0  0  0  0  0  0  0  0
  -50.0740   61.4941   68.2314 C   0  0  0  0  0  0  0  0  0  0  0  0
  -49.7199   62.5859   67.2219 C   0  0  0  0  0  0  0  0  0  0  0  0
  -49.9463   63.9832   67.7972 C   0  0  0  0  0  0  0  0  0  0  0  0
  -49.0811   64.2380   69.0341 C   0  0  0  0  0  0  0  0  0  0  0  0
  -47.5856   64.1444   68.7429 C   0  0  0  0  0  0  0  0  0  0  0  0
  -51.7890   56.8365   66.9680 H   0  0  0  0  0  0  0  0  0  0  0  0
  -53.0463   55.6575   66.6966 H   0  0  0  0  0  0  0  0  0  0  0  0
  -50.2031   54.0330   66.4022 H   0  0  0  0  0  0  0  0  0  0  0  0
  -51.9059   56.2237   64.6073 H   0  0  0  0  0  0  0  0  0  0  0  0
  -51.6421   54.5365   65.0494 H   0  0  0  0  0  0  0  0  0  0  0  0
  -49.5849   55.5813   64.2470 H   0  0  0  0  0  0  0  0  0  0  0  0
  -49.4491   55.0870   65.9136 H   0  0  0  0  0  0  0  0  0  0  0  0
  -49.9611   57.3712   66.6364 H   0  0  0  0  0  0  0  0  0  0  0  0
  -50.1101   57.8633   64.9611 H   0  0  0  0  0  0  0  0  0  0  0  0
  -47.7878   57.2690   64.5698 H   0  0  0  0  0  0  0  0  0  0  0  0
  -47.6509   56.7692   66.2619 H   0  0  0  0  0  0  0  0  0  0  0  0
  -46.6822   58.9911   65.8990 H   0  0  0  0  0  0  0  0  0  0  0  0
  -48.0249   59.0527   66.9901 H   0  0  0  0  0  0  0  0  0  0  0  0
  -48.1435   59.5908   64.0234 H   0  0  0  0  0  0  0  0  0  0  0  0
  -48.2063   60.8071   65.2994 H   0  0  0  0  0  0  0  0  0  0  0  0
  -50.4976   59.3686   64.2776 H   0  0  0  0  0  0  0  0  0  0  0  0
  -51.6743   59.9642   66.4232 H   0  0  0  0  0  0  0  0  0  0  0  0
  -48.7825   60.0265   67.3836 H   0  0  0  0  0  0  0  0  0  0  0  0
  -50.0967   59.3720   68.3479 H   0  0  0  0  0  0  0  0  0  0  0  0
  -49.4711   61.6141   69.1072 H   0  0  0  0  0  0  0  0  0  0  0  0
  -51.1100   61.5775   68.4855 H   0  0  0  0  0  0  0  0  0  0  0  0
  -50.3318   62.4658   66.3524 H   0  0  0  0  0  0  0  0  0  0  0  0
  -48.6826   62.4902   66.9775 H   0  0  0  0  0  0  0  0  0  0  0  0
  -50.9764   64.0827   68.0691 H   0  0  0  0  0  0  0  0  0  0  0  0
  -49.6741   64.6981   67.0491 H   0  0  0  0  0  0  0  0  0  0  0  0
  -49.3297   63.5122   69.7800 H   0  0  0  0  0  0  0  0  0  0  0  0
  -49.2816   65.2352   69.3662 H   0  0  0  0  0  0  0  0  0  0  0  0
  -47.3488   63.1564   68.4072 H   0  0  0  0  0  0  0  0  0  0  0  0
  -47.0345   64.3598   69.6344 H   0  0  0  0  0  0  0  0  0  0  0  0
  -47.3253   64.8512   67.9830 H   0  0  0  0  0  0  0  0  0  0  0  0
  1  2  2  0  0  0  0
  1  3  1  0  0  0  0
  1  4  1  0  0  0  0
  3  5  1  0  0  0  0
  3 19  1  0  0  0  0
  3 20  1  0  0  0  0
  4 21  1  0  0  0  0
  5  6  1  0  0  0  0
  5 22  1  0  0  0  0
  5 23  1  0  0  0  0
  6  7  1  0  0  0  0
  6 24  1  0  0  0  0
  6 25  1  0  0  0  0
  7  8  1  0  0  0  0
  7 26  1  0  0  0  0
  7 27  1  0  0  0  0
  8  9  1  0  0  0  0
  8 28  1  0  0  0  0
  8 29  1  0  0  0  0
  9 10  1  0  0  0  0
  9 30  1  0  0  0  0
  9 31  1  0  0  0  0
 10 11  1  0  0  0  0
 10 32  1  0  0  0  0
 10 33  1  0  0  0  0
 11 12  2  0  0  0  0
 11 34  1  0  0  0  0
 12 13  1  0  0  0  0
 12 35  1  0  0  0  0
 13 14  1  0  0  0  0
 13 36  1  0  0  0  0
 13 37  1  0  0  0  0
 14 15  1  0  0  0  0
 14 38  1  0  0  0  0
 14 39  1  0  0  0  0
 15 16  1  0  0  0  0
 15 40  1  0  0  0  0
 15 41  1  0  0  0  0
 16 17  1  0  0  0  0
 16 42  1  0  0  0  0
 16 43  1  0  0  0  0
 17 18  1  0  0  0  0
 17 44  1  0  0  0  0
 17 45  1  0  0  0  0
 18 46  1  0  0  0  0
 18 47  1  0  0  0  0
 18 48  1  0  0  0  0
M  END
$$$$