/media/chris/experiments/cd1a-new-docking/inputs/ligands/4x6d_2_ligand.pdb
 OpenBabel07012320263D

 48 47  0  0  0  0  0  0  0  0999 V2000
  -41.9397   58.8709   61.2734 C   0  0  0  0  0  0  0  0  0  0  0  0
  -40.9803   59.4917   60.7754 O   0  0  0  0  0  0  0  0  0  0  0  0
  -42.3191   59.0966   62.7158 C   0  0  0  0  0  0  0  0  0  0  0  0
  -42.5746   58.0699   60.5548 O   0  0  0  0  0  0  0  0  0  0  0  0
  -43.8159   58.8835   62.8767 C   0  0  0  0  0  0  0  0  0  0  0  0
  -44.2663   59.1133   64.3081 C   0  0  0  0  0  0  0  0  0  0  0  0
  -45.7632   58.8672   64.4003 C   0  0  0  0  0  0  0  0  0  0  0  0
  -46.2472   59.1068   65.8203 C   0  0  0  0  0  0  0  0  0  0  0  0
  -47.7410   58.8580   65.9770 C   0  0  0  0  0  0  0  0  0  0  0  0
  -48.4570   59.8040   65.0240 C   0  0  0  0  0  0  0  0  0  0  0  0
  -49.9570   59.6540   65.1090 C   0  0  0  0  0  0  0  0  0  0  0  0
  -50.7835   60.8081   65.4966 C   0  0  0  0  0  0  0  0  0  0  0  0
  -50.1051   62.0523   66.0125 C   0  0  0  0  0  0  0  0  0  0  0  0
  -49.2848   61.7422   67.2599 C   0  0  0  0  0  0  0  0  0  0  0  0
  -50.1840   61.1747   68.3580 C   0  0  0  0  0  0  0  0  0  0  0  0
  -50.8581   59.8748   67.9216 C   0  0  0  0  0  0  0  0  0  0  0  0
  -49.8354   58.7847   67.5910 C   0  0  0  0  0  0  0  0  0  0  0  0
  -48.9527   58.4175   68.7809 C   0  0  0  0  0  0  0  0  0  0  0  0
  -42.0672   60.0969   63.0001 H   0  0  0  0  0  0  0  0  0  0  0  0
  -41.7882   58.4083   63.3397 H   0  0  0  0  0  0  0  0  0  0  0  0
  -43.2988   57.5938   60.9109 H   0  0  0  0  0  0  0  0  0  0  0  0
  -44.0552   57.8793   62.5951 H   0  0  0  0  0  0  0  0  0  0  0  0
  -44.3219   59.5887   62.2510 H   0  0  0  0  0  0  0  0  0  0  0  0
  -44.0499   60.1211   64.5950 H   0  0  0  0  0  0  0  0  0  0  0  0
  -43.7484   58.4435   64.9624 H   0  0  0  0  0  0  0  0  0  0  0  0
  -45.9731   57.8557   64.1212 H   0  0  0  0  0  0  0  0  0  0  0  0
  -46.2693   59.5404   63.7404 H   0  0  0  0  0  0  0  0  0  0  0  0
  -46.0386   60.1217   66.0873 H   0  0  0  0  0  0  0  0  0  0  0  0
  -45.7343   58.4185   66.4591 H   0  0  0  0  0  0  0  0  0  0  0  0
  -48.0419   59.0556   66.9846 H   0  0  0  0  0  0  0  0  0  0  0  0
  -47.9820   57.8397   65.7538 H   0  0  0  0  0  0  0  0  0  0  0  0
  -48.1435   59.5908   64.0234 H   0  0  0  0  0  0  0  0  0  0  0  0
  -48.2063   60.8071   65.2994 H   0  0  0  0  0  0  0  0  0  0  0  0
  -50.4004   58.7467   64.8964 H   0  0  0  0  0  0  0  0  0  0  0  0
  -51.8116   60.7668   65.4166 H   0  0  0  0  0  0  0  0  0  0  0  0
  -50.8484   62.7831   66.2539 H   0  0  0  0  0  0  0  0  0  0  0  0
  -49.4492   62.4257   65.2540 H   0  0  0  0  0  0  0  0  0  0  0  0
  -48.8229   62.6411   67.6112 H   0  0  0  0  0  0  0  0  0  0  0  0
  -48.5366   61.0180   67.0135 H   0  0  0  0  0  0  0  0  0  0  0  0
  -50.9395   61.8947   68.5940 H   0  0  0  0  0  0  0  0  0  0  0  0
  -49.5747   60.9638   69.2119 H   0  0  0  0  0  0  0  0  0  0  0  0
  -51.4515   60.0676   67.0523 H   0  0  0  0  0  0  0  0  0  0  0  0
  -51.4636   59.5267   68.7322 H   0  0  0  0  0  0  0  0  0  0  0  0
  -49.2095   59.1336   66.7964 H   0  0  0  0  0  0  0  0  0  0  0  0
  -50.3805   57.9070   67.3127 H   0  0  0  0  0  0  0  0  0  0  0  0
  -48.3912   59.2755   69.0867 H   0  0  0  0  0  0  0  0  0  0  0  0
  -48.2811   57.6339   68.4984 H   0  0  0  0  0  0  0  0  0  0  0  0
  -49.5669   58.0857   69.5918 H   0  0  0  0  0  0  0  0  0  0  0  0
  1  2  2  0  0  0  0
  1  3  1  0  0  0  0
  1  4  1  0  0  0  0
  3  5  1  0  0  0  0
  3 19  1  0  0  0  0
  3 20  1  0  0  0  0
  4 21  1  0  0  0  0
  5  6  1  0  0  0  0
  5 22  1  0  0  0  0
  5 23  1  0  0  0  0
  6  7  1  0  0  0  0
  6 24  1  0  0  0  0
  6 25  1  0  0  0  0
  7  8  1  0  0  0  0
  7 26  1  0  0  0  0
  7 27  1  0  0  0  0
  8  9  1  0  0  0  0
  8 28  1  0  0  0  0
  8 29  1  0  0  0  0
  9 10  1  0  0  0  0
  9 30  1  0  0  0  0
  9 31  1  0  0  0  0
 10 11  1  0  0  0  0
 10 32  1  0  0  0  0
 10 33  1  0  0  0  0
 11 12  2  0  0  0  0
 11 34  1  0  0  0  0
 12 13  1  0  0  0  0
 12 35  1  0  0  0  0
 13 14  1  0  0  0  0
 13 36  1  0  0  0  0
 13 37  1  0  0  0  0
 14 15  1  0  0  0  0
 14 38  1  0  0  0  0
 14 39  1  0  0  0  0
 15 16  1  0  0  0  0
 15 40  1  0  0  0  0
 15 41  1  0  0  0  0
 16 17  1  0  0  0  0
 16 42  1  0  0  0  0
 16 43  1  0  0  0  0
 17 18  1  0  0  0  0
 17 44  1  0  0  0  0
 17 45  1  0  0  0  0
 18 46  1  0  0  0  0
 18 47  1  0  0  0  0
 18 48  1  0  0  0  0
M  END
$$$$