/media/chris/experiments/cd1a-new-docking/inputs/ligands/4x6d_2_ligand.pdb
 OpenBabel07012320263D

 48 47  0  0  0  0  0  0  0  0999 V2000
  -47.5759   53.7285   60.5511 C   0  0  0  0  0  0  0  0  0  0  0  0
  -47.9539   54.4630   59.6177 O   0  0  0  0  0  0  0  0  0  0  0  0
  -48.0665   53.9783   61.9556 C   0  0  0  0  0  0  0  0  0  0  0  0
  -46.7935   52.7884   60.2965 O   0  0  0  0  0  0  0  0  0  0  0  0
  -47.6638   55.3810   62.3820 C   0  0  0  0  0  0  0  0  0  0  0  0
  -48.1147   55.6897   63.7983 C   0  0  0  0  0  0  0  0  0  0  0  0
  -47.6965   57.1075   64.1518 C   0  0  0  0  0  0  0  0  0  0  0  0
  -48.1197   57.4400   65.5725 C   0  0  0  0  0  0  0  0  0  0  0  0
  -47.7410   58.8580   65.9770 C   0  0  0  0  0  0  0  0  0  0  0  0
  -48.4570   59.8040   65.0240 C   0  0  0  0  0  0  0  0  0  0  0  0
  -49.9570   59.6540   65.1090 C   0  0  0  0  0  0  0  0  0  0  0  0
  -50.6441   59.9169   66.3834 C   0  0  0  0  0  0  0  0  0  0  0  0
  -49.8198   60.1160   67.6305 C   0  0  0  0  0  0  0  0  0  0  0  0
  -49.5864   58.7874   68.3413 C   0  0  0  0  0  0  0  0  0  0  0  0
  -50.9216   58.1497   68.7247 C   0  0  0  0  0  0  0  0  0  0  0  0
  -51.7852   57.8638   67.4970 C   0  0  0  0  0  0  0  0  0  0  0  0
  -51.1010   56.8922   66.5320 C   0  0  0  0  0  0  0  0  0  0  0  0
  -50.8108   55.5331   67.1633 C   0  0  0  0  0  0  0  0  0  0  0  0
  -47.6296   53.2626   62.6202 H   0  0  0  0  0  0  0  0  0  0  0  0
  -49.1319   53.8843   61.9869 H   0  0  0  0  0  0  0  0  0  0  0  0
  -46.4980   52.2253   60.9846 H   0  0  0  0  0  0  0  0  0  0  0  0
  -48.1104   56.0879   61.7143 H   0  0  0  0  0  0  0  0  0  0  0  0
  -46.5962   55.4449   62.3510 H   0  0  0  0  0  0  0  0  0  0  0  0
  -47.6587   55.0009   64.4783 H   0  0  0  0  0  0  0  0  0  0  0  0
  -49.1786   55.5984   63.8674 H   0  0  0  0  0  0  0  0  0  0  0  0
  -48.1623   57.7927   63.4747 H   0  0  0  0  0  0  0  0  0  0  0  0
  -46.6321   57.1868   64.0766 H   0  0  0  0  0  0  0  0  0  0  0  0
  -47.6440   56.7537   66.2417 H   0  0  0  0  0  0  0  0  0  0  0  0
  -49.1857   57.3618   65.6210 H   0  0  0  0  0  0  0  0  0  0  0  0
  -46.6822   58.9911   65.8990 H   0  0  0  0  0  0  0  0  0  0  0  0
  -48.0249   59.0527   66.9901 H   0  0  0  0  0  0  0  0  0  0  0  0
  -48.1435   59.5908   64.0234 H   0  0  0  0  0  0  0  0  0  0  0  0
  -48.2063   60.8071   65.2994 H   0  0  0  0  0  0  0  0  0  0  0  0
  -50.4976   59.3686   64.2776 H   0  0  0  0  0  0  0  0  0  0  0  0
  -51.6743   59.9642   66.4232 H   0  0  0  0  0  0  0  0  0  0  0  0
  -50.3365   60.7812   68.2904 H   0  0  0  0  0  0  0  0  0  0  0  0
  -48.8722   60.5287   67.3537 H   0  0  0  0  0  0  0  0  0  0  0  0
  -49.0091   58.9570   69.2261 H   0  0  0  0  0  0  0  0  0  0  0  0
  -49.0617   58.1274   67.6824 H   0  0  0  0  0  0  0  0  0  0  0  0
  -51.4507   58.8166   69.3730 H   0  0  0  0  0  0  0  0  0  0  0  0
  -50.7187   57.2198   69.2134 H   0  0  0  0  0  0  0  0  0  0  0  0
  -51.9744   58.7841   66.9851 H   0  0  0  0  0  0  0  0  0  0  0  0
  -52.6968   57.4134   67.8303 H   0  0  0  0  0  0  0  0  0  0  0  0
  -50.1760   57.3241   66.2114 H   0  0  0  0  0  0  0  0  0  0  0  0
  -51.7697   56.7293   65.7127 H   0  0  0  0  0  0  0  0  0  0  0  0
  -50.1424   55.6589   67.9893 H   0  0  0  0  0  0  0  0  0  0  0  0
  -50.3613   54.8904   66.4354 H   0  0  0  0  0  0  0  0  0  0  0  0
  -51.7253   55.0972   67.5077 H   0  0  0  0  0  0  0  0  0  0  0  0
  1  2  2  0  0  0  0
  1  3  1  0  0  0  0
  1  4  1  0  0  0  0
  3  5  1  0  0  0  0
  3 19  1  0  0  0  0
  3 20  1  0  0  0  0
  4 21  1  0  0  0  0
  5  6  1  0  0  0  0
  5 22  1  0  0  0  0
  5 23  1  0  0  0  0
  6  7  1  0  0  0  0
  6 24  1  0  0  0  0
  6 25  1  0  0  0  0
  7  8  1  0  0  0  0
  7 26  1  0  0  0  0
  7 27  1  0  0  0  0
  8  9  1  0  0  0  0
  8 28  1  0  0  0  0
  8 29  1  0  0  0  0
  9 10  1  0  0  0  0
  9 30  1  0  0  0  0
  9 31  1  0  0  0  0
 10 11  1  0  0  0  0
 10 32  1  0  0  0  0
 10 33  1  0  0  0  0
 11 12  2  0  0  0  0
 11 34  1  0  0  0  0
 12 13  1  0  0  0  0
 12 35  1  0  0  0  0
 13 14  1  0  0  0  0
 13 36  1  0  0  0  0
 13 37  1  0  0  0  0
 14 15  1  0  0  0  0
 14 38  1  0  0  0  0
 14 39  1  0  0  0  0
 15 16  1  0  0  0  0
 15 40  1  0  0  0  0
 15 41  1  0  0  0  0
 16 17  1  0  0  0  0
 16 42  1  0  0  0  0
 16 43  1  0  0  0  0
 17 18  1  0  0  0  0
 17 44  1  0  0  0  0
 17 45  1  0  0  0  0
 18 46  1  0  0  0  0
 18 47  1  0  0  0  0
 18 48  1  0  0  0  0
M  END
$$$$