/media/chris/experiments/cd1a-new-docking/inputs/ligands/4x6d_2_ligand.pdb
 OpenBabel07012320263D

 48 47  0  0  0  0  0  0  0  0999 V2000
  -44.3267   64.5576   65.9013 C   0  0  0  0  0  0  0  0  0  0  0  0
  -43.1350   64.9078   65.7967 O   0  0  0  0  0  0  0  0  0  0  0  0
  -44.7438   63.1657   65.4959 C   0  0  0  0  0  0  0  0  0  0  0  0
  -45.1564   65.3771   66.3494 O   0  0  0  0  0  0  0  0  0  0  0  0
  -43.9963   62.1531   66.3490 C   0  0  0  0  0  0  0  0  0  0  0  0
  -44.3599   60.7269   65.9774 C   0  0  0  0  0  0  0  0  0  0  0  0
  -45.8552   60.5327   66.1684 C   0  0  0  0  0  0  0  0  0  0  0  0
  -46.2472   59.1068   65.8203 C   0  0  0  0  0  0  0  0  0  0  0  0
  -47.7410   58.8580   65.9770 C   0  0  0  0  0  0  0  0  0  0  0  0
  -48.4570   59.8040   65.0240 C   0  0  0  0  0  0  0  0  0  0  0  0
  -49.9570   59.6540   65.1090 C   0  0  0  0  0  0  0  0  0  0  0  0
  -50.6439   58.6943   64.2300 C   0  0  0  0  0  0  0  0  0  0  0  0
  -49.8682   58.0413   63.1137 C   0  0  0  0  0  0  0  0  0  0  0  0
  -49.3087   59.0905   62.1593 C   0  0  0  0  0  0  0  0  0  0  0  0
  -50.4438   59.9187   61.5576 C   0  0  0  0  0  0  0  0  0  0  0  0
  -51.2362   60.6589   62.6341 C   0  0  0  0  0  0  0  0  0  0  0  0
  -52.3848   61.4758   62.0367 C   0  0  0  0  0  0  0  0  0  0  0  0
  -53.4001   60.6153   61.2892 C   0  0  0  0  0  0  0  0  0  0  0  0
  -44.5088   63.0077   64.4641 H   0  0  0  0  0  0  0  0  0  0  0  0
  -45.7977   63.0494   65.6395 H   0  0  0  0  0  0  0  0  0  0  0  0
  -46.0568   65.1327   66.4356 H   0  0  0  0  0  0  0  0  0  0  0  0
  -44.2428   62.3170   67.3772 H   0  0  0  0  0  0  0  0  0  0  0  0
  -42.9479   62.2844   66.1798 H   0  0  0  0  0  0  0  0  0  0  0  0
  -43.8263   60.0451   66.6061 H   0  0  0  0  0  0  0  0  0  0  0  0
  -44.0983   60.5409   64.9567 H   0  0  0  0  0  0  0  0  0  0  0  0
  -46.3840   61.2104   65.5311 H   0  0  0  0  0  0  0  0  0  0  0  0
  -46.1045   60.7238   67.1913 H   0  0  0  0  0  0  0  0  0  0  0  0
  -45.7183   58.4380   66.4668 H   0  0  0  0  0  0  0  0  0  0  0  0
  -45.9962   58.9421   64.7933 H   0  0  0  0  0  0  0  0  0  0  0  0
  -48.0419   59.0556   66.9846 H   0  0  0  0  0  0  0  0  0  0  0  0
  -47.9820   57.8397   65.7538 H   0  0  0  0  0  0  0  0  0  0  0  0
  -48.1435   59.5908   64.0234 H   0  0  0  0  0  0  0  0  0  0  0  0
  -48.2063   60.8071   65.2994 H   0  0  0  0  0  0  0  0  0  0  0  0
  -50.4978   60.2216   65.7801 H   0  0  0  0  0  0  0  0  0  0  0  0
  -51.6410   58.4716   64.3753 H   0  0  0  0  0  0  0  0  0  0  0  0
  -50.5172   57.3849   62.5725 H   0  0  0  0  0  0  0  0  0  0  0  0
  -49.0532   57.4923   63.5370 H   0  0  0  0  0  0  0  0  0  0  0  0
  -48.7726   58.6021   61.3726 H   0  0  0  0  0  0  0  0  0  0  0  0
  -48.6532   59.7399   62.7011 H   0  0  0  0  0  0  0  0  0  0  0  0
  -51.1054   59.2662   61.0271 H   0  0  0  0  0  0  0  0  0  0  0  0
  -50.0139   60.6459   60.9009 H   0  0  0  0  0  0  0  0  0  0  0  0
  -50.5765   61.3199   63.1562 H   0  0  0  0  0  0  0  0  0  0  0  0
  -51.6562   59.9309   63.2962 H   0  0  0  0  0  0  0  0  0  0  0  0
  -51.9758   62.1915   61.3545 H   0  0  0  0  0  0  0  0  0  0  0  0
  -52.8990   61.9473   62.8479 H   0  0  0  0  0  0  0  0  0  0  0  0
  -52.9181   60.1271   60.4682 H   0  0  0  0  0  0  0  0  0  0  0  0
  -54.1907   61.2353   60.9212 H   0  0  0  0  0  0  0  0  0  0  0  0
  -53.8032   59.8805   61.9544 H   0  0  0  0  0  0  0  0  0  0  0  0
  1  2  2  0  0  0  0
  1  3  1  0  0  0  0
  1  4  1  0  0  0  0
  3  5  1  0  0  0  0
  3 19  1  0  0  0  0
  3 20  1  0  0  0  0
  4 21  1  0  0  0  0
  5  6  1  0  0  0  0
  5 22  1  0  0  0  0
  5 23  1  0  0  0  0
  6  7  1  0  0  0  0
  6 24  1  0  0  0  0
  6 25  1  0  0  0  0
  7  8  1  0  0  0  0
  7 26  1  0  0  0  0
  7 27  1  0  0  0  0
  8  9  1  0  0  0  0
  8 28  1  0  0  0  0
  8 29  1  0  0  0  0
  9 10  1  0  0  0  0
  9 30  1  0  0  0  0
  9 31  1  0  0  0  0
 10 11  1  0  0  0  0
 10 32  1  0  0  0  0
 10 33  1  0  0  0  0
 11 12  2  0  0  0  0
 11 34  1  0  0  0  0
 12 13  1  0  0  0  0
 12 35  1  0  0  0  0
 13 14  1  0  0  0  0
 13 36  1  0  0  0  0
 13 37  1  0  0  0  0
 14 15  1  0  0  0  0
 14 38  1  0  0  0  0
 14 39  1  0  0  0  0
 15 16  1  0  0  0  0
 15 40  1  0  0  0  0
 15 41  1  0  0  0  0
 16 17  1  0  0  0  0
 16 42  1  0  0  0  0
 16 43  1  0  0  0  0
 17 18  1  0  0  0  0
 17 44  1  0  0  0  0
 17 45  1  0  0  0  0
 18 46  1  0  0  0  0
 18 47  1  0  0  0  0
 18 48  1  0  0  0  0
M  END
$$$$