/media/chris/experiments/cd1a-new-docking/inputs/ligands/4x6d_2_ligand.pdb
 OpenBabel07012320263D

 48 47  0  0  0  0  0  0  0  0999 V2000
  -45.0624   54.8991   63.0600 C   0  0  0  0  0  0  0  0  0  0  0  0
  -44.1660   54.0825   62.7710 O   0  0  0  0  0  0  0  0  0  0  0  0
  -45.4944   55.0708   64.4951 C   0  0  0  0  0  0  0  0  0  0  0  0
  -45.5847   55.5672   62.1425 O   0  0  0  0  0  0  0  0  0  0  0  0
  -45.2570   56.5118   64.9179 C   0  0  0  0  0  0  0  0  0  0  0  0
  -45.6568   56.7472   66.3634 C   0  0  0  0  0  0  0  0  0  0  0  0
  -45.4106   58.2057   66.7127 C   0  0  0  0  0  0  0  0  0  0  0  0
  -46.2472   59.1068   65.8203 C   0  0  0  0  0  0  0  0  0  0  0  0
  -47.7410   58.8580   65.9770 C   0  0  0  0  0  0  0  0  0  0  0  0
  -48.4570   59.8040   65.0240 C   0  0  0  0  0  0  0  0  0  0  0  0
  -49.9570   59.6540   65.1090 C   0  0  0  0  0  0  0  0  0  0  0  0
  -50.5394   58.6752   66.0408 C   0  0  0  0  0  0  0  0  0  0  0  0
  -49.6283   57.6907   66.7300 C   0  0  0  0  0  0  0  0  0  0  0  0
  -50.4264   56.7583   67.6347 C   0  0  0  0  0  0  0  0  0  0  0  0
  -51.4403   55.9624   66.8131 C   0  0  0  0  0  0  0  0  0  0  0  0
  -50.7568   55.0962   65.7562 C   0  0  0  0  0  0  0  0  0  0  0  0
  -49.8074   54.0728   66.3842 C   0  0  0  0  0  0  0  0  0  0  0  0
  -50.5175   53.1015   67.3236 C   0  0  0  0  0  0  0  0  0  0  0  0
  -44.9256   54.4155   65.1211 H   0  0  0  0  0  0  0  0  0  0  0  0
  -46.5337   54.8345   64.5891 H   0  0  0  0  0  0  0  0  0  0  0  0
  -46.2601   56.1860   62.3396 H   0  0  0  0  0  0  0  0  0  0  0  0
  -45.8343   57.1571   64.2892 H   0  0  0  0  0  0  0  0  0  0  0  0
  -44.2114   56.7187   64.8237 H   0  0  0  0  0  0  0  0  0  0  0  0
  -45.0718   56.1210   67.0041 H   0  0  0  0  0  0  0  0  0  0  0  0
  -46.6926   56.5134   66.4950 H   0  0  0  0  0  0  0  0  0  0  0  0
  -44.3744   58.4328   66.5724 H   0  0  0  0  0  0  0  0  0  0  0  0
  -45.6857   58.3718   67.7333 H   0  0  0  0  0  0  0  0  0  0  0  0
  -45.9748   58.9289   64.8010 H   0  0  0  0  0  0  0  0  0  0  0  0
  -46.0543   60.1191   66.1082 H   0  0  0  0  0  0  0  0  0  0  0  0
  -48.0419   59.0556   66.9846 H   0  0  0  0  0  0  0  0  0  0  0  0
  -47.9820   57.8397   65.7538 H   0  0  0  0  0  0  0  0  0  0  0  0
  -48.1435   59.5908   64.0234 H   0  0  0  0  0  0  0  0  0  0  0  0
  -48.2063   60.8071   65.2994 H   0  0  0  0  0  0  0  0  0  0  0  0
  -50.5707   60.2349   64.5166 H   0  0  0  0  0  0  0  0  0  0  0  0
  -51.5556   58.6627   66.2199 H   0  0  0  0  0  0  0  0  0  0  0  0
  -48.9146   58.2266   67.3202 H   0  0  0  0  0  0  0  0  0  0  0  0
  -49.1302   57.1046   65.9861 H   0  0  0  0  0  0  0  0  0  0  0  0
  -50.9448   57.3379   68.3697 H   0  0  0  0  0  0  0  0  0  0  0  0
  -49.7540   56.0771   68.1128 H   0  0  0  0  0  0  0  0  0  0  0  0
  -52.1039   56.6455   66.3253 H   0  0  0  0  0  0  0  0  0  0  0  0
  -51.9750   55.3169   67.4782 H   0  0  0  0  0  0  0  0  0  0  0  0
  -50.1978   55.7290   65.0990 H   0  0  0  0  0  0  0  0  0  0  0  0
  -51.5157   54.5618   65.2239 H   0  0  0  0  0  0  0  0  0  0  0  0
  -49.0579   54.5978   66.9388 H   0  0  0  0  0  0  0  0  0  0  0  0
  -49.3836   53.4972   65.5879 H   0  0  0  0  0  0  0  0  0  0  0  0
  -50.9546   53.6453   68.1349 H   0  0  0  0  0  0  0  0  0  0  0  0
  -49.8109   52.3954   67.7072 H   0  0  0  0  0  0  0  0  0  0  0  0
  -51.2846   52.5831   66.7873 H   0  0  0  0  0  0  0  0  0  0  0  0
  1  2  2  0  0  0  0
  1  3  1  0  0  0  0
  1  4  1  0  0  0  0
  3  5  1  0  0  0  0
  3 19  1  0  0  0  0
  3 20  1  0  0  0  0
  4 21  1  0  0  0  0
  5  6  1  0  0  0  0
  5 22  1  0  0  0  0
  5 23  1  0  0  0  0
  6  7  1  0  0  0  0
  6 24  1  0  0  0  0
  6 25  1  0  0  0  0
  7  8  1  0  0  0  0
  7 26  1  0  0  0  0
  7 27  1  0  0  0  0
  8  9  1  0  0  0  0
  8 28  1  0  0  0  0
  8 29  1  0  0  0  0
  9 10  1  0  0  0  0
  9 30  1  0  0  0  0
  9 31  1  0  0  0  0
 10 11  1  0  0  0  0
 10 32  1  0  0  0  0
 10 33  1  0  0  0  0
 11 12  2  0  0  0  0
 11 34  1  0  0  0  0
 12 13  1  0  0  0  0
 12 35  1  0  0  0  0
 13 14  1  0  0  0  0
 13 36  1  0  0  0  0
 13 37  1  0  0  0  0
 14 15  1  0  0  0  0
 14 38  1  0  0  0  0
 14 39  1  0  0  0  0
 15 16  1  0  0  0  0
 15 40  1  0  0  0  0
 15 41  1  0  0  0  0
 16 17  1  0  0  0  0
 16 42  1  0  0  0  0
 16 43  1  0  0  0  0
 17 18  1  0  0  0  0
 17 44  1  0  0  0  0
 17 45  1  0  0  0  0
 18 46  1  0  0  0  0
 18 47  1  0  0  0  0
 18 48  1  0  0  0  0
M  END
$$$$