/media/chris/experiments/cd1a-new-docking/inputs/ligands/4x6d_2_ligand.pdb
 OpenBabel07012320263D

 48 47  0  0  0  0  0  0  0  0999 V2000
  -46.7908   53.7485   70.1502 C   0  0  0  0  0  0  0  0  0  0  0  0
  -47.4766   53.0206   70.8942 O   0  0  0  0  0  0  0  0  0  0  0  0
  -47.4490   54.5254   69.0372 C   0  0  0  0  0  0  0  0  0  0  0  0
  -45.5597   53.8212   70.3501 O   0  0  0  0  0  0  0  0  0  0  0  0
  -47.2059   56.0105   69.2546 C   0  0  0  0  0  0  0  0  0  0  0  0
  -47.8599   56.8518   68.1734 C   0  0  0  0  0  0  0  0  0  0  0  0
  -47.5633   58.3181   68.4417 C   0  0  0  0  0  0  0  0  0  0  0  0
  -48.2208   59.1879   67.3837 C   0  0  0  0  0  0  0  0  0  0  0  0
  -47.7410   58.8580   65.9770 C   0  0  0  0  0  0  0  0  0  0  0  0
  -48.4570   59.8040   65.0240 C   0  0  0  0  0  0  0  0  0  0  0  0
  -49.9570   59.6540   65.1090 C   0  0  0  0  0  0  0  0  0  0  0  0
  -50.8211   60.4770   64.2480 C   0  0  0  0  0  0  0  0  0  0  0  0
  -50.2050   61.6051   63.4592 C   0  0  0  0  0  0  0  0  0  0  0  0
  -49.1519   61.0754   62.4921 C   0  0  0  0  0  0  0  0  0  0  0  0
  -49.7861   60.1014   61.4993 C   0  0  0  0  0  0  0  0  0  0  0  0
  -50.8744   60.7738   60.6638 C   0  0  0  0  0  0  0  0  0  0  0  0
  -50.3218   61.9379   59.8375 C   0  0  0  0  0  0  0  0  0  0  0  0
  -49.2438   61.5049   58.8473 C   0  0  0  0  0  0  0  0  0  0  0  0
  -48.5012   54.3309   69.0383 H   0  0  0  0  0  0  0  0  0  0  0  0
  -47.0360   54.2268   68.0964 H   0  0  0  0  0  0  0  0  0  0  0  0
  -45.0272   54.3630   69.8015 H   0  0  0  0  0  0  0  0  0  0  0  0
  -46.1518   56.1939   69.2462 H   0  0  0  0  0  0  0  0  0  0  0  0
  -47.6359   56.2842   70.1953 H   0  0  0  0  0  0  0  0  0  0  0  0
  -48.9178   56.6917   68.1848 H   0  0  0  0  0  0  0  0  0  0  0  0
  -47.4735   56.5738   67.2152 H   0  0  0  0  0  0  0  0  0  0  0  0
  -46.5050   58.4745   68.4202 H   0  0  0  0  0  0  0  0  0  0  0  0
  -47.9520   58.5831   69.4027 H   0  0  0  0  0  0  0  0  0  0  0  0
  -47.9938   60.2125   67.5922 H   0  0  0  0  0  0  0  0  0  0  0  0
  -49.2742   59.0031   67.4195 H   0  0  0  0  0  0  0  0  0  0  0  0
  -47.9815   57.8436   65.7361 H   0  0  0  0  0  0  0  0  0  0  0  0
  -46.6800   58.9732   65.9008 H   0  0  0  0  0  0  0  0  0  0  0  0
  -48.1435   59.5908   64.0234 H   0  0  0  0  0  0  0  0  0  0  0  0
  -48.2063   60.8071   65.2994 H   0  0  0  0  0  0  0  0  0  0  0  0
  -50.3741   58.9777   65.7676 H   0  0  0  0  0  0  0  0  0  0  0  0
  -51.8332   60.2852   64.1849 H   0  0  0  0  0  0  0  0  0  0  0  0
  -49.7455   62.2959   64.1348 H   0  0  0  0  0  0  0  0  0  0  0  0
  -50.9745   62.0914   62.8967 H   0  0  0  0  0  0  0  0  0  0  0  0
  -48.3881   60.5692   63.0444 H   0  0  0  0  0  0  0  0  0  0  0  0
  -48.7300   61.8973   61.9523 H   0  0  0  0  0  0  0  0  0  0  0  0
  -50.2190   59.2867   62.0414 H   0  0  0  0  0  0  0  0  0  0  0  0
  -49.0211   59.7571   60.8353 H   0  0  0  0  0  0  0  0  0  0  0  0
  -51.6342   61.1450   61.3194 H   0  0  0  0  0  0  0  0  0  0  0  0
  -51.2708   60.0456   59.9874 H   0  0  0  0  0  0  0  0  0  0  0  0
  -49.9015   62.6611   60.5049 H   0  0  0  0  0  0  0  0  0  0  0  0
  -51.1339   62.3434   59.2709 H   0  0  0  0  0  0  0  0  0  0  0  0
  -48.4134   61.0930   59.3816 H   0  0  0  0  0  0  0  0  0  0  0  0
  -48.9186   62.3524   58.2808 H   0  0  0  0  0  0  0  0  0  0  0  0
  -49.6440   60.7656   58.1852 H   0  0  0  0  0  0  0  0  0  0  0  0
  1  2  2  0  0  0  0
  1  3  1  0  0  0  0
  1  4  1  0  0  0  0
  3  5  1  0  0  0  0
  3 19  1  0  0  0  0
  3 20  1  0  0  0  0
  4 21  1  0  0  0  0
  5  6  1  0  0  0  0
  5 22  1  0  0  0  0
  5 23  1  0  0  0  0
  6  7  1  0  0  0  0
  6 24  1  0  0  0  0
  6 25  1  0  0  0  0
  7  8  1  0  0  0  0
  7 26  1  0  0  0  0
  7 27  1  0  0  0  0
  8  9  1  0  0  0  0
  8 28  1  0  0  0  0
  8 29  1  0  0  0  0
  9 10  1  0  0  0  0
  9 30  1  0  0  0  0
  9 31  1  0  0  0  0
 10 11  1  0  0  0  0
 10 32  1  0  0  0  0
 10 33  1  0  0  0  0
 11 12  2  0  0  0  0
 11 34  1  0  0  0  0
 12 13  1  0  0  0  0
 12 35  1  0  0  0  0
 13 14  1  0  0  0  0
 13 36  1  0  0  0  0
 13 37  1  0  0  0  0
 14 15  1  0  0  0  0
 14 38  1  0  0  0  0
 14 39  1  0  0  0  0
 15 16  1  0  0  0  0
 15 40  1  0  0  0  0
 15 41  1  0  0  0  0
 16 17  1  0  0  0  0
 16 42  1  0  0  0  0
 16 43  1  0  0  0  0
 17 18  1  0  0  0  0
 17 44  1  0  0  0  0
 17 45  1  0  0  0  0
 18 46  1  0  0  0  0
 18 47  1  0  0  0  0
 18 48  1  0  0  0  0
M  END
$$$$