/media/chris/experiments/cd1a-new-docking/inputs/ligands/4x6d_2_ligand.pdb
 OpenBabel07012320263D

 48 47  0  0  0  0  0  0  0  0999 V2000
  -42.2683   62.2925   65.0706 C   0  0  0  0  0  0  0  0  0  0  0  0
  -41.1959   62.6176   65.6167 O   0  0  0  0  0  0  0  0  0  0  0  0
  -42.4918   60.8661   64.6338 C   0  0  0  0  0  0  0  0  0  0  0  0
  -43.1447   63.1664   64.9004 O   0  0  0  0  0  0  0  0  0  0  0  0
  -43.9755   60.5452   64.7197 C   0  0  0  0  0  0  0  0  0  0  0  0
  -44.2663   59.1133   64.3081 C   0  0  0  0  0  0  0  0  0  0  0  0
  -45.7632   58.8672   64.4003 C   0  0  0  0  0  0  0  0  0  0  0  0
  -46.2472   59.1068   65.8203 C   0  0  0  0  0  0  0  0  0  0  0  0
  -47.7410   58.8580   65.9770 C   0  0  0  0  0  0  0  0  0  0  0  0
  -48.4570   59.8040   65.0240 C   0  0  0  0  0  0  0  0  0  0  0  0
  -49.9570   59.6540   65.1090 C   0  0  0  0  0  0  0  0  0  0  0  0
  -50.7835   60.8081   65.4966 C   0  0  0  0  0  0  0  0  0  0  0  0
  -50.1051   62.0523   66.0125 C   0  0  0  0  0  0  0  0  0  0  0  0
  -49.2848   61.7422   67.2599 C   0  0  0  0  0  0  0  0  0  0  0  0
  -48.6162   63.0129   67.7839 C   0  0  0  0  0  0  0  0  0  0  0  0
  -47.7702   62.7360   69.0259 C   0  0  0  0  0  0  0  0  0  0  0  0
  -46.6443   61.7394   68.7387 C   0  0  0  0  0  0  0  0  0  0  0  0
  -45.6703   62.2342   67.6726 C   0  0  0  0  0  0  0  0  0  0  0  0
  -41.9449   60.2056   65.2738 H   0  0  0  0  0  0  0  0  0  0  0  0
  -42.1540   60.7408   63.6262 H   0  0  0  0  0  0  0  0  0  0  0  0
  -43.9574   62.9416   64.4918 H   0  0  0  0  0  0  0  0  0  0  0  0
  -44.5113   61.2075   64.0722 H   0  0  0  0  0  0  0  0  0  0  0  0
  -44.2847   60.6688   65.7365 H   0  0  0  0  0  0  0  0  0  0  0  0
  -43.7510   58.4404   64.9613 H   0  0  0  0  0  0  0  0  0  0  0  0
  -43.9340   58.9507   63.3040 H   0  0  0  0  0  0  0  0  0  0  0  0
  -45.9731   57.8557   64.1212 H   0  0  0  0  0  0  0  0  0  0  0  0
  -46.2693   59.5404   63.7404 H   0  0  0  0  0  0  0  0  0  0  0  0
  -46.0386   60.1217   66.0873 H   0  0  0  0  0  0  0  0  0  0  0  0
  -45.7343   58.4185   66.4591 H   0  0  0  0  0  0  0  0  0  0  0  0
  -48.0419   59.0556   66.9846 H   0  0  0  0  0  0  0  0  0  0  0  0
  -47.9820   57.8397   65.7538 H   0  0  0  0  0  0  0  0  0  0  0  0
  -48.1435   59.5908   64.0234 H   0  0  0  0  0  0  0  0  0  0  0  0
  -48.2063   60.8071   65.2994 H   0  0  0  0  0  0  0  0  0  0  0  0
  -50.4004   58.7467   64.8964 H   0  0  0  0  0  0  0  0  0  0  0  0
  -51.8116   60.7668   65.4166 H   0  0  0  0  0  0  0  0  0  0  0  0
  -50.8484   62.7831   66.2539 H   0  0  0  0  0  0  0  0  0  0  0  0
  -49.4492   62.4257   65.2540 H   0  0  0  0  0  0  0  0  0  0  0  0
  -48.5321   61.0215   67.0173 H   0  0  0  0  0  0  0  0  0  0  0  0
  -49.9343   61.3532   68.0160 H   0  0  0  0  0  0  0  0  0  0  0  0
  -49.3741   63.7261   68.0327 H   0  0  0  0  0  0  0  0  0  0  0  0
  -47.9708   63.3900   67.0183 H   0  0  0  0  0  0  0  0  0  0  0  0
  -48.4007   62.3345   69.7915 H   0  0  0  0  0  0  0  0  0  0  0  0
  -47.3256   63.6583   69.3367 H   0  0  0  0  0  0  0  0  0  0  0  0
  -47.0788   60.8207   68.4041 H   0  0  0  0  0  0  0  0  0  0  0  0
  -46.0902   61.6113   69.6450 H   0  0  0  0  0  0  0  0  0  0  0  0
  -46.1927   62.3736   66.7493 H   0  0  0  0  0  0  0  0  0  0  0  0
  -44.8928   61.5116   67.5369 H   0  0  0  0  0  0  0  0  0  0  0  0
  -45.2425   63.1641   67.9843 H   0  0  0  0  0  0  0  0  0  0  0  0
  1  2  2  0  0  0  0
  1  3  1  0  0  0  0
  1  4  1  0  0  0  0
  3  5  1  0  0  0  0
  3 19  1  0  0  0  0
  3 20  1  0  0  0  0
  4 21  1  0  0  0  0
  5  6  1  0  0  0  0
  5 22  1  0  0  0  0
  5 23  1  0  0  0  0
  6  7  1  0  0  0  0
  6 24  1  0  0  0  0
  6 25  1  0  0  0  0
  7  8  1  0  0  0  0
  7 26  1  0  0  0  0
  7 27  1  0  0  0  0
  8  9  1  0  0  0  0
  8 28  1  0  0  0  0
  8 29  1  0  0  0  0
  9 10  1  0  0  0  0
  9 30  1  0  0  0  0
  9 31  1  0  0  0  0
 10 11  1  0  0  0  0
 10 32  1  0  0  0  0
 10 33  1  0  0  0  0
 11 12  2  0  0  0  0
 11 34  1  0  0  0  0
 12 13  1  0  0  0  0
 12 35  1  0  0  0  0
 13 14  1  0  0  0  0
 13 36  1  0  0  0  0
 13 37  1  0  0  0  0
 14 15  1  0  0  0  0
 14 38  1  0  0  0  0
 14 39  1  0  0  0  0
 15 16  1  0  0  0  0
 15 40  1  0  0  0  0
 15 41  1  0  0  0  0
 16 17  1  0  0  0  0
 16 42  1  0  0  0  0
 16 43  1  0  0  0  0
 17 18  1  0  0  0  0
 17 44  1  0  0  0  0
 17 45  1  0  0  0  0
 18 46  1  0  0  0  0
 18 47  1  0  0  0  0
 18 48  1  0  0  0  0
M  END
$$$$