/media/chris/experiments/cd1a-new-docking/inputs/ligands/4x6d_2_ligand.pdb
 OpenBabel07012320263D

 48 47  0  0  0  0  0  0  0  0999 V2000
  -49.3951   53.2338   64.2157 C   0  0  0  0  0  0  0  0  0  0  0  0
  -49.7519   53.9921   63.2930 O   0  0  0  0  0  0  0  0  0  0  0  0
  -49.8575   53.4924   65.6281 C   0  0  0  0  0  0  0  0  0  0  0  0
  -48.6574   52.2628   63.9438 O   0  0  0  0  0  0  0  0  0  0  0  0
  -49.3891   54.8726   66.0610 C   0  0  0  0  0  0  0  0  0  0  0  0
  -47.8772   54.9973   66.0036 C   0  0  0  0  0  0  0  0  0  0  0  0
  -47.4788   56.3899   66.4640 C   0  0  0  0  0  0  0  0  0  0  0  0
  -48.1197   57.4400   65.5725 C   0  0  0  0  0  0  0  0  0  0  0  0
  -47.7410   58.8580   65.9770 C   0  0  0  0  0  0  0  0  0  0  0  0
  -48.4570   59.8040   65.0240 C   0  0  0  0  0  0  0  0  0  0  0  0
  -49.9570   59.6540   65.1090 C   0  0  0  0  0  0  0  0  0  0  0  0
  -50.8211   60.4770   64.2480 C   0  0  0  0  0  0  0  0  0  0  0  0
  -50.2050   61.6051   63.4592 C   0  0  0  0  0  0  0  0  0  0  0  0
  -50.9694   61.8359   62.1602 C   0  0  0  0  0  0  0  0  0  0  0  0
  -52.4207   62.2112   62.4588 C   0  0  0  0  0  0  0  0  0  0  0  0
  -53.2227   62.4335   61.1773 C   0  0  0  0  0  0  0  0  0  0  0  0
  -54.6725   62.8264   61.4725 C   0  0  0  0  0  0  0  0  0  0  0  0
  -54.7863   64.1253   62.2662 C   0  0  0  0  0  0  0  0  0  0  0  0
  -49.4442   52.7527   66.2814 H   0  0  0  0  0  0  0  0  0  0  0  0
  -50.9255   53.4445   65.6718 H   0  0  0  0  0  0  0  0  0  0  0  0
  -48.3785   51.6815   64.6236 H   0  0  0  0  0  0  0  0  0  0  0  0
  -49.7136   55.0496   67.0651 H   0  0  0  0  0  0  0  0  0  0  0  0
  -49.8083   55.5924   65.3894 H   0  0  0  0  0  0  0  0  0  0  0  0
  -47.5421   54.8416   64.9995 H   0  0  0  0  0  0  0  0  0  0  0  0
  -47.4292   54.2635   66.6406 H   0  0  0  0  0  0  0  0  0  0  0  0
  -46.4143   56.4871   66.4157 H   0  0  0  0  0  0  0  0  0  0  0  0
  -47.8132   56.5343   67.4701 H   0  0  0  0  0  0  0  0  0  0  0  0
  -49.1831   57.3384   65.6327 H   0  0  0  0  0  0  0  0  0  0  0  0
  -47.7650   57.2806   64.5757 H   0  0  0  0  0  0  0  0  0  0  0  0
  -46.6822   58.9911   65.8990 H   0  0  0  0  0  0  0  0  0  0  0  0
  -48.0249   59.0527   66.9901 H   0  0  0  0  0  0  0  0  0  0  0  0
  -48.1435   59.5908   64.0234 H   0  0  0  0  0  0  0  0  0  0  0  0
  -48.2063   60.8071   65.2994 H   0  0  0  0  0  0  0  0  0  0  0  0
  -50.3741   58.9777   65.7676 H   0  0  0  0  0  0  0  0  0  0  0  0
  -51.8332   60.2852   64.1849 H   0  0  0  0  0  0  0  0  0  0  0  0
  -49.1892   61.3593   63.2299 H   0  0  0  0  0  0  0  0  0  0  0  0
  -50.2478   62.4985   64.0465 H   0  0  0  0  0  0  0  0  0  0  0  0
  -50.9495   60.9404   61.5749 H   0  0  0  0  0  0  0  0  0  0  0  0
  -50.5066   62.6361   61.6213 H   0  0  0  0  0  0  0  0  0  0  0  0
  -52.4341   63.1116   63.0367 H   0  0  0  0  0  0  0  0  0  0  0  0
  -52.8700   61.4030   62.9972 H   0  0  0  0  0  0  0  0  0  0  0  0
  -53.2189   61.5291   60.6056 H   0  0  0  0  0  0  0  0  0  0  0  0
  -52.7657   63.2346   60.6348 H   0  0  0  0  0  0  0  0  0  0  0  0
  -55.1311   62.0409   62.0359 H   0  0  0  0  0  0  0  0  0  0  0  0
  -55.1609   62.9805   60.5330 H   0  0  0  0  0  0  0  0  0  0  0  0
  -54.3066   64.0067   63.2152 H   0  0  0  0  0  0  0  0  0  0  0  0
  -55.8189   64.3626   62.4157 H   0  0  0  0  0  0  0  0  0  0  0  0
  -54.3134   64.9173   61.7239 H   0  0  0  0  0  0  0  0  0  0  0  0
  1  2  2  0  0  0  0
  1  3  1  0  0  0  0
  1  4  1  0  0  0  0
  3  5  1  0  0  0  0
  3 19  1  0  0  0  0
  3 20  1  0  0  0  0
  4 21  1  0  0  0  0
  5  6  1  0  0  0  0
  5 22  1  0  0  0  0
  5 23  1  0  0  0  0
  6  7  1  0  0  0  0
  6 24  1  0  0  0  0
  6 25  1  0  0  0  0
  7  8  1  0  0  0  0
  7 26  1  0  0  0  0
  7 27  1  0  0  0  0
  8  9  1  0  0  0  0
  8 28  1  0  0  0  0
  8 29  1  0  0  0  0
  9 10  1  0  0  0  0
  9 30  1  0  0  0  0
  9 31  1  0  0  0  0
 10 11  1  0  0  0  0
 10 32  1  0  0  0  0
 10 33  1  0  0  0  0
 11 12  2  0  0  0  0
 11 34  1  0  0  0  0
 12 13  1  0  0  0  0
 12 35  1  0  0  0  0
 13 14  1  0  0  0  0
 13 36  1  0  0  0  0
 13 37  1  0  0  0  0
 14 15  1  0  0  0  0
 14 38  1  0  0  0  0
 14 39  1  0  0  0  0
 15 16  1  0  0  0  0
 15 40  1  0  0  0  0
 15 41  1  0  0  0  0
 16 17  1  0  0  0  0
 16 42  1  0  0  0  0
 16 43  1  0  0  0  0
 17 18  1  0  0  0  0
 17 44  1  0  0  0  0
 17 45  1  0  0  0  0
 18 46  1  0  0  0  0
 18 47  1  0  0  0  0
 18 48  1  0  0  0  0
M  END
$$$$