/media/chris/experiments/cd1a-new-docking/inputs/ligands/4x6d_2_ligand.pdb
 OpenBabel07012320263D

 48 47  0  0  0  0  0  0  0  0999 V2000
  -43.2308   59.1795   69.2964 C   0  0  0  0  0  0  0  0  0  0  0  0
  -43.9247   59.7057   70.1882 O   0  0  0  0  0  0  0  0  0  0  0  0
  -43.4867   57.7514   68.8835 C   0  0  0  0  0  0  0  0  0  0  0  0
  -42.3316   59.8581   68.7563 O   0  0  0  0  0  0  0  0  0  0  0  0
  -43.1233   57.5839   67.4167 C   0  0  0  0  0  0  0  0  0  0  0  0
  -43.9331   58.5099   66.5271 C   0  0  0  0  0  0  0  0  0  0  0  0
  -45.4106   58.2057   66.7127 C   0  0  0  0  0  0  0  0  0  0  0  0
  -46.2472   59.1068   65.8203 C   0  0  0  0  0  0  0  0  0  0  0  0
  -47.7410   58.8580   65.9770 C   0  0  0  0  0  0  0  0  0  0  0  0
  -48.4570   59.8040   65.0240 C   0  0  0  0  0  0  0  0  0  0  0  0
  -49.9570   59.6540   65.1090 C   0  0  0  0  0  0  0  0  0  0  0  0
  -50.7835   60.8081   65.4966 C   0  0  0  0  0  0  0  0  0  0  0  0
  -50.1051   62.0523   66.0125 C   0  0  0  0  0  0  0  0  0  0  0  0
  -49.1679   62.6325   64.9591 C   0  0  0  0  0  0  0  0  0  0  0  0
  -49.9524   63.0132   63.7037 C   0  0  0  0  0  0  0  0  0  0  0  0
  -49.0408   63.5832   62.6180 C   0  0  0  0  0  0  0  0  0  0  0  0
  -49.8254   63.9817   61.3654 C   0  0  0  0  0  0  0  0  0  0  0  0
  -48.9344   64.5387   60.2582 C   0  0  0  0  0  0  0  0  0  0  0  0
  -44.5212   57.5176   69.0251 H   0  0  0  0  0  0  0  0  0  0  0  0
  -42.8912   57.0919   69.4796 H   0  0  0  0  0  0  0  0  0  0  0  0
  -41.7993   59.4804   68.0841 H   0  0  0  0  0  0  0  0  0  0  0  0
  -43.3122   56.5716   67.1262 H   0  0  0  0  0  0  0  0  0  0  0  0
  -42.0886   57.8303   67.2997 H   0  0  0  0  0  0  0  0  0  0  0  0
  -43.6602   58.3542   65.5043 H   0  0  0  0  0  0  0  0  0  0  0  0
  -43.7373   59.5281   66.7913 H   0  0  0  0  0  0  0  0  0  0  0  0
  -45.6801   58.3716   67.7348 H   0  0  0  0  0  0  0  0  0  0  0  0
  -45.5931   57.1851   66.4481 H   0  0  0  0  0  0  0  0  0  0  0  0
  -45.9748   58.9289   64.8010 H   0  0  0  0  0  0  0  0  0  0  0  0
  -46.0543   60.1191   66.1082 H   0  0  0  0  0  0  0  0  0  0  0  0
  -48.0419   59.0556   66.9846 H   0  0  0  0  0  0  0  0  0  0  0  0
  -47.9820   57.8397   65.7538 H   0  0  0  0  0  0  0  0  0  0  0  0
  -48.1435   59.5908   64.0234 H   0  0  0  0  0  0  0  0  0  0  0  0
  -48.2063   60.8071   65.2994 H   0  0  0  0  0  0  0  0  0  0  0  0
  -50.4004   58.7467   64.8964 H   0  0  0  0  0  0  0  0  0  0  0  0
  -51.8116   60.7668   65.4166 H   0  0  0  0  0  0  0  0  0  0  0  0
  -49.5406   61.8071   66.8878 H   0  0  0  0  0  0  0  0  0  0  0  0
  -50.8537   62.7806   66.2450 H   0  0  0  0  0  0  0  0  0  0  0  0
  -48.4274   61.9031   64.7050 H   0  0  0  0  0  0  0  0  0  0  0  0
  -48.6983   63.5086   65.3553 H   0  0  0  0  0  0  0  0  0  0  0  0
  -50.6851   63.7487   63.9625 H   0  0  0  0  0  0  0  0  0  0  0  0
  -50.4158   62.1286   63.3192 H   0  0  0  0  0  0  0  0  0  0  0  0
  -48.3158   62.8429   62.3512 H   0  0  0  0  0  0  0  0  0  0  0  0
  -48.5697   64.4613   63.0077 H   0  0  0  0  0  0  0  0  0  0  0  0
  -50.5423   64.7289   61.6350 H   0  0  0  0  0  0  0  0  0  0  0  0
  -50.2945   63.0981   60.9859 H   0  0  0  0  0  0  0  0  0  0  0  0
  -48.4477   65.4264   60.6047 H   0  0  0  0  0  0  0  0  0  0  0  0
  -49.5326   64.7710   59.4020 H   0  0  0  0  0  0  0  0  0  0  0  0
  -48.1983   63.8093   59.9918 H   0  0  0  0  0  0  0  0  0  0  0  0
  1  2  2  0  0  0  0
  1  3  1  0  0  0  0
  1  4  1  0  0  0  0
  3  5  1  0  0  0  0
  3 19  1  0  0  0  0
  3 20  1  0  0  0  0
  4 21  1  0  0  0  0
  5  6  1  0  0  0  0
  5 22  1  0  0  0  0
  5 23  1  0  0  0  0
  6  7  1  0  0  0  0
  6 24  1  0  0  0  0
  6 25  1  0  0  0  0
  7  8  1  0  0  0  0
  7 26  1  0  0  0  0
  7 27  1  0  0  0  0
  8  9  1  0  0  0  0
  8 28  1  0  0  0  0
  8 29  1  0  0  0  0
  9 10  1  0  0  0  0
  9 30  1  0  0  0  0
  9 31  1  0  0  0  0
 10 11  1  0  0  0  0
 10 32  1  0  0  0  0
 10 33  1  0  0  0  0
 11 12  2  0  0  0  0
 11 34  1  0  0  0  0
 12 13  1  0  0  0  0
 12 35  1  0  0  0  0
 13 14  1  0  0  0  0
 13 36  1  0  0  0  0
 13 37  1  0  0  0  0
 14 15  1  0  0  0  0
 14 38  1  0  0  0  0
 14 39  1  0  0  0  0
 15 16  1  0  0  0  0
 15 40  1  0  0  0  0
 15 41  1  0  0  0  0
 16 17  1  0  0  0  0
 16 42  1  0  0  0  0
 16 43  1  0  0  0  0
 17 18  1  0  0  0  0
 17 44  1  0  0  0  0
 17 45  1  0  0  0  0
 18 46  1  0  0  0  0
 18 47  1  0  0  0  0
 18 48  1  0  0  0  0
M  END
$$$$