/media/chris/experiments/cd1a-new-docking/inputs/ligands/4x6d_2_ligand.pdb
 OpenBabel07012320263D

 48 47  0  0  0  0  0  0  0  0999 V2000
  -49.9479   60.2618   71.4778 C   0  0  0  0  0  0  0  0  0  0  0  0
  -50.3464   60.7710   72.5435 O   0  0  0  0  0  0  0  0  0  0  0  0
  -50.1902   58.7986   71.2024 C   0  0  0  0  0  0  0  0  0  0  0  0
  -49.3540   60.9864   70.6513 O   0  0  0  0  0  0  0  0  0  0  0  0
  -49.5907   58.4398   69.8520 C   0  0  0  0  0  0  0  0  0  0  0  0
  -48.0920   58.6794   69.8201 C   0  0  0  0  0  0  0  0  0  0  0  0
  -47.5633   58.3181   68.4417 C   0  0  0  0  0  0  0  0  0  0  0  0
  -48.2208   59.1879   67.3837 C   0  0  0  0  0  0  0  0  0  0  0  0
  -47.7410   58.8580   65.9770 C   0  0  0  0  0  0  0  0  0  0  0  0
  -48.4570   59.8040   65.0240 C   0  0  0  0  0  0  0  0  0  0  0  0
  -49.9570   59.6540   65.1090 C   0  0  0  0  0  0  0  0  0  0  0  0
  -50.7833   59.9126   63.9192 C   0  0  0  0  0  0  0  0  0  0  0  0
  -50.1406   60.5325   62.7039 C   0  0  0  0  0  0  0  0  0  0  0  0
  -50.2672   59.6101   61.4964 C   0  0  0  0  0  0  0  0  0  0  0  0
  -49.5975   60.2403   60.2755 C   0  0  0  0  0  0  0  0  0  0  0  0
  -49.7202   59.3495   59.0401 C   0  0  0  0  0  0  0  0  0  0  0  0
  -49.0809   57.9763   59.2611 C   0  0  0  0  0  0  0  0  0  0  0  0
  -49.1751   57.0725   58.0346 C   0  0  0  0  0  0  0  0  0  0  0  0
  -51.2426   58.6061   71.1896 H   0  0  0  0  0  0  0  0  0  0  0  0
  -49.7327   58.2075   71.9680 H   0  0  0  0  0  0  0  0  0  0  0  0
  -49.0469   60.6221   69.8444 H   0  0  0  0  0  0  0  0  0  0  0  0
  -50.0537   59.0399   69.0967 H   0  0  0  0  0  0  0  0  0  0  0  0
  -49.7654   57.3989   69.6760 H   0  0  0  0  0  0  0  0  0  0  0  0
  -47.6152   58.0694   70.5586 H   0  0  0  0  0  0  0  0  0  0  0  0
  -47.8855   59.7084   70.0286 H   0  0  0  0  0  0  0  0  0  0  0  0
  -47.7794   57.2901   68.2384 H   0  0  0  0  0  0  0  0  0  0  0  0
  -46.5059   58.4803   68.4195 H   0  0  0  0  0  0  0  0  0  0  0  0
  -47.9938   60.2125   67.5922 H   0  0  0  0  0  0  0  0  0  0  0  0
  -49.2742   59.0031   67.4195 H   0  0  0  0  0  0  0  0  0  0  0  0
  -47.9815   57.8436   65.7361 H   0  0  0  0  0  0  0  0  0  0  0  0
  -46.6800   58.9732   65.9008 H   0  0  0  0  0  0  0  0  0  0  0  0
  -48.1435   59.5908   64.0234 H   0  0  0  0  0  0  0  0  0  0  0  0
  -48.2063   60.8071   65.2994 H   0  0  0  0  0  0  0  0  0  0  0  0
  -50.4005   59.3715   65.9970 H   0  0  0  0  0  0  0  0  0  0  0  0
  -51.7872   59.6735   63.9164 H   0  0  0  0  0  0  0  0  0  0  0  0
  -49.1043   60.7070   62.9053 H   0  0  0  0  0  0  0  0  0  0  0  0
  -50.6371   61.4548   62.4853 H   0  0  0  0  0  0  0  0  0  0  0  0
  -51.3031   59.4452   61.2851 H   0  0  0  0  0  0  0  0  0  0  0  0
  -49.7858   58.6802   61.7165 H   0  0  0  0  0  0  0  0  0  0  0  0
  -48.5606   60.3946   60.4899 H   0  0  0  0  0  0  0  0  0  0  0  0
  -50.0886   61.1679   60.0676 H   0  0  0  0  0  0  0  0  0  0  0  0
  -49.2328   59.8297   58.2175 H   0  0  0  0  0  0  0  0  0  0  0  0
  -50.7609   59.2025   58.8393 H   0  0  0  0  0  0  0  0  0  0  0  0
  -49.5777   57.4959   60.0781 H   0  0  0  0  0  0  0  0  0  0  0  0
  -48.0423   58.1347   59.4641 H   0  0  0  0  0  0  0  0  0  0  0  0
  -50.2040   56.8926   57.8023 H   0  0  0  0  0  0  0  0  0  0  0  0
  -48.6876   56.1422   58.2388 H   0  0  0  0  0  0  0  0  0  0  0  0
  -48.6998   57.5492   57.2029 H   0  0  0  0  0  0  0  0  0  0  0  0
  1  2  2  0  0  0  0
  1  3  1  0  0  0  0
  1  4  1  0  0  0  0
  3  5  1  0  0  0  0
  3 19  1  0  0  0  0
  3 20  1  0  0  0  0
  4 21  1  0  0  0  0
  5  6  1  0  0  0  0
  5 22  1  0  0  0  0
  5 23  1  0  0  0  0
  6  7  1  0  0  0  0
  6 24  1  0  0  0  0
  6 25  1  0  0  0  0
  7  8  1  0  0  0  0
  7 26  1  0  0  0  0
  7 27  1  0  0  0  0
  8  9  1  0  0  0  0
  8 28  1  0  0  0  0
  8 29  1  0  0  0  0
  9 10  1  0  0  0  0
  9 30  1  0  0  0  0
  9 31  1  0  0  0  0
 10 11  1  0  0  0  0
 10 32  1  0  0  0  0
 10 33  1  0  0  0  0
 11 12  2  0  0  0  0
 11 34  1  0  0  0  0
 12 13  1  0  0  0  0
 12 35  1  0  0  0  0
 13 14  1  0  0  0  0
 13 36  1  0  0  0  0
 13 37  1  0  0  0  0
 14 15  1  0  0  0  0
 14 38  1  0  0  0  0
 14 39  1  0  0  0  0
 15 16  1  0  0  0  0
 15 40  1  0  0  0  0
 15 41  1  0  0  0  0
 16 17  1  0  0  0  0
 16 42  1  0  0  0  0
 16 43  1  0  0  0  0
 17 18  1  0  0  0  0
 17 44  1  0  0  0  0
 17 45  1  0  0  0  0
 18 46  1  0  0  0  0
 18 47  1  0  0  0  0
 18 48  1  0  0  0  0
M  END
$$$$