/media/chris/experiments/cd1a-new-docking/inputs/ligands/4x6d_2_ligand.pdb
 OpenBabel07012320263D

 48 47  0  0  0  0  0  0  0  0999 V2000
  -45.2558   53.8756   65.6348 C   0  0  0  0  0  0  0  0  0  0  0  0
  -44.0126   53.8489   65.7211 O   0  0  0  0  0  0  0  0  0  0  0  0
  -45.9253   54.8005   64.6490 C   0  0  0  0  0  0  0  0  0  0  0  0
  -45.9254   53.1225   66.3733 O   0  0  0  0  0  0  0  0  0  0  0  0
  -45.5302   56.2346   64.9637 C   0  0  0  0  0  0  0  0  0  0  0  0
  -46.1871   57.2204   64.0143 C   0  0  0  0  0  0  0  0  0  0  0  0
  -47.6965   57.1075   64.1518 C   0  0  0  0  0  0  0  0  0  0  0  0
  -48.1197   57.4400   65.5725 C   0  0  0  0  0  0  0  0  0  0  0  0
  -47.7410   58.8580   65.9770 C   0  0  0  0  0  0  0  0  0  0  0  0
  -48.4570   59.8040   65.0240 C   0  0  0  0  0  0  0  0  0  0  0  0
  -49.9570   59.6540   65.1090 C   0  0  0  0  0  0  0  0  0  0  0  0
  -50.7188   60.4801   66.0590 C   0  0  0  0  0  0  0  0  0  0  0  0
  -49.9693   61.2990   67.0798 C   0  0  0  0  0  0  0  0  0  0  0  0
  -50.9379   62.0649   67.9742 C   0  0  0  0  0  0  0  0  0  0  0  0
  -50.1674   62.9044   68.9931 C   0  0  0  0  0  0  0  0  0  0  0  0
  -49.2729   62.0385   69.8788 C   0  0  0  0  0  0  0  0  0  0  0  0
  -50.0785   60.9935   70.6550 C   0  0  0  0  0  0  0  0  0  0  0  0
  -51.1371   61.6136   71.5632 C   0  0  0  0  0  0  0  0  0  0  0  0
  -46.9875   54.6968   64.7250 H   0  0  0  0  0  0  0  0  0  0  0  0
  -45.6168   54.5518   63.6551 H   0  0  0  0  0  0  0  0  0  0  0  0
  -46.8611   53.1280   66.3233 H   0  0  0  0  0  0  0  0  0  0  0  0
  -44.4676   56.3278   64.8794 H   0  0  0  0  0  0  0  0  0  0  0  0
  -45.8579   56.4601   65.9570 H   0  0  0  0  0  0  0  0  0  0  0  0
  -45.9005   56.9952   63.0083 H   0  0  0  0  0  0  0  0  0  0  0  0
  -45.8753   58.2156   64.2533 H   0  0  0  0  0  0  0  0  0  0  0  0
  -47.9991   56.1084   63.9174 H   0  0  0  0  0  0  0  0  0  0  0  0
  -48.1612   57.7971   63.4784 H   0  0  0  0  0  0  0  0  0  0  0  0
  -47.6440   56.7537   66.2417 H   0  0  0  0  0  0  0  0  0  0  0  0
  -49.1857   57.3618   65.6210 H   0  0  0  0  0  0  0  0  0  0  0  0
  -46.6822   58.9911   65.8990 H   0  0  0  0  0  0  0  0  0  0  0  0
  -48.0249   59.0527   66.9901 H   0  0  0  0  0  0  0  0  0  0  0  0
  -48.1435   59.5908   64.0234 H   0  0  0  0  0  0  0  0  0  0  0  0
  -48.2063   60.8071   65.2994 H   0  0  0  0  0  0  0  0  0  0  0  0
  -50.4455   58.9755   64.5039 H   0  0  0  0  0  0  0  0  0  0  0  0
  -51.7502   60.4989   66.0272 H   0  0  0  0  0  0  0  0  0  0  0  0
  -49.3337   61.9951   66.5734 H   0  0  0  0  0  0  0  0  0  0  0  0
  -49.3872   60.6395   67.6891 H   0  0  0  0  0  0  0  0  0  0  0  0
  -51.5654   61.3698   68.4918 H   0  0  0  0  0  0  0  0  0  0  0  0
  -51.5333   62.7142   67.3670 H   0  0  0  0  0  0  0  0  0  0  0  0
  -50.8670   63.4265   69.6120 H   0  0  0  0  0  0  0  0  0  0  0  0
  -49.5436   63.5890   68.4573 H   0  0  0  0  0  0  0  0  0  0  0  0
  -48.7618   62.6691   70.5760 H   0  0  0  0  0  0  0  0  0  0  0  0
  -48.5809   61.5218   69.2471 H   0  0  0  0  0  0  0  0  0  0  0  0
  -49.4043   60.4214   71.2577 H   0  0  0  0  0  0  0  0  0  0  0  0
  -50.5877   60.3836   69.9384 H   0  0  0  0  0  0  0  0  0  0  0  0
  -50.6611   62.2324   72.2950 H   0  0  0  0  0  0  0  0  0  0  0  0
  -51.6847   60.8368   72.0548 H   0  0  0  0  0  0  0  0  0  0  0  0
  -51.8075   62.2063   70.9766 H   0  0  0  0  0  0  0  0  0  0  0  0
  1  2  2  0  0  0  0
  1  3  1  0  0  0  0
  1  4  1  0  0  0  0
  3  5  1  0  0  0  0
  3 19  1  0  0  0  0
  3 20  1  0  0  0  0
  4 21  1  0  0  0  0
  5  6  1  0  0  0  0
  5 22  1  0  0  0  0
  5 23  1  0  0  0  0
  6  7  1  0  0  0  0
  6 24  1  0  0  0  0
  6 25  1  0  0  0  0
  7  8  1  0  0  0  0
  7 26  1  0  0  0  0
  7 27  1  0  0  0  0
  8  9  1  0  0  0  0
  8 28  1  0  0  0  0
  8 29  1  0  0  0  0
  9 10  1  0  0  0  0
  9 30  1  0  0  0  0
  9 31  1  0  0  0  0
 10 11  1  0  0  0  0
 10 32  1  0  0  0  0
 10 33  1  0  0  0  0
 11 12  2  0  0  0  0
 11 34  1  0  0  0  0
 12 13  1  0  0  0  0
 12 35  1  0  0  0  0
 13 14  1  0  0  0  0
 13 36  1  0  0  0  0
 13 37  1  0  0  0  0
 14 15  1  0  0  0  0
 14 38  1  0  0  0  0
 14 39  1  0  0  0  0
 15 16  1  0  0  0  0
 15 40  1  0  0  0  0
 15 41  1  0  0  0  0
 16 17  1  0  0  0  0
 16 42  1  0  0  0  0
 16 43  1  0  0  0  0
 17 18  1  0  0  0  0
 17 44  1  0  0  0  0
 17 45  1  0  0  0  0
 18 46  1  0  0  0  0
 18 47  1  0  0  0  0
 18 48  1  0  0  0  0
M  END
$$$$