/media/chris/experiments/cd1a-new-docking/inputs/ligands/4x6d_2_ligand.pdb
 OpenBabel07012320263D

 48 47  0  0  0  0  0  0  0  0999 V2000
  -43.2372   59.0578   69.2624 C   0  0  0  0  0  0  0  0  0  0  0  0
  -43.4223   57.8335   69.1187 O   0  0  0  0  0  0  0  0  0  0  0  0
  -43.9372   60.0395   68.3559 C   0  0  0  0  0  0  0  0  0  0  0  0
  -42.4701   59.4470   70.1684 O   0  0  0  0  0  0  0  0  0  0  0  0
  -45.4409   59.8827   68.5178 C   0  0  0  0  0  0  0  0  0  0  0  0
  -46.2061   60.8344   67.6161 C   0  0  0  0  0  0  0  0  0  0  0  0
  -45.8552   60.5327   66.1684 C   0  0  0  0  0  0  0  0  0  0  0  0
  -46.2472   59.1068   65.8203 C   0  0  0  0  0  0  0  0  0  0  0  0
  -47.7410   58.8580   65.9770 C   0  0  0  0  0  0  0  0  0  0  0  0
  -48.4570   59.8040   65.0240 C   0  0  0  0  0  0  0  0  0  0  0  0
  -49.9570   59.6540   65.1090 C   0  0  0  0  0  0  0  0  0  0  0  0
  -50.8211   60.4770   64.2480 C   0  0  0  0  0  0  0  0  0  0  0  0
  -50.2050   61.6051   63.4592 C   0  0  0  0  0  0  0  0  0  0  0  0
  -50.4196   61.3983   61.9638 C   0  0  0  0  0  0  0  0  0  0  0  0
  -49.7925   60.0783   61.5160 C   0  0  0  0  0  0  0  0  0  0  0  0
  -48.2915   60.0402   61.7991 C   0  0  0  0  0  0  0  0  0  0  0  0
  -47.5473   61.1715   61.0851 C   0  0  0  0  0  0  0  0  0  0  0  0
  -46.0423   61.1455   61.3382 C   0  0  0  0  0  0  0  0  0  0  0  0
  -43.6644   59.8458   67.3395 H   0  0  0  0  0  0  0  0  0  0  0  0
  -43.6492   61.0370   68.6145 H   0  0  0  0  0  0  0  0  0  0  0  0
  -42.3181   60.3632   70.2923 H   0  0  0  0  0  0  0  0  0  0  0  0
  -45.7026   60.0838   69.5356 H   0  0  0  0  0  0  0  0  0  0  0  0
  -45.7027   58.8819   68.2445 H   0  0  0  0  0  0  0  0  0  0  0  0
  -45.9364   61.8436   67.8480 H   0  0  0  0  0  0  0  0  0  0  0  0
  -47.2580   60.7090   67.7672 H   0  0  0  0  0  0  0  0  0  0  0  0
  -44.8015   60.6542   66.0274 H   0  0  0  0  0  0  0  0  0  0  0  0
  -46.3888   61.2071   65.5317 H   0  0  0  0  0  0  0  0  0  0  0  0
  -45.7183   58.4380   66.4668 H   0  0  0  0  0  0  0  0  0  0  0  0
  -45.9962   58.9421   64.7933 H   0  0  0  0  0  0  0  0  0  0  0  0
  -48.0419   59.0556   66.9846 H   0  0  0  0  0  0  0  0  0  0  0  0
  -47.9820   57.8397   65.7538 H   0  0  0  0  0  0  0  0  0  0  0  0
  -48.1435   59.5908   64.0234 H   0  0  0  0  0  0  0  0  0  0  0  0
  -48.2063   60.8071   65.2994 H   0  0  0  0  0  0  0  0  0  0  0  0
  -50.3741   58.9777   65.7676 H   0  0  0  0  0  0  0  0  0  0  0  0
  -51.8332   60.2852   64.1849 H   0  0  0  0  0  0  0  0  0  0  0  0
  -49.1550   61.6423   63.6614 H   0  0  0  0  0  0  0  0  0  0  0  0
  -50.6723   62.5228   63.7497 H   0  0  0  0  0  0  0  0  0  0  0  0
  -49.9654   62.2050   61.4271 H   0  0  0  0  0  0  0  0  0  0  0  0
  -51.4702   61.3705   61.7633 H   0  0  0  0  0  0  0  0  0  0  0  0
  -49.9500   59.9588   60.4644 H   0  0  0  0  0  0  0  0  0  0  0  0
  -50.2556   59.2858   62.0659 H   0  0  0  0  0  0  0  0  0  0  0  0
  -47.8998   59.1027   61.4636 H   0  0  0  0  0  0  0  0  0  0  0  0
  -48.1494   60.1627   62.8525 H   0  0  0  0  0  0  0  0  0  0  0  0
  -47.9355   62.1068   61.4308 H   0  0  0  0  0  0  0  0  0  0  0  0
  -47.6983   61.0417   60.0338 H   0  0  0  0  0  0  0  0  0  0  0  0
  -45.8542   61.2732   62.3838 H   0  0  0  0  0  0  0  0  0  0  0  0
  -45.5750   61.9383   60.7924 H   0  0  0  0  0  0  0  0  0  0  0  0
  -45.6426   60.2067   61.0160 H   0  0  0  0  0  0  0  0  0  0  0  0
  1  2  2  0  0  0  0
  1  3  1  0  0  0  0
  1  4  1  0  0  0  0
  3  5  1  0  0  0  0
  3 19  1  0  0  0  0
  3 20  1  0  0  0  0
  4 21  1  0  0  0  0
  5  6  1  0  0  0  0
  5 22  1  0  0  0  0
  5 23  1  0  0  0  0
  6  7  1  0  0  0  0
  6 24  1  0  0  0  0
  6 25  1  0  0  0  0
  7  8  1  0  0  0  0
  7 26  1  0  0  0  0
  7 27  1  0  0  0  0
  8  9  1  0  0  0  0
  8 28  1  0  0  0  0
  8 29  1  0  0  0  0
  9 10  1  0  0  0  0
  9 30  1  0  0  0  0
  9 31  1  0  0  0  0
 10 11  1  0  0  0  0
 10 32  1  0  0  0  0
 10 33  1  0  0  0  0
 11 12  2  0  0  0  0
 11 34  1  0  0  0  0
 12 13  1  0  0  0  0
 12 35  1  0  0  0  0
 13 14  1  0  0  0  0
 13 36  1  0  0  0  0
 13 37  1  0  0  0  0
 14 15  1  0  0  0  0
 14 38  1  0  0  0  0
 14 39  1  0  0  0  0
 15 16  1  0  0  0  0
 15 40  1  0  0  0  0
 15 41  1  0  0  0  0
 16 17  1  0  0  0  0
 16 42  1  0  0  0  0
 16 43  1  0  0  0  0
 17 18  1  0  0  0  0
 17 44  1  0  0  0  0
 17 45  1  0  0  0  0
 18 46  1  0  0  0  0
 18 47  1  0  0  0  0
 18 48  1  0  0  0  0
M  END
$$$$