/media/chris/experiments/cd1a-new-docking/inputs/ligands/4x6d_2_ligand.pdb
 OpenBabel07012320263D

 48 47  0  0  0  0  0  0  0  0999 V2000
  -41.9397   58.8709   61.2734 C   0  0  0  0  0  0  0  0  0  0  0  0
  -41.4159   59.7900   60.6142 O   0  0  0  0  0  0  0  0  0  0  0  0
  -42.3191   59.0966   62.7158 C   0  0  0  0  0  0  0  0  0  0  0  0
  -42.1445   57.7724   60.7145 O   0  0  0  0  0  0  0  0  0  0  0  0
  -43.8159   58.8835   62.8767 C   0  0  0  0  0  0  0  0  0  0  0  0
  -44.2663   59.1133   64.3081 C   0  0  0  0  0  0  0  0  0  0  0  0
  -45.7632   58.8672   64.4003 C   0  0  0  0  0  0  0  0  0  0  0  0
  -46.2472   59.1068   65.8203 C   0  0  0  0  0  0  0  0  0  0  0  0
  -47.7410   58.8580   65.9770 C   0  0  0  0  0  0  0  0  0  0  0  0
  -48.4570   59.8040   65.0240 C   0  0  0  0  0  0  0  0  0  0  0  0
  -49.9570   59.6540   65.1090 C   0  0  0  0  0  0  0  0  0  0  0  0
  -50.7833   59.9126   63.9192 C   0  0  0  0  0  0  0  0  0  0  0  0
  -50.1406   60.5325   62.7039 C   0  0  0  0  0  0  0  0  0  0  0  0
  -51.1662   60.7323   61.5934 C   0  0  0  0  0  0  0  0  0  0  0  0
  -51.7873   59.3927   61.1984 C   0  0  0  0  0  0  0  0  0  0  0  0
  -50.7318   58.4020   60.7094 C   0  0  0  0  0  0  0  0  0  0  0  0
  -49.9691   58.9347   59.4937 C   0  0  0  0  0  0  0  0  0  0  0  0
  -48.9194   57.9554   58.9749 C   0  0  0  0  0  0  0  0  0  0  0  0
  -42.0672   60.0969   63.0001 H   0  0  0  0  0  0  0  0  0  0  0  0
  -41.7882   58.4083   63.3397 H   0  0  0  0  0  0  0  0  0  0  0  0
  -42.5373   57.0692   61.1933 H   0  0  0  0  0  0  0  0  0  0  0  0
  -44.0552   57.8793   62.5951 H   0  0  0  0  0  0  0  0  0  0  0  0
  -44.3219   59.5887   62.2510 H   0  0  0  0  0  0  0  0  0  0  0  0
  -44.0499   60.1211   64.5950 H   0  0  0  0  0  0  0  0  0  0  0  0
  -43.7484   58.4435   64.9624 H   0  0  0  0  0  0  0  0  0  0  0  0
  -45.9731   57.8557   64.1212 H   0  0  0  0  0  0  0  0  0  0  0  0
  -46.2693   59.5404   63.7404 H   0  0  0  0  0  0  0  0  0  0  0  0
  -46.0386   60.1217   66.0873 H   0  0  0  0  0  0  0  0  0  0  0  0
  -45.7343   58.4185   66.4591 H   0  0  0  0  0  0  0  0  0  0  0  0
  -48.0419   59.0556   66.9846 H   0  0  0  0  0  0  0  0  0  0  0  0
  -47.9820   57.8397   65.7538 H   0  0  0  0  0  0  0  0  0  0  0  0
  -48.1435   59.5908   64.0234 H   0  0  0  0  0  0  0  0  0  0  0  0
  -48.2063   60.8071   65.2994 H   0  0  0  0  0  0  0  0  0  0  0  0
  -50.4005   59.3715   65.9970 H   0  0  0  0  0  0  0  0  0  0  0  0
  -51.7872   59.6735   63.9164 H   0  0  0  0  0  0  0  0  0  0  0  0
  -49.3623   59.8884   62.3513 H   0  0  0  0  0  0  0  0  0  0  0  0
  -49.7390   61.4861   62.9763 H   0  0  0  0  0  0  0  0  0  0  0  0
  -50.6840   61.1630   60.7408 H   0  0  0  0  0  0  0  0  0  0  0  0
  -51.9384   61.3839   61.9456 H   0  0  0  0  0  0  0  0  0  0  0  0
  -52.4974   59.5574   60.4151 H   0  0  0  0  0  0  0  0  0  0  0  0
  -52.2599   58.9764   62.0634 H   0  0  0  0  0  0  0  0  0  0  0  0
  -51.2152   57.4861   60.4405 H   0  0  0  0  0  0  0  0  0  0  0  0
  -50.0286   58.2488   61.5012 H   0  0  0  0  0  0  0  0  0  0  0  0
  -49.4795   59.8451   59.7700 H   0  0  0  0  0  0  0  0  0  0  0  0
  -50.6811   59.0872   58.7097 H   0  0  0  0  0  0  0  0  0  0  0  0
  -48.1886   57.7793   59.7363 H   0  0  0  0  0  0  0  0  0  0  0  0
  -48.4420   58.3688   58.1111 H   0  0  0  0  0  0  0  0  0  0  0  0
  -49.3918   57.0316   58.7134 H   0  0  0  0  0  0  0  0  0  0  0  0
  1  2  2  0  0  0  0
  1  3  1  0  0  0  0
  1  4  1  0  0  0  0
  3  5  1  0  0  0  0
  3 19  1  0  0  0  0
  3 20  1  0  0  0  0
  4 21  1  0  0  0  0
  5  6  1  0  0  0  0
  5 22  1  0  0  0  0
  5 23  1  0  0  0  0
  6  7  1  0  0  0  0
  6 24  1  0  0  0  0
  6 25  1  0  0  0  0
  7  8  1  0  0  0  0
  7 26  1  0  0  0  0
  7 27  1  0  0  0  0
  8  9  1  0  0  0  0
  8 28  1  0  0  0  0
  8 29  1  0  0  0  0
  9 10  1  0  0  0  0
  9 30  1  0  0  0  0
  9 31  1  0  0  0  0
 10 11  1  0  0  0  0
 10 32  1  0  0  0  0
 10 33  1  0  0  0  0
 11 12  2  0  0  0  0
 11 34  1  0  0  0  0
 12 13  1  0  0  0  0
 12 35  1  0  0  0  0
 13 14  1  0  0  0  0
 13 36  1  0  0  0  0
 13 37  1  0  0  0  0
 14 15  1  0  0  0  0
 14 38  1  0  0  0  0
 14 39  1  0  0  0  0
 15 16  1  0  0  0  0
 15 40  1  0  0  0  0
 15 41  1  0  0  0  0
 16 17  1  0  0  0  0
 16 42  1  0  0  0  0
 16 43  1  0  0  0  0
 17 18  1  0  0  0  0
 17 44  1  0  0  0  0
 17 45  1  0  0  0  0
 18 46  1  0  0  0  0
 18 47  1  0  0  0  0
 18 48  1  0  0  0  0
M  END
$$$$