/media/chris/experiments/cd1a-new-docking/inputs/ligands/4x6d_2_ligand.pdb
 OpenBabel07012320263D

 48 47  0  0  0  0  0  0  0  0999 V2000
  -45.0149   59.1222   70.9188 C   0  0  0  0  0  0  0  0  0  0  0  0
  -43.9004   59.4849   71.3433 O   0  0  0  0  0  0  0  0  0  0  0  0
  -45.2389   57.6863   70.5144 C   0  0  0  0  0  0  0  0  0  0  0  0
  -45.9322   59.9669   70.8421 O   0  0  0  0  0  0  0  0  0  0  0  0
  -44.9128   57.5277   69.0378 C   0  0  0  0  0  0  0  0  0  0  0  0
  -45.7757   58.4272   68.1713 C   0  0  0  0  0  0  0  0  0  0  0  0
  -45.4106   58.2057   66.7127 C   0  0  0  0  0  0  0  0  0  0  0  0
  -46.2472   59.1068   65.8203 C   0  0  0  0  0  0  0  0  0  0  0  0
  -47.7410   58.8580   65.9770 C   0  0  0  0  0  0  0  0  0  0  0  0
  -48.4570   59.8040   65.0240 C   0  0  0  0  0  0  0  0  0  0  0  0
  -49.9570   59.6540   65.1090 C   0  0  0  0  0  0  0  0  0  0  0  0
  -50.6439   58.6943   64.2300 C   0  0  0  0  0  0  0  0  0  0  0  0
  -49.8682   58.0413   63.1137 C   0  0  0  0  0  0  0  0  0  0  0  0
  -50.4131   56.6476   62.8211 C   0  0  0  0  0  0  0  0  0  0  0  0
  -49.6089   55.9886   61.7006 C   0  0  0  0  0  0  0  0  0  0  0  0
  -48.1366   55.8319   62.0778 C   0  0  0  0  0  0  0  0  0  0  0  0
  -47.9557   54.9523   63.3175 C   0  0  0  0  0  0  0  0  0  0  0  0
  -48.4895   53.5354   63.1240 C   0  0  0  0  0  0  0  0  0  0  0  0
  -46.2613   57.4213   70.6859 H   0  0  0  0  0  0  0  0  0  0  0  0
  -44.6066   57.0462   71.0936 H   0  0  0  0  0  0  0  0  0  0  0  0
  -46.7770   59.7137   70.5256 H   0  0  0  0  0  0  0  0  0  0  0  0
  -45.0790   56.5096   68.7536 H   0  0  0  0  0  0  0  0  0  0  0  0
  -43.8899   57.8054   68.8910 H   0  0  0  0  0  0  0  0  0  0  0  0
  -45.6034   59.4503   68.4330 H   0  0  0  0  0  0  0  0  0  0  0  0
  -46.8088   58.1950   68.3251 H   0  0  0  0  0  0  0  0  0  0  0  0
  -45.5932   57.1837   66.4538 H   0  0  0  0  0  0  0  0  0  0  0  0
  -44.3757   58.4386   66.5723 H   0  0  0  0  0  0  0  0  0  0  0  0
  -45.9748   58.9289   64.8010 H   0  0  0  0  0  0  0  0  0  0  0  0
  -46.0543   60.1191   66.1082 H   0  0  0  0  0  0  0  0  0  0  0  0
  -48.0419   59.0556   66.9846 H   0  0  0  0  0  0  0  0  0  0  0  0
  -47.9820   57.8397   65.7538 H   0  0  0  0  0  0  0  0  0  0  0  0
  -48.1435   59.5908   64.0234 H   0  0  0  0  0  0  0  0  0  0  0  0
  -48.2063   60.8071   65.2994 H   0  0  0  0  0  0  0  0  0  0  0  0
  -50.4978   60.2216   65.7801 H   0  0  0  0  0  0  0  0  0  0  0  0
  -51.6410   58.4716   64.3753 H   0  0  0  0  0  0  0  0  0  0  0  0
  -48.8400   57.9634   63.3994 H   0  0  0  0  0  0  0  0  0  0  0  0
  -49.9648   58.6400   62.2321 H   0  0  0  0  0  0  0  0  0  0  0  0
  -51.4376   56.7246   62.5221 H   0  0  0  0  0  0  0  0  0  0  0  0
  -50.3334   56.0498   63.7049 H   0  0  0  0  0  0  0  0  0  0  0  0
  -49.6789   56.5942   60.8213 H   0  0  0  0  0  0  0  0  0  0  0  0
  -50.0145   55.0135   61.5283 H   0  0  0  0  0  0  0  0  0  0  0  0
  -47.7256   56.7995   62.2771 H   0  0  0  0  0  0  0  0  0  0  0  0
  -47.6330   55.3601   61.2600 H   0  0  0  0  0  0  0  0  0  0  0  0
  -48.4763   55.4044   64.1358 H   0  0  0  0  0  0  0  0  0  0  0  0
  -46.9053   54.8765   63.5068 H   0  0  0  0  0  0  0  0  0  0  0  0
  -49.5415   53.5737   62.9320 H   0  0  0  0  0  0  0  0  0  0  0  0
  -48.3093   52.9623   64.0094 H   0  0  0  0  0  0  0  0  0  0  0  0
  -47.9921   53.0770   62.2950 H   0  0  0  0  0  0  0  0  0  0  0  0
  1  2  2  0  0  0  0
  1  3  1  0  0  0  0
  1  4  1  0  0  0  0
  3  5  1  0  0  0  0
  3 19  1  0  0  0  0
  3 20  1  0  0  0  0
  4 21  1  0  0  0  0
  5  6  1  0  0  0  0
  5 22  1  0  0  0  0
  5 23  1  0  0  0  0
  6  7  1  0  0  0  0
  6 24  1  0  0  0  0
  6 25  1  0  0  0  0
  7  8  1  0  0  0  0
  7 26  1  0  0  0  0
  7 27  1  0  0  0  0
  8  9  1  0  0  0  0
  8 28  1  0  0  0  0
  8 29  1  0  0  0  0
  9 10  1  0  0  0  0
  9 30  1  0  0  0  0
  9 31  1  0  0  0  0
 10 11  1  0  0  0  0
 10 32  1  0  0  0  0
 10 33  1  0  0  0  0
 11 12  2  0  0  0  0
 11 34  1  0  0  0  0
 12 13  1  0  0  0  0
 12 35  1  0  0  0  0
 13 14  1  0  0  0  0
 13 36  1  0  0  0  0
 13 37  1  0  0  0  0
 14 15  1  0  0  0  0
 14 38  1  0  0  0  0
 14 39  1  0  0  0  0
 15 16  1  0  0  0  0
 15 40  1  0  0  0  0
 15 41  1  0  0  0  0
 16 17  1  0  0  0  0
 16 42  1  0  0  0  0
 16 43  1  0  0  0  0
 17 18  1  0  0  0  0
 17 44  1  0  0  0  0
 17 45  1  0  0  0  0
 18 46  1  0  0  0  0
 18 47  1  0  0  0  0
 18 48  1  0  0  0  0
M  END
$$$$