/media/chris/experiments/cd1a-new-docking/inputs/ligands/4x6d_2_ligand.pdb
 OpenBabel07012320263D

 48 47  0  0  0  0  0  0  0  0999 V2000
  -44.3267   64.5576   65.9013 C   0  0  0  0  0  0  0  0  0  0  0  0
  -44.3258   65.4787   65.0615 O   0  0  0  0  0  0  0  0  0  0  0  0
  -44.7438   63.1657   65.4959 C   0  0  0  0  0  0  0  0  0  0  0  0
  -43.9732   64.8121   67.0722 O   0  0  0  0  0  0  0  0  0  0  0  0
  -43.9963   62.1531   66.3490 C   0  0  0  0  0  0  0  0  0  0  0  0
  -44.3599   60.7269   65.9774 C   0  0  0  0  0  0  0  0  0  0  0  0
  -45.8552   60.5327   66.1684 C   0  0  0  0  0  0  0  0  0  0  0  0
  -46.2472   59.1068   65.8203 C   0  0  0  0  0  0  0  0  0  0  0  0
  -47.7410   58.8580   65.9770 C   0  0  0  0  0  0  0  0  0  0  0  0
  -48.4570   59.8040   65.0240 C   0  0  0  0  0  0  0  0  0  0  0  0
  -49.9570   59.6540   65.1090 C   0  0  0  0  0  0  0  0  0  0  0  0
  -50.7835   60.8081   65.4966 C   0  0  0  0  0  0  0  0  0  0  0  0
  -50.1051   62.0523   66.0125 C   0  0  0  0  0  0  0  0  0  0  0  0
  -51.1340   63.1184   66.3728 C   0  0  0  0  0  0  0  0  0  0  0  0
  -50.4349   64.3804   66.8777 C   0  0  0  0  0  0  0  0  0  0  0  0
  -51.4378   65.4661   67.2651 C   0  0  0  0  0  0  0  0  0  0  0  0
  -52.3258   65.8697   66.0853 C   0  0  0  0  0  0  0  0  0  0  0  0
  -51.5295   66.4034   64.8974 C   0  0  0  0  0  0  0  0  0  0  0  0
  -44.5088   63.0077   64.4641 H   0  0  0  0  0  0  0  0  0  0  0  0
  -45.7977   63.0494   65.6395 H   0  0  0  0  0  0  0  0  0  0  0  0
  -43.9672   64.1330   67.7179 H   0  0  0  0  0  0  0  0  0  0  0  0
  -44.2428   62.3170   67.3772 H   0  0  0  0  0  0  0  0  0  0  0  0
  -42.9479   62.2844   66.1798 H   0  0  0  0  0  0  0  0  0  0  0  0
  -43.8263   60.0451   66.6061 H   0  0  0  0  0  0  0  0  0  0  0  0
  -44.0983   60.5409   64.9567 H   0  0  0  0  0  0  0  0  0  0  0  0
  -46.3840   61.2104   65.5311 H   0  0  0  0  0  0  0  0  0  0  0  0
  -46.1045   60.7238   67.1913 H   0  0  0  0  0  0  0  0  0  0  0  0
  -45.7183   58.4380   66.4668 H   0  0  0  0  0  0  0  0  0  0  0  0
  -45.9962   58.9421   64.7933 H   0  0  0  0  0  0  0  0  0  0  0  0
  -48.0419   59.0556   66.9846 H   0  0  0  0  0  0  0  0  0  0  0  0
  -47.9820   57.8397   65.7538 H   0  0  0  0  0  0  0  0  0  0  0  0
  -48.1435   59.5908   64.0234 H   0  0  0  0  0  0  0  0  0  0  0  0
  -48.2063   60.8071   65.2994 H   0  0  0  0  0  0  0  0  0  0  0  0
  -50.4004   58.7467   64.8964 H   0  0  0  0  0  0  0  0  0  0  0  0
  -51.8116   60.7668   65.4166 H   0  0  0  0  0  0  0  0  0  0  0  0
  -49.4524   62.4356   65.2562 H   0  0  0  0  0  0  0  0  0  0  0  0
  -49.5486   61.8010   66.8912 H   0  0  0  0  0  0  0  0  0  0  0  0
  -51.7793   62.7417   67.1387 H   0  0  0  0  0  0  0  0  0  0  0  0
  -51.7038   63.3613   65.5003 H   0  0  0  0  0  0  0  0  0  0  0  0
  -49.7980   64.7568   66.1047 H   0  0  0  0  0  0  0  0  0  0  0  0
  -49.8698   64.1225   67.7489 H   0  0  0  0  0  0  0  0  0  0  0  0
  -50.9014   66.3273   67.6049 H   0  0  0  0  0  0  0  0  0  0  0  0
  -52.0683   65.0754   68.0364 H   0  0  0  0  0  0  0  0  0  0  0  0
  -53.0026   66.6312   66.4124 H   0  0  0  0  0  0  0  0  0  0  0  0
  -52.8422   64.9919   65.7572 H   0  0  0  0  0  0  0  0  0  0  0  0
  -50.9985   67.2847   65.1910 H   0  0  0  0  0  0  0  0  0  0  0  0
  -52.1988   66.6402   64.0969 H   0  0  0  0  0  0  0  0  0  0  0  0
  -50.8330   65.6592   64.5717 H   0  0  0  0  0  0  0  0  0  0  0  0
  1  2  2  0  0  0  0
  1  3  1  0  0  0  0
  1  4  1  0  0  0  0
  3  5  1  0  0  0  0
  3 19  1  0  0  0  0
  3 20  1  0  0  0  0
  4 21  1  0  0  0  0
  5  6  1  0  0  0  0
  5 22  1  0  0  0  0
  5 23  1  0  0  0  0
  6  7  1  0  0  0  0
  6 24  1  0  0  0  0
  6 25  1  0  0  0  0
  7  8  1  0  0  0  0
  7 26  1  0  0  0  0
  7 27  1  0  0  0  0
  8  9  1  0  0  0  0
  8 28  1  0  0  0  0
  8 29  1  0  0  0  0
  9 10  1  0  0  0  0
  9 30  1  0  0  0  0
  9 31  1  0  0  0  0
 10 11  1  0  0  0  0
 10 32  1  0  0  0  0
 10 33  1  0  0  0  0
 11 12  2  0  0  0  0
 11 34  1  0  0  0  0
 12 13  1  0  0  0  0
 12 35  1  0  0  0  0
 13 14  1  0  0  0  0
 13 36  1  0  0  0  0
 13 37  1  0  0  0  0
 14 15  1  0  0  0  0
 14 38  1  0  0  0  0
 14 39  1  0  0  0  0
 15 16  1  0  0  0  0
 15 40  1  0  0  0  0
 15 41  1  0  0  0  0
 16 17  1  0  0  0  0
 16 42  1  0  0  0  0
 16 43  1  0  0  0  0
 17 18  1  0  0  0  0
 17 44  1  0  0  0  0
 17 45  1  0  0  0  0
 18 46  1  0  0  0  0
 18 47  1  0  0  0  0
 18 48  1  0  0  0  0
M  END
$$$$