/media/chris/experiments/cd1a-new-docking/inputs/ligands/4x6d_2_ligand.pdb
 OpenBabel07012320263D

 48 47  0  0  0  0  0  0  0  0999 V2000
  -49.3232   53.1214   64.5425 C   0  0  0  0  0  0  0  0  0  0  0  0
  -50.0689   54.0834   64.2738 O   0  0  0  0  0  0  0  0  0  0  0  0
  -47.8252   53.2816   64.4647 C   0  0  0  0  0  0  0  0  0  0  0  0
  -49.8414   52.0353   64.8783 O   0  0  0  0  0  0  0  0  0  0  0  0
  -47.4618   54.7256   64.7722 C   0  0  0  0  0  0  0  0  0  0  0  0
  -48.1147   55.6897   63.7983 C   0  0  0  0  0  0  0  0  0  0  0  0
  -47.6965   57.1075   64.1518 C   0  0  0  0  0  0  0  0  0  0  0  0
  -48.1197   57.4400   65.5725 C   0  0  0  0  0  0  0  0  0  0  0  0
  -47.7410   58.8580   65.9770 C   0  0  0  0  0  0  0  0  0  0  0  0
  -48.4570   59.8040   65.0240 C   0  0  0  0  0  0  0  0  0  0  0  0
  -49.9570   59.6540   65.1090 C   0  0  0  0  0  0  0  0  0  0  0  0
  -50.7186   59.2616   63.9126 C   0  0  0  0  0  0  0  0  0  0  0  0
  -50.0176   59.2310   62.5777 C   0  0  0  0  0  0  0  0  0  0  0  0
  -49.4561   60.6056   62.2311 C   0  0  0  0  0  0  0  0  0  0  0  0
  -48.4388   61.0435   63.2845 C   0  0  0  0  0  0  0  0  0  0  0  0
  -47.8670   62.4269   62.9781 C   0  0  0  0  0  0  0  0  0  0  0  0
  -46.8348   62.8616   64.0216 C   0  0  0  0  0  0  0  0  0  0  0  0
  -45.6343   61.9219   64.0974 C   0  0  0  0  0  0  0  0  0  0  0  0
  -47.4887   53.0293   63.4808 H   0  0  0  0  0  0  0  0  0  0  0  0
  -47.3563   52.6331   65.1750 H   0  0  0  0  0  0  0  0  0  0  0  0
  -49.2975   51.3005   65.0841 H   0  0  0  0  0  0  0  0  0  0  0  0
  -46.3994   54.8364   64.7098 H   0  0  0  0  0  0  0  0  0  0  0  0
  -47.8148   54.9556   65.7558 H   0  0  0  0  0  0  0  0  0  0  0  0
  -49.1790   55.6021   63.8657 H   0  0  0  0  0  0  0  0  0  0  0  0
  -47.8064   55.4598   62.7998 H   0  0  0  0  0  0  0  0  0  0  0  0
  -48.1623   57.7927   63.4747 H   0  0  0  0  0  0  0  0  0  0  0  0
  -46.6321   57.1868   64.0766 H   0  0  0  0  0  0  0  0  0  0  0  0
  -47.6440   56.7537   66.2417 H   0  0  0  0  0  0  0  0  0  0  0  0
  -49.1857   57.3618   65.6210 H   0  0  0  0  0  0  0  0  0  0  0  0
  -46.6822   58.9911   65.8990 H   0  0  0  0  0  0  0  0  0  0  0  0
  -48.0249   59.0527   66.9901 H   0  0  0  0  0  0  0  0  0  0  0  0
  -48.1435   59.5908   64.0234 H   0  0  0  0  0  0  0  0  0  0  0  0
  -48.2063   60.8071   65.2994 H   0  0  0  0  0  0  0  0  0  0  0  0
  -50.4456   59.8258   66.0016 H   0  0  0  0  0  0  0  0  0  0  0  0
  -51.7171   59.0111   63.9859 H   0  0  0  0  0  0  0  0  0  0  0  0
  -50.7149   58.9358   61.8217 H   0  0  0  0  0  0  0  0  0  0  0  0
  -49.2086   58.5327   62.6303 H   0  0  0  0  0  0  0  0  0  0  0  0
  -50.2562   61.3153   62.1965 H   0  0  0  0  0  0  0  0  0  0  0  0
  -48.9710   60.5536   61.2788 H   0  0  0  0  0  0  0  0  0  0  0  0
  -47.6375   60.3348   63.3083 H   0  0  0  0  0  0  0  0  0  0  0  0
  -48.9374   61.0909   64.2300 H   0  0  0  0  0  0  0  0  0  0  0  0
  -48.6673   63.1371   62.9663 H   0  0  0  0  0  0  0  0  0  0  0  0
  -47.3784   62.3808   62.0273 H   0  0  0  0  0  0  0  0  0  0  0  0
  -47.3090   62.8878   64.9805 H   0  0  0  0  0  0  0  0  0  0  0  0
  -46.4706   63.8248   63.7309 H   0  0  0  0  0  0  0  0  0  0  0  0
  -45.9633   60.9457   64.3867 H   0  0  0  0  0  0  0  0  0  0  0  0
  -44.9369   62.2918   64.8197 H   0  0  0  0  0  0  0  0  0  0  0  0
  -45.1613   61.8695   63.1391 H   0  0  0  0  0  0  0  0  0  0  0  0
  1  2  2  0  0  0  0
  1  3  1  0  0  0  0
  1  4  1  0  0  0  0
  3  5  1  0  0  0  0
  3 19  1  0  0  0  0
  3 20  1  0  0  0  0
  4 21  1  0  0  0  0
  5  6  1  0  0  0  0
  5 22  1  0  0  0  0
  5 23  1  0  0  0  0
  6  7  1  0  0  0  0
  6 24  1  0  0  0  0
  6 25  1  0  0  0  0
  7  8  1  0  0  0  0
  7 26  1  0  0  0  0
  7 27  1  0  0  0  0
  8  9  1  0  0  0  0
  8 28  1  0  0  0  0
  8 29  1  0  0  0  0
  9 10  1  0  0  0  0
  9 30  1  0  0  0  0
  9 31  1  0  0  0  0
 10 11  1  0  0  0  0
 10 32  1  0  0  0  0
 10 33  1  0  0  0  0
 11 12  2  0  0  0  0
 11 34  1  0  0  0  0
 12 13  1  0  0  0  0
 12 35  1  0  0  0  0
 13 14  1  0  0  0  0
 13 36  1  0  0  0  0
 13 37  1  0  0  0  0
 14 15  1  0  0  0  0
 14 38  1  0  0  0  0
 14 39  1  0  0  0  0
 15 16  1  0  0  0  0
 15 40  1  0  0  0  0
 15 41  1  0  0  0  0
 16 17  1  0  0  0  0
 16 42  1  0  0  0  0
 16 43  1  0  0  0  0
 17 18  1  0  0  0  0
 17 44  1  0  0  0  0
 17 45  1  0  0  0  0
 18 46  1  0  0  0  0
 18 47  1  0  0  0  0
 18 48  1  0  0  0  0
M  END
$$$$