/media/chris/experiments/cd1a-new-docking/inputs/ligands/4x6d_2_ligand.pdb
 OpenBabel07012320263D

 48 47  0  0  0  0  0  0  0  0999 V2000
  -43.2372   59.0578   69.2624 C   0  0  0  0  0  0  0  0  0  0  0  0
  -43.7737   58.7010   70.3295 O   0  0  0  0  0  0  0  0  0  0  0  0
  -43.9372   60.0395   68.3559 C   0  0  0  0  0  0  0  0  0  0  0  0
  -42.1163   58.5910   68.9684 O   0  0  0  0  0  0  0  0  0  0  0  0
  -45.4409   59.8827   68.5178 C   0  0  0  0  0  0  0  0  0  0  0  0
  -46.2061   60.8344   67.6161 C   0  0  0  0  0  0  0  0  0  0  0  0
  -45.8552   60.5327   66.1684 C   0  0  0  0  0  0  0  0  0  0  0  0
  -46.2472   59.1068   65.8203 C   0  0  0  0  0  0  0  0  0  0  0  0
  -47.7410   58.8580   65.9770 C   0  0  0  0  0  0  0  0  0  0  0  0
  -48.4570   59.8040   65.0240 C   0  0  0  0  0  0  0  0  0  0  0  0
  -49.9570   59.6540   65.1090 C   0  0  0  0  0  0  0  0  0  0  0  0
  -50.5394   58.6752   66.0408 C   0  0  0  0  0  0  0  0  0  0  0  0
  -49.6283   57.6907   66.7300 C   0  0  0  0  0  0  0  0  0  0  0  0
  -50.4264   56.7583   67.6347 C   0  0  0  0  0  0  0  0  0  0  0  0
  -49.4916   55.7767   68.3410 C   0  0  0  0  0  0  0  0  0  0  0  0
  -48.7054   54.9270   67.3438 C   0  0  0  0  0  0  0  0  0  0  0  0
  -49.6296   54.1130   66.4346 C   0  0  0  0  0  0  0  0  0  0  0  0
  -50.5387   53.1624   67.2092 C   0  0  0  0  0  0  0  0  0  0  0  0
  -43.6644   59.8458   67.3395 H   0  0  0  0  0  0  0  0  0  0  0  0
  -43.6492   61.0370   68.6145 H   0  0  0  0  0  0  0  0  0  0  0  0
  -41.6967   58.8471   68.1706 H   0  0  0  0  0  0  0  0  0  0  0  0
  -45.7026   60.0838   69.5356 H   0  0  0  0  0  0  0  0  0  0  0  0
  -45.7027   58.8819   68.2445 H   0  0  0  0  0  0  0  0  0  0  0  0
  -45.9364   61.8436   67.8480 H   0  0  0  0  0  0  0  0  0  0  0  0
  -47.2580   60.7090   67.7672 H   0  0  0  0  0  0  0  0  0  0  0  0
  -44.8015   60.6542   66.0274 H   0  0  0  0  0  0  0  0  0  0  0  0
  -46.3888   61.2071   65.5317 H   0  0  0  0  0  0  0  0  0  0  0  0
  -45.7183   58.4380   66.4668 H   0  0  0  0  0  0  0  0  0  0  0  0
  -45.9962   58.9421   64.7933 H   0  0  0  0  0  0  0  0  0  0  0  0
  -48.0419   59.0556   66.9846 H   0  0  0  0  0  0  0  0  0  0  0  0
  -47.9820   57.8397   65.7538 H   0  0  0  0  0  0  0  0  0  0  0  0
  -48.1435   59.5908   64.0234 H   0  0  0  0  0  0  0  0  0  0  0  0
  -48.2063   60.8071   65.2994 H   0  0  0  0  0  0  0  0  0  0  0  0
  -50.5707   60.2349   64.5166 H   0  0  0  0  0  0  0  0  0  0  0  0
  -51.5556   58.6627   66.2199 H   0  0  0  0  0  0  0  0  0  0  0  0
  -48.9146   58.2266   67.3202 H   0  0  0  0  0  0  0  0  0  0  0  0
  -49.1302   57.1046   65.9861 H   0  0  0  0  0  0  0  0  0  0  0  0
  -51.1316   56.2116   67.0441 H   0  0  0  0  0  0  0  0  0  0  0  0
  -50.9392   57.3418   68.3705 H   0  0  0  0  0  0  0  0  0  0  0  0
  -50.0741   55.1303   68.9637 H   0  0  0  0  0  0  0  0  0  0  0  0
  -48.7925   56.3414   68.9218 H   0  0  0  0  0  0  0  0  0  0  0  0
  -48.0728   54.2549   67.8851 H   0  0  0  0  0  0  0  0  0  0  0  0
  -48.1301   55.5860   66.7276 H   0  0  0  0  0  0  0  0  0  0  0  0
  -49.0273   53.5377   65.7628 H   0  0  0  0  0  0  0  0  0  0  0  0
  -50.2579   54.8047   65.9135 H   0  0  0  0  0  0  0  0  0  0  0  0
  -49.9412   52.4542   67.7442 H   0  0  0  0  0  0  0  0  0  0  0  0
  -51.1788   52.6448   66.5256 H   0  0  0  0  0  0  0  0  0  0  0  0
  -51.1334   53.7219   67.9007 H   0  0  0  0  0  0  0  0  0  0  0  0
  1  2  2  0  0  0  0
  1  3  1  0  0  0  0
  1  4  1  0  0  0  0
  3  5  1  0  0  0  0
  3 19  1  0  0  0  0
  3 20  1  0  0  0  0
  4 21  1  0  0  0  0
  5  6  1  0  0  0  0
  5 22  1  0  0  0  0
  5 23  1  0  0  0  0
  6  7  1  0  0  0  0
  6 24  1  0  0  0  0
  6 25  1  0  0  0  0
  7  8  1  0  0  0  0
  7 26  1  0  0  0  0
  7 27  1  0  0  0  0
  8  9  1  0  0  0  0
  8 28  1  0  0  0  0
  8 29  1  0  0  0  0
  9 10  1  0  0  0  0
  9 30  1  0  0  0  0
  9 31  1  0  0  0  0
 10 11  1  0  0  0  0
 10 32  1  0  0  0  0
 10 33  1  0  0  0  0
 11 12  2  0  0  0  0
 11 34  1  0  0  0  0
 12 13  1  0  0  0  0
 12 35  1  0  0  0  0
 13 14  1  0  0  0  0
 13 36  1  0  0  0  0
 13 37  1  0  0  0  0
 14 15  1  0  0  0  0
 14 38  1  0  0  0  0
 14 39  1  0  0  0  0
 15 16  1  0  0  0  0
 15 40  1  0  0  0  0
 15 41  1  0  0  0  0
 16 17  1  0  0  0  0
 16 42  1  0  0  0  0
 16 43  1  0  0  0  0
 17 18  1  0  0  0  0
 17 44  1  0  0  0  0
 17 45  1  0  0  0  0
 18 46  1  0  0  0  0
 18 47  1  0  0  0  0
 18 48  1  0  0  0  0
M  END
$$$$