/media/chris/experiments/cd1a-new-docking/inputs/ligands/4x6d_2_ligand.pdb
 OpenBabel07012320263D

 48 47  0  0  0  0  0  0  0  0999 V2000
  -45.2444   53.8464   65.3405 C   0  0  0  0  0  0  0  0  0  0  0  0
  -45.4757   53.8174   66.5650 O   0  0  0  0  0  0  0  0  0  0  0  0
  -45.8810   54.9061   64.4760 C   0  0  0  0  0  0  0  0  0  0  0  0
  -44.4773   52.9887   64.8538 O   0  0  0  0  0  0  0  0  0  0  0  0
  -47.3935   54.7913   64.5795 C   0  0  0  0  0  0  0  0  0  0  0  0
  -47.8772   54.9973   66.0036 C   0  0  0  0  0  0  0  0  0  0  0  0
  -47.4788   56.3899   66.4640 C   0  0  0  0  0  0  0  0  0  0  0  0
  -48.1197   57.4400   65.5725 C   0  0  0  0  0  0  0  0  0  0  0  0
  -47.7410   58.8580   65.9770 C   0  0  0  0  0  0  0  0  0  0  0  0
  -48.4570   59.8040   65.0240 C   0  0  0  0  0  0  0  0  0  0  0  0
  -49.9570   59.6540   65.1090 C   0  0  0  0  0  0  0  0  0  0  0  0
  -50.7188   60.4801   66.0590 C   0  0  0  0  0  0  0  0  0  0  0  0
  -49.9693   61.2990   67.0798 C   0  0  0  0  0  0  0  0  0  0  0  0
  -50.7436   62.5647   67.4307 C   0  0  0  0  0  0  0  0  0  0  0  0
  -49.9670   63.3951   68.4523 C   0  0  0  0  0  0  0  0  0  0  0  0
  -50.7225   64.6650   68.8409 C   0  0  0  0  0  0  0  0  0  0  0  0
  -49.9400   65.5080   69.8511 C   0  0  0  0  0  0  0  0  0  0  0  0
  -48.5887   65.9742   69.3157 C   0  0  0  0  0  0  0  0  0  0  0  0
  -45.5800   54.7667   63.4587 H   0  0  0  0  0  0  0  0  0  0  0  0
  -45.5699   55.8751   64.8063 H   0  0  0  0  0  0  0  0  0  0  0  0
  -44.2910   52.9940   63.9355 H   0  0  0  0  0  0  0  0  0  0  0  0
  -47.6906   53.8176   64.2501 H   0  0  0  0  0  0  0  0  0  0  0  0
  -47.8281   55.5532   63.9667 H   0  0  0  0  0  0  0  0  0  0  0  0
  -47.4300   54.2659   66.6439 H   0  0  0  0  0  0  0  0  0  0  0  0
  -48.9415   54.8939   66.0429 H   0  0  0  0  0  0  0  0  0  0  0  0
  -46.4143   56.4871   66.4157 H   0  0  0  0  0  0  0  0  0  0  0  0
  -47.8132   56.5343   67.4701 H   0  0  0  0  0  0  0  0  0  0  0  0
  -49.1831   57.3384   65.6327 H   0  0  0  0  0  0  0  0  0  0  0  0
  -47.7650   57.2806   64.5757 H   0  0  0  0  0  0  0  0  0  0  0  0
  -46.6822   58.9911   65.8990 H   0  0  0  0  0  0  0  0  0  0  0  0
  -48.0249   59.0527   66.9901 H   0  0  0  0  0  0  0  0  0  0  0  0
  -48.1435   59.5908   64.0234 H   0  0  0  0  0  0  0  0  0  0  0  0
  -48.2063   60.8071   65.2994 H   0  0  0  0  0  0  0  0  0  0  0  0
  -50.4455   58.9755   64.5039 H   0  0  0  0  0  0  0  0  0  0  0  0
  -51.7502   60.4989   66.0272 H   0  0  0  0  0  0  0  0  0  0  0  0
  -49.0149   61.5708   66.6796 H   0  0  0  0  0  0  0  0  0  0  0  0
  -49.8472   60.7138   67.9672 H   0  0  0  0  0  0  0  0  0  0  0  0
  -51.6931   62.2947   67.8436 H   0  0  0  0  0  0  0  0  0  0  0  0
  -50.8821   63.1456   66.5428 H   0  0  0  0  0  0  0  0  0  0  0  0
  -49.0226   63.6690   68.0304 H   0  0  0  0  0  0  0  0  0  0  0  0
  -49.8362   62.8022   69.3334 H   0  0  0  0  0  0  0  0  0  0  0  0
  -51.6617   64.3900   69.2737 H   0  0  0  0  0  0  0  0  0  0  0  0
  -50.8623   65.2515   67.9570 H   0  0  0  0  0  0  0  0  0  0  0  0
  -49.7747   64.9209   70.7302 H   0  0  0  0  0  0  0  0  0  0  0  0
  -50.5216   66.3817   70.0590 H   0  0  0  0  0  0  0  0  0  0  0  0
  -47.9789   65.1228   69.0964 H   0  0  0  0  0  0  0  0  0  0  0  0
  -48.1033   66.5804   70.0518 H   0  0  0  0  0  0  0  0  0  0  0  0
  -48.7366   66.5463   68.4237 H   0  0  0  0  0  0  0  0  0  0  0  0
  1  2  2  0  0  0  0
  1  3  1  0  0  0  0
  1  4  1  0  0  0  0
  3  5  1  0  0  0  0
  3 19  1  0  0  0  0
  3 20  1  0  0  0  0
  4 21  1  0  0  0  0
  5  6  1  0  0  0  0
  5 22  1  0  0  0  0
  5 23  1  0  0  0  0
  6  7  1  0  0  0  0
  6 24  1  0  0  0  0
  6 25  1  0  0  0  0
  7  8  1  0  0  0  0
  7 26  1  0  0  0  0
  7 27  1  0  0  0  0
  8  9  1  0  0  0  0
  8 28  1  0  0  0  0
  8 29  1  0  0  0  0
  9 10  1  0  0  0  0
  9 30  1  0  0  0  0
  9 31  1  0  0  0  0
 10 11  1  0  0  0  0
 10 32  1  0  0  0  0
 10 33  1  0  0  0  0
 11 12  2  0  0  0  0
 11 34  1  0  0  0  0
 12 13  1  0  0  0  0
 12 35  1  0  0  0  0
 13 14  1  0  0  0  0
 13 36  1  0  0  0  0
 13 37  1  0  0  0  0
 14 15  1  0  0  0  0
 14 38  1  0  0  0  0
 14 39  1  0  0  0  0
 15 16  1  0  0  0  0
 15 40  1  0  0  0  0
 15 41  1  0  0  0  0
 16 17  1  0  0  0  0
 16 42  1  0  0  0  0
 16 43  1  0  0  0  0
 17 18  1  0  0  0  0
 17 44  1  0  0  0  0
 17 45  1  0  0  0  0
 18 46  1  0  0  0  0
 18 47  1  0  0  0  0
 18 48  1  0  0  0  0
M  END
$$$$