/media/chris/experiments/cd1a-new-docking/inputs/ligands/4x6d_2_ligand.pdb
 OpenBabel07012320263D

 48 47  0  0  0  0  0  0  0  0999 V2000
  -43.5369   57.7597   65.3354 C   0  0  0  0  0  0  0  0  0  0  0  0
  -42.4113   57.8876   65.8554 O   0  0  0  0  0  0  0  0  0  0  0  0
  -43.9947   56.4078   64.8473 C   0  0  0  0  0  0  0  0  0  0  0  0
  -44.2696   58.7666   65.2341 O   0  0  0  0  0  0  0  0  0  0  0  0
  -45.5073   56.3184   64.9733 C   0  0  0  0  0  0  0  0  0  0  0  0
  -45.9645   56.5083   66.4084 C   0  0  0  0  0  0  0  0  0  0  0  0
  -47.4788   56.3899   66.4640 C   0  0  0  0  0  0  0  0  0  0  0  0
  -48.1197   57.4400   65.5725 C   0  0  0  0  0  0  0  0  0  0  0  0
  -47.7410   58.8580   65.9770 C   0  0  0  0  0  0  0  0  0  0  0  0
  -48.4570   59.8040   65.0240 C   0  0  0  0  0  0  0  0  0  0  0  0
  -49.9570   59.6540   65.1090 C   0  0  0  0  0  0  0  0  0  0  0  0
  -50.7835   60.8081   65.4966 C   0  0  0  0  0  0  0  0  0  0  0  0
  -50.1051   62.0523   66.0125 C   0  0  0  0  0  0  0  0  0  0  0  0
  -51.1340   63.1184   66.3728 C   0  0  0  0  0  0  0  0  0  0  0  0
  -50.4349   64.3804   66.8777 C   0  0  0  0  0  0  0  0  0  0  0  0
  -51.4378   65.4661   67.2651 C   0  0  0  0  0  0  0  0  0  0  0  0
  -52.3702   65.0067   68.3890 C   0  0  0  0  0  0  0  0  0  0  0  0
  -51.6240   64.6514   69.6723 C   0  0  0  0  0  0  0  0  0  0  0  0
  -43.5401   55.6407   65.4387 H   0  0  0  0  0  0  0  0  0  0  0  0
  -43.7104   56.2792   63.8238 H   0  0  0  0  0  0  0  0  0  0  0  0
  -45.1191   58.6907   64.8461 H   0  0  0  0  0  0  0  0  0  0  0  0
  -45.8272   55.3560   64.6321 H   0  0  0  0  0  0  0  0  0  0  0  0
  -45.9376   57.0985   64.3807 H   0  0  0  0  0  0  0  0  0  0  0  0
  -45.6672   57.4760   66.7547 H   0  0  0  0  0  0  0  0  0  0  0  0
  -45.5199   55.7608   67.0317 H   0  0  0  0  0  0  0  0  0  0  0  0
  -47.8078   56.5333   67.4720 H   0  0  0  0  0  0  0  0  0  0  0  0
  -47.7660   55.4179   66.1210 H   0  0  0  0  0  0  0  0  0  0  0  0
  -49.1831   57.3384   65.6327 H   0  0  0  0  0  0  0  0  0  0  0  0
  -47.7650   57.2806   64.5757 H   0  0  0  0  0  0  0  0  0  0  0  0
  -46.6822   58.9911   65.8990 H   0  0  0  0  0  0  0  0  0  0  0  0
  -48.0249   59.0527   66.9901 H   0  0  0  0  0  0  0  0  0  0  0  0
  -48.1435   59.5908   64.0234 H   0  0  0  0  0  0  0  0  0  0  0  0
  -48.2063   60.8071   65.2994 H   0  0  0  0  0  0  0  0  0  0  0  0
  -50.4004   58.7467   64.8964 H   0  0  0  0  0  0  0  0  0  0  0  0
  -51.8116   60.7668   65.4166 H   0  0  0  0  0  0  0  0  0  0  0  0
  -49.4524   62.4356   65.2562 H   0  0  0  0  0  0  0  0  0  0  0  0
  -49.5486   61.8010   66.8912 H   0  0  0  0  0  0  0  0  0  0  0  0
  -51.7793   62.7417   67.1387 H   0  0  0  0  0  0  0  0  0  0  0  0
  -51.7038   63.3613   65.5003 H   0  0  0  0  0  0  0  0  0  0  0  0
  -49.7980   64.7568   66.1047 H   0  0  0  0  0  0  0  0  0  0  0  0
  -49.8698   64.1225   67.7489 H   0  0  0  0  0  0  0  0  0  0  0  0
  -52.0267   65.7152   66.4072 H   0  0  0  0  0  0  0  0  0  0  0  0
  -50.8889   66.3150   67.6157 H   0  0  0  0  0  0  0  0  0  0  0  0
  -52.9067   64.1430   68.0558 H   0  0  0  0  0  0  0  0  0  0  0  0
  -53.0267   65.8210   68.6144 H   0  0  0  0  0  0  0  0  0  0  0  0
  -50.9559   63.8374   69.4827 H   0  0  0  0  0  0  0  0  0  0  0  0
  -52.3274   64.3672   70.4268 H   0  0  0  0  0  0  0  0  0  0  0  0
  -51.0656   65.5006   70.0070 H   0  0  0  0  0  0  0  0  0  0  0  0
  1  2  2  0  0  0  0
  1  3  1  0  0  0  0
  1  4  1  0  0  0  0
  3  5  1  0  0  0  0
  3 19  1  0  0  0  0
  3 20  1  0  0  0  0
  4 21  1  0  0  0  0
  5  6  1  0  0  0  0
  5 22  1  0  0  0  0
  5 23  1  0  0  0  0
  6  7  1  0  0  0  0
  6 24  1  0  0  0  0
  6 25  1  0  0  0  0
  7  8  1  0  0  0  0
  7 26  1  0  0  0  0
  7 27  1  0  0  0  0
  8  9  1  0  0  0  0
  8 28  1  0  0  0  0
  8 29  1  0  0  0  0
  9 10  1  0  0  0  0
  9 30  1  0  0  0  0
  9 31  1  0  0  0  0
 10 11  1  0  0  0  0
 10 32  1  0  0  0  0
 10 33  1  0  0  0  0
 11 12  2  0  0  0  0
 11 34  1  0  0  0  0
 12 13  1  0  0  0  0
 12 35  1  0  0  0  0
 13 14  1  0  0  0  0
 13 36  1  0  0  0  0
 13 37  1  0  0  0  0
 14 15  1  0  0  0  0
 14 38  1  0  0  0  0
 14 39  1  0  0  0  0
 15 16  1  0  0  0  0
 15 40  1  0  0  0  0
 15 41  1  0  0  0  0
 16 17  1  0  0  0  0
 16 42  1  0  0  0  0
 16 43  1  0  0  0  0
 17 18  1  0  0  0  0
 17 44  1  0  0  0  0
 17 45  1  0  0  0  0
 18 46  1  0  0  0  0
 18 47  1  0  0  0  0
 18 48  1  0  0  0  0
M  END
$$$$