/media/chris/experiments/cd1a-new-docking/inputs/ligands/4x6d_2_ligand.pdb
 OpenBabel07012320263D

 48 47  0  0  0  0  0  0  0  0999 V2000
  -45.0149   59.1222   70.9188 C   0  0  0  0  0  0  0  0  0  0  0  0
  -43.8886   59.6397   70.7869 O   0  0  0  0  0  0  0  0  0  0  0  0
  -45.2389   57.6863   70.5144 C   0  0  0  0  0  0  0  0  0  0  0  0
  -45.9414   59.8131   71.3932 O   0  0  0  0  0  0  0  0  0  0  0  0
  -44.9128   57.5277   69.0378 C   0  0  0  0  0  0  0  0  0  0  0  0
  -45.7757   58.4272   68.1713 C   0  0  0  0  0  0  0  0  0  0  0  0
  -45.4106   58.2057   66.7127 C   0  0  0  0  0  0  0  0  0  0  0  0
  -46.2472   59.1068   65.8203 C   0  0  0  0  0  0  0  0  0  0  0  0
  -47.7410   58.8580   65.9770 C   0  0  0  0  0  0  0  0  0  0  0  0
  -48.4570   59.8040   65.0240 C   0  0  0  0  0  0  0  0  0  0  0  0
  -49.9570   59.6540   65.1090 C   0  0  0  0  0  0  0  0  0  0  0  0
  -50.5764   59.2356   66.3765 C   0  0  0  0  0  0  0  0  0  0  0  0
  -49.6910   58.7540   67.4984 C   0  0  0  0  0  0  0  0  0  0  0  0
  -50.5250   58.3539   68.7105 C   0  0  0  0  0  0  0  0  0  0  0  0
  -49.6170   57.8842   69.8469 C   0  0  0  0  0  0  0  0  0  0  0  0
  -48.7632   56.6874   69.4309 C   0  0  0  0  0  0  0  0  0  0  0  0
  -49.6223   55.4950   69.0024 C   0  0  0  0  0  0  0  0  0  0  0  0
  -48.7924   54.2794   68.5979 C   0  0  0  0  0  0  0  0  0  0  0  0
  -46.2613   57.4213   70.6859 H   0  0  0  0  0  0  0  0  0  0  0  0
  -44.6066   57.0462   71.0936 H   0  0  0  0  0  0  0  0  0  0  0  0
  -46.7951   59.4420   71.5002 H   0  0  0  0  0  0  0  0  0  0  0  0
  -45.0790   56.5096   68.7536 H   0  0  0  0  0  0  0  0  0  0  0  0
  -43.8899   57.8054   68.8910 H   0  0  0  0  0  0  0  0  0  0  0  0
  -45.6034   59.4503   68.4330 H   0  0  0  0  0  0  0  0  0  0  0  0
  -46.8088   58.1950   68.3251 H   0  0  0  0  0  0  0  0  0  0  0  0
  -45.5932   57.1837   66.4538 H   0  0  0  0  0  0  0  0  0  0  0  0
  -44.3757   58.4386   66.5723 H   0  0  0  0  0  0  0  0  0  0  0  0
  -45.9748   58.9289   64.8010 H   0  0  0  0  0  0  0  0  0  0  0  0
  -46.0543   60.1191   66.1082 H   0  0  0  0  0  0  0  0  0  0  0  0
  -48.0419   59.0556   66.9846 H   0  0  0  0  0  0  0  0  0  0  0  0
  -47.9820   57.8397   65.7538 H   0  0  0  0  0  0  0  0  0  0  0  0
  -48.1435   59.5908   64.0234 H   0  0  0  0  0  0  0  0  0  0  0  0
  -48.2063   60.8071   65.2994 H   0  0  0  0  0  0  0  0  0  0  0  0
  -50.5449   59.8440   64.2824 H   0  0  0  0  0  0  0  0  0  0  0  0
  -51.6008   59.2711   66.4959 H   0  0  0  0  0  0  0  0  0  0  0  0
  -49.0199   59.5391   67.7778 H   0  0  0  0  0  0  0  0  0  0  0  0
  -49.1431   57.8991   67.1610 H   0  0  0  0  0  0  0  0  0  0  0  0
  -51.1875   57.5595   68.4366 H   0  0  0  0  0  0  0  0  0  0  0  0
  -51.0872   59.2019   69.0418 H   0  0  0  0  0  0  0  0  0  0  0  0
  -50.2240   57.6034   70.6822 H   0  0  0  0  0  0  0  0  0  0  0  0
  -48.9603   58.6892   70.1032 H   0  0  0  0  0  0  0  0  0  0  0  0
  -48.1522   56.3938   70.2588 H   0  0  0  0  0  0  0  0  0  0  0  0
  -48.1639   56.9820   68.5948 H   0  0  0  0  0  0  0  0  0  0  0  0
  -50.2242   55.7902   68.1684 H   0  0  0  0  0  0  0  0  0  0  0  0
  -50.2191   55.2106   69.8437 H   0  0  0  0  0  0  0  0  0  0  0  0
  -48.1810   54.5290   67.7560 H   0  0  0  0  0  0  0  0  0  0  0  0
  -49.4451   53.4724   68.3379 H   0  0  0  0  0  0  0  0  0  0  0  0
  -48.1692   53.9846   69.4163 H   0  0  0  0  0  0  0  0  0  0  0  0
  1  2  2  0  0  0  0
  1  3  1  0  0  0  0
  1  4  1  0  0  0  0
  3  5  1  0  0  0  0
  3 19  1  0  0  0  0
  3 20  1  0  0  0  0
  4 21  1  0  0  0  0
  5  6  1  0  0  0  0
  5 22  1  0  0  0  0
  5 23  1  0  0  0  0
  6  7  1  0  0  0  0
  6 24  1  0  0  0  0
  6 25  1  0  0  0  0
  7  8  1  0  0  0  0
  7 26  1  0  0  0  0
  7 27  1  0  0  0  0
  8  9  1  0  0  0  0
  8 28  1  0  0  0  0
  8 29  1  0  0  0  0
  9 10  1  0  0  0  0
  9 30  1  0  0  0  0
  9 31  1  0  0  0  0
 10 11  1  0  0  0  0
 10 32  1  0  0  0  0
 10 33  1  0  0  0  0
 11 12  2  0  0  0  0
 11 34  1  0  0  0  0
 12 13  1  0  0  0  0
 12 35  1  0  0  0  0
 13 14  1  0  0  0  0
 13 36  1  0  0  0  0
 13 37  1  0  0  0  0
 14 15  1  0  0  0  0
 14 38  1  0  0  0  0
 14 39  1  0  0  0  0
 15 16  1  0  0  0  0
 15 40  1  0  0  0  0
 15 41  1  0  0  0  0
 16 17  1  0  0  0  0
 16 42  1  0  0  0  0
 16 43  1  0  0  0  0
 17 18  1  0  0  0  0
 17 44  1  0  0  0  0
 17 45  1  0  0  0  0
 18 46  1  0  0  0  0
 18 47  1  0  0  0  0
 18 48  1  0  0  0  0
M  END
$$$$