/media/chris/experiments/cd1a-new-docking/inputs/ligands/4x6d_2_ligand.pdb
 OpenBabel07012320263D

 48 47  0  0  0  0  0  0  0  0999 V2000
  -46.5547   55.6911   68.8906 C   0  0  0  0  0  0  0  0  0  0  0  0
  -46.9372   54.5241   68.6769 O   0  0  0  0  0  0  0  0  0  0  0  0
  -45.1054   56.0595   68.6928 C   0  0  0  0  0  0  0  0  0  0  0  0
  -47.3930   56.5390   69.2637 O   0  0  0  0  0  0  0  0  0  0  0  0
  -44.9128   57.5277   69.0378 C   0  0  0  0  0  0  0  0  0  0  0  0
  -45.7757   58.4272   68.1713 C   0  0  0  0  0  0  0  0  0  0  0  0
  -45.4106   58.2057   66.7127 C   0  0  0  0  0  0  0  0  0  0  0  0
  -46.2472   59.1068   65.8203 C   0  0  0  0  0  0  0  0  0  0  0  0
  -47.7410   58.8580   65.9770 C   0  0  0  0  0  0  0  0  0  0  0  0
  -48.4570   59.8040   65.0240 C   0  0  0  0  0  0  0  0  0  0  0  0
  -49.9570   59.6540   65.1090 C   0  0  0  0  0  0  0  0  0  0  0  0
  -50.8212   60.8150   64.8434 C   0  0  0  0  0  0  0  0  0  0  0  0
  -50.1916   62.1787   64.7081 C   0  0  0  0  0  0  0  0  0  0  0  0
  -50.4793   62.7722   63.3334 C   0  0  0  0  0  0  0  0  0  0  0  0
  -49.9298   61.8601   62.2368 C   0  0  0  0  0  0  0  0  0  0  0  0
  -50.1853   62.4330   60.8436 C   0  0  0  0  0  0  0  0  0  0  0  0
  -49.5116   63.7945   60.6543 C   0  0  0  0  0  0  0  0  0  0  0  0
  -47.9941   63.7332   60.8080 C   0  0  0  0  0  0  0  0  0  0  0  0
  -44.8293   55.8922   67.6727 H   0  0  0  0  0  0  0  0  0  0  0  0
  -44.4906   55.4567   69.3281 H   0  0  0  0  0  0  0  0  0  0  0  0
  -47.1249   57.4214   69.4294 H   0  0  0  0  0  0  0  0  0  0  0  0
  -43.8851   57.7865   68.8902 H   0  0  0  0  0  0  0  0  0  0  0  0
  -45.2021   57.6708   70.0580 H   0  0  0  0  0  0  0  0  0  0  0  0
  -45.6034   59.4503   68.4330 H   0  0  0  0  0  0  0  0  0  0  0  0
  -46.8088   58.1950   68.3251 H   0  0  0  0  0  0  0  0  0  0  0  0
  -45.5932   57.1837   66.4538 H   0  0  0  0  0  0  0  0  0  0  0  0
  -44.3757   58.4386   66.5723 H   0  0  0  0  0  0  0  0  0  0  0  0
  -45.9748   58.9289   64.8010 H   0  0  0  0  0  0  0  0  0  0  0  0
  -46.0543   60.1191   66.1082 H   0  0  0  0  0  0  0  0  0  0  0  0
  -48.0419   59.0556   66.9846 H   0  0  0  0  0  0  0  0  0  0  0  0
  -47.9820   57.8397   65.7538 H   0  0  0  0  0  0  0  0  0  0  0  0
  -48.1435   59.5908   64.0234 H   0  0  0  0  0  0  0  0  0  0  0  0
  -48.2063   60.8071   65.2994 H   0  0  0  0  0  0  0  0  0  0  0  0
  -50.3741   58.7419   65.3521 H   0  0  0  0  0  0  0  0  0  0  0  0
  -51.8424   60.6979   64.7512 H   0  0  0  0  0  0  0  0  0  0  0  0
  -49.1332   62.0913   64.8382 H   0  0  0  0  0  0  0  0  0  0  0  0
  -50.6058   62.8240   65.4544 H   0  0  0  0  0  0  0  0  0  0  0  0
  -50.0144   63.7330   63.2592 H   0  0  0  0  0  0  0  0  0  0  0  0
  -51.5379   62.8669   63.2095 H   0  0  0  0  0  0  0  0  0  0  0  0
  -50.4046   60.9040   62.3109 H   0  0  0  0  0  0  0  0  0  0  0  0
  -48.8720   61.7747   62.3733 H   0  0  0  0  0  0  0  0  0  0  0  0
  -51.2401   62.5466   60.7043 H   0  0  0  0  0  0  0  0  0  0  0  0
  -49.7722   61.7558   60.1255 H   0  0  0  0  0  0  0  0  0  0  0  0
  -49.9015   64.4728   61.3842 H   0  0  0  0  0  0  0  0  0  0  0  0
  -49.7202   64.1199   59.6565 H   0  0  0  0  0  0  0  0  0  0  0  0
  -47.7487   63.4101   61.7980 H   0  0  0  0  0  0  0  0  0  0  0  0
  -47.5788   64.7043   60.6365 H   0  0  0  0  0  0  0  0  0  0  0  0
  -47.5913   63.0424   60.0971 H   0  0  0  0  0  0  0  0  0  0  0  0
  1  2  2  0  0  0  0
  1  3  1  0  0  0  0
  1  4  1  0  0  0  0
  3  5  1  0  0  0  0
  3 19  1  0  0  0  0
  3 20  1  0  0  0  0
  4 21  1  0  0  0  0
  5  6  1  0  0  0  0
  5 22  1  0  0  0  0
  5 23  1  0  0  0  0
  6  7  1  0  0  0  0
  6 24  1  0  0  0  0
  6 25  1  0  0  0  0
  7  8  1  0  0  0  0
  7 26  1  0  0  0  0
  7 27  1  0  0  0  0
  8  9  1  0  0  0  0
  8 28  1  0  0  0  0
  8 29  1  0  0  0  0
  9 10  1  0  0  0  0
  9 30  1  0  0  0  0
  9 31  1  0  0  0  0
 10 11  1  0  0  0  0
 10 32  1  0  0  0  0
 10 33  1  0  0  0  0
 11 12  2  0  0  0  0
 11 34  1  0  0  0  0
 12 13  1  0  0  0  0
 12 35  1  0  0  0  0
 13 14  1  0  0  0  0
 13 36  1  0  0  0  0
 13 37  1  0  0  0  0
 14 15  1  0  0  0  0
 14 38  1  0  0  0  0
 14 39  1  0  0  0  0
 15 16  1  0  0  0  0
 15 40  1  0  0  0  0
 15 41  1  0  0  0  0
 16 17  1  0  0  0  0
 16 42  1  0  0  0  0
 16 43  1  0  0  0  0
 17 18  1  0  0  0  0
 17 44  1  0  0  0  0
 17 45  1  0  0  0  0
 18 46  1  0  0  0  0
 18 47  1  0  0  0  0
 18 48  1  0  0  0  0
M  END
$$$$