/media/chris/experiments/cd1a-new-docking/inputs/ligands/4x6d_2_ligand.pdb
 OpenBabel07012320263D

 48 47  0  0  0  0  0  0  0  0999 V2000
  -43.1900   55.7441   65.8943 C   0  0  0  0  0  0  0  0  0  0  0  0
  -42.8070   54.6312   65.4839 O   0  0  0  0  0  0  0  0  0  0  0  0
  -43.8361   56.7194   64.9420 C   0  0  0  0  0  0  0  0  0  0  0  0
  -43.0315   56.0263   67.1010 O   0  0  0  0  0  0  0  0  0  0  0  0
  -45.3394   56.4914   64.9389 C   0  0  0  0  0  0  0  0  0  0  0  0
  -46.0494   57.4338   63.9837 C   0  0  0  0  0  0  0  0  0  0  0  0
  -45.7632   58.8672   64.4003 C   0  0  0  0  0  0  0  0  0  0  0  0
  -46.2472   59.1068   65.8203 C   0  0  0  0  0  0  0  0  0  0  0  0
  -47.7410   58.8580   65.9770 C   0  0  0  0  0  0  0  0  0  0  0  0
  -48.4570   59.8040   65.0240 C   0  0  0  0  0  0  0  0  0  0  0  0
  -49.9570   59.6540   65.1090 C   0  0  0  0  0  0  0  0  0  0  0  0
  -50.7835   60.8081   65.4966 C   0  0  0  0  0  0  0  0  0  0  0  0
  -50.1051   62.0523   66.0125 C   0  0  0  0  0  0  0  0  0  0  0  0
  -49.2848   61.7422   67.2599 C   0  0  0  0  0  0  0  0  0  0  0  0
  -48.6162   63.0129   67.7839 C   0  0  0  0  0  0  0  0  0  0  0  0
  -47.7702   62.7360   69.0259 C   0  0  0  0  0  0  0  0  0  0  0  0
  -47.1128   64.0095   69.5639 C   0  0  0  0  0  0  0  0  0  0  0  0
  -46.2475   63.7568   70.7957 C   0  0  0  0  0  0  0  0  0  0  0  0
  -43.4488   56.5674   63.9562 H   0  0  0  0  0  0  0  0  0  0  0  0
  -43.6244   57.7209   65.2536 H   0  0  0  0  0  0  0  0  0  0  0  0
  -43.3129   56.8578   67.4286 H   0  0  0  0  0  0  0  0  0  0  0  0
  -45.7162   56.6513   65.9275 H   0  0  0  0  0  0  0  0  0  0  0  0
  -45.5234   55.4883   64.6153 H   0  0  0  0  0  0  0  0  0  0  0  0
  -47.1035   57.2534   64.0189 H   0  0  0  0  0  0  0  0  0  0  0  0
  -45.6986   57.2699   62.9862 H   0  0  0  0  0  0  0  0  0  0  0  0
  -46.2699   59.5361   63.7365 H   0  0  0  0  0  0  0  0  0  0  0  0
  -44.7081   59.0396   64.3570 H   0  0  0  0  0  0  0  0  0  0  0  0
  -46.0386   60.1217   66.0873 H   0  0  0  0  0  0  0  0  0  0  0  0
  -45.7343   58.4185   66.4591 H   0  0  0  0  0  0  0  0  0  0  0  0
  -48.0419   59.0556   66.9846 H   0  0  0  0  0  0  0  0  0  0  0  0
  -47.9820   57.8397   65.7538 H   0  0  0  0  0  0  0  0  0  0  0  0
  -48.1435   59.5908   64.0234 H   0  0  0  0  0  0  0  0  0  0  0  0
  -48.2063   60.8071   65.2994 H   0  0  0  0  0  0  0  0  0  0  0  0
  -50.4004   58.7467   64.8964 H   0  0  0  0  0  0  0  0  0  0  0  0
  -51.8116   60.7668   65.4166 H   0  0  0  0  0  0  0  0  0  0  0  0
  -50.8484   62.7831   66.2539 H   0  0  0  0  0  0  0  0  0  0  0  0
  -49.4492   62.4257   65.2540 H   0  0  0  0  0  0  0  0  0  0  0  0
  -48.5321   61.0215   67.0173 H   0  0  0  0  0  0  0  0  0  0  0  0
  -49.9343   61.3532   68.0160 H   0  0  0  0  0  0  0  0  0  0  0  0
  -49.3741   63.7261   68.0327 H   0  0  0  0  0  0  0  0  0  0  0  0
  -47.9708   63.3900   67.0183 H   0  0  0  0  0  0  0  0  0  0  0  0
  -47.0052   62.0319   68.7734 H   0  0  0  0  0  0  0  0  0  0  0  0
  -48.4150   62.3487   69.7868 H   0  0  0  0  0  0  0  0  0  0  0  0
  -47.8816   64.7068   69.8240 H   0  0  0  0  0  0  0  0  0  0  0  0
  -46.4734   64.3901   68.7950 H   0  0  0  0  0  0  0  0  0  0  0  0
  -46.8571   63.3742   71.5874 H   0  0  0  0  0  0  0  0  0  0  0  0
  -45.7932   64.6743   71.1068 H   0  0  0  0  0  0  0  0  0  0  0  0
  -45.4855   63.0448   70.5563 H   0  0  0  0  0  0  0  0  0  0  0  0
  1  2  2  0  0  0  0
  1  3  1  0  0  0  0
  1  4  1  0  0  0  0
  3  5  1  0  0  0  0
  3 19  1  0  0  0  0
  3 20  1  0  0  0  0
  4 21  1  0  0  0  0
  5  6  1  0  0  0  0
  5 22  1  0  0  0  0
  5 23  1  0  0  0  0
  6  7  1  0  0  0  0
  6 24  1  0  0  0  0
  6 25  1  0  0  0  0
  7  8  1  0  0  0  0
  7 26  1  0  0  0  0
  7 27  1  0  0  0  0
  8  9  1  0  0  0  0
  8 28  1  0  0  0  0
  8 29  1  0  0  0  0
  9 10  1  0  0  0  0
  9 30  1  0  0  0  0
  9 31  1  0  0  0  0
 10 11  1  0  0  0  0
 10 32  1  0  0  0  0
 10 33  1  0  0  0  0
 11 12  2  0  0  0  0
 11 34  1  0  0  0  0
 12 13  1  0  0  0  0
 12 35  1  0  0  0  0
 13 14  1  0  0  0  0
 13 36  1  0  0  0  0
 13 37  1  0  0  0  0
 14 15  1  0  0  0  0
 14 38  1  0  0  0  0
 14 39  1  0  0  0  0
 15 16  1  0  0  0  0
 15 40  1  0  0  0  0
 15 41  1  0  0  0  0
 16 17  1  0  0  0  0
 16 42  1  0  0  0  0
 16 43  1  0  0  0  0
 17 18  1  0  0  0  0
 17 44  1  0  0  0  0
 17 45  1  0  0  0  0
 18 46  1  0  0  0  0
 18 47  1  0  0  0  0
 18 48  1  0  0  0  0
M  END
$$$$