/media/chris/experiments/cd1a-new-docking/inputs/ligands/4x6d_2_ligand.pdb
 OpenBabel07012320263D

 48 47  0  0  0  0  0  0  0  0999 V2000
  -46.1256   64.6588   67.3950 C   0  0  0  0  0  0  0  0  0  0  0  0
  -45.7500   64.9264   68.5531 O   0  0  0  0  0  0  0  0  0  0  0  0
  -46.5656   63.2583   67.0479 C   0  0  0  0  0  0  0  0  0  0  0  0
  -46.1328   65.5700   66.5404 O   0  0  0  0  0  0  0  0  0  0  0  0
  -45.8196   62.2687   67.9288 C   0  0  0  0  0  0  0  0  0  0  0  0
  -46.2061   60.8344   67.6161 C   0  0  0  0  0  0  0  0  0  0  0  0
  -45.8552   60.5327   66.1684 C   0  0  0  0  0  0  0  0  0  0  0  0
  -46.2472   59.1068   65.8203 C   0  0  0  0  0  0  0  0  0  0  0  0
  -47.7410   58.8580   65.9770 C   0  0  0  0  0  0  0  0  0  0  0  0
  -48.4570   59.8040   65.0240 C   0  0  0  0  0  0  0  0  0  0  0  0
  -49.9570   59.6540   65.1090 C   0  0  0  0  0  0  0  0  0  0  0  0
  -50.5393   58.3522   65.4718 C   0  0  0  0  0  0  0  0  0  0  0  0
  -49.6411   57.1425   65.5365 C   0  0  0  0  0  0  0  0  0  0  0  0
  -50.4381   55.8977   65.9107 C   0  0  0  0  0  0  0  0  0  0  0  0
  -49.5153   54.6817   65.9905 C   0  0  0  0  0  0  0  0  0  0  0  0
  -48.8068   54.4212   64.6620 C   0  0  0  0  0  0  0  0  0  0  0  0
  -49.8006   54.1739   63.5242 C   0  0  0  0  0  0  0  0  0  0  0  0
  -50.7145   52.9789   63.7826 C   0  0  0  0  0  0  0  0  0  0  0  0
  -46.3466   63.0585   66.0198 H   0  0  0  0  0  0  0  0  0  0  0  0
  -47.6189   63.1613   67.2095 H   0  0  0  0  0  0  0  0  0  0  0  0
  -46.4118   65.3886   65.6645 H   0  0  0  0  0  0  0  0  0  0  0  0
  -46.0501   62.4743   68.9532 H   0  0  0  0  0  0  0  0  0  0  0  0
  -44.7720   62.3798   67.7412 H   0  0  0  0  0  0  0  0  0  0  0  0
  -47.2579   60.7056   67.7648 H   0  0  0  0  0  0  0  0  0  0  0  0
  -45.6762   60.1674   68.2635 H   0  0  0  0  0  0  0  0  0  0  0  0
  -44.8015   60.6542   66.0274 H   0  0  0  0  0  0  0  0  0  0  0  0
  -46.3888   61.2071   65.5317 H   0  0  0  0  0  0  0  0  0  0  0  0
  -45.7183   58.4380   66.4668 H   0  0  0  0  0  0  0  0  0  0  0  0
  -45.9962   58.9421   64.7933 H   0  0  0  0  0  0  0  0  0  0  0  0
  -48.0419   59.0556   66.9846 H   0  0  0  0  0  0  0  0  0  0  0  0
  -47.9820   57.8397   65.7538 H   0  0  0  0  0  0  0  0  0  0  0  0
  -48.1435   59.5908   64.0234 H   0  0  0  0  0  0  0  0  0  0  0  0
  -48.2063   60.8071   65.2994 H   0  0  0  0  0  0  0  0  0  0  0  0
  -50.5707   60.4603   64.9136 H   0  0  0  0  0  0  0  0  0  0  0  0
  -51.5469   58.2683   65.6788 H   0  0  0  0  0  0  0  0  0  0  0  0
  -48.8821   57.3078   66.2724 H   0  0  0  0  0  0  0  0  0  0  0  0
  -49.1989   56.9910   64.5740 H   0  0  0  0  0  0  0  0  0  0  0  0
  -51.1890   55.7230   65.1688 H   0  0  0  0  0  0  0  0  0  0  0  0
  -50.8954   56.0510   66.8658 H   0  0  0  0  0  0  0  0  0  0  0  0
  -50.0971   53.8213   66.2476 H   0  0  0  0  0  0  0  0  0  0  0  0
  -48.7701   54.8770   66.7330 H   0  0  0  0  0  0  0  0  0  0  0  0
  -48.1801   53.5603   64.7672 H   0  0  0  0  0  0  0  0  0  0  0  0
  -48.2314   55.2894   64.4171 H   0  0  0  0  0  0  0  0  0  0  0  0
  -49.2509   53.9949   62.6238 H   0  0  0  0  0  0  0  0  0  0  0  0
  -50.4214   55.0418   63.4461 H   0  0  0  0  0  0  0  0  0  0  0  0
  -50.1245   52.0902   63.8666 H   0  0  0  0  0  0  0  0  0  0  0  0
  -51.4032   52.8744   62.9704 H   0  0  0  0  0  0  0  0  0  0  0  0
  -51.2565   53.1345   64.6920 H   0  0  0  0  0  0  0  0  0  0  0  0
  1  2  2  0  0  0  0
  1  3  1  0  0  0  0
  1  4  1  0  0  0  0
  3  5  1  0  0  0  0
  3 19  1  0  0  0  0
  3 20  1  0  0  0  0
  4 21  1  0  0  0  0
  5  6  1  0  0  0  0
  5 22  1  0  0  0  0
  5 23  1  0  0  0  0
  6  7  1  0  0  0  0
  6 24  1  0  0  0  0
  6 25  1  0  0  0  0
  7  8  1  0  0  0  0
  7 26  1  0  0  0  0
  7 27  1  0  0  0  0
  8  9  1  0  0  0  0
  8 28  1  0  0  0  0
  8 29  1  0  0  0  0
  9 10  1  0  0  0  0
  9 30  1  0  0  0  0
  9 31  1  0  0  0  0
 10 11  1  0  0  0  0
 10 32  1  0  0  0  0
 10 33  1  0  0  0  0
 11 12  2  0  0  0  0
 11 34  1  0  0  0  0
 12 13  1  0  0  0  0
 12 35  1  0  0  0  0
 13 14  1  0  0  0  0
 13 36  1  0  0  0  0
 13 37  1  0  0  0  0
 14 15  1  0  0  0  0
 14 38  1  0  0  0  0
 14 39  1  0  0  0  0
 15 16  1  0  0  0  0
 15 40  1  0  0  0  0
 15 41  1  0  0  0  0
 16 17  1  0  0  0  0
 16 42  1  0  0  0  0
 16 43  1  0  0  0  0
 17 18  1  0  0  0  0
 17 44  1  0  0  0  0
 17 45  1  0  0  0  0
 18 46  1  0  0  0  0
 18 47  1  0  0  0  0
 18 48  1  0  0  0  0
M  END
$$$$