/media/chris/experiments/cd1a-new-docking/inputs/ligands/4x6d_2_ligand.pdb
 OpenBabel07012320263D

 48 47  0  0  0  0  0  0  0  0999 V2000
  -45.2110   53.8729   65.5166 C   0  0  0  0  0  0  0  0  0  0  0  0
  -45.4500   52.8056   64.9187 O   0  0  0  0  0  0  0  0  0  0  0  0
  -45.7207   54.0831   66.9207 C   0  0  0  0  0  0  0  0  0  0  0  0
  -44.5424   54.7519   64.9323 O   0  0  0  0  0  0  0  0  0  0  0  0
  -47.2371   53.9721   66.9222 C   0  0  0  0  0  0  0  0  0  0  0  0
  -47.8772   54.9973   66.0036 C   0  0  0  0  0  0  0  0  0  0  0  0
  -47.4788   56.3899   66.4640 C   0  0  0  0  0  0  0  0  0  0  0  0
  -48.1197   57.4400   65.5725 C   0  0  0  0  0  0  0  0  0  0  0  0
  -47.7410   58.8580   65.9770 C   0  0  0  0  0  0  0  0  0  0  0  0
  -48.4570   59.8040   65.0240 C   0  0  0  0  0  0  0  0  0  0  0  0
  -49.9570   59.6540   65.1090 C   0  0  0  0  0  0  0  0  0  0  0  0
  -50.5764   59.2356   66.3765 C   0  0  0  0  0  0  0  0  0  0  0  0
  -49.6910   58.7540   67.4984 C   0  0  0  0  0  0  0  0  0  0  0  0
  -50.5250   58.3539   68.7105 C   0  0  0  0  0  0  0  0  0  0  0  0
  -49.6170   57.8842   69.8469 C   0  0  0  0  0  0  0  0  0  0  0  0
  -48.6586   58.9857   70.2973 C   0  0  0  0  0  0  0  0  0  0  0  0
  -49.4070   60.2150   70.8190 C   0  0  0  0  0  0  0  0  0  0  0  0
  -50.2857   59.9068   72.0284 C   0  0  0  0  0  0  0  0  0  0  0  0
  -45.4324   55.0544   67.2647 H   0  0  0  0  0  0  0  0  0  0  0  0
  -45.3047   53.3412   67.5697 H   0  0  0  0  0  0  0  0  0  0  0  0
  -44.3523   55.5609   65.3651 H   0  0  0  0  0  0  0  0  0  0  0  0
  -47.5950   54.1281   67.9184 H   0  0  0  0  0  0  0  0  0  0  0  0
  -47.5000   52.9973   66.5679 H   0  0  0  0  0  0  0  0  0  0  0  0
  -48.9419   54.8978   66.0414 H   0  0  0  0  0  0  0  0  0  0  0  0
  -47.5457   54.8397   64.9986 H   0  0  0  0  0  0  0  0  0  0  0  0
  -46.4143   56.4871   66.4157 H   0  0  0  0  0  0  0  0  0  0  0  0
  -47.8132   56.5343   67.4701 H   0  0  0  0  0  0  0  0  0  0  0  0
  -49.1831   57.3384   65.6327 H   0  0  0  0  0  0  0  0  0  0  0  0
  -47.7650   57.2806   64.5757 H   0  0  0  0  0  0  0  0  0  0  0  0
  -46.6822   58.9911   65.8990 H   0  0  0  0  0  0  0  0  0  0  0  0
  -48.0249   59.0527   66.9901 H   0  0  0  0  0  0  0  0  0  0  0  0
  -48.1435   59.5908   64.0234 H   0  0  0  0  0  0  0  0  0  0  0  0
  -48.2063   60.8071   65.2994 H   0  0  0  0  0  0  0  0  0  0  0  0
  -50.5449   59.8440   64.2824 H   0  0  0  0  0  0  0  0  0  0  0  0
  -51.6008   59.2711   66.4959 H   0  0  0  0  0  0  0  0  0  0  0  0
  -49.0199   59.5391   67.7778 H   0  0  0  0  0  0  0  0  0  0  0  0
  -49.1431   57.8991   67.1610 H   0  0  0  0  0  0  0  0  0  0  0  0
  -51.1875   57.5595   68.4366 H   0  0  0  0  0  0  0  0  0  0  0  0
  -51.0872   59.2019   69.0418 H   0  0  0  0  0  0  0  0  0  0  0  0
  -49.0461   57.0443   69.5099 H   0  0  0  0  0  0  0  0  0  0  0  0
  -50.2349   57.6191   70.6793 H   0  0  0  0  0  0  0  0  0  0  0  0
  -48.0515   59.2773   69.4658 H   0  0  0  0  0  0  0  0  0  0  0  0
  -48.0598   58.5986   71.0951 H   0  0  0  0  0  0  0  0  0  0  0  0
  -50.0272   60.5954   70.0344 H   0  0  0  0  0  0  0  0  0  0  0  0
  -48.6735   60.9297   71.1289 H   0  0  0  0  0  0  0  0  0  0  0  0
  -51.0334   59.1925   71.7534 H   0  0  0  0  0  0  0  0  0  0  0  0
  -50.7581   60.8062   72.3645 H   0  0  0  0  0  0  0  0  0  0  0  0
  -49.6817   59.5058   72.8153 H   0  0  0  0  0  0  0  0  0  0  0  0
  1  2  2  0  0  0  0
  1  3  1  0  0  0  0
  1  4  1  0  0  0  0
  3  5  1  0  0  0  0
  3 19  1  0  0  0  0
  3 20  1  0  0  0  0
  4 21  1  0  0  0  0
  5  6  1  0  0  0  0
  5 22  1  0  0  0  0
  5 23  1  0  0  0  0
  6  7  1  0  0  0  0
  6 24  1  0  0  0  0
  6 25  1  0  0  0  0
  7  8  1  0  0  0  0
  7 26  1  0  0  0  0
  7 27  1  0  0  0  0
  8  9  1  0  0  0  0
  8 28  1  0  0  0  0
  8 29  1  0  0  0  0
  9 10  1  0  0  0  0
  9 30  1  0  0  0  0
  9 31  1  0  0  0  0
 10 11  1  0  0  0  0
 10 32  1  0  0  0  0
 10 33  1  0  0  0  0
 11 12  2  0  0  0  0
 11 34  1  0  0  0  0
 12 13  1  0  0  0  0
 12 35  1  0  0  0  0
 13 14  1  0  0  0  0
 13 36  1  0  0  0  0
 13 37  1  0  0  0  0
 14 15  1  0  0  0  0
 14 38  1  0  0  0  0
 14 39  1  0  0  0  0
 15 16  1  0  0  0  0
 15 40  1  0  0  0  0
 15 41  1  0  0  0  0
 16 17  1  0  0  0  0
 16 42  1  0  0  0  0
 16 43  1  0  0  0  0
 17 18  1  0  0  0  0
 17 44  1  0  0  0  0
 17 45  1  0  0  0  0
 18 46  1  0  0  0  0
 18 47  1  0  0  0  0
 18 48  1  0  0  0  0
M  END
$$$$