/media/chris/experiments/cd1a-new-docking/inputs/ligands/4x6d_2_ligand.pdb
 OpenBabel07012320263D

 48 47  0  0  0  0  0  0  0  0999 V2000
  -44.4069   62.9337   64.0440 C   0  0  0  0  0  0  0  0  0  0  0  0
  -44.1177   61.7887   63.6452 O   0  0  0  0  0  0  0  0  0  0  0  0
  -44.7438   63.1657   65.4959 C   0  0  0  0  0  0  0  0  0  0  0  0
  -44.4061   63.8741   63.2214 O   0  0  0  0  0  0  0  0  0  0  0  0
  -43.9963   62.1531   66.3490 C   0  0  0  0  0  0  0  0  0  0  0  0
  -44.3599   60.7269   65.9774 C   0  0  0  0  0  0  0  0  0  0  0  0
  -45.8552   60.5327   66.1684 C   0  0  0  0  0  0  0  0  0  0  0  0
  -46.2472   59.1068   65.8203 C   0  0  0  0  0  0  0  0  0  0  0  0
  -47.7410   58.8580   65.9770 C   0  0  0  0  0  0  0  0  0  0  0  0
  -48.4570   59.8040   65.0240 C   0  0  0  0  0  0  0  0  0  0  0  0
  -49.9570   59.6540   65.1090 C   0  0  0  0  0  0  0  0  0  0  0  0
  -50.7833   59.9126   63.9192 C   0  0  0  0  0  0  0  0  0  0  0  0
  -50.1406   60.5325   62.7039 C   0  0  0  0  0  0  0  0  0  0  0  0
  -51.1480   61.3781   61.9325 C   0  0  0  0  0  0  0  0  0  0  0  0
  -51.6738   62.5111   62.8135 C   0  0  0  0  0  0  0  0  0  0  0  0
  -52.3539   61.9785   64.0739 C   0  0  0  0  0  0  0  0  0  0  0  0
  -52.8971   63.1099   64.9504 C   0  0  0  0  0  0  0  0  0  0  0  0
  -53.5669   62.6044   66.2256 C   0  0  0  0  0  0  0  0  0  0  0  0
  -45.7973   63.0490   65.6422 H   0  0  0  0  0  0  0  0  0  0  0  0
  -44.4561   64.1568   65.7784 H   0  0  0  0  0  0  0  0  0  0  0  0
  -44.6208   64.7420   63.5019 H   0  0  0  0  0  0  0  0  0  0  0  0
  -44.2428   62.3170   67.3772 H   0  0  0  0  0  0  0  0  0  0  0  0
  -42.9479   62.2844   66.1798 H   0  0  0  0  0  0  0  0  0  0  0  0
  -43.8263   60.0451   66.6061 H   0  0  0  0  0  0  0  0  0  0  0  0
  -44.0983   60.5409   64.9567 H   0  0  0  0  0  0  0  0  0  0  0  0
  -46.3840   61.2104   65.5311 H   0  0  0  0  0  0  0  0  0  0  0  0
  -46.1045   60.7238   67.1913 H   0  0  0  0  0  0  0  0  0  0  0  0
  -45.7183   58.4380   66.4668 H   0  0  0  0  0  0  0  0  0  0  0  0
  -45.9962   58.9421   64.7933 H   0  0  0  0  0  0  0  0  0  0  0  0
  -48.0419   59.0556   66.9846 H   0  0  0  0  0  0  0  0  0  0  0  0
  -47.9820   57.8397   65.7538 H   0  0  0  0  0  0  0  0  0  0  0  0
  -48.1435   59.5908   64.0234 H   0  0  0  0  0  0  0  0  0  0  0  0
  -48.2063   60.8071   65.2994 H   0  0  0  0  0  0  0  0  0  0  0  0
  -50.4005   59.3715   65.9970 H   0  0  0  0  0  0  0  0  0  0  0  0
  -51.7872   59.6735   63.9164 H   0  0  0  0  0  0  0  0  0  0  0  0
  -49.7731   59.7557   62.0664 H   0  0  0  0  0  0  0  0  0  0  0  0
  -49.3368   61.1622   63.0238 H   0  0  0  0  0  0  0  0  0  0  0  0
  -51.9661   60.7604   61.6260 H   0  0  0  0  0  0  0  0  0  0  0  0
  -50.6654   61.7989   61.0752 H   0  0  0  0  0  0  0  0  0  0  0  0
  -52.3821   63.0854   62.2537 H   0  0  0  0  0  0  0  0  0  0  0  0
  -50.8420   63.1139   63.1130 H   0  0  0  0  0  0  0  0  0  0  0  0
  -51.6418   61.4144   64.6392 H   0  0  0  0  0  0  0  0  0  0  0  0
  -53.1786   61.3670   63.7726 H   0  0  0  0  0  0  0  0  0  0  0  0
  -53.6157   63.6652   64.3845 H   0  0  0  0  0  0  0  0  0  0  0  0
  -52.0658   63.7165   65.2433 H   0  0  0  0  0  0  0  0  0  0  0  0
  -54.4059   61.9919   65.9691 H   0  0  0  0  0  0  0  0  0  0  0  0
  -53.8989   63.4380   66.8086 H   0  0  0  0  0  0  0  0  0  0  0  0
  -52.8654   62.0292   66.7930 H   0  0  0  0  0  0  0  0  0  0  0  0
  1  2  2  0  0  0  0
  1  3  1  0  0  0  0
  1  4  1  0  0  0  0
  3  5  1  0  0  0  0
  3 19  1  0  0  0  0
  3 20  1  0  0  0  0
  4 21  1  0  0  0  0
  5  6  1  0  0  0  0
  5 22  1  0  0  0  0
  5 23  1  0  0  0  0
  6  7  1  0  0  0  0
  6 24  1  0  0  0  0
  6 25  1  0  0  0  0
  7  8  1  0  0  0  0
  7 26  1  0  0  0  0
  7 27  1  0  0  0  0
  8  9  1  0  0  0  0
  8 28  1  0  0  0  0
  8 29  1  0  0  0  0
  9 10  1  0  0  0  0
  9 30  1  0  0  0  0
  9 31  1  0  0  0  0
 10 11  1  0  0  0  0
 10 32  1  0  0  0  0
 10 33  1  0  0  0  0
 11 12  2  0  0  0  0
 11 34  1  0  0  0  0
 12 13  1  0  0  0  0
 12 35  1  0  0  0  0
 13 14  1  0  0  0  0
 13 36  1  0  0  0  0
 13 37  1  0  0  0  0
 14 15  1  0  0  0  0
 14 38  1  0  0  0  0
 14 39  1  0  0  0  0
 15 16  1  0  0  0  0
 15 40  1  0  0  0  0
 15 41  1  0  0  0  0
 16 17  1  0  0  0  0
 16 42  1  0  0  0  0
 16 43  1  0  0  0  0
 17 18  1  0  0  0  0
 17 44  1  0  0  0  0
 17 45  1  0  0  0  0
 18 46  1  0  0  0  0
 18 47  1  0  0  0  0
 18 48  1  0  0  0  0
M  END
$$$$