/media/chris/experiments/cd1a-new-docking/inputs/ligands/4x6d_2_ligand.pdb
 OpenBabel07012320263D

 48 47  0  0  0  0  0  0  0  0999 V2000
  -46.1256   64.6588   67.3950 C   0  0  0  0  0  0  0  0  0  0  0  0
  -45.7500   64.9264   68.5531 O   0  0  0  0  0  0  0  0  0  0  0  0
  -46.5656   63.2583   67.0479 C   0  0  0  0  0  0  0  0  0  0  0  0
  -46.1328   65.5700   66.5404 O   0  0  0  0  0  0  0  0  0  0  0  0
  -45.8196   62.2687   67.9288 C   0  0  0  0  0  0  0  0  0  0  0  0
  -46.2061   60.8344   67.6161 C   0  0  0  0  0  0  0  0  0  0  0  0
  -45.8552   60.5327   66.1684 C   0  0  0  0  0  0  0  0  0  0  0  0
  -46.2472   59.1068   65.8203 C   0  0  0  0  0  0  0  0  0  0  0  0
  -47.7410   58.8580   65.9770 C   0  0  0  0  0  0  0  0  0  0  0  0
  -48.4570   59.8040   65.0240 C   0  0  0  0  0  0  0  0  0  0  0  0
  -49.9570   59.6540   65.1090 C   0  0  0  0  0  0  0  0  0  0  0  0
  -50.7186   59.2616   63.9126 C   0  0  0  0  0  0  0  0  0  0  0  0
  -50.0176   59.2310   62.5777 C   0  0  0  0  0  0  0  0  0  0  0  0
  -50.0620   57.8305   61.9765 C   0  0  0  0  0  0  0  0  0  0  0  0
  -49.3339   57.8072   60.6327 C   0  0  0  0  0  0  0  0  0  0  0  0
  -49.9571   58.7820   59.6347 C   0  0  0  0  0  0  0  0  0  0  0  0
  -51.4302   58.4618   59.3683 C   0  0  0  0  0  0  0  0  0  0  0  0
  -52.0720   59.4117   58.3604 C   0  0  0  0  0  0  0  0  0  0  0  0
  -46.3466   63.0585   66.0198 H   0  0  0  0  0  0  0  0  0  0  0  0
  -47.6189   63.1613   67.2095 H   0  0  0  0  0  0  0  0  0  0  0  0
  -46.4118   65.3886   65.6645 H   0  0  0  0  0  0  0  0  0  0  0  0
  -46.0501   62.4743   68.9532 H   0  0  0  0  0  0  0  0  0  0  0  0
  -44.7720   62.3798   67.7412 H   0  0  0  0  0  0  0  0  0  0  0  0
  -47.2579   60.7056   67.7648 H   0  0  0  0  0  0  0  0  0  0  0  0
  -45.6762   60.1674   68.2635 H   0  0  0  0  0  0  0  0  0  0  0  0
  -44.8015   60.6542   66.0274 H   0  0  0  0  0  0  0  0  0  0  0  0
  -46.3888   61.2071   65.5317 H   0  0  0  0  0  0  0  0  0  0  0  0
  -45.7183   58.4380   66.4668 H   0  0  0  0  0  0  0  0  0  0  0  0
  -45.9962   58.9421   64.7933 H   0  0  0  0  0  0  0  0  0  0  0  0
  -48.0419   59.0556   66.9846 H   0  0  0  0  0  0  0  0  0  0  0  0
  -47.9820   57.8397   65.7538 H   0  0  0  0  0  0  0  0  0  0  0  0
  -48.1435   59.5908   64.0234 H   0  0  0  0  0  0  0  0  0  0  0  0
  -48.2063   60.8071   65.2994 H   0  0  0  0  0  0  0  0  0  0  0  0
  -50.4456   59.8258   66.0016 H   0  0  0  0  0  0  0  0  0  0  0  0
  -51.7171   59.0111   63.9859 H   0  0  0  0  0  0  0  0  0  0  0  0
  -48.9970   59.5239   62.7103 H   0  0  0  0  0  0  0  0  0  0  0  0
  -50.5147   59.9062   61.9130 H   0  0  0  0  0  0  0  0  0  0  0  0
  -51.0818   57.5411   61.8306 H   0  0  0  0  0  0  0  0  0  0  0  0
  -49.5800   57.1488   62.6457 H   0  0  0  0  0  0  0  0  0  0  0  0
  -49.3840   56.8178   60.2284 H   0  0  0  0  0  0  0  0  0  0  0  0
  -48.3191   58.1031   60.7984 H   0  0  0  0  0  0  0  0  0  0  0  0
  -49.4182   58.7243   58.7121 H   0  0  0  0  0  0  0  0  0  0  0  0
  -49.9018   59.7654   60.0528 H   0  0  0  0  0  0  0  0  0  0  0  0
  -51.9667   58.5302   60.2914 H   0  0  0  0  0  0  0  0  0  0  0  0
  -51.4745   57.4763   58.9538 H   0  0  0  0  0  0  0  0  0  0  0  0
  -52.0447   60.4102   58.7440 H   0  0  0  0  0  0  0  0  0  0  0  0
  -53.0882   59.1213   58.1937 H   0  0  0  0  0  0  0  0  0  0  0  0
  -51.5329   59.3695   57.4371 H   0  0  0  0  0  0  0  0  0  0  0  0
  1  2  2  0  0  0  0
  1  3  1  0  0  0  0
  1  4  1  0  0  0  0
  3  5  1  0  0  0  0
  3 19  1  0  0  0  0
  3 20  1  0  0  0  0
  4 21  1  0  0  0  0
  5  6  1  0  0  0  0
  5 22  1  0  0  0  0
  5 23  1  0  0  0  0
  6  7  1  0  0  0  0
  6 24  1  0  0  0  0
  6 25  1  0  0  0  0
  7  8  1  0  0  0  0
  7 26  1  0  0  0  0
  7 27  1  0  0  0  0
  8  9  1  0  0  0  0
  8 28  1  0  0  0  0
  8 29  1  0  0  0  0
  9 10  1  0  0  0  0
  9 30  1  0  0  0  0
  9 31  1  0  0  0  0
 10 11  1  0  0  0  0
 10 32  1  0  0  0  0
 10 33  1  0  0  0  0
 11 12  2  0  0  0  0
 11 34  1  0  0  0  0
 12 13  1  0  0  0  0
 12 35  1  0  0  0  0
 13 14  1  0  0  0  0
 13 36  1  0  0  0  0
 13 37  1  0  0  0  0
 14 15  1  0  0  0  0
 14 38  1  0  0  0  0
 14 39  1  0  0  0  0
 15 16  1  0  0  0  0
 15 40  1  0  0  0  0
 15 41  1  0  0  0  0
 16 17  1  0  0  0  0
 16 42  1  0  0  0  0
 16 43  1  0  0  0  0
 17 18  1  0  0  0  0
 17 44  1  0  0  0  0
 17 45  1  0  0  0  0
 18 46  1  0  0  0  0
 18 47  1  0  0  0  0
 18 48  1  0  0  0  0
M  END
$$$$