/media/chris/experiments/cd1a-new-docking/inputs/ligands/4x6d_2_ligand.pdb
 OpenBabel07012320263D

 48 47  0  0  0  0  0  0  0  0999 V2000
  -49.2243   56.0849   70.6728 C   0  0  0  0  0  0  0  0  0  0  0  0
  -49.8742   56.3103   71.7123 O   0  0  0  0  0  0  0  0  0  0  0  0
  -47.7404   56.3534   70.6360 C   0  0  0  0  0  0  0  0  0  0  0  0
  -49.8250   55.6319   69.6753 O   0  0  0  0  0  0  0  0  0  0  0  0
  -47.2059   56.0105   69.2546 C   0  0  0  0  0  0  0  0  0  0  0  0
  -47.8599   56.8518   68.1734 C   0  0  0  0  0  0  0  0  0  0  0  0
  -47.5633   58.3181   68.4417 C   0  0  0  0  0  0  0  0  0  0  0  0
  -48.2208   59.1879   67.3837 C   0  0  0  0  0  0  0  0  0  0  0  0
  -47.7410   58.8580   65.9770 C   0  0  0  0  0  0  0  0  0  0  0  0
  -48.4570   59.8040   65.0240 C   0  0  0  0  0  0  0  0  0  0  0  0
  -49.9570   59.6540   65.1090 C   0  0  0  0  0  0  0  0  0  0  0  0
  -50.5762   58.3511   64.8186 C   0  0  0  0  0  0  0  0  0  0  0  0
  -49.7261   57.2529   64.2305 C   0  0  0  0  0  0  0  0  0  0  0  0
  -49.7573   57.3032   62.7069 C   0  0  0  0  0  0  0  0  0  0  0  0
  -48.9069   56.1758   62.1219 C   0  0  0  0  0  0  0  0  0  0  0  0
  -48.9010   56.2060   60.5943 C   0  0  0  0  0  0  0  0  0  0  0  0
  -48.0644   55.0678   60.0044 C   0  0  0  0  0  0  0  0  0  0  0  0
  -48.0283   55.0858   58.4785 C   0  0  0  0  0  0  0  0  0  0  0  0
  -47.2489   55.7498   71.3702 H   0  0  0  0  0  0  0  0  0  0  0  0
  -47.5559   57.3860   70.8474 H   0  0  0  0  0  0  0  0  0  0  0  0
  -49.3539   55.4560   68.8847 H   0  0  0  0  0  0  0  0  0  0  0  0
  -47.3999   54.9774   69.0545 H   0  0  0  0  0  0  0  0  0  0  0  0
  -46.1553   56.2130   69.2442 H   0  0  0  0  0  0  0  0  0  0  0  0
  -48.9178   56.6917   68.1848 H   0  0  0  0  0  0  0  0  0  0  0  0
  -47.4735   56.5738   67.2152 H   0  0  0  0  0  0  0  0  0  0  0  0
  -46.5050   58.4745   68.4202 H   0  0  0  0  0  0  0  0  0  0  0  0
  -47.9520   58.5831   69.4027 H   0  0  0  0  0  0  0  0  0  0  0  0
  -47.9938   60.2125   67.5922 H   0  0  0  0  0  0  0  0  0  0  0  0
  -49.2742   59.0031   67.4195 H   0  0  0  0  0  0  0  0  0  0  0  0
  -47.9815   57.8436   65.7361 H   0  0  0  0  0  0  0  0  0  0  0  0
  -46.6800   58.9732   65.9008 H   0  0  0  0  0  0  0  0  0  0  0  0
  -48.1435   59.5908   64.0234 H   0  0  0  0  0  0  0  0  0  0  0  0
  -48.2063   60.8071   65.2994 H   0  0  0  0  0  0  0  0  0  0  0  0
  -50.5450   60.4611   65.3695 H   0  0  0  0  0  0  0  0  0  0  0  0
  -51.5768   58.1913   65.0143 H   0  0  0  0  0  0  0  0  0  0  0  0
  -50.1004   56.3056   64.5582 H   0  0  0  0  0  0  0  0  0  0  0  0
  -48.7164   57.3872   64.5582 H   0  0  0  0  0  0  0  0  0  0  0  0
  -49.3707   58.2448   62.3768 H   0  0  0  0  0  0  0  0  0  0  0  0
  -50.7677   57.1855   62.3752 H   0  0  0  0  0  0  0  0  0  0  0  0
  -49.3035   55.2372   62.4486 H   0  0  0  0  0  0  0  0  0  0  0  0
  -47.9008   56.3065   62.4618 H   0  0  0  0  0  0  0  0  0  0  0  0
  -48.4933   57.1400   60.2683 H   0  0  0  0  0  0  0  0  0  0  0  0
  -49.9091   56.0863   60.2563 H   0  0  0  0  0  0  0  0  0  0  0  0
  -48.4814   54.1360   60.3250 H   0  0  0  0  0  0  0  0  0  0  0  0
  -47.0600   55.1949   60.3508 H   0  0  0  0  0  0  0  0  0  0  0  0
  -49.0200   54.9606   58.0968 H   0  0  0  0  0  0  0  0  0  0  0  0
  -47.4075   54.2883   58.1270 H   0  0  0  0  0  0  0  0  0  0  0  0
  -47.6320   56.0211   58.1421 H   0  0  0  0  0  0  0  0  0  0  0  0
  1  2  2  0  0  0  0
  1  3  1  0  0  0  0
  1  4  1  0  0  0  0
  3  5  1  0  0  0  0
  3 19  1  0  0  0  0
  3 20  1  0  0  0  0
  4 21  1  0  0  0  0
  5  6  1  0  0  0  0
  5 22  1  0  0  0  0
  5 23  1  0  0  0  0
  6  7  1  0  0  0  0
  6 24  1  0  0  0  0
  6 25  1  0  0  0  0
  7  8  1  0  0  0  0
  7 26  1  0  0  0  0
  7 27  1  0  0  0  0
  8  9  1  0  0  0  0
  8 28  1  0  0  0  0
  8 29  1  0  0  0  0
  9 10  1  0  0  0  0
  9 30  1  0  0  0  0
  9 31  1  0  0  0  0
 10 11  1  0  0  0  0
 10 32  1  0  0  0  0
 10 33  1  0  0  0  0
 11 12  2  0  0  0  0
 11 34  1  0  0  0  0
 12 13  1  0  0  0  0
 12 35  1  0  0  0  0
 13 14  1  0  0  0  0
 13 36  1  0  0  0  0
 13 37  1  0  0  0  0
 14 15  1  0  0  0  0
 14 38  1  0  0  0  0
 14 39  1  0  0  0  0
 15 16  1  0  0  0  0
 15 40  1  0  0  0  0
 15 41  1  0  0  0  0
 16 17  1  0  0  0  0
 16 42  1  0  0  0  0
 16 43  1  0  0  0  0
 17 18  1  0  0  0  0
 17 44  1  0  0  0  0
 17 45  1  0  0  0  0
 18 46  1  0  0  0  0
 18 47  1  0  0  0  0
 18 48  1  0  0  0  0
M  END
$$$$