/media/chris/experiments/cd1a-new-docking/inputs/ligands/4x6d_2_ligand.pdb
 OpenBabel07012320263D

 48 47  0  0  0  0  0  0  0  0999 V2000
  -45.4677   54.5115   63.3340 C   0  0  0  0  0  0  0  0  0  0  0  0
  -46.1939   54.7681   62.3539 O   0  0  0  0  0  0  0  0  0  0  0  0
  -45.9451   54.8233   64.7305 C   0  0  0  0  0  0  0  0  0  0  0  0
  -44.3497   53.9914   63.1332 O   0  0  0  0  0  0  0  0  0  0  0  0
  -47.4618   54.7256   64.7722 C   0  0  0  0  0  0  0  0  0  0  0  0
  -48.1147   55.6897   63.7983 C   0  0  0  0  0  0  0  0  0  0  0  0
  -47.6965   57.1075   64.1518 C   0  0  0  0  0  0  0  0  0  0  0  0
  -48.1197   57.4400   65.5725 C   0  0  0  0  0  0  0  0  0  0  0  0
  -47.7410   58.8580   65.9770 C   0  0  0  0  0  0  0  0  0  0  0  0
  -48.4570   59.8040   65.0240 C   0  0  0  0  0  0  0  0  0  0  0  0
  -49.9570   59.6540   65.1090 C   0  0  0  0  0  0  0  0  0  0  0  0
  -50.8211   60.4770   64.2480 C   0  0  0  0  0  0  0  0  0  0  0  0
  -50.2050   61.6051   63.4592 C   0  0  0  0  0  0  0  0  0  0  0  0
  -49.1519   61.0754   62.4921 C   0  0  0  0  0  0  0  0  0  0  0  0
  -48.5222   62.2284   61.7108 C   0  0  0  0  0  0  0  0  0  0  0  0
  -47.4724   61.7321   60.7177 C   0  0  0  0  0  0  0  0  0  0  0  0
  -46.8270   62.8856   59.9456 C   0  0  0  0  0  0  0  0  0  0  0  0
  -47.8379   63.7077   59.1504 C   0  0  0  0  0  0  0  0  0  0  0  0
  -45.6425   55.8137   64.9997 H   0  0  0  0  0  0  0  0  0  0  0  0
  -45.5201   54.1248   65.4207 H   0  0  0  0  0  0  0  0  0  0  0  0
  -43.7894   53.7910   63.8570 H   0  0  0  0  0  0  0  0  0  0  0  0
  -47.7967   54.9535   65.7626 H   0  0  0  0  0  0  0  0  0  0  0  0
  -47.7393   53.7307   64.4925 H   0  0  0  0  0  0  0  0  0  0  0  0
  -49.1790   55.6021   63.8657 H   0  0  0  0  0  0  0  0  0  0  0  0
  -47.8064   55.4598   62.7998 H   0  0  0  0  0  0  0  0  0  0  0  0
  -48.1623   57.7927   63.4747 H   0  0  0  0  0  0  0  0  0  0  0  0
  -46.6321   57.1868   64.0766 H   0  0  0  0  0  0  0  0  0  0  0  0
  -47.6440   56.7537   66.2417 H   0  0  0  0  0  0  0  0  0  0  0  0
  -49.1857   57.3618   65.6210 H   0  0  0  0  0  0  0  0  0  0  0  0
  -46.6822   58.9911   65.8990 H   0  0  0  0  0  0  0  0  0  0  0  0
  -48.0249   59.0527   66.9901 H   0  0  0  0  0  0  0  0  0  0  0  0
  -48.1435   59.5908   64.0234 H   0  0  0  0  0  0  0  0  0  0  0  0
  -48.2063   60.8071   65.2994 H   0  0  0  0  0  0  0  0  0  0  0  0
  -50.3741   58.9777   65.7676 H   0  0  0  0  0  0  0  0  0  0  0  0
  -51.8332   60.2852   64.1849 H   0  0  0  0  0  0  0  0  0  0  0  0
  -49.7455   62.2959   64.1348 H   0  0  0  0  0  0  0  0  0  0  0  0
  -50.9745   62.0914   62.8967 H   0  0  0  0  0  0  0  0  0  0  0  0
  -49.6124   60.3946   61.8069 H   0  0  0  0  0  0  0  0  0  0  0  0
  -48.3883   60.5741   63.0491 H   0  0  0  0  0  0  0  0  0  0  0  0
  -48.0563   62.9009   62.4005 H   0  0  0  0  0  0  0  0  0  0  0  0
  -49.2965   62.7197   61.1596 H   0  0  0  0  0  0  0  0  0  0  0  0
  -47.9414   61.0691   60.0210 H   0  0  0  0  0  0  0  0  0  0  0  0
  -46.7044   61.2314   61.2694 H   0  0  0  0  0  0  0  0  0  0  0  0
  -46.1064   62.4807   59.2662 H   0  0  0  0  0  0  0  0  0  0  0  0
  -46.3753   63.5388   60.6627 H   0  0  0  0  0  0  0  0  0  0  0  0
  -48.3105   63.0834   58.4211 H   0  0  0  0  0  0  0  0  0  0  0  0
  -47.3342   64.5130   58.6579 H   0  0  0  0  0  0  0  0  0  0  0  0
  -48.5777   64.1029   59.8148 H   0  0  0  0  0  0  0  0  0  0  0  0
  1  2  2  0  0  0  0
  1  3  1  0  0  0  0
  1  4  1  0  0  0  0
  3  5  1  0  0  0  0
  3 19  1  0  0  0  0
  3 20  1  0  0  0  0
  4 21  1  0  0  0  0
  5  6  1  0  0  0  0
  5 22  1  0  0  0  0
  5 23  1  0  0  0  0
  6  7  1  0  0  0  0
  6 24  1  0  0  0  0
  6 25  1  0  0  0  0
  7  8  1  0  0  0  0
  7 26  1  0  0  0  0
  7 27  1  0  0  0  0
  8  9  1  0  0  0  0
  8 28  1  0  0  0  0
  8 29  1  0  0  0  0
  9 10  1  0  0  0  0
  9 30  1  0  0  0  0
  9 31  1  0  0  0  0
 10 11  1  0  0  0  0
 10 32  1  0  0  0  0
 10 33  1  0  0  0  0
 11 12  2  0  0  0  0
 11 34  1  0  0  0  0
 12 13  1  0  0  0  0
 12 35  1  0  0  0  0
 13 14  1  0  0  0  0
 13 36  1  0  0  0  0
 13 37  1  0  0  0  0
 14 15  1  0  0  0  0
 14 38  1  0  0  0  0
 14 39  1  0  0  0  0
 15 16  1  0  0  0  0
 15 40  1  0  0  0  0
 15 41  1  0  0  0  0
 16 17  1  0  0  0  0
 16 42  1  0  0  0  0
 16 43  1  0  0  0  0
 17 18  1  0  0  0  0
 17 44  1  0  0  0  0
 17 45  1  0  0  0  0
 18 46  1  0  0  0  0
 18 47  1  0  0  0  0
 18 48  1  0  0  0  0
M  END
$$$$