/media/chris/experiments/cd1a-new-docking/inputs/ligands/6nux_ligand.pdb
 OpenBabel07022319323D

 42 41  0  0  0  0  0  0  0  0999 V2000
  -42.7008   57.7819   67.3613 C   0  0  0  0  0  0  0  0  0  0  0  0
  -39.0283   54.0749   64.5765 O   0  0  0  0  0  0  0  0  0  0  0  0
  -42.2054   56.4049   67.0404 C   0  0  0  0  0  0  0  0  0  0  0  0
  -40.7372   56.1101   67.1105 C   0  0  0  0  0  0  0  0  0  0  0  0
  -43.0683   55.4404   66.6876 C   0  0  0  0  0  0  0  0  0  0  0  0
  -44.5505   55.7258   66.6128 C   0  0  0  0  0  0  0  0  0  0  0  0
  -44.7960   57.1870   66.2510 C   0  0  0  0  0  0  0  0  0  0  0  0
  -44.1950   57.5130   64.9000 C   0  0  0  0  0  0  0  0  0  0  0  0
  -44.8100   58.5630   64.0190 C   0  0  0  0  0  0  0  0  0  0  0  0
  -43.0990   56.8650   64.4810 C   0  0  0  0  0  0  0  0  0  0  0  0
  -42.4910   57.1900   63.1360 C   0  0  0  0  0  0  0  0  0  0  0  0
  -42.4834   55.9507   62.2493 C   0  0  0  0  0  0  0  0  0  0  0  0
  -41.6852   54.8463   62.9079 C   0  0  0  0  0  0  0  0  0  0  0  0
  -42.3726   53.8721   63.8133 C   0  0  0  0  0  0  0  0  0  0  0  0
  -40.3692   54.7284   62.6775 C   0  0  0  0  0  0  0  0  0  0  0  0
  -39.5563   53.6291   63.3224 C   0  0  0  0  0  0  0  0  0  0  0  0
  -41.8722   58.4081   67.6187 H   0  0  0  0  0  0  0  0  0  0  0  0
  -43.3807   57.7332   68.1860 H   0  0  0  0  0  0  0  0  0  0  0  0
  -43.2032   58.1880   66.5083 H   0  0  0  0  0  0  0  0  0  0  0  0
  -38.5092   53.3621   64.9806 H   0  0  0  0  0  0  0  0  0  0  0  0
  -40.2099   56.9929   67.4064 H   0  0  0  0  0  0  0  0  0  0  0  0
  -40.3908   55.7932   66.1490 H   0  0  0  0  0  0  0  0  0  0  0  0
  -40.5631   55.3339   67.8260 H   0  0  0  0  0  0  0  0  0  0  0  0
  -42.7171   54.4958   66.4655 H   0  0  0  0  0  0  0  0  0  0  0  0
  -44.9973   55.5185   67.5627 H   0  0  0  0  0  0  0  0  0  0  0  0
  -44.9847   55.1048   65.8574 H   0  0  0  0  0  0  0  0  0  0  0  0
  -44.3484   57.8128   66.9946 H   0  0  0  0  0  0  0  0  0  0  0  0
  -45.8514   57.3577   66.2078 H   0  0  0  0  0  0  0  0  0  0  0  0
  -45.6701   58.9759   64.5033 H   0  0  0  0  0  0  0  0  0  0  0  0
  -45.1018   58.1219   63.0888 H   0  0  0  0  0  0  0  0  0  0  0  0
  -44.0961   59.3390   63.8373 H   0  0  0  0  0  0  0  0  0  0  0  0
  -42.6690   56.1419   65.0787 H   0  0  0  0  0  0  0  0  0  0  0  0
  -41.4865   57.5313   63.2752 H   0  0  0  0  0  0  0  0  0  0  0  0
  -43.0738   57.9535   62.6644 H   0  0  0  0  0  0  0  0  0  0  0  0
  -42.0409   56.1930   61.3057 H   0  0  0  0  0  0  0  0  0  0  0  0
  -43.4897   55.6172   62.1041 H   0  0  0  0  0  0  0  0  0  0  0  0
  -43.4118   54.1184   63.8791 H   0  0  0  0  0  0  0  0  0  0  0  0
  -41.9326   53.9189   64.7875 H   0  0  0  0  0  0  0  0  0  0  0  0
  -42.2648   52.8827   63.4204 H   0  0  0  0  0  0  0  0  0  0  0  0
  -39.9029   55.4005   62.0483 H   0  0  0  0  0  0  0  0  0  0  0  0
  -40.1817   52.7763   63.4854 H   0  0  0  0  0  0  0  0  0  0  0  0
  -38.7452   53.3689   62.6749 H   0  0  0  0  0  0  0  0  0  0  0  0
  1  3  1  0  0  0  0
  1 17  1  0  0  0  0
  1 18  1  0  0  0  0
  1 19  1  0  0  0  0
  2 16  1  0  0  0  0
  2 20  1  0  0  0  0
  3  4  1  0  0  0  0
  3  5  2  0  0  0  0
  4 21  1  0  0  0  0
  4 22  1  0  0  0  0
  4 23  1  0  0  0  0
  5  6  1  0  0  0  0
  5 24  1  0  0  0  0
  6  7  1  0  0  0  0
  6 25  1  0  0  0  0
  6 26  1  0  0  0  0
  7  8  1  0  0  0  0
  7 27  1  0  0  0  0
  7 28  1  0  0  0  0
  8  9  1  0  0  0  0
  8 10  2  0  0  0  0
  9 29  1  0  0  0  0
  9 30  1  0  0  0  0
  9 31  1  0  0  0  0
 10 11  1  0  0  0  0
 10 32  1  0  0  0  0
 11 12  1  0  0  0  0
 11 33  1  0  0  0  0
 11 34  1  0  0  0  0
 12 13  1  0  0  0  0
 12 35  1  0  0  0  0
 12 36  1  0  0  0  0
 13 14  1  0  0  0  0
 13 15  2  0  0  0  0
 14 37  1  0  0  0  0
 14 38  1  0  0  0  0
 14 39  1  0  0  0  0
 15 16  1  0  0  0  0
 15 40  1  0  0  0  0
 16 41  1  0  0  0  0
 16 42  1  0  0  0  0
M  END
$$$$