/media/chris/experiments/cd1a-new-docking/inputs/ligands/6nux_ligand.pdb
 OpenBabel07022319323D

 42 41  0  0  0  0  0  0  0  0999 V2000
  -43.1852   60.0829   69.1070 C   0  0  0  0  0  0  0  0  0  0  0  0
  -37.6275   59.1646   65.3497 O   0  0  0  0  0  0  0  0  0  0  0  0
  -43.9709   60.4653   67.8900 C   0  0  0  0  0  0  0  0  0  0  0  0
  -44.2362   61.9127   67.6034 C   0  0  0  0  0  0  0  0  0  0  0  0
  -44.4392   59.5196   67.0621 C   0  0  0  0  0  0  0  0  0  0  0  0
  -44.1787   58.0572   67.3408 C   0  0  0  0  0  0  0  0  0  0  0  0
  -44.7960   57.1870   66.2510 C   0  0  0  0  0  0  0  0  0  0  0  0
  -44.1950   57.5130   64.9000 C   0  0  0  0  0  0  0  0  0  0  0  0
  -44.8100   58.5630   64.0190 C   0  0  0  0  0  0  0  0  0  0  0  0
  -43.0990   56.8650   64.4810 C   0  0  0  0  0  0  0  0  0  0  0  0
  -42.4910   57.1900   63.1360 C   0  0  0  0  0  0  0  0  0  0  0  0
  -40.9848   56.9614   63.1710 C   0  0  0  0  0  0  0  0  0  0  0  0
  -40.3519   57.8347   64.2327 C   0  0  0  0  0  0  0  0  0  0  0  0
  -40.9768   59.1497   64.5817 C   0  0  0  0  0  0  0  0  0  0  0  0
  -39.2419   57.4340   64.8699 C   0  0  0  0  0  0  0  0  0  0  0  0
  -38.5982   58.2905   65.9363 C   0  0  0  0  0  0  0  0  0  0  0  0
  -42.8993   60.9661   69.6390 H   0  0  0  0  0  0  0  0  0  0  0  0
  -42.3087   59.5452   68.8112 H   0  0  0  0  0  0  0  0  0  0  0  0
  -43.7866   59.4642   69.7398 H   0  0  0  0  0  0  0  0  0  0  0  0
  -37.2216   59.7085   66.0427 H   0  0  0  0  0  0  0  0  0  0  0  0
  -43.7890   62.5151   68.3663 H   0  0  0  0  0  0  0  0  0  0  0  0
  -45.2921   62.0851   67.5860 H   0  0  0  0  0  0  0  0  0  0  0  0
  -43.8170   62.1709   66.6535 H   0  0  0  0  0  0  0  0  0  0  0  0
  -44.9820   59.7928   66.2279 H   0  0  0  0  0  0  0  0  0  0  0  0
  -44.6090   57.7968   68.2852 H   0  0  0  0  0  0  0  0  0  0  0  0
  -43.1217   57.8915   67.3586 H   0  0  0  0  0  0  0  0  0  0  0  0
  -45.8510   57.3622   66.2174 H   0  0  0  0  0  0  0  0  0  0  0  0
  -44.5967   56.1603   66.4770 H   0  0  0  0  0  0  0  0  0  0  0  0
  -45.6701   58.9759   64.5033 H   0  0  0  0  0  0  0  0  0  0  0  0
  -45.1018   58.1219   63.0888 H   0  0  0  0  0  0  0  0  0  0  0  0
  -44.0961   59.3390   63.8373 H   0  0  0  0  0  0  0  0  0  0  0  0
  -42.6690   56.1419   65.0787 H   0  0  0  0  0  0  0  0  0  0  0  0
  -42.6877   58.2143   62.8973 H   0  0  0  0  0  0  0  0  0  0  0  0
  -42.9240   56.5526   62.3936 H   0  0  0  0  0  0  0  0  0  0  0  0
  -40.5673   57.2056   62.2166 H   0  0  0  0  0  0  0  0  0  0  0  0
  -40.7912   55.9344   63.4006 H   0  0  0  0  0  0  0  0  0  0  0  0
  -41.8467   59.3027   63.9777 H   0  0  0  0  0  0  0  0  0  0  0  0
  -40.2749   59.9371   64.4020 H   0  0  0  0  0  0  0  0  0  0  0  0
  -41.2555   59.1492   65.6148 H   0  0  0  0  0  0  0  0  0  0  0  0
  -38.8194   56.5241   64.6276 H   0  0  0  0  0  0  0  0  0  0  0  0
  -39.3513   58.8744   66.4229 H   0  0  0  0  0  0  0  0  0  0  0  0
  -38.1118   57.6557   66.6473 H   0  0  0  0  0  0  0  0  0  0  0  0
  1  3  1  0  0  0  0
  1 17  1  0  0  0  0
  1 18  1  0  0  0  0
  1 19  1  0  0  0  0
  2 16  1  0  0  0  0
  2 20  1  0  0  0  0
  3  4  1  0  0  0  0
  3  5  2  0  0  0  0
  4 21  1  0  0  0  0
  4 22  1  0  0  0  0
  4 23  1  0  0  0  0
  5  6  1  0  0  0  0
  5 24  1  0  0  0  0
  6  7  1  0  0  0  0
  6 25  1  0  0  0  0
  6 26  1  0  0  0  0
  7  8  1  0  0  0  0
  7 27  1  0  0  0  0
  7 28  1  0  0  0  0
  8  9  1  0  0  0  0
  8 10  2  0  0  0  0
  9 29  1  0  0  0  0
  9 30  1  0  0  0  0
  9 31  1  0  0  0  0
 10 11  1  0  0  0  0
 10 32  1  0  0  0  0
 11 12  1  0  0  0  0
 11 33  1  0  0  0  0
 11 34  1  0  0  0  0
 12 13  1  0  0  0  0
 12 35  1  0  0  0  0
 12 36  1  0  0  0  0
 13 14  1  0  0  0  0
 13 15  2  0  0  0  0
 14 37  1  0  0  0  0
 14 38  1  0  0  0  0
 14 39  1  0  0  0  0
 15 16  1  0  0  0  0
 15 40  1  0  0  0  0
 16 41  1  0  0  0  0
 16 42  1  0  0  0  0
M  END
$$$$