/media/chris/experiments/cd1a-new-docking/inputs/ligands/6nux_ligand.pdb
 OpenBabel07022319323D

 42 41  0  0  0  0  0  0  0  0999 V2000
  -42.5824   59.4622   69.2611 C   0  0  0  0  0  0  0  0  0  0  0  0
  -40.0716   60.8458   66.5721 O   0  0  0  0  0  0  0  0  0  0  0  0
  -41.9401   58.5008   68.3083 C   0  0  0  0  0  0  0  0  0  0  0  0
  -40.4583   58.2806   68.3636 C   0  0  0  0  0  0  0  0  0  0  0  0
  -42.6840   57.8429   67.4066 C   0  0  0  0  0  0  0  0  0  0  0  0
  -44.1787   58.0572   67.3408 C   0  0  0  0  0  0  0  0  0  0  0  0
  -44.7960   57.1870   66.2510 C   0  0  0  0  0  0  0  0  0  0  0  0
  -44.1950   57.5130   64.9000 C   0  0  0  0  0  0  0  0  0  0  0  0
  -44.8100   58.5630   64.0190 C   0  0  0  0  0  0  0  0  0  0  0  0
  -43.0990   56.8650   64.4810 C   0  0  0  0  0  0  0  0  0  0  0  0
  -42.4910   57.1900   63.1360 C   0  0  0  0  0  0  0  0  0  0  0  0
  -42.0598   58.6510   63.0933 C   0  0  0  0  0  0  0  0  0  0  0  0
  -41.0198   58.9165   64.1602 C   0  0  0  0  0  0  0  0  0  0  0  0
  -40.5751   57.8030   65.0568 C   0  0  0  0  0  0  0  0  0  0  0  0
  -40.4865   60.1391   64.3006 C   0  0  0  0  0  0  0  0  0  0  0  0
  -39.4431   60.4221   65.3572 C   0  0  0  0  0  0  0  0  0  0  0  0
  -41.8346   59.8859   69.8984 H   0  0  0  0  0  0  0  0  0  0  0  0
  -43.3064   58.9451   69.8555 H   0  0  0  0  0  0  0  0  0  0  0  0
  -43.0648   60.2421   68.7099 H   0  0  0  0  0  0  0  0  0  0  0  0
  -39.3931   61.0243   67.2419 H   0  0  0  0  0  0  0  0  0  0  0  0
  -40.0365   58.8857   69.1387 H   0  0  0  0  0  0  0  0  0  0  0  0
  -40.0224   58.5494   67.4242 H   0  0  0  0  0  0  0  0  0  0  0  0
  -40.2584   57.2494   68.5675 H   0  0  0  0  0  0  0  0  0  0  0  0
  -42.2320   57.1850   66.7525 H   0  0  0  0  0  0  0  0  0  0  0  0
  -44.3776   59.0861   67.1247 H   0  0  0  0  0  0  0  0  0  0  0  0
  -44.6084   57.7883   68.2831 H   0  0  0  0  0  0  0  0  0  0  0  0
  -45.8510   57.3622   66.2174 H   0  0  0  0  0  0  0  0  0  0  0  0
  -44.5967   56.1603   66.4770 H   0  0  0  0  0  0  0  0  0  0  0  0
  -45.6701   58.9759   64.5033 H   0  0  0  0  0  0  0  0  0  0  0  0
  -45.1018   58.1219   63.0888 H   0  0  0  0  0  0  0  0  0  0  0  0
  -44.0961   59.3390   63.8373 H   0  0  0  0  0  0  0  0  0  0  0  0
  -42.6690   56.1419   65.0787 H   0  0  0  0  0  0  0  0  0  0  0  0
  -43.2151   57.0125   62.3685 H   0  0  0  0  0  0  0  0  0  0  0  0
  -41.6343   56.5681   62.9804 H   0  0  0  0  0  0  0  0  0  0  0  0
  -42.9108   59.2765   63.2650 H   0  0  0  0  0  0  0  0  0  0  0  0
  -41.6394   58.8646   62.1329 H   0  0  0  0  0  0  0  0  0  0  0  0
  -41.1031   56.9078   64.8025 H   0  0  0  0  0  0  0  0  0  0  0  0
  -40.7803   58.0611   66.0747 H   0  0  0  0  0  0  0  0  0  0  0  0
  -39.5241   57.6443   64.9340 H   0  0  0  0  0  0  0  0  0  0  0  0
  -40.7942   60.9006   63.6758 H   0  0  0  0  0  0  0  0  0  0  0  0
  -38.8781   59.5327   65.5431 H   0  0  0  0  0  0  0  0  0  0  0  0
  -38.7961   61.2001   65.0093 H   0  0  0  0  0  0  0  0  0  0  0  0
  1  3  1  0  0  0  0
  1 17  1  0  0  0  0
  1 18  1  0  0  0  0
  1 19  1  0  0  0  0
  2 16  1  0  0  0  0
  2 20  1  0  0  0  0
  3  4  1  0  0  0  0
  3  5  2  0  0  0  0
  4 21  1  0  0  0  0
  4 22  1  0  0  0  0
  4 23  1  0  0  0  0
  5  6  1  0  0  0  0
  5 24  1  0  0  0  0
  6  7  1  0  0  0  0
  6 25  1  0  0  0  0
  6 26  1  0  0  0  0
  7  8  1  0  0  0  0
  7 27  1  0  0  0  0
  7 28  1  0  0  0  0
  8  9  1  0  0  0  0
  8 10  2  0  0  0  0
  9 29  1  0  0  0  0
  9 30  1  0  0  0  0
  9 31  1  0  0  0  0
 10 11  1  0  0  0  0
 10 32  1  0  0  0  0
 11 12  1  0  0  0  0
 11 33  1  0  0  0  0
 11 34  1  0  0  0  0
 12 13  1  0  0  0  0
 12 35  1  0  0  0  0
 12 36  1  0  0  0  0
 13 14  1  0  0  0  0
 13 15  2  0  0  0  0
 14 37  1  0  0  0  0
 14 38  1  0  0  0  0
 14 39  1  0  0  0  0
 15 16  1  0  0  0  0
 15 40  1  0  0  0  0
 16 41  1  0  0  0  0
 16 42  1  0  0  0  0
M  END
$$$$