/media/chris/experiments/cd1a-new-docking/inputs/ligands/6nux_ligand.pdb
 OpenBabel07022319323D

 42 41  0  0  0  0  0  0  0  0999 V2000
  -47.2196   54.1111   64.5683 C   0  0  0  0  0  0  0  0  0  0  0  0
  -43.2056   62.7653   62.6676 O   0  0  0  0  0  0  0  0  0  0  0  0
  -47.5885   55.5590   64.4583 C   0  0  0  0  0  0  0  0  0  0  0  0
  -48.6864   55.9756   63.5264 C   0  0  0  0  0  0  0  0  0  0  0  0
  -46.9385   56.4801   65.1851 C   0  0  0  0  0  0  0  0  0  0  0  0
  -45.8295   56.0722   66.1275 C   0  0  0  0  0  0  0  0  0  0  0  0
  -44.7960   57.1870   66.2510 C   0  0  0  0  0  0  0  0  0  0  0  0
  -44.1950   57.5130   64.9000 C   0  0  0  0  0  0  0  0  0  0  0  0
  -44.8100   58.5630   64.0190 C   0  0  0  0  0  0  0  0  0  0  0  0
  -43.0990   56.8650   64.4810 C   0  0  0  0  0  0  0  0  0  0  0  0
  -42.4910   57.1900   63.1360 C   0  0  0  0  0  0  0  0  0  0  0  0
  -41.4500   58.2932   63.2825 C   0  0  0  0  0  0  0  0  0  0  0  0
  -42.0902   59.5377   63.8584 C   0  0  0  0  0  0  0  0  0  0  0  0
  -42.7281   59.4860   65.2119 C   0  0  0  0  0  0  0  0  0  0  0  0
  -42.0806   60.6883   63.1693 C   0  0  0  0  0  0  0  0  0  0  0  0
  -42.7108   61.9427   63.7301 C   0  0  0  0  0  0  0  0  0  0  0  0
  -47.8431   53.5338   63.9180 H   0  0  0  0  0  0  0  0  0  0  0  0
  -47.3570   53.7837   65.5776 H   0  0  0  0  0  0  0  0  0  0  0  0
  -46.1952   53.9817   64.2877 H   0  0  0  0  0  0  0  0  0  0  0  0
  -43.6072   63.5663   63.0391 H   0  0  0  0  0  0  0  0  0  0  0  0
  -49.0848   55.1121   63.0360 H   0  0  0  0  0  0  0  0  0  0  0  0
  -48.2961   56.6526   62.7955 H   0  0  0  0  0  0  0  0  0  0  0  0
  -49.4619   56.4595   64.0826 H   0  0  0  0  0  0  0  0  0  0  0  0
  -47.1978   57.4753   65.1002 H   0  0  0  0  0  0  0  0  0  0  0  0
  -45.3536   55.1911   65.7506 H   0  0  0  0  0  0  0  0  0  0  0  0
  -46.2490   55.8809   67.0930 H   0  0  0  0  0  0  0  0  0  0  0  0
  -44.0179   56.8724   66.9147 H   0  0  0  0  0  0  0  0  0  0  0  0
  -45.2787   58.0624   66.6326 H   0  0  0  0  0  0  0  0  0  0  0  0
  -45.6701   58.9759   64.5033 H   0  0  0  0  0  0  0  0  0  0  0  0
  -45.1018   58.1219   63.0888 H   0  0  0  0  0  0  0  0  0  0  0  0
  -44.0961   59.3390   63.8373 H   0  0  0  0  0  0  0  0  0  0  0  0
  -42.6690   56.1419   65.0787 H   0  0  0  0  0  0  0  0  0  0  0  0
  -43.2615   57.5172   62.4695 H   0  0  0  0  0  0  0  0  0  0  0  0
  -42.0183   56.3132   62.7452 H   0  0  0  0  0  0  0  0  0  0  0  0
  -41.0365   58.5197   62.3220 H   0  0  0  0  0  0  0  0  0  0  0  0
  -40.6761   57.9597   63.9420 H   0  0  0  0  0  0  0  0  0  0  0  0
  -42.6421   58.4962   65.6091 H   0  0  0  0  0  0  0  0  0  0  0  0
  -43.7621   59.7485   65.1291 H   0  0  0  0  0  0  0  0  0  0  0  0
  -42.2360   60.1763   65.8647 H   0  0  0  0  0  0  0  0  0  0  0  0
  -41.6348   60.7178   62.2390 H   0  0  0  0  0  0  0  0  0  0  0  0
  -43.5210   61.6733   64.3750 H   0  0  0  0  0  0  0  0  0  0  0  0
  -41.9725   62.4887   64.2794 H   0  0  0  0  0  0  0  0  0  0  0  0
  1  3  1  0  0  0  0
  1 17  1  0  0  0  0
  1 18  1  0  0  0  0
  1 19  1  0  0  0  0
  2 16  1  0  0  0  0
  2 20  1  0  0  0  0
  3  4  1  0  0  0  0
  3  5  2  0  0  0  0
  4 21  1  0  0  0  0
  4 22  1  0  0  0  0
  4 23  1  0  0  0  0
  5  6  1  0  0  0  0
  5 24  1  0  0  0  0
  6  7  1  0  0  0  0
  6 25  1  0  0  0  0
  6 26  1  0  0  0  0
  7  8  1  0  0  0  0
  7 27  1  0  0  0  0
  7 28  1  0  0  0  0
  8  9  1  0  0  0  0
  8 10  2  0  0  0  0
  9 29  1  0  0  0  0
  9 30  1  0  0  0  0
  9 31  1  0  0  0  0
 10 11  1  0  0  0  0
 10 32  1  0  0  0  0
 11 12  1  0  0  0  0
 11 33  1  0  0  0  0
 11 34  1  0  0  0  0
 12 13  1  0  0  0  0
 12 35  1  0  0  0  0
 12 36  1  0  0  0  0
 13 14  1  0  0  0  0
 13 15  2  0  0  0  0
 14 37  1  0  0  0  0
 14 38  1  0  0  0  0
 14 39  1  0  0  0  0
 15 16  1  0  0  0  0
 15 40  1  0  0  0  0
 16 41  1  0  0  0  0
 16 42  1  0  0  0  0
M  END
$$$$