/media/chris/experiments/cd1a-new-docking/inputs/ligands/6nux_ligand.pdb
 OpenBabel07022319323D

 42 41  0  0  0  0  0  0  0  0999 V2000
  -42.5824   59.4622   69.2611 C   0  0  0  0  0  0  0  0  0  0  0  0
  -42.0763   51.6461   64.1594 O   0  0  0  0  0  0  0  0  0  0  0  0
  -41.9401   58.5008   68.3083 C   0  0  0  0  0  0  0  0  0  0  0  0
  -40.4583   58.2806   68.3636 C   0  0  0  0  0  0  0  0  0  0  0  0
  -42.6840   57.8429   67.4066 C   0  0  0  0  0  0  0  0  0  0  0  0
  -44.1787   58.0572   67.3408 C   0  0  0  0  0  0  0  0  0  0  0  0
  -44.7960   57.1870   66.2510 C   0  0  0  0  0  0  0  0  0  0  0  0
  -44.1950   57.5130   64.9000 C   0  0  0  0  0  0  0  0  0  0  0  0
  -44.8100   58.5630   64.0190 C   0  0  0  0  0  0  0  0  0  0  0  0
  -43.0990   56.8650   64.4810 C   0  0  0  0  0  0  0  0  0  0  0  0
  -42.4910   57.1900   63.1360 C   0  0  0  0  0  0  0  0  0  0  0  0
  -42.4834   55.9507   62.2493 C   0  0  0  0  0  0  0  0  0  0  0  0
  -41.6852   54.8463   62.9079 C   0  0  0  0  0  0  0  0  0  0  0  0
  -40.5491   55.1936   63.8191 C   0  0  0  0  0  0  0  0  0  0  0  0
  -41.9953   53.5599   62.6891 C   0  0  0  0  0  0  0  0  0  0  0  0
  -41.2126   52.4434   63.3416 C   0  0  0  0  0  0  0  0  0  0  0  0
  -41.8346   59.8859   69.8984 H   0  0  0  0  0  0  0  0  0  0  0  0
  -43.3064   58.9451   69.8555 H   0  0  0  0  0  0  0  0  0  0  0  0
  -43.0648   60.2421   68.7099 H   0  0  0  0  0  0  0  0  0  0  0  0
  -41.5636   50.9337   64.5725 H   0  0  0  0  0  0  0  0  0  0  0  0
  -40.0365   58.8857   69.1387 H   0  0  0  0  0  0  0  0  0  0  0  0
  -40.0224   58.5494   67.4242 H   0  0  0  0  0  0  0  0  0  0  0  0
  -40.2584   57.2494   68.5675 H   0  0  0  0  0  0  0  0  0  0  0  0
  -42.2320   57.1850   66.7525 H   0  0  0  0  0  0  0  0  0  0  0  0
  -44.3776   59.0861   67.1247 H   0  0  0  0  0  0  0  0  0  0  0  0
  -44.6084   57.7883   68.2831 H   0  0  0  0  0  0  0  0  0  0  0  0
  -45.8510   57.3622   66.2174 H   0  0  0  0  0  0  0  0  0  0  0  0
  -44.5967   56.1603   66.4770 H   0  0  0  0  0  0  0  0  0  0  0  0
  -45.6701   58.9759   64.5033 H   0  0  0  0  0  0  0  0  0  0  0  0
  -45.1018   58.1219   63.0888 H   0  0  0  0  0  0  0  0  0  0  0  0
  -44.0961   59.3390   63.8373 H   0  0  0  0  0  0  0  0  0  0  0  0
  -42.6690   56.1419   65.0787 H   0  0  0  0  0  0  0  0  0  0  0  0
  -41.4865   57.5313   63.2752 H   0  0  0  0  0  0  0  0  0  0  0  0
  -43.0738   57.9535   62.6644 H   0  0  0  0  0  0  0  0  0  0  0  0
  -42.0409   56.1930   61.3057 H   0  0  0  0  0  0  0  0  0  0  0  0
  -43.4897   55.6172   62.1041 H   0  0  0  0  0  0  0  0  0  0  0  0
  -40.4483   56.2574   63.8740 H   0  0  0  0  0  0  0  0  0  0  0  0
  -39.6439   54.7687   63.4384 H   0  0  0  0  0  0  0  0  0  0  0  0
  -40.7433   54.8028   64.7961 H   0  0  0  0  0  0  0  0  0  0  0  0
  -42.7828   53.3281   62.0637 H   0  0  0  0  0  0  0  0  0  0  0  0
  -40.7763   51.8275   62.5832 H   0  0  0  0  0  0  0  0  0  0  0  0
  -40.4448   52.8673   63.9546 H   0  0  0  0  0  0  0  0  0  0  0  0
  1  3  1  0  0  0  0
  1 17  1  0  0  0  0
  1 18  1  0  0  0  0
  1 19  1  0  0  0  0
  2 16  1  0  0  0  0
  2 20  1  0  0  0  0
  3  4  1  0  0  0  0
  3  5  2  0  0  0  0
  4 21  1  0  0  0  0
  4 22  1  0  0  0  0
  4 23  1  0  0  0  0
  5  6  1  0  0  0  0
  5 24  1  0  0  0  0
  6  7  1  0  0  0  0
  6 25  1  0  0  0  0
  6 26  1  0  0  0  0
  7  8  1  0  0  0  0
  7 27  1  0  0  0  0
  7 28  1  0  0  0  0
  8  9  1  0  0  0  0
  8 10  2  0  0  0  0
  9 29  1  0  0  0  0
  9 30  1  0  0  0  0
  9 31  1  0  0  0  0
 10 11  1  0  0  0  0
 10 32  1  0  0  0  0
 11 12  1  0  0  0  0
 11 33  1  0  0  0  0
 11 34  1  0  0  0  0
 12 13  1  0  0  0  0
 12 35  1  0  0  0  0
 12 36  1  0  0  0  0
 13 14  1  0  0  0  0
 13 15  2  0  0  0  0
 14 37  1  0  0  0  0
 14 38  1  0  0  0  0
 14 39  1  0  0  0  0
 15 16  1  0  0  0  0
 15 40  1  0  0  0  0
 16 41  1  0  0  0  0
 16 42  1  0  0  0  0
M  END
$$$$