/media/chris/experiments/cd1a-new-docking/inputs/ligands/6nux_ligand.pdb
 OpenBabel07022319323D

 42 41  0  0  0  0  0  0  0  0999 V2000
  -45.1413   53.8655   64.1349 C   0  0  0  0  0  0  0  0  0  0  0  0
  -41.7659   58.1161   58.4036 O   0  0  0  0  0  0  0  0  0  0  0  0
  -43.9900   53.9518   65.0897 C   0  0  0  0  0  0  0  0  0  0  0  0
  -42.8004   53.0598   64.8992 C   0  0  0  0  0  0  0  0  0  0  0  0
  -44.0229   54.8186   66.1129 C   0  0  0  0  0  0  0  0  0  0  0  0
  -45.2171   55.7225   66.3155 C   0  0  0  0  0  0  0  0  0  0  0  0
  -44.7960   57.1870   66.2510 C   0  0  0  0  0  0  0  0  0  0  0  0
  -44.1950   57.5130   64.9000 C   0  0  0  0  0  0  0  0  0  0  0  0
  -44.8100   58.5630   64.0190 C   0  0  0  0  0  0  0  0  0  0  0  0
  -43.0990   56.8650   64.4810 C   0  0  0  0  0  0  0  0  0  0  0  0
  -42.4910   57.1900   63.1360 C   0  0  0  0  0  0  0  0  0  0  0  0
  -42.0598   58.6510   63.0933 C   0  0  0  0  0  0  0  0  0  0  0  0
  -41.4673   58.9779   61.7397 C   0  0  0  0  0  0  0  0  0  0  0  0
  -40.9564   60.3584   61.4668 C   0  0  0  0  0  0  0  0  0  0  0  0
  -41.3874   58.0369   60.7873 C   0  0  0  0  0  0  0  0  0  0  0  0
  -40.7945   58.3434   59.4309 C   0  0  0  0  0  0  0  0  0  0  0  0
  -44.9338   53.1239   63.3920 H   0  0  0  0  0  0  0  0  0  0  0  0
  -45.2841   54.8144   63.6615 H   0  0  0  0  0  0  0  0  0  0  0  0
  -46.0285   53.5965   64.6693 H   0  0  0  0  0  0  0  0  0  0  0  0
  -41.3746   58.3158   57.5388 H   0  0  0  0  0  0  0  0  0  0  0  0
  -42.9521   52.4418   64.0390 H   0  0  0  0  0  0  0  0  0  0  0  0
  -42.6753   52.4425   65.7642 H   0  0  0  0  0  0  0  0  0  0  0  0
  -41.9247   53.6583   64.7584 H   0  0  0  0  0  0  0  0  0  0  0  0
  -43.2263   54.8686   66.7670 H   0  0  0  0  0  0  0  0  0  0  0  0
  -45.6513   55.5229   67.2729 H   0  0  0  0  0  0  0  0  0  0  0  0
  -45.9298   55.5331   65.5403 H   0  0  0  0  0  0  0  0  0  0  0  0
  -44.0698   57.3774   67.0135 H   0  0  0  0  0  0  0  0  0  0  0  0
  -45.6604   57.8000   66.3995 H   0  0  0  0  0  0  0  0  0  0  0  0
  -45.6701   58.9759   64.5033 H   0  0  0  0  0  0  0  0  0  0  0  0
  -45.1018   58.1219   63.0888 H   0  0  0  0  0  0  0  0  0  0  0  0
  -44.0961   59.3390   63.8373 H   0  0  0  0  0  0  0  0  0  0  0  0
  -42.6690   56.1419   65.0787 H   0  0  0  0  0  0  0  0  0  0  0  0
  -43.2151   57.0125   62.3685 H   0  0  0  0  0  0  0  0  0  0  0  0
  -41.6343   56.5681   62.9804 H   0  0  0  0  0  0  0  0  0  0  0  0
  -41.3263   58.8260   63.8525 H   0  0  0  0  0  0  0  0  0  0  0  0
  -42.9135   59.2736   63.2621 H   0  0  0  0  0  0  0  0  0  0  0  0
  -41.1012   60.9700   62.3327 H   0  0  0  0  0  0  0  0  0  0  0  0
  -41.4895   60.7791   60.6398 H   0  0  0  0  0  0  0  0  0  0  0  0
  -39.9133   60.3129   61.2327 H   0  0  0  0  0  0  0  0  0  0  0  0
  -41.7370   57.0861   60.9841 H   0  0  0  0  0  0  0  0  0  0  0  0
  -40.4845   59.3671   59.4038 H   0  0  0  0  0  0  0  0  0  0  0  0
  -39.9540   57.7025   59.2644 H   0  0  0  0  0  0  0  0  0  0  0  0
  1  3  1  0  0  0  0
  1 17  1  0  0  0  0
  1 18  1  0  0  0  0
  1 19  1  0  0  0  0
  2 16  1  0  0  0  0
  2 20  1  0  0  0  0
  3  4  1  0  0  0  0
  3  5  2  0  0  0  0
  4 21  1  0  0  0  0
  4 22  1  0  0  0  0
  4 23  1  0  0  0  0
  5  6  1  0  0  0  0
  5 24  1  0  0  0  0
  6  7  1  0  0  0  0
  6 25  1  0  0  0  0
  6 26  1  0  0  0  0
  7  8  1  0  0  0  0
  7 27  1  0  0  0  0
  7 28  1  0  0  0  0
  8  9  1  0  0  0  0
  8 10  2  0  0  0  0
  9 29  1  0  0  0  0
  9 30  1  0  0  0  0
  9 31  1  0  0  0  0
 10 11  1  0  0  0  0
 10 32  1  0  0  0  0
 11 12  1  0  0  0  0
 11 33  1  0  0  0  0
 11 34  1  0  0  0  0
 12 13  1  0  0  0  0
 12 35  1  0  0  0  0
 12 36  1  0  0  0  0
 13 14  1  0  0  0  0
 13 15  2  0  0  0  0
 14 37  1  0  0  0  0
 14 38  1  0  0  0  0
 14 39  1  0  0  0  0
 15 16  1  0  0  0  0
 15 40  1  0  0  0  0
 16 41  1  0  0  0  0
 16 42  1  0  0  0  0
M  END
$$$$