/media/chris/experiments/cd1a-new-docking/inputs/ligands/6nux_ligand.pdb
 OpenBabel07022319323D

 42 41  0  0  0  0  0  0  0  0999 V2000
  -45.6957   60.4268   68.8703 C   0  0  0  0  0  0  0  0  0  0  0  0
  -37.8735   60.6768   64.4467 O   0  0  0  0  0  0  0  0  0  0  0  0
  -46.1671   59.0316   69.1458 C   0  0  0  0  0  0  0  0  0  0  0  0
  -46.7466   58.6961   70.4870 C   0  0  0  0  0  0  0  0  0  0  0  0
  -46.0682   58.0849   68.2007 C   0  0  0  0  0  0  0  0  0  0  0  0
  -45.4852   58.4111   66.8450 C   0  0  0  0  0  0  0  0  0  0  0  0
  -44.7960   57.1870   66.2510 C   0  0  0  0  0  0  0  0  0  0  0  0
  -44.1950   57.5130   64.9000 C   0  0  0  0  0  0  0  0  0  0  0  0
  -44.8100   58.5630   64.0190 C   0  0  0  0  0  0  0  0  0  0  0  0
  -43.0990   56.8650   64.4810 C   0  0  0  0  0  0  0  0  0  0  0  0
  -42.4910   57.1900   63.1360 C   0  0  0  0  0  0  0  0  0  0  0  0
  -42.0598   58.6510   63.0933 C   0  0  0  0  0  0  0  0  0  0  0  0
  -41.0198   58.9165   64.1602 C   0  0  0  0  0  0  0  0  0  0  0  0
  -41.3532   58.6719   65.5991 C   0  0  0  0  0  0  0  0  0  0  0  0
  -39.7990   59.3589   63.8245 C   0  0  0  0  0  0  0  0  0  0  0  0
  -38.7456   59.6252   64.8756 C   0  0  0  0  0  0  0  0  0  0  0  0
  -45.8551   61.0346   69.7363 H   0  0  0  0  0  0  0  0  0  0  0  0
  -46.2429   60.8317   68.0447 H   0  0  0  0  0  0  0  0  0  0  0  0
  -44.6525   60.4105   68.6331 H   0  0  0  0  0  0  0  0  0  0  0  0
  -37.2026   60.8386   65.1283 H   0  0  0  0  0  0  0  0  0  0  0  0
  -46.7447   59.5697   71.1050 H   0  0  0  0  0  0  0  0  0  0  0  0
  -46.1577   57.9313   70.9488 H   0  0  0  0  0  0  0  0  0  0  0  0
  -47.7509   58.3480   70.3647 H   0  0  0  0  0  0  0  0  0  0  0  0
  -46.3929   57.1260   68.4009 H   0  0  0  0  0  0  0  0  0  0  0  0
  -44.7711   59.2010   66.9497 H   0  0  0  0  0  0  0  0  0  0  0  0
  -46.2768   58.7134   66.1917 H   0  0  0  0  0  0  0  0  0  0  0  0
  -45.5134   56.4015   66.1358 H   0  0  0  0  0  0  0  0  0  0  0  0
  -44.0117   56.8802   66.9110 H   0  0  0  0  0  0  0  0  0  0  0  0
  -45.6701   58.9759   64.5033 H   0  0  0  0  0  0  0  0  0  0  0  0
  -45.1018   58.1219   63.0888 H   0  0  0  0  0  0  0  0  0  0  0  0
  -44.0961   59.3390   63.8373 H   0  0  0  0  0  0  0  0  0  0  0  0
  -42.6690   56.1419   65.0787 H   0  0  0  0  0  0  0  0  0  0  0  0
  -43.2151   57.0125   62.3685 H   0  0  0  0  0  0  0  0  0  0  0  0
  -41.6343   56.5681   62.9804 H   0  0  0  0  0  0  0  0  0  0  0  0
  -42.9108   59.2765   63.2650 H   0  0  0  0  0  0  0  0  0  0  0  0
  -41.6394   58.8646   62.1329 H   0  0  0  0  0  0  0  0  0  0  0  0
  -42.3622   58.3245   65.6774 H   0  0  0  0  0  0  0  0  0  0  0  0
  -41.2459   59.5829   66.1499 H   0  0  0  0  0  0  0  0  0  0  0  0
  -40.6898   57.9335   65.9984 H   0  0  0  0  0  0  0  0  0  0  0  0
  -39.5745   59.5206   62.8302 H   0  0  0  0  0  0  0  0  0  0  0  0
  -39.2228   59.9122   65.7892 H   0  0  0  0  0  0  0  0  0  0  0  0
  -38.1711   58.7353   65.0272 H   0  0  0  0  0  0  0  0  0  0  0  0
  1  3  1  0  0  0  0
  1 17  1  0  0  0  0
  1 18  1  0  0  0  0
  1 19  1  0  0  0  0
  2 16  1  0  0  0  0
  2 20  1  0  0  0  0
  3  4  1  0  0  0  0
  3  5  2  0  0  0  0
  4 21  1  0  0  0  0
  4 22  1  0  0  0  0
  4 23  1  0  0  0  0
  5  6  1  0  0  0  0
  5 24  1  0  0  0  0
  6  7  1  0  0  0  0
  6 25  1  0  0  0  0
  6 26  1  0  0  0  0
  7  8  1  0  0  0  0
  7 27  1  0  0  0  0
  7 28  1  0  0  0  0
  8  9  1  0  0  0  0
  8 10  2  0  0  0  0
  9 29  1  0  0  0  0
  9 30  1  0  0  0  0
  9 31  1  0  0  0  0
 10 11  1  0  0  0  0
 10 32  1  0  0  0  0
 11 12  1  0  0  0  0
 11 33  1  0  0  0  0
 11 34  1  0  0  0  0
 12 13  1  0  0  0  0
 12 35  1  0  0  0  0
 12 36  1  0  0  0  0
 13 14  1  0  0  0  0
 13 15  2  0  0  0  0
 14 37  1  0  0  0  0
 14 38  1  0  0  0  0
 14 39  1  0  0  0  0
 15 16  1  0  0  0  0
 15 40  1  0  0  0  0
 16 41  1  0  0  0  0
 16 42  1  0  0  0  0
M  END
$$$$