/media/chris/experiments/cd1a-new-docking/inputs/ligands/6nux_ligand.pdb
 OpenBabel07022319323D

 42 41  0  0  0  0  0  0  0  0999 V2000
  -44.0275   59.4329   69.4124 C   0  0  0  0  0  0  0  0  0  0  0  0
  -41.2774   60.7814   66.2304 O   0  0  0  0  0  0  0  0  0  0  0  0
  -44.4991   58.0337   69.6656 C   0  0  0  0  0  0  0  0  0  0  0  0
  -45.0944   57.6812   70.9955 C   0  0  0  0  0  0  0  0  0  0  0  0
  -44.3864   57.0984   68.7108 C   0  0  0  0  0  0  0  0  0  0  0  0
  -43.7874   57.4416   67.3664 C   0  0  0  0  0  0  0  0  0  0  0  0
  -44.7960   57.1870   66.2510 C   0  0  0  0  0  0  0  0  0  0  0  0
  -44.1950   57.5130   64.9000 C   0  0  0  0  0  0  0  0  0  0  0  0
  -44.8100   58.5630   64.0190 C   0  0  0  0  0  0  0  0  0  0  0  0
  -43.0990   56.8650   64.4810 C   0  0  0  0  0  0  0  0  0  0  0  0
  -42.4910   57.1900   63.1360 C   0  0  0  0  0  0  0  0  0  0  0  0
  -41.0574   57.6762   63.3109 C   0  0  0  0  0  0  0  0  0  0  0  0
  -41.0312   58.9108   64.1856 C   0  0  0  0  0  0  0  0  0  0  0  0
  -39.8383   59.1844   65.0480 C   0  0  0  0  0  0  0  0  0  0  0  0
  -42.0641   59.7664   64.1854 C   0  0  0  0  0  0  0  0  0  0  0  0
  -42.0540   61.0072   65.0487 C   0  0  0  0  0  0  0  0  0  0  0  0
  -44.1989   60.0302   70.2835 H   0  0  0  0  0  0  0  0  0  0  0  0
  -44.5653   59.8464   68.5849 H   0  0  0  0  0  0  0  0  0  0  0  0
  -42.9813   59.4216   69.1880 H   0  0  0  0  0  0  0  0  0  0  0  0
  -41.2781   61.5834   66.7760 H   0  0  0  0  0  0  0  0  0  0  0  0
  -45.1021   58.5474   71.6237 H   0  0  0  0  0  0  0  0  0  0  0  0
  -44.5096   56.9122   71.4555 H   0  0  0  0  0  0  0  0  0  0  0  0
  -46.0964   57.3324   70.8566 H   0  0  0  0  0  0  0  0  0  0  0  0
  -44.7114   56.1365   68.8957 H   0  0  0  0  0  0  0  0  0  0  0  0
  -42.9206   56.8361   67.2022 H   0  0  0  0  0  0  0  0  0  0  0  0
  -43.5201   58.4777   67.3611 H   0  0  0  0  0  0  0  0  0  0  0  0
  -45.6574   57.8016   66.4096 H   0  0  0  0  0  0  0  0  0  0  0  0
  -45.0697   56.1527   66.2648 H   0  0  0  0  0  0  0  0  0  0  0  0
  -45.6701   58.9759   64.5033 H   0  0  0  0  0  0  0  0  0  0  0  0
  -45.1018   58.1219   63.0888 H   0  0  0  0  0  0  0  0  0  0  0  0
  -44.0961   59.3390   63.8373 H   0  0  0  0  0  0  0  0  0  0  0  0
  -42.6690   56.1419   65.0787 H   0  0  0  0  0  0  0  0  0  0  0  0
  -43.0688   57.9561   62.6626 H   0  0  0  0  0  0  0  0  0  0  0  0
  -42.4893   56.3075   62.5309 H   0  0  0  0  0  0  0  0  0  0  0  0
  -40.6442   57.9123   62.3526 H   0  0  0  0  0  0  0  0  0  0  0  0
  -40.4798   56.9047   63.7758 H   0  0  0  0  0  0  0  0  0  0  0  0
  -39.1193   58.4024   64.9207 H   0  0  0  0  0  0  0  0  0  0  0  0
  -40.1416   59.2267   66.0733 H   0  0  0  0  0  0  0  0  0  0  0  0
  -39.4016   60.1198   64.7664 H   0  0  0  0  0  0  0  0  0  0  0  0
  -42.8809   59.5740   63.5847 H   0  0  0  0  0  0  0  0  0  0  0  0
  -41.6286   61.8188   64.4961 H   0  0  0  0  0  0  0  0  0  0  0  0
  -43.0584   61.2442   65.3311 H   0  0  0  0  0  0  0  0  0  0  0  0
  1  3  1  0  0  0  0
  1 17  1  0  0  0  0
  1 18  1  0  0  0  0
  1 19  1  0  0  0  0
  2 16  1  0  0  0  0
  2 20  1  0  0  0  0
  3  4  1  0  0  0  0
  3  5  2  0  0  0  0
  4 21  1  0  0  0  0
  4 22  1  0  0  0  0
  4 23  1  0  0  0  0
  5  6  1  0  0  0  0
  5 24  1  0  0  0  0
  6  7  1  0  0  0  0
  6 25  1  0  0  0  0
  6 26  1  0  0  0  0
  7  8  1  0  0  0  0
  7 27  1  0  0  0  0
  7 28  1  0  0  0  0
  8  9  1  0  0  0  0
  8 10  2  0  0  0  0
  9 29  1  0  0  0  0
  9 30  1  0  0  0  0
  9 31  1  0  0  0  0
 10 11  1  0  0  0  0
 10 32  1  0  0  0  0
 11 12  1  0  0  0  0
 11 33  1  0  0  0  0
 11 34  1  0  0  0  0
 12 13  1  0  0  0  0
 12 35  1  0  0  0  0
 12 36  1  0  0  0  0
 13 14  1  0  0  0  0
 13 15  2  0  0  0  0
 14 37  1  0  0  0  0
 14 38  1  0  0  0  0
 14 39  1  0  0  0  0
 15 16  1  0  0  0  0
 15 40  1  0  0  0  0
 16 41  1  0  0  0  0
 16 42  1  0  0  0  0
M  END
$$$$