/media/chris/experiments/cd1a-new-docking/inputs/ligands/6nux_ligand.pdb
 OpenBabel07022319323D

 42 41  0  0  0  0  0  0  0  0999 V2000
  -48.6469   56.3612   66.5611 C   0  0  0  0  0  0  0  0  0  0  0  0
  -39.4818   60.3649   59.9702 O   0  0  0  0  0  0  0  0  0  0  0  0
  -47.7582   55.8972   67.6744 C   0  0  0  0  0  0  0  0  0  0  0  0
  -48.3509   55.5879   69.0162 C   0  0  0  0  0  0  0  0  0  0  0  0
  -46.4385   55.7627   67.4756 C   0  0  0  0  0  0  0  0  0  0  0  0
  -45.8295   56.0722   66.1275 C   0  0  0  0  0  0  0  0  0  0  0  0
  -44.7960   57.1870   66.2510 C   0  0  0  0  0  0  0  0  0  0  0  0
  -44.1950   57.5130   64.9000 C   0  0  0  0  0  0  0  0  0  0  0  0
  -44.8100   58.5630   64.0190 C   0  0  0  0  0  0  0  0  0  0  0  0
  -43.0990   56.8650   64.4810 C   0  0  0  0  0  0  0  0  0  0  0  0
  -42.4910   57.1900   63.1360 C   0  0  0  0  0  0  0  0  0  0  0  0
  -41.0574   57.6762   63.3109 C   0  0  0  0  0  0  0  0  0  0  0  0
  -40.4571   58.0172   61.9642 C   0  0  0  0  0  0  0  0  0  0  0  0
  -39.2344   57.2937   61.4918 C   0  0  0  0  0  0  0  0  0  0  0  0
  -41.0189   58.9550   61.1872 C   0  0  0  0  0  0  0  0  0  0  0  0
  -40.4364   59.3059   59.8371 C   0  0  0  0  0  0  0  0  0  0  0  0
  -49.6584   56.4062   66.9073 H   0  0  0  0  0  0  0  0  0  0  0  0
  -48.5804   55.6756   65.7423 H   0  0  0  0  0  0  0  0  0  0  0  0
  -48.3367   57.3332   66.2386 H   0  0  0  0  0  0  0  0  0  0  0  0
  -39.1153   60.5812   59.0986 H   0  0  0  0  0  0  0  0  0  0  0  0
  -49.4078   55.7516   68.9856 H   0  0  0  0  0  0  0  0  0  0  0  0
  -47.9125   56.2254   69.7553 H   0  0  0  0  0  0  0  0  0  0  0  0
  -48.1553   54.5658   69.2654 H   0  0  0  0  0  0  0  0  0  0  0  0
  -45.8341   55.4453   68.2495 H   0  0  0  0  0  0  0  0  0  0  0  0
  -46.6020   56.3813   65.4548 H   0  0  0  0  0  0  0  0  0  0  0  0
  -45.3467   55.1926   65.7559 H   0  0  0  0  0  0  0  0  0  0  0  0
  -44.0179   56.8724   66.9147 H   0  0  0  0  0  0  0  0  0  0  0  0
  -45.2787   58.0624   66.6326 H   0  0  0  0  0  0  0  0  0  0  0  0
  -45.6701   58.9759   64.5033 H   0  0  0  0  0  0  0  0  0  0  0  0
  -45.1018   58.1219   63.0888 H   0  0  0  0  0  0  0  0  0  0  0  0
  -44.0961   59.3390   63.8373 H   0  0  0  0  0  0  0  0  0  0  0  0
  -42.6690   56.1419   65.0787 H   0  0  0  0  0  0  0  0  0  0  0  0
  -43.0688   57.9561   62.6626 H   0  0  0  0  0  0  0  0  0  0  0  0
  -42.4893   56.3075   62.5309 H   0  0  0  0  0  0  0  0  0  0  0  0
  -40.4761   56.9057   63.7728 H   0  0  0  0  0  0  0  0  0  0  0  0
  -41.0565   58.5510   63.9269 H   0  0  0  0  0  0  0  0  0  0  0  0
  -38.9282   56.5877   62.2352 H   0  0  0  0  0  0  0  0  0  0  0  0
  -38.4466   57.9977   61.3224 H   0  0  0  0  0  0  0  0  0  0  0  0
  -39.4547   56.7788   60.5801 H   0  0  0  0  0  0  0  0  0  0  0  0
  -41.8645   59.4462   61.5171 H   0  0  0  0  0  0  0  0  0  0  0  0
  -39.9533   58.4443   59.4259 H   0  0  0  0  0  0  0  0  0  0  0  0
  -41.2253   59.6265   59.1892 H   0  0  0  0  0  0  0  0  0  0  0  0
  1  3  1  0  0  0  0
  1 17  1  0  0  0  0
  1 18  1  0  0  0  0
  1 19  1  0  0  0  0
  2 16  1  0  0  0  0
  2 20  1  0  0  0  0
  3  4  1  0  0  0  0
  3  5  2  0  0  0  0
  4 21  1  0  0  0  0
  4 22  1  0  0  0  0
  4 23  1  0  0  0  0
  5  6  1  0  0  0  0
  5 24  1  0  0  0  0
  6  7  1  0  0  0  0
  6 25  1  0  0  0  0
  6 26  1  0  0  0  0
  7  8  1  0  0  0  0
  7 27  1  0  0  0  0
  7 28  1  0  0  0  0
  8  9  1  0  0  0  0
  8 10  2  0  0  0  0
  9 29  1  0  0  0  0
  9 30  1  0  0  0  0
  9 31  1  0  0  0  0
 10 11  1  0  0  0  0
 10 32  1  0  0  0  0
 11 12  1  0  0  0  0
 11 33  1  0  0  0  0
 11 34  1  0  0  0  0
 12 13  1  0  0  0  0
 12 35  1  0  0  0  0
 12 36  1  0  0  0  0
 13 14  1  0  0  0  0
 13 15  2  0  0  0  0
 14 37  1  0  0  0  0
 14 38  1  0  0  0  0
 14 39  1  0  0  0  0
 15 16  1  0  0  0  0
 15 40  1  0  0  0  0
 16 41  1  0  0  0  0
 16 42  1  0  0  0  0
M  END
$$$$