/media/chris/experiments/cd1a-new-docking/inputs/ligands/6nux_ligand.pdb
 OpenBabel07022319323D

 42 41  0  0  0  0  0  0  0  0999 V2000
  -48.1680   57.4047   67.1099 C   0  0  0  0  0  0  0  0  0  0  0  0
  -37.0883   58.2673   64.3460 O   0  0  0  0  0  0  0  0  0  0  0  0
  -48.0309   57.1055   65.6483 C   0  0  0  0  0  0  0  0  0  0  0  0
  -49.1248   57.5047   64.7041 C   0  0  0  0  0  0  0  0  0  0  0  0
  -46.9385   56.4801   65.1851 C   0  0  0  0  0  0  0  0  0  0  0  0
  -45.8295   56.0722   66.1275 C   0  0  0  0  0  0  0  0  0  0  0  0
  -44.7960   57.1870   66.2510 C   0  0  0  0  0  0  0  0  0  0  0  0
  -44.1950   57.5130   64.9000 C   0  0  0  0  0  0  0  0  0  0  0  0
  -44.8100   58.5630   64.0190 C   0  0  0  0  0  0  0  0  0  0  0  0
  -43.0990   56.8650   64.4810 C   0  0  0  0  0  0  0  0  0  0  0  0
  -42.4910   57.1900   63.1360 C   0  0  0  0  0  0  0  0  0  0  0  0
  -41.2715   56.3116   62.8844 C   0  0  0  0  0  0  0  0  0  0  0  0
  -40.2396   56.5333   63.9690 C   0  0  0  0  0  0  0  0  0  0  0  0
  -40.5865   56.2383   65.3952 C   0  0  0  0  0  0  0  0  0  0  0  0
  -39.0140   56.9819   63.6600 C   0  0  0  0  0  0  0  0  0  0  0  0
  -37.9686   57.2049   64.7290 C   0  0  0  0  0  0  0  0  0  0  0  0
  -49.0983   57.9031   67.2862 H   0  0  0  0  0  0  0  0  0  0  0  0
  -47.3613   58.0344   67.4223 H   0  0  0  0  0  0  0  0  0  0  0  0
  -48.1424   56.4904   67.6651 H   0  0  0  0  0  0  0  0  0  0  0  0
  -36.4226   58.4012   65.0388 H   0  0  0  0  0  0  0  0  0  0  0  0
  -49.9083   57.9878   65.2497 H   0  0  0  0  0  0  0  0  0  0  0  0
  -49.5127   56.6335   64.2189 H   0  0  0  0  0  0  0  0  0  0  0  0
  -48.7341   58.1778   63.9698 H   0  0  0  0  0  0  0  0  0  0  0  0
  -46.8546   56.2756   64.1771 H   0  0  0  0  0  0  0  0  0  0  0  0
  -45.3536   55.1911   65.7506 H   0  0  0  0  0  0  0  0  0  0  0  0
  -46.2490   55.8809   67.0930 H   0  0  0  0  0  0  0  0  0  0  0  0
  -44.0179   56.8724   66.9147 H   0  0  0  0  0  0  0  0  0  0  0  0
  -45.2787   58.0624   66.6326 H   0  0  0  0  0  0  0  0  0  0  0  0
  -45.6701   58.9759   64.5033 H   0  0  0  0  0  0  0  0  0  0  0  0
  -45.1018   58.1219   63.0888 H   0  0  0  0  0  0  0  0  0  0  0  0
  -44.0961   59.3390   63.8373 H   0  0  0  0  0  0  0  0  0  0  0  0
  -42.6690   56.1419   65.0787 H   0  0  0  0  0  0  0  0  0  0  0  0
  -42.1953   58.2182   63.1208 H   0  0  0  0  0  0  0  0  0  0  0  0
  -43.2168   57.0076   62.3712 H   0  0  0  0  0  0  0  0  0  0  0  0
  -40.8459   56.5601   61.9347 H   0  0  0  0  0  0  0  0  0  0  0  0
  -41.5717   55.2846   62.8907 H   0  0  0  0  0  0  0  0  0  0  0  0
  -41.5977   55.8930   65.4522 H   0  0  0  0  0  0  0  0  0  0  0  0
  -40.4800   57.1282   65.9796 H   0  0  0  0  0  0  0  0  0  0  0  0
  -39.9298   55.4827   65.7731 H   0  0  0  0  0  0  0  0  0  0  0  0
  -38.7802   57.1785   62.6742 H   0  0  0  0  0  0  0  0  0  0  0  0
  -38.4524   57.4609   65.6484 H   0  0  0  0  0  0  0  0  0  0  0  0
  -37.3993   56.3075   64.8531 H   0  0  0  0  0  0  0  0  0  0  0  0
  1  3  1  0  0  0  0
  1 17  1  0  0  0  0
  1 18  1  0  0  0  0
  1 19  1  0  0  0  0
  2 16  1  0  0  0  0
  2 20  1  0  0  0  0
  3  4  1  0  0  0  0
  3  5  2  0  0  0  0
  4 21  1  0  0  0  0
  4 22  1  0  0  0  0
  4 23  1  0  0  0  0
  5  6  1  0  0  0  0
  5 24  1  0  0  0  0
  6  7  1  0  0  0  0
  6 25  1  0  0  0  0
  6 26  1  0  0  0  0
  7  8  1  0  0  0  0
  7 27  1  0  0  0  0
  7 28  1  0  0  0  0
  8  9  1  0  0  0  0
  8 10  2  0  0  0  0
  9 29  1  0  0  0  0
  9 30  1  0  0  0  0
  9 31  1  0  0  0  0
 10 11  1  0  0  0  0
 10 32  1  0  0  0  0
 11 12  1  0  0  0  0
 11 33  1  0  0  0  0
 11 34  1  0  0  0  0
 12 13  1  0  0  0  0
 12 35  1  0  0  0  0
 12 36  1  0  0  0  0
 13 14  1  0  0  0  0
 13 15  2  0  0  0  0
 14 37  1  0  0  0  0
 14 38  1  0  0  0  0
 14 39  1  0  0  0  0
 15 16  1  0  0  0  0
 15 40  1  0  0  0  0
 16 41  1  0  0  0  0
 16 42  1  0  0  0  0
M  END
$$$$