/media/chris/experiments/cd1a-new-docking/inputs/ligands/6nux_ligand.pdb
 OpenBabel07022319323D

 42 41  0  0  0  0  0  0  0  0999 V2000
  -45.5200   52.8734   66.3286 C   0  0  0  0  0  0  0  0  0  0  0  0
  -45.1837   53.4548   61.4267 O   0  0  0  0  0  0  0  0  0  0  0  0
  -44.1688   53.4852   66.1176 C   0  0  0  0  0  0  0  0  0  0  0  0
  -42.9769   52.5986   65.9162 C   0  0  0  0  0  0  0  0  0  0  0  0
  -44.0229   54.8186   66.1129 C   0  0  0  0  0  0  0  0  0  0  0  0
  -45.2171   55.7225   66.3155 C   0  0  0  0  0  0  0  0  0  0  0  0
  -44.7960   57.1870   66.2510 C   0  0  0  0  0  0  0  0  0  0  0  0
  -44.1950   57.5130   64.9000 C   0  0  0  0  0  0  0  0  0  0  0  0
  -44.8100   58.5630   64.0190 C   0  0  0  0  0  0  0  0  0  0  0  0
  -43.0990   56.8650   64.4810 C   0  0  0  0  0  0  0  0  0  0  0  0
  -42.4910   57.1900   63.1360 C   0  0  0  0  0  0  0  0  0  0  0  0
  -43.5718   57.6613   62.1707 C   0  0  0  0  0  0  0  0  0  0  0  0
  -44.6212   56.5842   62.0006 C   0  0  0  0  0  0  0  0  0  0  0  0
  -45.7802   56.8155   61.0815 C   0  0  0  0  0  0  0  0  0  0  0  0
  -44.5143   55.4206   62.6590 C   0  0  0  0  0  0  0  0  0  0  0  0
  -45.5499   54.3312   62.4982 C   0  0  0  0  0  0  0  0  0  0  0  0
  -45.4372   51.8070   66.2999 H   0  0  0  0  0  0  0  0  0  0  0  0
  -46.1843   53.2005   65.5561 H   0  0  0  0  0  0  0  0  0  0  0  0
  -45.9037   53.1758   67.2806 H   0  0  0  0  0  0  0  0  0  0  0  0
  -45.8548   52.7607   61.3330 H   0  0  0  0  0  0  0  0  0  0  0  0
  -43.2843   51.5743   65.9508 H   0  0  0  0  0  0  0  0  0  0  0  0
  -42.2609   52.7825   66.6897 H   0  0  0  0  0  0  0  0  0  0  0  0
  -42.5347   52.8063   64.9642 H   0  0  0  0  0  0  0  0  0  0  0  0
  -43.0876   55.2305   65.9697 H   0  0  0  0  0  0  0  0  0  0  0  0
  -45.6513   55.5229   67.2729 H   0  0  0  0  0  0  0  0  0  0  0  0
  -45.9298   55.5331   65.5403 H   0  0  0  0  0  0  0  0  0  0  0  0
  -44.0698   57.3774   67.0135 H   0  0  0  0  0  0  0  0  0  0  0  0
  -45.6604   57.8000   66.3995 H   0  0  0  0  0  0  0  0  0  0  0  0
  -45.6701   58.9759   64.5033 H   0  0  0  0  0  0  0  0  0  0  0  0
  -45.1018   58.1219   63.0888 H   0  0  0  0  0  0  0  0  0  0  0  0
  -44.0961   59.3390   63.8373 H   0  0  0  0  0  0  0  0  0  0  0  0
  -42.6690   56.1419   65.0787 H   0  0  0  0  0  0  0  0  0  0  0  0
  -42.0205   56.3145   62.7398 H   0  0  0  0  0  0  0  0  0  0  0  0
  -41.7680   57.9692   63.2585 H   0  0  0  0  0  0  0  0  0  0  0  0
  -43.1288   57.8771   61.2209 H   0  0  0  0  0  0  0  0  0  0  0  0
  -44.0341   58.5421   62.5647 H   0  0  0  0  0  0  0  0  0  0  0  0
  -45.7016   57.7899   60.6466 H   0  0  0  0  0  0  0  0  0  0  0  0
  -46.6936   56.7443   61.6343 H   0  0  0  0  0  0  0  0  0  0  0  0
  -45.7739   56.0775   60.3067 H   0  0  0  0  0  0  0  0  0  0  0  0
  -43.7101   55.2662   63.2871 H   0  0  0  0  0  0  0  0  0  0  0  0
  -45.6165   53.7700   63.4068 H   0  0  0  0  0  0  0  0  0  0  0  0
  -46.4958   54.7790   62.2751 H   0  0  0  0  0  0  0  0  0  0  0  0
  1  3  1  0  0  0  0
  1 17  1  0  0  0  0
  1 18  1  0  0  0  0
  1 19  1  0  0  0  0
  2 16  1  0  0  0  0
  2 20  1  0  0  0  0
  3  4  1  0  0  0  0
  3  5  2  0  0  0  0
  4 21  1  0  0  0  0
  4 22  1  0  0  0  0
  4 23  1  0  0  0  0
  5  6  1  0  0  0  0
  5 24  1  0  0  0  0
  6  7  1  0  0  0  0
  6 25  1  0  0  0  0
  6 26  1  0  0  0  0
  7  8  1  0  0  0  0
  7 27  1  0  0  0  0
  7 28  1  0  0  0  0
  8  9  1  0  0  0  0
  8 10  2  0  0  0  0
  9 29  1  0  0  0  0
  9 30  1  0  0  0  0
  9 31  1  0  0  0  0
 10 11  1  0  0  0  0
 10 32  1  0  0  0  0
 11 12  1  0  0  0  0
 11 33  1  0  0  0  0
 11 34  1  0  0  0  0
 12 13  1  0  0  0  0
 12 35  1  0  0  0  0
 12 36  1  0  0  0  0
 13 14  1  0  0  0  0
 13 15  2  0  0  0  0
 14 37  1  0  0  0  0
 14 38  1  0  0  0  0
 14 39  1  0  0  0  0
 15 16  1  0  0  0  0
 15 40  1  0  0  0  0
 16 41  1  0  0  0  0
 16 42  1  0  0  0  0
M  END
$$$$