/media/chris/experiments/cd1a-new-docking/inputs/ligands/6nux_ligand.pdb
 OpenBabel07022319323D

 42 41  0  0  0  0  0  0  0  0999 V2000
  -46.3478   61.1364   66.6513 C   0  0  0  0  0  0  0  0  0  0  0  0
  -48.2289   56.3631   61.8751 O   0  0  0  0  0  0  0  0  0  0  0  0
  -44.9082   60.8204   66.9202 C   0  0  0  0  0  0  0  0  0  0  0  0
  -43.9222   61.9376   67.0844 C   0  0  0  0  0  0  0  0  0  0  0  0
  -44.5005   59.5457   67.0095 C   0  0  0  0  0  0  0  0  0  0  0  0
  -45.4852   58.4111   66.8450 C   0  0  0  0  0  0  0  0  0  0  0  0
  -44.7960   57.1870   66.2510 C   0  0  0  0  0  0  0  0  0  0  0  0
  -44.1950   57.5130   64.9000 C   0  0  0  0  0  0  0  0  0  0  0  0
  -44.8100   58.5630   64.0190 C   0  0  0  0  0  0  0  0  0  0  0  0
  -43.0990   56.8650   64.4810 C   0  0  0  0  0  0  0  0  0  0  0  0
  -42.4910   57.1900   63.1360 C   0  0  0  0  0  0  0  0  0  0  0  0
  -43.5718   57.6613   62.1707 C   0  0  0  0  0  0  0  0  0  0  0  0
  -44.6212   56.5842   62.0006 C   0  0  0  0  0  0  0  0  0  0  0  0
  -44.2248   55.2369   61.4817 C   0  0  0  0  0  0  0  0  0  0  0  0
  -45.9010   56.8250   62.3214 C   0  0  0  0  0  0  0  0  0  0  0  0
  -46.9623   55.7602   62.1628 C   0  0  0  0  0  0  0  0  0  0  0  0
  -46.4793   62.1977   66.6153 H   0  0  0  0  0  0  0  0  0  0  0  0
  -46.9545   60.7282   67.4324 H   0  0  0  0  0  0  0  0  0  0  0  0
  -46.6378   60.7091   65.7141 H   0  0  0  0  0  0  0  0  0  0  0  0
  -48.9012   55.6711   61.7756 H   0  0  0  0  0  0  0  0  0  0  0  0
  -44.4260   62.8760   66.9820 H   0  0  0  0  0  0  0  0  0  0  0  0
  -43.1632   61.8565   66.3346 H   0  0  0  0  0  0  0  0  0  0  0  0
  -43.4735   61.8776   68.0540 H   0  0  0  0  0  0  0  0  0  0  0  0
  -43.5062   59.3381   67.1919 H   0  0  0  0  0  0  0  0  0  0  0  0
  -46.2746   58.7217   66.1929 H   0  0  0  0  0  0  0  0  0  0  0  0
  -45.8799   58.1536   67.8057 H   0  0  0  0  0  0  0  0  0  0  0  0
  -45.5134   56.4015   66.1358 H   0  0  0  0  0  0  0  0  0  0  0  0
  -44.0117   56.8802   66.9110 H   0  0  0  0  0  0  0  0  0  0  0  0
  -45.6701   58.9759   64.5033 H   0  0  0  0  0  0  0  0  0  0  0  0
  -45.1018   58.1219   63.0888 H   0  0  0  0  0  0  0  0  0  0  0  0
  -44.0961   59.3390   63.8373 H   0  0  0  0  0  0  0  0  0  0  0  0
  -42.6690   56.1419   65.0787 H   0  0  0  0  0  0  0  0  0  0  0  0
  -42.0205   56.3145   62.7398 H   0  0  0  0  0  0  0  0  0  0  0  0
  -41.7680   57.9692   63.2585 H   0  0  0  0  0  0  0  0  0  0  0  0
  -43.1288   57.8771   61.2209 H   0  0  0  0  0  0  0  0  0  0  0  0
  -44.0341   58.5421   62.5647 H   0  0  0  0  0  0  0  0  0  0  0  0
  -43.1740   55.2273   61.2803 H   0  0  0  0  0  0  0  0  0  0  0  0
  -44.7626   55.0295   60.5802 H   0  0  0  0  0  0  0  0  0  0  0  0
  -44.4545   54.4910   62.2136 H   0  0  0  0  0  0  0  0  0  0  0  0
  -46.1662   57.7545   62.6831 H   0  0  0  0  0  0  0  0  0  0  0  0
  -46.6909   55.1077   61.3594 H   0  0  0  0  0  0  0  0  0  0  0  0
  -47.0389   55.2053   63.0744 H   0  0  0  0  0  0  0  0  0  0  0  0
  1  3  1  0  0  0  0
  1 17  1  0  0  0  0
  1 18  1  0  0  0  0
  1 19  1  0  0  0  0
  2 16  1  0  0  0  0
  2 20  1  0  0  0  0
  3  4  1  0  0  0  0
  3  5  2  0  0  0  0
  4 21  1  0  0  0  0
  4 22  1  0  0  0  0
  4 23  1  0  0  0  0
  5  6  1  0  0  0  0
  5 24  1  0  0  0  0
  6  7  1  0  0  0  0
  6 25  1  0  0  0  0
  6 26  1  0  0  0  0
  7  8  1  0  0  0  0
  7 27  1  0  0  0  0
  7 28  1  0  0  0  0
  8  9  1  0  0  0  0
  8 10  2  0  0  0  0
  9 29  1  0  0  0  0
  9 30  1  0  0  0  0
  9 31  1  0  0  0  0
 10 11  1  0  0  0  0
 10 32  1  0  0  0  0
 11 12  1  0  0  0  0
 11 33  1  0  0  0  0
 11 34  1  0  0  0  0
 12 13  1  0  0  0  0
 12 35  1  0  0  0  0
 12 36  1  0  0  0  0
 13 14  1  0  0  0  0
 13 15  2  0  0  0  0
 14 37  1  0  0  0  0
 14 38  1  0  0  0  0
 14 39  1  0  0  0  0
 15 16  1  0  0  0  0
 15 40  1  0  0  0  0
 16 41  1  0  0  0  0
 16 42  1  0  0  0  0
M  END
$$$$