/media/chris/experiments/cd1a-new-docking/inputs/ligands/6nux_ligand.pdb
 OpenBabel07022319323D

 42 41  0  0  0  0  0  0  0  0999 V2000
  -45.0219   53.6397   67.9816 C   0  0  0  0  0  0  0  0  0  0  0  0
  -46.8449   54.8127   64.0185 O   0  0  0  0  0  0  0  0  0  0  0  0
  -44.4318   53.6933   66.6056 C   0  0  0  0  0  0  0  0  0  0  0  0
  -44.3852   52.4495   65.7700 C   0  0  0  0  0  0  0  0  0  0  0  0
  -43.9432   54.8455   66.1232 C   0  0  0  0  0  0  0  0  0  0  0  0
  -43.9840   56.1057   66.9565 C   0  0  0  0  0  0  0  0  0  0  0  0
  -44.7960   57.1870   66.2510 C   0  0  0  0  0  0  0  0  0  0  0  0
  -44.1950   57.5130   64.9000 C   0  0  0  0  0  0  0  0  0  0  0  0
  -44.8100   58.5630   64.0190 C   0  0  0  0  0  0  0  0  0  0  0  0
  -43.0990   56.8650   64.4810 C   0  0  0  0  0  0  0  0  0  0  0  0
  -42.4910   57.1900   63.1360 C   0  0  0  0  0  0  0  0  0  0  0  0
  -42.4834   55.9507   62.2493 C   0  0  0  0  0  0  0  0  0  0  0  0
  -43.8989   55.4647   62.0246 C   0  0  0  0  0  0  0  0  0  0  0  0
  -44.2504   54.7676   60.7471 C   0  0  0  0  0  0  0  0  0  0  0  0
  -44.8371   55.6448   62.9659 C   0  0  0  0  0  0  0  0  0  0  0  0
  -46.2550   55.1621   62.7614 C   0  0  0  0  0  0  0  0  0  0  0  0
  -45.3559   52.6443   68.1880 H   0  0  0  0  0  0  0  0  0  0  0  0
  -45.8510   54.3135   68.0407 H   0  0  0  0  0  0  0  0  0  0  0  0
  -44.2803   53.9230   68.6990 H   0  0  0  0  0  0  0  0  0  0  0  0
  -47.7534   54.5048   63.8749 H   0  0  0  0  0  0  0  0  0  0  0  0
  -44.8169   51.6367   66.3158 H   0  0  0  0  0  0  0  0  0  0  0  0
  -43.3682   52.2183   65.5309 H   0  0  0  0  0  0  0  0  0  0  0  0
  -44.9372   52.6057   64.8668 H   0  0  0  0  0  0  0  0  0  0  0  0
  -43.5360   54.8717   65.1753 H   0  0  0  0  0  0  0  0  0  0  0  0
  -42.9857   56.4589   67.1099 H   0  0  0  0  0  0  0  0  0  0  0  0
  -44.4456   55.8843   67.8961 H   0  0  0  0  0  0  0  0  0  0  0  0
  -44.8032   58.0706   66.8545 H   0  0  0  0  0  0  0  0  0  0  0  0
  -45.7934   56.8279   66.1058 H   0  0  0  0  0  0  0  0  0  0  0  0
  -45.6701   58.9759   64.5033 H   0  0  0  0  0  0  0  0  0  0  0  0
  -45.1018   58.1219   63.0888 H   0  0  0  0  0  0  0  0  0  0  0  0
  -44.0961   59.3390   63.8373 H   0  0  0  0  0  0  0  0  0  0  0  0
  -42.6690   56.1419   65.0787 H   0  0  0  0  0  0  0  0  0  0  0  0
  -41.4865   57.5313   63.2752 H   0  0  0  0  0  0  0  0  0  0  0  0
  -43.0738   57.9535   62.6644 H   0  0  0  0  0  0  0  0  0  0  0  0
  -41.9153   55.1786   62.7248 H   0  0  0  0  0  0  0  0  0  0  0  0
  -42.0433   56.1973   61.3057 H   0  0  0  0  0  0  0  0  0  0  0  0
  -43.3851   54.7146   60.1199 H   0  0  0  0  0  0  0  0  0  0  0  0
  -45.0223   55.3120   60.2444 H   0  0  0  0  0  0  0  0  0  0  0  0
  -44.5950   53.7781   60.9638 H   0  0  0  0  0  0  0  0  0  0  0  0
  -44.5865   56.1217   63.8461 H   0  0  0  0  0  0  0  0  0  0  0  0
  -46.8308   55.9399   62.3049 H   0  0  0  0  0  0  0  0  0  0  0  0
  -46.2420   54.2984   62.1299 H   0  0  0  0  0  0  0  0  0  0  0  0
  1  3  1  0  0  0  0
  1 17  1  0  0  0  0
  1 18  1  0  0  0  0
  1 19  1  0  0  0  0
  2 16  1  0  0  0  0
  2 20  1  0  0  0  0
  3  4  1  0  0  0  0
  3  5  2  0  0  0  0
  4 21  1  0  0  0  0
  4 22  1  0  0  0  0
  4 23  1  0  0  0  0
  5  6  1  0  0  0  0
  5 24  1  0  0  0  0
  6  7  1  0  0  0  0
  6 25  1  0  0  0  0
  6 26  1  0  0  0  0
  7  8  1  0  0  0  0
  7 27  1  0  0  0  0
  7 28  1  0  0  0  0
  8  9  1  0  0  0  0
  8 10  2  0  0  0  0
  9 29  1  0  0  0  0
  9 30  1  0  0  0  0
  9 31  1  0  0  0  0
 10 11  1  0  0  0  0
 10 32  1  0  0  0  0
 11 12  1  0  0  0  0
 11 33  1  0  0  0  0
 11 34  1  0  0  0  0
 12 13  1  0  0  0  0
 12 35  1  0  0  0  0
 12 36  1  0  0  0  0
 13 14  1  0  0  0  0
 13 15  2  0  0  0  0
 14 37  1  0  0  0  0
 14 38  1  0  0  0  0
 14 39  1  0  0  0  0
 15 16  1  0  0  0  0
 15 40  1  0  0  0  0
 16 41  1  0  0  0  0
 16 42  1  0  0  0  0
M  END
$$$$