/media/chris/experiments/cd1a-new-docking/inputs/ligands/6nux_ligand.pdb
 OpenBabel07022319323D

 42 41  0  0  0  0  0  0  0  0999 V2000
  -46.6560   55.0857   67.1283 C   0  0  0  0  0  0  0  0  0  0  0  0
  -47.3398   56.9905   63.6031 O   0  0  0  0  0  0  0  0  0  0  0  0
  -45.8484   55.2927   68.3731 C   0  0  0  0  0  0  0  0  0  0  0  0
  -46.4470   54.9658   69.7081 C   0  0  0  0  0  0  0  0  0  0  0  0
  -44.5980   55.7720   68.2966 C   0  0  0  0  0  0  0  0  0  0  0  0
  -43.9840   56.1057   66.9565 C   0  0  0  0  0  0  0  0  0  0  0  0
  -44.7960   57.1870   66.2510 C   0  0  0  0  0  0  0  0  0  0  0  0
  -44.1950   57.5130   64.9000 C   0  0  0  0  0  0  0  0  0  0  0  0
  -44.8100   58.5630   64.0190 C   0  0  0  0  0  0  0  0  0  0  0  0
  -43.0990   56.8650   64.4810 C   0  0  0  0  0  0  0  0  0  0  0  0
  -42.4910   57.1900   63.1360 C   0  0  0  0  0  0  0  0  0  0  0  0
  -43.0966   56.3008   62.0568 C   0  0  0  0  0  0  0  0  0  0  0  0
  -44.5896   56.5329   61.9705 C   0  0  0  0  0  0  0  0  0  0  0  0
  -45.1260   57.5770   61.0412 C   0  0  0  0  0  0  0  0  0  0  0  0
  -45.4352   55.8028   62.7126 C   0  0  0  0  0  0  0  0  0  0  0  0
  -46.9297   56.0170   62.6364 C   0  0  0  0  0  0  0  0  0  0  0  0
  -47.6197   54.7003   67.3884 H   0  0  0  0  0  0  0  0  0  0  0  0
  -46.1541   54.3896   66.4892 H   0  0  0  0  0  0  0  0  0  0  0  0
  -46.7709   56.0193   66.6184 H   0  0  0  0  0  0  0  0  0  0  0  0
  -48.2994   57.1195   63.5450 H   0  0  0  0  0  0  0  0  0  0  0  0
  -47.4428   54.5988   69.5722 H   0  0  0  0  0  0  0  0  0  0  0  0
  -46.4713   55.8476   70.3136 H   0  0  0  0  0  0  0  0  0  0  0  0
  -45.8540   54.2176   70.1913 H   0  0  0  0  0  0  0  0  0  0  0  0
  -44.0506   55.9140   69.1599 H   0  0  0  0  0  0  0  0  0  0  0  0
  -43.9664   55.2256   66.3483 H   0  0  0  0  0  0  0  0  0  0  0  0
  -42.9889   56.4667   67.1122 H   0  0  0  0  0  0  0  0  0  0  0  0
  -44.8032   58.0706   66.8545 H   0  0  0  0  0  0  0  0  0  0  0  0
  -45.7934   56.8279   66.1058 H   0  0  0  0  0  0  0  0  0  0  0  0
  -45.6701   58.9759   64.5033 H   0  0  0  0  0  0  0  0  0  0  0  0
  -45.1018   58.1219   63.0888 H   0  0  0  0  0  0  0  0  0  0  0  0
  -44.0961   59.3390   63.8373 H   0  0  0  0  0  0  0  0  0  0  0  0
  -42.6690   56.1419   65.0787 H   0  0  0  0  0  0  0  0  0  0  0  0
  -41.4343   57.0266   63.1769 H   0  0  0  0  0  0  0  0  0  0  0  0
  -42.6932   58.2137   62.8993 H   0  0  0  0  0  0  0  0  0  0  0  0
  -42.9111   55.2750   62.2979 H   0  0  0  0  0  0  0  0  0  0  0  0
  -42.6496   56.5393   61.1143 H   0  0  0  0  0  0  0  0  0  0  0  0
  -44.3136   58.0556   60.5353 H   0  0  0  0  0  0  0  0  0  0  0  0
  -45.6756   58.3045   61.6012 H   0  0  0  0  0  0  0  0  0  0  0  0
  -45.7722   57.1172   60.3229 H   0  0  0  0  0  0  0  0  0  0  0  0
  -45.0586   55.0814   63.3473 H   0  0  0  0  0  0  0  0  0  0  0  0
  -47.1879   56.3612   61.6568 H   0  0  0  0  0  0  0  0  0  0  0  0
  -47.4259   55.0914   62.8411 H   0  0  0  0  0  0  0  0  0  0  0  0
  1  3  1  0  0  0  0
  1 17  1  0  0  0  0
  1 18  1  0  0  0  0
  1 19  1  0  0  0  0
  2 16  1  0  0  0  0
  2 20  1  0  0  0  0
  3  4  1  0  0  0  0
  3  5  2  0  0  0  0
  4 21  1  0  0  0  0
  4 22  1  0  0  0  0
  4 23  1  0  0  0  0
  5  6  1  0  0  0  0
  5 24  1  0  0  0  0
  6  7  1  0  0  0  0
  6 25  1  0  0  0  0
  6 26  1  0  0  0  0
  7  8  1  0  0  0  0
  7 27  1  0  0  0  0
  7 28  1  0  0  0  0
  8  9  1  0  0  0  0
  8 10  2  0  0  0  0
  9 29  1  0  0  0  0
  9 30  1  0  0  0  0
  9 31  1  0  0  0  0
 10 11  1  0  0  0  0
 10 32  1  0  0  0  0
 11 12  1  0  0  0  0
 11 33  1  0  0  0  0
 11 34  1  0  0  0  0
 12 13  1  0  0  0  0
 12 35  1  0  0  0  0
 12 36  1  0  0  0  0
 13 14  1  0  0  0  0
 13 15  2  0  0  0  0
 14 37  1  0  0  0  0
 14 38  1  0  0  0  0
 14 39  1  0  0  0  0
 15 16  1  0  0  0  0
 15 40  1  0  0  0  0
 16 41  1  0  0  0  0
 16 42  1  0  0  0  0
M  END
$$$$