/media/chris/experiments/cd1a-new-docking/inputs/ligands/6nux_ligand.pdb
 OpenBabel07022319323D

 42 41  0  0  0  0  0  0  0  0999 V2000
  -48.5267   55.1274   66.3322 C   0  0  0  0  0  0  0  0  0  0  0  0
  -41.6197   51.7339   63.7721 O   0  0  0  0  0  0  0  0  0  0  0  0
  -47.7009   55.3186   67.5675 C   0  0  0  0  0  0  0  0  0  0  0  0
  -48.2945   55.0156   68.9103 C   0  0  0  0  0  0  0  0  0  0  0  0
  -46.4385   55.7627   67.4756 C   0  0  0  0  0  0  0  0  0  0  0  0
  -45.8295   56.0722   66.1275 C   0  0  0  0  0  0  0  0  0  0  0  0
  -44.7960   57.1870   66.2510 C   0  0  0  0  0  0  0  0  0  0  0  0
  -44.1950   57.5130   64.9000 C   0  0  0  0  0  0  0  0  0  0  0  0
  -44.8100   58.5630   64.0190 C   0  0  0  0  0  0  0  0  0  0  0  0
  -43.0990   56.8650   64.4810 C   0  0  0  0  0  0  0  0  0  0  0  0
  -42.4910   57.1900   63.1360 C   0  0  0  0  0  0  0  0  0  0  0  0
  -42.4834   55.9507   62.2493 C   0  0  0  0  0  0  0  0  0  0  0  0
  -41.6852   54.8463   62.9079 C   0  0  0  0  0  0  0  0  0  0  0  0
  -41.0502   55.0840   64.2427 C   0  0  0  0  0  0  0  0  0  0  0  0
  -41.5519   53.6537   62.3089 C   0  0  0  0  0  0  0  0  0  0  0  0
  -40.7625   52.5372   62.9534 C   0  0  0  0  0  0  0  0  0  0  0  0
  -49.4980   54.7703   66.6042 H   0  0  0  0  0  0  0  0  0  0  0  0
  -48.0509   54.4143   65.6919 H   0  0  0  0  0  0  0  0  0  0  0  0
  -48.6210   56.0611   65.8181 H   0  0  0  0  0  0  0  0  0  0  0  0
  -41.1028   51.0215   64.1799 H   0  0  0  0  0  0  0  0  0  0  0  0
  -49.3014   54.6756   68.7866 H   0  0  0  0  0  0  0  0  0  0  0  0
  -48.2882   55.9010   69.5111 H   0  0  0  0  0  0  0  0  0  0  0  0
  -47.7174   54.2538   69.3916 H   0  0  0  0  0  0  0  0  0  0  0  0
  -45.8786   55.8941   68.3325 H   0  0  0  0  0  0  0  0  0  0  0  0
  -46.6020   56.3813   65.4548 H   0  0  0  0  0  0  0  0  0  0  0  0
  -45.3467   55.1926   65.7559 H   0  0  0  0  0  0  0  0  0  0  0  0
  -44.0179   56.8724   66.9147 H   0  0  0  0  0  0  0  0  0  0  0  0
  -45.2787   58.0624   66.6326 H   0  0  0  0  0  0  0  0  0  0  0  0
  -45.6701   58.9759   64.5033 H   0  0  0  0  0  0  0  0  0  0  0  0
  -45.1018   58.1219   63.0888 H   0  0  0  0  0  0  0  0  0  0  0  0
  -44.0961   59.3390   63.8373 H   0  0  0  0  0  0  0  0  0  0  0  0
  -42.6690   56.1419   65.0787 H   0  0  0  0  0  0  0  0  0  0  0  0
  -41.4865   57.5313   63.2752 H   0  0  0  0  0  0  0  0  0  0  0  0
  -43.0738   57.9535   62.6644 H   0  0  0  0  0  0  0  0  0  0  0  0
  -42.0409   56.1930   61.3057 H   0  0  0  0  0  0  0  0  0  0  0  0
  -43.4897   55.6172   62.1041 H   0  0  0  0  0  0  0  0  0  0  0  0
  -41.2597   56.0827   64.5646 H   0  0  0  0  0  0  0  0  0  0  0  0
  -39.9917   54.9495   64.1632 H   0  0  0  0  0  0  0  0  0  0  0  0
  -41.4455   54.3896   64.9544 H   0  0  0  0  0  0  0  0  0  0  0  0
  -41.9965   53.4954   61.3911 H   0  0  0  0  0  0  0  0  0  0  0  0
  -40.3278   51.9257   62.1904 H   0  0  0  0  0  0  0  0  0  0  0  0
  -39.9932   52.9611   63.5644 H   0  0  0  0  0  0  0  0  0  0  0  0
  1  3  1  0  0  0  0
  1 17  1  0  0  0  0
  1 18  1  0  0  0  0
  1 19  1  0  0  0  0
  2 16  1  0  0  0  0
  2 20  1  0  0  0  0
  3  4  1  0  0  0  0
  3  5  2  0  0  0  0
  4 21  1  0  0  0  0
  4 22  1  0  0  0  0
  4 23  1  0  0  0  0
  5  6  1  0  0  0  0
  5 24  1  0  0  0  0
  6  7  1  0  0  0  0
  6 25  1  0  0  0  0
  6 26  1  0  0  0  0
  7  8  1  0  0  0  0
  7 27  1  0  0  0  0
  7 28  1  0  0  0  0
  8  9  1  0  0  0  0
  8 10  2  0  0  0  0
  9 29  1  0  0  0  0
  9 30  1  0  0  0  0
  9 31  1  0  0  0  0
 10 11  1  0  0  0  0
 10 32  1  0  0  0  0
 11 12  1  0  0  0  0
 11 33  1  0  0  0  0
 11 34  1  0  0  0  0
 12 13  1  0  0  0  0
 12 35  1  0  0  0  0
 12 36  1  0  0  0  0
 13 14  1  0  0  0  0
 13 15  2  0  0  0  0
 14 37  1  0  0  0  0
 14 38  1  0  0  0  0
 14 39  1  0  0  0  0
 15 16  1  0  0  0  0
 15 40  1  0  0  0  0
 16 41  1  0  0  0  0
 16 42  1  0  0  0  0
M  END
$$$$