/media/chris/experiments/cd1a-new-docking/inputs/ligands/6nux_ligand.pdb
 OpenBabel07022319323D

 42 41  0  0  0  0  0  0  0  0999 V2000
  -46.5029   59.4251   68.3084 C   0  0  0  0  0  0  0  0  0  0  0  0
  -38.6415   54.9820   65.1571 O   0  0  0  0  0  0  0  0  0  0  0  0
  -45.8589   58.3569   69.1383 C   0  0  0  0  0  0  0  0  0  0  0  0
  -46.4356   58.0101   70.4778 C   0  0  0  0  0  0  0  0  0  0  0  0
  -44.7695   57.7159   68.6894 C   0  0  0  0  0  0  0  0  0  0  0  0
  -44.1787   58.0572   67.3408 C   0  0  0  0  0  0  0  0  0  0  0  0
  -44.7960   57.1870   66.2510 C   0  0  0  0  0  0  0  0  0  0  0  0
  -44.1950   57.5130   64.9000 C   0  0  0  0  0  0  0  0  0  0  0  0
  -44.8100   58.5630   64.0190 C   0  0  0  0  0  0  0  0  0  0  0  0
  -43.0990   56.8650   64.4810 C   0  0  0  0  0  0  0  0  0  0  0  0
  -42.4910   57.1900   63.1360 C   0  0  0  0  0  0  0  0  0  0  0  0
  -41.4500   58.2932   63.2825 C   0  0  0  0  0  0  0  0  0  0  0  0
  -40.3407   57.8405   64.2071 C   0  0  0  0  0  0  0  0  0  0  0  0
  -39.2071   58.7682   64.5163 C   0  0  0  0  0  0  0  0  0  0  0  0
  -40.3720   56.6186   64.7593 C   0  0  0  0  0  0  0  0  0  0  0  0
  -39.2756   56.1506   65.6888 C   0  0  0  0  0  0  0  0  0  0  0  0
  -47.3517   59.8175   68.8284 H   0  0  0  0  0  0  0  0  0  0  0  0
  -46.8177   59.0096   67.3740 H   0  0  0  0  0  0  0  0  0  0  0  0
  -45.7991   60.2112   68.1302 H   0  0  0  0  0  0  0  0  0  0  0  0
  -37.9406   54.6911   65.7613 H   0  0  0  0  0  0  0  0  0  0  0  0
  -47.2948   58.6197   70.6649 H   0  0  0  0  0  0  0  0  0  0  0  0
  -45.7025   58.1842   71.2376 H   0  0  0  0  0  0  0  0  0  0  0  0
  -46.7210   56.9789   70.4872 H   0  0  0  0  0  0  0  0  0  0  0  0
  -44.3312   56.9836   69.2696 H   0  0  0  0  0  0  0  0  0  0  0  0
  -43.1219   57.8914   67.3673 H   0  0  0  0  0  0  0  0  0  0  0  0
  -44.3858   59.0840   67.1224 H   0  0  0  0  0  0  0  0  0  0  0  0
  -45.8510   57.3622   66.2174 H   0  0  0  0  0  0  0  0  0  0  0  0
  -44.5967   56.1603   66.4770 H   0  0  0  0  0  0  0  0  0  0  0  0
  -45.6701   58.9759   64.5033 H   0  0  0  0  0  0  0  0  0  0  0  0
  -45.1018   58.1219   63.0888 H   0  0  0  0  0  0  0  0  0  0  0  0
  -44.0961   59.3390   63.8373 H   0  0  0  0  0  0  0  0  0  0  0  0
  -42.6690   56.1419   65.0787 H   0  0  0  0  0  0  0  0  0  0  0  0
  -43.2615   57.5172   62.4695 H   0  0  0  0  0  0  0  0  0  0  0  0
  -42.0183   56.3132   62.7452 H   0  0  0  0  0  0  0  0  0  0  0  0
  -41.9150   59.1671   63.6887 H   0  0  0  0  0  0  0  0  0  0  0  0
  -41.0364   58.5150   62.3210 H   0  0  0  0  0  0  0  0  0  0  0  0
  -39.3476   59.6903   63.9920 H   0  0  0  0  0  0  0  0  0  0  0  0
  -38.2854   58.3200   64.2089 H   0  0  0  0  0  0  0  0  0  0  0  0
  -39.1780   58.9574   65.5691 H   0  0  0  0  0  0  0  0  0  0  0  0
  -41.1590   55.9862   64.5456 H   0  0  0  0  0  0  0  0  0  0  0  0
  -38.5488   56.9283   65.7979 H   0  0  0  0  0  0  0  0  0  0  0  0
  -39.7027   55.9134   66.6408 H   0  0  0  0  0  0  0  0  0  0  0  0
  1  3  1  0  0  0  0
  1 17  1  0  0  0  0
  1 18  1  0  0  0  0
  1 19  1  0  0  0  0
  2 16  1  0  0  0  0
  2 20  1  0  0  0  0
  3  4  1  0  0  0  0
  3  5  2  0  0  0  0
  4 21  1  0  0  0  0
  4 22  1  0  0  0  0
  4 23  1  0  0  0  0
  5  6  1  0  0  0  0
  5 24  1  0  0  0  0
  6  7  1  0  0  0  0
  6 25  1  0  0  0  0
  6 26  1  0  0  0  0
  7  8  1  0  0  0  0
  7 27  1  0  0  0  0
  7 28  1  0  0  0  0
  8  9  1  0  0  0  0
  8 10  2  0  0  0  0
  9 29  1  0  0  0  0
  9 30  1  0  0  0  0
  9 31  1  0  0  0  0
 10 11  1  0  0  0  0
 10 32  1  0  0  0  0
 11 12  1  0  0  0  0
 11 33  1  0  0  0  0
 11 34  1  0  0  0  0
 12 13  1  0  0  0  0
 12 35  1  0  0  0  0
 12 36  1  0  0  0  0
 13 14  1  0  0  0  0
 13 15  2  0  0  0  0
 14 37  1  0  0  0  0
 14 38  1  0  0  0  0
 14 39  1  0  0  0  0
 15 16  1  0  0  0  0
 15 40  1  0  0  0  0
 16 41  1  0  0  0  0
 16 42  1  0  0  0  0
M  END
$$$$