/media/chris/experiments/cd1a-new-docking/inputs/ligands/6nux_ligand.pdb
 OpenBabel07022319323D

 42 41  0  0  0  0  0  0  0  0999 V2000
  -41.4729   56.3199   68.9607 C   0  0  0  0  0  0  0  0  0  0  0  0
  -42.7615   61.2499   65.5904 O   0  0  0  0  0  0  0  0  0  0  0  0
  -41.6396   57.6235   68.2413 C   0  0  0  0  0  0  0  0  0  0  0  0
  -40.6281   58.7125   68.4363 C   0  0  0  0  0  0  0  0  0  0  0  0
  -42.6897   57.8192   67.4300 C   0  0  0  0  0  0  0  0  0  0  0  0
  -43.7163   56.7289   67.2260 C   0  0  0  0  0  0  0  0  0  0  0  0
  -44.7960   57.1870   66.2510 C   0  0  0  0  0  0  0  0  0  0  0  0
  -44.1950   57.5130   64.9000 C   0  0  0  0  0  0  0  0  0  0  0  0
  -44.8100   58.5630   64.0190 C   0  0  0  0  0  0  0  0  0  0  0  0
  -43.0990   56.8650   64.4810 C   0  0  0  0  0  0  0  0  0  0  0  0
  -42.4910   57.1900   63.1360 C   0  0  0  0  0  0  0  0  0  0  0  0
  -41.0574   57.6762   63.3109 C   0  0  0  0  0  0  0  0  0  0  0  0
  -41.0312   58.9108   64.1856 C   0  0  0  0  0  0  0  0  0  0  0  0
  -40.2626   58.8942   65.4704 C   0  0  0  0  0  0  0  0  0  0  0  0
  -41.6826   60.0223   63.8127 C   0  0  0  0  0  0  0  0  0  0  0  0
  -41.6640   61.2666   64.6709 C   0  0  0  0  0  0  0  0  0  0  0  0
  -40.5841   56.3520   69.5556 H   0  0  0  0  0  0  0  0  0  0  0  0
  -41.3962   55.5261   68.2473 H   0  0  0  0  0  0  0  0  0  0  0  0
  -42.3194   56.1507   69.5930 H   0  0  0  0  0  0  0  0  0  0  0  0
  -42.7393   62.0522   66.1351 H   0  0  0  0  0  0  0  0  0  0  0  0
  -39.8689   58.3774   69.1117 H   0  0  0  0  0  0  0  0  0  0  0  0
  -41.1094   59.5779   68.8417 H   0  0  0  0  0  0  0  0  0  0  0  0
  -40.1840   58.9597   67.4947 H   0  0  0  0  0  0  0  0  0  0  0  0
  -42.7975   58.7217   66.9412 H   0  0  0  0  0  0  0  0  0  0  0  0
  -44.1688   56.4911   68.1660 H   0  0  0  0  0  0  0  0  0  0  0  0
  -43.2290   55.8662   66.8221 H   0  0  0  0  0  0  0  0  0  0  0  0
  -45.2747   58.0603   66.6422 H   0  0  0  0  0  0  0  0  0  0  0  0
  -45.5068   56.3965   66.1292 H   0  0  0  0  0  0  0  0  0  0  0  0
  -45.6701   58.9759   64.5033 H   0  0  0  0  0  0  0  0  0  0  0  0
  -45.1018   58.1219   63.0888 H   0  0  0  0  0  0  0  0  0  0  0  0
  -44.0961   59.3390   63.8373 H   0  0  0  0  0  0  0  0  0  0  0  0
  -42.6690   56.1419   65.0787 H   0  0  0  0  0  0  0  0  0  0  0  0
  -43.0688   57.9561   62.6626 H   0  0  0  0  0  0  0  0  0  0  0  0
  -42.4893   56.3075   62.5309 H   0  0  0  0  0  0  0  0  0  0  0  0
  -40.6442   57.9123   62.3526 H   0  0  0  0  0  0  0  0  0  0  0  0
  -40.4798   56.9047   63.7758 H   0  0  0  0  0  0  0  0  0  0  0  0
  -39.8115   57.9332   65.6037 H   0  0  0  0  0  0  0  0  0  0  0  0
  -40.9264   59.0929   66.2857 H   0  0  0  0  0  0  0  0  0  0  0  0
  -39.5006   59.6448   65.4398 H   0  0  0  0  0  0  0  0  0  0  0  0
  -42.2063   60.0281   62.9234 H   0  0  0  0  0  0  0  0  0  0  0  0
  -40.7452   61.3050   65.2179 H   0  0  0  0  0  0  0  0  0  0  0  0
  -41.7501   62.1268   64.0403 H   0  0  0  0  0  0  0  0  0  0  0  0
  1  3  1  0  0  0  0
  1 17  1  0  0  0  0
  1 18  1  0  0  0  0
  1 19  1  0  0  0  0
  2 16  1  0  0  0  0
  2 20  1  0  0  0  0
  3  4  1  0  0  0  0
  3  5  2  0  0  0  0
  4 21  1  0  0  0  0
  4 22  1  0  0  0  0
  4 23  1  0  0  0  0
  5  6  1  0  0  0  0
  5 24  1  0  0  0  0
  6  7  1  0  0  0  0
  6 25  1  0  0  0  0
  6 26  1  0  0  0  0
  7  8  1  0  0  0  0
  7 27  1  0  0  0  0
  7 28  1  0  0  0  0
  8  9  1  0  0  0  0
  8 10  2  0  0  0  0
  9 29  1  0  0  0  0
  9 30  1  0  0  0  0
  9 31  1  0  0  0  0
 10 11  1  0  0  0  0
 10 32  1  0  0  0  0
 11 12  1  0  0  0  0
 11 33  1  0  0  0  0
 11 34  1  0  0  0  0
 12 13  1  0  0  0  0
 12 35  1  0  0  0  0
 12 36  1  0  0  0  0
 13 14  1  0  0  0  0
 13 15  2  0  0  0  0
 14 37  1  0  0  0  0
 14 38  1  0  0  0  0
 14 39  1  0  0  0  0
 15 16  1  0  0  0  0
 15 40  1  0  0  0  0
 16 41  1  0  0  0  0
 16 42  1  0  0  0  0
M  END
$$$$