/media/chris/experiments/cd1a-new-docking/inputs/ligands/6nux_ligand.pdb
 OpenBabel07022319323D

 42 41  0  0  0  0  0  0  0  0999 V2000
  -41.6189   55.4845   68.7299 C   0  0  0  0  0  0  0  0  0  0  0  0
  -39.6782   60.3632   66.7349 O   0  0  0  0  0  0  0  0  0  0  0  0
  -42.0304   54.9208   67.4042 C   0  0  0  0  0  0  0  0  0  0  0  0
  -41.3370   53.7044   66.8685 C   0  0  0  0  0  0  0  0  0  0  0  0
  -43.0105   55.5019   66.6965 C   0  0  0  0  0  0  0  0  0  0  0  0
  -43.7163   56.7289   67.2260 C   0  0  0  0  0  0  0  0  0  0  0  0
  -44.7960   57.1870   66.2510 C   0  0  0  0  0  0  0  0  0  0  0  0
  -44.1950   57.5130   64.9000 C   0  0  0  0  0  0  0  0  0  0  0  0
  -44.8100   58.5630   64.0190 C   0  0  0  0  0  0  0  0  0  0  0  0
  -43.0990   56.8650   64.4810 C   0  0  0  0  0  0  0  0  0  0  0  0
  -42.4910   57.1900   63.1360 C   0  0  0  0  0  0  0  0  0  0  0  0
  -41.0574   57.6762   63.3109 C   0  0  0  0  0  0  0  0  0  0  0  0
  -41.0312   58.9108   64.1856 C   0  0  0  0  0  0  0  0  0  0  0  0
  -42.3122   59.4621   64.7302 C   0  0  0  0  0  0  0  0  0  0  0  0
  -39.8679   59.5077   64.4847 C   0  0  0  0  0  0  0  0  0  0  0  0
  -39.8215   60.7389   65.3606 C   0  0  0  0  0  0  0  0  0  0  0  0
  -40.8291   54.8907   69.1404 H   0  0  0  0  0  0  0  0  0  0  0  0
  -42.4557   55.4752   69.3967 H   0  0  0  0  0  0  0  0  0  0  0  0
  -41.2780   56.4904   68.5994 H   0  0  0  0  0  0  0  0  0  0  0  0
  -39.6495   61.1604   67.2867 H   0  0  0  0  0  0  0  0  0  0  0  0
  -40.5905   53.3837   67.5647 H   0  0  0  0  0  0  0  0  0  0  0  0
  -40.8744   53.9405   65.9330 H   0  0  0  0  0  0  0  0  0  0  0  0
  -42.0513   52.9207   66.7254 H   0  0  0  0  0  0  0  0  0  0  0  0
  -43.2848   55.1079   65.7830 H   0  0  0  0  0  0  0  0  0  0  0  0
  -43.0035   57.5161   67.3571 H   0  0  0  0  0  0  0  0  0  0  0  0
  -44.1754   56.4871   68.1618 H   0  0  0  0  0  0  0  0  0  0  0  0
  -45.2747   58.0603   66.6422 H   0  0  0  0  0  0  0  0  0  0  0  0
  -45.5068   56.3965   66.1292 H   0  0  0  0  0  0  0  0  0  0  0  0
  -45.6701   58.9759   64.5033 H   0  0  0  0  0  0  0  0  0  0  0  0
  -45.1018   58.1219   63.0888 H   0  0  0  0  0  0  0  0  0  0  0  0
  -44.0961   59.3390   63.8373 H   0  0  0  0  0  0  0  0  0  0  0  0
  -42.6690   56.1419   65.0787 H   0  0  0  0  0  0  0  0  0  0  0  0
  -43.0688   57.9561   62.6626 H   0  0  0  0  0  0  0  0  0  0  0  0
  -42.4893   56.3075   62.5309 H   0  0  0  0  0  0  0  0  0  0  0  0
  -40.6442   57.9123   62.3526 H   0  0  0  0  0  0  0  0  0  0  0  0
  -40.4798   56.9047   63.7758 H   0  0  0  0  0  0  0  0  0  0  0  0
  -43.1312   58.8632   64.3904 H   0  0  0  0  0  0  0  0  0  0  0  0
  -42.4408   60.4683   64.3896 H   0  0  0  0  0  0  0  0  0  0  0  0
  -42.2802   59.4489   65.7996 H   0  0  0  0  0  0  0  0  0  0  0  0
  -38.9883   59.1193   64.1099 H   0  0  0  0  0  0  0  0  0  0  0  0
  -38.9896   61.3468   65.0718 H   0  0  0  0  0  0  0  0  0  0  0  0
  -40.7330   61.2865   65.2417 H   0  0  0  0  0  0  0  0  0  0  0  0
  1  3  1  0  0  0  0
  1 17  1  0  0  0  0
  1 18  1  0  0  0  0
  1 19  1  0  0  0  0
  2 16  1  0  0  0  0
  2 20  1  0  0  0  0
  3  4  1  0  0  0  0
  3  5  2  0  0  0  0
  4 21  1  0  0  0  0
  4 22  1  0  0  0  0
  4 23  1  0  0  0  0
  5  6  1  0  0  0  0
  5 24  1  0  0  0  0
  6  7  1  0  0  0  0
  6 25  1  0  0  0  0
  6 26  1  0  0  0  0
  7  8  1  0  0  0  0
  7 27  1  0  0  0  0
  7 28  1  0  0  0  0
  8  9  1  0  0  0  0
  8 10  2  0  0  0  0
  9 29  1  0  0  0  0
  9 30  1  0  0  0  0
  9 31  1  0  0  0  0
 10 11  1  0  0  0  0
 10 32  1  0  0  0  0
 11 12  1  0  0  0  0
 11 33  1  0  0  0  0
 11 34  1  0  0  0  0
 12 13  1  0  0  0  0
 12 35  1  0  0  0  0
 12 36  1  0  0  0  0
 13 14  1  0  0  0  0
 13 15  2  0  0  0  0
 14 37  1  0  0  0  0
 14 38  1  0  0  0  0
 14 39  1  0  0  0  0
 15 16  1  0  0  0  0
 15 40  1  0  0  0  0
 16 41  1  0  0  0  0
 16 42  1  0  0  0  0
M  END
$$$$
/media/chris/experiments/cd1a-new-docking/inputs/ligands/6nux_ligand.pdb
 OpenBabel07022319323D

 42 41  0  0  0  0  0  0  0  0999 V2000
  -47.2196   54.1111   64.5683 C   0  0  0  0  0  0  0  0  0  0  0  0
  -46.0935   54.5092   59.8545 O   0  0  0  0  0  0  0  0  0  0  0  0
  -47.5885   55.5590   64.4583 C   0  0  0  0  0  0  0  0  0  0  0  0
  -48.6864   55.9756   63.5264 C   0  0  0  0  0  0  0  0  0  0  0  0
  -46.9385   56.4801   65.1851 C   0  0  0  0  0  0  0  0  0  0  0  0
  -45.8295   56.0722   66.1275 C   0  0  0  0  0  0  0  0  0  0  0  0
  -44.7960   57.1870   66.2510 C   0  0  0  0  0  0  0  0  0  0  0  0
  -44.1950   57.5130   64.9000 C   0  0  0  0  0  0  0  0  0  0  0  0
  -44.8100   58.5630   64.0190 C   0  0  0  0  0  0  0  0  0  0  0  0
  -43.0990   56.8650   64.4810 C   0  0  0  0  0  0  0  0  0  0  0  0
  -42.4910   57.1900   63.1360 C   0  0  0  0  0  0  0  0  0  0  0  0
  -42.4834   55.9507   62.2493 C   0  0  0  0  0  0  0  0  0  0  0  0
  -43.8989   55.4647   62.0246 C   0  0  0  0  0  0  0  0  0  0  0  0
  -45.0440   56.1996   62.6492 C   0  0  0  0  0  0  0  0  0  0  0  0
  -44.1348   54.3872   61.2616 C   0  0  0  0  0  0  0  0  0  0  0  0
  -45.5420   53.8898   61.0218 C   0  0  0  0  0  0  0  0  0  0  0  0
  -47.8431   53.5338   63.9180 H   0  0  0  0  0  0  0  0  0  0  0  0
  -47.3570   53.7837   65.5776 H   0  0  0  0  0  0  0  0  0  0  0  0
  -46.1952   53.9817   64.2877 H   0  0  0  0  0  0  0  0  0  0  0  0
  -46.9956   54.1827   59.7108 H   0  0  0  0  0  0  0  0  0  0  0  0
  -49.0848   55.1121   63.0360 H   0  0  0  0  0  0  0  0  0  0  0  0
  -48.2961   56.6526   62.7955 H   0  0  0  0  0  0  0  0  0  0  0  0
  -49.4619   56.4595   64.0826 H   0  0  0  0  0  0  0  0  0  0  0  0
  -47.1978   57.4753   65.1002 H   0  0  0  0  0  0  0  0  0  0  0  0
  -45.3536   55.1911   65.7506 H   0  0  0  0  0  0  0  0  0  0  0  0
  -46.2490   55.8809   67.0930 H   0  0  0  0  0  0  0  0  0  0  0  0
  -44.0179   56.8724   66.9147 H   0  0  0  0  0  0  0  0  0  0  0  0
  -45.2787   58.0624   66.6326 H   0  0  0  0  0  0  0  0  0  0  0  0
  -45.6701   58.9759   64.5033 H   0  0  0  0  0  0  0  0  0  0  0  0
  -45.1018   58.1219   63.0888 H   0  0  0  0  0  0  0  0  0  0  0  0
  -44.0961   59.3390   63.8373 H   0  0  0  0  0  0  0  0  0  0  0  0
  -42.6690   56.1419   65.0787 H   0  0  0  0  0  0  0  0  0  0  0  0
  -41.4865   57.5313   63.2752 H   0  0  0  0  0  0  0  0  0  0  0  0
  -43.0738   57.9535   62.6644 H   0  0  0  0  0  0  0  0  0  0  0  0
  -41.9153   55.1786   62.7248 H   0  0  0  0  0  0  0  0  0  0  0  0
  -42.0433   56.1973   61.3057 H   0  0  0  0  0  0  0  0  0  0  0  0
  -44.6702   57.0250   63.2183 H   0  0  0  0  0  0  0  0  0  0  0  0
  -45.5839   55.5375   63.2935 H   0  0  0  0  0  0  0  0  0  0  0  0
  -45.6964   56.5615   61.8822 H   0  0  0  0  0  0  0  0  0  0  0  0
  -43.3409   53.8885   60.8301 H   0  0  0  0  0  0  0  0  0  0  0  0
  -45.5231   52.8289   60.8835 H   0  0  0  0  0  0  0  0  0  0  0  0
  -46.1486   54.1372   61.8678 H   0  0  0  0  0  0  0  0  0  0  0  0
  1  3  1  0  0  0  0
  1 17  1  0  0  0  0
  1 18  1  0  0  0  0
  1 19  1  0  0  0  0
  2 16  1  0  0  0  0
  2 20  1  0  0  0  0
  3  4  1  0  0  0  0
  3  5  2  0  0  0  0
  4 21  1  0  0  0  0
  4 22  1  0  0  0  0
  4 23  1  0  0  0  0
  5  6  1  0  0  0  0
  5 24  1  0  0  0  0
  6  7  1  0  0  0  0
  6 25  1  0  0  0  0
  6 26  1  0  0  0  0
  7  8  1  0  0  0  0
  7 27  1  0  0  0  0
  7 28  1  0  0  0  0
  8  9  1  0  0  0  0
  8 10  2  0  0  0  0
  9 29  1  0  0  0  0
  9 30  1  0  0  0  0
  9 31  1  0  0  0  0
 10 11  1  0  0  0  0
 10 32  1  0  0  0  0
 11 12  1  0  0  0  0
 11 33  1  0  0  0  0
 11 34  1  0  0  0  0
 12 13  1  0  0  0  0
 12 35  1  0  0  0  0
 12 36  1  0  0  0  0
 13 14  1  0  0  0  0
 13 15  2  0  0  0  0
 14 37  1  0  0  0  0
 14 38  1  0  0  0  0
 14 39  1  0  0  0  0
 15 16  1  0  0  0  0
 15 40  1  0  0  0  0
 16 41  1  0  0  0  0
 16 42  1  0  0  0  0
M  END
$$$$
/media/chris/experiments/cd1a-new-docking/inputs/ligands/6nux_ligand.pdb
 OpenBabel07022319323D

 42 41  0  0  0  0  0  0  0  0999 V2000
  -43.9996   54.8817   66.0837 C   0  0  0  0  0  0  0  0  0  0  0  0
  -38.2587   57.9434   65.5270 O   0  0  0  0  0  0  0  0  0  0  0  0
  -45.2153   54.5811   65.2613 C   0  0  0  0  0  0  0  0  0  0  0  0
  -45.2581   53.3346   64.4296 C   0  0  0  0  0  0  0  0  0  0  0  0
  -46.2593   55.4233   65.2639 C   0  0  0  0  0  0  0  0  0  0  0  0
  -46.2274   56.6833   66.0979 C   0  0  0  0  0  0  0  0  0  0  0  0
  -44.7960   57.1870   66.2510 C   0  0  0  0  0  0  0  0  0  0  0  0
  -44.1950   57.5130   64.9000 C   0  0  0  0  0  0  0  0  0  0  0  0
  -44.8100   58.5630   64.0190 C   0  0  0  0  0  0  0  0  0  0  0  0
  -43.0990   56.8650   64.4810 C   0  0  0  0  0  0  0  0  0  0  0  0
  -42.4910   57.1900   63.1360 C   0  0  0  0  0  0  0  0  0  0  0  0
  -42.0598   58.6510   63.0933 C   0  0  0  0  0  0  0  0  0  0  0  0
  -41.0198   58.9165   64.1602 C   0  0  0  0  0  0  0  0  0  0  0  0
  -40.4558   60.2940   64.3205 C   0  0  0  0  0  0  0  0  0  0  0  0
  -40.6082   57.9291   64.9691 C   0  0  0  0  0  0  0  0  0  0  0  0
  -39.5738   58.1762   66.0435 C   0  0  0  0  0  0  0  0  0  0  0  0
  -43.2791   54.1014   65.9536 H   0  0  0  0  0  0  0  0  0  0  0  0
  -44.2740   54.9453   67.1159 H   0  0  0  0  0  0  0  0  0  0  0  0
  -43.5774   55.8131   65.7688 H   0  0  0  0  0  0  0  0  0  0  0  0
  -37.6042   58.1049   66.2244 H   0  0  0  0  0  0  0  0  0  0  0  0
  -44.3444   52.7917   64.5534 H   0  0  0  0  0  0  0  0  0  0  0  0
  -45.3802   53.5972   63.3995 H   0  0  0  0  0  0  0  0  0  0  0  0
  -46.0802   52.7253   64.7422 H   0  0  0  0  0  0  0  0  0  0  0  0
  -47.0910   55.2091   64.6918 H   0  0  0  0  0  0  0  0  0  0  0  0
  -46.6328   56.4751   67.0660 H   0  0  0  0  0  0  0  0  0  0  0  0
  -46.8087   57.4367   65.6086 H   0  0  0  0  0  0  0  0  0  0  0  0
  -44.2062   56.4300   66.7242 H   0  0  0  0  0  0  0  0  0  0  0  0
  -44.8064   58.0762   66.8461 H   0  0  0  0  0  0  0  0  0  0  0  0
  -45.6701   58.9759   64.5033 H   0  0  0  0  0  0  0  0  0  0  0  0
  -45.1018   58.1219   63.0888 H   0  0  0  0  0  0  0  0  0  0  0  0
  -44.0961   59.3390   63.8373 H   0  0  0  0  0  0  0  0  0  0  0  0
  -42.6690   56.1419   65.0787 H   0  0  0  0  0  0  0  0  0  0  0  0
  -43.2151   57.0125   62.3685 H   0  0  0  0  0  0  0  0  0  0  0  0
  -41.6343   56.5681   62.9804 H   0  0  0  0  0  0  0  0  0  0  0  0
  -42.9108   59.2765   63.2650 H   0  0  0  0  0  0  0  0  0  0  0  0
  -41.6394   58.8646   62.1329 H   0  0  0  0  0  0  0  0  0  0  0  0
  -40.8960   60.9463   63.5955 H   0  0  0  0  0  0  0  0  0  0  0  0
  -39.3959   60.2645   64.1768 H   0  0  0  0  0  0  0  0  0  0  0  0
  -40.6723   60.6559   65.3039 H   0  0  0  0  0  0  0  0  0  0  0  0
  -41.0049   56.9831   64.8561 H   0  0  0  0  0  0  0  0  0  0  0  0
  -39.6475   59.1897   66.3786 H   0  0  0  0  0  0  0  0  0  0  0  0
  -39.7517   57.5076   66.8597 H   0  0  0  0  0  0  0  0  0  0  0  0
  1  3  1  0  0  0  0
  1 17  1  0  0  0  0
  1 18  1  0  0  0  0
  1 19  1  0  0  0  0
  2 16  1  0  0  0  0
  2 20  1  0  0  0  0
  3  4  1  0  0  0  0
  3  5  2  0  0  0  0
  4 21  1  0  0  0  0
  4 22  1  0  0  0  0
  4 23  1  0  0  0  0
  5  6  1  0  0  0  0
  5 24  1  0  0  0  0
  6  7  1  0  0  0  0
  6 25  1  0  0  0  0
  6 26  1  0  0  0  0
  7  8  1  0  0  0  0
  7 27  1  0  0  0  0
  7 28  1  0  0  0  0
  8  9  1  0  0  0  0
  8 10  2  0  0  0  0
  9 29  1  0  0  0  0
  9 30  1  0  0  0  0
  9 31  1  0  0  0  0
 10 11  1  0  0  0  0
 10 32  1  0  0  0  0
 11 12  1  0  0  0  0
 11 33  1  0  0  0  0
 11 34  1  0  0  0  0
 12 13  1  0  0  0  0
 12 35  1  0  0  0  0
 12 36  1  0  0  0  0
 13 14  1  0  0  0  0
 13 15  2  0  0  0  0
 14 37  1  0  0  0  0
 14 38  1  0  0  0  0
 14 39  1  0  0  0  0
 15 16  1  0  0  0  0
 15 40  1  0  0  0  0
 16 41  1  0  0  0  0
 16 42  1  0  0  0  0
M  END
$$$$
/media/chris/experiments/cd1a-new-docking/inputs/ligands/6nux_ligand.pdb
 OpenBabel07022319323D

 42 41  0  0  0  0  0  0  0  0999 V2000
  -44.3214   56.4464   68.5347 C   0  0  0  0  0  0  0  0  0  0  0  0
  -39.9440   55.9033   58.6641 O   0  0  0  0  0  0  0  0  0  0  0  0
  -45.7303   55.9410   68.6006 C   0  0  0  0  0  0  0  0  0  0  0  0
  -46.3448   55.6300   69.9321 C   0  0  0  0  0  0  0  0  0  0  0  0
  -46.4385   55.7627   67.4756 C   0  0  0  0  0  0  0  0  0  0  0  0
  -45.8295   56.0722   66.1275 C   0  0  0  0  0  0  0  0  0  0  0  0
  -44.7960   57.1870   66.2510 C   0  0  0  0  0  0  0  0  0  0  0  0
  -44.1950   57.5130   64.9000 C   0  0  0  0  0  0  0  0  0  0  0  0
  -44.8100   58.5630   64.0190 C   0  0  0  0  0  0  0  0  0  0  0  0
  -43.0990   56.8650   64.4810 C   0  0  0  0  0  0  0  0  0  0  0  0
  -42.4910   57.1900   63.1360 C   0  0  0  0  0  0  0  0  0  0  0  0
  -42.4834   55.9507   62.2493 C   0  0  0  0  0  0  0  0  0  0  0  0
  -41.8584   56.2748   60.9097 C   0  0  0  0  0  0  0  0  0  0  0  0
  -42.6586   56.1029   59.6561 C   0  0  0  0  0  0  0  0  0  0  0  0
  -40.5969   56.7247   60.8391 C   0  0  0  0  0  0  0  0  0  0  0  0
  -39.9572   57.0582   59.5106 C   0  0  0  0  0  0  0  0  0  0  0  0
  -43.9234   56.5232   69.5250 H   0  0  0  0  0  0  0  0  0  0  0  0
  -44.3095   57.4100   68.0698 H   0  0  0  0  0  0  0  0  0  0  0  0
  -43.7251   55.7669   67.9624 H   0  0  0  0  0  0  0  0  0  0  0  0
  -39.5317   56.1291   57.8156 H   0  0  0  0  0  0  0  0  0  0  0  0
  -45.6361   55.8321   70.7080 H   0  0  0  0  0  0  0  0  0  0  0  0
  -46.6236   54.5975   69.9639 H   0  0  0  0  0  0  0  0  0  0  0  0
  -47.2133   56.2385   70.0750 H   0  0  0  0  0  0  0  0  0  0  0  0
  -47.4073   55.4113   67.5310 H   0  0  0  0  0  0  0  0  0  0  0  0
  -46.6020   56.3813   65.4548 H   0  0  0  0  0  0  0  0  0  0  0  0
  -45.3467   55.1926   65.7559 H   0  0  0  0  0  0  0  0  0  0  0  0
  -44.0179   56.8724   66.9147 H   0  0  0  0  0  0  0  0  0  0  0  0
  -45.2787   58.0624   66.6326 H   0  0  0  0  0  0  0  0  0  0  0  0
  -45.6701   58.9759   64.5033 H   0  0  0  0  0  0  0  0  0  0  0  0
  -45.1018   58.1219   63.0888 H   0  0  0  0  0  0  0  0  0  0  0  0
  -44.0961   59.3390   63.8373 H   0  0  0  0  0  0  0  0  0  0  0  0
  -42.6690   56.1419   65.0787 H   0  0  0  0  0  0  0  0  0  0  0  0
  -41.4865   57.5313   63.2752 H   0  0  0  0  0  0  0  0  0  0  0  0
  -43.0738   57.9535   62.6644 H   0  0  0  0  0  0  0  0  0  0  0  0
  -43.4887   55.6164   62.0994 H   0  0  0  0  0  0  0  0  0  0  0  0
  -41.9120   55.1819   62.7261 H   0  0  0  0  0  0  0  0  0  0  0  0
  -43.6339   55.7382   59.9027 H   0  0  0  0  0  0  0  0  0  0  0  0
  -42.1681   55.4024   59.0130 H   0  0  0  0  0  0  0  0  0  0  0  0
  -42.7459   57.0451   59.1567 H   0  0  0  0  0  0  0  0  0  0  0  0
  -40.0528   56.8455   61.7077 H   0  0  0  0  0  0  0  0  0  0  0  0
  -40.5150   57.8381   59.0357 H   0  0  0  0  0  0  0  0  0  0  0  0
  -38.9505   57.3792   59.6787 H   0  0  0  0  0  0  0  0  0  0  0  0
  1  3  1  0  0  0  0
  1 17  1  0  0  0  0
  1 18  1  0  0  0  0
  1 19  1  0  0  0  0
  2 16  1  0  0  0  0
  2 20  1  0  0  0  0
  3  4  1  0  0  0  0
  3  5  2  0  0  0  0
  4 21  1  0  0  0  0
  4 22  1  0  0  0  0
  4 23  1  0  0  0  0
  5  6  1  0  0  0  0
  5 24  1  0  0  0  0
  6  7  1  0  0  0  0
  6 25  1  0  0  0  0
  6 26  1  0  0  0  0
  7  8  1  0  0  0  0
  7 27  1  0  0  0  0
  7 28  1  0  0  0  0
  8  9  1  0  0  0  0
  8 10  2  0  0  0  0
  9 29  1  0  0  0  0
  9 30  1  0  0  0  0
  9 31  1  0  0  0  0
 10 11  1  0  0  0  0
 10 32  1  0  0  0  0
 11 12  1  0  0  0  0
 11 33  1  0  0  0  0
 11 34  1  0  0  0  0
 12 13  1  0  0  0  0
 12 35  1  0  0  0  0
 12 36  1  0  0  0  0
 13 14  1  0  0  0  0
 13 15  2  0  0  0  0
 14 37  1  0  0  0  0
 14 38  1  0  0  0  0
 14 39  1  0  0  0  0
 15 16  1  0  0  0  0
 15 40  1  0  0  0  0
 16 41  1  0  0  0  0
 16 42  1  0  0  0  0
M  END
$$$$
/media/chris/experiments/cd1a-new-docking/inputs/ligands/6nux_ligand.pdb
 OpenBabel07022319323D

 42 41  0  0  0  0  0  0  0  0999 V2000
  -47.2196   54.1111   64.5683 C   0  0  0  0  0  0  0  0  0  0  0  0
  -43.2056   62.7653   62.6676 O   0  0  0  0  0  0  0  0  0  0  0  0
  -47.5885   55.5590   64.4583 C   0  0  0  0  0  0  0  0  0  0  0  0
  -48.6864   55.9756   63.5264 C   0  0  0  0  0  0  0  0  0  0  0  0
  -46.9385   56.4801   65.1851 C   0  0  0  0  0  0  0  0  0  0  0  0
  -45.8295   56.0722   66.1275 C   0  0  0  0  0  0  0  0  0  0  0  0
  -44.7960   57.1870   66.2510 C   0  0  0  0  0  0  0  0  0  0  0  0
  -44.1950   57.5130   64.9000 C   0  0  0  0  0  0  0  0  0  0  0  0
  -44.8100   58.5630   64.0190 C   0  0  0  0  0  0  0  0  0  0  0  0
  -43.0990   56.8650   64.4810 C   0  0  0  0  0  0  0  0  0  0  0  0
  -42.4910   57.1900   63.1360 C   0  0  0  0  0  0  0  0  0  0  0  0
  -41.4500   58.2932   63.2825 C   0  0  0  0  0  0  0  0  0  0  0  0
  -42.0902   59.5377   63.8584 C   0  0  0  0  0  0  0  0  0  0  0  0
  -42.7281   59.4860   65.2119 C   0  0  0  0  0  0  0  0  0  0  0  0
  -42.0806   60.6883   63.1693 C   0  0  0  0  0  0  0  0  0  0  0  0
  -42.7108   61.9427   63.7301 C   0  0  0  0  0  0  0  0  0  0  0  0
  -47.8431   53.5338   63.9180 H   0  0  0  0  0  0  0  0  0  0  0  0
  -47.3570   53.7837   65.5776 H   0  0  0  0  0  0  0  0  0  0  0  0
  -46.1952   53.9817   64.2877 H   0  0  0  0  0  0  0  0  0  0  0  0
  -43.6072   63.5663   63.0391 H   0  0  0  0  0  0  0  0  0  0  0  0
  -49.0848   55.1121   63.0360 H   0  0  0  0  0  0  0  0  0  0  0  0
  -48.2961   56.6526   62.7955 H   0  0  0  0  0  0  0  0  0  0  0  0
  -49.4619   56.4595   64.0826 H   0  0  0  0  0  0  0  0  0  0  0  0
  -47.1978   57.4753   65.1002 H   0  0  0  0  0  0  0  0  0  0  0  0
  -45.3536   55.1911   65.7506 H   0  0  0  0  0  0  0  0  0  0  0  0
  -46.2490   55.8809   67.0930 H   0  0  0  0  0  0  0  0  0  0  0  0
  -44.0179   56.8724   66.9147 H   0  0  0  0  0  0  0  0  0  0  0  0
  -45.2787   58.0624   66.6326 H   0  0  0  0  0  0  0  0  0  0  0  0
  -45.6701   58.9759   64.5033 H   0  0  0  0  0  0  0  0  0  0  0  0
  -45.1018   58.1219   63.0888 H   0  0  0  0  0  0  0  0  0  0  0  0
  -44.0961   59.3390   63.8373 H   0  0  0  0  0  0  0  0  0  0  0  0
  -42.6690   56.1419   65.0787 H   0  0  0  0  0  0  0  0  0  0  0  0
  -43.2615   57.5172   62.4695 H   0  0  0  0  0  0  0  0  0  0  0  0
  -42.0183   56.3132   62.7452 H   0  0  0  0  0  0  0  0  0  0  0  0
  -41.0365   58.5197   62.3220 H   0  0  0  0  0  0  0  0  0  0  0  0
  -40.6761   57.9597   63.9420 H   0  0  0  0  0  0  0  0  0  0  0  0
  -42.6421   58.4962   65.6091 H   0  0  0  0  0  0  0  0  0  0  0  0
  -43.7621   59.7485   65.1291 H   0  0  0  0  0  0  0  0  0  0  0  0
  -42.2360   60.1763   65.8647 H   0  0  0  0  0  0  0  0  0  0  0  0
  -41.6348   60.7178   62.2390 H   0  0  0  0  0  0  0  0  0  0  0  0
  -43.5210   61.6733   64.3750 H   0  0  0  0  0  0  0  0  0  0  0  0
  -41.9725   62.4887   64.2794 H   0  0  0  0  0  0  0  0  0  0  0  0
  1  3  1  0  0  0  0
  1 17  1  0  0  0  0
  1 18  1  0  0  0  0
  1 19  1  0  0  0  0
  2 16  1  0  0  0  0
  2 20  1  0  0  0  0
  3  4  1  0  0  0  0
  3  5  2  0  0  0  0
  4 21  1  0  0  0  0
  4 22  1  0  0  0  0
  4 23  1  0  0  0  0
  5  6  1  0  0  0  0
  5 24  1  0  0  0  0
  6  7  1  0  0  0  0
  6 25  1  0  0  0  0
  6 26  1  0  0  0  0
  7  8  1  0  0  0  0
  7 27  1  0  0  0  0
  7 28  1  0  0  0  0
  8  9  1  0  0  0  0
  8 10  2  0  0  0  0
  9 29  1  0  0  0  0
  9 30  1  0  0  0  0
  9 31  1  0  0  0  0
 10 11  1  0  0  0  0
 10 32  1  0  0  0  0
 11 12  1  0  0  0  0
 11 33  1  0  0  0  0
 11 34  1  0  0  0  0
 12 13  1  0  0  0  0
 12 35  1  0  0  0  0
 12 36  1  0  0  0  0
 13 14  1  0  0  0  0
 13 15  2  0  0  0  0
 14 37  1  0  0  0  0
 14 38  1  0  0  0  0
 14 39  1  0  0  0  0
 15 16  1  0  0  0  0
 15 40  1  0  0  0  0
 16 41  1  0  0  0  0
 16 42  1  0  0  0  0
M  END
$$$$
/media/chris/experiments/cd1a-new-docking/inputs/ligands/6nux_ligand.pdb
 OpenBabel07022319323D

 42 41  0  0  0  0  0  0  0  0999 V2000
  -43.9996   54.8817   66.0837 C   0  0  0  0  0  0  0  0  0  0  0  0
  -42.4271   61.7378   64.8917 O   0  0  0  0  0  0  0  0  0  0  0  0
  -45.2153   54.5811   65.2613 C   0  0  0  0  0  0  0  0  0  0  0  0
  -45.2581   53.3346   64.4296 C   0  0  0  0  0  0  0  0  0  0  0  0
  -46.2593   55.4233   65.2639 C   0  0  0  0  0  0  0  0  0  0  0  0
  -46.2274   56.6833   66.0979 C   0  0  0  0  0  0  0  0  0  0  0  0
  -44.7960   57.1870   66.2510 C   0  0  0  0  0  0  0  0  0  0  0  0
  -44.1950   57.5130   64.9000 C   0  0  0  0  0  0  0  0  0  0  0  0
  -44.8100   58.5630   64.0190 C   0  0  0  0  0  0  0  0  0  0  0  0
  -43.0990   56.8650   64.4810 C   0  0  0  0  0  0  0  0  0  0  0  0
  -42.4910   57.1900   63.1360 C   0  0  0  0  0  0  0  0  0  0  0  0
  -41.0574   57.6762   63.3109 C   0  0  0  0  0  0  0  0  0  0  0  0
  -41.0312   58.9108   64.1856 C   0  0  0  0  0  0  0  0  0  0  0  0
  -40.8848   58.7669   65.6687 C   0  0  0  0  0  0  0  0  0  0  0  0
  -41.1275   60.1325   63.6405 C   0  0  0  0  0  0  0  0  0  0  0  0
  -41.0985   61.3774   64.4976 C   0  0  0  0  0  0  0  0  0  0  0  0
  -43.2791   54.1014   65.9536 H   0  0  0  0  0  0  0  0  0  0  0  0
  -44.2740   54.9453   67.1159 H   0  0  0  0  0  0  0  0  0  0  0  0
  -43.5774   55.8131   65.7688 H   0  0  0  0  0  0  0  0  0  0  0  0
  -42.3960   62.5370   65.4406 H   0  0  0  0  0  0  0  0  0  0  0  0
  -44.3444   52.7917   64.5534 H   0  0  0  0  0  0  0  0  0  0  0  0
  -45.3802   53.5972   63.3995 H   0  0  0  0  0  0  0  0  0  0  0  0
  -46.0802   52.7253   64.7422 H   0  0  0  0  0  0  0  0  0  0  0  0
  -47.0910   55.2091   64.6918 H   0  0  0  0  0  0  0  0  0  0  0  0
  -46.6328   56.4751   67.0660 H   0  0  0  0  0  0  0  0  0  0  0  0
  -46.8087   57.4367   65.6086 H   0  0  0  0  0  0  0  0  0  0  0  0
  -44.2062   56.4300   66.7242 H   0  0  0  0  0  0  0  0  0  0  0  0
  -44.8064   58.0762   66.8461 H   0  0  0  0  0  0  0  0  0  0  0  0
  -45.6701   58.9759   64.5033 H   0  0  0  0  0  0  0  0  0  0  0  0
  -45.1018   58.1219   63.0888 H   0  0  0  0  0  0  0  0  0  0  0  0
  -44.0961   59.3390   63.8373 H   0  0  0  0  0  0  0  0  0  0  0  0
  -42.6690   56.1419   65.0787 H   0  0  0  0  0  0  0  0  0  0  0  0
  -43.0688   57.9561   62.6626 H   0  0  0  0  0  0  0  0  0  0  0  0
  -42.4893   56.3075   62.5309 H   0  0  0  0  0  0  0  0  0  0  0  0
  -40.6442   57.9123   62.3526 H   0  0  0  0  0  0  0  0  0  0  0  0
  -40.4798   56.9047   63.7758 H   0  0  0  0  0  0  0  0  0  0  0  0
  -40.8229   57.7292   65.9219 H   0  0  0  0  0  0  0  0  0  0  0  0
  -41.7325   59.2028   66.1547 H   0  0  0  0  0  0  0  0  0  0  0  0
  -39.9942   59.2660   65.9892 H   0  0  0  0  0  0  0  0  0  0  0  0
  -41.2233   60.2243   62.6171 H   0  0  0  0  0  0  0  0  0  0  0  0
  -40.5089   61.1915   65.3710 H   0  0  0  0  0  0  0  0  0  0  0  0
  -40.6721   62.1800   63.9329 H   0  0  0  0  0  0  0  0  0  0  0  0
  1  3  1  0  0  0  0
  1 17  1  0  0  0  0
  1 18  1  0  0  0  0
  1 19  1  0  0  0  0
  2 16  1  0  0  0  0
  2 20  1  0  0  0  0
  3  4  1  0  0  0  0
  3  5  2  0  0  0  0
  4 21  1  0  0  0  0
  4 22  1  0  0  0  0
  4 23  1  0  0  0  0
  5  6  1  0  0  0  0
  5 24  1  0  0  0  0
  6  7  1  0  0  0  0
  6 25  1  0  0  0  0
  6 26  1  0  0  0  0
  7  8  1  0  0  0  0
  7 27  1  0  0  0  0
  7 28  1  0  0  0  0
  8  9  1  0  0  0  0
  8 10  2  0  0  0  0
  9 29  1  0  0  0  0
  9 30  1  0  0  0  0
  9 31  1  0  0  0  0
 10 11  1  0  0  0  0
 10 32  1  0  0  0  0
 11 12  1  0  0  0  0
 11 33  1  0  0  0  0
 11 34  1  0  0  0  0
 12 13  1  0  0  0  0
 12 35  1  0  0  0  0
 12 36  1  0  0  0  0
 13 14  1  0  0  0  0
 13 15  2  0  0  0  0
 14 37  1  0  0  0  0
 14 38  1  0  0  0  0
 14 39  1  0  0  0  0
 15 16  1  0  0  0  0
 15 40  1  0  0  0  0
 16 41  1  0  0  0  0
 16 42  1  0  0  0  0
M  END
$$$$
/media/chris/experiments/cd1a-new-docking/inputs/ligands/6nux_ligand.pdb
 OpenBabel07022319323D

 42 41  0  0  0  0  0  0  0  0999 V2000
  -43.1852   60.0829   69.1070 C   0  0  0  0  0  0  0  0  0  0  0  0
  -37.6275   59.1646   65.3497 O   0  0  0  0  0  0  0  0  0  0  0  0
  -43.9709   60.4653   67.8900 C   0  0  0  0  0  0  0  0  0  0  0  0
  -44.2362   61.9127   67.6034 C   0  0  0  0  0  0  0  0  0  0  0  0
  -44.4392   59.5196   67.0621 C   0  0  0  0  0  0  0  0  0  0  0  0
  -44.1787   58.0572   67.3408 C   0  0  0  0  0  0  0  0  0  0  0  0
  -44.7960   57.1870   66.2510 C   0  0  0  0  0  0  0  0  0  0  0  0
  -44.1950   57.5130   64.9000 C   0  0  0  0  0  0  0  0  0  0  0  0
  -44.8100   58.5630   64.0190 C   0  0  0  0  0  0  0  0  0  0  0  0
  -43.0990   56.8650   64.4810 C   0  0  0  0  0  0  0  0  0  0  0  0
  -42.4910   57.1900   63.1360 C   0  0  0  0  0  0  0  0  0  0  0  0
  -40.9848   56.9614   63.1710 C   0  0  0  0  0  0  0  0  0  0  0  0
  -40.3519   57.8347   64.2327 C   0  0  0  0  0  0  0  0  0  0  0  0
  -40.9768   59.1497   64.5817 C   0  0  0  0  0  0  0  0  0  0  0  0
  -39.2419   57.4340   64.8699 C   0  0  0  0  0  0  0  0  0  0  0  0
  -38.5982   58.2905   65.9363 C   0  0  0  0  0  0  0  0  0  0  0  0
  -42.8993   60.9661   69.6390 H   0  0  0  0  0  0  0  0  0  0  0  0
  -42.3087   59.5452   68.8112 H   0  0  0  0  0  0  0  0  0  0  0  0
  -43.7866   59.4642   69.7398 H   0  0  0  0  0  0  0  0  0  0  0  0
  -37.2216   59.7085   66.0427 H   0  0  0  0  0  0  0  0  0  0  0  0
  -43.7890   62.5151   68.3663 H   0  0  0  0  0  0  0  0  0  0  0  0
  -45.2921   62.0851   67.5860 H   0  0  0  0  0  0  0  0  0  0  0  0
  -43.8170   62.1709   66.6535 H   0  0  0  0  0  0  0  0  0  0  0  0
  -44.9820   59.7928   66.2279 H   0  0  0  0  0  0  0  0  0  0  0  0
  -44.6090   57.7968   68.2852 H   0  0  0  0  0  0  0  0  0  0  0  0
  -43.1217   57.8915   67.3586 H   0  0  0  0  0  0  0  0  0  0  0  0
  -45.8510   57.3622   66.2174 H   0  0  0  0  0  0  0  0  0  0  0  0
  -44.5967   56.1603   66.4770 H   0  0  0  0  0  0  0  0  0  0  0  0
  -45.6701   58.9759   64.5033 H   0  0  0  0  0  0  0  0  0  0  0  0
  -45.1018   58.1219   63.0888 H   0  0  0  0  0  0  0  0  0  0  0  0
  -44.0961   59.3390   63.8373 H   0  0  0  0  0  0  0  0  0  0  0  0
  -42.6690   56.1419   65.0787 H   0  0  0  0  0  0  0  0  0  0  0  0
  -42.6877   58.2143   62.8973 H   0  0  0  0  0  0  0  0  0  0  0  0
  -42.9240   56.5526   62.3936 H   0  0  0  0  0  0  0  0  0  0  0  0
  -40.5673   57.2056   62.2166 H   0  0  0  0  0  0  0  0  0  0  0  0
  -40.7912   55.9344   63.4006 H   0  0  0  0  0  0  0  0  0  0  0  0
  -41.8467   59.3027   63.9777 H   0  0  0  0  0  0  0  0  0  0  0  0
  -40.2749   59.9371   64.4020 H   0  0  0  0  0  0  0  0  0  0  0  0
  -41.2555   59.1492   65.6148 H   0  0  0  0  0  0  0  0  0  0  0  0
  -38.8194   56.5241   64.6276 H   0  0  0  0  0  0  0  0  0  0  0  0
  -39.3513   58.8744   66.4229 H   0  0  0  0  0  0  0  0  0  0  0  0
  -38.1118   57.6557   66.6473 H   0  0  0  0  0  0  0  0  0  0  0  0
  1  3  1  0  0  0  0
  1 17  1  0  0  0  0
  1 18  1  0  0  0  0
  1 19  1  0  0  0  0
  2 16  1  0  0  0  0
  2 20  1  0  0  0  0
  3  4  1  0  0  0  0
  3  5  2  0  0  0  0
  4 21  1  0  0  0  0
  4 22  1  0  0  0  0
  4 23  1  0  0  0  0
  5  6  1  0  0  0  0
  5 24  1  0  0  0  0
  6  7  1  0  0  0  0
  6 25  1  0  0  0  0
  6 26  1  0  0  0  0
  7  8  1  0  0  0  0
  7 27  1  0  0  0  0
  7 28  1  0  0  0  0
  8  9  1  0  0  0  0
  8 10  2  0  0  0  0
  9 29  1  0  0  0  0
  9 30  1  0  0  0  0
  9 31  1  0  0  0  0
 10 11  1  0  0  0  0
 10 32  1  0  0  0  0
 11 12  1  0  0  0  0
 11 33  1  0  0  0  0
 11 34  1  0  0  0  0
 12 13  1  0  0  0  0
 12 35  1  0  0  0  0
 12 36  1  0  0  0  0
 13 14  1  0  0  0  0
 13 15  2  0  0  0  0
 14 37  1  0  0  0  0
 14 38  1  0  0  0  0
 14 39  1  0  0  0  0
 15 16  1  0  0  0  0
 15 40  1  0  0  0  0
 16 41  1  0  0  0  0
 16 42  1  0  0  0  0
M  END
$$$$
/media/chris/experiments/cd1a-new-docking/inputs/ligands/6nux_ligand.pdb
 OpenBabel07022319323D

 42 41  0  0  0  0  0  0  0  0999 V2000
  -46.6560   55.0857   67.1283 C   0  0  0  0  0  0  0  0  0  0  0  0
  -47.3398   56.9905   63.6031 O   0  0  0  0  0  0  0  0  0  0  0  0
  -45.8484   55.2927   68.3731 C   0  0  0  0  0  0  0  0  0  0  0  0
  -46.4470   54.9658   69.7081 C   0  0  0  0  0  0  0  0  0  0  0  0
  -44.5980   55.7720   68.2966 C   0  0  0  0  0  0  0  0  0  0  0  0
  -43.9840   56.1057   66.9565 C   0  0  0  0  0  0  0  0  0  0  0  0
  -44.7960   57.1870   66.2510 C   0  0  0  0  0  0  0  0  0  0  0  0
  -44.1950   57.5130   64.9000 C   0  0  0  0  0  0  0  0  0  0  0  0
  -44.8100   58.5630   64.0190 C   0  0  0  0  0  0  0  0  0  0  0  0
  -43.0990   56.8650   64.4810 C   0  0  0  0  0  0  0  0  0  0  0  0
  -42.4910   57.1900   63.1360 C   0  0  0  0  0  0  0  0  0  0  0  0
  -43.0966   56.3008   62.0568 C   0  0  0  0  0  0  0  0  0  0  0  0
  -44.5896   56.5329   61.9705 C   0  0  0  0  0  0  0  0  0  0  0  0
  -45.1260   57.5770   61.0412 C   0  0  0  0  0  0  0  0  0  0  0  0
  -45.4352   55.8028   62.7126 C   0  0  0  0  0  0  0  0  0  0  0  0
  -46.9297   56.0170   62.6364 C   0  0  0  0  0  0  0  0  0  0  0  0
  -47.6197   54.7003   67.3884 H   0  0  0  0  0  0  0  0  0  0  0  0
  -46.1541   54.3896   66.4892 H   0  0  0  0  0  0  0  0  0  0  0  0
  -46.7709   56.0193   66.6184 H   0  0  0  0  0  0  0  0  0  0  0  0
  -48.2994   57.1195   63.5450 H   0  0  0  0  0  0  0  0  0  0  0  0
  -47.4428   54.5988   69.5722 H   0  0  0  0  0  0  0  0  0  0  0  0
  -46.4713   55.8476   70.3136 H   0  0  0  0  0  0  0  0  0  0  0  0
  -45.8540   54.2176   70.1913 H   0  0  0  0  0  0  0  0  0  0  0  0
  -44.0506   55.9140   69.1599 H   0  0  0  0  0  0  0  0  0  0  0  0
  -43.9664   55.2256   66.3483 H   0  0  0  0  0  0  0  0  0  0  0  0
  -42.9889   56.4667   67.1122 H   0  0  0  0  0  0  0  0  0  0  0  0
  -44.8032   58.0706   66.8545 H   0  0  0  0  0  0  0  0  0  0  0  0
  -45.7934   56.8279   66.1058 H   0  0  0  0  0  0  0  0  0  0  0  0
  -45.6701   58.9759   64.5033 H   0  0  0  0  0  0  0  0  0  0  0  0
  -45.1018   58.1219   63.0888 H   0  0  0  0  0  0  0  0  0  0  0  0
  -44.0961   59.3390   63.8373 H   0  0  0  0  0  0  0  0  0  0  0  0
  -42.6690   56.1419   65.0787 H   0  0  0  0  0  0  0  0  0  0  0  0
  -41.4343   57.0266   63.1769 H   0  0  0  0  0  0  0  0  0  0  0  0
  -42.6932   58.2137   62.8993 H   0  0  0  0  0  0  0  0  0  0  0  0
  -42.9111   55.2750   62.2979 H   0  0  0  0  0  0  0  0  0  0  0  0
  -42.6496   56.5393   61.1143 H   0  0  0  0  0  0  0  0  0  0  0  0
  -44.3136   58.0556   60.5353 H   0  0  0  0  0  0  0  0  0  0  0  0
  -45.6756   58.3045   61.6012 H   0  0  0  0  0  0  0  0  0  0  0  0
  -45.7722   57.1172   60.3229 H   0  0  0  0  0  0  0  0  0  0  0  0
  -45.0586   55.0814   63.3473 H   0  0  0  0  0  0  0  0  0  0  0  0
  -47.1879   56.3612   61.6568 H   0  0  0  0  0  0  0  0  0  0  0  0
  -47.4259   55.0914   62.8411 H   0  0  0  0  0  0  0  0  0  0  0  0
  1  3  1  0  0  0  0
  1 17  1  0  0  0  0
  1 18  1  0  0  0  0
  1 19  1  0  0  0  0
  2 16  1  0  0  0  0
  2 20  1  0  0  0  0
  3  4  1  0  0  0  0
  3  5  2  0  0  0  0
  4 21  1  0  0  0  0
  4 22  1  0  0  0  0
  4 23  1  0  0  0  0
  5  6  1  0  0  0  0
  5 24  1  0  0  0  0
  6  7  1  0  0  0  0
  6 25  1  0  0  0  0
  6 26  1  0  0  0  0
  7  8  1  0  0  0  0
  7 27  1  0  0  0  0
  7 28  1  0  0  0  0
  8  9  1  0  0  0  0
  8 10  2  0  0  0  0
  9 29  1  0  0  0  0
  9 30  1  0  0  0  0
  9 31  1  0  0  0  0
 10 11  1  0  0  0  0
 10 32  1  0  0  0  0
 11 12  1  0  0  0  0
 11 33  1  0  0  0  0
 11 34  1  0  0  0  0
 12 13  1  0  0  0  0
 12 35  1  0  0  0  0
 12 36  1  0  0  0  0
 13 14  1  0  0  0  0
 13 15  2  0  0  0  0
 14 37  1  0  0  0  0
 14 38  1  0  0  0  0
 14 39  1  0  0  0  0
 15 16  1  0  0  0  0
 15 40  1  0  0  0  0
 16 41  1  0  0  0  0
 16 42  1  0  0  0  0
M  END
$$$$
/media/chris/experiments/cd1a-new-docking/inputs/ligands/6nux_ligand.pdb
 OpenBabel07022319323D

 42 41  0  0  0  0  0  0  0  0999 V2000
  -45.8915   60.9074   65.4988 C   0  0  0  0  0  0  0  0  0  0  0  0
  -43.5843   52.5878   63.2466 O   0  0  0  0  0  0  0  0  0  0  0  0
  -44.6950   60.7137   66.3793 C   0  0  0  0  0  0  0  0  0  0  0  0
  -43.7110   61.8318   66.5496 C   0  0  0  0  0  0  0  0  0  0  0  0
  -44.5005   59.5457   67.0095 C   0  0  0  0  0  0  0  0  0  0  0  0
  -45.4852   58.4111   66.8450 C   0  0  0  0  0  0  0  0  0  0  0  0
  -44.7960   57.1870   66.2510 C   0  0  0  0  0  0  0  0  0  0  0  0
  -44.1950   57.5130   64.9000 C   0  0  0  0  0  0  0  0  0  0  0  0
  -44.8100   58.5630   64.0190 C   0  0  0  0  0  0  0  0  0  0  0  0
  -43.0990   56.8650   64.4810 C   0  0  0  0  0  0  0  0  0  0  0  0
  -42.4910   57.1900   63.1360 C   0  0  0  0  0  0  0  0  0  0  0  0
  -41.2715   56.3116   62.8844 C   0  0  0  0  0  0  0  0  0  0  0  0
  -41.6742   54.8528   62.8824 C   0  0  0  0  0  0  0  0  0  0  0  0
  -41.0648   53.9131   63.8761 C   0  0  0  0  0  0  0  0  0  0  0  0
  -42.5804   54.3988   62.0041 C   0  0  0  0  0  0  0  0  0  0  0  0
  -42.9986   52.9462   61.9900 C   0  0  0  0  0  0  0  0  0  0  0  0
  -45.8750   61.8948   65.0867 H   0  0  0  0  0  0  0  0  0  0  0  0
  -46.7834   60.7764   66.0751 H   0  0  0  0  0  0  0  0  0  0  0  0
  -45.8706   60.1895   64.7056 H   0  0  0  0  0  0  0  0  0  0  0  0
  -43.8484   51.6547   63.2258 H   0  0  0  0  0  0  0  0  0  0  0  0
  -44.0291   62.6773   65.9762 H   0  0  0  0  0  0  0  0  0  0  0  0
  -42.7472   61.5134   66.2109 H   0  0  0  0  0  0  0  0  0  0  0  0
  -43.6543   62.1027   67.5831 H   0  0  0  0  0  0  0  0  0  0  0  0
  -43.6716   59.4208   67.6115 H   0  0  0  0  0  0  0  0  0  0  0  0
  -46.2746   58.7217   66.1929 H   0  0  0  0  0  0  0  0  0  0  0  0
  -45.8799   58.1536   67.8057 H   0  0  0  0  0  0  0  0  0  0  0  0
  -45.5134   56.4015   66.1358 H   0  0  0  0  0  0  0  0  0  0  0  0
  -44.0117   56.8802   66.9110 H   0  0  0  0  0  0  0  0  0  0  0  0
  -45.6701   58.9759   64.5033 H   0  0  0  0  0  0  0  0  0  0  0  0
  -45.1018   58.1219   63.0888 H   0  0  0  0  0  0  0  0  0  0  0  0
  -44.0961   59.3390   63.8373 H   0  0  0  0  0  0  0  0  0  0  0  0
  -42.6690   56.1419   65.0787 H   0  0  0  0  0  0  0  0  0  0  0  0
  -42.1953   58.2182   63.1208 H   0  0  0  0  0  0  0  0  0  0  0  0
  -43.2168   57.0076   62.3712 H   0  0  0  0  0  0  0  0  0  0  0  0
  -40.5495   56.4786   63.6563 H   0  0  0  0  0  0  0  0  0  0  0  0
  -40.8504   56.5604   61.9328 H   0  0  0  0  0  0  0  0  0  0  0  0
  -40.3694   54.4456   64.4906 H   0  0  0  0  0  0  0  0  0  0  0  0
  -40.5548   53.1279   63.3582 H   0  0  0  0  0  0  0  0  0  0  0  0
  -41.8349   53.4943   64.4896 H   0  0  0  0  0  0  0  0  0  0  0  0
  -42.9999   55.0532   61.3253 H   0  0  0  0  0  0  0  0  0  0  0  0
  -43.7143   52.7920   61.2097 H   0  0  0  0  0  0  0  0  0  0  0  0
  -42.1360   52.3362   61.8204 H   0  0  0  0  0  0  0  0  0  0  0  0
  1  3  1  0  0  0  0
  1 17  1  0  0  0  0
  1 18  1  0  0  0  0
  1 19  1  0  0  0  0
  2 16  1  0  0  0  0
  2 20  1  0  0  0  0
  3  4  1  0  0  0  0
  3  5  2  0  0  0  0
  4 21  1  0  0  0  0
  4 22  1  0  0  0  0
  4 23  1  0  0  0  0
  5  6  1  0  0  0  0
  5 24  1  0  0  0  0
  6  7  1  0  0  0  0
  6 25  1  0  0  0  0
  6 26  1  0  0  0  0
  7  8  1  0  0  0  0
  7 27  1  0  0  0  0
  7 28  1  0  0  0  0
  8  9  1  0  0  0  0
  8 10  2  0  0  0  0
  9 29  1  0  0  0  0
  9 30  1  0  0  0  0
  9 31  1  0  0  0  0
 10 11  1  0  0  0  0
 10 32  1  0  0  0  0
 11 12  1  0  0  0  0
 11 33  1  0  0  0  0
 11 34  1  0  0  0  0
 12 13  1  0  0  0  0
 12 35  1  0  0  0  0
 12 36  1  0  0  0  0
 13 14  1  0  0  0  0
 13 15  2  0  0  0  0
 14 37  1  0  0  0  0
 14 38  1  0  0  0  0
 14 39  1  0  0  0  0
 15 16  1  0  0  0  0
 15 40  1  0  0  0  0
 16 41  1  0  0  0  0
 16 42  1  0  0  0  0
M  END
$$$$
/media/chris/experiments/cd1a-new-docking/inputs/ligands/6nux_ligand.pdb
 OpenBabel07022319323D

 42 41  0  0  0  0  0  0  0  0999 V2000
  -48.5267   55.1274   66.3322 C   0  0  0  0  0  0  0  0  0  0  0  0
  -41.6197   51.7339   63.7721 O   0  0  0  0  0  0  0  0  0  0  0  0
  -47.7009   55.3186   67.5675 C   0  0  0  0  0  0  0  0  0  0  0  0
  -48.2945   55.0156   68.9103 C   0  0  0  0  0  0  0  0  0  0  0  0
  -46.4385   55.7627   67.4756 C   0  0  0  0  0  0  0  0  0  0  0  0
  -45.8295   56.0722   66.1275 C   0  0  0  0  0  0  0  0  0  0  0  0
  -44.7960   57.1870   66.2510 C   0  0  0  0  0  0  0  0  0  0  0  0
  -44.1950   57.5130   64.9000 C   0  0  0  0  0  0  0  0  0  0  0  0
  -44.8100   58.5630   64.0190 C   0  0  0  0  0  0  0  0  0  0  0  0
  -43.0990   56.8650   64.4810 C   0  0  0  0  0  0  0  0  0  0  0  0
  -42.4910   57.1900   63.1360 C   0  0  0  0  0  0  0  0  0  0  0  0
  -42.4834   55.9507   62.2493 C   0  0  0  0  0  0  0  0  0  0  0  0
  -41.6852   54.8463   62.9079 C   0  0  0  0  0  0  0  0  0  0  0  0
  -41.0502   55.0840   64.2427 C   0  0  0  0  0  0  0  0  0  0  0  0
  -41.5519   53.6537   62.3089 C   0  0  0  0  0  0  0  0  0  0  0  0
  -40.7625   52.5372   62.9534 C   0  0  0  0  0  0  0  0  0  0  0  0
  -49.4980   54.7703   66.6042 H   0  0  0  0  0  0  0  0  0  0  0  0
  -48.0509   54.4143   65.6919 H   0  0  0  0  0  0  0  0  0  0  0  0
  -48.6210   56.0611   65.8181 H   0  0  0  0  0  0  0  0  0  0  0  0
  -41.1028   51.0215   64.1799 H   0  0  0  0  0  0  0  0  0  0  0  0
  -49.3014   54.6756   68.7866 H   0  0  0  0  0  0  0  0  0  0  0  0
  -48.2882   55.9010   69.5111 H   0  0  0  0  0  0  0  0  0  0  0  0
  -47.7174   54.2538   69.3916 H   0  0  0  0  0  0  0  0  0  0  0  0
  -45.8786   55.8941   68.3325 H   0  0  0  0  0  0  0  0  0  0  0  0
  -46.6020   56.3813   65.4548 H   0  0  0  0  0  0  0  0  0  0  0  0
  -45.3467   55.1926   65.7559 H   0  0  0  0  0  0  0  0  0  0  0  0
  -44.0179   56.8724   66.9147 H   0  0  0  0  0  0  0  0  0  0  0  0
  -45.2787   58.0624   66.6326 H   0  0  0  0  0  0  0  0  0  0  0  0
  -45.6701   58.9759   64.5033 H   0  0  0  0  0  0  0  0  0  0  0  0
  -45.1018   58.1219   63.0888 H   0  0  0  0  0  0  0  0  0  0  0  0
  -44.0961   59.3390   63.8373 H   0  0  0  0  0  0  0  0  0  0  0  0
  -42.6690   56.1419   65.0787 H   0  0  0  0  0  0  0  0  0  0  0  0
  -41.4865   57.5313   63.2752 H   0  0  0  0  0  0  0  0  0  0  0  0
  -43.0738   57.9535   62.6644 H   0  0  0  0  0  0  0  0  0  0  0  0
  -42.0409   56.1930   61.3057 H   0  0  0  0  0  0  0  0  0  0  0  0
  -43.4897   55.6172   62.1041 H   0  0  0  0  0  0  0  0  0  0  0  0
  -41.2597   56.0827   64.5646 H   0  0  0  0  0  0  0  0  0  0  0  0
  -39.9917   54.9495   64.1632 H   0  0  0  0  0  0  0  0  0  0  0  0
  -41.4455   54.3896   64.9544 H   0  0  0  0  0  0  0  0  0  0  0  0
  -41.9965   53.4954   61.3911 H   0  0  0  0  0  0  0  0  0  0  0  0
  -40.3278   51.9257   62.1904 H   0  0  0  0  0  0  0  0  0  0  0  0
  -39.9932   52.9611   63.5644 H   0  0  0  0  0  0  0  0  0  0  0  0
  1  3  1  0  0  0  0
  1 17  1  0  0  0  0
  1 18  1  0  0  0  0
  1 19  1  0  0  0  0
  2 16  1  0  0  0  0
  2 20  1  0  0  0  0
  3  4  1  0  0  0  0
  3  5  2  0  0  0  0
  4 21  1  0  0  0  0
  4 22  1  0  0  0  0
  4 23  1  0  0  0  0
  5  6  1  0  0  0  0
  5 24  1  0  0  0  0
  6  7  1  0  0  0  0
  6 25  1  0  0  0  0
  6 26  1  0  0  0  0
  7  8  1  0  0  0  0
  7 27  1  0  0  0  0
  7 28  1  0  0  0  0
  8  9  1  0  0  0  0
  8 10  2  0  0  0  0
  9 29  1  0  0  0  0
  9 30  1  0  0  0  0
  9 31  1  0  0  0  0
 10 11  1  0  0  0  0
 10 32  1  0  0  0  0
 11 12  1  0  0  0  0
 11 33  1  0  0  0  0
 11 34  1  0  0  0  0
 12 13  1  0  0  0  0
 12 35  1  0  0  0  0
 12 36  1  0  0  0  0
 13 14  1  0  0  0  0
 13 15  2  0  0  0  0
 14 37  1  0  0  0  0
 14 38  1  0  0  0  0
 14 39  1  0  0  0  0
 15 16  1  0  0  0  0
 15 40  1  0  0  0  0
 16 41  1  0  0  0  0
 16 42  1  0  0  0  0
M  END
$$$$
/media/chris/experiments/cd1a-new-docking/inputs/ligands/6nux_ligand.pdb
 OpenBabel07022319323D

 42 41  0  0  0  0  0  0  0  0999 V2000
  -45.8915   60.9074   65.4988 C   0  0  0  0  0  0  0  0  0  0  0  0
  -39.3400   58.1942   66.5199 O   0  0  0  0  0  0  0  0  0  0  0  0
  -44.6950   60.7137   66.3793 C   0  0  0  0  0  0  0  0  0  0  0  0
  -43.7110   61.8318   66.5496 C   0  0  0  0  0  0  0  0  0  0  0  0
  -44.5005   59.5457   67.0095 C   0  0  0  0  0  0  0  0  0  0  0  0
  -45.4852   58.4111   66.8450 C   0  0  0  0  0  0  0  0  0  0  0  0
  -44.7960   57.1870   66.2510 C   0  0  0  0  0  0  0  0  0  0  0  0
  -44.1950   57.5130   64.9000 C   0  0  0  0  0  0  0  0  0  0  0  0
  -44.8100   58.5630   64.0190 C   0  0  0  0  0  0  0  0  0  0  0  0
  -43.0990   56.8650   64.4810 C   0  0  0  0  0  0  0  0  0  0  0  0
  -42.4910   57.1900   63.1360 C   0  0  0  0  0  0  0  0  0  0  0  0
  -42.0598   58.6510   63.0933 C   0  0  0  0  0  0  0  0  0  0  0  0
  -41.0198   58.9165   64.1602 C   0  0  0  0  0  0  0  0  0  0  0  0
  -41.2929   59.9307   65.2270 C   0  0  0  0  0  0  0  0  0  0  0  0
  -39.8604   58.2421   64.1623 C   0  0  0  0  0  0  0  0  0  0  0  0
  -38.8116   58.4902   65.2224 C   0  0  0  0  0  0  0  0  0  0  0  0
  -45.8750   61.8948   65.0867 H   0  0  0  0  0  0  0  0  0  0  0  0
  -46.7834   60.7764   66.0751 H   0  0  0  0  0  0  0  0  0  0  0  0
  -45.8706   60.1895   64.7056 H   0  0  0  0  0  0  0  0  0  0  0  0
  -38.6590   58.3569   67.1912 H   0  0  0  0  0  0  0  0  0  0  0  0
  -44.0291   62.6773   65.9762 H   0  0  0  0  0  0  0  0  0  0  0  0
  -42.7472   61.5134   66.2109 H   0  0  0  0  0  0  0  0  0  0  0  0
  -43.6543   62.1027   67.5831 H   0  0  0  0  0  0  0  0  0  0  0  0
  -43.6716   59.4208   67.6115 H   0  0  0  0  0  0  0  0  0  0  0  0
  -46.2746   58.7217   66.1929 H   0  0  0  0  0  0  0  0  0  0  0  0
  -45.8799   58.1536   67.8057 H   0  0  0  0  0  0  0  0  0  0  0  0
  -45.5134   56.4015   66.1358 H   0  0  0  0  0  0  0  0  0  0  0  0
  -44.0117   56.8802   66.9110 H   0  0  0  0  0  0  0  0  0  0  0  0
  -45.6701   58.9759   64.5033 H   0  0  0  0  0  0  0  0  0  0  0  0
  -45.1018   58.1219   63.0888 H   0  0  0  0  0  0  0  0  0  0  0  0
  -44.0961   59.3390   63.8373 H   0  0  0  0  0  0  0  0  0  0  0  0
  -42.6690   56.1419   65.0787 H   0  0  0  0  0  0  0  0  0  0  0  0
  -43.2151   57.0125   62.3685 H   0  0  0  0  0  0  0  0  0  0  0  0
  -41.6343   56.5681   62.9804 H   0  0  0  0  0  0  0  0  0  0  0  0
  -42.9108   59.2765   63.2650 H   0  0  0  0  0  0  0  0  0  0  0  0
  -41.6394   58.8646   62.1329 H   0  0  0  0  0  0  0  0  0  0  0  0
  -42.2575   60.3653   65.0674 H   0  0  0  0  0  0  0  0  0  0  0  0
  -40.5463   60.6964   65.1908 H   0  0  0  0  0  0  0  0  0  0  0  0
  -41.2700   59.4553   66.1854 H   0  0  0  0  0  0  0  0  0  0  0  0
  -39.6810   57.5409   63.4267 H   0  0  0  0  0  0  0  0  0  0  0  0
  -37.9644   57.8643   65.0346 H   0  0  0  0  0  0  0  0  0  0  0  0
  -38.5199   59.5192   65.1907 H   0  0  0  0  0  0  0  0  0  0  0  0
  1  3  1  0  0  0  0
  1 17  1  0  0  0  0
  1 18  1  0  0  0  0
  1 19  1  0  0  0  0
  2 16  1  0  0  0  0
  2 20  1  0  0  0  0
  3  4  1  0  0  0  0
  3  5  2  0  0  0  0
  4 21  1  0  0  0  0
  4 22  1  0  0  0  0
  4 23  1  0  0  0  0
  5  6  1  0  0  0  0
  5 24  1  0  0  0  0
  6  7  1  0  0  0  0
  6 25  1  0  0  0  0
  6 26  1  0  0  0  0
  7  8  1  0  0  0  0
  7 27  1  0  0  0  0
  7 28  1  0  0  0  0
  8  9  1  0  0  0  0
  8 10  2  0  0  0  0
  9 29  1  0  0  0  0
  9 30  1  0  0  0  0
  9 31  1  0  0  0  0
 10 11  1  0  0  0  0
 10 32  1  0  0  0  0
 11 12  1  0  0  0  0
 11 33  1  0  0  0  0
 11 34  1  0  0  0  0
 12 13  1  0  0  0  0
 12 35  1  0  0  0  0
 12 36  1  0  0  0  0
 13 14  1  0  0  0  0
 13 15  2  0  0  0  0
 14 37  1  0  0  0  0
 14 38  1  0  0  0  0
 14 39  1  0  0  0  0
 15 16  1  0  0  0  0
 15 40  1  0  0  0  0
 16 41  1  0  0  0  0
 16 42  1  0  0  0  0
M  END
$$$$
/media/chris/experiments/cd1a-new-docking/inputs/ligands/6nux_ligand.pdb
 OpenBabel07022319323D

 42 41  0  0  0  0  0  0  0  0999 V2000
  -45.1413   53.8655   64.1349 C   0  0  0  0  0  0  0  0  0  0  0  0
  -41.7659   58.1161   58.4036 O   0  0  0  0  0  0  0  0  0  0  0  0
  -43.9900   53.9518   65.0897 C   0  0  0  0  0  0  0  0  0  0  0  0
  -42.8004   53.0598   64.8992 C   0  0  0  0  0  0  0  0  0  0  0  0
  -44.0229   54.8186   66.1129 C   0  0  0  0  0  0  0  0  0  0  0  0
  -45.2171   55.7225   66.3155 C   0  0  0  0  0  0  0  0  0  0  0  0
  -44.7960   57.1870   66.2510 C   0  0  0  0  0  0  0  0  0  0  0  0
  -44.1950   57.5130   64.9000 C   0  0  0  0  0  0  0  0  0  0  0  0
  -44.8100   58.5630   64.0190 C   0  0  0  0  0  0  0  0  0  0  0  0
  -43.0990   56.8650   64.4810 C   0  0  0  0  0  0  0  0  0  0  0  0
  -42.4910   57.1900   63.1360 C   0  0  0  0  0  0  0  0  0  0  0  0
  -42.0598   58.6510   63.0933 C   0  0  0  0  0  0  0  0  0  0  0  0
  -41.4673   58.9779   61.7397 C   0  0  0  0  0  0  0  0  0  0  0  0
  -40.9564   60.3584   61.4668 C   0  0  0  0  0  0  0  0  0  0  0  0
  -41.3874   58.0369   60.7873 C   0  0  0  0  0  0  0  0  0  0  0  0
  -40.7945   58.3434   59.4309 C   0  0  0  0  0  0  0  0  0  0  0  0
  -44.9338   53.1239   63.3920 H   0  0  0  0  0  0  0  0  0  0  0  0
  -45.2841   54.8144   63.6615 H   0  0  0  0  0  0  0  0  0  0  0  0
  -46.0285   53.5965   64.6693 H   0  0  0  0  0  0  0  0  0  0  0  0
  -41.3746   58.3158   57.5388 H   0  0  0  0  0  0  0  0  0  0  0  0
  -42.9521   52.4418   64.0390 H   0  0  0  0  0  0  0  0  0  0  0  0
  -42.6753   52.4425   65.7642 H   0  0  0  0  0  0  0  0  0  0  0  0
  -41.9247   53.6583   64.7584 H   0  0  0  0  0  0  0  0  0  0  0  0
  -43.2263   54.8686   66.7670 H   0  0  0  0  0  0  0  0  0  0  0  0
  -45.6513   55.5229   67.2729 H   0  0  0  0  0  0  0  0  0  0  0  0
  -45.9298   55.5331   65.5403 H   0  0  0  0  0  0  0  0  0  0  0  0
  -44.0698   57.3774   67.0135 H   0  0  0  0  0  0  0  0  0  0  0  0
  -45.6604   57.8000   66.3995 H   0  0  0  0  0  0  0  0  0  0  0  0
  -45.6701   58.9759   64.5033 H   0  0  0  0  0  0  0  0  0  0  0  0
  -45.1018   58.1219   63.0888 H   0  0  0  0  0  0  0  0  0  0  0  0
  -44.0961   59.3390   63.8373 H   0  0  0  0  0  0  0  0  0  0  0  0
  -42.6690   56.1419   65.0787 H   0  0  0  0  0  0  0  0  0  0  0  0
  -43.2151   57.0125   62.3685 H   0  0  0  0  0  0  0  0  0  0  0  0
  -41.6343   56.5681   62.9804 H   0  0  0  0  0  0  0  0  0  0  0  0
  -41.3263   58.8260   63.8525 H   0  0  0  0  0  0  0  0  0  0  0  0
  -42.9135   59.2736   63.2621 H   0  0  0  0  0  0  0  0  0  0  0  0
  -41.1012   60.9700   62.3327 H   0  0  0  0  0  0  0  0  0  0  0  0
  -41.4895   60.7791   60.6398 H   0  0  0  0  0  0  0  0  0  0  0  0
  -39.9133   60.3129   61.2327 H   0  0  0  0  0  0  0  0  0  0  0  0
  -41.7370   57.0861   60.9841 H   0  0  0  0  0  0  0  0  0  0  0  0
  -40.4845   59.3671   59.4038 H   0  0  0  0  0  0  0  0  0  0  0  0
  -39.9540   57.7025   59.2644 H   0  0  0  0  0  0  0  0  0  0  0  0
  1  3  1  0  0  0  0
  1 17  1  0  0  0  0
  1 18  1  0  0  0  0
  1 19  1  0  0  0  0
  2 16  1  0  0  0  0
  2 20  1  0  0  0  0
  3  4  1  0  0  0  0
  3  5  2  0  0  0  0
  4 21  1  0  0  0  0
  4 22  1  0  0  0  0
  4 23  1  0  0  0  0
  5  6  1  0  0  0  0
  5 24  1  0  0  0  0
  6  7  1  0  0  0  0
  6 25  1  0  0  0  0
  6 26  1  0  0  0  0
  7  8  1  0  0  0  0
  7 27  1  0  0  0  0
  7 28  1  0  0  0  0
  8  9  1  0  0  0  0
  8 10  2  0  0  0  0
  9 29  1  0  0  0  0
  9 30  1  0  0  0  0
  9 31  1  0  0  0  0
 10 11  1  0  0  0  0
 10 32  1  0  0  0  0
 11 12  1  0  0  0  0
 11 33  1  0  0  0  0
 11 34  1  0  0  0  0
 12 13  1  0  0  0  0
 12 35  1  0  0  0  0
 12 36  1  0  0  0  0
 13 14  1  0  0  0  0
 13 15  2  0  0  0  0
 14 37  1  0  0  0  0
 14 38  1  0  0  0  0
 14 39  1  0  0  0  0
 15 16  1  0  0  0  0
 15 40  1  0  0  0  0
 16 41  1  0  0  0  0
 16 42  1  0  0  0  0
M  END
$$$$
/media/chris/experiments/cd1a-new-docking/inputs/ligands/6nux_ligand.pdb
 OpenBabel07022319323D

 42 41  0  0  0  0  0  0  0  0999 V2000
  -42.5824   59.4622   69.2611 C   0  0  0  0  0  0  0  0  0  0  0  0
  -40.0716   60.8458   66.5721 O   0  0  0  0  0  0  0  0  0  0  0  0
  -41.9401   58.5008   68.3083 C   0  0  0  0  0  0  0  0  0  0  0  0
  -40.4583   58.2806   68.3636 C   0  0  0  0  0  0  0  0  0  0  0  0
  -42.6840   57.8429   67.4066 C   0  0  0  0  0  0  0  0  0  0  0  0
  -44.1787   58.0572   67.3408 C   0  0  0  0  0  0  0  0  0  0  0  0
  -44.7960   57.1870   66.2510 C   0  0  0  0  0  0  0  0  0  0  0  0
  -44.1950   57.5130   64.9000 C   0  0  0  0  0  0  0  0  0  0  0  0
  -44.8100   58.5630   64.0190 C   0  0  0  0  0  0  0  0  0  0  0  0
  -43.0990   56.8650   64.4810 C   0  0  0  0  0  0  0  0  0  0  0  0
  -42.4910   57.1900   63.1360 C   0  0  0  0  0  0  0  0  0  0  0  0
  -42.0598   58.6510   63.0933 C   0  0  0  0  0  0  0  0  0  0  0  0
  -41.0198   58.9165   64.1602 C   0  0  0  0  0  0  0  0  0  0  0  0
  -40.5751   57.8030   65.0568 C   0  0  0  0  0  0  0  0  0  0  0  0
  -40.4865   60.1391   64.3006 C   0  0  0  0  0  0  0  0  0  0  0  0
  -39.4431   60.4221   65.3572 C   0  0  0  0  0  0  0  0  0  0  0  0
  -41.8346   59.8859   69.8984 H   0  0  0  0  0  0  0  0  0  0  0  0
  -43.3064   58.9451   69.8555 H   0  0  0  0  0  0  0  0  0  0  0  0
  -43.0648   60.2421   68.7099 H   0  0  0  0  0  0  0  0  0  0  0  0
  -39.3931   61.0243   67.2419 H   0  0  0  0  0  0  0  0  0  0  0  0
  -40.0365   58.8857   69.1387 H   0  0  0  0  0  0  0  0  0  0  0  0
  -40.0224   58.5494   67.4242 H   0  0  0  0  0  0  0  0  0  0  0  0
  -40.2584   57.2494   68.5675 H   0  0  0  0  0  0  0  0  0  0  0  0
  -42.2320   57.1850   66.7525 H   0  0  0  0  0  0  0  0  0  0  0  0
  -44.3776   59.0861   67.1247 H   0  0  0  0  0  0  0  0  0  0  0  0
  -44.6084   57.7883   68.2831 H   0  0  0  0  0  0  0  0  0  0  0  0
  -45.8510   57.3622   66.2174 H   0  0  0  0  0  0  0  0  0  0  0  0
  -44.5967   56.1603   66.4770 H   0  0  0  0  0  0  0  0  0  0  0  0
  -45.6701   58.9759   64.5033 H   0  0  0  0  0  0  0  0  0  0  0  0
  -45.1018   58.1219   63.0888 H   0  0  0  0  0  0  0  0  0  0  0  0
  -44.0961   59.3390   63.8373 H   0  0  0  0  0  0  0  0  0  0  0  0
  -42.6690   56.1419   65.0787 H   0  0  0  0  0  0  0  0  0  0  0  0
  -43.2151   57.0125   62.3685 H   0  0  0  0  0  0  0  0  0  0  0  0
  -41.6343   56.5681   62.9804 H   0  0  0  0  0  0  0  0  0  0  0  0
  -42.9108   59.2765   63.2650 H   0  0  0  0  0  0  0  0  0  0  0  0
  -41.6394   58.8646   62.1329 H   0  0  0  0  0  0  0  0  0  0  0  0
  -41.1031   56.9078   64.8025 H   0  0  0  0  0  0  0  0  0  0  0  0
  -40.7803   58.0611   66.0747 H   0  0  0  0  0  0  0  0  0  0  0  0
  -39.5241   57.6443   64.9340 H   0  0  0  0  0  0  0  0  0  0  0  0
  -40.7942   60.9006   63.6758 H   0  0  0  0  0  0  0  0  0  0  0  0
  -38.8781   59.5327   65.5431 H   0  0  0  0  0  0  0  0  0  0  0  0
  -38.7961   61.2001   65.0093 H   0  0  0  0  0  0  0  0  0  0  0  0
  1  3  1  0  0  0  0
  1 17  1  0  0  0  0
  1 18  1  0  0  0  0
  1 19  1  0  0  0  0
  2 16  1  0  0  0  0
  2 20  1  0  0  0  0
  3  4  1  0  0  0  0
  3  5  2  0  0  0  0
  4 21  1  0  0  0  0
  4 22  1  0  0  0  0
  4 23  1  0  0  0  0
  5  6  1  0  0  0  0
  5 24  1  0  0  0  0
  6  7  1  0  0  0  0
  6 25  1  0  0  0  0
  6 26  1  0  0  0  0
  7  8  1  0  0  0  0
  7 27  1  0  0  0  0
  7 28  1  0  0  0  0
  8  9  1  0  0  0  0
  8 10  2  0  0  0  0
  9 29  1  0  0  0  0
  9 30  1  0  0  0  0
  9 31  1  0  0  0  0
 10 11  1  0  0  0  0
 10 32  1  0  0  0  0
 11 12  1  0  0  0  0
 11 33  1  0  0  0  0
 11 34  1  0  0  0  0
 12 13  1  0  0  0  0
 12 35  1  0  0  0  0
 12 36  1  0  0  0  0
 13 14  1  0  0  0  0
 13 15  2  0  0  0  0
 14 37  1  0  0  0  0
 14 38  1  0  0  0  0
 14 39  1  0  0  0  0
 15 16  1  0  0  0  0
 15 40  1  0  0  0  0
 16 41  1  0  0  0  0
 16 42  1  0  0  0  0
M  END
$$$$
/media/chris/experiments/cd1a-new-docking/inputs/ligands/6nux_ligand.pdb
 OpenBabel07022319323D

 42 41  0  0  0  0  0  0  0  0999 V2000
  -46.3652   54.5567   63.7556 C   0  0  0  0  0  0  0  0  0  0  0  0
  -40.5127   56.2402   58.4749 O   0  0  0  0  0  0  0  0  0  0  0  0
  -47.1878   55.7670   64.0767 C   0  0  0  0  0  0  0  0  0  0  0  0
  -48.2900   56.1816   63.1491 C   0  0  0  0  0  0  0  0  0  0  0  0
  -46.9385   56.4801   65.1851 C   0  0  0  0  0  0  0  0  0  0  0  0
  -45.8295   56.0722   66.1275 C   0  0  0  0  0  0  0  0  0  0  0  0
  -44.7960   57.1870   66.2510 C   0  0  0  0  0  0  0  0  0  0  0  0
  -44.1950   57.5130   64.9000 C   0  0  0  0  0  0  0  0  0  0  0  0
  -44.8100   58.5630   64.0190 C   0  0  0  0  0  0  0  0  0  0  0  0
  -43.0990   56.8650   64.4810 C   0  0  0  0  0  0  0  0  0  0  0  0
  -42.4910   57.1900   63.1360 C   0  0  0  0  0  0  0  0  0  0  0  0
  -42.4834   55.9507   62.2493 C   0  0  0  0  0  0  0  0  0  0  0  0
  -41.8584   56.2748   60.9097 C   0  0  0  0  0  0  0  0  0  0  0  0
  -42.6586   56.1029   59.6561 C   0  0  0  0  0  0  0  0  0  0  0  0
  -40.5969   56.7247   60.8391 C   0  0  0  0  0  0  0  0  0  0  0  0
  -39.9572   57.0582   59.5106 C   0  0  0  0  0  0  0  0  0  0  0  0
  -46.7101   54.1237   62.8400 H   0  0  0  0  0  0  0  0  0  0  0  0
  -46.4591   53.8416   64.5460 H   0  0  0  0  0  0  0  0  0  0  0  0
  -45.3387   54.8405   63.6515 H   0  0  0  0  0  0  0  0  0  0  0  0
  -40.0952   56.4628   57.6281 H   0  0  0  0  0  0  0  0  0  0  0  0
  -48.3396   55.4992   62.3265 H   0  0  0  0  0  0  0  0  0  0  0  0
  -48.0959   57.1681   62.7830 H   0  0  0  0  0  0  0  0  0  0  0  0
  -49.2214   56.1736   63.6758 H   0  0  0  0  0  0  0  0  0  0  0  0
  -47.5086   57.3140   65.3962 H   0  0  0  0  0  0  0  0  0  0  0  0
  -45.3536   55.1911   65.7506 H   0  0  0  0  0  0  0  0  0  0  0  0
  -46.2490   55.8809   67.0930 H   0  0  0  0  0  0  0  0  0  0  0  0
  -44.0179   56.8724   66.9147 H   0  0  0  0  0  0  0  0  0  0  0  0
  -45.2787   58.0624   66.6326 H   0  0  0  0  0  0  0  0  0  0  0  0
  -45.6701   58.9759   64.5033 H   0  0  0  0  0  0  0  0  0  0  0  0
  -45.1018   58.1219   63.0888 H   0  0  0  0  0  0  0  0  0  0  0  0
  -44.0961   59.3390   63.8373 H   0  0  0  0  0  0  0  0  0  0  0  0
  -42.6690   56.1419   65.0787 H   0  0  0  0  0  0  0  0  0  0  0  0
  -41.4865   57.5313   63.2752 H   0  0  0  0  0  0  0  0  0  0  0  0
  -43.0738   57.9535   62.6644 H   0  0  0  0  0  0  0  0  0  0  0  0
  -43.4887   55.6164   62.0994 H   0  0  0  0  0  0  0  0  0  0  0  0
  -41.9120   55.1819   62.7261 H   0  0  0  0  0  0  0  0  0  0  0  0
  -43.6339   55.7382   59.9027 H   0  0  0  0  0  0  0  0  0  0  0  0
  -42.1681   55.4024   59.0130 H   0  0  0  0  0  0  0  0  0  0  0  0
  -42.7459   57.0451   59.1567 H   0  0  0  0  0  0  0  0  0  0  0  0
  -40.0528   56.8455   61.7077 H   0  0  0  0  0  0  0  0  0  0  0  0
  -40.1352   58.0881   59.2813 H   0  0  0  0  0  0  0  0  0  0  0  0
  -38.9050   56.8744   59.5739 H   0  0  0  0  0  0  0  0  0  0  0  0
  1  3  1  0  0  0  0
  1 17  1  0  0  0  0
  1 18  1  0  0  0  0
  1 19  1  0  0  0  0
  2 16  1  0  0  0  0
  2 20  1  0  0  0  0
  3  4  1  0  0  0  0
  3  5  2  0  0  0  0
  4 21  1  0  0  0  0
  4 22  1  0  0  0  0
  4 23  1  0  0  0  0
  5  6  1  0  0  0  0
  5 24  1  0  0  0  0
  6  7  1  0  0  0  0
  6 25  1  0  0  0  0
  6 26  1  0  0  0  0
  7  8  1  0  0  0  0
  7 27  1  0  0  0  0
  7 28  1  0  0  0  0
  8  9  1  0  0  0  0
  8 10  2  0  0  0  0
  9 29  1  0  0  0  0
  9 30  1  0  0  0  0
  9 31  1  0  0  0  0
 10 11  1  0  0  0  0
 10 32  1  0  0  0  0
 11 12  1  0  0  0  0
 11 33  1  0  0  0  0
 11 34  1  0  0  0  0
 12 13  1  0  0  0  0
 12 35  1  0  0  0  0
 12 36  1  0  0  0  0
 13 14  1  0  0  0  0
 13 15  2  0  0  0  0
 14 37  1  0  0  0  0
 14 38  1  0  0  0  0
 14 39  1  0  0  0  0
 15 16  1  0  0  0  0
 15 40  1  0  0  0  0
 16 41  1  0  0  0  0
 16 42  1  0  0  0  0
M  END
$$$$
/media/chris/experiments/cd1a-new-docking/inputs/ligands/6nux_ligand.pdb
 OpenBabel07022319323D

 42 41  0  0  0  0  0  0  0  0999 V2000
  -45.1396   60.9544   68.4479 C   0  0  0  0  0  0  0  0  0  0  0  0
  -44.9653   53.3475   60.8316 O   0  0  0  0  0  0  0  0  0  0  0  0
  -45.8047   60.6975   67.1302 C   0  0  0  0  0  0  0  0  0  0  0  0
  -46.6402   61.7708   66.4998 C   0  0  0  0  0  0  0  0  0  0  0  0
  -45.6588   59.5131   66.5180 C   0  0  0  0  0  0  0  0  0  0  0  0
  -44.8195   58.4232   67.1440 C   0  0  0  0  0  0  0  0  0  0  0  0
  -44.7960   57.1870   66.2510 C   0  0  0  0  0  0  0  0  0  0  0  0
  -44.1950   57.5130   64.9000 C   0  0  0  0  0  0  0  0  0  0  0  0
  -44.8100   58.5630   64.0190 C   0  0  0  0  0  0  0  0  0  0  0  0
  -43.0990   56.8650   64.4810 C   0  0  0  0  0  0  0  0  0  0  0  0
  -42.4910   57.1900   63.1360 C   0  0  0  0  0  0  0  0  0  0  0  0
  -43.5718   57.6613   62.1707 C   0  0  0  0  0  0  0  0  0  0  0  0
  -44.6212   56.5842   62.0006 C   0  0  0  0  0  0  0  0  0  0  0  0
  -46.0388   56.9682   61.7096 C   0  0  0  0  0  0  0  0  0  0  0  0
  -44.2879   55.2887   62.0982 C   0  0  0  0  0  0  0  0  0  0  0  0
  -45.3213   54.1988   61.9266 C   0  0  0  0  0  0  0  0  0  0  0  0
  -45.3701   61.9462   68.7764 H   0  0  0  0  0  0  0  0  0  0  0  0
  -44.0801   60.8520   68.3385 H   0  0  0  0  0  0  0  0  0  0  0  0
  -45.4935   60.2483   69.1697 H   0  0  0  0  0  0  0  0  0  0  0  0
  -45.6348   52.6528   60.7312 H   0  0  0  0  0  0  0  0  0  0  0  0
  -46.6404   62.6375   67.1274 H   0  0  0  0  0  0  0  0  0  0  0  0
  -47.6429   61.4176   66.3792 H   0  0  0  0  0  0  0  0  0  0  0  0
  -46.2335   62.0235   65.5429 H   0  0  0  0  0  0  0  0  0  0  0  0
  -46.1233   59.3446   65.6120 H   0  0  0  0  0  0  0  0  0  0  0  0
  -45.2340   58.1623   68.0954 H   0  0  0  0  0  0  0  0  0  0  0  0
  -43.8188   58.7827   67.2635 H   0  0  0  0  0  0  0  0  0  0  0  0
  -45.7967   56.8337   66.1141 H   0  0  0  0  0  0  0  0  0  0  0  0
  -44.1973   56.4349   66.7210 H   0  0  0  0  0  0  0  0  0  0  0  0
  -45.6701   58.9759   64.5033 H   0  0  0  0  0  0  0  0  0  0  0  0
  -45.1018   58.1219   63.0888 H   0  0  0  0  0  0  0  0  0  0  0  0
  -44.0961   59.3390   63.8373 H   0  0  0  0  0  0  0  0  0  0  0  0
  -42.6690   56.1419   65.0787 H   0  0  0  0  0  0  0  0  0  0  0  0
  -42.0205   56.3145   62.7398 H   0  0  0  0  0  0  0  0  0  0  0  0
  -41.7680   57.9692   63.2585 H   0  0  0  0  0  0  0  0  0  0  0  0
  -43.1288   57.8771   61.2209 H   0  0  0  0  0  0  0  0  0  0  0  0
  -44.0341   58.5421   62.5647 H   0  0  0  0  0  0  0  0  0  0  0  0
  -46.1181   58.0344   61.6681 H   0  0  0  0  0  0  0  0  0  0  0  0
  -46.6759   56.5930   62.4831 H   0  0  0  0  0  0  0  0  0  0  0  0
  -46.3354   56.5515   60.7698 H   0  0  0  0  0  0  0  0  0  0  0  0
  -43.3079   55.0312   62.2940 H   0  0  0  0  0  0  0  0  0  0  0  0
  -45.3741   53.6175   62.8234 H   0  0  0  0  0  0  0  0  0  0  0  0
  -46.2716   54.6473   61.7254 H   0  0  0  0  0  0  0  0  0  0  0  0
  1  3  1  0  0  0  0
  1 17  1  0  0  0  0
  1 18  1  0  0  0  0
  1 19  1  0  0  0  0
  2 16  1  0  0  0  0
  2 20  1  0  0  0  0
  3  4  1  0  0  0  0
  3  5  2  0  0  0  0
  4 21  1  0  0  0  0
  4 22  1  0  0  0  0
  4 23  1  0  0  0  0
  5  6  1  0  0  0  0
  5 24  1  0  0  0  0
  6  7  1  0  0  0  0
  6 25  1  0  0  0  0
  6 26  1  0  0  0  0
  7  8  1  0  0  0  0
  7 27  1  0  0  0  0
  7 28  1  0  0  0  0
  8  9  1  0  0  0  0
  8 10  2  0  0  0  0
  9 29  1  0  0  0  0
  9 30  1  0  0  0  0
  9 31  1  0  0  0  0
 10 11  1  0  0  0  0
 10 32  1  0  0  0  0
 11 12  1  0  0  0  0
 11 33  1  0  0  0  0
 11 34  1  0  0  0  0
 12 13  1  0  0  0  0
 12 35  1  0  0  0  0
 12 36  1  0  0  0  0
 13 14  1  0  0  0  0
 13 15  2  0  0  0  0
 14 37  1  0  0  0  0
 14 38  1  0  0  0  0
 14 39  1  0  0  0  0
 15 16  1  0  0  0  0
 15 40  1  0  0  0  0
 16 41  1  0  0  0  0
 16 42  1  0  0  0  0
M  END
$$$$
/media/chris/experiments/cd1a-new-docking/inputs/ligands/6nux_ligand.pdb
 OpenBabel07022319323D

 42 41  0  0  0  0  0  0  0  0999 V2000
  -45.0219   53.6397   67.9816 C   0  0  0  0  0  0  0  0  0  0  0  0
  -46.8449   54.8127   64.0185 O   0  0  0  0  0  0  0  0  0  0  0  0
  -44.4318   53.6933   66.6056 C   0  0  0  0  0  0  0  0  0  0  0  0
  -44.3852   52.4495   65.7700 C   0  0  0  0  0  0  0  0  0  0  0  0
  -43.9432   54.8455   66.1232 C   0  0  0  0  0  0  0  0  0  0  0  0
  -43.9840   56.1057   66.9565 C   0  0  0  0  0  0  0  0  0  0  0  0
  -44.7960   57.1870   66.2510 C   0  0  0  0  0  0  0  0  0  0  0  0
  -44.1950   57.5130   64.9000 C   0  0  0  0  0  0  0  0  0  0  0  0
  -44.8100   58.5630   64.0190 C   0  0  0  0  0  0  0  0  0  0  0  0
  -43.0990   56.8650   64.4810 C   0  0  0  0  0  0  0  0  0  0  0  0
  -42.4910   57.1900   63.1360 C   0  0  0  0  0  0  0  0  0  0  0  0
  -42.4834   55.9507   62.2493 C   0  0  0  0  0  0  0  0  0  0  0  0
  -43.8989   55.4647   62.0246 C   0  0  0  0  0  0  0  0  0  0  0  0
  -44.2504   54.7676   60.7471 C   0  0  0  0  0  0  0  0  0  0  0  0
  -44.8371   55.6448   62.9659 C   0  0  0  0  0  0  0  0  0  0  0  0
  -46.2550   55.1621   62.7614 C   0  0  0  0  0  0  0  0  0  0  0  0
  -45.3559   52.6443   68.1880 H   0  0  0  0  0  0  0  0  0  0  0  0
  -45.8510   54.3135   68.0407 H   0  0  0  0  0  0  0  0  0  0  0  0
  -44.2803   53.9230   68.6990 H   0  0  0  0  0  0  0  0  0  0  0  0
  -47.7534   54.5048   63.8749 H   0  0  0  0  0  0  0  0  0  0  0  0
  -44.8169   51.6367   66.3158 H   0  0  0  0  0  0  0  0  0  0  0  0
  -43.3682   52.2183   65.5309 H   0  0  0  0  0  0  0  0  0  0  0  0
  -44.9372   52.6057   64.8668 H   0  0  0  0  0  0  0  0  0  0  0  0
  -43.5360   54.8717   65.1753 H   0  0  0  0  0  0  0  0  0  0  0  0
  -42.9857   56.4589   67.1099 H   0  0  0  0  0  0  0  0  0  0  0  0
  -44.4456   55.8843   67.8961 H   0  0  0  0  0  0  0  0  0  0  0  0
  -44.8032   58.0706   66.8545 H   0  0  0  0  0  0  0  0  0  0  0  0
  -45.7934   56.8279   66.1058 H   0  0  0  0  0  0  0  0  0  0  0  0
  -45.6701   58.9759   64.5033 H   0  0  0  0  0  0  0  0  0  0  0  0
  -45.1018   58.1219   63.0888 H   0  0  0  0  0  0  0  0  0  0  0  0
  -44.0961   59.3390   63.8373 H   0  0  0  0  0  0  0  0  0  0  0  0
  -42.6690   56.1419   65.0787 H   0  0  0  0  0  0  0  0  0  0  0  0
  -41.4865   57.5313   63.2752 H   0  0  0  0  0  0  0  0  0  0  0  0
  -43.0738   57.9535   62.6644 H   0  0  0  0  0  0  0  0  0  0  0  0
  -41.9153   55.1786   62.7248 H   0  0  0  0  0  0  0  0  0  0  0  0
  -42.0433   56.1973   61.3057 H   0  0  0  0  0  0  0  0  0  0  0  0
  -43.3851   54.7146   60.1199 H   0  0  0  0  0  0  0  0  0  0  0  0
  -45.0223   55.3120   60.2444 H   0  0  0  0  0  0  0  0  0  0  0  0
  -44.5950   53.7781   60.9638 H   0  0  0  0  0  0  0  0  0  0  0  0
  -44.5865   56.1217   63.8461 H   0  0  0  0  0  0  0  0  0  0  0  0
  -46.8308   55.9399   62.3049 H   0  0  0  0  0  0  0  0  0  0  0  0
  -46.2420   54.2984   62.1299 H   0  0  0  0  0  0  0  0  0  0  0  0
  1  3  1  0  0  0  0
  1 17  1  0  0  0  0
  1 18  1  0  0  0  0
  1 19  1  0  0  0  0
  2 16  1  0  0  0  0
  2 20  1  0  0  0  0
  3  4  1  0  0  0  0
  3  5  2  0  0  0  0
  4 21  1  0  0  0  0
  4 22  1  0  0  0  0
  4 23  1  0  0  0  0
  5  6  1  0  0  0  0
  5 24  1  0  0  0  0
  6  7  1  0  0  0  0
  6 25  1  0  0  0  0
  6 26  1  0  0  0  0
  7  8  1  0  0  0  0
  7 27  1  0  0  0  0
  7 28  1  0  0  0  0
  8  9  1  0  0  0  0
  8 10  2  0  0  0  0
  9 29  1  0  0  0  0
  9 30  1  0  0  0  0
  9 31  1  0  0  0  0
 10 11  1  0  0  0  0
 10 32  1  0  0  0  0
 11 12  1  0  0  0  0
 11 33  1  0  0  0  0
 11 34  1  0  0  0  0
 12 13  1  0  0  0  0
 12 35  1  0  0  0  0
 12 36  1  0  0  0  0
 13 14  1  0  0  0  0
 13 15  2  0  0  0  0
 14 37  1  0  0  0  0
 14 38  1  0  0  0  0
 14 39  1  0  0  0  0
 15 16  1  0  0  0  0
 15 40  1  0  0  0  0
 16 41  1  0  0  0  0
 16 42  1  0  0  0  0
M  END
$$$$
/media/chris/experiments/cd1a-new-docking/inputs/ligands/6nux_ligand.pdb
 OpenBabel07022319323D

 42 41  0  0  0  0  0  0  0  0999 V2000
  -44.0653   53.7272   68.0188 C   0  0  0  0  0  0  0  0  0  0  0  0
  -39.1603   59.5470   66.0261 O   0  0  0  0  0  0  0  0  0  0  0  0
  -45.2888   54.4735   68.4553 C   0  0  0  0  0  0  0  0  0  0  0  0
  -45.9079   54.1686   69.7861 C   0  0  0  0  0  0  0  0  0  0  0  0
  -45.8319   55.4069   67.6596 C   0  0  0  0  0  0  0  0  0  0  0  0
  -45.2171   55.7225   66.3155 C   0  0  0  0  0  0  0  0  0  0  0  0
  -44.7960   57.1870   66.2510 C   0  0  0  0  0  0  0  0  0  0  0  0
  -44.1950   57.5130   64.9000 C   0  0  0  0  0  0  0  0  0  0  0  0
  -44.8100   58.5630   64.0190 C   0  0  0  0  0  0  0  0  0  0  0  0
  -43.0990   56.8650   64.4810 C   0  0  0  0  0  0  0  0  0  0  0  0
  -42.4910   57.1900   63.1360 C   0  0  0  0  0  0  0  0  0  0  0  0
  -42.0598   58.6510   63.0933 C   0  0  0  0  0  0  0  0  0  0  0  0
  -41.0198   58.9165   64.1602 C   0  0  0  0  0  0  0  0  0  0  0  0
  -40.4558   60.2940   64.3205 C   0  0  0  0  0  0  0  0  0  0  0  0
  -40.6082   57.9291   64.9691 C   0  0  0  0  0  0  0  0  0  0  0  0
  -39.5738   58.1762   66.0435 C   0  0  0  0  0  0  0  0  0  0  0  0
  -43.7823   53.0302   68.7797 H   0  0  0  0  0  0  0  0  0  0  0  0
  -43.2657   54.4187   67.8534 H   0  0  0  0  0  0  0  0  0  0  0  0
  -44.2740   53.1996   67.1116 H   0  0  0  0  0  0  0  0  0  0  0  0
  -38.4973   59.6936   66.7189 H   0  0  0  0  0  0  0  0  0  0  0  0
  -45.3421   53.4037   70.2758 H   0  0  0  0  0  0  0  0  0  0  0  0
  -46.9134   53.8320   69.6429 H   0  0  0  0  0  0  0  0  0  0  0  0
  -45.9100   55.0523   70.3894 H   0  0  0  0  0  0  0  0  0  0  0  0
  -46.6765   55.9135   67.9677 H   0  0  0  0  0  0  0  0  0  0  0  0
  -45.9346   55.5283   65.5458 H   0  0  0  0  0  0  0  0  0  0  0  0
  -44.3524   55.1076   66.1777 H   0  0  0  0  0  0  0  0  0  0  0  0
  -44.0698   57.3774   67.0135 H   0  0  0  0  0  0  0  0  0  0  0  0
  -45.6604   57.8000   66.3995 H   0  0  0  0  0  0  0  0  0  0  0  0
  -45.6701   58.9759   64.5033 H   0  0  0  0  0  0  0  0  0  0  0  0
  -45.1018   58.1219   63.0888 H   0  0  0  0  0  0  0  0  0  0  0  0
  -44.0961   59.3390   63.8373 H   0  0  0  0  0  0  0  0  0  0  0  0
  -42.6690   56.1419   65.0787 H   0  0  0  0  0  0  0  0  0  0  0  0
  -43.2151   57.0125   62.3685 H   0  0  0  0  0  0  0  0  0  0  0  0
  -41.6343   56.5681   62.9804 H   0  0  0  0  0  0  0  0  0  0  0  0
  -42.9108   59.2765   63.2650 H   0  0  0  0  0  0  0  0  0  0  0  0
  -41.6394   58.8646   62.1329 H   0  0  0  0  0  0  0  0  0  0  0  0
  -40.8960   60.9463   63.5955 H   0  0  0  0  0  0  0  0  0  0  0  0
  -39.3959   60.2645   64.1768 H   0  0  0  0  0  0  0  0  0  0  0  0
  -40.6723   60.6559   65.3039 H   0  0  0  0  0  0  0  0  0  0  0  0
  -41.0049   56.9831   64.8561 H   0  0  0  0  0  0  0  0  0  0  0  0
  -39.9955   57.9464   66.9996 H   0  0  0  0  0  0  0  0  0  0  0  0
  -38.7238   57.5529   65.8596 H   0  0  0  0  0  0  0  0  0  0  0  0
  1  3  1  0  0  0  0
  1 17  1  0  0  0  0
  1 18  1  0  0  0  0
  1 19  1  0  0  0  0
  2 16  1  0  0  0  0
  2 20  1  0  0  0  0
  3  4  1  0  0  0  0
  3  5  2  0  0  0  0
  4 21  1  0  0  0  0
  4 22  1  0  0  0  0
  4 23  1  0  0  0  0
  5  6  1  0  0  0  0
  5 24  1  0  0  0  0
  6  7  1  0  0  0  0
  6 25  1  0  0  0  0
  6 26  1  0  0  0  0
  7  8  1  0  0  0  0
  7 27  1  0  0  0  0
  7 28  1  0  0  0  0
  8  9  1  0  0  0  0
  8 10  2  0  0  0  0
  9 29  1  0  0  0  0
  9 30  1  0  0  0  0
  9 31  1  0  0  0  0
 10 11  1  0  0  0  0
 10 32  1  0  0  0  0
 11 12  1  0  0  0  0
 11 33  1  0  0  0  0
 11 34  1  0  0  0  0
 12 13  1  0  0  0  0
 12 35  1  0  0  0  0
 12 36  1  0  0  0  0
 13 14  1  0  0  0  0
 13 15  2  0  0  0  0
 14 37  1  0  0  0  0
 14 38  1  0  0  0  0
 14 39  1  0  0  0  0
 15 16  1  0  0  0  0
 15 40  1  0  0  0  0
 16 41  1  0  0  0  0
 16 42  1  0  0  0  0
M  END
$$$$
/media/chris/experiments/cd1a-new-docking/inputs/ligands/6nux_ligand.pdb
 OpenBabel07022319323D

 42 41  0  0  0  0  0  0  0  0999 V2000
  -42.5824   59.4622   69.2611 C   0  0  0  0  0  0  0  0  0  0  0  0
  -42.0763   51.6461   64.1594 O   0  0  0  0  0  0  0  0  0  0  0  0
  -41.9401   58.5008   68.3083 C   0  0  0  0  0  0  0  0  0  0  0  0
  -40.4583   58.2806   68.3636 C   0  0  0  0  0  0  0  0  0  0  0  0
  -42.6840   57.8429   67.4066 C   0  0  0  0  0  0  0  0  0  0  0  0
  -44.1787   58.0572   67.3408 C   0  0  0  0  0  0  0  0  0  0  0  0
  -44.7960   57.1870   66.2510 C   0  0  0  0  0  0  0  0  0  0  0  0
  -44.1950   57.5130   64.9000 C   0  0  0  0  0  0  0  0  0  0  0  0
  -44.8100   58.5630   64.0190 C   0  0  0  0  0  0  0  0  0  0  0  0
  -43.0990   56.8650   64.4810 C   0  0  0  0  0  0  0  0  0  0  0  0
  -42.4910   57.1900   63.1360 C   0  0  0  0  0  0  0  0  0  0  0  0
  -42.4834   55.9507   62.2493 C   0  0  0  0  0  0  0  0  0  0  0  0
  -41.6852   54.8463   62.9079 C   0  0  0  0  0  0  0  0  0  0  0  0
  -40.5491   55.1936   63.8191 C   0  0  0  0  0  0  0  0  0  0  0  0
  -41.9953   53.5599   62.6891 C   0  0  0  0  0  0  0  0  0  0  0  0
  -41.2126   52.4434   63.3416 C   0  0  0  0  0  0  0  0  0  0  0  0
  -41.8346   59.8859   69.8984 H   0  0  0  0  0  0  0  0  0  0  0  0
  -43.3064   58.9451   69.8555 H   0  0  0  0  0  0  0  0  0  0  0  0
  -43.0648   60.2421   68.7099 H   0  0  0  0  0  0  0  0  0  0  0  0
  -41.5636   50.9337   64.5725 H   0  0  0  0  0  0  0  0  0  0  0  0
  -40.0365   58.8857   69.1387 H   0  0  0  0  0  0  0  0  0  0  0  0
  -40.0224   58.5494   67.4242 H   0  0  0  0  0  0  0  0  0  0  0  0
  -40.2584   57.2494   68.5675 H   0  0  0  0  0  0  0  0  0  0  0  0
  -42.2320   57.1850   66.7525 H   0  0  0  0  0  0  0  0  0  0  0  0
  -44.3776   59.0861   67.1247 H   0  0  0  0  0  0  0  0  0  0  0  0
  -44.6084   57.7883   68.2831 H   0  0  0  0  0  0  0  0  0  0  0  0
  -45.8510   57.3622   66.2174 H   0  0  0  0  0  0  0  0  0  0  0  0
  -44.5967   56.1603   66.4770 H   0  0  0  0  0  0  0  0  0  0  0  0
  -45.6701   58.9759   64.5033 H   0  0  0  0  0  0  0  0  0  0  0  0
  -45.1018   58.1219   63.0888 H   0  0  0  0  0  0  0  0  0  0  0  0
  -44.0961   59.3390   63.8373 H   0  0  0  0  0  0  0  0  0  0  0  0
  -42.6690   56.1419   65.0787 H   0  0  0  0  0  0  0  0  0  0  0  0
  -41.4865   57.5313   63.2752 H   0  0  0  0  0  0  0  0  0  0  0  0
  -43.0738   57.9535   62.6644 H   0  0  0  0  0  0  0  0  0  0  0  0
  -42.0409   56.1930   61.3057 H   0  0  0  0  0  0  0  0  0  0  0  0
  -43.4897   55.6172   62.1041 H   0  0  0  0  0  0  0  0  0  0  0  0
  -40.4483   56.2574   63.8740 H   0  0  0  0  0  0  0  0  0  0  0  0
  -39.6439   54.7687   63.4384 H   0  0  0  0  0  0  0  0  0  0  0  0
  -40.7433   54.8028   64.7961 H   0  0  0  0  0  0  0  0  0  0  0  0
  -42.7828   53.3281   62.0637 H   0  0  0  0  0  0  0  0  0  0  0  0
  -40.7763   51.8275   62.5832 H   0  0  0  0  0  0  0  0  0  0  0  0
  -40.4448   52.8673   63.9546 H   0  0  0  0  0  0  0  0  0  0  0  0
  1  3  1  0  0  0  0
  1 17  1  0  0  0  0
  1 18  1  0  0  0  0
  1 19  1  0  0  0  0
  2 16  1  0  0  0  0
  2 20  1  0  0  0  0
  3  4  1  0  0  0  0
  3  5  2  0  0  0  0
  4 21  1  0  0  0  0
  4 22  1  0  0  0  0
  4 23  1  0  0  0  0
  5  6  1  0  0  0  0
  5 24  1  0  0  0  0
  6  7  1  0  0  0  0
  6 25  1  0  0  0  0
  6 26  1  0  0  0  0
  7  8  1  0  0  0  0
  7 27  1  0  0  0  0
  7 28  1  0  0  0  0
  8  9  1  0  0  0  0
  8 10  2  0  0  0  0
  9 29  1  0  0  0  0
  9 30  1  0  0  0  0
  9 31  1  0  0  0  0
 10 11  1  0  0  0  0
 10 32  1  0  0  0  0
 11 12  1  0  0  0  0
 11 33  1  0  0  0  0
 11 34  1  0  0  0  0
 12 13  1  0  0  0  0
 12 35  1  0  0  0  0
 12 36  1  0  0  0  0
 13 14  1  0  0  0  0
 13 15  2  0  0  0  0
 14 37  1  0  0  0  0
 14 38  1  0  0  0  0
 14 39  1  0  0  0  0
 15 16  1  0  0  0  0
 15 40  1  0  0  0  0
 16 41  1  0  0  0  0
 16 42  1  0  0  0  0
M  END
$$$$
/media/chris/experiments/cd1a-new-docking/inputs/ligands/6nux_ligand.pdb
 OpenBabel07022319323D

 42 41  0  0  0  0  0  0  0  0999 V2000
  -43.9996   54.8817   66.0837 C   0  0  0  0  0  0  0  0  0  0  0  0
  -45.9056   52.9326   62.0228 O   0  0  0  0  0  0  0  0  0  0  0  0
  -45.2153   54.5811   65.2613 C   0  0  0  0  0  0  0  0  0  0  0  0
  -45.2581   53.3346   64.4296 C   0  0  0  0  0  0  0  0  0  0  0  0
  -46.2593   55.4233   65.2639 C   0  0  0  0  0  0  0  0  0  0  0  0
  -46.2274   56.6833   66.0979 C   0  0  0  0  0  0  0  0  0  0  0  0
  -44.7960   57.1870   66.2510 C   0  0  0  0  0  0  0  0  0  0  0  0
  -44.1950   57.5130   64.9000 C   0  0  0  0  0  0  0  0  0  0  0  0
  -44.8100   58.5630   64.0190 C   0  0  0  0  0  0  0  0  0  0  0  0
  -43.0990   56.8650   64.4810 C   0  0  0  0  0  0  0  0  0  0  0  0
  -42.4910   57.1900   63.1360 C   0  0  0  0  0  0  0  0  0  0  0  0
  -42.4834   55.9507   62.2493 C   0  0  0  0  0  0  0  0  0  0  0  0
  -43.8989   55.4647   62.0246 C   0  0  0  0  0  0  0  0  0  0  0  0
  -45.0440   56.1996   62.6492 C   0  0  0  0  0  0  0  0  0  0  0  0
  -44.1348   54.3872   61.2616 C   0  0  0  0  0  0  0  0  0  0  0  0
  -45.5420   53.8898   61.0218 C   0  0  0  0  0  0  0  0  0  0  0  0
  -43.2791   54.1014   65.9536 H   0  0  0  0  0  0  0  0  0  0  0  0
  -44.2740   54.9453   67.1159 H   0  0  0  0  0  0  0  0  0  0  0  0
  -43.5774   55.8131   65.7688 H   0  0  0  0  0  0  0  0  0  0  0  0
  -46.8094   52.6208   61.8588 H   0  0  0  0  0  0  0  0  0  0  0  0
  -44.3444   52.7917   64.5534 H   0  0  0  0  0  0  0  0  0  0  0  0
  -45.3802   53.5972   63.3995 H   0  0  0  0  0  0  0  0  0  0  0  0
  -46.0802   52.7253   64.7422 H   0  0  0  0  0  0  0  0  0  0  0  0
  -47.0910   55.2091   64.6918 H   0  0  0  0  0  0  0  0  0  0  0  0
  -46.6328   56.4751   67.0660 H   0  0  0  0  0  0  0  0  0  0  0  0
  -46.8087   57.4367   65.6086 H   0  0  0  0  0  0  0  0  0  0  0  0
  -44.2062   56.4300   66.7242 H   0  0  0  0  0  0  0  0  0  0  0  0
  -44.8064   58.0762   66.8461 H   0  0  0  0  0  0  0  0  0  0  0  0
  -45.6701   58.9759   64.5033 H   0  0  0  0  0  0  0  0  0  0  0  0
  -45.1018   58.1219   63.0888 H   0  0  0  0  0  0  0  0  0  0  0  0
  -44.0961   59.3390   63.8373 H   0  0  0  0  0  0  0  0  0  0  0  0
  -42.6690   56.1419   65.0787 H   0  0  0  0  0  0  0  0  0  0  0  0
  -41.4865   57.5313   63.2752 H   0  0  0  0  0  0  0  0  0  0  0  0
  -43.0738   57.9535   62.6644 H   0  0  0  0  0  0  0  0  0  0  0  0
  -41.9153   55.1786   62.7248 H   0  0  0  0  0  0  0  0  0  0  0  0
  -42.0433   56.1973   61.3057 H   0  0  0  0  0  0  0  0  0  0  0  0
  -44.6702   57.0250   63.2183 H   0  0  0  0  0  0  0  0  0  0  0  0
  -45.5839   55.5375   63.2935 H   0  0  0  0  0  0  0  0  0  0  0  0
  -45.6964   56.5615   61.8822 H   0  0  0  0  0  0  0  0  0  0  0  0
  -43.3409   53.8885   60.8301 H   0  0  0  0  0  0  0  0  0  0  0  0
  -46.2204   54.7164   61.0603 H   0  0  0  0  0  0  0  0  0  0  0  0
  -45.5883   53.4236   60.0598 H   0  0  0  0  0  0  0  0  0  0  0  0
  1  3  1  0  0  0  0
  1 17  1  0  0  0  0
  1 18  1  0  0  0  0
  1 19  1  0  0  0  0
  2 16  1  0  0  0  0
  2 20  1  0  0  0  0
  3  4  1  0  0  0  0
  3  5  2  0  0  0  0
  4 21  1  0  0  0  0
  4 22  1  0  0  0  0
  4 23  1  0  0  0  0
  5  6  1  0  0  0  0
  5 24  1  0  0  0  0
  6  7  1  0  0  0  0
  6 25  1  0  0  0  0
  6 26  1  0  0  0  0
  7  8  1  0  0  0  0
  7 27  1  0  0  0  0
  7 28  1  0  0  0  0
  8  9  1  0  0  0  0
  8 10  2  0  0  0  0
  9 29  1  0  0  0  0
  9 30  1  0  0  0  0
  9 31  1  0  0  0  0
 10 11  1  0  0  0  0
 10 32  1  0  0  0  0
 11 12  1  0  0  0  0
 11 33  1  0  0  0  0
 11 34  1  0  0  0  0
 12 13  1  0  0  0  0
 12 35  1  0  0  0  0
 12 36  1  0  0  0  0
 13 14  1  0  0  0  0
 13 15  2  0  0  0  0
 14 37  1  0  0  0  0
 14 38  1  0  0  0  0
 14 39  1  0  0  0  0
 15 16  1  0  0  0  0
 15 40  1  0  0  0  0
 16 41  1  0  0  0  0
 16 42  1  0  0  0  0
M  END
$$$$
/media/chris/experiments/cd1a-new-docking/inputs/ligands/6nux_ligand.pdb
 OpenBabel07022319323D

 42 41  0  0  0  0  0  0  0  0999 V2000
  -45.1636   58.7000   68.7193 C   0  0  0  0  0  0  0  0  0  0  0  0
  -41.0168   59.9680   67.6810 O   0  0  0  0  0  0  0  0  0  0  0  0
  -45.0024   57.3131   69.2627 C   0  0  0  0  0  0  0  0  0  0  0  0
  -45.6000   56.9639   70.5925 C   0  0  0  0  0  0  0  0  0  0  0  0
  -44.3238   56.3884   68.5674 C   0  0  0  0  0  0  0  0  0  0  0  0
  -43.7163   56.7289   67.2260 C   0  0  0  0  0  0  0  0  0  0  0  0
  -44.7960   57.1870   66.2510 C   0  0  0  0  0  0  0  0  0  0  0  0
  -44.1950   57.5130   64.9000 C   0  0  0  0  0  0  0  0  0  0  0  0
  -44.8100   58.5630   64.0190 C   0  0  0  0  0  0  0  0  0  0  0  0
  -43.0990   56.8650   64.4810 C   0  0  0  0  0  0  0  0  0  0  0  0
  -42.4910   57.1900   63.1360 C   0  0  0  0  0  0  0  0  0  0  0  0
  -42.0598   58.6510   63.0933 C   0  0  0  0  0  0  0  0  0  0  0  0
  -41.0198   58.9165   64.1602 C   0  0  0  0  0  0  0  0  0  0  0  0
  -39.5670   58.7516   63.8380 C   0  0  0  0  0  0  0  0  0  0  0  0
  -41.3901   59.3083   65.3882 C   0  0  0  0  0  0  0  0  0  0  0  0
  -40.3656   59.5828   66.4653 C   0  0  0  0  0  0  0  0  0  0  0  0
  -45.7297   59.2899   69.4095 H   0  0  0  0  0  0  0  0  0  0  0  0
  -45.6767   58.6581   67.7813 H   0  0  0  0  0  0  0  0  0  0  0  0
  -44.1994   59.1423   68.5790 H   0  0  0  0  0  0  0  0  0  0  0  0
  -40.3503   60.1413   68.3640 H   0  0  0  0  0  0  0  0  0  0  0  0
  -46.0992   57.8204   70.9952 H   0  0  0  0  0  0  0  0  0  0  0  0
  -44.8245   56.6554   71.2621 H   0  0  0  0  0  0  0  0  0  0  0  0
  -46.3029   56.1666   70.4693 H   0  0  0  0  0  0  0  0  0  0  0  0
  -44.2156   55.4367   68.9514 H   0  0  0  0  0  0  0  0  0  0  0  0
  -43.2291   55.8625   66.8301 H   0  0  0  0  0  0  0  0  0  0  0  0
  -43.0100   57.5219   67.3574 H   0  0  0  0  0  0  0  0  0  0  0  0
  -45.2747   58.0603   66.6422 H   0  0  0  0  0  0  0  0  0  0  0  0
  -45.5068   56.3965   66.1292 H   0  0  0  0  0  0  0  0  0  0  0  0
  -45.6701   58.9759   64.5033 H   0  0  0  0  0  0  0  0  0  0  0  0
  -45.1018   58.1219   63.0888 H   0  0  0  0  0  0  0  0  0  0  0  0
  -44.0961   59.3390   63.8373 H   0  0  0  0  0  0  0  0  0  0  0  0
  -42.6690   56.1419   65.0787 H   0  0  0  0  0  0  0  0  0  0  0  0
  -43.2151   57.0125   62.3685 H   0  0  0  0  0  0  0  0  0  0  0  0
  -41.6343   56.5681   62.9804 H   0  0  0  0  0  0  0  0  0  0  0  0
  -42.9108   59.2765   63.2650 H   0  0  0  0  0  0  0  0  0  0  0  0
  -41.6394   58.8646   62.1329 H   0  0  0  0  0  0  0  0  0  0  0  0
  -39.4608   58.4363   62.8210 H   0  0  0  0  0  0  0  0  0  0  0  0
  -39.1392   58.0156   64.4862 H   0  0  0  0  0  0  0  0  0  0  0  0
  -39.0628   59.6852   63.9764 H   0  0  0  0  0  0  0  0  0  0  0  0
  -42.3930   59.4247   65.6018 H   0  0  0  0  0  0  0  0  0  0  0  0
  -39.7890   58.6982   66.6383 H   0  0  0  0  0  0  0  0  0  0  0  0
  -39.7264   60.3786   66.1444 H   0  0  0  0  0  0  0  0  0  0  0  0
  1  3  1  0  0  0  0
  1 17  1  0  0  0  0
  1 18  1  0  0  0  0
  1 19  1  0  0  0  0
  2 16  1  0  0  0  0
  2 20  1  0  0  0  0
  3  4  1  0  0  0  0
  3  5  2  0  0  0  0
  4 21  1  0  0  0  0
  4 22  1  0  0  0  0
  4 23  1  0  0  0  0
  5  6  1  0  0  0  0
  5 24  1  0  0  0  0
  6  7  1  0  0  0  0
  6 25  1  0  0  0  0
  6 26  1  0  0  0  0
  7  8  1  0  0  0  0
  7 27  1  0  0  0  0
  7 28  1  0  0  0  0
  8  9  1  0  0  0  0
  8 10  2  0  0  0  0
  9 29  1  0  0  0  0
  9 30  1  0  0  0  0
  9 31  1  0  0  0  0
 10 11  1  0  0  0  0
 10 32  1  0  0  0  0
 11 12  1  0  0  0  0
 11 33  1  0  0  0  0
 11 34  1  0  0  0  0
 12 13  1  0  0  0  0
 12 35  1  0  0  0  0
 12 36  1  0  0  0  0
 13 14  1  0  0  0  0
 13 15  2  0  0  0  0
 14 37  1  0  0  0  0
 14 38  1  0  0  0  0
 14 39  1  0  0  0  0
 15 16  1  0  0  0  0
 15 40  1  0  0  0  0
 16 41  1  0  0  0  0
 16 42  1  0  0  0  0
M  END
$$$$
/media/chris/experiments/cd1a-new-docking/inputs/ligands/6nux_ligand.pdb
 OpenBabel07022319323D

 42 41  0  0  0  0  0  0  0  0999 V2000
  -42.9761   55.5403   69.3503 C   0  0  0  0  0  0  0  0  0  0  0  0
  -44.9534   52.9854   62.6849 O   0  0  0  0  0  0  0  0  0  0  0  0
  -42.1749   55.7060   68.0952 C   0  0  0  0  0  0  0  0  0  0  0  0
  -40.9459   54.8738   67.8850 C   0  0  0  0  0  0  0  0  0  0  0  0
  -42.5506   56.5966   67.1652 C   0  0  0  0  0  0  0  0  0  0  0  0
  -43.7874   57.4416   67.3664 C   0  0  0  0  0  0  0  0  0  0  0  0
  -44.7960   57.1870   66.2510 C   0  0  0  0  0  0  0  0  0  0  0  0
  -44.1950   57.5130   64.9000 C   0  0  0  0  0  0  0  0  0  0  0  0
  -44.8100   58.5630   64.0190 C   0  0  0  0  0  0  0  0  0  0  0  0
  -43.0990   56.8650   64.4810 C   0  0  0  0  0  0  0  0  0  0  0  0
  -42.4910   57.1900   63.1360 C   0  0  0  0  0  0  0  0  0  0  0  0
  -43.5074   56.9465   62.0271 C   0  0  0  0  0  0  0  0  0  0  0  0
  -43.9537   55.5005   62.0405 C   0  0  0  0  0  0  0  0  0  0  0  0
  -45.3358   55.1459   61.5871 C   0  0  0  0  0  0  0  0  0  0  0  0
  -43.1163   54.5342   62.4455 C   0  0  0  0  0  0  0  0  0  0  0  0
  -43.5425   53.0839   62.4613 C   0  0  0  0  0  0  0  0  0  0  0  0
  -42.5244   54.7903   69.9654 H   0  0  0  0  0  0  0  0  0  0  0  0
  -43.9733   55.2436   69.1004 H   0  0  0  0  0  0  0  0  0  0  0  0
  -43.0028   56.4688   69.8816 H   0  0  0  0  0  0  0  0  0  0  0  0
  -45.2150   52.0513   62.6930 H   0  0  0  0  0  0  0  0  0  0  0  0
  -40.8057   54.2261   68.7250 H   0  0  0  0  0  0  0  0  0  0  0  0
  -40.0948   55.5141   67.7824 H   0  0  0  0  0  0  0  0  0  0  0  0
  -41.0599   54.2872   66.9974 H   0  0  0  0  0  0  0  0  0  0  0  0
  -41.9905   56.7056   66.3053 H   0  0  0  0  0  0  0  0  0  0  0  0
  -43.5118   58.4755   67.3625 H   0  0  0  0  0  0  0  0  0  0  0  0
  -44.2348   57.1825   68.3031 H   0  0  0  0  0  0  0  0  0  0  0  0
  -45.6574   57.8016   66.4096 H   0  0  0  0  0  0  0  0  0  0  0  0
  -45.0697   56.1527   66.2648 H   0  0  0  0  0  0  0  0  0  0  0  0
  -45.6701   58.9759   64.5033 H   0  0  0  0  0  0  0  0  0  0  0  0
  -45.1018   58.1219   63.0888 H   0  0  0  0  0  0  0  0  0  0  0  0
  -44.0961   59.3390   63.8373 H   0  0  0  0  0  0  0  0  0  0  0  0
  -42.6690   56.1419   65.0787 H   0  0  0  0  0  0  0  0  0  0  0  0
  -41.6359   56.5673   62.9748 H   0  0  0  0  0  0  0  0  0  0  0  0
  -42.2003   58.2197   63.1236 H   0  0  0  0  0  0  0  0  0  0  0  0
  -43.0600   57.1702   61.0812 H   0  0  0  0  0  0  0  0  0  0  0  0
  -44.3572   57.5772   62.1855 H   0  0  0  0  0  0  0  0  0  0  0  0
  -45.8573   56.0359   61.3030 H   0  0  0  0  0  0  0  0  0  0  0  0
  -45.8606   54.6644   62.3856 H   0  0  0  0  0  0  0  0  0  0  0  0
  -45.2772   54.4838   60.7485 H   0  0  0  0  0  0  0  0  0  0  0  0
  -42.1634   54.7854   62.7520 H   0  0  0  0  0  0  0  0  0  0  0  0
  -43.3016   52.6345   61.5206 H   0  0  0  0  0  0  0  0  0  0  0  0
  -43.0277   52.5774   63.2508 H   0  0  0  0  0  0  0  0  0  0  0  0
  1  3  1  0  0  0  0
  1 17  1  0  0  0  0
  1 18  1  0  0  0  0
  1 19  1  0  0  0  0
  2 16  1  0  0  0  0
  2 20  1  0  0  0  0
  3  4  1  0  0  0  0
  3  5  2  0  0  0  0
  4 21  1  0  0  0  0
  4 22  1  0  0  0  0
  4 23  1  0  0  0  0
  5  6  1  0  0  0  0
  5 24  1  0  0  0  0
  6  7  1  0  0  0  0
  6 25  1  0  0  0  0
  6 26  1  0  0  0  0
  7  8  1  0  0  0  0
  7 27  1  0  0  0  0
  7 28  1  0  0  0  0
  8  9  1  0  0  0  0
  8 10  2  0  0  0  0
  9 29  1  0  0  0  0
  9 30  1  0  0  0  0
  9 31  1  0  0  0  0
 10 11  1  0  0  0  0
 10 32  1  0  0  0  0
 11 12  1  0  0  0  0
 11 33  1  0  0  0  0
 11 34  1  0  0  0  0
 12 13  1  0  0  0  0
 12 35  1  0  0  0  0
 12 36  1  0  0  0  0
 13 14  1  0  0  0  0
 13 15  2  0  0  0  0
 14 37  1  0  0  0  0
 14 38  1  0  0  0  0
 14 39  1  0  0  0  0
 15 16  1  0  0  0  0
 15 40  1  0  0  0  0
 16 41  1  0  0  0  0
 16 42  1  0  0  0  0
M  END
$$$$
/media/chris/experiments/cd1a-new-docking/inputs/ligands/6nux_ligand.pdb
 OpenBabel07022319323D

 42 41  0  0  0  0  0  0  0  0999 V2000
  -48.5179   59.4615   66.5847 C   0  0  0  0  0  0  0  0  0  0  0  0
  -38.9948   58.1057   59.6740 O   0  0  0  0  0  0  0  0  0  0  0  0
  -48.2503   58.4606   65.5025 C   0  0  0  0  0  0  0  0  0  0  0  0
  -49.2938   58.2013   64.4580 C   0  0  0  0  0  0  0  0  0  0  0  0
  -47.0859   57.7956   65.4686 C   0  0  0  0  0  0  0  0  0  0  0  0
  -46.0265   58.0480   66.5166 C   0  0  0  0  0  0  0  0  0  0  0  0
  -44.7960   57.1870   66.2510 C   0  0  0  0  0  0  0  0  0  0  0  0
  -44.1950   57.5130   64.9000 C   0  0  0  0  0  0  0  0  0  0  0  0
  -44.8100   58.5630   64.0190 C   0  0  0  0  0  0  0  0  0  0  0  0
  -43.0990   56.8650   64.4810 C   0  0  0  0  0  0  0  0  0  0  0  0
  -42.4910   57.1900   63.1360 C   0  0  0  0  0  0  0  0  0  0  0  0
  -42.4834   55.9507   62.2493 C   0  0  0  0  0  0  0  0  0  0  0  0
  -41.8584   56.2748   60.9097 C   0  0  0  0  0  0  0  0  0  0  0  0
  -42.6586   56.1029   59.6561 C   0  0  0  0  0  0  0  0  0  0  0  0
  -40.5969   56.7247   60.8391 C   0  0  0  0  0  0  0  0  0  0  0  0
  -39.9572   57.0582   59.5106 C   0  0  0  0  0  0  0  0  0  0  0  0
  -49.4906   59.8852   66.4460 H   0  0  0  0  0  0  0  0  0  0  0  0
  -47.7818   60.2369   66.5434 H   0  0  0  0  0  0  0  0  0  0  0  0
  -48.4725   58.9770   67.5377 H   0  0  0  0  0  0  0  0  0  0  0  0
  -38.5914   58.3110   58.8161 H   0  0  0  0  0  0  0  0  0  0  0  0
  -50.1475   58.8185   64.6457 H   0  0  0  0  0  0  0  0  0  0  0  0
  -49.5838   57.1718   64.4913 H   0  0  0  0  0  0  0  0  0  0  0  0
  -48.8951   58.4284   63.4913 H   0  0  0  0  0  0  0  0  0  0  0  0
  -46.9120   57.1059   64.7209 H   0  0  0  0  0  0  0  0  0  0  0  0
  -46.4219   57.8089   67.4817 H   0  0  0  0  0  0  0  0  0  0  0  0
  -45.7420   59.0788   66.4794 H   0  0  0  0  0  0  0  0  0  0  0  0
  -45.0788   56.1552   66.2697 H   0  0  0  0  0  0  0  0  0  0  0  0
  -44.0671   57.3864   67.0085 H   0  0  0  0  0  0  0  0  0  0  0  0
  -45.6701   58.9759   64.5033 H   0  0  0  0  0  0  0  0  0  0  0  0
  -45.1018   58.1219   63.0888 H   0  0  0  0  0  0  0  0  0  0  0  0
  -44.0961   59.3390   63.8373 H   0  0  0  0  0  0  0  0  0  0  0  0
  -42.6690   56.1419   65.0787 H   0  0  0  0  0  0  0  0  0  0  0  0
  -41.4865   57.5313   63.2752 H   0  0  0  0  0  0  0  0  0  0  0  0
  -43.0738   57.9535   62.6644 H   0  0  0  0  0  0  0  0  0  0  0  0
  -43.4887   55.6164   62.0994 H   0  0  0  0  0  0  0  0  0  0  0  0
  -41.9120   55.1819   62.7261 H   0  0  0  0  0  0  0  0  0  0  0  0
  -43.6339   55.7382   59.9027 H   0  0  0  0  0  0  0  0  0  0  0  0
  -42.1681   55.4024   59.0130 H   0  0  0  0  0  0  0  0  0  0  0  0
  -42.7459   57.0451   59.1567 H   0  0  0  0  0  0  0  0  0  0  0  0
  -40.0528   56.8455   61.7077 H   0  0  0  0  0  0  0  0  0  0  0  0
  -39.4697   56.1874   59.1246 H   0  0  0  0  0  0  0  0  0  0  0  0
  -40.7158   57.3842   58.8300 H   0  0  0  0  0  0  0  0  0  0  0  0
  1  3  1  0  0  0  0
  1 17  1  0  0  0  0
  1 18  1  0  0  0  0
  1 19  1  0  0  0  0
  2 16  1  0  0  0  0
  2 20  1  0  0  0  0
  3  4  1  0  0  0  0
  3  5  2  0  0  0  0
  4 21  1  0  0  0  0
  4 22  1  0  0  0  0
  4 23  1  0  0  0  0
  5  6  1  0  0  0  0
  5 24  1  0  0  0  0
  6  7  1  0  0  0  0
  6 25  1  0  0  0  0
  6 26  1  0  0  0  0
  7  8  1  0  0  0  0
  7 27  1  0  0  0  0
  7 28  1  0  0  0  0
  8  9  1  0  0  0  0
  8 10  2  0  0  0  0
  9 29  1  0  0  0  0
  9 30  1  0  0  0  0
  9 31  1  0  0  0  0
 10 11  1  0  0  0  0
 10 32  1  0  0  0  0
 11 12  1  0  0  0  0
 11 33  1  0  0  0  0
 11 34  1  0  0  0  0
 12 13  1  0  0  0  0
 12 35  1  0  0  0  0
 12 36  1  0  0  0  0
 13 14  1  0  0  0  0
 13 15  2  0  0  0  0
 14 37  1  0  0  0  0
 14 38  1  0  0  0  0
 14 39  1  0  0  0  0
 15 16  1  0  0  0  0
 15 40  1  0  0  0  0
 16 41  1  0  0  0  0
 16 42  1  0  0  0  0
M  END
$$$$
/media/chris/experiments/cd1a-new-docking/inputs/ligands/6nux_ligand.pdb
 OpenBabel07022319323D

 42 41  0  0  0  0  0  0  0  0999 V2000
  -46.3478   61.1364   66.6513 C   0  0  0  0  0  0  0  0  0  0  0  0
  -48.2289   56.3631   61.8751 O   0  0  0  0  0  0  0  0  0  0  0  0
  -44.9082   60.8204   66.9202 C   0  0  0  0  0  0  0  0  0  0  0  0
  -43.9222   61.9376   67.0844 C   0  0  0  0  0  0  0  0  0  0  0  0
  -44.5005   59.5457   67.0095 C   0  0  0  0  0  0  0  0  0  0  0  0
  -45.4852   58.4111   66.8450 C   0  0  0  0  0  0  0  0  0  0  0  0
  -44.7960   57.1870   66.2510 C   0  0  0  0  0  0  0  0  0  0  0  0
  -44.1950   57.5130   64.9000 C   0  0  0  0  0  0  0  0  0  0  0  0
  -44.8100   58.5630   64.0190 C   0  0  0  0  0  0  0  0  0  0  0  0
  -43.0990   56.8650   64.4810 C   0  0  0  0  0  0  0  0  0  0  0  0
  -42.4910   57.1900   63.1360 C   0  0  0  0  0  0  0  0  0  0  0  0
  -43.5718   57.6613   62.1707 C   0  0  0  0  0  0  0  0  0  0  0  0
  -44.6212   56.5842   62.0006 C   0  0  0  0  0  0  0  0  0  0  0  0
  -44.2248   55.2369   61.4817 C   0  0  0  0  0  0  0  0  0  0  0  0
  -45.9010   56.8250   62.3214 C   0  0  0  0  0  0  0  0  0  0  0  0
  -46.9623   55.7602   62.1628 C   0  0  0  0  0  0  0  0  0  0  0  0
  -46.4793   62.1977   66.6153 H   0  0  0  0  0  0  0  0  0  0  0  0
  -46.9545   60.7282   67.4324 H   0  0  0  0  0  0  0  0  0  0  0  0
  -46.6378   60.7091   65.7141 H   0  0  0  0  0  0  0  0  0  0  0  0
  -48.9012   55.6711   61.7756 H   0  0  0  0  0  0  0  0  0  0  0  0
  -44.4260   62.8760   66.9820 H   0  0  0  0  0  0  0  0  0  0  0  0
  -43.1632   61.8565   66.3346 H   0  0  0  0  0  0  0  0  0  0  0  0
  -43.4735   61.8776   68.0540 H   0  0  0  0  0  0  0  0  0  0  0  0
  -43.5062   59.3381   67.1919 H   0  0  0  0  0  0  0  0  0  0  0  0
  -46.2746   58.7217   66.1929 H   0  0  0  0  0  0  0  0  0  0  0  0
  -45.8799   58.1536   67.8057 H   0  0  0  0  0  0  0  0  0  0  0  0
  -45.5134   56.4015   66.1358 H   0  0  0  0  0  0  0  0  0  0  0  0
  -44.0117   56.8802   66.9110 H   0  0  0  0  0  0  0  0  0  0  0  0
  -45.6701   58.9759   64.5033 H   0  0  0  0  0  0  0  0  0  0  0  0
  -45.1018   58.1219   63.0888 H   0  0  0  0  0  0  0  0  0  0  0  0
  -44.0961   59.3390   63.8373 H   0  0  0  0  0  0  0  0  0  0  0  0
  -42.6690   56.1419   65.0787 H   0  0  0  0  0  0  0  0  0  0  0  0
  -42.0205   56.3145   62.7398 H   0  0  0  0  0  0  0  0  0  0  0  0
  -41.7680   57.9692   63.2585 H   0  0  0  0  0  0  0  0  0  0  0  0
  -43.1288   57.8771   61.2209 H   0  0  0  0  0  0  0  0  0  0  0  0
  -44.0341   58.5421   62.5647 H   0  0  0  0  0  0  0  0  0  0  0  0
  -43.1740   55.2273   61.2803 H   0  0  0  0  0  0  0  0  0  0  0  0
  -44.7626   55.0295   60.5802 H   0  0  0  0  0  0  0  0  0  0  0  0
  -44.4545   54.4910   62.2136 H   0  0  0  0  0  0  0  0  0  0  0  0
  -46.1662   57.7545   62.6831 H   0  0  0  0  0  0  0  0  0  0  0  0
  -46.6909   55.1077   61.3594 H   0  0  0  0  0  0  0  0  0  0  0  0
  -47.0389   55.2053   63.0744 H   0  0  0  0  0  0  0  0  0  0  0  0
  1  3  1  0  0  0  0
  1 17  1  0  0  0  0
  1 18  1  0  0  0  0
  1 19  1  0  0  0  0
  2 16  1  0  0  0  0
  2 20  1  0  0  0  0
  3  4  1  0  0  0  0
  3  5  2  0  0  0  0
  4 21  1  0  0  0  0
  4 22  1  0  0  0  0
  4 23  1  0  0  0  0
  5  6  1  0  0  0  0
  5 24  1  0  0  0  0
  6  7  1  0  0  0  0
  6 25  1  0  0  0  0
  6 26  1  0  0  0  0
  7  8  1  0  0  0  0
  7 27  1  0  0  0  0
  7 28  1  0  0  0  0
  8  9  1  0  0  0  0
  8 10  2  0  0  0  0
  9 29  1  0  0  0  0
  9 30  1  0  0  0  0
  9 31  1  0  0  0  0
 10 11  1  0  0  0  0
 10 32  1  0  0  0  0
 11 12  1  0  0  0  0
 11 33  1  0  0  0  0
 11 34  1  0  0  0  0
 12 13  1  0  0  0  0
 12 35  1  0  0  0  0
 12 36  1  0  0  0  0
 13 14  1  0  0  0  0
 13 15  2  0  0  0  0
 14 37  1  0  0  0  0
 14 38  1  0  0  0  0
 14 39  1  0  0  0  0
 15 16  1  0  0  0  0
 15 40  1  0  0  0  0
 16 41  1  0  0  0  0
 16 42  1  0  0  0  0
M  END
$$$$
/media/chris/experiments/cd1a-new-docking/inputs/ligands/6nux_ligand.pdb
 OpenBabel07022319323D

 42 41  0  0  0  0  0  0  0  0999 V2000
  -44.4485   59.4894   66.9958 C   0  0  0  0  0  0  0  0  0  0  0  0
  -39.0283   54.0749   64.5765 O   0  0  0  0  0  0  0  0  0  0  0  0
  -43.0365   59.1105   67.3235 C   0  0  0  0  0  0  0  0  0  0  0  0
  -42.0094   60.1832   67.5274 C   0  0  0  0  0  0  0  0  0  0  0  0
  -42.6897   57.8192   67.4300 C   0  0  0  0  0  0  0  0  0  0  0  0
  -43.7163   56.7289   67.2260 C   0  0  0  0  0  0  0  0  0  0  0  0
  -44.7960   57.1870   66.2510 C   0  0  0  0  0  0  0  0  0  0  0  0
  -44.1950   57.5130   64.9000 C   0  0  0  0  0  0  0  0  0  0  0  0
  -44.8100   58.5630   64.0190 C   0  0  0  0  0  0  0  0  0  0  0  0
  -43.0990   56.8650   64.4810 C   0  0  0  0  0  0  0  0  0  0  0  0
  -42.4910   57.1900   63.1360 C   0  0  0  0  0  0  0  0  0  0  0  0
  -42.4834   55.9507   62.2493 C   0  0  0  0  0  0  0  0  0  0  0  0
  -41.6852   54.8463   62.9079 C   0  0  0  0  0  0  0  0  0  0  0  0
  -42.3726   53.8721   63.8133 C   0  0  0  0  0  0  0  0  0  0  0  0
  -40.3692   54.7284   62.6775 C   0  0  0  0  0  0  0  0  0  0  0  0
  -39.5563   53.6291   63.3224 C   0  0  0  0  0  0  0  0  0  0  0  0
  -44.5312   60.5554   66.9540 H   0  0  0  0  0  0  0  0  0  0  0  0
  -45.1041   59.1102   67.7517 H   0  0  0  0  0  0  0  0  0  0  0  0
  -44.7186   59.0732   66.0478 H   0  0  0  0  0  0  0  0  0  0  0  0
  -38.5092   53.3621   64.9806 H   0  0  0  0  0  0  0  0  0  0  0  0
  -42.4664   61.1428   67.4039 H   0  0  0  0  0  0  0  0  0  0  0  0
  -41.2247   60.0669   66.8093 H   0  0  0  0  0  0  0  0  0  0  0  0
  -41.6038   60.1057   68.5145 H   0  0  0  0  0  0  0  0  0  0  0  0
  -41.7139   57.5681   67.6531 H   0  0  0  0  0  0  0  0  0  0  0  0
  -44.1688   56.4911   68.1660 H   0  0  0  0  0  0  0  0  0  0  0  0
  -43.2290   55.8662   66.8221 H   0  0  0  0  0  0  0  0  0  0  0  0
  -45.2747   58.0603   66.6422 H   0  0  0  0  0  0  0  0  0  0  0  0
  -45.5068   56.3965   66.1292 H   0  0  0  0  0  0  0  0  0  0  0  0
  -45.6701   58.9759   64.5033 H   0  0  0  0  0  0  0  0  0  0  0  0
  -45.1018   58.1219   63.0888 H   0  0  0  0  0  0  0  0  0  0  0  0
  -44.0961   59.3390   63.8373 H   0  0  0  0  0  0  0  0  0  0  0  0
  -42.6690   56.1419   65.0787 H   0  0  0  0  0  0  0  0  0  0  0  0
  -41.4865   57.5313   63.2752 H   0  0  0  0  0  0  0  0  0  0  0  0
  -43.0738   57.9535   62.6644 H   0  0  0  0  0  0  0  0  0  0  0  0
  -42.0409   56.1930   61.3057 H   0  0  0  0  0  0  0  0  0  0  0  0
  -43.4897   55.6172   62.1041 H   0  0  0  0  0  0  0  0  0  0  0  0
  -43.4118   54.1184   63.8791 H   0  0  0  0  0  0  0  0  0  0  0  0
  -41.9326   53.9189   64.7875 H   0  0  0  0  0  0  0  0  0  0  0  0
  -42.2648   52.8827   63.4204 H   0  0  0  0  0  0  0  0  0  0  0  0
  -39.9029   55.4005   62.0483 H   0  0  0  0  0  0  0  0  0  0  0  0
  -40.1817   52.7763   63.4854 H   0  0  0  0  0  0  0  0  0  0  0  0
  -38.7452   53.3689   62.6749 H   0  0  0  0  0  0  0  0  0  0  0  0
  1  3  1  0  0  0  0
  1 17  1  0  0  0  0
  1 18  1  0  0  0  0
  1 19  1  0  0  0  0
  2 16  1  0  0  0  0
  2 20  1  0  0  0  0
  3  4  1  0  0  0  0
  3  5  2  0  0  0  0
  4 21  1  0  0  0  0
  4 22  1  0  0  0  0
  4 23  1  0  0  0  0
  5  6  1  0  0  0  0
  5 24  1  0  0  0  0
  6  7  1  0  0  0  0
  6 25  1  0  0  0  0
  6 26  1  0  0  0  0
  7  8  1  0  0  0  0
  7 27  1  0  0  0  0
  7 28  1  0  0  0  0
  8  9  1  0  0  0  0
  8 10  2  0  0  0  0
  9 29  1  0  0  0  0
  9 30  1  0  0  0  0
  9 31  1  0  0  0  0
 10 11  1  0  0  0  0
 10 32  1  0  0  0  0
 11 12  1  0  0  0  0
 11 33  1  0  0  0  0
 11 34  1  0  0  0  0
 12 13  1  0  0  0  0
 12 35  1  0  0  0  0
 12 36  1  0  0  0  0
 13 14  1  0  0  0  0
 13 15  2  0  0  0  0
 14 37  1  0  0  0  0
 14 38  1  0  0  0  0
 14 39  1  0  0  0  0
 15 16  1  0  0  0  0
 15 40  1  0  0  0  0
 16 41  1  0  0  0  0
 16 42  1  0  0  0  0
M  END
$$$$
/media/chris/experiments/cd1a-new-docking/inputs/ligands/6nux_ligand.pdb
 OpenBabel07022319323D

 42 41  0  0  0  0  0  0  0  0999 V2000
  -42.7008   57.7819   67.3613 C   0  0  0  0  0  0  0  0  0  0  0  0
  -39.0283   54.0749   64.5765 O   0  0  0  0  0  0  0  0  0  0  0  0
  -42.2054   56.4049   67.0404 C   0  0  0  0  0  0  0  0  0  0  0  0
  -40.7372   56.1101   67.1105 C   0  0  0  0  0  0  0  0  0  0  0  0
  -43.0683   55.4404   66.6876 C   0  0  0  0  0  0  0  0  0  0  0  0
  -44.5505   55.7258   66.6128 C   0  0  0  0  0  0  0  0  0  0  0  0
  -44.7960   57.1870   66.2510 C   0  0  0  0  0  0  0  0  0  0  0  0
  -44.1950   57.5130   64.9000 C   0  0  0  0  0  0  0  0  0  0  0  0
  -44.8100   58.5630   64.0190 C   0  0  0  0  0  0  0  0  0  0  0  0
  -43.0990   56.8650   64.4810 C   0  0  0  0  0  0  0  0  0  0  0  0
  -42.4910   57.1900   63.1360 C   0  0  0  0  0  0  0  0  0  0  0  0
  -42.4834   55.9507   62.2493 C   0  0  0  0  0  0  0  0  0  0  0  0
  -41.6852   54.8463   62.9079 C   0  0  0  0  0  0  0  0  0  0  0  0
  -42.3726   53.8721   63.8133 C   0  0  0  0  0  0  0  0  0  0  0  0
  -40.3692   54.7284   62.6775 C   0  0  0  0  0  0  0  0  0  0  0  0
  -39.5563   53.6291   63.3224 C   0  0  0  0  0  0  0  0  0  0  0  0
  -41.8722   58.4081   67.6187 H   0  0  0  0  0  0  0  0  0  0  0  0
  -43.3807   57.7332   68.1860 H   0  0  0  0  0  0  0  0  0  0  0  0
  -43.2032   58.1880   66.5083 H   0  0  0  0  0  0  0  0  0  0  0  0
  -38.5092   53.3621   64.9806 H   0  0  0  0  0  0  0  0  0  0  0  0
  -40.2099   56.9929   67.4064 H   0  0  0  0  0  0  0  0  0  0  0  0
  -40.3908   55.7932   66.1490 H   0  0  0  0  0  0  0  0  0  0  0  0
  -40.5631   55.3339   67.8260 H   0  0  0  0  0  0  0  0  0  0  0  0
  -42.7171   54.4958   66.4655 H   0  0  0  0  0  0  0  0  0  0  0  0
  -44.9973   55.5185   67.5627 H   0  0  0  0  0  0  0  0  0  0  0  0
  -44.9847   55.1048   65.8574 H   0  0  0  0  0  0  0  0  0  0  0  0
  -44.3484   57.8128   66.9946 H   0  0  0  0  0  0  0  0  0  0  0  0
  -45.8514   57.3577   66.2078 H   0  0  0  0  0  0  0  0  0  0  0  0
  -45.6701   58.9759   64.5033 H   0  0  0  0  0  0  0  0  0  0  0  0
  -45.1018   58.1219   63.0888 H   0  0  0  0  0  0  0  0  0  0  0  0
  -44.0961   59.3390   63.8373 H   0  0  0  0  0  0  0  0  0  0  0  0
  -42.6690   56.1419   65.0787 H   0  0  0  0  0  0  0  0  0  0  0  0
  -41.4865   57.5313   63.2752 H   0  0  0  0  0  0  0  0  0  0  0  0
  -43.0738   57.9535   62.6644 H   0  0  0  0  0  0  0  0  0  0  0  0
  -42.0409   56.1930   61.3057 H   0  0  0  0  0  0  0  0  0  0  0  0
  -43.4897   55.6172   62.1041 H   0  0  0  0  0  0  0  0  0  0  0  0
  -43.4118   54.1184   63.8791 H   0  0  0  0  0  0  0  0  0  0  0  0
  -41.9326   53.9189   64.7875 H   0  0  0  0  0  0  0  0  0  0  0  0
  -42.2648   52.8827   63.4204 H   0  0  0  0  0  0  0  0  0  0  0  0
  -39.9029   55.4005   62.0483 H   0  0  0  0  0  0  0  0  0  0  0  0
  -40.1817   52.7763   63.4854 H   0  0  0  0  0  0  0  0  0  0  0  0
  -38.7452   53.3689   62.6749 H   0  0  0  0  0  0  0  0  0  0  0  0
  1  3  1  0  0  0  0
  1 17  1  0  0  0  0
  1 18  1  0  0  0  0
  1 19  1  0  0  0  0
  2 16  1  0  0  0  0
  2 20  1  0  0  0  0
  3  4  1  0  0  0  0
  3  5  2  0  0  0  0
  4 21  1  0  0  0  0
  4 22  1  0  0  0  0
  4 23  1  0  0  0  0
  5  6  1  0  0  0  0
  5 24  1  0  0  0  0
  6  7  1  0  0  0  0
  6 25  1  0  0  0  0
  6 26  1  0  0  0  0
  7  8  1  0  0  0  0
  7 27  1  0  0  0  0
  7 28  1  0  0  0  0
  8  9  1  0  0  0  0
  8 10  2  0  0  0  0
  9 29  1  0  0  0  0
  9 30  1  0  0  0  0
  9 31  1  0  0  0  0
 10 11  1  0  0  0  0
 10 32  1  0  0  0  0
 11 12  1  0  0  0  0
 11 33  1  0  0  0  0
 11 34  1  0  0  0  0
 12 13  1  0  0  0  0
 12 35  1  0  0  0  0
 12 36  1  0  0  0  0
 13 14  1  0  0  0  0
 13 15  2  0  0  0  0
 14 37  1  0  0  0  0
 14 38  1  0  0  0  0
 14 39  1  0  0  0  0
 15 16  1  0  0  0  0
 15 40  1  0  0  0  0
 16 41  1  0  0  0  0
 16 42  1  0  0  0  0
M  END
$$$$
/media/chris/experiments/cd1a-new-docking/inputs/ligands/6nux_ligand.pdb
 OpenBabel07022319323D

 42 41  0  0  0  0  0  0  0  0999 V2000
  -44.6795   54.7786   67.9335 C   0  0  0  0  0  0  0  0  0  0  0  0
  -42.2528   56.2512   57.6946 O   0  0  0  0  0  0  0  0  0  0  0  0
  -44.8011   55.8501   68.9735 C   0  0  0  0  0  0  0  0  0  0  0  0
  -45.3943   55.5216   70.3105 C   0  0  0  0  0  0  0  0  0  0  0  0
  -44.3864   57.0984   68.7108 C   0  0  0  0  0  0  0  0  0  0  0  0
  -43.7874   57.4416   67.3664 C   0  0  0  0  0  0  0  0  0  0  0  0
  -44.7960   57.1870   66.2510 C   0  0  0  0  0  0  0  0  0  0  0  0
  -44.1950   57.5130   64.9000 C   0  0  0  0  0  0  0  0  0  0  0  0
  -44.8100   58.5630   64.0190 C   0  0  0  0  0  0  0  0  0  0  0  0
  -43.0990   56.8650   64.4810 C   0  0  0  0  0  0  0  0  0  0  0  0
  -42.4910   57.1900   63.1360 C   0  0  0  0  0  0  0  0  0  0  0  0
  -41.8169   55.9546   62.5516 C   0  0  0  0  0  0  0  0  0  0  0  0
  -41.1941   56.2875   61.2131 C   0  0  0  0  0  0  0  0  0  0  0  0
  -39.7769   56.7663   61.1522 C   0  0  0  0  0  0  0  0  0  0  0  0
  -41.8995   56.1463   60.0811 C   0  0  0  0  0  0  0  0  0  0  0  0
  -41.2930   56.4692   58.7346 C   0  0  0  0  0  0  0  0  0  0  0  0
  -45.0596   53.8577   68.3240 H   0  0  0  0  0  0  0  0  0  0  0  0
  -43.6505   54.6553   67.6671 H   0  0  0  0  0  0  0  0  0  0  0  0
  -45.2414   55.0574   67.0667 H   0  0  0  0  0  0  0  0  0  0  0  0
  -41.8528   56.4614   56.8362 H   0  0  0  0  0  0  0  0  0  0  0  0
  -45.6647   54.4867   70.3362 H   0  0  0  0  0  0  0  0  0  0  0  0
  -46.2653   56.1220   70.4715 H   0  0  0  0  0  0  0  0  0  0  0  0
  -44.6763   55.7218   71.0782 H   0  0  0  0  0  0  0  0  0  0  0  0
  -44.4772   57.8303   69.4326 H   0  0  0  0  0  0  0  0  0  0  0  0
  -42.9206   56.8361   67.2022 H   0  0  0  0  0  0  0  0  0  0  0  0
  -43.5201   58.4777   67.3611 H   0  0  0  0  0  0  0  0  0  0  0  0
  -45.6574   57.8016   66.4096 H   0  0  0  0  0  0  0  0  0  0  0  0
  -45.0697   56.1527   66.2648 H   0  0  0  0  0  0  0  0  0  0  0  0
  -45.6701   58.9759   64.5033 H   0  0  0  0  0  0  0  0  0  0  0  0
  -45.1018   58.1219   63.0888 H   0  0  0  0  0  0  0  0  0  0  0  0
  -44.0961   59.3390   63.8373 H   0  0  0  0  0  0  0  0  0  0  0  0
  -42.6690   56.1419   65.0787 H   0  0  0  0  0  0  0  0  0  0  0  0
  -41.7644   57.9664   63.2548 H   0  0  0  0  0  0  0  0  0  0  0  0
  -43.2650   57.5130   62.4715 H   0  0  0  0  0  0  0  0  0  0  0  0
  -42.5455   55.1821   62.4208 H   0  0  0  0  0  0  0  0  0  0  0  0
  -41.0515   55.6228   63.2216 H   0  0  0  0  0  0  0  0  0  0  0  0
  -39.3750   56.8179   62.1425 H   0  0  0  0  0  0  0  0  0  0  0  0
  -39.7476   57.7377   60.7043 H   0  0  0  0  0  0  0  0  0  0  0  0
  -39.1953   56.0857   60.5662 H   0  0  0  0  0  0  0  0  0  0  0  0
  -42.8742   55.8110   60.1302 H   0  0  0  0  0  0  0  0  0  0  0  0
  -40.9852   57.4939   58.7222 H   0  0  0  0  0  0  0  0  0  0  0  0
  -40.4492   55.8322   58.5700 H   0  0  0  0  0  0  0  0  0  0  0  0
  1  3  1  0  0  0  0
  1 17  1  0  0  0  0
  1 18  1  0  0  0  0
  1 19  1  0  0  0  0
  2 16  1  0  0  0  0
  2 20  1  0  0  0  0
  3  4  1  0  0  0  0
  3  5  2  0  0  0  0
  4 21  1  0  0  0  0
  4 22  1  0  0  0  0
  4 23  1  0  0  0  0
  5  6  1  0  0  0  0
  5 24  1  0  0  0  0
  6  7  1  0  0  0  0
  6 25  1  0  0  0  0
  6 26  1  0  0  0  0
  7  8  1  0  0  0  0
  7 27  1  0  0  0  0
  7 28  1  0  0  0  0
  8  9  1  0  0  0  0
  8 10  2  0  0  0  0
  9 29  1  0  0  0  0
  9 30  1  0  0  0  0
  9 31  1  0  0  0  0
 10 11  1  0  0  0  0
 10 32  1  0  0  0  0
 11 12  1  0  0  0  0
 11 33  1  0  0  0  0
 11 34  1  0  0  0  0
 12 13  1  0  0  0  0
 12 35  1  0  0  0  0
 12 36  1  0  0  0  0
 13 14  1  0  0  0  0
 13 15  2  0  0  0  0
 14 37  1  0  0  0  0
 14 38  1  0  0  0  0
 14 39  1  0  0  0  0
 15 16  1  0  0  0  0
 15 40  1  0  0  0  0
 16 41  1  0  0  0  0
 16 42  1  0  0  0  0
M  END
$$$$
/media/chris/experiments/cd1a-new-docking/inputs/ligands/6nux_ligand.pdb
 OpenBabel07022319323D

 42 41  0  0  0  0  0  0  0  0999 V2000
  -44.3214   56.4464   68.5347 C   0  0  0  0  0  0  0  0  0  0  0  0
  -40.6557   58.2572   67.8701 O   0  0  0  0  0  0  0  0  0  0  0  0
  -45.7303   55.9410   68.6006 C   0  0  0  0  0  0  0  0  0  0  0  0
  -46.3448   55.6300   69.9321 C   0  0  0  0  0  0  0  0  0  0  0  0
  -46.4385   55.7627   67.4756 C   0  0  0  0  0  0  0  0  0  0  0  0
  -45.8295   56.0722   66.1275 C   0  0  0  0  0  0  0  0  0  0  0  0
  -44.7960   57.1870   66.2510 C   0  0  0  0  0  0  0  0  0  0  0  0
  -44.1950   57.5130   64.9000 C   0  0  0  0  0  0  0  0  0  0  0  0
  -44.8100   58.5630   64.0190 C   0  0  0  0  0  0  0  0  0  0  0  0
  -43.0990   56.8650   64.4810 C   0  0  0  0  0  0  0  0  0  0  0  0
  -42.4910   57.1900   63.1360 C   0  0  0  0  0  0  0  0  0  0  0  0
  -40.9848   56.9614   63.1710 C   0  0  0  0  0  0  0  0  0  0  0  0
  -40.3519   57.8347   64.2327 C   0  0  0  0  0  0  0  0  0  0  0  0
  -39.3147   58.8420   63.8440 C   0  0  0  0  0  0  0  0  0  0  0  0
  -40.7215   57.7198   65.5168 C   0  0  0  0  0  0  0  0  0  0  0  0
  -40.1041   58.5865   66.5905 C   0  0  0  0  0  0  0  0  0  0  0  0
  -43.9234   56.5232   69.5250 H   0  0  0  0  0  0  0  0  0  0  0  0
  -44.3095   57.4100   68.0698 H   0  0  0  0  0  0  0  0  0  0  0  0
  -43.7251   55.7669   67.9624 H   0  0  0  0  0  0  0  0  0  0  0  0
  -40.2526   58.8191   68.5503 H   0  0  0  0  0  0  0  0  0  0  0  0
  -45.6361   55.8321   70.7080 H   0  0  0  0  0  0  0  0  0  0  0  0
  -46.6236   54.5975   69.9639 H   0  0  0  0  0  0  0  0  0  0  0  0
  -47.2133   56.2385   70.0750 H   0  0  0  0  0  0  0  0  0  0  0  0
  -47.4073   55.4113   67.5310 H   0  0  0  0  0  0  0  0  0  0  0  0
  -46.6020   56.3813   65.4548 H   0  0  0  0  0  0  0  0  0  0  0  0
  -45.3467   55.1926   65.7559 H   0  0  0  0  0  0  0  0  0  0  0  0
  -44.0179   56.8724   66.9147 H   0  0  0  0  0  0  0  0  0  0  0  0
  -45.2787   58.0624   66.6326 H   0  0  0  0  0  0  0  0  0  0  0  0
  -45.6701   58.9759   64.5033 H   0  0  0  0  0  0  0  0  0  0  0  0
  -45.1018   58.1219   63.0888 H   0  0  0  0  0  0  0  0  0  0  0  0
  -44.0961   59.3390   63.8373 H   0  0  0  0  0  0  0  0  0  0  0  0
  -42.6690   56.1419   65.0787 H   0  0  0  0  0  0  0  0  0  0  0  0
  -42.6877   58.2143   62.8973 H   0  0  0  0  0  0  0  0  0  0  0  0
  -42.9240   56.5526   62.3936 H   0  0  0  0  0  0  0  0  0  0  0  0
  -40.5673   57.2056   62.2166 H   0  0  0  0  0  0  0  0  0  0  0  0
  -40.7912   55.9344   63.4006 H   0  0  0  0  0  0  0  0  0  0  0  0
  -39.1476   58.7927   62.7882 H   0  0  0  0  0  0  0  0  0  0  0  0
  -38.4013   58.6307   64.3598 H   0  0  0  0  0  0  0  0  0  0  0  0
  -39.6537   59.8224   64.1061 H   0  0  0  0  0  0  0  0  0  0  0  0
  -41.4406   57.0268   65.7768 H   0  0  0  0  0  0  0  0  0  0  0  0
  -39.0464   58.4258   66.6096 H   0  0  0  0  0  0  0  0  0  0  0  0
  -40.3138   59.6132   66.3737 H   0  0  0  0  0  0  0  0  0  0  0  0
  1  3  1  0  0  0  0
  1 17  1  0  0  0  0
  1 18  1  0  0  0  0
  1 19  1  0  0  0  0
  2 16  1  0  0  0  0
  2 20  1  0  0  0  0
  3  4  1  0  0  0  0
  3  5  2  0  0  0  0
  4 21  1  0  0  0  0
  4 22  1  0  0  0  0
  4 23  1  0  0  0  0
  5  6  1  0  0  0  0
  5 24  1  0  0  0  0
  6  7  1  0  0  0  0
  6 25  1  0  0  0  0
  6 26  1  0  0  0  0
  7  8  1  0  0  0  0
  7 27  1  0  0  0  0
  7 28  1  0  0  0  0
  8  9  1  0  0  0  0
  8 10  2  0  0  0  0
  9 29  1  0  0  0  0
  9 30  1  0  0  0  0
  9 31  1  0  0  0  0
 10 11  1  0  0  0  0
 10 32  1  0  0  0  0
 11 12  1  0  0  0  0
 11 33  1  0  0  0  0
 11 34  1  0  0  0  0
 12 13  1  0  0  0  0
 12 35  1  0  0  0  0
 12 36  1  0  0  0  0
 13 14  1  0  0  0  0
 13 15  2  0  0  0  0
 14 37  1  0  0  0  0
 14 38  1  0  0  0  0
 14 39  1  0  0  0  0
 15 16  1  0  0  0  0
 15 40  1  0  0  0  0
 16 41  1  0  0  0  0
 16 42  1  0  0  0  0
M  END
$$$$
/media/chris/experiments/cd1a-new-docking/inputs/ligands/6nux_ligand.pdb
 OpenBabel07022319323D

 42 41  0  0  0  0  0  0  0  0999 V2000
  -41.4729   56.3199   68.9607 C   0  0  0  0  0  0  0  0  0  0  0  0
  -42.7615   61.2499   65.5904 O   0  0  0  0  0  0  0  0  0  0  0  0
  -41.6396   57.6235   68.2413 C   0  0  0  0  0  0  0  0  0  0  0  0
  -40.6281   58.7125   68.4363 C   0  0  0  0  0  0  0  0  0  0  0  0
  -42.6897   57.8192   67.4300 C   0  0  0  0  0  0  0  0  0  0  0  0
  -43.7163   56.7289   67.2260 C   0  0  0  0  0  0  0  0  0  0  0  0
  -44.7960   57.1870   66.2510 C   0  0  0  0  0  0  0  0  0  0  0  0
  -44.1950   57.5130   64.9000 C   0  0  0  0  0  0  0  0  0  0  0  0
  -44.8100   58.5630   64.0190 C   0  0  0  0  0  0  0  0  0  0  0  0
  -43.0990   56.8650   64.4810 C   0  0  0  0  0  0  0  0  0  0  0  0
  -42.4910   57.1900   63.1360 C   0  0  0  0  0  0  0  0  0  0  0  0
  -41.0574   57.6762   63.3109 C   0  0  0  0  0  0  0  0  0  0  0  0
  -41.0312   58.9108   64.1856 C   0  0  0  0  0  0  0  0  0  0  0  0
  -40.2626   58.8942   65.4704 C   0  0  0  0  0  0  0  0  0  0  0  0
  -41.6826   60.0223   63.8127 C   0  0  0  0  0  0  0  0  0  0  0  0
  -41.6640   61.2666   64.6709 C   0  0  0  0  0  0  0  0  0  0  0  0
  -40.5841   56.3520   69.5556 H   0  0  0  0  0  0  0  0  0  0  0  0
  -41.3962   55.5261   68.2473 H   0  0  0  0  0  0  0  0  0  0  0  0
  -42.3194   56.1507   69.5930 H   0  0  0  0  0  0  0  0  0  0  0  0
  -42.7393   62.0522   66.1351 H   0  0  0  0  0  0  0  0  0  0  0  0
  -39.8689   58.3774   69.1117 H   0  0  0  0  0  0  0  0  0  0  0  0
  -41.1094   59.5779   68.8417 H   0  0  0  0  0  0  0  0  0  0  0  0
  -40.1840   58.9597   67.4947 H   0  0  0  0  0  0  0  0  0  0  0  0
  -42.7975   58.7217   66.9412 H   0  0  0  0  0  0  0  0  0  0  0  0
  -44.1688   56.4911   68.1660 H   0  0  0  0  0  0  0  0  0  0  0  0
  -43.2290   55.8662   66.8221 H   0  0  0  0  0  0  0  0  0  0  0  0
  -45.2747   58.0603   66.6422 H   0  0  0  0  0  0  0  0  0  0  0  0
  -45.5068   56.3965   66.1292 H   0  0  0  0  0  0  0  0  0  0  0  0
  -45.6701   58.9759   64.5033 H   0  0  0  0  0  0  0  0  0  0  0  0
  -45.1018   58.1219   63.0888 H   0  0  0  0  0  0  0  0  0  0  0  0
  -44.0961   59.3390   63.8373 H   0  0  0  0  0  0  0  0  0  0  0  0
  -42.6690   56.1419   65.0787 H   0  0  0  0  0  0  0  0  0  0  0  0
  -43.0688   57.9561   62.6626 H   0  0  0  0  0  0  0  0  0  0  0  0
  -42.4893   56.3075   62.5309 H   0  0  0  0  0  0  0  0  0  0  0  0
  -40.6442   57.9123   62.3526 H   0  0  0  0  0  0  0  0  0  0  0  0
  -40.4798   56.9047   63.7758 H   0  0  0  0  0  0  0  0  0  0  0  0
  -39.8115   57.9332   65.6037 H   0  0  0  0  0  0  0  0  0  0  0  0
  -40.9264   59.0929   66.2857 H   0  0  0  0  0  0  0  0  0  0  0  0
  -39.5006   59.6448   65.4398 H   0  0  0  0  0  0  0  0  0  0  0  0
  -42.2063   60.0281   62.9234 H   0  0  0  0  0  0  0  0  0  0  0  0
  -40.7452   61.3050   65.2179 H   0  0  0  0  0  0  0  0  0  0  0  0
  -41.7501   62.1268   64.0403 H   0  0  0  0  0  0  0  0  0  0  0  0
  1  3  1  0  0  0  0
  1 17  1  0  0  0  0
  1 18  1  0  0  0  0
  1 19  1  0  0  0  0
  2 16  1  0  0  0  0
  2 20  1  0  0  0  0
  3  4  1  0  0  0  0
  3  5  2  0  0  0  0
  4 21  1  0  0  0  0
  4 22  1  0  0  0  0
  4 23  1  0  0  0  0
  5  6  1  0  0  0  0
  5 24  1  0  0  0  0
  6  7  1  0  0  0  0
  6 25  1  0  0  0  0
  6 26  1  0  0  0  0
  7  8  1  0  0  0  0
  7 27  1  0  0  0  0
  7 28  1  0  0  0  0
  8  9  1  0  0  0  0
  8 10  2  0  0  0  0
  9 29  1  0  0  0  0
  9 30  1  0  0  0  0
  9 31  1  0  0  0  0
 10 11  1  0  0  0  0
 10 32  1  0  0  0  0
 11 12  1  0  0  0  0
 11 33  1  0  0  0  0
 11 34  1  0  0  0  0
 12 13  1  0  0  0  0
 12 35  1  0  0  0  0
 12 36  1  0  0  0  0
 13 14  1  0  0  0  0
 13 15  2  0  0  0  0
 14 37  1  0  0  0  0
 14 38  1  0  0  0  0
 14 39  1  0  0  0  0
 15 16  1  0  0  0  0
 15 40  1  0  0  0  0
 16 41  1  0  0  0  0
 16 42  1  0  0  0  0
M  END
$$$$
/media/chris/experiments/cd1a-new-docking/inputs/ligands/6nux_ligand.pdb
 OpenBabel07022319323D

 42 41  0  0  0  0  0  0  0  0999 V2000
  -45.1751   54.3249   66.6766 C   0  0  0  0  0  0  0  0  0  0  0  0
  -38.1336   58.8984   60.1963 O   0  0  0  0  0  0  0  0  0  0  0  0
  -43.6969   54.3788   66.4385 C   0  0  0  0  0  0  0  0  0  0  0  0
  -42.9858   53.1677   65.9141 C   0  0  0  0  0  0  0  0  0  0  0  0
  -43.0105   55.5019   66.6965 C   0  0  0  0  0  0  0  0  0  0  0  0
  -43.7163   56.7289   67.2260 C   0  0  0  0  0  0  0  0  0  0  0  0
  -44.7960   57.1870   66.2510 C   0  0  0  0  0  0  0  0  0  0  0  0
  -44.1950   57.5130   64.9000 C   0  0  0  0  0  0  0  0  0  0  0  0
  -44.8100   58.5630   64.0190 C   0  0  0  0  0  0  0  0  0  0  0  0
  -43.0990   56.8650   64.4810 C   0  0  0  0  0  0  0  0  0  0  0  0
  -42.4910   57.1900   63.1360 C   0  0  0  0  0  0  0  0  0  0  0  0
  -42.0598   58.6510   63.0933 C   0  0  0  0  0  0  0  0  0  0  0  0
  -41.4673   58.9779   61.7397 C   0  0  0  0  0  0  0  0  0  0  0  0
  -42.3540   59.4809   60.6432 C   0  0  0  0  0  0  0  0  0  0  0  0
  -40.1527   58.8301   61.5192 C   0  0  0  0  0  0  0  0  0  0  0  0
  -39.5421   59.1560   60.1753 C   0  0  0  0  0  0  0  0  0  0  0  0
  -45.5434   53.3550   66.4149 H   0  0  0  0  0  0  0  0  0  0  0  0
  -45.6605   55.0649   66.0753 H   0  0  0  0  0  0  0  0  0  0  0  0
  -45.3772   54.5162   67.7098 H   0  0  0  0  0  0  0  0  0  0  0  0
  -37.7532   59.1109   59.3297 H   0  0  0  0  0  0  0  0  0  0  0  0
  -43.6902   52.3754   65.7694 H   0  0  0  0  0  0  0  0  0  0  0  0
  -42.2411   52.8589   66.6176 H   0  0  0  0  0  0  0  0  0  0  0  0
  -42.5187   53.4045   64.9811 H   0  0  0  0  0  0  0  0  0  0  0  0
  -41.9920   55.5283   66.5321 H   0  0  0  0  0  0  0  0  0  0  0  0
  -43.0035   57.5161   67.3571 H   0  0  0  0  0  0  0  0  0  0  0  0
  -44.1754   56.4871   68.1618 H   0  0  0  0  0  0  0  0  0  0  0  0
  -45.2747   58.0603   66.6422 H   0  0  0  0  0  0  0  0  0  0  0  0
  -45.5068   56.3965   66.1292 H   0  0  0  0  0  0  0  0  0  0  0  0
  -45.6701   58.9759   64.5033 H   0  0  0  0  0  0  0  0  0  0  0  0
  -45.1018   58.1219   63.0888 H   0  0  0  0  0  0  0  0  0  0  0  0
  -44.0961   59.3390   63.8373 H   0  0  0  0  0  0  0  0  0  0  0  0
  -42.6690   56.1419   65.0787 H   0  0  0  0  0  0  0  0  0  0  0  0
  -43.2151   57.0125   62.3685 H   0  0  0  0  0  0  0  0  0  0  0  0
  -41.6343   56.5681   62.9804 H   0  0  0  0  0  0  0  0  0  0  0  0
  -41.3263   58.8260   63.8525 H   0  0  0  0  0  0  0  0  0  0  0  0
  -42.9135   59.2736   63.2621 H   0  0  0  0  0  0  0  0  0  0  0  0
  -43.3626   59.5346   60.9964 H   0  0  0  0  0  0  0  0  0  0  0  0
  -42.3034   58.8129   59.8088 H   0  0  0  0  0  0  0  0  0  0  0  0
  -42.0297   60.4547   60.3407 H   0  0  0  0  0  0  0  0  0  0  0  0
  -39.5467   58.4876   62.2812 H   0  0  0  0  0  0  0  0  0  0  0  0
  -40.0010   58.5500   59.4223 H   0  0  0  0  0  0  0  0  0  0  0  0
  -39.7044   60.1915   59.9600 H   0  0  0  0  0  0  0  0  0  0  0  0
  1  3  1  0  0  0  0
  1 17  1  0  0  0  0
  1 18  1  0  0  0  0
  1 19  1  0  0  0  0
  2 16  1  0  0  0  0
  2 20  1  0  0  0  0
  3  4  1  0  0  0  0
  3  5  2  0  0  0  0
  4 21  1  0  0  0  0
  4 22  1  0  0  0  0
  4 23  1  0  0  0  0
  5  6  1  0  0  0  0
  5 24  1  0  0  0  0
  6  7  1  0  0  0  0
  6 25  1  0  0  0  0
  6 26  1  0  0  0  0
  7  8  1  0  0  0  0
  7 27  1  0  0  0  0
  7 28  1  0  0  0  0
  8  9  1  0  0  0  0
  8 10  2  0  0  0  0
  9 29  1  0  0  0  0
  9 30  1  0  0  0  0
  9 31  1  0  0  0  0
 10 11  1  0  0  0  0
 10 32  1  0  0  0  0
 11 12  1  0  0  0  0
 11 33  1  0  0  0  0
 11 34  1  0  0  0  0
 12 13  1  0  0  0  0
 12 35  1  0  0  0  0
 12 36  1  0  0  0  0
 13 14  1  0  0  0  0
 13 15  2  0  0  0  0
 14 37  1  0  0  0  0
 14 38  1  0  0  0  0
 14 39  1  0  0  0  0
 15 16  1  0  0  0  0
 15 40  1  0  0  0  0
 16 41  1  0  0  0  0
 16 42  1  0  0  0  0
M  END
$$$$
/media/chris/experiments/cd1a-new-docking/inputs/ligands/6nux_ligand.pdb
 OpenBabel07022319323D

 42 41  0  0  0  0  0  0  0  0999 V2000
  -46.7763   56.3484   67.4190 C   0  0  0  0  0  0  0  0  0  0  0  0
  -38.2058   59.0164   65.2570 O   0  0  0  0  0  0  0  0  0  0  0  0
  -46.3187   57.1149   68.6221 C   0  0  0  0  0  0  0  0  0  0  0  0
  -46.8921   56.7921   69.9691 C   0  0  0  0  0  0  0  0  0  0  0  0
  -45.4043   58.0883   68.4969 C   0  0  0  0  0  0  0  0  0  0  0  0
  -44.8195   58.4232   67.1440 C   0  0  0  0  0  0  0  0  0  0  0  0
  -44.7960   57.1870   66.2510 C   0  0  0  0  0  0  0  0  0  0  0  0
  -44.1950   57.5130   64.9000 C   0  0  0  0  0  0  0  0  0  0  0  0
  -44.8100   58.5630   64.0190 C   0  0  0  0  0  0  0  0  0  0  0  0
  -43.0990   56.8650   64.4810 C   0  0  0  0  0  0  0  0  0  0  0  0
  -42.4910   57.1900   63.1360 C   0  0  0  0  0  0  0  0  0  0  0  0
  -41.2715   56.3116   62.8844 C   0  0  0  0  0  0  0  0  0  0  0  0
  -40.2396   56.5333   63.9690 C   0  0  0  0  0  0  0  0  0  0  0  0
  -39.3288   55.4137   64.3672 C   0  0  0  0  0  0  0  0  0  0  0  0
  -40.1286   57.7283   64.5679 C   0  0  0  0  0  0  0  0  0  0  0  0
  -39.1008   57.9700   65.6498 C   0  0  0  0  0  0  0  0  0  0  0  0
  -47.5017   55.6196   67.7151 H   0  0  0  0  0  0  0  0  0  0  0  0
  -45.9390   55.8562   66.9700 H   0  0  0  0  0  0  0  0  0  0  0  0
  -47.2151   57.0218   66.7127 H   0  0  0  0  0  0  0  0  0  0  0  0
  -37.5516   59.1625   65.9581 H   0  0  0  0  0  0  0  0  0  0  0  0
  -47.5998   55.9952   69.8738 H   0  0  0  0  0  0  0  0  0  0  0  0
  -47.3808   57.6576   70.3654 H   0  0  0  0  0  0  0  0  0  0  0  0
  -46.1051   56.4931   70.6294 H   0  0  0  0  0  0  0  0  0  0  0  0
  -45.0976   58.6128   69.3310 H   0  0  0  0  0  0  0  0  0  0  0  0
  -43.8204   58.7841   67.2720 H   0  0  0  0  0  0  0  0  0  0  0  0
  -45.4263   59.1729   66.6809 H   0  0  0  0  0  0  0  0  0  0  0  0
  -45.7967   56.8337   66.1141 H   0  0  0  0  0  0  0  0  0  0  0  0
  -44.1973   56.4349   66.7210 H   0  0  0  0  0  0  0  0  0  0  0  0
  -45.6701   58.9759   64.5033 H   0  0  0  0  0  0  0  0  0  0  0  0
  -45.1018   58.1219   63.0888 H   0  0  0  0  0  0  0  0  0  0  0  0
  -44.0961   59.3390   63.8373 H   0  0  0  0  0  0  0  0  0  0  0  0
  -42.6690   56.1419   65.0787 H   0  0  0  0  0  0  0  0  0  0  0  0
  -42.1953   58.2182   63.1208 H   0  0  0  0  0  0  0  0  0  0  0  0
  -43.2168   57.0076   62.3712 H   0  0  0  0  0  0  0  0  0  0  0  0
  -40.8459   56.5601   61.9347 H   0  0  0  0  0  0  0  0  0  0  0  0
  -41.5717   55.2846   62.8907 H   0  0  0  0  0  0  0  0  0  0  0  0
  -39.5597   54.5434   63.7892 H   0  0  0  0  0  0  0  0  0  0  0  0
  -39.4628   55.1975   65.4065 H   0  0  0  0  0  0  0  0  0  0  0  0
  -38.3131   55.7001   64.1905 H   0  0  0  0  0  0  0  0  0  0  0  0
  -40.7564   58.4969   64.2848 H   0  0  0  0  0  0  0  0  0  0  0  0
  -39.5990   58.2519   66.5538 H   0  0  0  0  0  0  0  0  0  0  0  0
  -38.5406   57.0719   65.8060 H   0  0  0  0  0  0  0  0  0  0  0  0
  1  3  1  0  0  0  0
  1 17  1  0  0  0  0
  1 18  1  0  0  0  0
  1 19  1  0  0  0  0
  2 16  1  0  0  0  0
  2 20  1  0  0  0  0
  3  4  1  0  0  0  0
  3  5  2  0  0  0  0
  4 21  1  0  0  0  0
  4 22  1  0  0  0  0
  4 23  1  0  0  0  0
  5  6  1  0  0  0  0
  5 24  1  0  0  0  0
  6  7  1  0  0  0  0
  6 25  1  0  0  0  0
  6 26  1  0  0  0  0
  7  8  1  0  0  0  0
  7 27  1  0  0  0  0
  7 28  1  0  0  0  0
  8  9  1  0  0  0  0
  8 10  2  0  0  0  0
  9 29  1  0  0  0  0
  9 30  1  0  0  0  0
  9 31  1  0  0  0  0
 10 11  1  0  0  0  0
 10 32  1  0  0  0  0
 11 12  1  0  0  0  0
 11 33  1  0  0  0  0
 11 34  1  0  0  0  0
 12 13  1  0  0  0  0
 12 35  1  0  0  0  0
 12 36  1  0  0  0  0
 13 14  1  0  0  0  0
 13 15  2  0  0  0  0
 14 37  1  0  0  0  0
 14 38  1  0  0  0  0
 14 39  1  0  0  0  0
 15 16  1  0  0  0  0
 15 40  1  0  0  0  0
 16 41  1  0  0  0  0
 16 42  1  0  0  0  0
M  END
$$$$
/media/chris/experiments/cd1a-new-docking/inputs/ligands/6nux_ligand.pdb
 OpenBabel07022319323D

 42 41  0  0  0  0  0  0  0  0999 V2000
  -45.6957   60.4268   68.8703 C   0  0  0  0  0  0  0  0  0  0  0  0
  -37.8735   60.6768   64.4467 O   0  0  0  0  0  0  0  0  0  0  0  0
  -46.1671   59.0316   69.1458 C   0  0  0  0  0  0  0  0  0  0  0  0
  -46.7466   58.6961   70.4870 C   0  0  0  0  0  0  0  0  0  0  0  0
  -46.0682   58.0849   68.2007 C   0  0  0  0  0  0  0  0  0  0  0  0
  -45.4852   58.4111   66.8450 C   0  0  0  0  0  0  0  0  0  0  0  0
  -44.7960   57.1870   66.2510 C   0  0  0  0  0  0  0  0  0  0  0  0
  -44.1950   57.5130   64.9000 C   0  0  0  0  0  0  0  0  0  0  0  0
  -44.8100   58.5630   64.0190 C   0  0  0  0  0  0  0  0  0  0  0  0
  -43.0990   56.8650   64.4810 C   0  0  0  0  0  0  0  0  0  0  0  0
  -42.4910   57.1900   63.1360 C   0  0  0  0  0  0  0  0  0  0  0  0
  -42.0598   58.6510   63.0933 C   0  0  0  0  0  0  0  0  0  0  0  0
  -41.0198   58.9165   64.1602 C   0  0  0  0  0  0  0  0  0  0  0  0
  -41.3532   58.6719   65.5991 C   0  0  0  0  0  0  0  0  0  0  0  0
  -39.7990   59.3589   63.8245 C   0  0  0  0  0  0  0  0  0  0  0  0
  -38.7456   59.6252   64.8756 C   0  0  0  0  0  0  0  0  0  0  0  0
  -45.8551   61.0346   69.7363 H   0  0  0  0  0  0  0  0  0  0  0  0
  -46.2429   60.8317   68.0447 H   0  0  0  0  0  0  0  0  0  0  0  0
  -44.6525   60.4105   68.6331 H   0  0  0  0  0  0  0  0  0  0  0  0
  -37.2026   60.8386   65.1283 H   0  0  0  0  0  0  0  0  0  0  0  0
  -46.7447   59.5697   71.1050 H   0  0  0  0  0  0  0  0  0  0  0  0
  -46.1577   57.9313   70.9488 H   0  0  0  0  0  0  0  0  0  0  0  0
  -47.7509   58.3480   70.3647 H   0  0  0  0  0  0  0  0  0  0  0  0
  -46.3929   57.1260   68.4009 H   0  0  0  0  0  0  0  0  0  0  0  0
  -44.7711   59.2010   66.9497 H   0  0  0  0  0  0  0  0  0  0  0  0
  -46.2768   58.7134   66.1917 H   0  0  0  0  0  0  0  0  0  0  0  0
  -45.5134   56.4015   66.1358 H   0  0  0  0  0  0  0  0  0  0  0  0
  -44.0117   56.8802   66.9110 H   0  0  0  0  0  0  0  0  0  0  0  0
  -45.6701   58.9759   64.5033 H   0  0  0  0  0  0  0  0  0  0  0  0
  -45.1018   58.1219   63.0888 H   0  0  0  0  0  0  0  0  0  0  0  0
  -44.0961   59.3390   63.8373 H   0  0  0  0  0  0  0  0  0  0  0  0
  -42.6690   56.1419   65.0787 H   0  0  0  0  0  0  0  0  0  0  0  0
  -43.2151   57.0125   62.3685 H   0  0  0  0  0  0  0  0  0  0  0  0
  -41.6343   56.5681   62.9804 H   0  0  0  0  0  0  0  0  0  0  0  0
  -42.9108   59.2765   63.2650 H   0  0  0  0  0  0  0  0  0  0  0  0
  -41.6394   58.8646   62.1329 H   0  0  0  0  0  0  0  0  0  0  0  0
  -42.3622   58.3245   65.6774 H   0  0  0  0  0  0  0  0  0  0  0  0
  -41.2459   59.5829   66.1499 H   0  0  0  0  0  0  0  0  0  0  0  0
  -40.6898   57.9335   65.9984 H   0  0  0  0  0  0  0  0  0  0  0  0
  -39.5745   59.5206   62.8302 H   0  0  0  0  0  0  0  0  0  0  0  0
  -39.2228   59.9122   65.7892 H   0  0  0  0  0  0  0  0  0  0  0  0
  -38.1711   58.7353   65.0272 H   0  0  0  0  0  0  0  0  0  0  0  0
  1  3  1  0  0  0  0
  1 17  1  0  0  0  0
  1 18  1  0  0  0  0
  1 19  1  0  0  0  0
  2 16  1  0  0  0  0
  2 20  1  0  0  0  0
  3  4  1  0  0  0  0
  3  5  2  0  0  0  0
  4 21  1  0  0  0  0
  4 22  1  0  0  0  0
  4 23  1  0  0  0  0
  5  6  1  0  0  0  0
  5 24  1  0  0  0  0
  6  7  1  0  0  0  0
  6 25  1  0  0  0  0
  6 26  1  0  0  0  0
  7  8  1  0  0  0  0
  7 27  1  0  0  0  0
  7 28  1  0  0  0  0
  8  9  1  0  0  0  0
  8 10  2  0  0  0  0
  9 29  1  0  0  0  0
  9 30  1  0  0  0  0
  9 31  1  0  0  0  0
 10 11  1  0  0  0  0
 10 32  1  0  0  0  0
 11 12  1  0  0  0  0
 11 33  1  0  0  0  0
 11 34  1  0  0  0  0
 12 13  1  0  0  0  0
 12 35  1  0  0  0  0
 12 36  1  0  0  0  0
 13 14  1  0  0  0  0
 13 15  2  0  0  0  0
 14 37  1  0  0  0  0
 14 38  1  0  0  0  0
 14 39  1  0  0  0  0
 15 16  1  0  0  0  0
 15 40  1  0  0  0  0
 16 41  1  0  0  0  0
 16 42  1  0  0  0  0
M  END
$$$$
/media/chris/experiments/cd1a-new-docking/inputs/ligands/6nux_ligand.pdb
 OpenBabel07022319323D

 42 41  0  0  0  0  0  0  0  0999 V2000
  -46.0828   58.0603   68.1406 C   0  0  0  0  0  0  0  0  0  0  0  0
  -41.2358   52.1030   63.9651 O   0  0  0  0  0  0  0  0  0  0  0  0
  -45.4329   57.0123   68.9914 C   0  0  0  0  0  0  0  0  0  0  0  0
  -46.0260   56.6666   70.3241 C   0  0  0  0  0  0  0  0  0  0  0  0
  -44.3238   56.3884   68.5674 C   0  0  0  0  0  0  0  0  0  0  0  0
  -43.7163   56.7289   67.2260 C   0  0  0  0  0  0  0  0  0  0  0  0
  -44.7960   57.1870   66.2510 C   0  0  0  0  0  0  0  0  0  0  0  0
  -44.1950   57.5130   64.9000 C   0  0  0  0  0  0  0  0  0  0  0  0
  -44.8100   58.5630   64.0190 C   0  0  0  0  0  0  0  0  0  0  0  0
  -43.0990   56.8650   64.4810 C   0  0  0  0  0  0  0  0  0  0  0  0
  -42.4910   57.1900   63.1360 C   0  0  0  0  0  0  0  0  0  0  0  0
  -42.4834   55.9507   62.2493 C   0  0  0  0  0  0  0  0  0  0  0  0
  -41.6852   54.8463   62.9079 C   0  0  0  0  0  0  0  0  0  0  0  0
  -40.4823   54.2854   62.2151 C   0  0  0  0  0  0  0  0  0  0  0  0
  -42.0419   54.3746   64.1116 C   0  0  0  0  0  0  0  0  0  0  0  0
  -41.2542   53.2753   64.7872 C   0  0  0  0  0  0  0  0  0  0  0  0
  -46.9479   58.4409   68.6422 H   0  0  0  0  0  0  0  0  0  0  0  0
  -46.3734   57.6304   67.2049 H   0  0  0  0  0  0  0  0  0  0  0  0
  -45.3913   58.8582   67.9671 H   0  0  0  0  0  0  0  0  0  0  0  0
  -40.7282   51.4052   64.4082 H   0  0  0  0  0  0  0  0  0  0  0  0
  -46.8999   57.2611   70.4906 H   0  0  0  0  0  0  0  0  0  0  0  0
  -45.3097   56.8617   71.0947 H   0  0  0  0  0  0  0  0  0  0  0  0
  -46.2917   55.6302   70.3382 H   0  0  0  0  0  0  0  0  0  0  0  0
  -43.8816   55.6700   69.1619 H   0  0  0  0  0  0  0  0  0  0  0  0
  -43.2291   55.8625   66.8301 H   0  0  0  0  0  0  0  0  0  0  0  0
  -43.0100   57.5219   67.3574 H   0  0  0  0  0  0  0  0  0  0  0  0
  -45.2747   58.0603   66.6422 H   0  0  0  0  0  0  0  0  0  0  0  0
  -45.5068   56.3965   66.1292 H   0  0  0  0  0  0  0  0  0  0  0  0
  -45.6701   58.9759   64.5033 H   0  0  0  0  0  0  0  0  0  0  0  0
  -45.1018   58.1219   63.0888 H   0  0  0  0  0  0  0  0  0  0  0  0
  -44.0961   59.3390   63.8373 H   0  0  0  0  0  0  0  0  0  0  0  0
  -42.6690   56.1419   65.0787 H   0  0  0  0  0  0  0  0  0  0  0  0
  -41.4865   57.5313   63.2752 H   0  0  0  0  0  0  0  0  0  0  0  0
  -43.0738   57.9535   62.6644 H   0  0  0  0  0  0  0  0  0  0  0  0
  -42.0409   56.1930   61.3057 H   0  0  0  0  0  0  0  0  0  0  0  0
  -43.4897   55.6172   62.1041 H   0  0  0  0  0  0  0  0  0  0  0  0
  -40.3510   54.7773   61.2740 H   0  0  0  0  0  0  0  0  0  0  0  0
  -40.6205   53.2368   62.0533 H   0  0  0  0  0  0  0  0  0  0  0  0
  -39.6156   54.4413   62.8230 H   0  0  0  0  0  0  0  0  0  0  0  0
  -42.8693   54.7694   64.5855 H   0  0  0  0  0  0  0  0  0  0  0  0
  -40.2505   53.6085   64.9500 H   0  0  0  0  0  0  0  0  0  0  0  0
  -41.7169   53.0385   65.7224 H   0  0  0  0  0  0  0  0  0  0  0  0
  1  3  1  0  0  0  0
  1 17  1  0  0  0  0
  1 18  1  0  0  0  0
  1 19  1  0  0  0  0
  2 16  1  0  0  0  0
  2 20  1  0  0  0  0
  3  4  1  0  0  0  0
  3  5  2  0  0  0  0
  4 21  1  0  0  0  0
  4 22  1  0  0  0  0
  4 23  1  0  0  0  0
  5  6  1  0  0  0  0
  5 24  1  0  0  0  0
  6  7  1  0  0  0  0
  6 25  1  0  0  0  0
  6 26  1  0  0  0  0
  7  8  1  0  0  0  0
  7 27  1  0  0  0  0
  7 28  1  0  0  0  0
  8  9  1  0  0  0  0
  8 10  2  0  0  0  0
  9 29  1  0  0  0  0
  9 30  1  0  0  0  0
  9 31  1  0  0  0  0
 10 11  1  0  0  0  0
 10 32  1  0  0  0  0
 11 12  1  0  0  0  0
 11 33  1  0  0  0  0
 11 34  1  0  0  0  0
 12 13  1  0  0  0  0
 12 35  1  0  0  0  0
 12 36  1  0  0  0  0
 13 14  1  0  0  0  0
 13 15  2  0  0  0  0
 14 37  1  0  0  0  0
 14 38  1  0  0  0  0
 14 39  1  0  0  0  0
 15 16  1  0  0  0  0
 15 40  1  0  0  0  0
 16 41  1  0  0  0  0
 16 42  1  0  0  0  0
M  END
$$$$
/media/chris/experiments/cd1a-new-docking/inputs/ligands/6nux_ligand.pdb
 OpenBabel07022319323D

 42 41  0  0  0  0  0  0  0  0999 V2000
  -46.5029   59.4251   68.3084 C   0  0  0  0  0  0  0  0  0  0  0  0
  -38.6415   54.9820   65.1571 O   0  0  0  0  0  0  0  0  0  0  0  0
  -45.8589   58.3569   69.1383 C   0  0  0  0  0  0  0  0  0  0  0  0
  -46.4356   58.0101   70.4778 C   0  0  0  0  0  0  0  0  0  0  0  0
  -44.7695   57.7159   68.6894 C   0  0  0  0  0  0  0  0  0  0  0  0
  -44.1787   58.0572   67.3408 C   0  0  0  0  0  0  0  0  0  0  0  0
  -44.7960   57.1870   66.2510 C   0  0  0  0  0  0  0  0  0  0  0  0
  -44.1950   57.5130   64.9000 C   0  0  0  0  0  0  0  0  0  0  0  0
  -44.8100   58.5630   64.0190 C   0  0  0  0  0  0  0  0  0  0  0  0
  -43.0990   56.8650   64.4810 C   0  0  0  0  0  0  0  0  0  0  0  0
  -42.4910   57.1900   63.1360 C   0  0  0  0  0  0  0  0  0  0  0  0
  -41.4500   58.2932   63.2825 C   0  0  0  0  0  0  0  0  0  0  0  0
  -40.3407   57.8405   64.2071 C   0  0  0  0  0  0  0  0  0  0  0  0
  -39.2071   58.7682   64.5163 C   0  0  0  0  0  0  0  0  0  0  0  0
  -40.3720   56.6186   64.7593 C   0  0  0  0  0  0  0  0  0  0  0  0
  -39.2756   56.1506   65.6888 C   0  0  0  0  0  0  0  0  0  0  0  0
  -47.3517   59.8175   68.8284 H   0  0  0  0  0  0  0  0  0  0  0  0
  -46.8177   59.0096   67.3740 H   0  0  0  0  0  0  0  0  0  0  0  0
  -45.7991   60.2112   68.1302 H   0  0  0  0  0  0  0  0  0  0  0  0
  -37.9406   54.6911   65.7613 H   0  0  0  0  0  0  0  0  0  0  0  0
  -47.2948   58.6197   70.6649 H   0  0  0  0  0  0  0  0  0  0  0  0
  -45.7025   58.1842   71.2376 H   0  0  0  0  0  0  0  0  0  0  0  0
  -46.7210   56.9789   70.4872 H   0  0  0  0  0  0  0  0  0  0  0  0
  -44.3312   56.9836   69.2696 H   0  0  0  0  0  0  0  0  0  0  0  0
  -43.1219   57.8914   67.3673 H   0  0  0  0  0  0  0  0  0  0  0  0
  -44.3858   59.0840   67.1224 H   0  0  0  0  0  0  0  0  0  0  0  0
  -45.8510   57.3622   66.2174 H   0  0  0  0  0  0  0  0  0  0  0  0
  -44.5967   56.1603   66.4770 H   0  0  0  0  0  0  0  0  0  0  0  0
  -45.6701   58.9759   64.5033 H   0  0  0  0  0  0  0  0  0  0  0  0
  -45.1018   58.1219   63.0888 H   0  0  0  0  0  0  0  0  0  0  0  0
  -44.0961   59.3390   63.8373 H   0  0  0  0  0  0  0  0  0  0  0  0
  -42.6690   56.1419   65.0787 H   0  0  0  0  0  0  0  0  0  0  0  0
  -43.2615   57.5172   62.4695 H   0  0  0  0  0  0  0  0  0  0  0  0
  -42.0183   56.3132   62.7452 H   0  0  0  0  0  0  0  0  0  0  0  0
  -41.9150   59.1671   63.6887 H   0  0  0  0  0  0  0  0  0  0  0  0
  -41.0364   58.5150   62.3210 H   0  0  0  0  0  0  0  0  0  0  0  0
  -39.3476   59.6903   63.9920 H   0  0  0  0  0  0  0  0  0  0  0  0
  -38.2854   58.3200   64.2089 H   0  0  0  0  0  0  0  0  0  0  0  0
  -39.1780   58.9574   65.5691 H   0  0  0  0  0  0  0  0  0  0  0  0
  -41.1590   55.9862   64.5456 H   0  0  0  0  0  0  0  0  0  0  0  0
  -38.5488   56.9283   65.7979 H   0  0  0  0  0  0  0  0  0  0  0  0
  -39.7027   55.9134   66.6408 H   0  0  0  0  0  0  0  0  0  0  0  0
  1  3  1  0  0  0  0
  1 17  1  0  0  0  0
  1 18  1  0  0  0  0
  1 19  1  0  0  0  0
  2 16  1  0  0  0  0
  2 20  1  0  0  0  0
  3  4  1  0  0  0  0
  3  5  2  0  0  0  0
  4 21  1  0  0  0  0
  4 22  1  0  0  0  0
  4 23  1  0  0  0  0
  5  6  1  0  0  0  0
  5 24  1  0  0  0  0
  6  7  1  0  0  0  0
  6 25  1  0  0  0  0
  6 26  1  0  0  0  0
  7  8  1  0  0  0  0
  7 27  1  0  0  0  0
  7 28  1  0  0  0  0
  8  9  1  0  0  0  0
  8 10  2  0  0  0  0
  9 29  1  0  0  0  0
  9 30  1  0  0  0  0
  9 31  1  0  0  0  0
 10 11  1  0  0  0  0
 10 32  1  0  0  0  0
 11 12  1  0  0  0  0
 11 33  1  0  0  0  0
 11 34  1  0  0  0  0
 12 13  1  0  0  0  0
 12 35  1  0  0  0  0
 12 36  1  0  0  0  0
 13 14  1  0  0  0  0
 13 15  2  0  0  0  0
 14 37  1  0  0  0  0
 14 38  1  0  0  0  0
 14 39  1  0  0  0  0
 15 16  1  0  0  0  0
 15 40  1  0  0  0  0
 16 41  1  0  0  0  0
 16 42  1  0  0  0  0
M  END
$$$$
/media/chris/experiments/cd1a-new-docking/inputs/ligands/6nux_ligand.pdb
 OpenBabel07022319323D

 42 41  0  0  0  0  0  0  0  0999 V2000
  -43.1247   56.0304   69.0793 C   0  0  0  0  0  0  0  0  0  0  0  0
  -39.6609   57.5038   59.1853 O   0  0  0  0  0  0  0  0  0  0  0  0
  -42.4044   55.5821   67.8445 C   0  0  0  0  0  0  0  0  0  0  0  0
  -40.9340   55.2967   67.9063 C   0  0  0  0  0  0  0  0  0  0  0  0
  -43.0683   55.4404   66.6876 C   0  0  0  0  0  0  0  0  0  0  0  0
  -44.5505   55.7258   66.6128 C   0  0  0  0  0  0  0  0  0  0  0  0
  -44.7960   57.1870   66.2510 C   0  0  0  0  0  0  0  0  0  0  0  0
  -44.1950   57.5130   64.9000 C   0  0  0  0  0  0  0  0  0  0  0  0
  -44.8100   58.5630   64.0190 C   0  0  0  0  0  0  0  0  0  0  0  0
  -43.0990   56.8650   64.4810 C   0  0  0  0  0  0  0  0  0  0  0  0
  -42.4910   57.1900   63.1360 C   0  0  0  0  0  0  0  0  0  0  0  0
  -42.0598   58.6510   63.0933 C   0  0  0  0  0  0  0  0  0  0  0  0
  -41.4673   58.9779   61.7397 C   0  0  0  0  0  0  0  0  0  0  0  0
  -40.9564   60.3584   61.4668 C   0  0  0  0  0  0  0  0  0  0  0  0
  -41.3874   58.0369   60.7873 C   0  0  0  0  0  0  0  0  0  0  0  0
  -40.7945   58.3434   59.4309 C   0  0  0  0  0  0  0  0  0  0  0  0
  -42.4345   56.0842   69.8952 H   0  0  0  0  0  0  0  0  0  0  0  0
  -43.9001   55.3313   69.3136 H   0  0  0  0  0  0  0  0  0  0  0  0
  -43.5540   56.9960   68.9111 H   0  0  0  0  0  0  0  0  0  0  0  0
  -39.2893   57.7092   58.3132 H   0  0  0  0  0  0  0  0  0  0  0  0
  -40.5800   55.4631   68.9023 H   0  0  0  0  0  0  0  0  0  0  0  0
  -40.4161   55.9450   67.2307 H   0  0  0  0  0  0  0  0  0  0  0  0
  -40.7564   54.2784   67.6301 H   0  0  0  0  0  0  0  0  0  0  0  0
  -42.5628   55.1340   65.8417 H   0  0  0  0  0  0  0  0  0  0  0  0
  -44.9973   55.5185   67.5627 H   0  0  0  0  0  0  0  0  0  0  0  0
  -44.9847   55.1048   65.8574 H   0  0  0  0  0  0  0  0  0  0  0  0
  -44.3484   57.8128   66.9946 H   0  0  0  0  0  0  0  0  0  0  0  0
  -45.8514   57.3577   66.2078 H   0  0  0  0  0  0  0  0  0  0  0  0
  -45.6701   58.9759   64.5033 H   0  0  0  0  0  0  0  0  0  0  0  0
  -45.1018   58.1219   63.0888 H   0  0  0  0  0  0  0  0  0  0  0  0
  -44.0961   59.3390   63.8373 H   0  0  0  0  0  0  0  0  0  0  0  0
  -42.6690   56.1419   65.0787 H   0  0  0  0  0  0  0  0  0  0  0  0
  -43.2151   57.0125   62.3685 H   0  0  0  0  0  0  0  0  0  0  0  0
  -41.6343   56.5681   62.9804 H   0  0  0  0  0  0  0  0  0  0  0  0
  -41.3263   58.8260   63.8525 H   0  0  0  0  0  0  0  0  0  0  0  0
  -42.9135   59.2736   63.2621 H   0  0  0  0  0  0  0  0  0  0  0  0
  -41.1012   60.9700   62.3327 H   0  0  0  0  0  0  0  0  0  0  0  0
  -41.4895   60.7791   60.6398 H   0  0  0  0  0  0  0  0  0  0  0  0
  -39.9133   60.3129   61.2327 H   0  0  0  0  0  0  0  0  0  0  0  0
  -41.7370   57.0861   60.9841 H   0  0  0  0  0  0  0  0  0  0  0  0
  -41.5324   58.1707   58.6755 H   0  0  0  0  0  0  0  0  0  0  0  0
  -40.4823   59.3666   59.4095 H   0  0  0  0  0  0  0  0  0  0  0  0
  1  3  1  0  0  0  0
  1 17  1  0  0  0  0
  1 18  1  0  0  0  0
  1 19  1  0  0  0  0
  2 16  1  0  0  0  0
  2 20  1  0  0  0  0
  3  4  1  0  0  0  0
  3  5  2  0  0  0  0
  4 21  1  0  0  0  0
  4 22  1  0  0  0  0
  4 23  1  0  0  0  0
  5  6  1  0  0  0  0
  5 24  1  0  0  0  0
  6  7  1  0  0  0  0
  6 25  1  0  0  0  0
  6 26  1  0  0  0  0
  7  8  1  0  0  0  0
  7 27  1  0  0  0  0
  7 28  1  0  0  0  0
  8  9  1  0  0  0  0
  8 10  2  0  0  0  0
  9 29  1  0  0  0  0
  9 30  1  0  0  0  0
  9 31  1  0  0  0  0
 10 11  1  0  0  0  0
 10 32  1  0  0  0  0
 11 12  1  0  0  0  0
 11 33  1  0  0  0  0
 11 34  1  0  0  0  0
 12 13  1  0  0  0  0
 12 35  1  0  0  0  0
 12 36  1  0  0  0  0
 13 14  1  0  0  0  0
 13 15  2  0  0  0  0
 14 37  1  0  0  0  0
 14 38  1  0  0  0  0
 14 39  1  0  0  0  0
 15 16  1  0  0  0  0
 15 40  1  0  0  0  0
 16 41  1  0  0  0  0
 16 42  1  0  0  0  0
M  END
$$$$
/media/chris/experiments/cd1a-new-docking/inputs/ligands/6nux_ligand.pdb
 OpenBabel07022319323D

 42 41  0  0  0  0  0  0  0  0999 V2000
  -41.2255   58.3618   68.2605 C   0  0  0  0  0  0  0  0  0  0  0  0
  -40.3243   56.5690   58.6529 O   0  0  0  0  0  0  0  0  0  0  0  0
  -41.3532   57.0296   67.5869 C   0  0  0  0  0  0  0  0  0  0  0  0
  -40.1333   56.1829   67.3813 C   0  0  0  0  0  0  0  0  0  0  0  0
  -42.5506   56.5966   67.1652 C   0  0  0  0  0  0  0  0  0  0  0  0
  -43.7874   57.4416   67.3664 C   0  0  0  0  0  0  0  0  0  0  0  0
  -44.7960   57.1870   66.2510 C   0  0  0  0  0  0  0  0  0  0  0  0
  -44.1950   57.5130   64.9000 C   0  0  0  0  0  0  0  0  0  0  0  0
  -44.8100   58.5630   64.0190 C   0  0  0  0  0  0  0  0  0  0  0  0
  -43.0990   56.8650   64.4810 C   0  0  0  0  0  0  0  0  0  0  0  0
  -42.4910   57.1900   63.1360 C   0  0  0  0  0  0  0  0  0  0  0  0
  -41.0574   57.6762   63.3109 C   0  0  0  0  0  0  0  0  0  0  0  0
  -40.4571   58.0172   61.9642 C   0  0  0  0  0  0  0  0  0  0  0  0
  -39.9770   59.4099   61.6967 C   0  0  0  0  0  0  0  0  0  0  0  0
  -40.3427   57.0783   61.0133 C   0  0  0  0  0  0  0  0  0  0  0  0
  -39.7415   57.3989   59.6639 C   0  0  0  0  0  0  0  0  0  0  0  0
  -40.2023   58.5320   68.5231 H   0  0  0  0  0  0  0  0  0  0  0  0
  -41.8275   58.3734   69.1450 H   0  0  0  0  0  0  0  0  0  0  0  0
  -41.5555   59.1314   67.5943 H   0  0  0  0  0  0  0  0  0  0  0  0
  -39.9313   56.7835   57.7924 H   0  0  0  0  0  0  0  0  0  0  0  0
  -39.2777   56.6876   67.7789 H   0  0  0  0  0  0  0  0  0  0  0  0
  -39.9913   56.0102   66.3349 H   0  0  0  0  0  0  0  0  0  0  0  0
  -40.2604   55.2465   67.8833 H   0  0  0  0  0  0  0  0  0  0  0  0
  -42.6280   55.6788   66.6996 H   0  0  0  0  0  0  0  0  0  0  0  0
  -43.5118   58.4755   67.3625 H   0  0  0  0  0  0  0  0  0  0  0  0
  -44.2348   57.1825   68.3031 H   0  0  0  0  0  0  0  0  0  0  0  0
  -45.6574   57.8016   66.4096 H   0  0  0  0  0  0  0  0  0  0  0  0
  -45.0697   56.1527   66.2648 H   0  0  0  0  0  0  0  0  0  0  0  0
  -45.6701   58.9759   64.5033 H   0  0  0  0  0  0  0  0  0  0  0  0
  -45.1018   58.1219   63.0888 H   0  0  0  0  0  0  0  0  0  0  0  0
  -44.0961   59.3390   63.8373 H   0  0  0  0  0  0  0  0  0  0  0  0
  -42.6690   56.1419   65.0787 H   0  0  0  0  0  0  0  0  0  0  0  0
  -43.0688   57.9561   62.6626 H   0  0  0  0  0  0  0  0  0  0  0  0
  -42.4893   56.3075   62.5309 H   0  0  0  0  0  0  0  0  0  0  0  0
  -40.4761   56.9057   63.7728 H   0  0  0  0  0  0  0  0  0  0  0  0
  -41.0565   58.5510   63.9269 H   0  0  0  0  0  0  0  0  0  0  0  0
  -40.1472   60.0179   62.5606 H   0  0  0  0  0  0  0  0  0  0  0  0
  -40.5104   59.8171   60.8633 H   0  0  0  0  0  0  0  0  0  0  0  0
  -38.9304   59.3899   61.4750 H   0  0  0  0  0  0  0  0  0  0  0  0
  -40.6712   56.1192   61.2064 H   0  0  0  0  0  0  0  0  0  0  0  0
  -39.9282   58.4260   59.4289 H   0  0  0  0  0  0  0  0  0  0  0  0
  -38.6876   57.2179   59.6994 H   0  0  0  0  0  0  0  0  0  0  0  0
  1  3  1  0  0  0  0
  1 17  1  0  0  0  0
  1 18  1  0  0  0  0
  1 19  1  0  0  0  0
  2 16  1  0  0  0  0
  2 20  1  0  0  0  0
  3  4  1  0  0  0  0
  3  5  2  0  0  0  0
  4 21  1  0  0  0  0
  4 22  1  0  0  0  0
  4 23  1  0  0  0  0
  5  6  1  0  0  0  0
  5 24  1  0  0  0  0
  6  7  1  0  0  0  0
  6 25  1  0  0  0  0
  6 26  1  0  0  0  0
  7  8  1  0  0  0  0
  7 27  1  0  0  0  0
  7 28  1  0  0  0  0
  8  9  1  0  0  0  0
  8 10  2  0  0  0  0
  9 29  1  0  0  0  0
  9 30  1  0  0  0  0
  9 31  1  0  0  0  0
 10 11  1  0  0  0  0
 10 32  1  0  0  0  0
 11 12  1  0  0  0  0
 11 33  1  0  0  0  0
 11 34  1  0  0  0  0
 12 13  1  0  0  0  0
 12 35  1  0  0  0  0
 12 36  1  0  0  0  0
 13 14  1  0  0  0  0
 13 15  2  0  0  0  0
 14 37  1  0  0  0  0
 14 38  1  0  0  0  0
 14 39  1  0  0  0  0
 15 16  1  0  0  0  0
 15 40  1  0  0  0  0
 16 41  1  0  0  0  0
 16 42  1  0  0  0  0
M  END
$$$$
/media/chris/experiments/cd1a-new-docking/inputs/ligands/6nux_ligand.pdb
 OpenBabel07022319323D

 42 41  0  0  0  0  0  0  0  0999 V2000
  -46.5662   58.8261   65.8400 C   0  0  0  0  0  0  0  0  0  0  0  0
  -40.7595   51.3815   62.1079 O   0  0  0  0  0  0  0  0  0  0  0  0
  -47.2793   57.7705   65.0515 C   0  0  0  0  0  0  0  0  0  0  0  0
  -48.3814   58.1629   64.1142 C   0  0  0  0  0  0  0  0  0  0  0  0
  -46.9385   56.4801   65.1851 C   0  0  0  0  0  0  0  0  0  0  0  0
  -45.8295   56.0722   66.1275 C   0  0  0  0  0  0  0  0  0  0  0  0
  -44.7960   57.1870   66.2510 C   0  0  0  0  0  0  0  0  0  0  0  0
  -44.1950   57.5130   64.9000 C   0  0  0  0  0  0  0  0  0  0  0  0
  -44.8100   58.5630   64.0190 C   0  0  0  0  0  0  0  0  0  0  0  0
  -43.0990   56.8650   64.4810 C   0  0  0  0  0  0  0  0  0  0  0  0
  -42.4910   57.1900   63.1360 C   0  0  0  0  0  0  0  0  0  0  0  0
  -42.4834   55.9507   62.2493 C   0  0  0  0  0  0  0  0  0  0  0  0
  -41.6852   54.8463   62.9079 C   0  0  0  0  0  0  0  0  0  0  0  0
  -41.0502   55.0840   64.2427 C   0  0  0  0  0  0  0  0  0  0  0  0
  -41.5519   53.6537   62.3089 C   0  0  0  0  0  0  0  0  0  0  0  0
  -40.7625   52.5372   62.9534 C   0  0  0  0  0  0  0  0  0  0  0  0
  -46.9739   59.7861   65.6011 H   0  0  0  0  0  0  0  0  0  0  0  0
  -45.5244   58.8104   65.5964 H   0  0  0  0  0  0  0  0  0  0  0  0
  -46.6909   58.6358   66.8855 H   0  0  0  0  0  0  0  0  0  0  0  0
  -40.2507   50.6725   62.5312 H   0  0  0  0  0  0  0  0  0  0  0  0
  -48.5105   59.2248   64.1402 H   0  0  0  0  0  0  0  0  0  0  0  0
  -49.2911   57.6856   64.4135 H   0  0  0  0  0  0  0  0  0  0  0  0
  -48.1293   57.8585   63.1199 H   0  0  0  0  0  0  0  0  0  0  0  0
  -47.4376   55.7598   64.6400 H   0  0  0  0  0  0  0  0  0  0  0  0
  -45.3536   55.1911   65.7506 H   0  0  0  0  0  0  0  0  0  0  0  0
  -46.2490   55.8809   67.0930 H   0  0  0  0  0  0  0  0  0  0  0  0
  -44.0179   56.8724   66.9147 H   0  0  0  0  0  0  0  0  0  0  0  0
  -45.2787   58.0624   66.6326 H   0  0  0  0  0  0  0  0  0  0  0  0
  -45.6701   58.9759   64.5033 H   0  0  0  0  0  0  0  0  0  0  0  0
  -45.1018   58.1219   63.0888 H   0  0  0  0  0  0  0  0  0  0  0  0
  -44.0961   59.3390   63.8373 H   0  0  0  0  0  0  0  0  0  0  0  0
  -42.6690   56.1419   65.0787 H   0  0  0  0  0  0  0  0  0  0  0  0
  -41.4865   57.5313   63.2752 H   0  0  0  0  0  0  0  0  0  0  0  0
  -43.0738   57.9535   62.6644 H   0  0  0  0  0  0  0  0  0  0  0  0
  -42.0409   56.1930   61.3057 H   0  0  0  0  0  0  0  0  0  0  0  0
  -43.4897   55.6172   62.1041 H   0  0  0  0  0  0  0  0  0  0  0  0
  -41.2597   56.0827   64.5646 H   0  0  0  0  0  0  0  0  0  0  0  0
  -39.9917   54.9495   64.1632 H   0  0  0  0  0  0  0  0  0  0  0  0
  -41.4455   54.3896   64.9544 H   0  0  0  0  0  0  0  0  0  0  0  0
  -41.9965   53.4954   61.3911 H   0  0  0  0  0  0  0  0  0  0  0  0
  -39.7553   52.8620   63.1114 H   0  0  0  0  0  0  0  0  0  0  0  0
  -41.2159   52.2840   63.8889 H   0  0  0  0  0  0  0  0  0  0  0  0
  1  3  1  0  0  0  0
  1 17  1  0  0  0  0
  1 18  1  0  0  0  0
  1 19  1  0  0  0  0
  2 16  1  0  0  0  0
  2 20  1  0  0  0  0
  3  4  1  0  0  0  0
  3  5  2  0  0  0  0
  4 21  1  0  0  0  0
  4 22  1  0  0  0  0
  4 23  1  0  0  0  0
  5  6  1  0  0  0  0
  5 24  1  0  0  0  0
  6  7  1  0  0  0  0
  6 25  1  0  0  0  0
  6 26  1  0  0  0  0
  7  8  1  0  0  0  0
  7 27  1  0  0  0  0
  7 28  1  0  0  0  0
  8  9  1  0  0  0  0
  8 10  2  0  0  0  0
  9 29  1  0  0  0  0
  9 30  1  0  0  0  0
  9 31  1  0  0  0  0
 10 11  1  0  0  0  0
 10 32  1  0  0  0  0
 11 12  1  0  0  0  0
 11 33  1  0  0  0  0
 11 34  1  0  0  0  0
 12 13  1  0  0  0  0
 12 35  1  0  0  0  0
 12 36  1  0  0  0  0
 13 14  1  0  0  0  0
 13 15  2  0  0  0  0
 14 37  1  0  0  0  0
 14 38  1  0  0  0  0
 14 39  1  0  0  0  0
 15 16  1  0  0  0  0
 15 40  1  0  0  0  0
 16 41  1  0  0  0  0
 16 42  1  0  0  0  0
M  END
$$$$
/media/chris/experiments/cd1a-new-docking/inputs/ligands/6nux_ligand.pdb
 OpenBabel07022319323D

 42 41  0  0  0  0  0  0  0  0999 V2000
  -48.1680   57.4047   67.1099 C   0  0  0  0  0  0  0  0  0  0  0  0
  -37.0883   58.2673   64.3460 O   0  0  0  0  0  0  0  0  0  0  0  0
  -48.0309   57.1055   65.6483 C   0  0  0  0  0  0  0  0  0  0  0  0
  -49.1248   57.5047   64.7041 C   0  0  0  0  0  0  0  0  0  0  0  0
  -46.9385   56.4801   65.1851 C   0  0  0  0  0  0  0  0  0  0  0  0
  -45.8295   56.0722   66.1275 C   0  0  0  0  0  0  0  0  0  0  0  0
  -44.7960   57.1870   66.2510 C   0  0  0  0  0  0  0  0  0  0  0  0
  -44.1950   57.5130   64.9000 C   0  0  0  0  0  0  0  0  0  0  0  0
  -44.8100   58.5630   64.0190 C   0  0  0  0  0  0  0  0  0  0  0  0
  -43.0990   56.8650   64.4810 C   0  0  0  0  0  0  0  0  0  0  0  0
  -42.4910   57.1900   63.1360 C   0  0  0  0  0  0  0  0  0  0  0  0
  -41.2715   56.3116   62.8844 C   0  0  0  0  0  0  0  0  0  0  0  0
  -40.2396   56.5333   63.9690 C   0  0  0  0  0  0  0  0  0  0  0  0
  -40.5865   56.2383   65.3952 C   0  0  0  0  0  0  0  0  0  0  0  0
  -39.0140   56.9819   63.6600 C   0  0  0  0  0  0  0  0  0  0  0  0
  -37.9686   57.2049   64.7290 C   0  0  0  0  0  0  0  0  0  0  0  0
  -49.0983   57.9031   67.2862 H   0  0  0  0  0  0  0  0  0  0  0  0
  -47.3613   58.0344   67.4223 H   0  0  0  0  0  0  0  0  0  0  0  0
  -48.1424   56.4904   67.6651 H   0  0  0  0  0  0  0  0  0  0  0  0
  -36.4226   58.4012   65.0388 H   0  0  0  0  0  0  0  0  0  0  0  0
  -49.9083   57.9878   65.2497 H   0  0  0  0  0  0  0  0  0  0  0  0
  -49.5127   56.6335   64.2189 H   0  0  0  0  0  0  0  0  0  0  0  0
  -48.7341   58.1778   63.9698 H   0  0  0  0  0  0  0  0  0  0  0  0
  -46.8546   56.2756   64.1771 H   0  0  0  0  0  0  0  0  0  0  0  0
  -45.3536   55.1911   65.7506 H   0  0  0  0  0  0  0  0  0  0  0  0
  -46.2490   55.8809   67.0930 H   0  0  0  0  0  0  0  0  0  0  0  0
  -44.0179   56.8724   66.9147 H   0  0  0  0  0  0  0  0  0  0  0  0
  -45.2787   58.0624   66.6326 H   0  0  0  0  0  0  0  0  0  0  0  0
  -45.6701   58.9759   64.5033 H   0  0  0  0  0  0  0  0  0  0  0  0
  -45.1018   58.1219   63.0888 H   0  0  0  0  0  0  0  0  0  0  0  0
  -44.0961   59.3390   63.8373 H   0  0  0  0  0  0  0  0  0  0  0  0
  -42.6690   56.1419   65.0787 H   0  0  0  0  0  0  0  0  0  0  0  0
  -42.1953   58.2182   63.1208 H   0  0  0  0  0  0  0  0  0  0  0  0
  -43.2168   57.0076   62.3712 H   0  0  0  0  0  0  0  0  0  0  0  0
  -40.8459   56.5601   61.9347 H   0  0  0  0  0  0  0  0  0  0  0  0
  -41.5717   55.2846   62.8907 H   0  0  0  0  0  0  0  0  0  0  0  0
  -41.5977   55.8930   65.4522 H   0  0  0  0  0  0  0  0  0  0  0  0
  -40.4800   57.1282   65.9796 H   0  0  0  0  0  0  0  0  0  0  0  0
  -39.9298   55.4827   65.7731 H   0  0  0  0  0  0  0  0  0  0  0  0
  -38.7802   57.1785   62.6742 H   0  0  0  0  0  0  0  0  0  0  0  0
  -38.4524   57.4609   65.6484 H   0  0  0  0  0  0  0  0  0  0  0  0
  -37.3993   56.3075   64.8531 H   0  0  0  0  0  0  0  0  0  0  0  0
  1  3  1  0  0  0  0
  1 17  1  0  0  0  0
  1 18  1  0  0  0  0
  1 19  1  0  0  0  0
  2 16  1  0  0  0  0
  2 20  1  0  0  0  0
  3  4  1  0  0  0  0
  3  5  2  0  0  0  0
  4 21  1  0  0  0  0
  4 22  1  0  0  0  0
  4 23  1  0  0  0  0
  5  6  1  0  0  0  0
  5 24  1  0  0  0  0
  6  7  1  0  0  0  0
  6 25  1  0  0  0  0
  6 26  1  0  0  0  0
  7  8  1  0  0  0  0
  7 27  1  0  0  0  0
  7 28  1  0  0  0  0
  8  9  1  0  0  0  0
  8 10  2  0  0  0  0
  9 29  1  0  0  0  0
  9 30  1  0  0  0  0
  9 31  1  0  0  0  0
 10 11  1  0  0  0  0
 10 32  1  0  0  0  0
 11 12  1  0  0  0  0
 11 33  1  0  0  0  0
 11 34  1  0  0  0  0
 12 13  1  0  0  0  0
 12 35  1  0  0  0  0
 12 36  1  0  0  0  0
 13 14  1  0  0  0  0
 13 15  2  0  0  0  0
 14 37  1  0  0  0  0
 14 38  1  0  0  0  0
 14 39  1  0  0  0  0
 15 16  1  0  0  0  0
 15 40  1  0  0  0  0
 16 41  1  0  0  0  0
 16 42  1  0  0  0  0
M  END
$$$$
/media/chris/experiments/cd1a-new-docking/inputs/ligands/6nux_ligand.pdb
 OpenBabel07022319323D

 42 41  0  0  0  0  0  0  0  0999 V2000
  -46.7519   53.4306   66.7444 C   0  0  0  0  0  0  0  0  0  0  0  0
  -41.2358   52.1030   63.9651 O   0  0  0  0  0  0  0  0  0  0  0  0
  -46.8674   54.5244   67.7617 C   0  0  0  0  0  0  0  0  0  0  0  0
  -47.4704   54.2295   69.1021 C   0  0  0  0  0  0  0  0  0  0  0  0
  -46.4385   55.7627   67.4756 C   0  0  0  0  0  0  0  0  0  0  0  0
  -45.8295   56.0722   66.1275 C   0  0  0  0  0  0  0  0  0  0  0  0
  -44.7960   57.1870   66.2510 C   0  0  0  0  0  0  0  0  0  0  0  0
  -44.1950   57.5130   64.9000 C   0  0  0  0  0  0  0  0  0  0  0  0
  -44.8100   58.5630   64.0190 C   0  0  0  0  0  0  0  0  0  0  0  0
  -43.0990   56.8650   64.4810 C   0  0  0  0  0  0  0  0  0  0  0  0
  -42.4910   57.1900   63.1360 C   0  0  0  0  0  0  0  0  0  0  0  0
  -42.4834   55.9507   62.2493 C   0  0  0  0  0  0  0  0  0  0  0  0
  -41.6852   54.8463   62.9079 C   0  0  0  0  0  0  0  0  0  0  0  0
  -40.4823   54.2854   62.2151 C   0  0  0  0  0  0  0  0  0  0  0  0
  -42.0419   54.3746   64.1116 C   0  0  0  0  0  0  0  0  0  0  0  0
  -41.2542   53.2753   64.7872 C   0  0  0  0  0  0  0  0  0  0  0  0
  -47.1434   52.5220   67.1517 H   0  0  0  0  0  0  0  0  0  0  0  0
  -45.7230   53.2913   66.4857 H   0  0  0  0  0  0  0  0  0  0  0  0
  -47.3067   53.6974   65.8693 H   0  0  0  0  0  0  0  0  0  0  0  0
  -40.7282   51.4052   64.4082 H   0  0  0  0  0  0  0  0  0  0  0  0
  -47.7517   53.1982   69.1476 H   0  0  0  0  0  0  0  0  0  0  0  0
  -48.3359   54.8420   69.2464 H   0  0  0  0  0  0  0  0  0  0  0  0
  -46.7540   54.4380   69.8691 H   0  0  0  0  0  0  0  0  0  0  0  0
  -46.5252   56.5102   68.1818 H   0  0  0  0  0  0  0  0  0  0  0  0
  -46.6020   56.3813   65.4548 H   0  0  0  0  0  0  0  0  0  0  0  0
  -45.3467   55.1926   65.7559 H   0  0  0  0  0  0  0  0  0  0  0  0
  -44.0179   56.8724   66.9147 H   0  0  0  0  0  0  0  0  0  0  0  0
  -45.2787   58.0624   66.6326 H   0  0  0  0  0  0  0  0  0  0  0  0
  -45.6701   58.9759   64.5033 H   0  0  0  0  0  0  0  0  0  0  0  0
  -45.1018   58.1219   63.0888 H   0  0  0  0  0  0  0  0  0  0  0  0
  -44.0961   59.3390   63.8373 H   0  0  0  0  0  0  0  0  0  0  0  0
  -42.6690   56.1419   65.0787 H   0  0  0  0  0  0  0  0  0  0  0  0
  -41.4865   57.5313   63.2752 H   0  0  0  0  0  0  0  0  0  0  0  0
  -43.0738   57.9535   62.6644 H   0  0  0  0  0  0  0  0  0  0  0  0
  -42.0409   56.1930   61.3057 H   0  0  0  0  0  0  0  0  0  0  0  0
  -43.4897   55.6172   62.1041 H   0  0  0  0  0  0  0  0  0  0  0  0
  -40.3510   54.7773   61.2740 H   0  0  0  0  0  0  0  0  0  0  0  0
  -40.6205   53.2368   62.0533 H   0  0  0  0  0  0  0  0  0  0  0  0
  -39.6156   54.4413   62.8230 H   0  0  0  0  0  0  0  0  0  0  0  0
  -42.8693   54.7694   64.5855 H   0  0  0  0  0  0  0  0  0  0  0  0
  -40.2505   53.6085   64.9500 H   0  0  0  0  0  0  0  0  0  0  0  0
  -41.7169   53.0385   65.7224 H   0  0  0  0  0  0  0  0  0  0  0  0
  1  3  1  0  0  0  0
  1 17  1  0  0  0  0
  1 18  1  0  0  0  0
  1 19  1  0  0  0  0
  2 16  1  0  0  0  0
  2 20  1  0  0  0  0
  3  4  1  0  0  0  0
  3  5  2  0  0  0  0
  4 21  1  0  0  0  0
  4 22  1  0  0  0  0
  4 23  1  0  0  0  0
  5  6  1  0  0  0  0
  5 24  1  0  0  0  0
  6  7  1  0  0  0  0
  6 25  1  0  0  0  0
  6 26  1  0  0  0  0
  7  8  1  0  0  0  0
  7 27  1  0  0  0  0
  7 28  1  0  0  0  0
  8  9  1  0  0  0  0
  8 10  2  0  0  0  0
  9 29  1  0  0  0  0
  9 30  1  0  0  0  0
  9 31  1  0  0  0  0
 10 11  1  0  0  0  0
 10 32  1  0  0  0  0
 11 12  1  0  0  0  0
 11 33  1  0  0  0  0
 11 34  1  0  0  0  0
 12 13  1  0  0  0  0
 12 35  1  0  0  0  0
 12 36  1  0  0  0  0
 13 14  1  0  0  0  0
 13 15  2  0  0  0  0
 14 37  1  0  0  0  0
 14 38  1  0  0  0  0
 14 39  1  0  0  0  0
 15 16  1  0  0  0  0
 15 40  1  0  0  0  0
 16 41  1  0  0  0  0
 16 42  1  0  0  0  0
M  END
$$$$
/media/chris/experiments/cd1a-new-docking/inputs/ligands/6nux_ligand.pdb
 OpenBabel07022319323D

 42 41  0  0  0  0  0  0  0  0999 V2000
  -41.2255   58.3618   68.2605 C   0  0  0  0  0  0  0  0  0  0  0  0
  -44.1690   59.1465   57.5548 O   0  0  0  0  0  0  0  0  0  0  0  0
  -41.3532   57.0296   67.5869 C   0  0  0  0  0  0  0  0  0  0  0  0
  -40.1333   56.1829   67.3813 C   0  0  0  0  0  0  0  0  0  0  0  0
  -42.5506   56.5966   67.1652 C   0  0  0  0  0  0  0  0  0  0  0  0
  -43.7874   57.4416   67.3664 C   0  0  0  0  0  0  0  0  0  0  0  0
  -44.7960   57.1870   66.2510 C   0  0  0  0  0  0  0  0  0  0  0  0
  -44.1950   57.5130   64.9000 C   0  0  0  0  0  0  0  0  0  0  0  0
  -44.8100   58.5630   64.0190 C   0  0  0  0  0  0  0  0  0  0  0  0
  -43.0990   56.8650   64.4810 C   0  0  0  0  0  0  0  0  0  0  0  0
  -42.4910   57.1900   63.1360 C   0  0  0  0  0  0  0  0  0  0  0  0
  -43.5718   57.6613   62.1707 C   0  0  0  0  0  0  0  0  0  0  0  0
  -42.9628   57.9693   60.8199 C   0  0  0  0  0  0  0  0  0  0  0  0
  -41.4914   57.7890   60.6106 C   0  0  0  0  0  0  0  0  0  0  0  0
  -43.7336   58.3923   59.8071 C   0  0  0  0  0  0  0  0  0  0  0  0
  -43.1440   58.7004   58.4496 C   0  0  0  0  0  0  0  0  0  0  0  0
  -40.2023   58.5320   68.5231 H   0  0  0  0  0  0  0  0  0  0  0  0
  -41.8275   58.3734   69.1450 H   0  0  0  0  0  0  0  0  0  0  0  0
  -41.5555   59.1314   67.5943 H   0  0  0  0  0  0  0  0  0  0  0  0
  -43.7794   59.3409   56.6880 H   0  0  0  0  0  0  0  0  0  0  0  0
  -39.2777   56.6876   67.7789 H   0  0  0  0  0  0  0  0  0  0  0  0
  -39.9913   56.0102   66.3349 H   0  0  0  0  0  0  0  0  0  0  0  0
  -40.2604   55.2465   67.8833 H   0  0  0  0  0  0  0  0  0  0  0  0
  -42.6280   55.6788   66.6996 H   0  0  0  0  0  0  0  0  0  0  0  0
  -43.5118   58.4755   67.3625 H   0  0  0  0  0  0  0  0  0  0  0  0
  -44.2348   57.1825   68.3031 H   0  0  0  0  0  0  0  0  0  0  0  0
  -45.6574   57.8016   66.4096 H   0  0  0  0  0  0  0  0  0  0  0  0
  -45.0697   56.1527   66.2648 H   0  0  0  0  0  0  0  0  0  0  0  0
  -45.6701   58.9759   64.5033 H   0  0  0  0  0  0  0  0  0  0  0  0
  -45.1018   58.1219   63.0888 H   0  0  0  0  0  0  0  0  0  0  0  0
  -44.0961   59.3390   63.8373 H   0  0  0  0  0  0  0  0  0  0  0  0
  -42.6690   56.1419   65.0787 H   0  0  0  0  0  0  0  0  0  0  0  0
  -42.0205   56.3145   62.7398 H   0  0  0  0  0  0  0  0  0  0  0  0
  -41.7680   57.9692   63.2585 H   0  0  0  0  0  0  0  0  0  0  0  0
  -44.0342   58.5441   62.5603 H   0  0  0  0  0  0  0  0  0  0  0  0
  -44.3026   56.8878   62.0577 H   0  0  0  0  0  0  0  0  0  0  0  0
  -41.0408   57.4490   61.5196 H   0  0  0  0  0  0  0  0  0  0  0  0
  -41.0549   58.7229   60.3237 H   0  0  0  0  0  0  0  0  0  0  0  0
  -41.3268   57.0663   59.8389 H   0  0  0  0  0  0  0  0  0  0  0  0
  -44.7478   58.5096   59.9572 H   0  0  0  0  0  0  0  0  0  0  0  0
  -42.4051   59.4676   58.5511 H   0  0  0  0  0  0  0  0  0  0  0  0
  -42.6970   57.8126   58.0536 H   0  0  0  0  0  0  0  0  0  0  0  0
  1  3  1  0  0  0  0
  1 17  1  0  0  0  0
  1 18  1  0  0  0  0
  1 19  1  0  0  0  0
  2 16  1  0  0  0  0
  2 20  1  0  0  0  0
  3  4  1  0  0  0  0
  3  5  2  0  0  0  0
  4 21  1  0  0  0  0
  4 22  1  0  0  0  0
  4 23  1  0  0  0  0
  5  6  1  0  0  0  0
  5 24  1  0  0  0  0
  6  7  1  0  0  0  0
  6 25  1  0  0  0  0
  6 26  1  0  0  0  0
  7  8  1  0  0  0  0
  7 27  1  0  0  0  0
  7 28  1  0  0  0  0
  8  9  1  0  0  0  0
  8 10  2  0  0  0  0
  9 29  1  0  0  0  0
  9 30  1  0  0  0  0
  9 31  1  0  0  0  0
 10 11  1  0  0  0  0
 10 32  1  0  0  0  0
 11 12  1  0  0  0  0
 11 33  1  0  0  0  0
 11 34  1  0  0  0  0
 12 13  1  0  0  0  0
 12 35  1  0  0  0  0
 12 36  1  0  0  0  0
 13 14  1  0  0  0  0
 13 15  2  0  0  0  0
 14 37  1  0  0  0  0
 14 38  1  0  0  0  0
 14 39  1  0  0  0  0
 15 16  1  0  0  0  0
 15 40  1  0  0  0  0
 16 41  1  0  0  0  0
 16 42  1  0  0  0  0
M  END
$$$$
/media/chris/experiments/cd1a-new-docking/inputs/ligands/6nux_ligand.pdb
 OpenBabel07022319323D

 42 41  0  0  0  0  0  0  0  0999 V2000
  -44.0275   59.4329   69.4124 C   0  0  0  0  0  0  0  0  0  0  0  0
  -41.2774   60.7814   66.2304 O   0  0  0  0  0  0  0  0  0  0  0  0
  -44.4991   58.0337   69.6656 C   0  0  0  0  0  0  0  0  0  0  0  0
  -45.0944   57.6812   70.9955 C   0  0  0  0  0  0  0  0  0  0  0  0
  -44.3864   57.0984   68.7108 C   0  0  0  0  0  0  0  0  0  0  0  0
  -43.7874   57.4416   67.3664 C   0  0  0  0  0  0  0  0  0  0  0  0
  -44.7960   57.1870   66.2510 C   0  0  0  0  0  0  0  0  0  0  0  0
  -44.1950   57.5130   64.9000 C   0  0  0  0  0  0  0  0  0  0  0  0
  -44.8100   58.5630   64.0190 C   0  0  0  0  0  0  0  0  0  0  0  0
  -43.0990   56.8650   64.4810 C   0  0  0  0  0  0  0  0  0  0  0  0
  -42.4910   57.1900   63.1360 C   0  0  0  0  0  0  0  0  0  0  0  0
  -41.0574   57.6762   63.3109 C   0  0  0  0  0  0  0  0  0  0  0  0
  -41.0312   58.9108   64.1856 C   0  0  0  0  0  0  0  0  0  0  0  0
  -39.8383   59.1844   65.0480 C   0  0  0  0  0  0  0  0  0  0  0  0
  -42.0641   59.7664   64.1854 C   0  0  0  0  0  0  0  0  0  0  0  0
  -42.0540   61.0072   65.0487 C   0  0  0  0  0  0  0  0  0  0  0  0
  -44.1989   60.0302   70.2835 H   0  0  0  0  0  0  0  0  0  0  0  0
  -44.5653   59.8464   68.5849 H   0  0  0  0  0  0  0  0  0  0  0  0
  -42.9813   59.4216   69.1880 H   0  0  0  0  0  0  0  0  0  0  0  0
  -41.2781   61.5834   66.7760 H   0  0  0  0  0  0  0  0  0  0  0  0
  -45.1021   58.5474   71.6237 H   0  0  0  0  0  0  0  0  0  0  0  0
  -44.5096   56.9122   71.4555 H   0  0  0  0  0  0  0  0  0  0  0  0
  -46.0964   57.3324   70.8566 H   0  0  0  0  0  0  0  0  0  0  0  0
  -44.7114   56.1365   68.8957 H   0  0  0  0  0  0  0  0  0  0  0  0
  -42.9206   56.8361   67.2022 H   0  0  0  0  0  0  0  0  0  0  0  0
  -43.5201   58.4777   67.3611 H   0  0  0  0  0  0  0  0  0  0  0  0
  -45.6574   57.8016   66.4096 H   0  0  0  0  0  0  0  0  0  0  0  0
  -45.0697   56.1527   66.2648 H   0  0  0  0  0  0  0  0  0  0  0  0
  -45.6701   58.9759   64.5033 H   0  0  0  0  0  0  0  0  0  0  0  0
  -45.1018   58.1219   63.0888 H   0  0  0  0  0  0  0  0  0  0  0  0
  -44.0961   59.3390   63.8373 H   0  0  0  0  0  0  0  0  0  0  0  0
  -42.6690   56.1419   65.0787 H   0  0  0  0  0  0  0  0  0  0  0  0
  -43.0688   57.9561   62.6626 H   0  0  0  0  0  0  0  0  0  0  0  0
  -42.4893   56.3075   62.5309 H   0  0  0  0  0  0  0  0  0  0  0  0
  -40.6442   57.9123   62.3526 H   0  0  0  0  0  0  0  0  0  0  0  0
  -40.4798   56.9047   63.7758 H   0  0  0  0  0  0  0  0  0  0  0  0
  -39.1193   58.4024   64.9207 H   0  0  0  0  0  0  0  0  0  0  0  0
  -40.1416   59.2267   66.0733 H   0  0  0  0  0  0  0  0  0  0  0  0
  -39.4016   60.1198   64.7664 H   0  0  0  0  0  0  0  0  0  0  0  0
  -42.8809   59.5740   63.5847 H   0  0  0  0  0  0  0  0  0  0  0  0
  -41.6286   61.8188   64.4961 H   0  0  0  0  0  0  0  0  0  0  0  0
  -43.0584   61.2442   65.3311 H   0  0  0  0  0  0  0  0  0  0  0  0
  1  3  1  0  0  0  0
  1 17  1  0  0  0  0
  1 18  1  0  0  0  0
  1 19  1  0  0  0  0
  2 16  1  0  0  0  0
  2 20  1  0  0  0  0
  3  4  1  0  0  0  0
  3  5  2  0  0  0  0
  4 21  1  0  0  0  0
  4 22  1  0  0  0  0
  4 23  1  0  0  0  0
  5  6  1  0  0  0  0
  5 24  1  0  0  0  0
  6  7  1  0  0  0  0
  6 25  1  0  0  0  0
  6 26  1  0  0  0  0
  7  8  1  0  0  0  0
  7 27  1  0  0  0  0
  7 28  1  0  0  0  0
  8  9  1  0  0  0  0
  8 10  2  0  0  0  0
  9 29  1  0  0  0  0
  9 30  1  0  0  0  0
  9 31  1  0  0  0  0
 10 11  1  0  0  0  0
 10 32  1  0  0  0  0
 11 12  1  0  0  0  0
 11 33  1  0  0  0  0
 11 34  1  0  0  0  0
 12 13  1  0  0  0  0
 12 35  1  0  0  0  0
 12 36  1  0  0  0  0
 13 14  1  0  0  0  0
 13 15  2  0  0  0  0
 14 37  1  0  0  0  0
 14 38  1  0  0  0  0
 14 39  1  0  0  0  0
 15 16  1  0  0  0  0
 15 40  1  0  0  0  0
 16 41  1  0  0  0  0
 16 42  1  0  0  0  0
M  END
$$$$
/media/chris/experiments/cd1a-new-docking/inputs/ligands/6nux_ligand.pdb
 OpenBabel07022319323D

 42 41  0  0  0  0  0  0  0  0999 V2000
  -47.6666   59.4541   67.7435 C   0  0  0  0  0  0  0  0  0  0  0  0
  -42.7615   61.2499   65.5904 O   0  0  0  0  0  0  0  0  0  0  0  0
  -47.5339   58.0687   68.2982 C   0  0  0  0  0  0  0  0  0  0  0  0
  -48.1165   57.7493   69.6420 C   0  0  0  0  0  0  0  0  0  0  0  0
  -46.8938   57.1188   67.6003 C   0  0  0  0  0  0  0  0  0  0  0  0
  -46.3018   57.4291   66.2448 C   0  0  0  0  0  0  0  0  0  0  0  0
  -44.7960   57.1870   66.2510 C   0  0  0  0  0  0  0  0  0  0  0  0
  -44.1950   57.5130   64.9000 C   0  0  0  0  0  0  0  0  0  0  0  0
  -44.8100   58.5630   64.0190 C   0  0  0  0  0  0  0  0  0  0  0  0
  -43.0990   56.8650   64.4810 C   0  0  0  0  0  0  0  0  0  0  0  0
  -42.4910   57.1900   63.1360 C   0  0  0  0  0  0  0  0  0  0  0  0
  -41.0574   57.6762   63.3109 C   0  0  0  0  0  0  0  0  0  0  0  0
  -41.0312   58.9108   64.1856 C   0  0  0  0  0  0  0  0  0  0  0  0
  -40.2626   58.8942   65.4704 C   0  0  0  0  0  0  0  0  0  0  0  0
  -41.6826   60.0223   63.8127 C   0  0  0  0  0  0  0  0  0  0  0  0
  -41.6640   61.2666   64.6709 C   0  0  0  0  0  0  0  0  0  0  0  0
  -48.2034   60.0663   68.4377 H   0  0  0  0  0  0  0  0  0  0  0  0
  -48.1977   59.4174   66.8154 H   0  0  0  0  0  0  0  0  0  0  0  0
  -46.6933   59.8681   67.5814 H   0  0  0  0  0  0  0  0  0  0  0  0
  -42.7393   62.0522   66.1351 H   0  0  0  0  0  0  0  0  0  0  0  0
  -48.5843   58.6232   70.0448 H   0  0  0  0  0  0  0  0  0  0  0  0
  -47.3377   57.4259   70.3007 H   0  0  0  0  0  0  0  0  0  0  0  0
  -48.8432   56.9706   69.5397 H   0  0  0  0  0  0  0  0  0  0  0  0
  -46.8050   56.1682   67.9921 H   0  0  0  0  0  0  0  0  0  0  0  0
  -46.4926   58.4540   66.0036 H   0  0  0  0  0  0  0  0  0  0  0  0
  -46.7522   56.7884   65.5157 H   0  0  0  0  0  0  0  0  0  0  0  0
  -44.6066   56.1593   66.4807 H   0  0  0  0  0  0  0  0  0  0  0  0
  -44.3490   57.8210   66.9880 H   0  0  0  0  0  0  0  0  0  0  0  0
  -45.6701   58.9759   64.5033 H   0  0  0  0  0  0  0  0  0  0  0  0
  -45.1018   58.1219   63.0888 H   0  0  0  0  0  0  0  0  0  0  0  0
  -44.0961   59.3390   63.8373 H   0  0  0  0  0  0  0  0  0  0  0  0
  -42.6690   56.1419   65.0787 H   0  0  0  0  0  0  0  0  0  0  0  0
  -43.0688   57.9561   62.6626 H   0  0  0  0  0  0  0  0  0  0  0  0
  -42.4893   56.3075   62.5309 H   0  0  0  0  0  0  0  0  0  0  0  0
  -40.6442   57.9123   62.3526 H   0  0  0  0  0  0  0  0  0  0  0  0
  -40.4798   56.9047   63.7758 H   0  0  0  0  0  0  0  0  0  0  0  0
  -39.8115   57.9332   65.6037 H   0  0  0  0  0  0  0  0  0  0  0  0
  -40.9264   59.0929   66.2857 H   0  0  0  0  0  0  0  0  0  0  0  0
  -39.5006   59.6448   65.4398 H   0  0  0  0  0  0  0  0  0  0  0  0
  -42.2063   60.0281   62.9234 H   0  0  0  0  0  0  0  0  0  0  0  0
  -40.7452   61.3050   65.2179 H   0  0  0  0  0  0  0  0  0  0  0  0
  -41.7501   62.1268   64.0403 H   0  0  0  0  0  0  0  0  0  0  0  0
  1  3  1  0  0  0  0
  1 17  1  0  0  0  0
  1 18  1  0  0  0  0
  1 19  1  0  0  0  0
  2 16  1  0  0  0  0
  2 20  1  0  0  0  0
  3  4  1  0  0  0  0
  3  5  2  0  0  0  0
  4 21  1  0  0  0  0
  4 22  1  0  0  0  0
  4 23  1  0  0  0  0
  5  6  1  0  0  0  0
  5 24  1  0  0  0  0
  6  7  1  0  0  0  0
  6 25  1  0  0  0  0
  6 26  1  0  0  0  0
  7  8  1  0  0  0  0
  7 27  1  0  0  0  0
  7 28  1  0  0  0  0
  8  9  1  0  0  0  0
  8 10  2  0  0  0  0
  9 29  1  0  0  0  0
  9 30  1  0  0  0  0
  9 31  1  0  0  0  0
 10 11  1  0  0  0  0
 10 32  1  0  0  0  0
 11 12  1  0  0  0  0
 11 33  1  0  0  0  0
 11 34  1  0  0  0  0
 12 13  1  0  0  0  0
 12 35  1  0  0  0  0
 12 36  1  0  0  0  0
 13 14  1  0  0  0  0
 13 15  2  0  0  0  0
 14 37  1  0  0  0  0
 14 38  1  0  0  0  0
 14 39  1  0  0  0  0
 15 16  1  0  0  0  0
 15 40  1  0  0  0  0
 16 41  1  0  0  0  0
 16 42  1  0  0  0  0
M  END
$$$$
/media/chris/experiments/cd1a-new-docking/inputs/ligands/6nux_ligand.pdb
 OpenBabel07022319323D

 42 41  0  0  0  0  0  0  0  0999 V2000
  -43.5995   54.8256   68.5199 C   0  0  0  0  0  0  0  0  0  0  0  0
  -43.8812   58.9608   57.6365 O   0  0  0  0  0  0  0  0  0  0  0  0
  -42.4670   55.3715   67.7050 C   0  0  0  0  0  0  0  0  0  0  0  0
  -41.2349   54.5427   67.4992 C   0  0  0  0  0  0  0  0  0  0  0  0
  -42.5506   56.5966   67.1652 C   0  0  0  0  0  0  0  0  0  0  0  0
  -43.7874   57.4416   67.3664 C   0  0  0  0  0  0  0  0  0  0  0  0
  -44.7960   57.1870   66.2510 C   0  0  0  0  0  0  0  0  0  0  0  0
  -44.1950   57.5130   64.9000 C   0  0  0  0  0  0  0  0  0  0  0  0
  -44.8100   58.5630   64.0190 C   0  0  0  0  0  0  0  0  0  0  0  0
  -43.0990   56.8650   64.4810 C   0  0  0  0  0  0  0  0  0  0  0  0
  -42.4910   57.1900   63.1360 C   0  0  0  0  0  0  0  0  0  0  0  0
  -43.5718   57.6613   62.1707 C   0  0  0  0  0  0  0  0  0  0  0  0
  -42.9628   57.9693   60.8199 C   0  0  0  0  0  0  0  0  0  0  0  0
  -41.7456   57.2245   60.3672 C   0  0  0  0  0  0  0  0  0  0  0  0
  -43.5121   58.8970   60.0220 C   0  0  0  0  0  0  0  0  0  0  0  0
  -42.9207   59.2150   58.6676 C   0  0  0  0  0  0  0  0  0  0  0  0
  -43.3506   53.8433   68.8635 H   0  0  0  0  0  0  0  0  0  0  0  0
  -44.4826   54.7797   67.9175 H   0  0  0  0  0  0  0  0  0  0  0  0
  -43.7740   55.4640   69.3607 H   0  0  0  0  0  0  0  0  0  0  0  0
  -43.4910   59.1681   56.7729 H   0  0  0  0  0  0  0  0  0  0  0  0
  -41.3489   53.6038   67.9995 H   0  0  0  0  0  0  0  0  0  0  0  0
  -40.3870   55.0590   67.8986 H   0  0  0  0  0  0  0  0  0  0  0  0
  -41.0893   54.3739   66.4527 H   0  0  0  0  0  0  0  0  0  0  0  0
  -41.7640   56.9651   66.6080 H   0  0  0  0  0  0  0  0  0  0  0  0
  -43.5118   58.4755   67.3625 H   0  0  0  0  0  0  0  0  0  0  0  0
  -44.2348   57.1825   68.3031 H   0  0  0  0  0  0  0  0  0  0  0  0
  -45.6574   57.8016   66.4096 H   0  0  0  0  0  0  0  0  0  0  0  0
  -45.0697   56.1527   66.2648 H   0  0  0  0  0  0  0  0  0  0  0  0
  -45.6701   58.9759   64.5033 H   0  0  0  0  0  0  0  0  0  0  0  0
  -45.1018   58.1219   63.0888 H   0  0  0  0  0  0  0  0  0  0  0  0
  -44.0961   59.3390   63.8373 H   0  0  0  0  0  0  0  0  0  0  0  0
  -42.6690   56.1419   65.0787 H   0  0  0  0  0  0  0  0  0  0  0  0
  -42.0205   56.3145   62.7398 H   0  0  0  0  0  0  0  0  0  0  0  0
  -41.7680   57.9692   63.2585 H   0  0  0  0  0  0  0  0  0  0  0  0
  -44.0342   58.5441   62.5603 H   0  0  0  0  0  0  0  0  0  0  0  0
  -44.3026   56.8878   62.0577 H   0  0  0  0  0  0  0  0  0  0  0  0
  -41.4494   56.5305   61.1258 H   0  0  0  0  0  0  0  0  0  0  0  0
  -40.9501   57.9170   60.1871 H   0  0  0  0  0  0  0  0  0  0  0  0
  -41.9673   56.6936   59.4650 H   0  0  0  0  0  0  0  0  0  0  0  0
  -44.3540   59.4030   60.3386 H   0  0  0  0  0  0  0  0  0  0  0  0
  -42.6365   60.2461   58.6394 H   0  0  0  0  0  0  0  0  0  0  0  0
  -42.0636   58.5951   58.5068 H   0  0  0  0  0  0  0  0  0  0  0  0
  1  3  1  0  0  0  0
  1 17  1  0  0  0  0
  1 18  1  0  0  0  0
  1 19  1  0  0  0  0
  2 16  1  0  0  0  0
  2 20  1  0  0  0  0
  3  4  1  0  0  0  0
  3  5  2  0  0  0  0
  4 21  1  0  0  0  0
  4 22  1  0  0  0  0
  4 23  1  0  0  0  0
  5  6  1  0  0  0  0
  5 24  1  0  0  0  0
  6  7  1  0  0  0  0
  6 25  1  0  0  0  0
  6 26  1  0  0  0  0
  7  8  1  0  0  0  0
  7 27  1  0  0  0  0
  7 28  1  0  0  0  0
  8  9  1  0  0  0  0
  8 10  2  0  0  0  0
  9 29  1  0  0  0  0
  9 30  1  0  0  0  0
  9 31  1  0  0  0  0
 10 11  1  0  0  0  0
 10 32  1  0  0  0  0
 11 12  1  0  0  0  0
 11 33  1  0  0  0  0
 11 34  1  0  0  0  0
 12 13  1  0  0  0  0
 12 35  1  0  0  0  0
 12 36  1  0  0  0  0
 13 14  1  0  0  0  0
 13 15  2  0  0  0  0
 14 37  1  0  0  0  0
 14 38  1  0  0  0  0
 14 39  1  0  0  0  0
 15 16  1  0  0  0  0
 15 40  1  0  0  0  0
 16 41  1  0  0  0  0
 16 42  1  0  0  0  0
M  END
$$$$
/media/chris/experiments/cd1a-new-docking/inputs/ligands/6nux_ligand.pdb
 OpenBabel07022319323D

 42 41  0  0  0  0  0  0  0  0999 V2000
  -46.1400   53.0776   66.9172 C   0  0  0  0  0  0  0  0  0  0  0  0
  -37.7251   56.4754   64.8603 O   0  0  0  0  0  0  0  0  0  0  0  0
  -46.2610   54.1670   67.9385 C   0  0  0  0  0  0  0  0  0  0  0  0
  -46.8698   53.8660   69.2750 C   0  0  0  0  0  0  0  0  0  0  0  0
  -45.8319   55.4069   67.6596 C   0  0  0  0  0  0  0  0  0  0  0  0
  -45.2171   55.7225   66.3155 C   0  0  0  0  0  0  0  0  0  0  0  0
  -44.7960   57.1870   66.2510 C   0  0  0  0  0  0  0  0  0  0  0  0
  -44.1950   57.5130   64.9000 C   0  0  0  0  0  0  0  0  0  0  0  0
  -44.8100   58.5630   64.0190 C   0  0  0  0  0  0  0  0  0  0  0  0
  -43.0990   56.8650   64.4810 C   0  0  0  0  0  0  0  0  0  0  0  0
  -42.4910   57.1900   63.1360 C   0  0  0  0  0  0  0  0  0  0  0  0
  -41.8169   55.9546   62.5516 C   0  0  0  0  0  0  0  0  0  0  0  0
  -40.7335   55.4631   63.4871 C   0  0  0  0  0  0  0  0  0  0  0  0
  -40.4046   54.0035   63.5402 C   0  0  0  0  0  0  0  0  0  0  0  0
  -40.0595   56.3271   64.2605 C   0  0  0  0  0  0  0  0  0  0  0  0
  -38.9711   55.8555   65.1975 C   0  0  0  0  0  0  0  0  0  0  0  0
  -46.5326   52.1669   67.3189 H   0  0  0  0  0  0  0  0  0  0  0  0
  -45.1099   52.9403   66.6626 H   0  0  0  0  0  0  0  0  0  0  0  0
  -46.6911   53.3476   66.0407 H   0  0  0  0  0  0  0  0  0  0  0  0
  -37.0350   56.1656   65.4675 H   0  0  0  0  0  0  0  0  0  0  0  0
  -47.1504   52.8342   69.3148 H   0  0  0  0  0  0  0  0  0  0  0  0
  -47.7364   54.4771   69.4180 H   0  0  0  0  0  0  0  0  0  0  0  0
  -46.1570   54.0718   70.0461 H   0  0  0  0  0  0  0  0  0  0  0  0
  -45.9223   56.1513   68.3686 H   0  0  0  0  0  0  0  0  0  0  0  0
  -45.9346   55.5283   65.5458 H   0  0  0  0  0  0  0  0  0  0  0  0
  -44.3524   55.1076   66.1777 H   0  0  0  0  0  0  0  0  0  0  0  0
  -44.0698   57.3774   67.0135 H   0  0  0  0  0  0  0  0  0  0  0  0
  -45.6604   57.8000   66.3995 H   0  0  0  0  0  0  0  0  0  0  0  0
  -45.6701   58.9759   64.5033 H   0  0  0  0  0  0  0  0  0  0  0  0
  -45.1018   58.1219   63.0888 H   0  0  0  0  0  0  0  0  0  0  0  0
  -44.0961   59.3390   63.8373 H   0  0  0  0  0  0  0  0  0  0  0  0
  -42.6690   56.1419   65.0787 H   0  0  0  0  0  0  0  0  0  0  0  0
  -41.7644   57.9664   63.2548 H   0  0  0  0  0  0  0  0  0  0  0  0
  -43.2650   57.5130   62.4715 H   0  0  0  0  0  0  0  0  0  0  0  0
  -41.3823   56.2024   61.6057 H   0  0  0  0  0  0  0  0  0  0  0  0
  -42.5475   55.1832   62.4251 H   0  0  0  0  0  0  0  0  0  0  0  0
  -41.0375   53.4703   62.8619 H   0  0  0  0  0  0  0  0  0  0  0  0
  -40.5596   53.6388   64.5341 H   0  0  0  0  0  0  0  0  0  0  0  0
  -39.3815   53.8581   63.2624 H   0  0  0  0  0  0  0  0  0  0  0  0
  -40.2883   57.3324   64.2151 H   0  0  0  0  0  0  0  0  0  0  0  0
  -39.2335   56.1133   66.2023 H   0  0  0  0  0  0  0  0  0  0  0  0
  -38.8685   54.7942   65.1074 H   0  0  0  0  0  0  0  0  0  0  0  0
  1  3  1  0  0  0  0
  1 17  1  0  0  0  0
  1 18  1  0  0  0  0
  1 19  1  0  0  0  0
  2 16  1  0  0  0  0
  2 20  1  0  0  0  0
  3  4  1  0  0  0  0
  3  5  2  0  0  0  0
  4 21  1  0  0  0  0
  4 22  1  0  0  0  0
  4 23  1  0  0  0  0
  5  6  1  0  0  0  0
  5 24  1  0  0  0  0
  6  7  1  0  0  0  0
  6 25  1  0  0  0  0
  6 26  1  0  0  0  0
  7  8  1  0  0  0  0
  7 27  1  0  0  0  0
  7 28  1  0  0  0  0
  8  9  1  0  0  0  0
  8 10  2  0  0  0  0
  9 29  1  0  0  0  0
  9 30  1  0  0  0  0
  9 31  1  0  0  0  0
 10 11  1  0  0  0  0
 10 32  1  0  0  0  0
 11 12  1  0  0  0  0
 11 33  1  0  0  0  0
 11 34  1  0  0  0  0
 12 13  1  0  0  0  0
 12 35  1  0  0  0  0
 12 36  1  0  0  0  0
 13 14  1  0  0  0  0
 13 15  2  0  0  0  0
 14 37  1  0  0  0  0
 14 38  1  0  0  0  0
 14 39  1  0  0  0  0
 15 16  1  0  0  0  0
 15 40  1  0  0  0  0
 16 41  1  0  0  0  0
 16 42  1  0  0  0  0
M  END
$$$$
/media/chris/experiments/cd1a-new-docking/inputs/ligands/6nux_ligand.pdb
 OpenBabel07022319323D

 42 41  0  0  0  0  0  0  0  0999 V2000
  -45.5200   52.8734   66.3286 C   0  0  0  0  0  0  0  0  0  0  0  0
  -41.4033   56.6073   58.1686 O   0  0  0  0  0  0  0  0  0  0  0  0
  -44.1688   53.4852   66.1176 C   0  0  0  0  0  0  0  0  0  0  0  0
  -42.9769   52.5986   65.9162 C   0  0  0  0  0  0  0  0  0  0  0  0
  -44.0229   54.8186   66.1129 C   0  0  0  0  0  0  0  0  0  0  0  0
  -45.2171   55.7225   66.3155 C   0  0  0  0  0  0  0  0  0  0  0  0
  -44.7960   57.1870   66.2510 C   0  0  0  0  0  0  0  0  0  0  0  0
  -44.1950   57.5130   64.9000 C   0  0  0  0  0  0  0  0  0  0  0  0
  -44.8100   58.5630   64.0190 C   0  0  0  0  0  0  0  0  0  0  0  0
  -43.0990   56.8650   64.4810 C   0  0  0  0  0  0  0  0  0  0  0  0
  -42.4910   57.1900   63.1360 C   0  0  0  0  0  0  0  0  0  0  0  0
  -41.2715   56.3116   62.8844 C   0  0  0  0  0  0  0  0  0  0  0  0
  -40.6547   56.6512   61.5448 C   0  0  0  0  0  0  0  0  0  0  0  0
  -39.1804   56.4859   61.3430 C   0  0  0  0  0  0  0  0  0  0  0  0
  -41.4210   57.0890   60.5349 C   0  0  0  0  0  0  0  0  0  0  0  0
  -40.8237   57.4286   59.1884 C   0  0  0  0  0  0  0  0  0  0  0  0
  -45.4372   51.8070   66.2999 H   0  0  0  0  0  0  0  0  0  0  0  0
  -46.1843   53.2005   65.5561 H   0  0  0  0  0  0  0  0  0  0  0  0
  -45.9037   53.1758   67.2806 H   0  0  0  0  0  0  0  0  0  0  0  0
  -41.0128   56.8339   57.3101 H   0  0  0  0  0  0  0  0  0  0  0  0
  -43.2843   51.5743   65.9508 H   0  0  0  0  0  0  0  0  0  0  0  0
  -42.2609   52.7825   66.6897 H   0  0  0  0  0  0  0  0  0  0  0  0
  -42.5347   52.8063   64.9642 H   0  0  0  0  0  0  0  0  0  0  0  0
  -43.0876   55.2305   65.9697 H   0  0  0  0  0  0  0  0  0  0  0  0
  -45.6513   55.5229   67.2729 H   0  0  0  0  0  0  0  0  0  0  0  0
  -45.9298   55.5331   65.5403 H   0  0  0  0  0  0  0  0  0  0  0  0
  -44.0698   57.3774   67.0135 H   0  0  0  0  0  0  0  0  0  0  0  0
  -45.6604   57.8000   66.3995 H   0  0  0  0  0  0  0  0  0  0  0  0
  -45.6701   58.9759   64.5033 H   0  0  0  0  0  0  0  0  0  0  0  0
  -45.1018   58.1219   63.0888 H   0  0  0  0  0  0  0  0  0  0  0  0
  -44.0961   59.3390   63.8373 H   0  0  0  0  0  0  0  0  0  0  0  0
  -42.6690   56.1419   65.0787 H   0  0  0  0  0  0  0  0  0  0  0  0
  -42.1953   58.2182   63.1208 H   0  0  0  0  0  0  0  0  0  0  0  0
  -43.2168   57.0076   62.3712 H   0  0  0  0  0  0  0  0  0  0  0  0
  -41.5688   55.2837   62.8869 H   0  0  0  0  0  0  0  0  0  0  0  0
  -40.5504   56.4833   63.6561 H   0  0  0  0  0  0  0  0  0  0  0  0
  -38.7341   56.1309   62.2484 H   0  0  0  0  0  0  0  0  0  0  0  0
  -38.7487   57.4284   61.0782 H   0  0  0  0  0  0  0  0  0  0  0  0
  -39.0048   55.7801   60.5582 H   0  0  0  0  0  0  0  0  0  0  0  0
  -42.4372   57.1958   60.6796 H   0  0  0  0  0  0  0  0  0  0  0  0
  -41.0164   58.4573   58.9656 H   0  0  0  0  0  0  0  0  0  0  0  0
  -39.7687   57.2531   59.2202 H   0  0  0  0  0  0  0  0  0  0  0  0
  1  3  1  0  0  0  0
  1 17  1  0  0  0  0
  1 18  1  0  0  0  0
  1 19  1  0  0  0  0
  2 16  1  0  0  0  0
  2 20  1  0  0  0  0
  3  4  1  0  0  0  0
  3  5  2  0  0  0  0
  4 21  1  0  0  0  0
  4 22  1  0  0  0  0
  4 23  1  0  0  0  0
  5  6  1  0  0  0  0
  5 24  1  0  0  0  0
  6  7  1  0  0  0  0
  6 25  1  0  0  0  0
  6 26  1  0  0  0  0
  7  8  1  0  0  0  0
  7 27  1  0  0  0  0
  7 28  1  0  0  0  0
  8  9  1  0  0  0  0
  8 10  2  0  0  0  0
  9 29  1  0  0  0  0
  9 30  1  0  0  0  0
  9 31  1  0  0  0  0
 10 11  1  0  0  0  0
 10 32  1  0  0  0  0
 11 12  1  0  0  0  0
 11 33  1  0  0  0  0
 11 34  1  0  0  0  0
 12 13  1  0  0  0  0
 12 35  1  0  0  0  0
 12 36  1  0  0  0  0
 13 14  1  0  0  0  0
 13 15  2  0  0  0  0
 14 37  1  0  0  0  0
 14 38  1  0  0  0  0
 14 39  1  0  0  0  0
 15 16  1  0  0  0  0
 15 40  1  0  0  0  0
 16 41  1  0  0  0  0
 16 42  1  0  0  0  0
M  END
$$$$
/media/chris/experiments/cd1a-new-docking/inputs/ligands/6nux_ligand.pdb
 OpenBabel07022319323D

 42 41  0  0  0  0  0  0  0  0999 V2000
  -48.6469   56.3612   66.5611 C   0  0  0  0  0  0  0  0  0  0  0  0
  -39.4818   60.3649   59.9702 O   0  0  0  0  0  0  0  0  0  0  0  0
  -47.7582   55.8972   67.6744 C   0  0  0  0  0  0  0  0  0  0  0  0
  -48.3509   55.5879   69.0162 C   0  0  0  0  0  0  0  0  0  0  0  0
  -46.4385   55.7627   67.4756 C   0  0  0  0  0  0  0  0  0  0  0  0
  -45.8295   56.0722   66.1275 C   0  0  0  0  0  0  0  0  0  0  0  0
  -44.7960   57.1870   66.2510 C   0  0  0  0  0  0  0  0  0  0  0  0
  -44.1950   57.5130   64.9000 C   0  0  0  0  0  0  0  0  0  0  0  0
  -44.8100   58.5630   64.0190 C   0  0  0  0  0  0  0  0  0  0  0  0
  -43.0990   56.8650   64.4810 C   0  0  0  0  0  0  0  0  0  0  0  0
  -42.4910   57.1900   63.1360 C   0  0  0  0  0  0  0  0  0  0  0  0
  -41.0574   57.6762   63.3109 C   0  0  0  0  0  0  0  0  0  0  0  0
  -40.4571   58.0172   61.9642 C   0  0  0  0  0  0  0  0  0  0  0  0
  -39.2344   57.2937   61.4918 C   0  0  0  0  0  0  0  0  0  0  0  0
  -41.0189   58.9550   61.1872 C   0  0  0  0  0  0  0  0  0  0  0  0
  -40.4364   59.3059   59.8371 C   0  0  0  0  0  0  0  0  0  0  0  0
  -49.6584   56.4062   66.9073 H   0  0  0  0  0  0  0  0  0  0  0  0
  -48.5804   55.6756   65.7423 H   0  0  0  0  0  0  0  0  0  0  0  0
  -48.3367   57.3332   66.2386 H   0  0  0  0  0  0  0  0  0  0  0  0
  -39.1153   60.5812   59.0986 H   0  0  0  0  0  0  0  0  0  0  0  0
  -49.4078   55.7516   68.9856 H   0  0  0  0  0  0  0  0  0  0  0  0
  -47.9125   56.2254   69.7553 H   0  0  0  0  0  0  0  0  0  0  0  0
  -48.1553   54.5658   69.2654 H   0  0  0  0  0  0  0  0  0  0  0  0
  -45.8341   55.4453   68.2495 H   0  0  0  0  0  0  0  0  0  0  0  0
  -46.6020   56.3813   65.4548 H   0  0  0  0  0  0  0  0  0  0  0  0
  -45.3467   55.1926   65.7559 H   0  0  0  0  0  0  0  0  0  0  0  0
  -44.0179   56.8724   66.9147 H   0  0  0  0  0  0  0  0  0  0  0  0
  -45.2787   58.0624   66.6326 H   0  0  0  0  0  0  0  0  0  0  0  0
  -45.6701   58.9759   64.5033 H   0  0  0  0  0  0  0  0  0  0  0  0
  -45.1018   58.1219   63.0888 H   0  0  0  0  0  0  0  0  0  0  0  0
  -44.0961   59.3390   63.8373 H   0  0  0  0  0  0  0  0  0  0  0  0
  -42.6690   56.1419   65.0787 H   0  0  0  0  0  0  0  0  0  0  0  0
  -43.0688   57.9561   62.6626 H   0  0  0  0  0  0  0  0  0  0  0  0
  -42.4893   56.3075   62.5309 H   0  0  0  0  0  0  0  0  0  0  0  0
  -40.4761   56.9057   63.7728 H   0  0  0  0  0  0  0  0  0  0  0  0
  -41.0565   58.5510   63.9269 H   0  0  0  0  0  0  0  0  0  0  0  0
  -38.9282   56.5877   62.2352 H   0  0  0  0  0  0  0  0  0  0  0  0
  -38.4466   57.9977   61.3224 H   0  0  0  0  0  0  0  0  0  0  0  0
  -39.4547   56.7788   60.5801 H   0  0  0  0  0  0  0  0  0  0  0  0
  -41.8645   59.4462   61.5171 H   0  0  0  0  0  0  0  0  0  0  0  0
  -39.9533   58.4443   59.4259 H   0  0  0  0  0  0  0  0  0  0  0  0
  -41.2253   59.6265   59.1892 H   0  0  0  0  0  0  0  0  0  0  0  0
  1  3  1  0  0  0  0
  1 17  1  0  0  0  0
  1 18  1  0  0  0  0
  1 19  1  0  0  0  0
  2 16  1  0  0  0  0
  2 20  1  0  0  0  0
  3  4  1  0  0  0  0
  3  5  2  0  0  0  0
  4 21  1  0  0  0  0
  4 22  1  0  0  0  0
  4 23  1  0  0  0  0
  5  6  1  0  0  0  0
  5 24  1  0  0  0  0
  6  7  1  0  0  0  0
  6 25  1  0  0  0  0
  6 26  1  0  0  0  0
  7  8  1  0  0  0  0
  7 27  1  0  0  0  0
  7 28  1  0  0  0  0
  8  9  1  0  0  0  0
  8 10  2  0  0  0  0
  9 29  1  0  0  0  0
  9 30  1  0  0  0  0
  9 31  1  0  0  0  0
 10 11  1  0  0  0  0
 10 32  1  0  0  0  0
 11 12  1  0  0  0  0
 11 33  1  0  0  0  0
 11 34  1  0  0  0  0
 12 13  1  0  0  0  0
 12 35  1  0  0  0  0
 12 36  1  0  0  0  0
 13 14  1  0  0  0  0
 13 15  2  0  0  0  0
 14 37  1  0  0  0  0
 14 38  1  0  0  0  0
 14 39  1  0  0  0  0
 15 16  1  0  0  0  0
 15 40  1  0  0  0  0
 16 41  1  0  0  0  0
 16 42  1  0  0  0  0
M  END
$$$$
/media/chris/experiments/cd1a-new-docking/inputs/ligands/6nux_ligand.pdb
 OpenBabel07022319323D

 42 41  0  0  0  0  0  0  0  0999 V2000
  -43.4001   58.8875   67.3170 C   0  0  0  0  0  0  0  0  0  0  0  0
  -46.3217   53.4467   63.5018 O   0  0  0  0  0  0  0  0  0  0  0  0
  -42.2956   57.8760   67.3552 C   0  0  0  0  0  0  0  0  0  0  0  0
  -40.8840   58.3278   67.5803 C   0  0  0  0  0  0  0  0  0  0  0  0
  -42.5650   56.5731   67.1848 C   0  0  0  0  0  0  0  0  0  0  0  0
  -43.9840   56.1057   66.9565 C   0  0  0  0  0  0  0  0  0  0  0  0
  -44.7960   57.1870   66.2510 C   0  0  0  0  0  0  0  0  0  0  0  0
  -44.1950   57.5130   64.9000 C   0  0  0  0  0  0  0  0  0  0  0  0
  -44.8100   58.5630   64.0190 C   0  0  0  0  0  0  0  0  0  0  0  0
  -43.0990   56.8650   64.4810 C   0  0  0  0  0  0  0  0  0  0  0  0
  -42.4910   57.1900   63.1360 C   0  0  0  0  0  0  0  0  0  0  0  0
  -43.5074   56.9465   62.0271 C   0  0  0  0  0  0  0  0  0  0  0  0
  -43.9537   55.5005   62.0405 C   0  0  0  0  0  0  0  0  0  0  0  0
  -42.9434   54.4102   61.8611 C   0  0  0  0  0  0  0  0  0  0  0  0
  -45.2455   55.1892   62.2224 C   0  0  0  0  0  0  0  0  0  0  0  0
  -45.7094   53.7506   62.2435 C   0  0  0  0  0  0  0  0  0  0  0  0
  -42.9938   59.8653   67.4714 H   0  0  0  0  0  0  0  0  0  0  0  0
  -44.1095   58.6703   68.0880 H   0  0  0  0  0  0  0  0  0  0  0  0
  -43.8858   58.8495   66.3643 H   0  0  0  0  0  0  0  0  0  0  0  0
  -46.6150   52.5221   63.5036 H   0  0  0  0  0  0  0  0  0  0  0  0
  -40.8639   59.3915   67.6943 H   0  0  0  0  0  0  0  0  0  0  0  0
  -40.2818   58.0474   66.7415 H   0  0  0  0  0  0  0  0  0  0  0  0
  -40.4989   57.8668   68.4658 H   0  0  0  0  0  0  0  0  0  0  0  0
  -41.7970   55.8842   67.2098 H   0  0  0  0  0  0  0  0  0  0  0  0
  -44.4377   55.8840   67.8999 H   0  0  0  0  0  0  0  0  0  0  0  0
  -43.9652   55.2305   66.3412 H   0  0  0  0  0  0  0  0  0  0  0  0
  -44.8032   58.0706   66.8545 H   0  0  0  0  0  0  0  0  0  0  0  0
  -45.7934   56.8279   66.1058 H   0  0  0  0  0  0  0  0  0  0  0  0
  -45.6701   58.9759   64.5033 H   0  0  0  0  0  0  0  0  0  0  0  0
  -45.1018   58.1219   63.0888 H   0  0  0  0  0  0  0  0  0  0  0  0
  -44.0961   59.3390   63.8373 H   0  0  0  0  0  0  0  0  0  0  0  0
  -42.6690   56.1419   65.0787 H   0  0  0  0  0  0  0  0  0  0  0  0
  -41.6359   56.5673   62.9748 H   0  0  0  0  0  0  0  0  0  0  0  0
  -42.2003   58.2197   63.1236 H   0  0  0  0  0  0  0  0  0  0  0  0
  -43.0600   57.1702   61.0812 H   0  0  0  0  0  0  0  0  0  0  0  0
  -44.3572   57.5772   62.1855 H   0  0  0  0  0  0  0  0  0  0  0  0
  -41.9729   54.8412   61.7299 H   0  0  0  0  0  0  0  0  0  0  0  0
  -43.1952   53.8290   60.9987 H   0  0  0  0  0  0  0  0  0  0  0  0
  -42.9402   53.7810   62.7266 H   0  0  0  0  0  0  0  0  0  0  0  0
  -45.9356   55.9458   62.3503 H   0  0  0  0  0  0  0  0  0  0  0  0
  -46.4199   53.5968   61.4584 H   0  0  0  0  0  0  0  0  0  0  0  0
  -44.8645   53.1093   62.1026 H   0  0  0  0  0  0  0  0  0  0  0  0
  1  3  1  0  0  0  0
  1 17  1  0  0  0  0
  1 18  1  0  0  0  0
  1 19  1  0  0  0  0
  2 16  1  0  0  0  0
  2 20  1  0  0  0  0
  3  4  1  0  0  0  0
  3  5  2  0  0  0  0
  4 21  1  0  0  0  0
  4 22  1  0  0  0  0
  4 23  1  0  0  0  0
  5  6  1  0  0  0  0
  5 24  1  0  0  0  0
  6  7  1  0  0  0  0
  6 25  1  0  0  0  0
  6 26  1  0  0  0  0
  7  8  1  0  0  0  0
  7 27  1  0  0  0  0
  7 28  1  0  0  0  0
  8  9  1  0  0  0  0
  8 10  2  0  0  0  0
  9 29  1  0  0  0  0
  9 30  1  0  0  0  0
  9 31  1  0  0  0  0
 10 11  1  0  0  0  0
 10 32  1  0  0  0  0
 11 12  1  0  0  0  0
 11 33  1  0  0  0  0
 11 34  1  0  0  0  0
 12 13  1  0  0  0  0
 12 35  1  0  0  0  0
 12 36  1  0  0  0  0
 13 14  1  0  0  0  0
 13 15  2  0  0  0  0
 14 37  1  0  0  0  0
 14 38  1  0  0  0  0
 14 39  1  0  0  0  0
 15 16  1  0  0  0  0
 15 40  1  0  0  0  0
 16 41  1  0  0  0  0
 16 42  1  0  0  0  0
M  END
$$$$
/media/chris/experiments/cd1a-new-docking/inputs/ligands/6nux_ligand.pdb
 OpenBabel07022319323D

 42 41  0  0  0  0  0  0  0  0999 V2000
  -43.4462   58.4245   68.5513 C   0  0  0  0  0  0  0  0  0  0  0  0
  -47.6355   56.0167   60.4028 O   0  0  0  0  0  0  0  0  0  0  0  0
  -42.3168   57.6579   67.9337 C   0  0  0  0  0  0  0  0  0  0  0  0
  -40.9051   58.1123   68.1526 C   0  0  0  0  0  0  0  0  0  0  0  0
  -42.5650   56.5731   67.1848 C   0  0  0  0  0  0  0  0  0  0  0  0
  -43.9840   56.1057   66.9565 C   0  0  0  0  0  0  0  0  0  0  0  0
  -44.7960   57.1870   66.2510 C   0  0  0  0  0  0  0  0  0  0  0  0
  -44.1950   57.5130   64.9000 C   0  0  0  0  0  0  0  0  0  0  0  0
  -44.8100   58.5630   64.0190 C   0  0  0  0  0  0  0  0  0  0  0  0
  -43.0990   56.8650   64.4810 C   0  0  0  0  0  0  0  0  0  0  0  0
  -42.4910   57.1900   63.1360 C   0  0  0  0  0  0  0  0  0  0  0  0
  -43.5718   57.6613   62.1707 C   0  0  0  0  0  0  0  0  0  0  0  0
  -44.6212   56.5842   62.0006 C   0  0  0  0  0  0  0  0  0  0  0  0
  -44.9013   55.6364   63.1252 C   0  0  0  0  0  0  0  0  0  0  0  0
  -45.3088   56.4798   60.8538 C   0  0  0  0  0  0  0  0  0  0  0  0
  -46.3640   55.4136   60.6671 C   0  0  0  0  0  0  0  0  0  0  0  0
  -43.0545   59.2503   69.1077 H   0  0  0  0  0  0  0  0  0  0  0  0
  -43.9970   57.7823   69.2064 H   0  0  0  0  0  0  0  0  0  0  0  0
  -44.0936   58.7884   67.7811 H   0  0  0  0  0  0  0  0  0  0  0  0
  -48.3039   55.3237   60.2849 H   0  0  0  0  0  0  0  0  0  0  0  0
  -40.9034   58.9861   68.7702 H   0  0  0  0  0  0  0  0  0  0  0  0
  -40.4538   58.3411   67.2098 H   0  0  0  0  0  0  0  0  0  0  0  0
  -40.3505   57.3342   68.6341 H   0  0  0  0  0  0  0  0  0  0  0  0
  -41.7806   56.0534   66.7610 H   0  0  0  0  0  0  0  0  0  0  0  0
  -44.4377   55.8840   67.8999 H   0  0  0  0  0  0  0  0  0  0  0  0
  -43.9652   55.2305   66.3412 H   0  0  0  0  0  0  0  0  0  0  0  0
  -44.8032   58.0706   66.8545 H   0  0  0  0  0  0  0  0  0  0  0  0
  -45.7934   56.8279   66.1058 H   0  0  0  0  0  0  0  0  0  0  0  0
  -45.6701   58.9759   64.5033 H   0  0  0  0  0  0  0  0  0  0  0  0
  -45.1018   58.1219   63.0888 H   0  0  0  0  0  0  0  0  0  0  0  0
  -44.0961   59.3390   63.8373 H   0  0  0  0  0  0  0  0  0  0  0  0
  -42.6690   56.1419   65.0787 H   0  0  0  0  0  0  0  0  0  0  0  0
  -42.0205   56.3145   62.7398 H   0  0  0  0  0  0  0  0  0  0  0  0
  -41.7680   57.9692   63.2585 H   0  0  0  0  0  0  0  0  0  0  0  0
  -43.1288   57.8771   61.2209 H   0  0  0  0  0  0  0  0  0  0  0  0
  -44.0341   58.5421   62.5647 H   0  0  0  0  0  0  0  0  0  0  0  0
  -44.2638   55.8670   63.9531 H   0  0  0  0  0  0  0  0  0  0  0  0
  -44.7163   54.6336   62.8010 H   0  0  0  0  0  0  0  0  0  0  0  0
  -45.9239   55.7313   63.4253 H   0  0  0  0  0  0  0  0  0  0  0  0
  -45.1140   57.1397   60.0846 H   0  0  0  0  0  0  0  0  0  0  0  0
  -46.0918   54.7874   59.8433 H   0  0  0  0  0  0  0  0  0  0  0  0
  -46.4334   54.8307   61.5618 H   0  0  0  0  0  0  0  0  0  0  0  0
  1  3  1  0  0  0  0
  1 17  1  0  0  0  0
  1 18  1  0  0  0  0
  1 19  1  0  0  0  0
  2 16  1  0  0  0  0
  2 20  1  0  0  0  0
  3  4  1  0  0  0  0
  3  5  2  0  0  0  0
  4 21  1  0  0  0  0
  4 22  1  0  0  0  0
  4 23  1  0  0  0  0
  5  6  1  0  0  0  0
  5 24  1  0  0  0  0
  6  7  1  0  0  0  0
  6 25  1  0  0  0  0
  6 26  1  0  0  0  0
  7  8  1  0  0  0  0
  7 27  1  0  0  0  0
  7 28  1  0  0  0  0
  8  9  1  0  0  0  0
  8 10  2  0  0  0  0
  9 29  1  0  0  0  0
  9 30  1  0  0  0  0
  9 31  1  0  0  0  0
 10 11  1  0  0  0  0
 10 32  1  0  0  0  0
 11 12  1  0  0  0  0
 11 33  1  0  0  0  0
 11 34  1  0  0  0  0
 12 13  1  0  0  0  0
 12 35  1  0  0  0  0
 12 36  1  0  0  0  0
 13 14  1  0  0  0  0
 13 15  2  0  0  0  0
 14 37  1  0  0  0  0
 14 38  1  0  0  0  0
 14 39  1  0  0  0  0
 15 16  1  0  0  0  0
 15 40  1  0  0  0  0
 16 41  1  0  0  0  0
 16 42  1  0  0  0  0
M  END
$$$$
/media/chris/experiments/cd1a-new-docking/inputs/ligands/6nux_ligand.pdb
 OpenBabel07022319323D

 42 41  0  0  0  0  0  0  0  0999 V2000
  -45.5200   52.8734   66.3286 C   0  0  0  0  0  0  0  0  0  0  0  0
  -45.1837   53.4548   61.4267 O   0  0  0  0  0  0  0  0  0  0  0  0
  -44.1688   53.4852   66.1176 C   0  0  0  0  0  0  0  0  0  0  0  0
  -42.9769   52.5986   65.9162 C   0  0  0  0  0  0  0  0  0  0  0  0
  -44.0229   54.8186   66.1129 C   0  0  0  0  0  0  0  0  0  0  0  0
  -45.2171   55.7225   66.3155 C   0  0  0  0  0  0  0  0  0  0  0  0
  -44.7960   57.1870   66.2510 C   0  0  0  0  0  0  0  0  0  0  0  0
  -44.1950   57.5130   64.9000 C   0  0  0  0  0  0  0  0  0  0  0  0
  -44.8100   58.5630   64.0190 C   0  0  0  0  0  0  0  0  0  0  0  0
  -43.0990   56.8650   64.4810 C   0  0  0  0  0  0  0  0  0  0  0  0
  -42.4910   57.1900   63.1360 C   0  0  0  0  0  0  0  0  0  0  0  0
  -43.5718   57.6613   62.1707 C   0  0  0  0  0  0  0  0  0  0  0  0
  -44.6212   56.5842   62.0006 C   0  0  0  0  0  0  0  0  0  0  0  0
  -45.7802   56.8155   61.0815 C   0  0  0  0  0  0  0  0  0  0  0  0
  -44.5143   55.4206   62.6590 C   0  0  0  0  0  0  0  0  0  0  0  0
  -45.5499   54.3312   62.4982 C   0  0  0  0  0  0  0  0  0  0  0  0
  -45.4372   51.8070   66.2999 H   0  0  0  0  0  0  0  0  0  0  0  0
  -46.1843   53.2005   65.5561 H   0  0  0  0  0  0  0  0  0  0  0  0
  -45.9037   53.1758   67.2806 H   0  0  0  0  0  0  0  0  0  0  0  0
  -45.8548   52.7607   61.3330 H   0  0  0  0  0  0  0  0  0  0  0  0
  -43.2843   51.5743   65.9508 H   0  0  0  0  0  0  0  0  0  0  0  0
  -42.2609   52.7825   66.6897 H   0  0  0  0  0  0  0  0  0  0  0  0
  -42.5347   52.8063   64.9642 H   0  0  0  0  0  0  0  0  0  0  0  0
  -43.0876   55.2305   65.9697 H   0  0  0  0  0  0  0  0  0  0  0  0
  -45.6513   55.5229   67.2729 H   0  0  0  0  0  0  0  0  0  0  0  0
  -45.9298   55.5331   65.5403 H   0  0  0  0  0  0  0  0  0  0  0  0
  -44.0698   57.3774   67.0135 H   0  0  0  0  0  0  0  0  0  0  0  0
  -45.6604   57.8000   66.3995 H   0  0  0  0  0  0  0  0  0  0  0  0
  -45.6701   58.9759   64.5033 H   0  0  0  0  0  0  0  0  0  0  0  0
  -45.1018   58.1219   63.0888 H   0  0  0  0  0  0  0  0  0  0  0  0
  -44.0961   59.3390   63.8373 H   0  0  0  0  0  0  0  0  0  0  0  0
  -42.6690   56.1419   65.0787 H   0  0  0  0  0  0  0  0  0  0  0  0
  -42.0205   56.3145   62.7398 H   0  0  0  0  0  0  0  0  0  0  0  0
  -41.7680   57.9692   63.2585 H   0  0  0  0  0  0  0  0  0  0  0  0
  -43.1288   57.8771   61.2209 H   0  0  0  0  0  0  0  0  0  0  0  0
  -44.0341   58.5421   62.5647 H   0  0  0  0  0  0  0  0  0  0  0  0
  -45.7016   57.7899   60.6466 H   0  0  0  0  0  0  0  0  0  0  0  0
  -46.6936   56.7443   61.6343 H   0  0  0  0  0  0  0  0  0  0  0  0
  -45.7739   56.0775   60.3067 H   0  0  0  0  0  0  0  0  0  0  0  0
  -43.7101   55.2662   63.2871 H   0  0  0  0  0  0  0  0  0  0  0  0
  -45.6165   53.7700   63.4068 H   0  0  0  0  0  0  0  0  0  0  0  0
  -46.4958   54.7790   62.2751 H   0  0  0  0  0  0  0  0  0  0  0  0
  1  3  1  0  0  0  0
  1 17  1  0  0  0  0
  1 18  1  0  0  0  0
  1 19  1  0  0  0  0
  2 16  1  0  0  0  0
  2 20  1  0  0  0  0
  3  4  1  0  0  0  0
  3  5  2  0  0  0  0
  4 21  1  0  0  0  0
  4 22  1  0  0  0  0
  4 23  1  0  0  0  0
  5  6  1  0  0  0  0
  5 24  1  0  0  0  0
  6  7  1  0  0  0  0
  6 25  1  0  0  0  0
  6 26  1  0  0  0  0
  7  8  1  0  0  0  0
  7 27  1  0  0  0  0
  7 28  1  0  0  0  0
  8  9  1  0  0  0  0
  8 10  2  0  0  0  0
  9 29  1  0  0  0  0
  9 30  1  0  0  0  0
  9 31  1  0  0  0  0
 10 11  1  0  0  0  0
 10 32  1  0  0  0  0
 11 12  1  0  0  0  0
 11 33  1  0  0  0  0
 11 34  1  0  0  0  0
 12 13  1  0  0  0  0
 12 35  1  0  0  0  0
 12 36  1  0  0  0  0
 13 14  1  0  0  0  0
 13 15  2  0  0  0  0
 14 37  1  0  0  0  0
 14 38  1  0  0  0  0
 14 39  1  0  0  0  0
 15 16  1  0  0  0  0
 15 40  1  0  0  0  0
 16 41  1  0  0  0  0
 16 42  1  0  0  0  0
M  END
$$$$
/media/chris/experiments/cd1a-new-docking/inputs/ligands/6nux_ligand.pdb
 OpenBabel07022319323D

 42 41  0  0  0  0  0  0  0  0999 V2000
  -47.6004   57.9982   66.6004 C   0  0  0  0  0  0  0  0  0  0  0  0
  -38.2403   56.5197   65.4659 O   0  0  0  0  0  0  0  0  0  0  0  0
  -46.9608   59.3113   66.2668 C   0  0  0  0  0  0  0  0  0  0  0  0
  -47.7831   60.3996   65.6448 C   0  0  0  0  0  0  0  0  0  0  0  0
  -45.6588   59.5131   66.5180 C   0  0  0  0  0  0  0  0  0  0  0  0
  -44.8195   58.4232   67.1440 C   0  0  0  0  0  0  0  0  0  0  0  0
  -44.7960   57.1870   66.2510 C   0  0  0  0  0  0  0  0  0  0  0  0
  -44.1950   57.5130   64.9000 C   0  0  0  0  0  0  0  0  0  0  0  0
  -44.8100   58.5630   64.0190 C   0  0  0  0  0  0  0  0  0  0  0  0
  -43.0990   56.8650   64.4810 C   0  0  0  0  0  0  0  0  0  0  0  0
  -42.4910   57.1900   63.1360 C   0  0  0  0  0  0  0  0  0  0  0  0
  -41.4500   58.2932   63.2825 C   0  0  0  0  0  0  0  0  0  0  0  0
  -40.3407   57.8405   64.2071 C   0  0  0  0  0  0  0  0  0  0  0  0
  -38.9514   58.3630   64.0112 C   0  0  0  0  0  0  0  0  0  0  0  0
  -40.5960   56.9832   65.2065 C   0  0  0  0  0  0  0  0  0  0  0  0
  -39.5020   56.5234   66.1430 C   0  0  0  0  0  0  0  0  0  0  0  0
  -48.6352   58.0266   66.3298 H   0  0  0  0  0  0  0  0  0  0  0  0
  -47.5114   57.8148   67.6508 H   0  0  0  0  0  0  0  0  0  0  0  0
  -47.1114   57.2155   66.0590 H   0  0  0  0  0  0  0  0  0  0  0  0
  -37.5468   56.2233   66.0759 H   0  0  0  0  0  0  0  0  0  0  0  0
  -48.7899   60.0594   65.5208 H   0  0  0  0  0  0  0  0  0  0  0  0
  -47.3729   60.6554   64.6903 H   0  0  0  0  0  0  0  0  0  0  0  0
  -47.7733   61.2610   66.2796 H   0  0  0  0  0  0  0  0  0  0  0  0
  -45.2265   60.4199   66.2818 H   0  0  0  0  0  0  0  0  0  0  0  0
  -45.2340   58.1623   68.0954 H   0  0  0  0  0  0  0  0  0  0  0  0
  -43.8188   58.7827   67.2635 H   0  0  0  0  0  0  0  0  0  0  0  0
  -45.7967   56.8337   66.1141 H   0  0  0  0  0  0  0  0  0  0  0  0
  -44.1973   56.4349   66.7210 H   0  0  0  0  0  0  0  0  0  0  0  0
  -45.6701   58.9759   64.5033 H   0  0  0  0  0  0  0  0  0  0  0  0
  -45.1018   58.1219   63.0888 H   0  0  0  0  0  0  0  0  0  0  0  0
  -44.0961   59.3390   63.8373 H   0  0  0  0  0  0  0  0  0  0  0  0
  -42.6690   56.1419   65.0787 H   0  0  0  0  0  0  0  0  0  0  0  0
  -43.2615   57.5172   62.4695 H   0  0  0  0  0  0  0  0  0  0  0  0
  -42.0183   56.3132   62.7452 H   0  0  0  0  0  0  0  0  0  0  0  0
  -41.9150   59.1671   63.6887 H   0  0  0  0  0  0  0  0  0  0  0  0
  -41.0364   58.5150   62.3210 H   0  0  0  0  0  0  0  0  0  0  0  0
  -38.9356   59.0288   63.1738 H   0  0  0  0  0  0  0  0  0  0  0  0
  -38.2853   57.5456   63.8296 H   0  0  0  0  0  0  0  0  0  0  0  0
  -38.6405   58.8879   64.8902 H   0  0  0  0  0  0  0  0  0  0  0  0
  -41.5570   56.6310   65.3387 H   0  0  0  0  0  0  0  0  0  0  0  0
  -39.4516   57.1874   66.9806 H   0  0  0  0  0  0  0  0  0  0  0  0
  -39.7222   55.5308   66.4763 H   0  0  0  0  0  0  0  0  0  0  0  0
  1  3  1  0  0  0  0
  1 17  1  0  0  0  0
  1 18  1  0  0  0  0
  1 19  1  0  0  0  0
  2 16  1  0  0  0  0
  2 20  1  0  0  0  0
  3  4  1  0  0  0  0
  3  5  2  0  0  0  0
  4 21  1  0  0  0  0
  4 22  1  0  0  0  0
  4 23  1  0  0  0  0
  5  6  1  0  0  0  0
  5 24  1  0  0  0  0
  6  7  1  0  0  0  0
  6 25  1  0  0  0  0
  6 26  1  0  0  0  0
  7  8  1  0  0  0  0
  7 27  1  0  0  0  0
  7 28  1  0  0  0  0
  8  9  1  0  0  0  0
  8 10  2  0  0  0  0
  9 29  1  0  0  0  0
  9 30  1  0  0  0  0
  9 31  1  0  0  0  0
 10 11  1  0  0  0  0
 10 32  1  0  0  0  0
 11 12  1  0  0  0  0
 11 33  1  0  0  0  0
 11 34  1  0  0  0  0
 12 13  1  0  0  0  0
 12 35  1  0  0  0  0
 12 36  1  0  0  0  0
 13 14  1  0  0  0  0
 13 15  2  0  0  0  0
 14 37  1  0  0  0  0
 14 38  1  0  0  0  0
 14 39  1  0  0  0  0
 15 16  1  0  0  0  0
 15 40  1  0  0  0  0
 16 41  1  0  0  0  0
 16 42  1  0  0  0  0
M  END
$$$$
/media/chris/experiments/cd1a-new-docking/inputs/ligands/6nux_ligand.pdb
 OpenBabel07022319323D

 42 41  0  0  0  0  0  0  0  0999 V2000
  -45.8915   60.9074   65.4988 C   0  0  0  0  0  0  0  0  0  0  0  0
  -40.6497   52.4253   63.8061 O   0  0  0  0  0  0  0  0  0  0  0  0
  -44.6950   60.7137   66.3793 C   0  0  0  0  0  0  0  0  0  0  0  0
  -43.7110   61.8318   66.5496 C   0  0  0  0  0  0  0  0  0  0  0  0
  -44.5005   59.5457   67.0095 C   0  0  0  0  0  0  0  0  0  0  0  0
  -45.4852   58.4111   66.8450 C   0  0  0  0  0  0  0  0  0  0  0  0
  -44.7960   57.1870   66.2510 C   0  0  0  0  0  0  0  0  0  0  0  0
  -44.1950   57.5130   64.9000 C   0  0  0  0  0  0  0  0  0  0  0  0
  -44.8100   58.5630   64.0190 C   0  0  0  0  0  0  0  0  0  0  0  0
  -43.0990   56.8650   64.4810 C   0  0  0  0  0  0  0  0  0  0  0  0
  -42.4910   57.1900   63.1360 C   0  0  0  0  0  0  0  0  0  0  0  0
  -42.4834   55.9507   62.2493 C   0  0  0  0  0  0  0  0  0  0  0  0
  -41.6852   54.8463   62.9079 C   0  0  0  0  0  0  0  0  0  0  0  0
  -40.4823   54.2854   62.2151 C   0  0  0  0  0  0  0  0  0  0  0  0
  -42.0419   54.3746   64.1116 C   0  0  0  0  0  0  0  0  0  0  0  0
  -41.2542   53.2753   64.7872 C   0  0  0  0  0  0  0  0  0  0  0  0
  -45.8750   61.8948   65.0867 H   0  0  0  0  0  0  0  0  0  0  0  0
  -46.7834   60.7764   66.0751 H   0  0  0  0  0  0  0  0  0  0  0  0
  -45.8706   60.1895   64.7056 H   0  0  0  0  0  0  0  0  0  0  0  0
  -40.1475   51.7245   64.2507 H   0  0  0  0  0  0  0  0  0  0  0  0
  -44.0291   62.6773   65.9762 H   0  0  0  0  0  0  0  0  0  0  0  0
  -42.7472   61.5134   66.2109 H   0  0  0  0  0  0  0  0  0  0  0  0
  -43.6543   62.1027   67.5831 H   0  0  0  0  0  0  0  0  0  0  0  0
  -43.6716   59.4208   67.6115 H   0  0  0  0  0  0  0  0  0  0  0  0
  -46.2746   58.7217   66.1929 H   0  0  0  0  0  0  0  0  0  0  0  0
  -45.8799   58.1536   67.8057 H   0  0  0  0  0  0  0  0  0  0  0  0
  -45.5134   56.4015   66.1358 H   0  0  0  0  0  0  0  0  0  0  0  0
  -44.0117   56.8802   66.9110 H   0  0  0  0  0  0  0  0  0  0  0  0
  -45.6701   58.9759   64.5033 H   0  0  0  0  0  0  0  0  0  0  0  0
  -45.1018   58.1219   63.0888 H   0  0  0  0  0  0  0  0  0  0  0  0
  -44.0961   59.3390   63.8373 H   0  0  0  0  0  0  0  0  0  0  0  0
  -42.6690   56.1419   65.0787 H   0  0  0  0  0  0  0  0  0  0  0  0
  -41.4865   57.5313   63.2752 H   0  0  0  0  0  0  0  0  0  0  0  0
  -43.0738   57.9535   62.6644 H   0  0  0  0  0  0  0  0  0  0  0  0
  -42.0409   56.1930   61.3057 H   0  0  0  0  0  0  0  0  0  0  0  0
  -43.4897   55.6172   62.1041 H   0  0  0  0  0  0  0  0  0  0  0  0
  -40.3510   54.7773   61.2740 H   0  0  0  0  0  0  0  0  0  0  0  0
  -40.6205   53.2368   62.0533 H   0  0  0  0  0  0  0  0  0  0  0  0
  -39.6156   54.4413   62.8230 H   0  0  0  0  0  0  0  0  0  0  0  0
  -42.8693   54.7694   64.5855 H   0  0  0  0  0  0  0  0  0  0  0  0
  -40.4900   53.7111   65.3962 H   0  0  0  0  0  0  0  0  0  0  0  0
  -41.9166   52.6929   65.3930 H   0  0  0  0  0  0  0  0  0  0  0  0
  1  3  1  0  0  0  0
  1 17  1  0  0  0  0
  1 18  1  0  0  0  0
  1 19  1  0  0  0  0
  2 16  1  0  0  0  0
  2 20  1  0  0  0  0
  3  4  1  0  0  0  0
  3  5  2  0  0  0  0
  4 21  1  0  0  0  0
  4 22  1  0  0  0  0
  4 23  1  0  0  0  0
  5  6  1  0  0  0  0
  5 24  1  0  0  0  0
  6  7  1  0  0  0  0
  6 25  1  0  0  0  0
  6 26  1  0  0  0  0
  7  8  1  0  0  0  0
  7 27  1  0  0  0  0
  7 28  1  0  0  0  0
  8  9  1  0  0  0  0
  8 10  2  0  0  0  0
  9 29  1  0  0  0  0
  9 30  1  0  0  0  0
  9 31  1  0  0  0  0
 10 11  1  0  0  0  0
 10 32  1  0  0  0  0
 11 12  1  0  0  0  0
 11 33  1  0  0  0  0
 11 34  1  0  0  0  0
 12 13  1  0  0  0  0
 12 35  1  0  0  0  0
 12 36  1  0  0  0  0
 13 14  1  0  0  0  0
 13 15  2  0  0  0  0
 14 37  1  0  0  0  0
 14 38  1  0  0  0  0
 14 39  1  0  0  0  0
 15 16  1  0  0  0  0
 15 40  1  0  0  0  0
 16 41  1  0  0  0  0
 16 42  1  0  0  0  0
M  END
$$$$
