/media/chris/experiments/cd1a-new-docking/inputs/ligands/6nux_ligand.pdb
 OpenBabel07022319323D

 42 41  0  0  0  0  0  0  0  0999 V2000
  -41.6189   55.4845   68.7299 C   0  0  0  0  0  0  0  0  0  0  0  0
  -39.6782   60.3632   66.7349 O   0  0  0  0  0  0  0  0  0  0  0  0
  -42.0304   54.9208   67.4042 C   0  0  0  0  0  0  0  0  0  0  0  0
  -41.3370   53.7044   66.8685 C   0  0  0  0  0  0  0  0  0  0  0  0
  -43.0105   55.5019   66.6965 C   0  0  0  0  0  0  0  0  0  0  0  0
  -43.7163   56.7289   67.2260 C   0  0  0  0  0  0  0  0  0  0  0  0
  -44.7960   57.1870   66.2510 C   0  0  0  0  0  0  0  0  0  0  0  0
  -44.1950   57.5130   64.9000 C   0  0  0  0  0  0  0  0  0  0  0  0
  -44.8100   58.5630   64.0190 C   0  0  0  0  0  0  0  0  0  0  0  0
  -43.0990   56.8650   64.4810 C   0  0  0  0  0  0  0  0  0  0  0  0
  -42.4910   57.1900   63.1360 C   0  0  0  0  0  0  0  0  0  0  0  0
  -41.0574   57.6762   63.3109 C   0  0  0  0  0  0  0  0  0  0  0  0
  -41.0312   58.9108   64.1856 C   0  0  0  0  0  0  0  0  0  0  0  0
  -42.3122   59.4621   64.7302 C   0  0  0  0  0  0  0  0  0  0  0  0
  -39.8679   59.5077   64.4847 C   0  0  0  0  0  0  0  0  0  0  0  0
  -39.8215   60.7389   65.3606 C   0  0  0  0  0  0  0  0  0  0  0  0
  -40.8291   54.8907   69.1404 H   0  0  0  0  0  0  0  0  0  0  0  0
  -42.4557   55.4752   69.3967 H   0  0  0  0  0  0  0  0  0  0  0  0
  -41.2780   56.4904   68.5994 H   0  0  0  0  0  0  0  0  0  0  0  0
  -39.6495   61.1604   67.2867 H   0  0  0  0  0  0  0  0  0  0  0  0
  -40.5905   53.3837   67.5647 H   0  0  0  0  0  0  0  0  0  0  0  0
  -40.8744   53.9405   65.9330 H   0  0  0  0  0  0  0  0  0  0  0  0
  -42.0513   52.9207   66.7254 H   0  0  0  0  0  0  0  0  0  0  0  0
  -43.2848   55.1079   65.7830 H   0  0  0  0  0  0  0  0  0  0  0  0
  -43.0035   57.5161   67.3571 H   0  0  0  0  0  0  0  0  0  0  0  0
  -44.1754   56.4871   68.1618 H   0  0  0  0  0  0  0  0  0  0  0  0
  -45.2747   58.0603   66.6422 H   0  0  0  0  0  0  0  0  0  0  0  0
  -45.5068   56.3965   66.1292 H   0  0  0  0  0  0  0  0  0  0  0  0
  -45.6701   58.9759   64.5033 H   0  0  0  0  0  0  0  0  0  0  0  0
  -45.1018   58.1219   63.0888 H   0  0  0  0  0  0  0  0  0  0  0  0
  -44.0961   59.3390   63.8373 H   0  0  0  0  0  0  0  0  0  0  0  0
  -42.6690   56.1419   65.0787 H   0  0  0  0  0  0  0  0  0  0  0  0
  -43.0688   57.9561   62.6626 H   0  0  0  0  0  0  0  0  0  0  0  0
  -42.4893   56.3075   62.5309 H   0  0  0  0  0  0  0  0  0  0  0  0
  -40.6442   57.9123   62.3526 H   0  0  0  0  0  0  0  0  0  0  0  0
  -40.4798   56.9047   63.7758 H   0  0  0  0  0  0  0  0  0  0  0  0
  -43.1312   58.8632   64.3904 H   0  0  0  0  0  0  0  0  0  0  0  0
  -42.4408   60.4683   64.3896 H   0  0  0  0  0  0  0  0  0  0  0  0
  -42.2802   59.4489   65.7996 H   0  0  0  0  0  0  0  0  0  0  0  0
  -38.9883   59.1193   64.1099 H   0  0  0  0  0  0  0  0  0  0  0  0
  -38.9896   61.3468   65.0718 H   0  0  0  0  0  0  0  0  0  0  0  0
  -40.7330   61.2865   65.2417 H   0  0  0  0  0  0  0  0  0  0  0  0
  1  3  1  0  0  0  0
  1 17  1  0  0  0  0
  1 18  1  0  0  0  0
  1 19  1  0  0  0  0
  2 16  1  0  0  0  0
  2 20  1  0  0  0  0
  3  4  1  0  0  0  0
  3  5  2  0  0  0  0
  4 21  1  0  0  0  0
  4 22  1  0  0  0  0
  4 23  1  0  0  0  0
  5  6  1  0  0  0  0
  5 24  1  0  0  0  0
  6  7  1  0  0  0  0
  6 25  1  0  0  0  0
  6 26  1  0  0  0  0
  7  8  1  0  0  0  0
  7 27  1  0  0  0  0
  7 28  1  0  0  0  0
  8  9  1  0  0  0  0
  8 10  2  0  0  0  0
  9 29  1  0  0  0  0
  9 30  1  0  0  0  0
  9 31  1  0  0  0  0
 10 11  1  0  0  0  0
 10 32  1  0  0  0  0
 11 12  1  0  0  0  0
 11 33  1  0  0  0  0
 11 34  1  0  0  0  0
 12 13  1  0  0  0  0
 12 35  1  0  0  0  0
 12 36  1  0  0  0  0
 13 14  1  0  0  0  0
 13 15  2  0  0  0  0
 14 37  1  0  0  0  0
 14 38  1  0  0  0  0
 14 39  1  0  0  0  0
 15 16  1  0  0  0  0
 15 40  1  0  0  0  0
 16 41  1  0  0  0  0
 16 42  1  0  0  0  0
M  END
$$$$