/media/chris/experiments/cd1a-new-docking/inputs/ligands/6nux_ligand.pdb
 OpenBabel07022319323D

 42 41  0  0  0  0  0  0  0  0999 V2000
  -44.3214   56.4464   68.5347 C   0  0  0  0  0  0  0  0  0  0  0  0
  -39.9440   55.9033   58.6641 O   0  0  0  0  0  0  0  0  0  0  0  0
  -45.7303   55.9410   68.6006 C   0  0  0  0  0  0  0  0  0  0  0  0
  -46.3448   55.6300   69.9321 C   0  0  0  0  0  0  0  0  0  0  0  0
  -46.4385   55.7627   67.4756 C   0  0  0  0  0  0  0  0  0  0  0  0
  -45.8295   56.0722   66.1275 C   0  0  0  0  0  0  0  0  0  0  0  0
  -44.7960   57.1870   66.2510 C   0  0  0  0  0  0  0  0  0  0  0  0
  -44.1950   57.5130   64.9000 C   0  0  0  0  0  0  0  0  0  0  0  0
  -44.8100   58.5630   64.0190 C   0  0  0  0  0  0  0  0  0  0  0  0
  -43.0990   56.8650   64.4810 C   0  0  0  0  0  0  0  0  0  0  0  0
  -42.4910   57.1900   63.1360 C   0  0  0  0  0  0  0  0  0  0  0  0
  -42.4834   55.9507   62.2493 C   0  0  0  0  0  0  0  0  0  0  0  0
  -41.8584   56.2748   60.9097 C   0  0  0  0  0  0  0  0  0  0  0  0
  -42.6586   56.1029   59.6561 C   0  0  0  0  0  0  0  0  0  0  0  0
  -40.5969   56.7247   60.8391 C   0  0  0  0  0  0  0  0  0  0  0  0
  -39.9572   57.0582   59.5106 C   0  0  0  0  0  0  0  0  0  0  0  0
  -43.9234   56.5232   69.5250 H   0  0  0  0  0  0  0  0  0  0  0  0
  -44.3095   57.4100   68.0698 H   0  0  0  0  0  0  0  0  0  0  0  0
  -43.7251   55.7669   67.9624 H   0  0  0  0  0  0  0  0  0  0  0  0
  -39.5317   56.1291   57.8156 H   0  0  0  0  0  0  0  0  0  0  0  0
  -45.6361   55.8321   70.7080 H   0  0  0  0  0  0  0  0  0  0  0  0
  -46.6236   54.5975   69.9639 H   0  0  0  0  0  0  0  0  0  0  0  0
  -47.2133   56.2385   70.0750 H   0  0  0  0  0  0  0  0  0  0  0  0
  -47.4073   55.4113   67.5310 H   0  0  0  0  0  0  0  0  0  0  0  0
  -46.6020   56.3813   65.4548 H   0  0  0  0  0  0  0  0  0  0  0  0
  -45.3467   55.1926   65.7559 H   0  0  0  0  0  0  0  0  0  0  0  0
  -44.0179   56.8724   66.9147 H   0  0  0  0  0  0  0  0  0  0  0  0
  -45.2787   58.0624   66.6326 H   0  0  0  0  0  0  0  0  0  0  0  0
  -45.6701   58.9759   64.5033 H   0  0  0  0  0  0  0  0  0  0  0  0
  -45.1018   58.1219   63.0888 H   0  0  0  0  0  0  0  0  0  0  0  0
  -44.0961   59.3390   63.8373 H   0  0  0  0  0  0  0  0  0  0  0  0
  -42.6690   56.1419   65.0787 H   0  0  0  0  0  0  0  0  0  0  0  0
  -41.4865   57.5313   63.2752 H   0  0  0  0  0  0  0  0  0  0  0  0
  -43.0738   57.9535   62.6644 H   0  0  0  0  0  0  0  0  0  0  0  0
  -43.4887   55.6164   62.0994 H   0  0  0  0  0  0  0  0  0  0  0  0
  -41.9120   55.1819   62.7261 H   0  0  0  0  0  0  0  0  0  0  0  0
  -43.6339   55.7382   59.9027 H   0  0  0  0  0  0  0  0  0  0  0  0
  -42.1681   55.4024   59.0130 H   0  0  0  0  0  0  0  0  0  0  0  0
  -42.7459   57.0451   59.1567 H   0  0  0  0  0  0  0  0  0  0  0  0
  -40.0528   56.8455   61.7077 H   0  0  0  0  0  0  0  0  0  0  0  0
  -40.5150   57.8381   59.0357 H   0  0  0  0  0  0  0  0  0  0  0  0
  -38.9505   57.3792   59.6787 H   0  0  0  0  0  0  0  0  0  0  0  0
  1  3  1  0  0  0  0
  1 17  1  0  0  0  0
  1 18  1  0  0  0  0
  1 19  1  0  0  0  0
  2 16  1  0  0  0  0
  2 20  1  0  0  0  0
  3  4  1  0  0  0  0
  3  5  2  0  0  0  0
  4 21  1  0  0  0  0
  4 22  1  0  0  0  0
  4 23  1  0  0  0  0
  5  6  1  0  0  0  0
  5 24  1  0  0  0  0
  6  7  1  0  0  0  0
  6 25  1  0  0  0  0
  6 26  1  0  0  0  0
  7  8  1  0  0  0  0
  7 27  1  0  0  0  0
  7 28  1  0  0  0  0
  8  9  1  0  0  0  0
  8 10  2  0  0  0  0
  9 29  1  0  0  0  0
  9 30  1  0  0  0  0
  9 31  1  0  0  0  0
 10 11  1  0  0  0  0
 10 32  1  0  0  0  0
 11 12  1  0  0  0  0
 11 33  1  0  0  0  0
 11 34  1  0  0  0  0
 12 13  1  0  0  0  0
 12 35  1  0  0  0  0
 12 36  1  0  0  0  0
 13 14  1  0  0  0  0
 13 15  2  0  0  0  0
 14 37  1  0  0  0  0
 14 38  1  0  0  0  0
 14 39  1  0  0  0  0
 15 16  1  0  0  0  0
 15 40  1  0  0  0  0
 16 41  1  0  0  0  0
 16 42  1  0  0  0  0
M  END
$$$$