/media/chris/experiments/cd1a-new-docking/inputs/ligands/6nux_ligand.pdb
 OpenBabel07022319323D

 42 41  0  0  0  0  0  0  0  0999 V2000
  -48.5179   59.4615   66.5847 C   0  0  0  0  0  0  0  0  0  0  0  0
  -38.9948   58.1057   59.6740 O   0  0  0  0  0  0  0  0  0  0  0  0
  -48.2503   58.4606   65.5025 C   0  0  0  0  0  0  0  0  0  0  0  0
  -49.2938   58.2013   64.4580 C   0  0  0  0  0  0  0  0  0  0  0  0
  -47.0859   57.7956   65.4686 C   0  0  0  0  0  0  0  0  0  0  0  0
  -46.0265   58.0480   66.5166 C   0  0  0  0  0  0  0  0  0  0  0  0
  -44.7960   57.1870   66.2510 C   0  0  0  0  0  0  0  0  0  0  0  0
  -44.1950   57.5130   64.9000 C   0  0  0  0  0  0  0  0  0  0  0  0
  -44.8100   58.5630   64.0190 C   0  0  0  0  0  0  0  0  0  0  0  0
  -43.0990   56.8650   64.4810 C   0  0  0  0  0  0  0  0  0  0  0  0
  -42.4910   57.1900   63.1360 C   0  0  0  0  0  0  0  0  0  0  0  0
  -42.4834   55.9507   62.2493 C   0  0  0  0  0  0  0  0  0  0  0  0
  -41.8584   56.2748   60.9097 C   0  0  0  0  0  0  0  0  0  0  0  0
  -42.6586   56.1029   59.6561 C   0  0  0  0  0  0  0  0  0  0  0  0
  -40.5969   56.7247   60.8391 C   0  0  0  0  0  0  0  0  0  0  0  0
  -39.9572   57.0582   59.5106 C   0  0  0  0  0  0  0  0  0  0  0  0
  -49.4906   59.8852   66.4460 H   0  0  0  0  0  0  0  0  0  0  0  0
  -47.7818   60.2369   66.5434 H   0  0  0  0  0  0  0  0  0  0  0  0
  -48.4725   58.9770   67.5377 H   0  0  0  0  0  0  0  0  0  0  0  0
  -38.5914   58.3110   58.8161 H   0  0  0  0  0  0  0  0  0  0  0  0
  -50.1475   58.8185   64.6457 H   0  0  0  0  0  0  0  0  0  0  0  0
  -49.5838   57.1718   64.4913 H   0  0  0  0  0  0  0  0  0  0  0  0
  -48.8951   58.4284   63.4913 H   0  0  0  0  0  0  0  0  0  0  0  0
  -46.9120   57.1059   64.7209 H   0  0  0  0  0  0  0  0  0  0  0  0
  -46.4219   57.8089   67.4817 H   0  0  0  0  0  0  0  0  0  0  0  0
  -45.7420   59.0788   66.4794 H   0  0  0  0  0  0  0  0  0  0  0  0
  -45.0788   56.1552   66.2697 H   0  0  0  0  0  0  0  0  0  0  0  0
  -44.0671   57.3864   67.0085 H   0  0  0  0  0  0  0  0  0  0  0  0
  -45.6701   58.9759   64.5033 H   0  0  0  0  0  0  0  0  0  0  0  0
  -45.1018   58.1219   63.0888 H   0  0  0  0  0  0  0  0  0  0  0  0
  -44.0961   59.3390   63.8373 H   0  0  0  0  0  0  0  0  0  0  0  0
  -42.6690   56.1419   65.0787 H   0  0  0  0  0  0  0  0  0  0  0  0
  -41.4865   57.5313   63.2752 H   0  0  0  0  0  0  0  0  0  0  0  0
  -43.0738   57.9535   62.6644 H   0  0  0  0  0  0  0  0  0  0  0  0
  -43.4887   55.6164   62.0994 H   0  0  0  0  0  0  0  0  0  0  0  0
  -41.9120   55.1819   62.7261 H   0  0  0  0  0  0  0  0  0  0  0  0
  -43.6339   55.7382   59.9027 H   0  0  0  0  0  0  0  0  0  0  0  0
  -42.1681   55.4024   59.0130 H   0  0  0  0  0  0  0  0  0  0  0  0
  -42.7459   57.0451   59.1567 H   0  0  0  0  0  0  0  0  0  0  0  0
  -40.0528   56.8455   61.7077 H   0  0  0  0  0  0  0  0  0  0  0  0
  -39.4697   56.1874   59.1246 H   0  0  0  0  0  0  0  0  0  0  0  0
  -40.7158   57.3842   58.8300 H   0  0  0  0  0  0  0  0  0  0  0  0
  1  3  1  0  0  0  0
  1 17  1  0  0  0  0
  1 18  1  0  0  0  0
  1 19  1  0  0  0  0
  2 16  1  0  0  0  0
  2 20  1  0  0  0  0
  3  4  1  0  0  0  0
  3  5  2  0  0  0  0
  4 21  1  0  0  0  0
  4 22  1  0  0  0  0
  4 23  1  0  0  0  0
  5  6  1  0  0  0  0
  5 24  1  0  0  0  0
  6  7  1  0  0  0  0
  6 25  1  0  0  0  0
  6 26  1  0  0  0  0
  7  8  1  0  0  0  0
  7 27  1  0  0  0  0
  7 28  1  0  0  0  0
  8  9  1  0  0  0  0
  8 10  2  0  0  0  0
  9 29  1  0  0  0  0
  9 30  1  0  0  0  0
  9 31  1  0  0  0  0
 10 11  1  0  0  0  0
 10 32  1  0  0  0  0
 11 12  1  0  0  0  0
 11 33  1  0  0  0  0
 11 34  1  0  0  0  0
 12 13  1  0  0  0  0
 12 35  1  0  0  0  0
 12 36  1  0  0  0  0
 13 14  1  0  0  0  0
 13 15  2  0  0  0  0
 14 37  1  0  0  0  0
 14 38  1  0  0  0  0
 14 39  1  0  0  0  0
 15 16  1  0  0  0  0
 15 40  1  0  0  0  0
 16 41  1  0  0  0  0
 16 42  1  0  0  0  0
M  END
$$$$