/media/chris/experiments/cd1a-new-docking/inputs/ligands/6nux_ligand.pdb
 OpenBabel07022319323D

 42 41  0  0  0  0  0  0  0  0999 V2000
  -45.5200   52.8734   66.3286 C   0  0  0  0  0  0  0  0  0  0  0  0
  -41.4033   56.6073   58.1686 O   0  0  0  0  0  0  0  0  0  0  0  0
  -44.1688   53.4852   66.1176 C   0  0  0  0  0  0  0  0  0  0  0  0
  -42.9769   52.5986   65.9162 C   0  0  0  0  0  0  0  0  0  0  0  0
  -44.0229   54.8186   66.1129 C   0  0  0  0  0  0  0  0  0  0  0  0
  -45.2171   55.7225   66.3155 C   0  0  0  0  0  0  0  0  0  0  0  0
  -44.7960   57.1870   66.2510 C   0  0  0  0  0  0  0  0  0  0  0  0
  -44.1950   57.5130   64.9000 C   0  0  0  0  0  0  0  0  0  0  0  0
  -44.8100   58.5630   64.0190 C   0  0  0  0  0  0  0  0  0  0  0  0
  -43.0990   56.8650   64.4810 C   0  0  0  0  0  0  0  0  0  0  0  0
  -42.4910   57.1900   63.1360 C   0  0  0  0  0  0  0  0  0  0  0  0
  -41.2715   56.3116   62.8844 C   0  0  0  0  0  0  0  0  0  0  0  0
  -40.6547   56.6512   61.5448 C   0  0  0  0  0  0  0  0  0  0  0  0
  -39.1804   56.4859   61.3430 C   0  0  0  0  0  0  0  0  0  0  0  0
  -41.4210   57.0890   60.5349 C   0  0  0  0  0  0  0  0  0  0  0  0
  -40.8237   57.4286   59.1884 C   0  0  0  0  0  0  0  0  0  0  0  0
  -45.4372   51.8070   66.2999 H   0  0  0  0  0  0  0  0  0  0  0  0
  -46.1843   53.2005   65.5561 H   0  0  0  0  0  0  0  0  0  0  0  0
  -45.9037   53.1758   67.2806 H   0  0  0  0  0  0  0  0  0  0  0  0
  -41.0128   56.8339   57.3101 H   0  0  0  0  0  0  0  0  0  0  0  0
  -43.2843   51.5743   65.9508 H   0  0  0  0  0  0  0  0  0  0  0  0
  -42.2609   52.7825   66.6897 H   0  0  0  0  0  0  0  0  0  0  0  0
  -42.5347   52.8063   64.9642 H   0  0  0  0  0  0  0  0  0  0  0  0
  -43.0876   55.2305   65.9697 H   0  0  0  0  0  0  0  0  0  0  0  0
  -45.6513   55.5229   67.2729 H   0  0  0  0  0  0  0  0  0  0  0  0
  -45.9298   55.5331   65.5403 H   0  0  0  0  0  0  0  0  0  0  0  0
  -44.0698   57.3774   67.0135 H   0  0  0  0  0  0  0  0  0  0  0  0
  -45.6604   57.8000   66.3995 H   0  0  0  0  0  0  0  0  0  0  0  0
  -45.6701   58.9759   64.5033 H   0  0  0  0  0  0  0  0  0  0  0  0
  -45.1018   58.1219   63.0888 H   0  0  0  0  0  0  0  0  0  0  0  0
  -44.0961   59.3390   63.8373 H   0  0  0  0  0  0  0  0  0  0  0  0
  -42.6690   56.1419   65.0787 H   0  0  0  0  0  0  0  0  0  0  0  0
  -42.1953   58.2182   63.1208 H   0  0  0  0  0  0  0  0  0  0  0  0
  -43.2168   57.0076   62.3712 H   0  0  0  0  0  0  0  0  0  0  0  0
  -41.5688   55.2837   62.8869 H   0  0  0  0  0  0  0  0  0  0  0  0
  -40.5504   56.4833   63.6561 H   0  0  0  0  0  0  0  0  0  0  0  0
  -38.7341   56.1309   62.2484 H   0  0  0  0  0  0  0  0  0  0  0  0
  -38.7487   57.4284   61.0782 H   0  0  0  0  0  0  0  0  0  0  0  0
  -39.0048   55.7801   60.5582 H   0  0  0  0  0  0  0  0  0  0  0  0
  -42.4372   57.1958   60.6796 H   0  0  0  0  0  0  0  0  0  0  0  0
  -41.0164   58.4573   58.9656 H   0  0  0  0  0  0  0  0  0  0  0  0
  -39.7687   57.2531   59.2202 H   0  0  0  0  0  0  0  0  0  0  0  0
  1  3  1  0  0  0  0
  1 17  1  0  0  0  0
  1 18  1  0  0  0  0
  1 19  1  0  0  0  0
  2 16  1  0  0  0  0
  2 20  1  0  0  0  0
  3  4  1  0  0  0  0
  3  5  2  0  0  0  0
  4 21  1  0  0  0  0
  4 22  1  0  0  0  0
  4 23  1  0  0  0  0
  5  6  1  0  0  0  0
  5 24  1  0  0  0  0
  6  7  1  0  0  0  0
  6 25  1  0  0  0  0
  6 26  1  0  0  0  0
  7  8  1  0  0  0  0
  7 27  1  0  0  0  0
  7 28  1  0  0  0  0
  8  9  1  0  0  0  0
  8 10  2  0  0  0  0
  9 29  1  0  0  0  0
  9 30  1  0  0  0  0
  9 31  1  0  0  0  0
 10 11  1  0  0  0  0
 10 32  1  0  0  0  0
 11 12  1  0  0  0  0
 11 33  1  0  0  0  0
 11 34  1  0  0  0  0
 12 13  1  0  0  0  0
 12 35  1  0  0  0  0
 12 36  1  0  0  0  0
 13 14  1  0  0  0  0
 13 15  2  0  0  0  0
 14 37  1  0  0  0  0
 14 38  1  0  0  0  0
 14 39  1  0  0  0  0
 15 16  1  0  0  0  0
 15 40  1  0  0  0  0
 16 41  1  0  0  0  0
 16 42  1  0  0  0  0
M  END
$$$$