/media/chris/experiments/cd1a-new-docking/inputs/ligands/6nux_ligand.pdb
 OpenBabel07022319323D

 42 41  0  0  0  0  0  0  0  0999 V2000
  -43.4462   58.4245   68.5513 C   0  0  0  0  0  0  0  0  0  0  0  0
  -47.6355   56.0167   60.4028 O   0  0  0  0  0  0  0  0  0  0  0  0
  -42.3168   57.6579   67.9337 C   0  0  0  0  0  0  0  0  0  0  0  0
  -40.9051   58.1123   68.1526 C   0  0  0  0  0  0  0  0  0  0  0  0
  -42.5650   56.5731   67.1848 C   0  0  0  0  0  0  0  0  0  0  0  0
  -43.9840   56.1057   66.9565 C   0  0  0  0  0  0  0  0  0  0  0  0
  -44.7960   57.1870   66.2510 C   0  0  0  0  0  0  0  0  0  0  0  0
  -44.1950   57.5130   64.9000 C   0  0  0  0  0  0  0  0  0  0  0  0
  -44.8100   58.5630   64.0190 C   0  0  0  0  0  0  0  0  0  0  0  0
  -43.0990   56.8650   64.4810 C   0  0  0  0  0  0  0  0  0  0  0  0
  -42.4910   57.1900   63.1360 C   0  0  0  0  0  0  0  0  0  0  0  0
  -43.5718   57.6613   62.1707 C   0  0  0  0  0  0  0  0  0  0  0  0
  -44.6212   56.5842   62.0006 C   0  0  0  0  0  0  0  0  0  0  0  0
  -44.9013   55.6364   63.1252 C   0  0  0  0  0  0  0  0  0  0  0  0
  -45.3088   56.4798   60.8538 C   0  0  0  0  0  0  0  0  0  0  0  0
  -46.3640   55.4136   60.6671 C   0  0  0  0  0  0  0  0  0  0  0  0
  -43.0545   59.2503   69.1077 H   0  0  0  0  0  0  0  0  0  0  0  0
  -43.9970   57.7823   69.2064 H   0  0  0  0  0  0  0  0  0  0  0  0
  -44.0936   58.7884   67.7811 H   0  0  0  0  0  0  0  0  0  0  0  0
  -48.3039   55.3237   60.2849 H   0  0  0  0  0  0  0  0  0  0  0  0
  -40.9034   58.9861   68.7702 H   0  0  0  0  0  0  0  0  0  0  0  0
  -40.4538   58.3411   67.2098 H   0  0  0  0  0  0  0  0  0  0  0  0
  -40.3505   57.3342   68.6341 H   0  0  0  0  0  0  0  0  0  0  0  0
  -41.7806   56.0534   66.7610 H   0  0  0  0  0  0  0  0  0  0  0  0
  -44.4377   55.8840   67.8999 H   0  0  0  0  0  0  0  0  0  0  0  0
  -43.9652   55.2305   66.3412 H   0  0  0  0  0  0  0  0  0  0  0  0
  -44.8032   58.0706   66.8545 H   0  0  0  0  0  0  0  0  0  0  0  0
  -45.7934   56.8279   66.1058 H   0  0  0  0  0  0  0  0  0  0  0  0
  -45.6701   58.9759   64.5033 H   0  0  0  0  0  0  0  0  0  0  0  0
  -45.1018   58.1219   63.0888 H   0  0  0  0  0  0  0  0  0  0  0  0
  -44.0961   59.3390   63.8373 H   0  0  0  0  0  0  0  0  0  0  0  0
  -42.6690   56.1419   65.0787 H   0  0  0  0  0  0  0  0  0  0  0  0
  -42.0205   56.3145   62.7398 H   0  0  0  0  0  0  0  0  0  0  0  0
  -41.7680   57.9692   63.2585 H   0  0  0  0  0  0  0  0  0  0  0  0
  -43.1288   57.8771   61.2209 H   0  0  0  0  0  0  0  0  0  0  0  0
  -44.0341   58.5421   62.5647 H   0  0  0  0  0  0  0  0  0  0  0  0
  -44.2638   55.8670   63.9531 H   0  0  0  0  0  0  0  0  0  0  0  0
  -44.7163   54.6336   62.8010 H   0  0  0  0  0  0  0  0  0  0  0  0
  -45.9239   55.7313   63.4253 H   0  0  0  0  0  0  0  0  0  0  0  0
  -45.1140   57.1397   60.0846 H   0  0  0  0  0  0  0  0  0  0  0  0
  -46.0918   54.7874   59.8433 H   0  0  0  0  0  0  0  0  0  0  0  0
  -46.4334   54.8307   61.5618 H   0  0  0  0  0  0  0  0  0  0  0  0
  1  3  1  0  0  0  0
  1 17  1  0  0  0  0
  1 18  1  0  0  0  0
  1 19  1  0  0  0  0
  2 16  1  0  0  0  0
  2 20  1  0  0  0  0
  3  4  1  0  0  0  0
  3  5  2  0  0  0  0
  4 21  1  0  0  0  0
  4 22  1  0  0  0  0
  4 23  1  0  0  0  0
  5  6  1  0  0  0  0
  5 24  1  0  0  0  0
  6  7  1  0  0  0  0
  6 25  1  0  0  0  0
  6 26  1  0  0  0  0
  7  8  1  0  0  0  0
  7 27  1  0  0  0  0
  7 28  1  0  0  0  0
  8  9  1  0  0  0  0
  8 10  2  0  0  0  0
  9 29  1  0  0  0  0
  9 30  1  0  0  0  0
  9 31  1  0  0  0  0
 10 11  1  0  0  0  0
 10 32  1  0  0  0  0
 11 12  1  0  0  0  0
 11 33  1  0  0  0  0
 11 34  1  0  0  0  0
 12 13  1  0  0  0  0
 12 35  1  0  0  0  0
 12 36  1  0  0  0  0
 13 14  1  0  0  0  0
 13 15  2  0  0  0  0
 14 37  1  0  0  0  0
 14 38  1  0  0  0  0
 14 39  1  0  0  0  0
 15 16  1  0  0  0  0
 15 40  1  0  0  0  0
 16 41  1  0  0  0  0
 16 42  1  0  0  0  0
M  END
$$$$