/media/chris/experiments/cd1a-new-docking/inputs/ligands/6nux_ligand.pdb
 OpenBabel07022319323D

 42 41  0  0  0  0  0  0  0  0999 V2000
  -43.5995   54.8256   68.5199 C   0  0  0  0  0  0  0  0  0  0  0  0
  -43.8812   58.9608   57.6365 O   0  0  0  0  0  0  0  0  0  0  0  0
  -42.4670   55.3715   67.7050 C   0  0  0  0  0  0  0  0  0  0  0  0
  -41.2349   54.5427   67.4992 C   0  0  0  0  0  0  0  0  0  0  0  0
  -42.5506   56.5966   67.1652 C   0  0  0  0  0  0  0  0  0  0  0  0
  -43.7874   57.4416   67.3664 C   0  0  0  0  0  0  0  0  0  0  0  0
  -44.7960   57.1870   66.2510 C   0  0  0  0  0  0  0  0  0  0  0  0
  -44.1950   57.5130   64.9000 C   0  0  0  0  0  0  0  0  0  0  0  0
  -44.8100   58.5630   64.0190 C   0  0  0  0  0  0  0  0  0  0  0  0
  -43.0990   56.8650   64.4810 C   0  0  0  0  0  0  0  0  0  0  0  0
  -42.4910   57.1900   63.1360 C   0  0  0  0  0  0  0  0  0  0  0  0
  -43.5718   57.6613   62.1707 C   0  0  0  0  0  0  0  0  0  0  0  0
  -42.9628   57.9693   60.8199 C   0  0  0  0  0  0  0  0  0  0  0  0
  -41.7456   57.2245   60.3672 C   0  0  0  0  0  0  0  0  0  0  0  0
  -43.5121   58.8970   60.0220 C   0  0  0  0  0  0  0  0  0  0  0  0
  -42.9207   59.2150   58.6676 C   0  0  0  0  0  0  0  0  0  0  0  0
  -43.3506   53.8433   68.8635 H   0  0  0  0  0  0  0  0  0  0  0  0
  -44.4826   54.7797   67.9175 H   0  0  0  0  0  0  0  0  0  0  0  0
  -43.7740   55.4640   69.3607 H   0  0  0  0  0  0  0  0  0  0  0  0
  -43.4910   59.1681   56.7729 H   0  0  0  0  0  0  0  0  0  0  0  0
  -41.3489   53.6038   67.9995 H   0  0  0  0  0  0  0  0  0  0  0  0
  -40.3870   55.0590   67.8986 H   0  0  0  0  0  0  0  0  0  0  0  0
  -41.0893   54.3739   66.4527 H   0  0  0  0  0  0  0  0  0  0  0  0
  -41.7640   56.9651   66.6080 H   0  0  0  0  0  0  0  0  0  0  0  0
  -43.5118   58.4755   67.3625 H   0  0  0  0  0  0  0  0  0  0  0  0
  -44.2348   57.1825   68.3031 H   0  0  0  0  0  0  0  0  0  0  0  0
  -45.6574   57.8016   66.4096 H   0  0  0  0  0  0  0  0  0  0  0  0
  -45.0697   56.1527   66.2648 H   0  0  0  0  0  0  0  0  0  0  0  0
  -45.6701   58.9759   64.5033 H   0  0  0  0  0  0  0  0  0  0  0  0
  -45.1018   58.1219   63.0888 H   0  0  0  0  0  0  0  0  0  0  0  0
  -44.0961   59.3390   63.8373 H   0  0  0  0  0  0  0  0  0  0  0  0
  -42.6690   56.1419   65.0787 H   0  0  0  0  0  0  0  0  0  0  0  0
  -42.0205   56.3145   62.7398 H   0  0  0  0  0  0  0  0  0  0  0  0
  -41.7680   57.9692   63.2585 H   0  0  0  0  0  0  0  0  0  0  0  0
  -44.0342   58.5441   62.5603 H   0  0  0  0  0  0  0  0  0  0  0  0
  -44.3026   56.8878   62.0577 H   0  0  0  0  0  0  0  0  0  0  0  0
  -41.4494   56.5305   61.1258 H   0  0  0  0  0  0  0  0  0  0  0  0
  -40.9501   57.9170   60.1871 H   0  0  0  0  0  0  0  0  0  0  0  0
  -41.9673   56.6936   59.4650 H   0  0  0  0  0  0  0  0  0  0  0  0
  -44.3540   59.4030   60.3386 H   0  0  0  0  0  0  0  0  0  0  0  0
  -42.6365   60.2461   58.6394 H   0  0  0  0  0  0  0  0  0  0  0  0
  -42.0636   58.5951   58.5068 H   0  0  0  0  0  0  0  0  0  0  0  0
  1  3  1  0  0  0  0
  1 17  1  0  0  0  0
  1 18  1  0  0  0  0
  1 19  1  0  0  0  0
  2 16  1  0  0  0  0
  2 20  1  0  0  0  0
  3  4  1  0  0  0  0
  3  5  2  0  0  0  0
  4 21  1  0  0  0  0
  4 22  1  0  0  0  0
  4 23  1  0  0  0  0
  5  6  1  0  0  0  0
  5 24  1  0  0  0  0
  6  7  1  0  0  0  0
  6 25  1  0  0  0  0
  6 26  1  0  0  0  0
  7  8  1  0  0  0  0
  7 27  1  0  0  0  0
  7 28  1  0  0  0  0
  8  9  1  0  0  0  0
  8 10  2  0  0  0  0
  9 29  1  0  0  0  0
  9 30  1  0  0  0  0
  9 31  1  0  0  0  0
 10 11  1  0  0  0  0
 10 32  1  0  0  0  0
 11 12  1  0  0  0  0
 11 33  1  0  0  0  0
 11 34  1  0  0  0  0
 12 13  1  0  0  0  0
 12 35  1  0  0  0  0
 12 36  1  0  0  0  0
 13 14  1  0  0  0  0
 13 15  2  0  0  0  0
 14 37  1  0  0  0  0
 14 38  1  0  0  0  0
 14 39  1  0  0  0  0
 15 16  1  0  0  0  0
 15 40  1  0  0  0  0
 16 41  1  0  0  0  0
 16 42  1  0  0  0  0
M  END
$$$$