/media/chris/experiments/cd1a-new-docking/inputs/ligands/4x6d_2_ligand.pdb


 19 18  0  0  0  0  0  0  0  0999 V2000
  -46.7911   60.6362   65.4806 C   0  0  0  0  0  0  0  0  0  0  0  0
  -45.6415   59.6662   65.7158 C   0  0  0  0  0  0  0  0  0  0  0  0
  -44.3285   60.1697   65.1408 C   0  0  0  0  0  0  0  0  0  0  0  0
  -43.2666   59.0862   65.2317 C   0  0  0  0  0  0  0  0  0  0  0  0
  -42.3594   59.3822   66.4124 C   0  0  0  0  0  0  0  0  0  0  0  0
  -42.1237   60.8747   66.5816 C   0  0  0  0  0  0  0  0  0  0  0  0
  -40.8016   61.2407   65.9541 C   0  0  0  0  0  0  0  0  0  0  0  0
  -40.1022   60.3616   65.4138 O   0  0  0  0  0  0  0  0  0  0  0  0
  -40.3829   62.4177   65.9668 O   0  0  0  0  0  0  0  0  0  0  0  0
  -40.8942   63.0926   66.3681 H   0  0  0  0  0  0  0  0  0  0  0  0
  -48.0759   59.9094   65.8505 C   0  0  0  0  0  0  0  0  0  0  0  0
  -48.1630   58.5553   65.1883 C   0  0  0  0  0  0  0  0  0  0  0  0
  -49.2009   58.3053   64.1756 C   0  0  0  0  0  0  0  0  0  0  0  0
  -50.2906   59.3290   63.9781 C   0  0  0  0  0  0  0  0  0  0  0  0
  -50.7883   59.3166   62.5369 C   0  0  0  0  0  0  0  0  0  0  0  0
  -50.0039   58.2947   61.7141 C   0  0  0  0  0  0  0  0  0  0  0  0
  -50.8493   57.7096   60.5839 C   0  0  0  0  0  0  0  0  0  0  0  0
  -50.1589   57.8482   59.2246 C   0  0  0  0  0  0  0  0  0  0  0  0
  -48.6727   58.1756   59.3435 C   0  0  0  0  0  0  0  0  0  0  0  0
  7  8  2  0  0  0
  7  6  1  0  0  0
  7  9  1  0  0  0
  6  5  1  0  0  0
  9 10  1  0  0  0
  5  4  1  0  0  0
  4  3  1  0  0  0
  3  2  1  0  0  0
  2  1  1  0  0  0
  1 11  1  0  0  0
 11 12  1  0  0  0
 12 13  2  0  0  0
 13 14  1  0  0  0
 14 15  1  0  0  0
 15 16  1  0  0  0
 16 17  1  0  0  0
 17 18  1  0  0  0
 18 19  1  0  0  0
M  END
> <minimizedAffinity>
-6.88757

> <CNNscore>
0.8470109105

> <CNNaffinity>
6.3999509811

> <CNN_VS>
5.4208283424

> <CNNaffinity_variance>
0.5485568643

$$$$
/media/chris/experiments/cd1a-new-docking/inputs/ligands/4x6d_2_ligand.pdb


 19 18  0  0  0  0  0  0  0  0999 V2000
  -47.7847   58.9473   64.9607 C   0  0  0  0  0  0  0  0  0  0  0  0
  -47.1823   57.8263   65.7964 C   0  0  0  0  0  0  0  0  0  0  0  0
  -45.8265   58.1955   66.3740 C   0  0  0  0  0  0  0  0  0  0  0  0
  -44.7162   57.5652   65.5494 C   0  0  0  0  0  0  0  0  0  0  0  0
  -44.0155   58.6514   64.7533 C   0  0  0  0  0  0  0  0  0  0  0  0
  -44.2325   60.0267   65.3642 C   0  0  0  0  0  0  0  0  0  0  0  0
  -42.9411   60.5030   65.9812 C   0  0  0  0  0  0  0  0  0  0  0  0
  -42.1205   61.1438   65.2958 O   0  0  0  0  0  0  0  0  0  0  0  0
  -42.6680   60.2640   67.1767 O   0  0  0  0  0  0  0  0  0  0  0  0
  -43.2721   59.7837   67.7083 H   0  0  0  0  0  0  0  0  0  0  0  0
  -48.9037   58.3371   64.1293 C   0  0  0  0  0  0  0  0  0  0  0  0
  -50.1483   59.1917   64.1535 C   0  0  0  0  0  0  0  0  0  0  0  0
  -50.8270   59.5256   62.8913 C   0  0  0  0  0  0  0  0  0  0  0  0
  -50.1474   59.1943   61.5864 C   0  0  0  0  0  0  0  0  0  0  0  0
  -50.7396   57.9292   60.9751 C   0  0  0  0  0  0  0  0  0  0  0  0
  -50.1860   57.7116   59.5671 C   0  0  0  0  0  0  0  0  0  0  0  0
  -48.8789   58.4723   59.3493 C   0  0  0  0  0  0  0  0  0  0  0  0
  -47.9299   57.7196   58.4132 C   0  0  0  0  0  0  0  0  0  0  0  0
  -46.4588   58.0085   58.7003 C   0  0  0  0  0  0  0  0  0  0  0  0
  7  8  2  0  0  0
  7  6  1  0  0  0
  7  9  1  0  0  0
  6  5  1  0  0  0
  9 10  1  0  0  0
  5  4  1  0  0  0
  4  3  1  0  0  0
  3  2  1  0  0  0
  2  1  1  0  0  0
  1 11  1  0  0  0
 11 12  1  0  0  0
 12 13  2  0  0  0
 13 14  1  0  0  0
 14 15  1  0  0  0
 15 16  1  0  0  0
 16 17  1  0  0  0
 17 18  1  0  0  0
 18 19  1  0  0  0
M  END
> <minimizedAffinity>
-6.80686

> <CNNscore>
0.8087080717

> <CNNaffinity>
6.5291662216

> <CNN_VS>
5.2801895142

> <CNNaffinity_variance>
0.4276069105

$$$$
/media/chris/experiments/cd1a-new-docking/inputs/ligands/4x6d_2_ligand.pdb


 19 18  0  0  0  0  0  0  0  0999 V2000
  -45.8758   59.5397   66.3430 C   0  0  0  0  0  0  0  0  0  0  0  0
  -44.9138   60.0796   65.2937 C   0  0  0  0  0  0  0  0  0  0  0  0
  -44.0045   59.0015   64.7286 C   0  0  0  0  0  0  0  0  0  0  0  0
  -43.1054   58.4481   65.8219 C   0  0  0  0  0  0  0  0  0  0  0  0
  -41.6900   58.9487   65.5972 C   0  0  0  0  0  0  0  0  0  0  0  0
  -41.3962   60.1948   66.4174 C   0  0  0  0  0  0  0  0  0  0  0  0
  -40.7749   61.2395   65.5241 C   0  0  0  0  0  0  0  0  0  0  0  0
  -40.5804   60.9939   64.3176 O   0  0  0  0  0  0  0  0  0  0  0  0
  -40.4419   62.3578   65.9706 O   0  0  0  0  0  0  0  0  0  0  0  0
  -40.5800   62.5614   66.8748 H   0  0  0  0  0  0  0  0  0  0  0  0
  -47.1520   60.3634   66.2494 C   0  0  0  0  0  0  0  0  0  0  0  0
  -47.2955   61.0206   64.8977 C   0  0  0  0  0  0  0  0  0  0  0  0
  -48.6375   61.2650   64.3456 C   0  0  0  0  0  0  0  0  0  0  0  0
  -49.8332   60.6590   65.0364 C   0  0  0  0  0  0  0  0  0  0  0  0
  -50.7993   60.0620   64.0191 C   0  0  0  0  0  0  0  0  0  0  0  0
  -50.1704   60.0647   62.6259 C   0  0  0  0  0  0  0  0  0  0  0  0
  -50.0997   58.6577   62.0344 C   0  0  0  0  0  0  0  0  0  0  0  0
  -49.8266   58.6850   60.5284 C   0  0  0  0  0  0  0  0  0  0  0  0
  -48.6540   57.7969   60.1208 C   0  0  0  0  0  0  0  0  0  0  0  0
  7  8  2  0  0  0
  7  6  1  0  0  0
  7  9  1  0  0  0
  6  5  1  0  0  0
  9 10  1  0  0  0
  5  4  1  0  0  0
  4  3  1  0  0  0
  3  2  1  0  0  0
  2  1  1  0  0  0
  1 11  1  0  0  0
 11 12  1  0  0  0
 12 13  2  0  0  0
 13 14  1  0  0  0
 14 15  1  0  0  0
 15 16  1  0  0  0
 16 17  1  0  0  0
 17 18  1  0  0  0
 18 19  1  0  0  0
M  END
> <minimizedAffinity>
-6.64291

> <CNNscore>
0.7258741260

> <CNNaffinity>
6.1565356255

> <CNN_VS>
4.4688696861

> <CNNaffinity_variance>
0.3767486215

$$$$
/media/chris/experiments/cd1a-new-docking/inputs/ligands/4x6d_2_ligand.pdb


 19 18  0  0  0  0  0  0  0  0999 V2000
  -45.7234   59.7892   66.1527 C   0  0  0  0  0  0  0  0  0  0  0  0
  -44.3346   60.2293   65.7106 C   0  0  0  0  0  0  0  0  0  0  0  0
  -43.2524   59.2495   66.1312 C   0  0  0  0  0  0  0  0  0  0  0  0
  -42.1833   59.9650   66.9405 C   0  0  0  0  0  0  0  0  0  0  0  0
  -40.8705   59.9117   66.1801 C   0  0  0  0  0  0  0  0  0  0  0  0
  -40.9517   58.9813   64.9802 C   0  0  0  0  0  0  0  0  0  0  0  0
  -39.6120   58.9496   64.2877 C   0  0  0  0  0  0  0  0  0  0  0  0
  -39.0786   57.8578   64.0094 O   0  0  0  0  0  0  0  0  0  0  0  0
  -39.0140   60.0042   63.9862 O   0  0  0  0  0  0  0  0  0  0  0  0
  -39.3987   60.8348   64.1871 H   0  0  0  0  0  0  0  0  0  0  0  0
  -46.7278   60.5146   65.2691 C   0  0  0  0  0  0  0  0  0  0  0  0
  -47.9938   60.8500   66.0204 C   0  0  0  0  0  0  0  0  0  0  0  0
  -49.2766   60.8977   65.3010 C   0  0  0  0  0  0  0  0  0  0  0  0
  -49.2724   60.8279   63.7945 C   0  0  0  0  0  0  0  0  0  0  0  0
  -50.4200   59.9592   63.2912 C   0  0  0  0  0  0  0  0  0  0  0  0
  -49.9432   58.5227   63.0780 C   0  0  0  0  0  0  0  0  0  0  0  0
  -50.4428   57.9518   61.7517 C   0  0  0  0  0  0  0  0  0  0  0  0
  -49.8345   58.6816   60.5513 C   0  0  0  0  0  0  0  0  0  0  0  0
  -50.1697   58.0162   59.2190 C   0  0  0  0  0  0  0  0  0  0  0  0
  7  8  2  0  0  0
  7  6  1  0  0  0
  7  9  1  0  0  0
  6  5  1  0  0  0
  9 10  1  0  0  0
  5  4  1  0  0  0
  4  3  1  0  0  0
  3  2  1  0  0  0
  2  1  1  0  0  0
  1 11  1  0  0  0
 11 12  1  0  0  0
 12 13  2  0  0  0
 13 14  1  0  0  0
 14 15  1  0  0  0
 15 16  1  0  0  0
 16 17  1  0  0  0
 17 18  1  0  0  0
 18 19  1  0  0  0
M  END
> <minimizedAffinity>
-6.42489

> <CNNscore>
0.7081794143

> <CNNaffinity>
6.0520462990

> <CNN_VS>
4.2859344482

> <CNNaffinity_variance>
0.3312459290

$$$$
/media/chris/experiments/cd1a-new-docking/inputs/ligands/4x6d_2_ligand.pdb


 19 18  0  0  0  0  0  0  0  0999 V2000
  -43.6309   59.4409   64.5362 C   0  0  0  0  0  0  0  0  0  0  0  0
  -42.2010   59.8631   64.8445 C   0  0  0  0  0  0  0  0  0  0  0  0
  -41.4148   58.7768   65.5586 C   0  0  0  0  0  0  0  0  0  0  0  0
  -39.9625   58.8007   65.1113 C   0  0  0  0  0  0  0  0  0  0  0  0
  -39.4348   60.2197   65.2242 C   0  0  0  0  0  0  0  0  0  0  0  0
  -37.9236   60.2732   65.0653 C   0  0  0  0  0  0  0  0  0  0  0  0
  -37.3836   61.4347   65.8620 C   0  0  0  0  0  0  0  0  0  0  0  0
  -36.9348   61.2496   67.0101 O   0  0  0  0  0  0  0  0  0  0  0  0
  -37.3792   62.5935   65.3951 O   0  0  0  0  0  0  0  0  0  0  0  0
  -37.7122   62.7529   64.5338 H   0  0  0  0  0  0  0  0  0  0  0  0
  -44.5525   60.4029   65.2717 C   0  0  0  0  0  0  0  0  0  0  0  0
  -44.9555   59.8670   66.6246 C   0  0  0  0  0  0  0  0  0  0  0  0
  -46.3205   59.3565   66.8285 C   0  0  0  0  0  0  0  0  0  0  0  0
  -47.3524   59.5796   65.7516 C   0  0  0  0  0  0  0  0  0  0  0  0
  -48.6073   60.2231   66.3313 C   0  0  0  0  0  0  0  0  0  0  0  0
  -49.8572   59.5334   65.7851 C   0  0  0  0  0  0  0  0  0  0  0  0
  -50.7451   60.5043   65.0080 C   0  0  0  0  0  0  0  0  0  0  0  0
  -50.8771   60.1036   63.5365 C   0  0  0  0  0  0  0  0  0  0  0  0
  -50.3025   58.7201   63.2434 C   0  0  0  0  0  0  0  0  0  0  0  0
  7  8  2  0  0  0
  7  6  1  0  0  0
  7  9  1  0  0  0
  6  5  1  0  0  0
  9 10  1  0  0  0
  5  4  1  0  0  0
  4  3  1  0  0  0
  3  2  1  0  0  0
  2  1  1  0  0  0
  1 11  1  0  0  0
 11 12  1  0  0  0
 12 13  2  0  0  0
 13 14  1  0  0  0
 14 15  1  0  0  0
 15 16  1  0  0  0
 16 17  1  0  0  0
 17 18  1  0  0  0
 18 19  1  0  0  0
M  END
> <minimizedAffinity>
-6.18903

> <CNNscore>
0.6813197732

> <CNNaffinity>
6.0065526962

> <CNN_VS>
4.0923829079

> <CNNaffinity_variance>
0.4176593721

$$$$
/media/chris/experiments/cd1a-new-docking/inputs/ligands/4x6d_2_ligand.pdb


 19 18  0  0  0  0  0  0  0  0999 V2000
  -41.4670   59.9287   66.5895 C   0  0  0  0  0  0  0  0  0  0  0  0
  -41.2209   59.0799   65.3498 C   0  0  0  0  0  0  0  0  0  0  0  0
  -39.8900   59.3913   64.6864 C   0  0  0  0  0  0  0  0  0  0  0  0
  -39.1971   58.1037   64.2717 C   0  0  0  0  0  0  0  0  0  0  0  0
  -38.5693   58.2999   62.9035 C   0  0  0  0  0  0  0  0  0  0  0  0
  -37.2731   57.5181   62.7609 C   0  0  0  0  0  0  0  0  0  0  0  0
  -36.3651   57.8510   63.9186 C   0  0  0  0  0  0  0  0  0  0  0  0
  -35.8581   58.9863   64.0083 O   0  0  0  0  0  0  0  0  0  0  0  0
  -36.1016   57.0045   64.7988 O   0  0  0  0  0  0  0  0  0  0  0  0
  -36.4731   56.1456   64.7490 H   0  0  0  0  0  0  0  0  0  0  0  0
  -42.9743   60.0338   66.7708 C   0  0  0  0  0  0  0  0  0  0  0  0
  -43.6825   60.2446   65.4541 C   0  0  0  0  0  0  0  0  0  0  0  0
  -45.1478   60.1258   65.3881 C   0  0  0  0  0  0  0  0  0  0  0  0
  -45.8912   59.5821   66.5823 C   0  0  0  0  0  0  0  0  0  0  0  0
  -46.7940   58.4231   66.1744 C   0  0  0  0  0  0  0  0  0  0  0  0
  -47.6239   58.8037   64.9486 C   0  0  0  0  0  0  0  0  0  0  0  0
  -49.0467   58.2534   65.0355 C   0  0  0  0  0  0  0  0  0  0  0  0
  -50.0796   59.2583   64.5192 C   0  0  0  0  0  0  0  0  0  0  0  0
  -50.5204   60.2581   65.5851 C   0  0  0  0  0  0  0  0  0  0  0  0
  7  8  2  0  0  0
  7  6  1  0  0  0
  7  9  1  0  0  0
  6  5  1  0  0  0
  9 10  1  0  0  0
  5  4  1  0  0  0
  4  3  1  0  0  0
  3  2  1  0  0  0
  2  1  1  0  0  0
  1 11  1  0  0  0
 11 12  1  0  0  0
 12 13  2  0  0  0
 13 14  1  0  0  0
 14 15  1  0  0  0
 15 16  1  0  0  0
 16 17  1  0  0  0
 17 18  1  0  0  0
 18 19  1  0  0  0
M  END
> <minimizedAffinity>
-6.27633

> <CNNscore>
0.6379144788

> <CNNaffinity>
5.9496483803

> <CNN_VS>
3.7953667641

> <CNNaffinity_variance>
0.2178169936

$$$$
/media/chris/experiments/cd1a-new-docking/inputs/ligands/4x6d_2_ligand.pdb


 19 18  0  0  0  0  0  0  0  0999 V2000
  -44.0376   57.6659   65.8002 C   0  0  0  0  0  0  0  0  0  0  0  0
  -42.5400   57.8757   65.6238 C   0  0  0  0  0  0  0  0  0  0  0  0
  -41.9647   58.8463   66.6412 C   0  0  0  0  0  0  0  0  0  0  0  0
  -40.8494   59.6651   66.0121 C   0  0  0  0  0  0  0  0  0  0  0  0
  -40.1913   58.8438   64.9180 C   0  0  0  0  0  0  0  0  0  0  0  0
  -39.8653   59.6896   63.6974 C   0  0  0  0  0  0  0  0  0  0  0  0
  -38.8377   58.9715   62.8584 C   0  0  0  0  0  0  0  0  0  0  0  0
  -38.5654   57.7775   63.0911 O   0  0  0  0  0  0  0  0  0  0  0  0
  -38.2417   59.5528   61.9269 O   0  0  0  0  0  0  0  0  0  0  0  0
  -38.4326   60.4503   61.7365 H   0  0  0  0  0  0  0  0  0  0  0  0
  -44.7366   58.4918   64.7301 C   0  0  0  0  0  0  0  0  0  0  0  0
  -45.2984   59.7755   65.2925 C   0  0  0  0  0  0  0  0  0  0  0  0
  -46.7560   59.9493   65.3948 C   0  0  0  0  0  0  0  0  0  0  0  0
  -47.6604   58.9380   64.7363 C   0  0  0  0  0  0  0  0  0  0  0  0
  -48.8009   59.6323   63.9999 C   0  0  0  0  0  0  0  0  0  0  0  0
  -49.8988   58.6264   63.6546 C   0  0  0  0  0  0  0  0  0  0  0  0
  -50.4978   58.8944   62.2747 C   0  0  0  0  0  0  0  0  0  0  0  0
  -50.4076   57.6663   61.3653 C   0  0  0  0  0  0  0  0  0  0  0  0
  -50.4812   58.0185   59.8819 C   0  0  0  0  0  0  0  0  0  0  0  0
  7  8  2  0  0  0
  7  6  1  0  0  0
  7  9  1  0  0  0
  6  5  1  0  0  0
  9 10  1  0  0  0
  5  4  1  0  0  0
  4  3  1  0  0  0
  3  2  1  0  0  0
  2  1  1  0  0  0
  1 11  1  0  0  0
 11 12  1  0  0  0
 12 13  2  0  0  0
 13 14  1  0  0  0
 14 15  1  0  0  0
 15 16  1  0  0  0
 16 17  1  0  0  0
 17 18  1  0  0  0
 18 19  1  0  0  0
M  END
> <minimizedAffinity>
-6.34059

> <CNNscore>
0.6209113002

> <CNNaffinity>
6.0865578651

> <CNN_VS>
3.7792124748

> <CNNaffinity_variance>
0.2878054976

$$$$
/media/chris/experiments/cd1a-new-docking/inputs/ligands/4x6d_2_ligand.pdb


 19 18  0  0  0  0  0  0  0  0999 V2000
  -40.5914   58.8534   65.1754 C   0  0  0  0  0  0  0  0  0  0  0  0
  -39.5055   59.8445   64.7797 C   0  0  0  0  0  0  0  0  0  0  0  0
  -38.2832   59.1630   64.1884 C   0  0  0  0  0  0  0  0  0  0  0  0
  -38.7042   57.9678   63.3491 C   0  0  0  0  0  0  0  0  0  0  0  0
  -37.8062   57.8817   62.1281 C   0  0  0  0  0  0  0  0  0  0  0  0
  -37.2715   59.2465   61.7243 C   0  0  0  0  0  0  0  0  0  0  0  0
  -37.9639   59.6950   60.4615 C   0  0  0  0  0  0  0  0  0  0  0  0
  -38.8687   60.5508   60.5156 O   0  0  0  0  0  0  0  0  0  0  0  0
  -37.6521   59.2203   59.3487 O   0  0  0  0  0  0  0  0  0  0  0  0
  -36.9744   58.5760   59.2875 H   0  0  0  0  0  0  0  0  0  0  0  0
  -41.7090   59.6495   65.8334 C   0  0  0  0  0  0  0  0  0  0  0  0
  -42.7764   60.0412   64.8400 C   0  0  0  0  0  0  0  0  0  0  0  0
  -44.0618   59.3250   64.8320 C   0  0  0  0  0  0  0  0  0  0  0  0
  -44.2070   58.0751   65.6633 C   0  0  0  0  0  0  0  0  0  0  0  0
  -45.5659   58.0409   66.3540 C   0  0  0  0  0  0  0  0  0  0  0  0
  -45.9225   59.4269   66.8909 C   0  0  0  0  0  0  0  0  0  0  0  0
  -47.3168   59.8648   66.4449 C   0  0  0  0  0  0  0  0  0  0  0  0
  -47.2564   60.9137   65.3315 C   0  0  0  0  0  0  0  0  0  0  0  0
  -48.6329   61.2734   64.7785 C   0  0  0  0  0  0  0  0  0  0  0  0
  7  8  2  0  0  0
  7  6  1  0  0  0
  7  9  1  0  0  0
  6  5  1  0  0  0
  9 10  1  0  0  0
  5  4  1  0  0  0
  4  3  1  0  0  0
  3  2  1  0  0  0
  2  1  1  0  0  0
  1 11  1  0  0  0
 11 12  1  0  0  0
 12 13  2  0  0  0
 13 14  1  0  0  0
 14 15  1  0  0  0
 15 16  1  0  0  0
 16 17  1  0  0  0
 17 18  1  0  0  0
 18 19  1  0  0  0
M  END
> <minimizedAffinity>
-6.10496

> <CNNscore>
0.6144560575

> <CNNaffinity>
5.8419818878

> <CNN_VS>
3.5896410942

> <CNNaffinity_variance>
0.2433197051

$$$$
/media/chris/experiments/cd1a-new-docking/inputs/ligands/4x6d_2_ligand.pdb


 19 18  0  0  0  0  0  0  0  0999 V2000
  -37.2927   58.1704   61.0348 C   0  0  0  0  0  0  0  0  0  0  0  0
  -37.1264   57.4114   62.3441 C   0  0  0  0  0  0  0  0  0  0  0  0
  -37.3876   58.2844   63.5598 C   0  0  0  0  0  0  0  0  0  0  0  0
  -38.7464   57.9580   64.1573 C   0  0  0  0  0  0  0  0  0  0  0  0
  -39.6651   59.1528   63.9754 C   0  0  0  0  0  0  0  0  0  0  0  0
  -40.2147   59.6485   65.3035 C   0  0  0  0  0  0  0  0  0  0  0  0
  -39.5431   60.9509   65.6614 C   0  0  0  0  0  0  0  0  0  0  0  0
  -40.2302   61.9413   65.9787 O   0  0  0  0  0  0  0  0  0  0  0  0
  -38.2990   61.0641   65.6430 O   0  0  0  0  0  0  0  0  0  0  0  0
  -37.7653   60.3308   65.4072 H   0  0  0  0  0  0  0  0  0  0  0  0
  -36.0315   57.9364   60.2160 C   0  0  0  0  0  0  0  0  0  0  0  0
  -36.2052   58.3785   58.7827 C   0  0  0  0  0  0  0  0  0  0  0  0
  -35.6312   57.5689   57.6963 C   0  0  0  0  0  0  0  0  0  0  0  0
  -34.6968   56.4372   58.0437 C   0  0  0  0  0  0  0  0  0  0  0  0
  -33.2453   56.9013   57.9956 C   0  0  0  0  0  0  0  0  0  0  0  0
  -32.3661   55.9805   58.8416 C   0  0  0  0  0  0  0  0  0  0  0  0
  -32.7543   56.0278   60.3186 C   0  0  0  0  0  0  0  0  0  0  0  0
  -31.5835   56.4651   61.2025 C   0  0  0  0  0  0  0  0  0  0  0  0
  -31.2414   57.9445   61.0466 C   0  0  0  0  0  0  0  0  0  0  0  0
  7  8  2  0  0  0
  7  6  1  0  0  0
  7  9  1  0  0  0
  6  5  1  0  0  0
  9 10  1  0  0  0
  5  4  1  0  0  0
  4  3  1  0  0  0
  3  2  1  0  0  0
  2  1  1  0  0  0
  1 11  1  0  0  0
 11 12  1  0  0  0
 12 13  2  0  0  0
 13 14  1  0  0  0
 14 15  1  0  0  0
 15 16  1  0  0  0
 16 17  1  0  0  0
 17 18  1  0  0  0
 18 19  1  0  0  0
M  END
> <minimizedAffinity>
-6.13951

> <CNNscore>
0.6098091006

> <CNNaffinity>
5.4048643112

> <CNN_VS>
3.2959353924

> <CNNaffinity_variance>
0.1209909171

$$$$
