/media/chris/experiments/cd1a-new-docking/inputs/ligands/4x6d_2_ligand.pdb


 19 18  0  0  0  0  0  0  0  0999 V2000
  -46.6894   60.3802   65.5995 C   0  0  0  0  0  0  0  0  0  0  0  0
  -46.2970   58.9483   65.2627 C   0  0  0  0  0  0  0  0  0  0  0  0
  -44.9338   58.5725   65.8182 C   0  0  0  0  0  0  0  0  0  0  0  0
  -44.2925   59.7747   66.4915 C   0  0  0  0  0  0  0  0  0  0  0  0
  -42.8358   59.8563   66.0720 C   0  0  0  0  0  0  0  0  0  0  0  0
  -42.1386   61.0589   66.6877 C   0  0  0  0  0  0  0  0  0  0  0  0
  -41.2572   61.7054   65.6481 C   0  0  0  0  0  0  0  0  0  0  0  0
  -41.6268   61.7539   64.4587 O   0  0  0  0  0  0  0  0  0  0  0  0
  -40.1493   62.1957   65.9532 O   0  0  0  0  0  0  0  0  0  0  0  0
  -39.8538   62.1690   66.8421 H   0  0  0  0  0  0  0  0  0  0  0  0
  -48.1054   60.3397   66.1555 C   0  0  0  0  0  0  0  0  0  0  0  0
  -49.0727   61.0972   65.2778 C   0  0  0  0  0  0  0  0  0  0  0  0
  -50.0605   60.3581   64.4758 C   0  0  0  0  0  0  0  0  0  0  0  0
  -49.9455   58.8577   64.3762 C   0  0  0  0  0  0  0  0  0  0  0  0
  -49.5219   58.4407   62.9720 C   0  0  0  0  0  0  0  0  0  0  0  0
  -50.6157   58.7897   61.9630 C   0  0  0  0  0  0  0  0  0  0  0  0
  -50.8418   57.6592   60.9601 C   0  0  0  0  0  0  0  0  0  0  0  0
  -49.5529   57.2822   60.2253 C   0  0  0  0  0  0  0  0  0  0  0  0
  -49.6117   57.5831   58.7299 C   0  0  0  0  0  0  0  0  0  0  0  0
  7  8  2  0  0  0
  7  6  1  0  0  0
  7  9  1  0  0  0
  6  5  1  0  0  0
  9 10  1  0  0  0
  5  4  1  0  0  0
  4  3  1  0  0  0
  3  2  1  0  0  0
  2  1  1  0  0  0
  1 11  1  0  0  0
 11 12  1  0  0  0
 12 13  2  0  0  0
 13 14  1  0  0  0
 14 15  1  0  0  0
 15 16  1  0  0  0
 16 17  1  0  0  0
 17 18  1  0  0  0
 18 19  1  0  0  0
M  END
> <minimizedAffinity>
-6.72368

> <CNNscore>
0.8593112230

> <CNNaffinity>
6.3219976425

> <CNN_VS>
5.4325633049

> <CNNaffinity_variance>
0.5113839507

$$$$
/media/chris/experiments/cd1a-new-docking/inputs/ligands/4x6d_2_ligand.pdb


 19 18  0  0  0  0  0  0  0  0999 V2000
  -46.3287   58.5412   65.7844 C   0  0  0  0  0  0  0  0  0  0  0  0
  -45.5121   57.3049   65.4341 C   0  0  0  0  0  0  0  0  0  0  0  0
  -44.0379   57.6169   65.2406 C   0  0  0  0  0  0  0  0  0  0  0  0
  -43.8626   59.0529   64.7751 C   0  0  0  0  0  0  0  0  0  0  0  0
  -42.4035   59.4449   64.9232 C   0  0  0  0  0  0  0  0  0  0  0  0
  -42.2371   60.6778   65.7971 C   0  0  0  0  0  0  0  0  0  0  0  0
  -40.7815   61.0730   65.8228 C   0  0  0  0  0  0  0  0  0  0  0  0
  -39.8962   60.2041   65.7004 O   0  0  0  0  0  0  0  0  0  0  0  0
  -40.4370   62.2649   65.9703 O   0  0  0  0  0  0  0  0  0  0  0  0
  -41.0877   62.9326   66.0639 H   0  0  0  0  0  0  0  0  0  0  0  0
  -47.4612   58.6340   64.7722 C   0  0  0  0  0  0  0  0  0  0  0  0
  -48.7726   58.1657   65.3557 C   0  0  0  0  0  0  0  0  0  0  0  0
  -50.0388   58.6315   64.7683 C   0  0  0  0  0  0  0  0  0  0  0  0
  -50.0053   59.7346   63.7404 C   0  0  0  0  0  0  0  0  0  0  0  0
  -50.7556   59.3204   62.4793 C   0  0  0  0  0  0  0  0  0  0  0  0
  -50.1973   58.0041   61.9388 C   0  0  0  0  0  0  0  0  0  0  0  0
  -50.9888   57.5082   60.7294 C   0  0  0  0  0  0  0  0  0  0  0  0
  -50.3737   57.9843   59.4109 C   0  0  0  0  0  0  0  0  0  0  0  0
  -48.8666   58.2074   59.5046 C   0  0  0  0  0  0  0  0  0  0  0  0
  7  8  2  0  0  0
  7  6  1  0  0  0
  7  9  1  0  0  0
  6  5  1  0  0  0
  9 10  1  0  0  0
  5  4  1  0  0  0
  4  3  1  0  0  0
  3  2  1  0  0  0
  2  1  1  0  0  0
  1 11  1  0  0  0
 11 12  1  0  0  0
 12 13  2  0  0  0
 13 14  1  0  0  0
 14 15  1  0  0  0
 15 16  1  0  0  0
 16 17  1  0  0  0
 17 18  1  0  0  0
 18 19  1  0  0  0
M  END
> <minimizedAffinity>
-6.82056

> <CNNscore>
0.8576618433

> <CNNaffinity>
6.5476007462

> <CNN_VS>
5.6156272888

> <CNNaffinity_variance>
0.5004502535

$$$$
/media/chris/experiments/cd1a-new-docking/inputs/ligands/4x6d_2_ligand.pdb


 19 18  0  0  0  0  0  0  0  0999 V2000
  -47.6171   58.6337   64.8701 C   0  0  0  0  0  0  0  0  0  0  0  0
  -46.9251   57.5768   65.7198 C   0  0  0  0  0  0  0  0  0  0  0  0
  -45.4914   57.9489   66.0576 C   0  0  0  0  0  0  0  0  0  0  0  0
  -44.7261   58.2915   64.7900 C   0  0  0  0  0  0  0  0  0  0  0  0
  -43.9423   59.5715   65.0178 C   0  0  0  0  0  0  0  0  0  0  0  0
  -42.6368   59.3098   65.7518 C   0  0  0  0  0  0  0  0  0  0  0  0
  -42.2241   60.5601   66.4880 C   0  0  0  0  0  0  0  0  0  0  0  0
  -41.4144   61.3525   65.9682 O   0  0  0  0  0  0  0  0  0  0  0  0
  -42.6765   60.8220   67.6228 O   0  0  0  0  0  0  0  0  0  0  0  0
  -43.2862   60.2387   68.0303 H   0  0  0  0  0  0  0  0  0  0  0  0
  -49.0882   58.2530   64.7886 C   0  0  0  0  0  0  0  0  0  0  0  0
  -49.9026   59.3140   64.0881 C   0  0  0  0  0  0  0  0  0  0  0  0
  -50.4122   59.0631   62.7307 C   0  0  0  0  0  0  0  0  0  0  0  0
  -49.9293   57.8461   61.9823 C   0  0  0  0  0  0  0  0  0  0  0  0
  -50.8594   57.5242   60.8177 C   0  0  0  0  0  0  0  0  0  0  0  0
  -50.2855   58.0762   59.5130 C   0  0  0  0  0  0  0  0  0  0  0  0
  -49.0159   57.3354   59.0954 C   0  0  0  0  0  0  0  0  0  0  0  0
  -47.9708   58.2839   58.5026 C   0  0  0  0  0  0  0  0  0  0  0  0
  -46.5409   57.8986   58.8725 C   0  0  0  0  0  0  0  0  0  0  0  0
  7  8  2  0  0  0
  7  6  1  0  0  0
  7  9  1  0  0  0
  6  5  1  0  0  0
  9 10  1  0  0  0
  5  4  1  0  0  0
  4  3  1  0  0  0
  3  2  1  0  0  0
  2  1  1  0  0  0
  1 11  1  0  0  0
 11 12  1  0  0  0
 12 13  2  0  0  0
 13 14  1  0  0  0
 14 15  1  0  0  0
 15 16  1  0  0  0
 16 17  1  0  0  0
 17 18  1  0  0  0
 18 19  1  0  0  0
M  END
> <minimizedAffinity>
-7.02961

> <CNNscore>
0.8349573016

> <CNNaffinity>
6.5142593384

> <CNN_VS>
5.4391283989

> <CNNaffinity_variance>
0.3476092219

$$$$
/media/chris/experiments/cd1a-new-docking/inputs/ligands/4x6d_2_ligand.pdb


 19 18  0  0  0  0  0  0  0  0999 V2000
  -43.3442   59.6446   64.7449 C   0  0  0  0  0  0  0  0  0  0  0  0
  -41.8554   59.9623   64.7243 C   0  0  0  0  0  0  0  0  0  0  0  0
  -40.9996   58.7651   65.1017 C   0  0  0  0  0  0  0  0  0  0  0  0
  -39.5257   59.1213   64.9999 C   0  0  0  0  0  0  0  0  0  0  0  0
  -39.3139   60.5126   65.5690 C   0  0  0  0  0  0  0  0  0  0  0  0
  -37.8785   60.7232   66.0236 C   0  0  0  0  0  0  0  0  0  0  0  0
  -37.2922   61.8986   65.2817 C   0  0  0  0  0  0  0  0  0  0  0  0
  -36.9425   62.9195   65.9056 O   0  0  0  0  0  0  0  0  0  0  0  0
  -37.1508   61.8753   64.0406 O   0  0  0  0  0  0  0  0  0  0  0  0
  -37.4078   61.1170   63.5538 H   0  0  0  0  0  0  0  0  0  0  0  0
  -43.5475   58.5062   65.7341 C   0  0  0  0  0  0  0  0  0  0  0  0
  -44.3558   57.3811   65.1335 C   0  0  0  0  0  0  0  0  0  0  0  0
  -45.7683   57.2168   65.5116 C   0  0  0  0  0  0  0  0  0  0  0  0
  -46.3196   58.0355   66.6519 C   0  0  0  0  0  0  0  0  0  0  0  0
  -47.5632   58.8018   66.2146 C   0  0  0  0  0  0  0  0  0  0  0  0
  -48.4103   57.9448   65.2742 C   0  0  0  0  0  0  0  0  0  0  0  0
  -49.7365   58.6223   64.9320 C   0  0  0  0  0  0  0  0  0  0  0  0
  -49.9348   58.7572   63.4201 C   0  0  0  0  0  0  0  0  0  0  0  0
  -50.9837   59.8024   63.0493 C   0  0  0  0  0  0  0  0  0  0  0  0
  7  8  2  0  0  0
  7  6  1  0  0  0
  7  9  1  0  0  0
  6  5  1  0  0  0
  9 10  1  0  0  0
  5  4  1  0  0  0
  4  3  1  0  0  0
  3  2  1  0  0  0
  2  1  1  0  0  0
  1 11  1  0  0  0
 11 12  1  0  0  0
 12 13  2  0  0  0
 13 14  1  0  0  0
 14 15  1  0  0  0
 15 16  1  0  0  0
 16 17  1  0  0  0
 17 18  1  0  0  0
 18 19  1  0  0  0
M  END
> <minimizedAffinity>
-6.25116

> <CNNscore>
0.7921068072

> <CNNaffinity>
6.2629051208

> <CNN_VS>
4.9608898163

> <CNNaffinity_variance>
0.2712603211

$$$$
/media/chris/experiments/cd1a-new-docking/inputs/ligands/4x6d_2_ligand.pdb


 19 18  0  0  0  0  0  0  0  0999 V2000
  -45.7490   57.8603   66.0590 C   0  0  0  0  0  0  0  0  0  0  0  0
  -44.6173   58.8786   66.0417 C   0  0  0  0  0  0  0  0  0  0  0  0
  -43.5872   58.5853   64.9642 C   0  0  0  0  0  0  0  0  0  0  0  0
  -42.3663   57.9168   65.5742 C   0  0  0  0  0  0  0  0  0  0  0  0
  -41.3135   58.9739   65.8547 C   0  0  0  0  0  0  0  0  0  0  0  0
  -40.8187   59.6299   64.5754 C   0  0  0  0  0  0  0  0  0  0  0  0
  -39.5258   58.9776   64.1532 C   0  0  0  0  0  0  0  0  0  0  0  0
  -39.1822   58.9898   62.9550 O   0  0  0  0  0  0  0  0  0  0  0  0
  -38.7833   58.4140   64.9851 O   0  0  0  0  0  0  0  0  0  0  0  0
  -39.0243   58.3942   65.8904 H   0  0  0  0  0  0  0  0  0  0  0  0
  -46.7841   58.3209   65.0429 C   0  0  0  0  0  0  0  0  0  0  0  0
  -48.1903   58.1822   65.5749 C   0  0  0  0  0  0  0  0  0  0  0  0
  -49.3331   58.3323   64.6601 C   0  0  0  0  0  0  0  0  0  0  0  0
  -49.0872   58.8370   63.2604 C   0  0  0  0  0  0  0  0  0  0  0  0
  -50.2057   58.3951   62.3229 C   0  0  0  0  0  0  0  0  0  0  0  0
  -49.9238   58.8738   60.8990 C   0  0  0  0  0  0  0  0  0  0  0  0
  -50.3971   57.8608   59.8575 C   0  0  0  0  0  0  0  0  0  0  0  0
  -49.2273   57.2568   59.0764 C   0  0  0  0  0  0  0  0  0  0  0  0
  -48.0920   58.2503   58.8437 C   0  0  0  0  0  0  0  0  0  0  0  0
  7  8  2  0  0  0
  7  6  1  0  0  0
  7  9  1  0  0  0
  6  5  1  0  0  0
  9 10  1  0  0  0
  5  4  1  0  0  0
  4  3  1  0  0  0
  3  2  1  0  0  0
  2  1  1  0  0  0
  1 11  1  0  0  0
 11 12  1  0  0  0
 12 13  2  0  0  0
 13 14  1  0  0  0
 14 15  1  0  0  0
 15 16  1  0  0  0
 16 17  1  0  0  0
 17 18  1  0  0  0
 18 19  1  0  0  0
M  END
> <minimizedAffinity>
-6.37552

> <CNNscore>
0.7723157406

> <CNNaffinity>
6.4470472336

> <CNN_VS>
4.9791560173

> <CNNaffinity_variance>
0.7429029346

$$$$
/media/chris/experiments/cd1a-new-docking/inputs/ligands/4x6d_2_ligand.pdb


 19 18  0  0  0  0  0  0  0  0999 V2000
  -48.6300   59.9392   65.8217 C   0  0  0  0  0  0  0  0  0  0  0  0
  -47.2793   59.4614   65.3068 C   0  0  0  0  0  0  0  0  0  0  0  0
  -46.1157   60.1066   66.0401 C   0  0  0  0  0  0  0  0  0  0  0  0
  -45.2025   60.8155   65.0535 C   0  0  0  0  0  0  0  0  0  0  0  0
  -43.8560   60.1147   65.0363 C   0  0  0  0  0  0  0  0  0  0  0  0
  -43.2782   59.9697   66.4350 C   0  0  0  0  0  0  0  0  0  0  0  0
  -42.1033   59.0247   66.3893 C   0  0  0  0  0  0  0  0  0  0  0  0
  -40.9792   59.4417   66.0483 O   0  0  0  0  0  0  0  0  0  0  0  0
  -42.2320   57.8174   66.6841 O   0  0  0  0  0  0  0  0  0  0  0  0
  -43.0689   57.4849   66.9428 H   0  0  0  0  0  0  0  0  0  0  0  0
  -49.2144   60.8622   64.7623 C   0  0  0  0  0  0  0  0  0  0  0  0
  -50.6944   60.6302   64.5732 C   0  0  0  0  0  0  0  0  0  0  0  0
  -51.1777   59.9701   63.3501 C   0  0  0  0  0  0  0  0  0  0  0  0
  -50.2121   59.7369   62.2154 C   0  0  0  0  0  0  0  0  0  0  0  0
  -50.4504   58.3736   61.5753 C   0  0  0  0  0  0  0  0  0  0  0  0
  -49.9780   58.3809   60.1216 C   0  0  0  0  0  0  0  0  0  0  0  0
  -48.5657   57.8143   59.9830 C   0  0  0  0  0  0  0  0  0  0  0  0
  -47.9362   58.1747   58.6350 C   0  0  0  0  0  0  0  0  0  0  0  0
  -46.4127   58.0804   58.6464 C   0  0  0  0  0  0  0  0  0  0  0  0
  7  8  2  0  0  0
  7  6  1  0  0  0
  7  9  1  0  0  0
  6  5  1  0  0  0
  9 10  1  0  0  0
  5  4  1  0  0  0
  4  3  1  0  0  0
  3  2  1  0  0  0
  2  1  1  0  0  0
  1 11  1  0  0  0
 11 12  1  0  0  0
 12 13  2  0  0  0
 13 14  1  0  0  0
 14 15  1  0  0  0
 15 16  1  0  0  0
 16 17  1  0  0  0
 17 18  1  0  0  0
 18 19  1  0  0  0
M  END
> <minimizedAffinity>
-6.75177

> <CNNscore>
0.6854069829

> <CNNaffinity>
6.2895784378

> <CNN_VS>
4.3109211922

> <CNNaffinity_variance>
0.4141873717

$$$$
/media/chris/experiments/cd1a-new-docking/inputs/ligands/4x6d_2_ligand.pdb


 19 18  0  0  0  0  0  0  0  0999 V2000
  -46.4087   58.8855   66.4911 C   0  0  0  0  0  0  0  0  0  0  0  0
  -46.0079   58.7419   65.0294 C   0  0  0  0  0  0  0  0  0  0  0  0
  -44.5008   58.7240   64.8383 C   0  0  0  0  0  0  0  0  0  0  0  0
  -43.9438   60.1350   64.9314 C   0  0  0  0  0  0  0  0  0  0  0  0
  -42.4519   60.0957   64.6534 C   0  0  0  0  0  0  0  0  0  0  0  0
  -41.7917   58.8832   65.2903 C   0  0  0  0  0  0  0  0  0  0  0  0
  -40.2976   58.9798   65.1060 C   0  0  0  0  0  0  0  0  0  0  0  0
  -39.6717   59.9496   65.5765 O   0  0  0  0  0  0  0  0  0  0  0  0
  -39.6646   58.1024   64.4812 O   0  0  0  0  0  0  0  0  0  0  0  0
  -40.1172   57.3657   64.1200 H   0  0  0  0  0  0  0  0  0  0  0  0
  -47.6336   59.7874   66.5352 C   0  0  0  0  0  0  0  0  0  0  0  0
  -47.5970   60.8339   65.4475 C   0  0  0  0  0  0  0  0  0  0  0  0
  -48.8526   61.2786   64.8222 C   0  0  0  0  0  0  0  0  0  0  0  0
  -50.1249   60.5267   65.1228 C   0  0  0  0  0  0  0  0  0  0  0  0
  -50.7952   60.0629   63.8341 C   0  0  0  0  0  0  0  0  0  0  0  0
  -49.7635   59.4379   62.8954 C   0  0  0  0  0  0  0  0  0  0  0  0
  -50.3562   58.2794   62.0943 C   0  0  0  0  0  0  0  0  0  0  0  0
  -49.5188   57.9559   60.8544 C   0  0  0  0  0  0  0  0  0  0  0  0
  -50.3388   57.9557   59.5669 C   0  0  0  0  0  0  0  0  0  0  0  0
  7  8  2  0  0  0
  7  6  1  0  0  0
  7  9  1  0  0  0
  6  5  1  0  0  0
  9 10  1  0  0  0
  5  4  1  0  0  0
  4  3  1  0  0  0
  3  2  1  0  0  0
  2  1  1  0  0  0
  1 11  1  0  0  0
 11 12  1  0  0  0
 12 13  2  0  0  0
 13 14  1  0  0  0
 14 15  1  0  0  0
 15 16  1  0  0  0
 16 17  1  0  0  0
 17 18  1  0  0  0
 18 19  1  0  0  0
M  END
> <minimizedAffinity>
-6.41180

> <CNNscore>
0.6752518415

> <CNNaffinity>
6.1898493767

> <CNN_VS>
4.1797070503

> <CNNaffinity_variance>
0.2878668308

$$$$
/media/chris/experiments/cd1a-new-docking/inputs/ligands/4x6d_2_ligand.pdb


 19 18  0  0  0  0  0  0  0  0999 V2000
  -48.3167   58.6297   65.1650 C   0  0  0  0  0  0  0  0  0  0  0  0
  -47.9728   60.0703   64.8125 C   0  0  0  0  0  0  0  0  0  0  0  0
  -46.9444   60.6706   65.7559 C   0  0  0  0  0  0  0  0  0  0  0  0
  -46.2076   59.5680   66.4985 C   0  0  0  0  0  0  0  0  0  0  0  0
  -44.7136   59.8166   66.3950 C   0  0  0  0  0  0  0  0  0  0  0  0
  -44.1484   59.3123   65.0768 C   0  0  0  0  0  0  0  0  0  0  0  0
  -43.7586   57.8629   65.2280 C   0  0  0  0  0  0  0  0  0  0  0  0
  -44.6255   56.9711   65.1449 O   0  0  0  0  0  0  0  0  0  0  0  0
  -42.5734   57.5304   65.4419 O   0  0  0  0  0  0  0  0  0  0  0  0
  -41.9073   58.1862   65.5077 H   0  0  0  0  0  0  0  0  0  0  0  0
  -49.8054   58.4467   64.9078 C   0  0  0  0  0  0  0  0  0  0  0  0
  -50.3682   59.5635   64.0618 C   0  0  0  0  0  0  0  0  0  0  0  0
  -50.7061   59.3100   62.6522 C   0  0  0  0  0  0  0  0  0  0  0  0
  -50.2810   58.0076   62.0218 C   0  0  0  0  0  0  0  0  0  0  0  0
  -51.1149   57.7114   60.7800 C   0  0  0  0  0  0  0  0  0  0  0  0
  -50.2923   57.9638   59.5167 C   0  0  0  0  0  0  0  0  0  0  0  0
  -48.7922   57.8586   59.7881 C   0  0  0  0  0  0  0  0  0  0  0  0
  -47.9616   58.3579   58.6031 C   0  0  0  0  0  0  0  0  0  0  0  0
  -46.4785   58.0207   58.7328 C   0  0  0  0  0  0  0  0  0  0  0  0
  7  8  2  0  0  0
  7  6  1  0  0  0
  7  9  1  0  0  0
  6  5  1  0  0  0
  9 10  1  0  0  0
  5  4  1  0  0  0
  4  3  1  0  0  0
  3  2  1  0  0  0
  2  1  1  0  0  0
  1 11  1  0  0  0
 11 12  1  0  0  0
 12 13  2  0  0  0
 13 14  1  0  0  0
 14 15  1  0  0  0
 15 16  1  0  0  0
 16 17  1  0  0  0
 17 18  1  0  0  0
 18 19  1  0  0  0
M  END
> <minimizedAffinity>
-7.11189

> <CNNscore>
0.6301732063

> <CNNaffinity>
6.2024526596

> <CNN_VS>
3.9086194038

> <CNNaffinity_variance>
0.2784947455

$$$$
/media/chris/experiments/cd1a-new-docking/inputs/ligands/4x6d_2_ligand.pdb


 19 18  0  0  0  0  0  0  0  0999 V2000
  -41.1138   59.3127   65.8615 C   0  0  0  0  0  0  0  0  0  0  0  0
  -41.0559   59.9346   64.4731 C   0  0  0  0  0  0  0  0  0  0  0  0
  -39.7109   59.7266   63.7979 C   0  0  0  0  0  0  0  0  0  0  0  0
  -39.2410   58.2948   63.9953 C   0  0  0  0  0  0  0  0  0  0  0  0
  -38.2973   57.9251   62.8652 C   0  0  0  0  0  0  0  0  0  0  0  0
  -36.8523   57.8661   63.3342 C   0  0  0  0  0  0  0  0  0  0  0  0
  -36.0687   58.9658   62.6618 C   0  0  0  0  0  0  0  0  0  0  0  0
  -34.8248   58.9836   62.7392 O   0  0  0  0  0  0  0  0  0  0  0  0
  -36.6438   59.8737   62.0246 O   0  0  0  0  0  0  0  0  0  0  0  0
  -37.5783   59.8778   61.9550 H   0  0  0  0  0  0  0  0  0  0  0  0
  -42.5405   58.8303   66.0792 C   0  0  0  0  0  0  0  0  0  0  0  0
  -43.4603   59.2866   64.9722 C   0  0  0  0  0  0  0  0  0  0  0  0
  -44.6949   58.5355   64.6951 C   0  0  0  0  0  0  0  0  0  0  0  0
  -44.9081   57.2047   65.3718 C   0  0  0  0  0  0  0  0  0  0  0  0
  -46.2690   57.1597   66.0580 C   0  0  0  0  0  0  0  0  0  0  0  0
  -46.6622   58.5534   66.5471 C   0  0  0  0  0  0  0  0  0  0  0  0
  -48.0326   58.9732   66.0172 C   0  0  0  0  0  0  0  0  0  0  0  0
  -48.6346   57.9142   65.0900 C   0  0  0  0  0  0  0  0  0  0  0  0
  -49.0562   58.4799   63.7364 C   0  0  0  0  0  0  0  0  0  0  0  0
  7  8  2  0  0  0
  7  6  1  0  0  0
  7  9  1  0  0  0
  6  5  1  0  0  0
  9 10  1  0  0  0
  5  4  1  0  0  0
  4  3  1  0  0  0
  3  2  1  0  0  0
  2  1  1  0  0  0
  1 11  1  0  0  0
 11 12  1  0  0  0
 12 13  2  0  0  0
 13 14  1  0  0  0
 14 15  1  0  0  0
 15 16  1  0  0  0
 16 17  1  0  0  0
 17 18  1  0  0  0
 18 19  1  0  0  0
M  END
> <minimizedAffinity>
-5.96385

> <CNNscore>
0.6130758524

> <CNNaffinity>
6.0600428581

> <CNN_VS>
3.7152659893

> <CNNaffinity_variance>
0.3053424954

$$$$
