/media/chris/experiments/cd1a-new-docking/inputs/ligands/4x6d_2_ligand.pdb


 19 18  0  0  0  0  0  0  0  0999 V2000
  -47.2095   60.9504   64.9893 C   0  0  0  0  0  0  0  0  0  0  0  0
  -47.0346   60.2534   66.3315 C   0  0  0  0  0  0  0  0  0  0  0  0
  -45.6614   59.6214   66.4842 C   0  0  0  0  0  0  0  0  0  0  0  0
  -44.6617   60.3126   65.5717 C   0  0  0  0  0  0  0  0  0  0  0  0
  -43.2646   59.8263   65.9125 C   0  0  0  0  0  0  0  0  0  0  0  0
  -42.4982   60.8472   66.7383 C   0  0  0  0  0  0  0  0  0  0  0  0
  -41.2306   61.2204   66.0110 C   0  0  0  0  0  0  0  0  0  0  0  0
  -40.5975   60.3550   65.3752 O   0  0  0  0  0  0  0  0  0  0  0  0
  -40.7912   62.3897   66.0342 O   0  0  0  0  0  0  0  0  0  0  0  0
  -41.2529   63.0543   66.5067 H   0  0  0  0  0  0  0  0  0  0  0  0
  -48.7032   61.1498   64.7773 C   0  0  0  0  0  0  0  0  0  0  0  0
  -49.5007   59.9650   65.2674 C   0  0  0  0  0  0  0  0  0  0  0  0
  -49.9601   58.9490   64.3072 C   0  0  0  0  0  0  0  0  0  0  0  0
  -49.8165   59.2211   62.8308 C   0  0  0  0  0  0  0  0  0  0  0  0
  -49.7150   57.9162   62.0487 C   0  0  0  0  0  0  0  0  0  0  0  0
  -50.8121   57.8484   60.9865 C   0  0  0  0  0  0  0  0  0  0  0  0
  -50.2534   58.0664   59.5812 C   0  0  0  0  0  0  0  0  0  0  0  0
  -48.9096   57.3597   59.3856 C   0  0  0  0  0  0  0  0  0  0  0  0
  -47.8715   58.2382   58.6922 C   0  0  0  0  0  0  0  0  0  0  0  0
  7  8  2  0  0  0
  7  6  1  0  0  0
  7  9  1  0  0  0
  6  5  1  0  0  0
  9 10  1  0  0  0
  5  4  1  0  0  0
  4  3  1  0  0  0
  3  2  1  0  0  0
  2  1  1  0  0  0
  1 11  1  0  0  0
 11 12  1  0  0  0
 12 13  2  0  0  0
 13 14  1  0  0  0
 14 15  1  0  0  0
 15 16  1  0  0  0
 16 17  1  0  0  0
 17 18  1  0  0  0
 18 19  1  0  0  0
M  END
> <minimizedAffinity>
-6.90942

> <CNNscore>
0.8272214532

> <CNNaffinity>
6.2756719589

> <CNN_VS>
5.1913704872

> <CNNaffinity_variance>
0.4214773774

$$$$
/media/chris/experiments/cd1a-new-docking/inputs/ligands/4x6d_2_ligand.pdb


 19 18  0  0  0  0  0  0  0  0999 V2000
  -49.0877   58.2283   65.3140 C   0  0  0  0  0  0  0  0  0  0  0  0
  -48.2444   59.1720   66.1603 C   0  0  0  0  0  0  0  0  0  0  0  0
  -46.9209   58.5536   66.5775 C   0  0  0  0  0  0  0  0  0  0  0  0
  -45.8529   59.6288   66.6927 C   0  0  0  0  0  0  0  0  0  0  0  0
  -45.1167   59.7364   65.3694 C   0  0  0  0  0  0  0  0  0  0  0  0
  -44.3046   58.4857   65.0730 C   0  0  0  0  0  0  0  0  0  0  0  0
  -42.8375   58.8363   65.0767 C   0  0  0  0  0  0  0  0  0  0  0  0
  -42.4577   59.9383   64.6349 O   0  0  0  0  0  0  0  0  0  0  0  0
  -41.9821   58.0371   65.5131 O   0  0  0  0  0  0  0  0  0  0  0  0
  -42.2479   57.2039   65.8493 H   0  0  0  0  0  0  0  0  0  0  0  0
  -48.8969   58.6358   63.8603 C   0  0  0  0  0  0  0  0  0  0  0  0
  -50.0913   59.3919   63.3300 C   0  0  0  0  0  0  0  0  0  0  0  0
  -50.8060   58.8873   62.1468 C   0  0  0  0  0  0  0  0  0  0  0  0
  -50.2033   57.7518   61.3584 C   0  0  0  0  0  0  0  0  0  0  0  0
  -50.5693   57.8651   59.8826 C   0  0  0  0  0  0  0  0  0  0  0  0
  -49.3722   57.4899   59.0093 C   0  0  0  0  0  0  0  0  0  0  0  0
  -48.0468   57.8193   59.6943 C   0  0  0  0  0  0  0  0  0  0  0  0
  -46.8542   57.6182   58.7559 C   0  0  0  0  0  0  0  0  0  0  0  0
  -46.7460   58.7065   57.6909 C   0  0  0  0  0  0  0  0  0  0  0  0
  7  8  2  0  0  0
  7  6  1  0  0  0
  7  9  1  0  0  0
  6  5  1  0  0  0
  9 10  1  0  0  0
  5  4  1  0  0  0
  4  3  1  0  0  0
  3  2  1  0  0  0
  2  1  1  0  0  0
  1 11  1  0  0  0
 11 12  1  0  0  0
 12 13  2  0  0  0
 13 14  1  0  0  0
 14 15  1  0  0  0
 15 16  1  0  0  0
 16 17  1  0  0  0
 17 18  1  0  0  0
 18 19  1  0  0  0
M  END
> <minimizedAffinity>
-6.99846

> <CNNscore>
0.7552893758

> <CNNaffinity>
6.4023437500

> <CNN_VS>
4.8356223106

> <CNNaffinity_variance>
0.2751785219

$$$$
/media/chris/experiments/cd1a-new-docking/inputs/ligands/4x6d_2_ligand.pdb


 19 18  0  0  0  0  0  0  0  0999 V2000
  -45.3924   59.6498   66.1852 C   0  0  0  0  0  0  0  0  0  0  0  0
  -44.7643   58.6194   65.2569 C   0  0  0  0  0  0  0  0  0  0  0  0
  -43.2783   58.8553   65.0463 C   0  0  0  0  0  0  0  0  0  0  0  0
  -42.4829   58.2390   66.1853 C   0  0  0  0  0  0  0  0  0  0  0  0
  -41.7988   59.3471   66.9654 C   0  0  0  0  0  0  0  0  0  0  0  0
  -41.8811   60.6807   66.2398 C   0  0  0  0  0  0  0  0  0  0  0  0
  -40.4880   61.1371   65.8843 C   0  0  0  0  0  0  0  0  0  0  0  0
  -39.6212   60.3022   65.5597 O   0  0  0  0  0  0  0  0  0  0  0  0
  -40.1763   62.3466   65.9122 O   0  0  0  0  0  0  0  0  0  0  0  0
  -40.8139   62.9893   66.1537 H   0  0  0  0  0  0  0  0  0  0  0  0
  -46.5571   58.9696   66.8899 C   0  0  0  0  0  0  0  0  0  0  0  0
  -46.7974   57.5776   66.3569 C   0  0  0  0  0  0  0  0  0  0  0  0
  -47.9651   57.3173   65.5001 C   0  0  0  0  0  0  0  0  0  0  0  0
  -49.0153   58.3893   65.3510 C   0  0  0  0  0  0  0  0  0  0  0  0
  -48.8303   59.1477   64.0412 C   0  0  0  0  0  0  0  0  0  0  0  0
  -50.1269   59.8579   63.6524 C   0  0  0  0  0  0  0  0  0  0  0  0
  -50.8101   59.1789   62.4664 C   0  0  0  0  0  0  0  0  0  0  0  0
  -49.8508   58.2614   61.7041 C   0  0  0  0  0  0  0  0  0  0  0  0
  -50.0748   58.2899   60.1944 C   0  0  0  0  0  0  0  0  0  0  0  0
  7  8  2  0  0  0
  7  6  1  0  0  0
  7  9  1  0  0  0
  6  5  1  0  0  0
  9 10  1  0  0  0
  5  4  1  0  0  0
  4  3  1  0  0  0
  3  2  1  0  0  0
  2  1  1  0  0  0
  1 11  1  0  0  0
 11 12  1  0  0  0
 12 13  2  0  0  0
 13 14  1  0  0  0
 14 15  1  0  0  0
 15 16  1  0  0  0
 16 17  1  0  0  0
 17 18  1  0  0  0
 18 19  1  0  0  0
M  END
> <minimizedAffinity>
-6.46226

> <CNNscore>
0.7326961756

> <CNNaffinity>
6.2808160782

> <CNN_VS>
4.6019301414

> <CNNaffinity_variance>
0.3946497440

$$$$
/media/chris/experiments/cd1a-new-docking/inputs/ligands/4x6d_2_ligand.pdb


 19 18  0  0  0  0  0  0  0  0999 V2000
  -44.2356   59.1177   66.0411 C   0  0  0  0  0  0  0  0  0  0  0  0
  -43.3637   60.1597   66.7281 C   0  0  0  0  0  0  0  0  0  0  0  0
  -41.9138   59.7205   66.8432 C   0  0  0  0  0  0  0  0  0  0  0  0
  -41.6033   58.6585   65.8013 C   0  0  0  0  0  0  0  0  0  0  0  0
  -40.6227   59.2289   64.7926 C   0  0  0  0  0  0  0  0  0  0  0  0
  -39.4673   58.2764   64.5290 C   0  0  0  0  0  0  0  0  0  0  0  0
  -38.8951   58.5595   63.1624 C   0  0  0  0  0  0  0  0  0  0  0  0
  -38.1756   57.7118   62.5988 O   0  0  0  0  0  0  0  0  0  0  0  0
  -39.1235   59.6387   62.5758 O   0  0  0  0  0  0  0  0  0  0  0  0
  -39.6619   60.2884   62.9832 H   0  0  0  0  0  0  0  0  0  0  0  0
  -45.6839   59.4703   66.3476 C   0  0  0  0  0  0  0  0  0  0  0  0
  -46.1997   60.5579   65.4361 C   0  0  0  0  0  0  0  0  0  0  0  0
  -47.6148   60.9555   65.5050 C   0  0  0  0  0  0  0  0  0  0  0  0
  -48.5686   60.1229   66.3245 C   0  0  0  0  0  0  0  0  0  0  0  0
  -49.9577   60.1176   65.6959 C   0  0  0  0  0  0  0  0  0  0  0  0
  -49.8963   60.6652   64.2701 C   0  0  0  0  0  0  0  0  0  0  0  0
  -50.7327   59.8262   63.3052 C   0  0  0  0  0  0  0  0  0  0  0  0
  -49.8563   58.9821   62.3763 C   0  0  0  0  0  0  0  0  0  0  0  0
  -50.6590   57.9817   61.5486 C   0  0  0  0  0  0  0  0  0  0  0  0
  7  8  2  0  0  0
  7  6  1  0  0  0
  7  9  1  0  0  0
  6  5  1  0  0  0
  9 10  1  0  0  0
  5  4  1  0  0  0
  4  3  1  0  0  0
  3  2  1  0  0  0
  2  1  1  0  0  0
  1 11  1  0  0  0
 11 12  1  0  0  0
 12 13  2  0  0  0
 13 14  1  0  0  0
 14 15  1  0  0  0
 15 16  1  0  0  0
 16 17  1  0  0  0
 17 18  1  0  0  0
 18 19  1  0  0  0
M  END
> <minimizedAffinity>
-6.50730

> <CNNscore>
0.6857461929

> <CNNaffinity>
6.0303192139

> <CNN_VS>
4.1352682114

> <CNNaffinity_variance>
0.2661700845

$$$$
/media/chris/experiments/cd1a-new-docking/inputs/ligands/4x6d_2_ligand.pdb


 19 18  0  0  0  0  0  0  0  0999 V2000
  -50.1983   59.1173   63.7588 C   0  0  0  0  0  0  0  0  0  0  0  0
  -50.1360   59.0482   62.2391 C   0  0  0  0  0  0  0  0  0  0  0  0
  -49.8835   57.6389   61.7307 C   0  0  0  0  0  0  0  0  0  0  0  0
  -50.7321   57.3657   60.4998 C   0  0  0  0  0  0  0  0  0  0  0  0
  -50.1390   58.1096   59.3168 C   0  0  0  0  0  0  0  0  0  0  0  0
  -48.6292   57.9446   59.2468 C   0  0  0  0  0  0  0  0  0  0  0  0
  -48.2950   56.8736   58.2386 C   0  0  0  0  0  0  0  0  0  0  0  0
  -48.1631   55.6896   58.6057 O   0  0  0  0  0  0  0  0  0  0  0  0
  -48.1406   57.1482   57.0296 O   0  0  0  0  0  0  0  0  0  0  0  0
  -48.2356   58.0323   56.7342 H   0  0  0  0  0  0  0  0  0  0  0  0
  -48.7943   59.4345   64.2526 C   0  0  0  0  0  0  0  0  0  0  0  0
  -48.0768   58.1956   64.7321 C   0  0  0  0  0  0  0  0  0  0  0  0
  -46.7789   58.3235   65.4135 C   0  0  0  0  0  0  0  0  0  0  0  0
  -46.0885   59.6642   65.4246 C   0  0  0  0  0  0  0  0  0  0  0  0
  -45.1249   59.7656   66.6019 C   0  0  0  0  0  0  0  0  0  0  0  0
  -43.6789   59.7332   66.1075 C   0  0  0  0  0  0  0  0  0  0  0  0
  -43.5474   60.3228   64.7041 C   0  0  0  0  0  0  0  0  0  0  0  0
  -42.3136   61.2197   64.5754 C   0  0  0  0  0  0  0  0  0  0  0  0
  -41.4283   60.8461   63.3893 C   0  0  0  0  0  0  0  0  0  0  0  0
  7  8  2  0  0  0
  7  6  1  0  0  0
  7  9  1  0  0  0
  6  5  1  0  0  0
  9 10  1  0  0  0
  5  4  1  0  0  0
  4  3  1  0  0  0
  3  2  1  0  0  0
  2  1  1  0  0  0
  1 11  1  0  0  0
 11 12  1  0  0  0
 12 13  2  0  0  0
 13 14  1  0  0  0
 14 15  1  0  0  0
 15 16  1  0  0  0
 16 17  1  0  0  0
 17 18  1  0  0  0
 18 19  1  0  0  0
M  END
> <minimizedAffinity>
-6.58082

> <CNNscore>
0.6786494851

> <CNNaffinity>
6.3122549057

> <CNN_VS>
4.2838087082

> <CNNaffinity_variance>
0.5371238589

$$$$
/media/chris/experiments/cd1a-new-docking/inputs/ligands/4x6d_2_ligand.pdb


 19 18  0  0  0  0  0  0  0  0999 V2000
  -47.1932   58.4549   66.0850 C   0  0  0  0  0  0  0  0  0  0  0  0
  -46.4011   59.6080   66.6857 C   0  0  0  0  0  0  0  0  0  0  0  0
  -44.9031   59.4503   66.4873 C   0  0  0  0  0  0  0  0  0  0  0  0
  -44.4112   60.4142   65.4201 C   0  0  0  0  0  0  0  0  0  0  0  0
  -43.3213   59.7374   64.6087 C   0  0  0  0  0  0  0  0  0  0  0  0
  -42.0367   60.5507   64.6015 C   0  0  0  0  0  0  0  0  0  0  0  0
  -41.9535   61.3323   63.3141 C   0  0  0  0  0  0  0  0  0  0  0  0
  -41.1413   60.9957   62.4305 O   0  0  0  0  0  0  0  0  0  0  0  0
  -42.6850   62.3246   63.1109 O   0  0  0  0  0  0  0  0  0  0  0  0
  -43.3018   62.5932   63.7630 H   0  0  0  0  0  0  0  0  0  0  0  0
  -47.7604   58.9413   64.7593 C   0  0  0  0  0  0  0  0  0  0  0  0
  -48.0760   60.4174   64.7939 C   0  0  0  0  0  0  0  0  0  0  0  0
  -49.4493   60.8749   64.5290 C   0  0  0  0  0  0  0  0  0  0  0  0
  -50.4629   59.8841   64.0140 C   0  0  0  0  0  0  0  0  0  0  0  0
  -50.5384   59.9307   62.4918 C   0  0  0  0  0  0  0  0  0  0  0  0
  -50.5922   58.5141   61.9202 C   0  0  0  0  0  0  0  0  0  0  0  0
  -49.2458   58.0879   61.3370 C   0  0  0  0  0  0  0  0  0  0  0  0
  -49.3349   57.8204   59.8324 C   0  0  0  0  0  0  0  0  0  0  0  0
  -48.0330   58.1262   59.0963 C   0  0  0  0  0  0  0  0  0  0  0  0
  7  8  2  0  0  0
  7  6  1  0  0  0
  7  9  1  0  0  0
  6  5  1  0  0  0
  9 10  1  0  0  0
  5  4  1  0  0  0
  4  3  1  0  0  0
  3  2  1  0  0  0
  2  1  1  0  0  0
  1 11  1  0  0  0
 11 12  1  0  0  0
 12 13  2  0  0  0
 13 14  1  0  0  0
 14 15  1  0  0  0
 15 16  1  0  0  0
 16 17  1  0  0  0
 17 18  1  0  0  0
 18 19  1  0  0  0
M  END
> <minimizedAffinity>
-6.38735

> <CNNscore>
0.6336248517

> <CNNaffinity>
6.0709266663

> <CNN_VS>
3.8466899395

> <CNNaffinity_variance>
0.3280562758

$$$$
/media/chris/experiments/cd1a-new-docking/inputs/ligands/4x6d_2_ligand.pdb


 19 18  0  0  0  0  0  0  0  0999 V2000
  -43.3987   57.8549   65.9390 C   0  0  0  0  0  0  0  0  0  0  0  0
  -42.8945   59.2608   66.2341 C   0  0  0  0  0  0  0  0  0  0  0  0
  -41.3804   59.3250   66.3428 C   0  0  0  0  0  0  0  0  0  0  0  0
  -40.7397   58.7100   65.1094 C   0  0  0  0  0  0  0  0  0  0  0  0
  -39.7545   59.7025   64.5187 C   0  0  0  0  0  0  0  0  0  0  0  0
  -38.4235   59.6805   65.2534 C   0  0  0  0  0  0  0  0  0  0  0  0
  -38.1766   61.0350   65.8698 C   0  0  0  0  0  0  0  0  0  0  0  0
  -37.1603   61.2288   66.5650 O   0  0  0  0  0  0  0  0  0  0  0  0
  -38.9786   61.9782   65.7024 O   0  0  0  0  0  0  0  0  0  0  0  0
  -39.7483   61.8521   65.1831 H   0  0  0  0  0  0  0  0  0  0  0  0
  -44.4143   57.9687   64.8115 C   0  0  0  0  0  0  0  0  0  0  0  0
  -45.7944   57.5487   65.2574 C   0  0  0  0  0  0  0  0  0  0  0  0
  -46.8388   58.5672   65.4502 C   0  0  0  0  0  0  0  0  0  0  0  0
  -46.4537   60.0248   65.4124 C   0  0  0  0  0  0  0  0  0  0  0  0
  -47.6056   60.9002   65.8938 C   0  0  0  0  0  0  0  0  0  0  0  0
  -48.5153   61.2705   64.7226 C   0  0  0  0  0  0  0  0  0  0  0  0
  -49.9459   60.7800   64.9403 C   0  0  0  0  0  0  0  0  0  0  0  0
  -50.2565   59.5370   64.1025 C   0  0  0  0  0  0  0  0  0  0  0  0
  -51.0317   59.8582   62.8274 C   0  0  0  0  0  0  0  0  0  0  0  0
  7  8  2  0  0  0
  7  6  1  0  0  0
  7  9  1  0  0  0
  6  5  1  0  0  0
  9 10  1  0  0  0
  5  4  1  0  0  0
  4  3  1  0  0  0
  3  2  1  0  0  0
  2  1  1  0  0  0
  1 11  1  0  0  0
 11 12  1  0  0  0
 12 13  2  0  0  0
 13 14  1  0  0  0
 14 15  1  0  0  0
 15 16  1  0  0  0
 16 17  1  0  0  0
 17 18  1  0  0  0
 18 19  1  0  0  0
M  END
> <minimizedAffinity>
-6.43909

> <CNNscore>
0.6320982575

> <CNNaffinity>
5.8984169960

> <CNN_VS>
3.7283790112

> <CNNaffinity_variance>
0.2743286490

$$$$
/media/chris/experiments/cd1a-new-docking/inputs/ligands/4x6d_2_ligand.pdb


 19 18  0  0  0  0  0  0  0  0999 V2000
  -42.9471   59.9752   66.2790 C   0  0  0  0  0  0  0  0  0  0  0  0
  -42.0057   58.9063   65.7414 C   0  0  0  0  0  0  0  0  0  0  0  0
  -40.5862   59.4177   65.5628 C   0  0  0  0  0  0  0  0  0  0  0  0
  -39.9305   58.7393   64.3713 C   0  0  0  0  0  0  0  0  0  0  0  0
  -39.1238   59.7685   63.6002 C   0  0  0  0  0  0  0  0  0  0  0  0
  -38.5534   59.1899   62.3151 C   0  0  0  0  0  0  0  0  0  0  0  0
  -38.4895   60.2754   61.2697 C   0  0  0  0  0  0  0  0  0  0  0  0
  -37.9601   61.3713   61.5390 O   0  0  0  0  0  0  0  0  0  0  0  0
  -38.9645   60.1025   60.1272 O   0  0  0  0  0  0  0  0  0  0  0  0
  -39.3666   59.2856   59.9057 H   0  0  0  0  0  0  0  0  0  0  0  0
  -44.3612   59.4226   66.1755 C   0  0  0  0  0  0  0  0  0  0  0  0
  -45.2570   60.3269   65.3635 C   0  0  0  0  0  0  0  0  0  0  0  0
  -46.7177   60.1674   65.4432 C   0  0  0  0  0  0  0  0  0  0  0  0
  -47.2836   58.9672   66.1600 C   0  0  0  0  0  0  0  0  0  0  0  0
  -48.0832   58.0928   65.2005 C   0  0  0  0  0  0  0  0  0  0  0  0
  -48.5081   58.9018   63.9752 C   0  0  0  0  0  0  0  0  0  0  0  0
  -49.9762   58.6665   63.6231 C   0  0  0  0  0  0  0  0  0  0  0  0
  -50.7929   59.9595   63.6887 C   0  0  0  0  0  0  0  0  0  0  0  0
  -50.7966   60.5902   65.0788 C   0  0  0  0  0  0  0  0  0  0  0  0
  7  8  2  0  0  0
  7  6  1  0  0  0
  7  9  1  0  0  0
  6  5  1  0  0  0
  9 10  1  0  0  0
  5  4  1  0  0  0
  4  3  1  0  0  0
  3  2  1  0  0  0
  2  1  1  0  0  0
  1 11  1  0  0  0
 11 12  1  0  0  0
 12 13  2  0  0  0
 13 14  1  0  0  0
 14 15  1  0  0  0
 15 16  1  0  0  0
 16 17  1  0  0  0
 17 18  1  0  0  0
 18 19  1  0  0  0
M  END
> <minimizedAffinity>
-6.37376

> <CNNscore>
0.6252114773

> <CNNaffinity>
6.0140399933

> <CNN_VS>
3.7600467205

> <CNNaffinity_variance>
0.3214583099

$$$$
/media/chris/experiments/cd1a-new-docking/inputs/ligands/4x6d_2_ligand.pdb


 19 18  0  0  0  0  0  0  0  0999 V2000
  -41.0538   59.1853   65.8944 C   0  0  0  0  0  0  0  0  0  0  0  0
  -40.3332   59.2263   64.5539 C   0  0  0  0  0  0  0  0  0  0  0  0
  -38.9819   58.5333   64.5984 C   0  0  0  0  0  0  0  0  0  0  0  0
  -38.6534   57.9370   63.2395 C   0  0  0  0  0  0  0  0  0  0  0  0
  -37.5927   58.7915   62.5693 C   0  0  0  0  0  0  0  0  0  0  0  0
  -37.9530   59.1082   61.1265 C   0  0  0  0  0  0  0  0  0  0  0  0
  -38.4462   60.5312   61.0410 C   0  0  0  0  0  0  0  0  0  0  0  0
  -37.8724   61.4308   61.6854 O   0  0  0  0  0  0  0  0  0  0  0  0
  -39.4315   60.8334   60.3347 O   0  0  0  0  0  0  0  0  0  0  0  0
  -39.8761   60.1712   59.8430 H   0  0  0  0  0  0  0  0  0  0  0  0
  -42.4217   58.5646   65.6509 C   0  0  0  0  0  0  0  0  0  0  0  0
  -43.2789   59.4318   64.7605 C   0  0  0  0  0  0  0  0  0  0  0  0
  -44.5020   60.0458   65.3011 C   0  0  0  0  0  0  0  0  0  0  0  0
  -44.9918   59.6221   66.6631 C   0  0  0  0  0  0  0  0  0  0  0  0
  -46.5113   59.4966   66.6755 C   0  0  0  0  0  0  0  0  0  0  0  0
  -47.1066   60.1419   65.4242 C   0  0  0  0  0  0  0  0  0  0  0  0
  -48.2427   61.1035   65.7695 C   0  0  0  0  0  0  0  0  0  0  0  0
  -49.5907   60.3840   65.8620 C   0  0  0  0  0  0  0  0  0  0  0  0
  -50.2460   60.1721   64.4997 C   0  0  0  0  0  0  0  0  0  0  0  0
  7  8  2  0  0  0
  7  6  1  0  0  0
  7  9  1  0  0  0
  6  5  1  0  0  0
  9 10  1  0  0  0
  5  4  1  0  0  0
  4  3  1  0  0  0
  3  2  1  0  0  0
  2  1  1  0  0  0
  1 11  1  0  0  0
 11 12  1  0  0  0
 12 13  2  0  0  0
 13 14  1  0  0  0
 14 15  1  0  0  0
 15 16  1  0  0  0
 16 17  1  0  0  0
 17 18  1  0  0  0
 18 19  1  0  0  0
M  END
> <minimizedAffinity>
-6.45803

> <CNNscore>
0.6148134470

> <CNNaffinity>
5.8271088600

> <CNN_VS>
3.5825848579

> <CNNaffinity_variance>
0.1363053620

$$$$
