/media/chris/experiments/cd1a-new-docking/inputs/ligands/4x6d_2_ligand.pdb


 19 18  0  0  0  0  0  0  0  0999 V2000
  -46.9785   57.1381   65.7604 C   0  0  0  0  0  0  0  0  0  0  0  0
  -45.5668   57.5484   66.1560 C   0  0  0  0  0  0  0  0  0  0  0  0
  -44.5595   57.3149   65.0430 C   0  0  0  0  0  0  0  0  0  0  0  0
  -43.4856   58.3900   65.0736 C   0  0  0  0  0  0  0  0  0  0  0  0
  -42.6119   58.1798   66.2970 C   0  0  0  0  0  0  0  0  0  0  0  0
  -41.4514   59.1612   66.3361 C   0  0  0  0  0  0  0  0  0  0  0  0
  -41.9875   60.5519   66.5685 C   0  0  0  0  0  0  0  0  0  0  0  0
  -41.8322   61.4340   65.7015 O   0  0  0  0  0  0  0  0  0  0  0  0
  -42.5870   60.8464   67.6242 O   0  0  0  0  0  0  0  0  0  0  0  0
  -42.7136   60.1972   68.2879 H   0  0  0  0  0  0  0  0  0  0  0  0
  -47.5848   58.3005   64.9876 C   0  0  0  0  0  0  0  0  0  0  0  0
  -49.0154   58.5579   65.3960 C   0  0  0  0  0  0  0  0  0  0  0  0
  -50.0288   58.8328   64.3651 C   0  0  0  0  0  0  0  0  0  0  0  0
  -49.5807   59.0690   62.9446 C   0  0  0  0  0  0  0  0  0  0  0  0
  -50.6632   58.6425   61.9591 C   0  0  0  0  0  0  0  0  0  0  0  0
  -50.1245   57.5714   61.0111 C   0  0  0  0  0  0  0  0  0  0  0  0
  -50.3437   57.9497   59.5470 C   0  0  0  0  0  0  0  0  0  0  0  0
  -49.1430   57.5745   58.6748 C   0  0  0  0  0  0  0  0  0  0  0  0
  -47.8049   57.8896   59.3383 C   0  0  0  0  0  0  0  0  0  0  0  0
  7  8  2  0  0  0
  7  6  1  0  0  0
  7  9  1  0  0  0
  6  5  1  0  0  0
  9 10  1  0  0  0
  5  4  1  0  0  0
  4  3  1  0  0  0
  3  2  1  0  0  0
  2  1  1  0  0  0
  1 11  1  0  0  0
 11 12  1  0  0  0
 12 13  2  0  0  0
 13 14  1  0  0  0
 14 15  1  0  0  0
 15 16  1  0  0  0
 16 17  1  0  0  0
 17 18  1  0  0  0
 18 19  1  0  0  0
M  END
> <minimizedAffinity>
-6.92192

> <CNNscore>
0.7833306193

> <CNNaffinity>
6.3421506882

> <CNN_VS>
4.9680008888

> <CNNaffinity_variance>
0.4282246232

$$$$
/media/chris/experiments/cd1a-new-docking/inputs/ligands/4x6d_2_ligand.pdb


 19 18  0  0  0  0  0  0  0  0999 V2000
  -44.2924   59.2587   65.9750 C   0  0  0  0  0  0  0  0  0  0  0  0
  -43.2726   60.0487   66.7835 C   0  0  0  0  0  0  0  0  0  0  0  0
  -41.8718   59.4704   66.6773 C   0  0  0  0  0  0  0  0  0  0  0  0
  -41.5812   59.0599   65.2430 C   0  0  0  0  0  0  0  0  0  0  0  0
  -40.1272   59.3616   64.9286 C   0  0  0  0  0  0  0  0  0  0  0  0
  -39.3884   58.1263   64.4389 C   0  0  0  0  0  0  0  0  0  0  0  0
  -38.7571   58.4252   63.1019 C   0  0  0  0  0  0  0  0  0  0  0  0
  -38.1085   57.5430   62.5063 O   0  0  0  0  0  0  0  0  0  0  0  0
  -38.8659   59.5514   62.5721 O   0  0  0  0  0  0  0  0  0  0  0  0
  -39.3495   60.2277   63.0042 H   0  0  0  0  0  0  0  0  0  0  0  0
  -45.5903   59.2542   66.7695 C   0  0  0  0  0  0  0  0  0  0  0  0
  -46.2921   57.9199   66.6869 C   0  0  0  0  0  0  0  0  0  0  0  0
  -47.3375   57.7084   65.6731 C   0  0  0  0  0  0  0  0  0  0  0  0
  -47.8402   58.8913   64.8842 C   0  0  0  0  0  0  0  0  0  0  0  0
  -48.8399   58.4464   63.8223 C   0  0  0  0  0  0  0  0  0  0  0  0
  -50.1228   59.2711   63.9236 C   0  0  0  0  0  0  0  0  0  0  0  0
  -50.8059   59.4239   62.5655 C   0  0  0  0  0  0  0  0  0  0  0  0
  -50.1170   58.5890   61.4831 C   0  0  0  0  0  0  0  0  0  0  0  0
  -51.0376   57.5392   60.8663 C   0  0  0  0  0  0  0  0  0  0  0  0
  7  8  2  0  0  0
  7  6  1  0  0  0
  7  9  1  0  0  0
  6  5  1  0  0  0
  9 10  1  0  0  0
  5  4  1  0  0  0
  4  3  1  0  0  0
  3  2  1  0  0  0
  2  1  1  0  0  0
  1 11  1  0  0  0
 11 12  1  0  0  0
 12 13  2  0  0  0
 13 14  1  0  0  0
 14 15  1  0  0  0
 15 16  1  0  0  0
 16 17  1  0  0  0
 17 18  1  0  0  0
 18 19  1  0  0  0
M  END
> <minimizedAffinity>
-6.57660

> <CNNscore>
0.7695482969

> <CNNaffinity>
6.2506828308

> <CNN_VS>
4.8102021217

> <CNNaffinity_variance>
0.3566482663

$$$$
/media/chris/experiments/cd1a-new-docking/inputs/ligands/4x6d_2_ligand.pdb


 19 18  0  0  0  0  0  0  0  0999 V2000
  -46.1021   58.4027   65.7228 C   0  0  0  0  0  0  0  0  0  0  0  0
  -45.5898   59.5939   66.5205 C   0  0  0  0  0  0  0  0  0  0  0  0
  -44.1183   59.8742   66.2674 C   0  0  0  0  0  0  0  0  0  0  0  0
  -43.9338   60.5141   64.9012 C   0  0  0  0  0  0  0  0  0  0  0  0
  -42.5888   60.0933   64.3371 C   0  0  0  0  0  0  0  0  0  0  0  0
  -41.6160   61.2598   64.2700 C   0  0  0  0  0  0  0  0  0  0  0  0
  -40.7633   61.2649   65.5143 C   0  0  0  0  0  0  0  0  0  0  0  0
  -40.5661   60.2052   66.1405 O   0  0  0  0  0  0  0  0  0  0  0  0
  -40.2470   62.3195   65.9409 O   0  0  0  0  0  0  0  0  0  0  0  0
  -40.3836   63.1261   65.4841 H   0  0  0  0  0  0  0  0  0  0  0  0
  -47.2695   58.8947   64.8795 C   0  0  0  0  0  0  0  0  0  0  0  0
  -47.6698   60.3036   65.2462 C   0  0  0  0  0  0  0  0  0  0  0  0
  -49.0924   60.6322   65.4292 C   0  0  0  0  0  0  0  0  0  0  0  0
  -50.1338   59.6155   65.0340 C   0  0  0  0  0  0  0  0  0  0  0  0
  -51.0388   60.1679   63.9381 C   0  0  0  0  0  0  0  0  0  0  0  0
  -50.4484   59.8660   62.5610 C   0  0  0  0  0  0  0  0  0  0  0  0
  -50.1467   58.3780   62.3886 C   0  0  0  0  0  0  0  0  0  0  0  0
  -50.8990   57.7775   61.1983 C   0  0  0  0  0  0  0  0  0  0  0  0
  -50.0705   57.7655   59.9163 C   0  0  0  0  0  0  0  0  0  0  0  0
  7  8  2  0  0  0
  7  6  1  0  0  0
  7  9  1  0  0  0
  6  5  1  0  0  0
  9 10  1  0  0  0
  5  4  1  0  0  0
  4  3  1  0  0  0
  3  2  1  0  0  0
  2  1  1  0  0  0
  1 11  1  0  0  0
 11 12  1  0  0  0
 12 13  2  0  0  0
 13 14  1  0  0  0
 14 15  1  0  0  0
 15 16  1  0  0  0
 16 17  1  0  0  0
 17 18  1  0  0  0
 18 19  1  0  0  0
M  END
> <minimizedAffinity>
-6.64493

> <CNNscore>
0.7221298814

> <CNNaffinity>
6.2780308723

> <CNN_VS>
4.5335536003

> <CNNaffinity_variance>
0.4500430524

$$$$
/media/chris/experiments/cd1a-new-docking/inputs/ligands/4x6d_2_ligand.pdb


 19 18  0  0  0  0  0  0  0  0999 V2000
  -41.8018   59.3473   66.8913 C   0  0  0  0  0  0  0  0  0  0  0  0
  -41.6073   58.8631   65.4611 C   0  0  0  0  0  0  0  0  0  0  0  0
  -40.2061   59.1344   64.9404 C   0  0  0  0  0  0  0  0  0  0  0  0
  -39.7819   60.5513   65.2902 C   0  0  0  0  0  0  0  0  0  0  0  0
  -38.4107   60.5093   65.9400 C   0  0  0  0  0  0  0  0  0  0  0  0
  -37.2961   60.6165   64.9115 C   0  0  0  0  0  0  0  0  0  0  0  0
  -36.9573   62.0709   64.6992 C   0  0  0  0  0  0  0  0  0  0  0  0
  -36.4985   62.4520   63.6046 O   0  0  0  0  0  0  0  0  0  0  0  0
  -37.1231   62.9133   65.6068 O   0  0  0  0  0  0  0  0  0  0  0  0
  -37.4668   62.6464   66.4366 H   0  0  0  0  0  0  0  0  0  0  0  0
  -43.0571   60.2074   66.9082 C   0  0  0  0  0  0  0  0  0  0  0  0
  -43.6942   60.2939   65.5420 C   0  0  0  0  0  0  0  0  0  0  0  0
  -45.1417   60.0717   65.3982 C   0  0  0  0  0  0  0  0  0  0  0  0
  -45.9213   59.5474   66.5779 C   0  0  0  0  0  0  0  0  0  0  0  0
  -46.6707   58.2726   66.2063 C   0  0  0  0  0  0  0  0  0  0  0  0
  -47.4890   58.4908   64.9338 C   0  0  0  0  0  0  0  0  0  0  0  0
  -48.9887   58.3630   65.1967 C   0  0  0  0  0  0  0  0  0  0  0  0
  -49.8202   58.8619   64.0122 C   0  0  0  0  0  0  0  0  0  0  0  0
  -49.2532   58.4275   62.6631 C   0  0  0  0  0  0  0  0  0  0  0  0
  7  8  2  0  0  0
  7  6  1  0  0  0
  7  9  1  0  0  0
  6  5  1  0  0  0
  9 10  1  0  0  0
  5  4  1  0  0  0
  4  3  1  0  0  0
  3  2  1  0  0  0
  2  1  1  0  0  0
  1 11  1  0  0  0
 11 12  1  0  0  0
 12 13  2  0  0  0
 13 14  1  0  0  0
 14 15  1  0  0  0
 15 16  1  0  0  0
 16 17  1  0  0  0
 17 18  1  0  0  0
 18 19  1  0  0  0
M  END
> <minimizedAffinity>
-6.19924

> <CNNscore>
0.6646125317

> <CNNaffinity>
5.9184870720

> <CNN_VS>
3.9335007668

> <CNNaffinity_variance>
0.1466379762

$$$$
/media/chris/experiments/cd1a-new-docking/inputs/ligands/4x6d_2_ligand.pdb


 19 18  0  0  0  0  0  0  0  0999 V2000
  -47.4014   60.9020   65.0933 C   0  0  0  0  0  0  0  0  0  0  0  0
  -46.7787   59.6851   65.7634 C   0  0  0  0  0  0  0  0  0  0  0  0
  -45.3940   59.9715   66.3189 C   0  0  0  0  0  0  0  0  0  0  0  0
  -44.4084   60.1910   65.1830 C   0  0  0  0  0  0  0  0  0  0  0  0
  -43.8690   58.8459   64.7313 C   0  0  0  0  0  0  0  0  0  0  0  0
  -43.1809   58.1046   65.8665 C   0  0  0  0  0  0  0  0  0  0  0  0
  -41.8622   58.7729   66.1659 C   0  0  0  0  0  0  0  0  0  0  0  0
  -40.9458   58.7526   65.3211 O   0  0  0  0  0  0  0  0  0  0  0  0
  -41.6616   59.3498   67.2557 O   0  0  0  0  0  0  0  0  0  0  0  0
  -42.3381   59.3758   67.9035 H   0  0  0  0  0  0  0  0  0  0  0  0
  -48.6577   60.4277   64.3773 C   0  0  0  0  0  0  0  0  0  0  0  0
  -48.6697   58.9280   64.2033 C   0  0  0  0  0  0  0  0  0  0  0  0
  -49.3517   58.3351   63.0419 C   0  0  0  0  0  0  0  0  0  0  0  0
  -50.2096   59.2170   62.1697 C   0  0  0  0  0  0  0  0  0  0  0  0
  -50.0337   58.8562   60.6987 C   0  0  0  0  0  0  0  0  0  0  0  0
  -48.8433   57.9137   60.5229 C   0  0  0  0  0  0  0  0  0  0  0  0
  -48.4156   57.8094   59.0597 C   0  0  0  0  0  0  0  0  0  0  0  0
  -46.8968   57.9146   58.9003 C   0  0  0  0  0  0  0  0  0  0  0  0
  -46.4821   58.6364   57.6208 C   0  0  0  0  0  0  0  0  0  0  0  0
  7  8  2  0  0  0
  7  6  1  0  0  0
  7  9  1  0  0  0
  6  5  1  0  0  0
  9 10  1  0  0  0
  5  4  1  0  0  0
  4  3  1  0  0  0
  3  2  1  0  0  0
  2  1  1  0  0  0
  1 11  1  0  0  0
 11 12  1  0  0  0
 12 13  2  0  0  0
 13 14  1  0  0  0
 14 15  1  0  0  0
 15 16  1  0  0  0
 16 17  1  0  0  0
 17 18  1  0  0  0
 18 19  1  0  0  0
M  END
> <minimizedAffinity>
-6.88634

> <CNNscore>
0.6497063637

> <CNNaffinity>
6.2383861542

> <CNN_VS>
4.0531191826

> <CNNaffinity_variance>
0.3251841664

$$$$
/media/chris/experiments/cd1a-new-docking/inputs/ligands/4x6d_2_ligand.pdb


 19 18  0  0  0  0  0  0  0  0999 V2000
  -41.4204   59.0799   66.2427 C   0  0  0  0  0  0  0  0  0  0  0  0
  -40.5598   59.8019   65.2151 C   0  0  0  0  0  0  0  0  0  0  0  0
  -39.1822   59.1784   65.0688 C   0  0  0  0  0  0  0  0  0  0  0  0
  -39.2180   58.0639   64.0360 C   0  0  0  0  0  0  0  0  0  0  0  0
  -38.4956   58.5281   62.7843 C   0  0  0  0  0  0  0  0  0  0  0  0
  -37.4493   57.5221   62.3316 C   0  0  0  0  0  0  0  0  0  0  0  0
  -37.1247   57.7660   60.8789 C   0  0  0  0  0  0  0  0  0  0  0  0
  -36.3689   56.9851   60.2682 O   0  0  0  0  0  0  0  0  0  0  0  0
  -37.5972   58.7466   60.2659 O   0  0  0  0  0  0  0  0  0  0  0  0
  -38.1673   59.3449   60.7076 H   0  0  0  0  0  0  0  0  0  0  0  0
  -42.6543   58.5664   65.5149 C   0  0  0  0  0  0  0  0  0  0  0  0
  -43.3274   59.6572   64.7169 C   0  0  0  0  0  0  0  0  0  0  0  0
  -44.5735   60.2607   65.2152 C   0  0  0  0  0  0  0  0  0  0  0  0
  -45.2698   59.6304   66.3952 C   0  0  0  0  0  0  0  0  0  0  0  0
  -46.7698   59.8993   66.3437 C   0  0  0  0  0  0  0  0  0  0  0  0
  -47.0899   60.9066   65.2395 C   0  0  0  0  0  0  0  0  0  0  0  0
  -48.3311   60.5009   64.4460 C   0  0  0  0  0  0  0  0  0  0  0  0
  -48.6817   59.0249   64.6505 C   0  0  0  0  0  0  0  0  0  0  0  0
  -49.5583   58.4621   63.5347 C   0  0  0  0  0  0  0  0  0  0  0  0
  7  8  2  0  0  0
  7  6  1  0  0  0
  7  9  1  0  0  0
  6  5  1  0  0  0
  9 10  1  0  0  0
  5  4  1  0  0  0
  4  3  1  0  0  0
  3  2  1  0  0  0
  2  1  1  0  0  0
  1 11  1  0  0  0
 11 12  1  0  0  0
 12 13  2  0  0  0
 13 14  1  0  0  0
 14 15  1  0  0  0
 15 16  1  0  0  0
 16 17  1  0  0  0
 17 18  1  0  0  0
 18 19  1  0  0  0
M  END
> <minimizedAffinity>
-6.34725

> <CNNscore>
0.5623320341

> <CNNaffinity>
5.8919529915

> <CNN_VS>
3.3132338524

> <CNNaffinity_variance>
0.2459027469

$$$$
/media/chris/experiments/cd1a-new-docking/inputs/ligands/4x6d_2_ligand.pdb


 19 18  0  0  0  0  0  0  0  0999 V2000
  -42.7281   57.9915   65.9001 C   0  0  0  0  0  0  0  0  0  0  0  0
  -42.1041   59.2232   66.5415 C   0  0  0  0  0  0  0  0  0  0  0  0
  -40.6743   59.4562   66.0841 C   0  0  0  0  0  0  0  0  0  0  0  0
  -40.4083   58.7040   64.7905 C   0  0  0  0  0  0  0  0  0  0  0  0
  -38.9085   58.5813   64.5908 C   0  0  0  0  0  0  0  0  0  0  0  0
  -38.5665   58.0245   63.2179 C   0  0  0  0  0  0  0  0  0  0  0  0
  -37.0850   57.7491   63.1511 C   0  0  0  0  0  0  0  0  0  0  0  0
  -36.4714   57.8905   62.0753 O   0  0  0  0  0  0  0  0  0  0  0  0
  -36.4504   57.3734   64.1594 O   0  0  0  0  0  0  0  0  0  0  0  0
  -36.8938   57.2612   64.9772 H   0  0  0  0  0  0  0  0  0  0  0  0
  -44.1277   58.3806   65.4467 C   0  0  0  0  0  0  0  0  0  0  0  0
  -44.1875   59.8178   64.9876 C   0  0  0  0  0  0  0  0  0  0  0  0
  -45.4056   60.6082   65.2257 C   0  0  0  0  0  0  0  0  0  0  0  0
  -46.6452   59.9082   65.7236 C   0  0  0  0  0  0  0  0  0  0  0  0
  -47.7736   60.9074   65.9542 C   0  0  0  0  0  0  0  0  0  0  0  0
  -48.6701   60.9886   64.7189 C   0  0  0  0  0  0  0  0  0  0  0  0
  -49.5887   59.7729   64.6056 C   0  0  0  0  0  0  0  0  0  0  0  0
  -50.7788   60.0411   63.6809 C   0  0  0  0  0  0  0  0  0  0  0  0
  -50.7679   59.1671   62.4294 C   0  0  0  0  0  0  0  0  0  0  0  0
  7  8  2  0  0  0
  7  6  1  0  0  0
  7  9  1  0  0  0
  6  5  1  0  0  0
  9 10  1  0  0  0
  5  4  1  0  0  0
  4  3  1  0  0  0
  3  2  1  0  0  0
  2  1  1  0  0  0
  1 11  1  0  0  0
 11 12  1  0  0  0
 12 13  2  0  0  0
 13 14  1  0  0  0
 14 15  1  0  0  0
 15 16  1  0  0  0
 16 17  1  0  0  0
 17 18  1  0  0  0
 18 19  1  0  0  0
M  END
> <minimizedAffinity>
-6.27536

> <CNNscore>
0.5564206243

> <CNNaffinity>
5.8882060051

> <CNN_VS>
3.2763192654

> <CNNaffinity_variance>
0.2909112573

$$$$
/media/chris/experiments/cd1a-new-docking/inputs/ligands/4x6d_2_ligand.pdb


 19 18  0  0  0  0  0  0  0  0999 V2000
  -39.2284   58.0320   64.1743 C   0  0  0  0  0  0  0  0  0  0  0  0
  -37.7541   58.3018   64.4415 C   0  0  0  0  0  0  0  0  0  0  0  0
  -36.8572   57.7857   63.3291 C   0  0  0  0  0  0  0  0  0  0  0  0
  -37.6923   57.3946   62.1210 C   0  0  0  0  0  0  0  0  0  0  0  0
  -36.9006   57.6859   60.8590 C   0  0  0  0  0  0  0  0  0  0  0  0
  -36.0532   56.4959   60.4380 C   0  0  0  0  0  0  0  0  0  0  0  0
  -35.0590   56.9412   59.3946 C   0  0  0  0  0  0  0  0  0  0  0  0
  -34.8824   56.2567   58.3680 O   0  0  0  0  0  0  0  0  0  0  0  0
  -34.3963   57.9904   59.5382 O   0  0  0  0  0  0  0  0  0  0  0  0
  -34.5148   58.5184   60.3032 H   0  0  0  0  0  0  0  0  0  0  0  0
  -39.9662   59.3512   64.3503 C   0  0  0  0  0  0  0  0  0  0  0  0
  -40.3725   59.5775   65.7867 C   0  0  0  0  0  0  0  0  0  0  0  0
  -41.7383   59.2412   66.2188 C   0  0  0  0  0  0  0  0  0  0  0  0
  -42.7679   58.8854   65.1758 C   0  0  0  0  0  0  0  0  0  0  0  0
  -43.5760   57.6670   65.6087 C   0  0  0  0  0  0  0  0  0  0  0  0
  -44.9602   57.6917   64.9607 C   0  0  0  0  0  0  0  0  0  0  0  0
  -46.0584   57.3260   65.9581 C   0  0  0  0  0  0  0  0  0  0  0  0
  -46.2469   58.4103   67.0222 C   0  0  0  0  0  0  0  0  0  0  0  0
  -46.5268   59.7869   66.4249 C   0  0  0  0  0  0  0  0  0  0  0  0
  7  8  2  0  0  0
  7  6  1  0  0  0
  7  9  1  0  0  0
  6  5  1  0  0  0
  9 10  1  0  0  0
  5  4  1  0  0  0
  4  3  1  0  0  0
  3  2  1  0  0  0
  2  1  1  0  0  0
  1 11  1  0  0  0
 11 12  1  0  0  0
 12 13  2  0  0  0
 13 14  1  0  0  0
 14 15  1  0  0  0
 15 16  1  0  0  0
 16 17  1  0  0  0
 17 18  1  0  0  0
 18 19  1  0  0  0
M  END
> <minimizedAffinity>
-6.14169

> <CNNscore>
0.5519765019

> <CNNaffinity>
5.5659317970

> <CNN_VS>
3.0722634792

> <CNNaffinity_variance>
0.0680304319

$$$$
/media/chris/experiments/cd1a-new-docking/inputs/ligands/4x6d_2_ligand.pdb


 19 18  0  0  0  0  0  0  0  0999 V2000
  -41.5111   59.6638   66.5986 C   0  0  0  0  0  0  0  0  0  0  0  0
  -41.4500   58.9285   65.2670 C   0  0  0  0  0  0  0  0  0  0  0  0
  -40.2681   59.3621   64.4165 C   0  0  0  0  0  0  0  0  0  0  0  0
  -39.1378   58.3531   64.5362 C   0  0  0  0  0  0  0  0  0  0  0  0
  -38.5577   58.0965   63.1571 C   0  0  0  0  0  0  0  0  0  0  0  0
  -38.5829   59.3475   62.2934 C   0  0  0  0  0  0  0  0  0  0  0  0
  -37.2540   60.0525   62.4053 C   0  0  0  0  0  0  0  0  0  0  0  0
  -36.1998   59.4442   62.1364 O   0  0  0  0  0  0  0  0  0  0  0  0
  -37.1828   61.2452   62.7701 O   0  0  0  0  0  0  0  0  0  0  0  0
  -37.9641   61.7194   62.9768 H   0  0  0  0  0  0  0  0  0  0  0  0
  -42.9481   60.1256   66.7920 C   0  0  0  0  0  0  0  0  0  0  0  0
  -43.6158   60.4422   65.4753 C   0  0  0  0  0  0  0  0  0  0  0  0
  -45.0773   60.3227   65.3526 C   0  0  0  0  0  0  0  0  0  0  0  0
  -45.8543   59.6782   66.4730 C   0  0  0  0  0  0  0  0  0  0  0  0
  -47.3338   59.5803   66.1172 C   0  0  0  0  0  0  0  0  0  0  0  0
  -47.9769   60.9668   66.1391 C   0  0  0  0  0  0  0  0  0  0  0  0
  -48.4269   61.4036   64.7458 C   0  0  0  0  0  0  0  0  0  0  0  0
  -49.6092   60.5724   64.2412 C   0  0  0  0  0  0  0  0  0  0  0  0
  -50.8063   60.6058   65.1878 C   0  0  0  0  0  0  0  0  0  0  0  0
  7  8  2  0  0  0
  7  6  1  0  0  0
  7  9  1  0  0  0
  6  5  1  0  0  0
  9 10  1  0  0  0
  5  4  1  0  0  0
  4  3  1  0  0  0
  3  2  1  0  0  0
  2  1  1  0  0  0
  1 11  1  0  0  0
 11 12  1  0  0  0
 12 13  2  0  0  0
 13 14  1  0  0  0
 14 15  1  0  0  0
 15 16  1  0  0  0
 16 17  1  0  0  0
 17 18  1  0  0  0
 18 19  1  0  0  0
M  END
> <minimizedAffinity>
-6.42326

> <CNNscore>
0.5500337481

> <CNNaffinity>
5.7375001907

> <CNN_VS>
3.1558187008

> <CNNaffinity_variance>
0.1140145063

$$$$
