/media/chris/experiments/cd1a-new-docking/inputs/ligands/4x6d_2_ligand.pdb


 19 18  0  0  0  0  0  0  0  0999 V2000
  -48.0677   59.9795   65.5198 C   0  0  0  0  0  0  0  0  0  0  0  0
  -46.7706   60.7064   65.1928 C   0  0  0  0  0  0  0  0  0  0  0  0
  -45.5846   60.1567   65.9670 C   0  0  0  0  0  0  0  0  0  0  0  0
  -44.2948   60.4216   65.2080 C   0  0  0  0  0  0  0  0  0  0  0  0
  -43.1359   59.8134   65.9771 C   0  0  0  0  0  0  0  0  0  0  0  0
  -42.3477   60.8689   66.7363 C   0  0  0  0  0  0  0  0  0  0  0  0
  -41.1714   61.3052   65.8988 C   0  0  0  0  0  0  0  0  0  0  0  0
  -40.6592   60.5154   65.0818 O   0  0  0  0  0  0  0  0  0  0  0  0
  -40.6889   62.4524   66.0085 O   0  0  0  0  0  0  0  0  0  0  0  0
  -41.0600   63.0606   66.6169 H   0  0  0  0  0  0  0  0  0  0  0  0
  -48.5477   59.3167   64.2368 C   0  0  0  0  0  0  0  0  0  0  0  0
  -49.9286   59.7869   63.8472 C   0  0  0  0  0  0  0  0  0  0  0  0
  -50.6230   59.1497   62.7171 C   0  0  0  0  0  0  0  0  0  0  0  0
  -49.8591   58.1944   61.8350 C   0  0  0  0  0  0  0  0  0  0  0  0
  -50.6669   57.8459   60.5897 C   0  0  0  0  0  0  0  0  0  0  0  0
  -49.7793   57.9102   59.3470 C   0  0  0  0  0  0  0  0  0  0  0  0
  -48.6035   56.9388   59.4406 C   0  0  0  0  0  0  0  0  0  0  0  0
  -47.2598   57.6506   59.2635 C   0  0  0  0  0  0  0  0  0  0  0  0
  -47.2211   58.5486   58.0297 C   0  0  0  0  0  0  0  0  0  0  0  0
  7  8  2  0  0  0
  7  6  1  0  0  0
  7  9  1  0  0  0
  6  5  1  0  0  0
  9 10  1  0  0  0
  5  4  1  0  0  0
  4  3  1  0  0  0
  3  2  1  0  0  0
  2  1  1  0  0  0
  1 11  1  0  0  0
 11 12  1  0  0  0
 12 13  2  0  0  0
 13 14  1  0  0  0
 14 15  1  0  0  0
 15 16  1  0  0  0
 16 17  1  0  0  0
 17 18  1  0  0  0
 18 19  1  0  0  0
M  END
> <minimizedAffinity>
-7.08389

> <CNNscore>
0.8629468679

> <CNNaffinity>
6.4826483727

> <CNN_VS>
5.5941810608

> <CNNaffinity_variance>
0.5459136963

$$$$
/media/chris/experiments/cd1a-new-docking/inputs/ligands/4x6d_2_ligand.pdb


 19 18  0  0  0  0  0  0  0  0999 V2000
  -44.5706   57.8245   64.5605 C   0  0  0  0  0  0  0  0  0  0  0  0
  -43.6994   58.8097   65.3274 C   0  0  0  0  0  0  0  0  0  0  0  0
  -42.5401   58.1311   66.0372 C   0  0  0  0  0  0  0  0  0  0  0  0
  -41.4080   59.1211   66.2566 C   0  0  0  0  0  0  0  0  0  0  0  0
  -40.3890   58.9599   65.1429 C   0  0  0  0  0  0  0  0  0  0  0  0
  -40.0552   60.2906   64.4877 C   0  0  0  0  0  0  0  0  0  0  0  0
  -39.5956   61.2618   65.5465 C   0  0  0  0  0  0  0  0  0  0  0  0
  -38.4926   61.1014   66.1046 O   0  0  0  0  0  0  0  0  0  0  0  0
  -40.3045   62.2330   65.8854 O   0  0  0  0  0  0  0  0  0  0  0  0
  -41.1367   62.3706   65.4776 H   0  0  0  0  0  0  0  0  0  0  0  0
  -46.0011   58.0199   65.0415 C   0  0  0  0  0  0  0  0  0  0  0  0
  -46.3134   59.4760   65.2905 C   0  0  0  0  0  0  0  0  0  0  0  0
  -47.6400   60.0068   64.9387 C   0  0  0  0  0  0  0  0  0  0  0  0
  -48.5831   59.1445   64.1378 C   0  0  0  0  0  0  0  0  0  0  0  0
  -50.0233   59.6140   64.3117 C   0  0  0  0  0  0  0  0  0  0  0  0
  -50.7703   59.5367   62.9803 C   0  0  0  0  0  0  0  0  0  0  0  0
  -49.9357   58.8465   61.9025 C   0  0  0  0  0  0  0  0  0  0  0  0
  -50.7737   57.8763   61.0659 C   0  0  0  0  0  0  0  0  0  0  0  0
  -50.4866   57.9802   59.5703 C   0  0  0  0  0  0  0  0  0  0  0  0
  7  8  2  0  0  0
  7  6  1  0  0  0
  7  9  1  0  0  0
  6  5  1  0  0  0
  9 10  1  0  0  0
  5  4  1  0  0  0
  4  3  1  0  0  0
  3  2  1  0  0  0
  2  1  1  0  0  0
  1 11  1  0  0  0
 11 12  1  0  0  0
 12 13  2  0  0  0
 13 14  1  0  0  0
 14 15  1  0  0  0
 15 16  1  0  0  0
 16 17  1  0  0  0
 17 18  1  0  0  0
 18 19  1  0  0  0
M  END
> <minimizedAffinity>
-6.70211

> <CNNscore>
0.7980723381

> <CNNaffinity>
6.2926144600

> <CNN_VS>
5.0219616890

> <CNNaffinity_variance>
0.4159323275

$$$$
/media/chris/experiments/cd1a-new-docking/inputs/ligands/4x6d_2_ligand.pdb


 19 18  0  0  0  0  0  0  0  0999 V2000
  -48.7083   57.9820   65.1207 C   0  0  0  0  0  0  0  0  0  0  0  0
  -48.0941   59.0262   66.0428 C   0  0  0  0  0  0  0  0  0  0  0  0
  -46.5758   58.9730   66.0523 C   0  0  0  0  0  0  0  0  0  0  0  0
  -46.1027   57.5409   66.2405 C   0  0  0  0  0  0  0  0  0  0  0  0
  -45.0082   57.2463   65.2306 C   0  0  0  0  0  0  0  0  0  0  0  0
  -44.3161   58.5168   64.7629 C   0  0  0  0  0  0  0  0  0  0  0  0
  -42.9169   58.5533   65.3251 C   0  0  0  0  0  0  0  0  0  0  0  0
  -42.0691   59.3281   64.8405 O   0  0  0  0  0  0  0  0  0  0  0  0
  -42.5811   57.8133   66.2740 O   0  0  0  0  0  0  0  0  0  0  0  0
  -43.2040   57.2242   66.6519 H   0  0  0  0  0  0  0  0  0  0  0  0
  -48.7025   58.5643   63.7147 C   0  0  0  0  0  0  0  0  0  0  0  0
  -50.0672   59.0702   63.3132 C   0  0  0  0  0  0  0  0  0  0  0  0
  -50.6811   58.5953   62.0631 C   0  0  0  0  0  0  0  0  0  0  0  0
  -49.8478   57.7862   61.1011 C   0  0  0  0  0  0  0  0  0  0  0  0
  -50.2562   58.0722   59.6603 C   0  0  0  0  0  0  0  0  0  0  0  0
  -49.0904   57.7898   58.7129 C   0  0  0  0  0  0  0  0  0  0  0  0
  -47.8564   57.2952   59.4661 C   0  0  0  0  0  0  0  0  0  0  0  0
  -46.5657   57.8962   58.9036 C   0  0  0  0  0  0  0  0  0  0  0  0
  -46.7870   58.6730   57.6083 C   0  0  0  0  0  0  0  0  0  0  0  0
  7  8  2  0  0  0
  7  6  1  0  0  0
  7  9  1  0  0  0
  6  5  1  0  0  0
  9 10  1  0  0  0
  5  4  1  0  0  0
  4  3  1  0  0  0
  3  2  1  0  0  0
  2  1  1  0  0  0
  1 11  1  0  0  0
 11 12  1  0  0  0
 12 13  2  0  0  0
 13 14  1  0  0  0
 14 15  1  0  0  0
 15 16  1  0  0  0
 16 17  1  0  0  0
 17 18  1  0  0  0
 18 19  1  0  0  0
M  END
> <minimizedAffinity>
-7.08659

> <CNNscore>
0.7001054883

> <CNNaffinity>
6.3195390701

> <CNN_VS>
4.4243440628

> <CNNaffinity_variance>
0.2282659113

$$$$
/media/chris/experiments/cd1a-new-docking/inputs/ligands/4x6d_2_ligand.pdb


 19 18  0  0  0  0  0  0  0  0999 V2000
  -46.1471   58.5216   64.9185 C   0  0  0  0  0  0  0  0  0  0  0  0
  -44.6622   58.2765   64.6885 C   0  0  0  0  0  0  0  0  0  0  0  0
  -43.9524   57.7886   65.9400 C   0  0  0  0  0  0  0  0  0  0  0  0
  -42.4987   58.2319   65.9247 C   0  0  0  0  0  0  0  0  0  0  0  0
  -42.4050   59.5929   65.2588 C   0  0  0  0  0  0  0  0  0  0  0  0
  -42.1682   60.7011   66.2725 C   0  0  0  0  0  0  0  0  0  0  0  0
  -40.8790   61.4096   65.9385 C   0  0  0  0  0  0  0  0  0  0  0  0
  -39.8790   60.7539   65.5865 O   0  0  0  0  0  0  0  0  0  0  0  0
  -40.7865   62.6533   66.0111 O   0  0  0  0  0  0  0  0  0  0  0  0
  -41.5270   63.1637   66.2736 H   0  0  0  0  0  0  0  0  0  0  0  0
  -46.2679   59.7558   65.8005 C   0  0  0  0  0  0  0  0  0  0  0  0
  -46.8541   60.9260   65.0477 C   0  0  0  0  0  0  0  0  0  0  0  0
  -48.2679   61.2837   65.2440 C   0  0  0  0  0  0  0  0  0  0  0  0
  -49.1577   60.3462   66.0210 C   0  0  0  0  0  0  0  0  0  0  0  0
  -50.4179   60.0168   65.2285 C   0  0  0  0  0  0  0  0  0  0  0  0
  -50.0876   59.0644   64.0795 C   0  0  0  0  0  0  0  0  0  0  0  0
  -50.7245   59.5187   62.7671 C   0  0  0  0  0  0  0  0  0  0  0  0
  -50.1037   58.8148   61.5578 C   0  0  0  0  0  0  0  0  0  0  0  0
  -50.9648   57.6707   61.0293 C   0  0  0  0  0  0  0  0  0  0  0  0
  7  8  2  0  0  0
  7  6  1  0  0  0
  7  9  1  0  0  0
  6  5  1  0  0  0
  9 10  1  0  0  0
  5  4  1  0  0  0
  4  3  1  0  0  0
  3  2  1  0  0  0
  2  1  1  0  0  0
  1 11  1  0  0  0
 11 12  1  0  0  0
 12 13  2  0  0  0
 13 14  1  0  0  0
 14 15  1  0  0  0
 15 16  1  0  0  0
 16 17  1  0  0  0
 17 18  1  0  0  0
 18 19  1  0  0  0
M  END
> <minimizedAffinity>
-6.69715

> <CNNscore>
0.6741610169

> <CNNaffinity>
6.0498189926

> <CNN_VS>
4.0785522461

> <CNNaffinity_variance>
0.3562849760

$$$$
/media/chris/experiments/cd1a-new-docking/inputs/ligands/4x6d_2_ligand.pdb


 19 18  0  0  0  0  0  0  0  0999 V2000
  -46.6188   59.3651   66.1414 C   0  0  0  0  0  0  0  0  0  0  0  0
  -45.3822   59.7244   66.9536 C   0  0  0  0  0  0  0  0  0  0  0  0
  -44.0912   59.3682   66.2361 C   0  0  0  0  0  0  0  0  0  0  0  0
  -44.0258   60.0757   64.8926 C   0  0  0  0  0  0  0  0  0  0  0  0
  -42.5729   60.1978   64.4696 C   0  0  0  0  0  0  0  0  0  0  0  0
  -41.9343   61.4684   65.0074 C   0  0  0  0  0  0  0  0  0  0  0  0
  -40.5176   61.1689   65.4305 C   0  0  0  0  0  0  0  0  0  0  0  0
  -40.0809   60.0031   65.3698 O   0  0  0  0  0  0  0  0  0  0  0  0
  -39.7629   62.0719   65.8498 O   0  0  0  0  0  0  0  0  0  0  0  0
  -40.0727   62.9546   65.9027 H   0  0  0  0  0  0  0  0  0  0  0  0
  -47.5477   60.5699   66.1795 C   0  0  0  0  0  0  0  0  0  0  0  0
  -47.7157   61.1899   64.8131 C   0  0  0  0  0  0  0  0  0  0  0  0
  -48.9656   60.9780   64.0659 C   0  0  0  0  0  0  0  0  0  0  0  0
  -49.9625   59.9701   64.5804 C   0  0  0  0  0  0  0  0  0  0  0  0
  -49.6720   58.5851   64.0129 C   0  0  0  0  0  0  0  0  0  0  0  0
  -49.4418   58.6682   62.5041 C   0  0  0  0  0  0  0  0  0  0  0  0
  -50.6994   58.2989   61.7187 C   0  0  0  0  0  0  0  0  0  0  0  0
  -50.3638   57.5812   60.4088 C   0  0  0  0  0  0  0  0  0  0  0  0
  -48.8861   57.6793   60.0391 C   0  0  0  0  0  0  0  0  0  0  0  0
  7  8  2  0  0  0
  7  6  1  0  0  0
  7  9  1  0  0  0
  6  5  1  0  0  0
  9 10  1  0  0  0
  5  4  1  0  0  0
  4  3  1  0  0  0
  3  2  1  0  0  0
  2  1  1  0  0  0
  1 11  1  0  0  0
 11 12  1  0  0  0
 12 13  2  0  0  0
 13 14  1  0  0  0
 14 15  1  0  0  0
 15 16  1  0  0  0
 16 17  1  0  0  0
 17 18  1  0  0  0
 18 19  1  0  0  0
M  END
> <minimizedAffinity>
-6.48793

> <CNNscore>
0.6527456045

> <CNNaffinity>
6.1262731552

> <CNN_VS>
3.9988977909

> <CNNaffinity_variance>
0.4026437402

$$$$
/media/chris/experiments/cd1a-new-docking/inputs/ligands/4x6d_2_ligand.pdb


 19 18  0  0  0  0  0  0  0  0999 V2000
  -46.5257   60.4004   65.2611 C   0  0  0  0  0  0  0  0  0  0  0  0
  -46.1709   58.9851   65.6958 C   0  0  0  0  0  0  0  0  0  0  0  0
  -44.9952   58.4157   64.9200 C   0  0  0  0  0  0  0  0  0  0  0  0
  -44.0216   57.7354   65.8683 C   0  0  0  0  0  0  0  0  0  0  0  0
  -42.6064   58.1391   65.4955 C   0  0  0  0  0  0  0  0  0  0  0  0
  -41.9167   58.8850   66.6266 C   0  0  0  0  0  0  0  0  0  0  0  0
  -42.3828   60.3197   66.6295 C   0  0  0  0  0  0  0  0  0  0  0  0
  -42.4920   60.9430   65.5556 O   0  0  0  0  0  0  0  0  0  0  0  0
  -42.6616   60.9074   67.6961 O   0  0  0  0  0  0  0  0  0  0  0  0
  -42.5860   60.4558   68.5135 H   0  0  0  0  0  0  0  0  0  0  0  0
  -47.9386   60.6807   65.7517 C   0  0  0  0  0  0  0  0  0  0  0  0
  -48.7423   59.4109   65.8976 C   0  0  0  0  0  0  0  0  0  0  0  0
  -49.8102   59.1098   64.9311 C   0  0  0  0  0  0  0  0  0  0  0  0
  -50.2271   60.1744   63.9477 C   0  0  0  0  0  0  0  0  0  0  0  0
  -50.9449   59.5551   62.7536 C   0  0  0  0  0  0  0  0  0  0  0  0
  -50.0626   58.4935   62.0971 C   0  0  0  0  0  0  0  0  0  0  0  0
  -50.8234   57.7053   61.0318 C   0  0  0  0  0  0  0  0  0  0  0  0
  -50.3824   58.0866   59.6164 C   0  0  0  0  0  0  0  0  0  0  0  0
  -48.8649   58.1427   59.4615 C   0  0  0  0  0  0  0  0  0  0  0  0
  7  8  2  0  0  0
  7  6  1  0  0  0
  7  9  1  0  0  0
  6  5  1  0  0  0
  9 10  1  0  0  0
  5  4  1  0  0  0
  4  3  1  0  0  0
  3  2  1  0  0  0
  2  1  1  0  0  0
  1 11  1  0  0  0
 11 12  1  0  0  0
 12 13  2  0  0  0
 13 14  1  0  0  0
 14 15  1  0  0  0
 15 16  1  0  0  0
 16 17  1  0  0  0
 17 18  1  0  0  0
 18 19  1  0  0  0
M  END
> <minimizedAffinity>
-6.85067

> <CNNscore>
0.6316344142

> <CNNaffinity>
6.1274399757

> <CNN_VS>
3.8703019619

> <CNNaffinity_variance>
0.4857283533

$$$$
/media/chris/experiments/cd1a-new-docking/inputs/ligands/4x6d_2_ligand.pdb


 19 18  0  0  0  0  0  0  0  0999 V2000
  -48.9725   58.4625   65.2400 C   0  0  0  0  0  0  0  0  0  0  0  0
  -49.9538   58.5126   64.0771 C   0  0  0  0  0  0  0  0  0  0  0  0
  -49.2602   58.4427   62.7271 C   0  0  0  0  0  0  0  0  0  0  0  0
  -50.0525   59.2214   61.6898 C   0  0  0  0  0  0  0  0  0  0  0  0
  -49.6831   58.7170   60.3064 C   0  0  0  0  0  0  0  0  0  0  0  0
  -49.5419   57.2035   60.2775 C   0  0  0  0  0  0  0  0  0  0  0  0
  -48.3108   56.8367   59.4868 C   0  0  0  0  0  0  0  0  0  0  0  0
  -47.3672   57.6453   59.3894 O   0  0  0  0  0  0  0  0  0  0  0  0
  -48.2143   55.7296   58.9160 O   0  0  0  0  0  0  0  0  0  0  0  0
  -48.9129   55.1083   58.9775 H   0  0  0  0  0  0  0  0  0  0  0  0
  -47.6404   58.9903   64.7275 C   0  0  0  0  0  0  0  0  0  0  0  0
  -46.8432   59.6552   65.8240 C   0  0  0  0  0  0  0  0  0  0  0  0
  -45.6373   58.9960   66.3499 C   0  0  0  0  0  0  0  0  0  0  0  0
  -45.3447   57.5742   65.9410 C   0  0  0  0  0  0  0  0  0  0  0  0
  -44.0748   57.5047   65.1000 C   0  0  0  0  0  0  0  0  0  0  0  0
  -42.8491   57.7953   65.9658 C   0  0  0  0  0  0  0  0  0  0  0  0
  -41.9722   58.8882   65.3565 C   0  0  0  0  0  0  0  0  0  0  0  0
  -41.4334   59.8472   66.4211 C   0  0  0  0  0  0  0  0  0  0  0  0
  -42.5359   60.6345   67.1244 C   0  0  0  0  0  0  0  0  0  0  0  0
  7  8  2  0  0  0
  7  6  1  0  0  0
  7  9  1  0  0  0
  6  5  1  0  0  0
  9 10  1  0  0  0
  5  4  1  0  0  0
  4  3  1  0  0  0
  3  2  1  0  0  0
  2  1  1  0  0  0
  1 11  1  0  0  0
 11 12  1  0  0  0
 12 13  2  0  0  0
 13 14  1  0  0  0
 14 15  1  0  0  0
 15 16  1  0  0  0
 16 17  1  0  0  0
 17 18  1  0  0  0
 18 19  1  0  0  0
M  END
> <minimizedAffinity>
-6.57165

> <CNNscore>
0.6143411994

> <CNNaffinity>
6.1945314407

> <CNN_VS>
3.8055558205

> <CNNaffinity_variance>
0.3811271787

$$$$
/media/chris/experiments/cd1a-new-docking/inputs/ligands/4x6d_2_ligand.pdb


 19 18  0  0  0  0  0  0  0  0999 V2000
  -49.0475   58.2674   65.2728 C   0  0  0  0  0  0  0  0  0  0  0  0
  -50.0051   58.6530   64.1538 C   0  0  0  0  0  0  0  0  0  0  0  0
  -49.3587   58.5719   62.7812 C   0  0  0  0  0  0  0  0  0  0  0  0
  -50.3630   58.9521   61.7057 C   0  0  0  0  0  0  0  0  0  0  0  0
  -49.7032   58.8179   60.3451 C   0  0  0  0  0  0  0  0  0  0  0  0
  -48.6946   57.6805   60.3176 C   0  0  0  0  0  0  0  0  0  0  0  0
  -47.9247   57.7335   59.0215 C   0  0  0  0  0  0  0  0  0  0  0  0
  -46.7197   58.0526   59.0235 O   0  0  0  0  0  0  0  0  0  0  0  0
  -48.4734   57.4662   57.9314 O   0  0  0  0  0  0  0  0  0  0  0  0
  -49.3782   57.2242   57.9092 H   0  0  0  0  0  0  0  0  0  0  0  0
  -47.7922   59.1104   65.1011 C   0  0  0  0  0  0  0  0  0  0  0  0
  -47.1261   59.3979   66.4252 C   0  0  0  0  0  0  0  0  0  0  0  0
  -45.7646   59.9555   66.4497 C   0  0  0  0  0  0  0  0  0  0  0  0
  -44.9795   60.0233   65.1638 C   0  0  0  0  0  0  0  0  0  0  0  0
  -43.5357   59.5882   65.3891 C   0  0  0  0  0  0  0  0  0  0  0  0
  -42.5757   60.7057   64.9816 C   0  0  0  0  0  0  0  0  0  0  0  0
  -41.7998   60.3508   63.7141 C   0  0  0  0  0  0  0  0  0  0  0  0
  -41.5655   61.5760   62.8267 C   0  0  0  0  0  0  0  0  0  0  0  0
  -42.7088   62.5852   62.8929 C   0  0  0  0  0  0  0  0  0  0  0  0
  7  8  2  0  0  0
  7  6  1  0  0  0
  7  9  1  0  0  0
  6  5  1  0  0  0
  9 10  1  0  0  0
  5  4  1  0  0  0
  4  3  1  0  0  0
  3  2  1  0  0  0
  2  1  1  0  0  0
  1 11  1  0  0  0
 11 12  1  0  0  0
 12 13  2  0  0  0
 13 14  1  0  0  0
 14 15  1  0  0  0
 15 16  1  0  0  0
 16 17  1  0  0  0
 17 18  1  0  0  0
 18 19  1  0  0  0
M  END
> <minimizedAffinity>
-6.27835

> <CNNscore>
0.5903249383

> <CNNaffinity>
6.1442084312

> <CNN_VS>
3.6270794868

> <CNNaffinity_variance>
0.4875904620

$$$$
/media/chris/experiments/cd1a-new-docking/inputs/ligands/4x6d_2_ligand.pdb


 19 18  0  0  0  0  0  0  0  0999 V2000
  -41.2975   59.7874   64.5209 C   0  0  0  0  0  0  0  0  0  0  0  0
  -40.3592   58.6224   64.8041 C   0  0  0  0  0  0  0  0  0  0  0  0
  -38.9205   58.9284   64.4235 C   0  0  0  0  0  0  0  0  0  0  0  0
  -38.7462   58.8366   62.9165 C   0  0  0  0  0  0  0  0  0  0  0  0
  -38.0436   57.5336   62.5797 C   0  0  0  0  0  0  0  0  0  0  0  0
  -36.6241   57.7693   62.0888 C   0  0  0  0  0  0  0  0  0  0  0  0
  -36.5658   57.5136   60.6033 C   0  0  0  0  0  0  0  0  0  0  0  0
  -36.9191   58.4011   59.8025 O   0  0  0  0  0  0  0  0  0  0  0  0
  -36.1710   56.4184   60.1501 O   0  0  0  0  0  0  0  0  0  0  0  0
  -35.9011   55.7388   60.7360 H   0  0  0  0  0  0  0  0  0  0  0  0
  -42.6224   59.4734   65.2005 C   0  0  0  0  0  0  0  0  0  0  0  0
  -42.7454   58.0063   65.5352 C   0  0  0  0  0  0  0  0  0  0  0  0
  -43.9583   57.2696   65.1460 C   0  0  0  0  0  0  0  0  0  0  0  0
  -45.1430   58.0394   64.6184 C   0  0  0  0  0  0  0  0  0  0  0  0
  -46.3867   57.7554   65.4533 C   0  0  0  0  0  0  0  0  0  0  0  0
  -46.6904   58.9391   66.3714 C   0  0  0  0  0  0  0  0  0  0  0  0
  -46.1939   60.2570   65.7785 C   0  0  0  0  0  0  0  0  0  0  0  0
  -47.2958   60.9857   65.0051 C   0  0  0  0  0  0  0  0  0  0  0  0
  -48.6341   60.9898   65.7394 C   0  0  0  0  0  0  0  0  0  0  0  0
  7  8  2  0  0  0
  7  6  1  0  0  0
  7  9  1  0  0  0
  6  5  1  0  0  0
  9 10  1  0  0  0
  5  4  1  0  0  0
  4  3  1  0  0  0
  3  2  1  0  0  0
  2  1  1  0  0  0
  1 11  1  0  0  0
 11 12  1  0  0  0
 12 13  2  0  0  0
 13 14  1  0  0  0
 14 15  1  0  0  0
 15 16  1  0  0  0
 16 17  1  0  0  0
 17 18  1  0  0  0
 18 19  1  0  0  0
M  END
> <minimizedAffinity>
-5.99812

> <CNNscore>
0.5536646247

> <CNNaffinity>
5.8236856461

> <CNN_VS>
3.2243688107

> <CNNaffinity_variance>
0.2724531293

$$$$
