/media/chris/experiments/cd1a-new-docking/inputs/ligands/4x6d_2_ligand.pdb


 19 18  0  0  0  0  0  0  0  0999 V2000
  -46.0160   58.2611   65.1981 C   0  0  0  0  0  0  0  0  0  0  0  0
  -45.5081   59.4459   66.0080 C   0  0  0  0  0  0  0  0  0  0  0  0
  -44.4684   60.2608   65.2575 C   0  0  0  0  0  0  0  0  0  0  0  0
  -43.2088   59.4368   65.0463 C   0  0  0  0  0  0  0  0  0  0  0  0
  -42.2390   59.7191   66.1796 C   0  0  0  0  0  0  0  0  0  0  0  0
  -40.8226   59.9319   65.6694 C   0  0  0  0  0  0  0  0  0  0  0  0
  -40.4656   61.3920   65.7963 C   0  0  0  0  0  0  0  0  0  0  0  0
  -41.3572   62.2366   66.0094 O   0  0  0  0  0  0  0  0  0  0  0  0
  -39.2834   61.7812   65.6869 O   0  0  0  0  0  0  0  0  0  0  0  0
  -38.5991   61.1615   65.5266 H   0  0  0  0  0  0  0  0  0  0  0  0
  -47.3743   58.6512   64.6336 C   0  0  0  0  0  0  0  0  0  0  0  0
  -48.5010   57.9455   65.3492 C   0  0  0  0  0  0  0  0  0  0  0  0
  -49.8406   58.5538   65.3765 C   0  0  0  0  0  0  0  0  0  0  0  0
  -50.0110   59.9681   64.8813 C   0  0  0  0  0  0  0  0  0  0  0  0
  -51.0367   60.0257   63.7546 C   0  0  0  0  0  0  0  0  0  0  0  0
  -50.3532   59.8123   62.4042 C   0  0  0  0  0  0  0  0  0  0  0  0
  -50.5281   58.3800   61.9016 C   0  0  0  0  0  0  0  0  0  0  0  0
  -49.3788   57.9525   60.9853 C   0  0  0  0  0  0  0  0  0  0  0  0
  -49.6982   58.1398   59.5045 C   0  0  0  0  0  0  0  0  0  0  0  0
  7  8  2  0  0  0
  7  6  1  0  0  0
  7  9  1  0  0  0
  6  5  1  0  0  0
  9 10  1  0  0  0
  5  4  1  0  0  0
  4  3  1  0  0  0
  3  2  1  0  0  0
  2  1  1  0  0  0
  1 11  1  0  0  0
 11 12  1  0  0  0
 12 13  2  0  0  0
 13 14  1  0  0  0
 14 15  1  0  0  0
 15 16  1  0  0  0
 16 17  1  0  0  0
 17 18  1  0  0  0
 18 19  1  0  0  0
M  END
> <minimizedAffinity>
-6.66956

> <CNNscore>
0.8498778343

> <CNNaffinity>
6.3912210464

> <CNN_VS>
5.4317569733

> <CNNaffinity_variance>
0.4854209423

$$$$
/media/chris/experiments/cd1a-new-docking/inputs/ligands/4x6d_2_ligand.pdb


 19 18  0  0  0  0  0  0  0  0999 V2000
  -48.0305   58.2127   65.5023 C   0  0  0  0  0  0  0  0  0  0  0  0
  -47.1220   59.3994   65.2127 C   0  0  0  0  0  0  0  0  0  0  0  0
  -45.6642   59.1057   65.5240 C   0  0  0  0  0  0  0  0  0  0  0  0
  -45.3525   57.6446   65.2445 C   0  0  0  0  0  0  0  0  0  0  0  0
  -43.8527   57.4844   65.0723 C   0  0  0  0  0  0  0  0  0  0  0  0
  -43.1514   58.8289   64.9617 C   0  0  0  0  0  0  0  0  0  0  0  0
  -41.8087   58.7437   65.6440 C   0  0  0  0  0  0  0  0  0  0  0  0
  -41.7007   59.0425   66.8493 O   0  0  0  0  0  0  0  0  0  0  0  0
  -40.7881   58.3809   65.0213 O   0  0  0  0  0  0  0  0  0  0  0  0
  -40.8490   58.1523   64.1147 H   0  0  0  0  0  0  0  0  0  0  0  0
  -49.0776   58.1680   64.3989 C   0  0  0  0  0  0  0  0  0  0  0  0
  -49.5111   59.5532   63.9828 C   0  0  0  0  0  0  0  0  0  0  0  0
  -50.2766   59.7339   62.7392 C   0  0  0  0  0  0  0  0  0  0  0  0
  -50.4235   58.5667   61.7955 C   0  0  0  0  0  0  0  0  0  0  0  0
  -49.7990   58.8854   60.4415 C   0  0  0  0  0  0  0  0  0  0  0  0
  -50.2085   57.8354   59.4088 C   0  0  0  0  0  0  0  0  0  0  0  0
  -49.0697   57.5209   58.4397 C   0  0  0  0  0  0  0  0  0  0  0  0
  -47.7298   58.0696   58.9367 C   0  0  0  0  0  0  0  0  0  0  0  0
  -46.8613   58.6257   57.8114 C   0  0  0  0  0  0  0  0  0  0  0  0
  7  8  2  0  0  0
  7  6  1  0  0  0
  7  9  1  0  0  0
  6  5  1  0  0  0
  9 10  1  0  0  0
  5  4  1  0  0  0
  4  3  1  0  0  0
  3  2  1  0  0  0
  2  1  1  0  0  0
  1 11  1  0  0  0
 11 12  1  0  0  0
 12 13  2  0  0  0
 13 14  1  0  0  0
 14 15  1  0  0  0
 15 16  1  0  0  0
 16 17  1  0  0  0
 17 18  1  0  0  0
 18 19  1  0  0  0
M  END
> <minimizedAffinity>
-6.89319

> <CNNscore>
0.7713667750

> <CNNaffinity>
6.4345903397

> <CNN_VS>
4.9634289742

> <CNNaffinity_variance>
0.4779168963

$$$$
/media/chris/experiments/cd1a-new-docking/inputs/ligands/4x6d_2_ligand.pdb


 19 18  0  0  0  0  0  0  0  0999 V2000
  -42.1512   59.6510   65.4979 C   0  0  0  0  0  0  0  0  0  0  0  0
  -40.6499   59.4354   65.6302 C   0  0  0  0  0  0  0  0  0  0  0  0
  -39.9726   59.2201   64.2874 C   0  0  0  0  0  0  0  0  0  0  0  0
  -39.0522   58.0123   64.3521 C   0  0  0  0  0  0  0  0  0  0  0  0
  -38.3575   57.8491   63.0122 C   0  0  0  0  0  0  0  0  0  0  0  0
  -38.3962   59.1323   62.1974 C   0  0  0  0  0  0  0  0  0  0  0  0
  -37.7091   58.8991   60.8750 C   0  0  0  0  0  0  0  0  0  0  0  0
  -37.8110   59.7407   59.9612 O   0  0  0  0  0  0  0  0  0  0  0  0
  -37.0353   57.8673   60.6686 O   0  0  0  0  0  0  0  0  0  0  0  0
  -36.9469   57.2229   61.3430 H   0  0  0  0  0  0  0  0  0  0  0  0
  -42.8363   58.5007   66.2212 C   0  0  0  0  0  0  0  0  0  0  0  0
  -43.4412   57.5124   65.2532 C   0  0  0  0  0  0  0  0  0  0  0  0
  -44.9045   57.3975   65.1490 C   0  0  0  0  0  0  0  0  0  0  0  0
  -45.7671   58.1072   66.1623 C   0  0  0  0  0  0  0  0  0  0  0  0
  -46.9597   58.7727   65.4843 C   0  0  0  0  0  0  0  0  0  0  0  0
  -48.1127   57.7789   65.3451 C   0  0  0  0  0  0  0  0  0  0  0  0
  -49.3224   58.4088   64.6563 C   0  0  0  0  0  0  0  0  0  0  0  0
  -49.0591   58.6756   63.1721 C   0  0  0  0  0  0  0  0  0  0  0  0
  -50.2305   58.2751   62.2793 C   0  0  0  0  0  0  0  0  0  0  0  0
  7  8  2  0  0  0
  7  6  1  0  0  0
  7  9  1  0  0  0
  6  5  1  0  0  0
  9 10  1  0  0  0
  5  4  1  0  0  0
  4  3  1  0  0  0
  3  2  1  0  0  0
  2  1  1  0  0  0
  1 11  1  0  0  0
 11 12  1  0  0  0
 12 13  2  0  0  0
 13 14  1  0  0  0
 14 15  1  0  0  0
 15 16  1  0  0  0
 16 17  1  0  0  0
 17 18  1  0  0  0
 18 19  1  0  0  0
M  END
> <minimizedAffinity>
-6.25557

> <CNNscore>
0.6447383761

> <CNNaffinity>
6.0849022865

> <CNN_VS>
3.9231700897

> <CNNaffinity_variance>
0.3964646757

$$$$
/media/chris/experiments/cd1a-new-docking/inputs/ligands/4x6d_2_ligand.pdb


 19 18  0  0  0  0  0  0  0  0999 V2000
  -47.9099   58.5602   64.7627 C   0  0  0  0  0  0  0  0  0  0  0  0
  -49.3103   58.5208   65.3587 C   0  0  0  0  0  0  0  0  0  0  0  0
  -50.2601   59.4912   64.6773 C   0  0  0  0  0  0  0  0  0  0  0  0
  -49.6475   60.0037   63.3842 C   0  0  0  0  0  0  0  0  0  0  0  0
  -50.5349   59.5956   62.2221 C   0  0  0  0  0  0  0  0  0  0  0  0
  -50.2913   58.1535   61.8064 C   0  0  0  0  0  0  0  0  0  0  0  0
  -49.8535   58.1223   60.3632 C   0  0  0  0  0  0  0  0  0  0  0  0
  -50.6986   57.9860   59.4570 O   0  0  0  0  0  0  0  0  0  0  0  0
  -48.6485   58.2263   60.0499 O   0  0  0  0  0  0  0  0  0  0  0  0
  -47.9983   58.3294   60.7166 H   0  0  0  0  0  0  0  0  0  0  0  0
  -46.9311   58.6822   65.9216 C   0  0  0  0  0  0  0  0  0  0  0  0
  -46.0848   57.4408   66.0718 C   0  0  0  0  0  0  0  0  0  0  0  0
  -44.6259   57.5290   65.9015 C   0  0  0  0  0  0  0  0  0  0  0  0
  -44.0288   58.8062   65.3660 C   0  0  0  0  0  0  0  0  0  0  0  0
  -43.2441   59.5325   66.4530 C   0  0  0  0  0  0  0  0  0  0  0  0
  -41.8203   58.9824   66.5362 C   0  0  0  0  0  0  0  0  0  0  0  0
  -41.2535   58.6684   65.1524 C   0  0  0  0  0  0  0  0  0  0  0  0
  -39.7915   59.1033   65.0226 C   0  0  0  0  0  0  0  0  0  0  0  0
  -38.9716   58.1731   64.1325 C   0  0  0  0  0  0  0  0  0  0  0  0
  7  8  2  0  0  0
  7  6  1  0  0  0
  7  9  1  0  0  0
  6  5  1  0  0  0
  9 10  1  0  0  0
  5  4  1  0  0  0
  4  3  1  0  0  0
  3  2  1  0  0  0
  2  1  1  0  0  0
  1 11  1  0  0  0
 11 12  1  0  0  0
 12 13  2  0  0  0
 13 14  1  0  0  0
 14 15  1  0  0  0
 15 16  1  0  0  0
 16 17  1  0  0  0
 17 18  1  0  0  0
 18 19  1  0  0  0
M  END
> <minimizedAffinity>
-6.41594

> <CNNscore>
0.6438155174

> <CNNaffinity>
6.1102428436

> <CNN_VS>
3.9338691235

> <CNNaffinity_variance>
0.5839055777

$$$$
/media/chris/experiments/cd1a-new-docking/inputs/ligands/4x6d_2_ligand.pdb


 19 18  0  0  0  0  0  0  0  0999 V2000
  -40.0436   59.9855   65.2362 C   0  0  0  0  0  0  0  0  0  0  0  0
  -39.6136   59.4943   63.8609 C   0  0  0  0  0  0  0  0  0  0  0  0
  -39.0940   58.0669   63.8891 C   0  0  0  0  0  0  0  0  0  0  0  0
  -37.6440   58.0276   63.4352 C   0  0  0  0  0  0  0  0  0  0  0  0
  -37.5937   57.5922   61.9818 C   0  0  0  0  0  0  0  0  0  0  0  0
  -36.6428   58.4551   61.1676 C   0  0  0  0  0  0  0  0  0  0  0  0
  -37.4001   59.0806   60.0228 C   0  0  0  0  0  0  0  0  0  0  0  0
  -36.9902   58.9431   58.8536 O   0  0  0  0  0  0  0  0  0  0  0  0
  -38.4390   59.7458   60.2206 O   0  0  0  0  0  0  0  0  0  0  0  0
  -38.7630   59.8605   61.0923 H   0  0  0  0  0  0  0  0  0  0  0  0
  -41.1118   59.0271   65.7424 C   0  0  0  0  0  0  0  0  0  0  0  0
  -41.8048   59.5614   66.9728 C   0  0  0  0  0  0  0  0  0  0  0  0
  -43.1502   60.1457   66.8551 C   0  0  0  0  0  0  0  0  0  0  0  0
  -43.7189   60.3993   65.4815 C   0  0  0  0  0  0  0  0  0  0  0  0
  -45.1371   59.8496   65.3744 C   0  0  0  0  0  0  0  0  0  0  0  0
  -45.6050   59.3225   66.7308 C   0  0  0  0  0  0  0  0  0  0  0  0
  -46.6312   58.2007   66.5783 C   0  0  0  0  0  0  0  0  0  0  0  0
  -47.4430   58.3416   65.2882 C   0  0  0  0  0  0  0  0  0  0  0  0
  -48.9080   58.6865   65.5426 C   0  0  0  0  0  0  0  0  0  0  0  0
  7  8  2  0  0  0
  7  6  1  0  0  0
  7  9  1  0  0  0
  6  5  1  0  0  0
  9 10  1  0  0  0
  5  4  1  0  0  0
  4  3  1  0  0  0
  3  2  1  0  0  0
  2  1  1  0  0  0
  1 11  1  0  0  0
 11 12  1  0  0  0
 12 13  2  0  0  0
 13 14  1  0  0  0
 14 15  1  0  0  0
 15 16  1  0  0  0
 16 17  1  0  0  0
 17 18  1  0  0  0
 18 19  1  0  0  0
M  END
> <minimizedAffinity>
-6.20568

> <CNNscore>
0.6186482310

> <CNNaffinity>
5.8733816147

> <CNN_VS>
3.6335570812

> <CNNaffinity_variance>
0.1910285652

$$$$
/media/chris/experiments/cd1a-new-docking/inputs/ligands/4x6d_2_ligand.pdb


 19 18  0  0  0  0  0  0  0  0999 V2000
  -50.3143   59.5141   64.9845 C   0  0  0  0  0  0  0  0  0  0  0  0
  -50.0407   60.1266   63.6178 C   0  0  0  0  0  0  0  0  0  0  0  0
  -50.8254   59.4474   62.5082 C   0  0  0  0  0  0  0  0  0  0  0  0
  -50.2261   58.0850   62.2005 C   0  0  0  0  0  0  0  0  0  0  0  0
  -50.8429   57.5527   60.9196 C   0  0  0  0  0  0  0  0  0  0  0  0
  -50.2700   58.2399   59.6902 C   0  0  0  0  0  0  0  0  0  0  0  0
  -49.0039   57.5334   59.2739 C   0  0  0  0  0  0  0  0  0  0  0  0
  -48.8802   56.3082   59.4668 O   0  0  0  0  0  0  0  0  0  0  0  0
  -48.0621   58.1551   58.7377 O   0  0  0  0  0  0  0  0  0  0  0  0
  -48.1361   59.0765   58.5843 H   0  0  0  0  0  0  0  0  0  0  0  0
  -48.9831   59.4378   65.7178 C   0  0  0  0  0  0  0  0  0  0  0  0
  -48.1013   58.3445   65.1638 C   0  0  0  0  0  0  0  0  0  0  0  0
  -46.6447   58.5446   65.1027 C   0  0  0  0  0  0  0  0  0  0  0  0
  -46.0829   59.9148   65.3880 C   0  0  0  0  0  0  0  0  0  0  0  0
  -44.5597   59.8983   65.3208 C   0  0  0  0  0  0  0  0  0  0  0  0
  -44.0701   58.5830   64.7153 C   0  0  0  0  0  0  0  0  0  0  0  0
  -43.1569   57.8232   65.6763 C   0  0  0  0  0  0  0  0  0  0  0  0
  -42.0307   58.7096   66.2141 C   0  0  0  0  0  0  0  0  0  0  0  0
  -40.8566   58.8314   65.2465 C   0  0  0  0  0  0  0  0  0  0  0  0
  7  8  2  0  0  0
  7  6  1  0  0  0
  7  9  1  0  0  0
  6  5  1  0  0  0
  9 10  1  0  0  0
  5  4  1  0  0  0
  4  3  1  0  0  0
  3  2  1  0  0  0
  2  1  1  0  0  0
  1 11  1  0  0  0
 11 12  1  0  0  0
 12 13  2  0  0  0
 13 14  1  0  0  0
 14 15  1  0  0  0
 15 16  1  0  0  0
 16 17  1  0  0  0
 17 18  1  0  0  0
 18 19  1  0  0  0
M  END
> <minimizedAffinity>
-6.71594

> <CNNscore>
0.5946159959

> <CNNaffinity>
6.1488723755

> <CNN_VS>
3.6562178135

> <CNNaffinity_variance>
0.6711729169

$$$$
/media/chris/experiments/cd1a-new-docking/inputs/ligands/4x6d_2_ligand.pdb


 19 18  0  0  0  0  0  0  0  0999 V2000
  -48.5366   58.7051   65.4406 C   0  0  0  0  0  0  0  0  0  0  0  0
  -48.3506   60.2157   65.4776 C   0  0  0  0  0  0  0  0  0  0  0  0
  -47.0146   60.6229   66.0755 C   0  0  0  0  0  0  0  0  0  0  0  0
  -46.0073   60.8965   64.9708 C   0  0  0  0  0  0  0  0  0  0  0  0
  -44.7026   60.1980   65.3087 C   0  0  0  0  0  0  0  0  0  0  0  0
  -44.6891   58.7599   64.8155 C   0  0  0  0  0  0  0  0  0  0  0  0
  -44.3593   57.8448   65.9686 C   0  0  0  0  0  0  0  0  0  0  0  0
  -43.1702   57.6038   66.2542 O   0  0  0  0  0  0  0  0  0  0  0  0
  -45.2606   57.3119   66.6503 O   0  0  0  0  0  0  0  0  0  0  0  0
  -46.1605   57.4808   66.4511 H   0  0  0  0  0  0  0  0  0  0  0  0
  -49.9577   58.4384   64.9660 C   0  0  0  0  0  0  0  0  0  0  0  0
  -50.4741   59.5554   64.0912 C   0  0  0  0  0  0  0  0  0  0  0  0
  -50.6649   59.3236   62.6507 C   0  0  0  0  0  0  0  0  0  0  0  0
  -50.1359   58.0504   62.0393 C   0  0  0  0  0  0  0  0  0  0  0  0
  -50.9269   57.6829   60.7887 C   0  0  0  0  0  0  0  0  0  0  0  0
  -50.1293   58.0374   59.5339 C   0  0  0  0  0  0  0  0  0  0  0  0
  -48.7115   57.4701   59.5857 C   0  0  0  0  0  0  0  0  0  0  0  0
  -48.0564   57.4440   58.2024 C   0  0  0  0  0  0  0  0  0  0  0  0
  -47.0475   58.5716   58.0013 C   0  0  0  0  0  0  0  0  0  0  0  0
  7  8  2  0  0  0
  7  6  1  0  0  0
  7  9  1  0  0  0
  6  5  1  0  0  0
  9 10  1  0  0  0
  5  4  1  0  0  0
  4  3  1  0  0  0
  3  2  1  0  0  0
  2  1  1  0  0  0
  1 11  1  0  0  0
 11 12  1  0  0  0
 12 13  2  0  0  0
 13 14  1  0  0  0
 14 15  1  0  0  0
 15 16  1  0  0  0
 16 17  1  0  0  0
 17 18  1  0  0  0
 18 19  1  0  0  0
M  END
> <minimizedAffinity>
-6.96656

> <CNNscore>
0.5925536156

> <CNNaffinity>
6.3099274635

> <CNN_VS>
3.7389702797

> <CNNaffinity_variance>
0.3238063753

$$$$
/media/chris/experiments/cd1a-new-docking/inputs/ligands/4x6d_2_ligand.pdb


 19 18  0  0  0  0  0  0  0  0999 V2000
  -43.6328   60.2683   65.3306 C   0  0  0  0  0  0  0  0  0  0  0  0
  -43.0195   60.1689   66.7205 C   0  0  0  0  0  0  0  0  0  0  0  0
  -41.8156   59.2430   66.7604 C   0  0  0  0  0  0  0  0  0  0  0  0
  -41.4947   58.7397   65.3626 C   0  0  0  0  0  0  0  0  0  0  0  0
  -40.0973   59.1954   64.9829 C   0  0  0  0  0  0  0  0  0  0  0  0
  -39.2673   58.0547   64.4158 C   0  0  0  0  0  0  0  0  0  0  0  0
  -38.7584   58.4448   63.0504 C   0  0  0  0  0  0  0  0  0  0  0  0
  -38.0471   57.6545   62.3998 O   0  0  0  0  0  0  0  0  0  0  0  0
  -39.0321   59.5569   62.5510 O   0  0  0  0  0  0  0  0  0  0  0  0
  -39.5653   60.1646   63.0246 H   0  0  0  0  0  0  0  0  0  0  0  0
  -45.1258   60.0140   65.4786 C   0  0  0  0  0  0  0  0  0  0  0  0
  -45.4957   58.6060   65.0780 C   0  0  0  0  0  0  0  0  0  0  0  0
  -46.8821   58.1419   65.2445 C   0  0  0  0  0  0  0  0  0  0  0  0
  -47.8536   59.0029   66.0123 C   0  0  0  0  0  0  0  0  0  0  0  0
  -49.2797   58.7758   65.5229 C   0  0  0  0  0  0  0  0  0  0  0  0
  -49.9221   60.1050   65.1269 C   0  0  0  0  0  0  0  0  0  0  0  0
  -49.8090   60.3627   63.6251 C   0  0  0  0  0  0  0  0  0  0  0  0
  -50.9663   59.7290   62.8487 C   0  0  0  0  0  0  0  0  0  0  0  0
  -50.5315   58.5343   62.0042 C   0  0  0  0  0  0  0  0  0  0  0  0
  7  8  2  0  0  0
  7  6  1  0  0  0
  7  9  1  0  0  0
  6  5  1  0  0  0
  9 10  1  0  0  0
  5  4  1  0  0  0
  4  3  1  0  0  0
  3  2  1  0  0  0
  2  1  1  0  0  0
  1 11  1  0  0  0
 11 12  1  0  0  0
 12 13  2  0  0  0
 13 14  1  0  0  0
 14 15  1  0  0  0
 15 16  1  0  0  0
 16 17  1  0  0  0
 17 18  1  0  0  0
 18 19  1  0  0  0
M  END
> <minimizedAffinity>
-6.45043

> <CNNscore>
0.5824685097

> <CNNaffinity>
6.0349469185

> <CNN_VS>
3.5151665211

> <CNNaffinity_variance>
0.2421675920

$$$$
/media/chris/experiments/cd1a-new-docking/inputs/ligands/4x6d_2_ligand.pdb


 19 18  0  0  0  0  0  0  0  0999 V2000
  -47.2544   61.0200   65.1381 C   0  0  0  0  0  0  0  0  0  0  0  0
  -47.6679   60.1205   66.2946 C   0  0  0  0  0  0  0  0  0  0  0  0
  -46.4931   59.3662   66.8939 C   0  0  0  0  0  0  0  0  0  0  0  0
  -45.8744   58.4471   65.8534 C   0  0  0  0  0  0  0  0  0  0  0  0
  -44.3691   58.4236   66.0487 C   0  0  0  0  0  0  0  0  0  0  0  0
  -43.7572   59.8050   65.8783 C   0  0  0  0  0  0  0  0  0  0  0  0
  -42.6261   59.9695   66.8628 C   0  0  0  0  0  0  0  0  0  0  0  0
  -41.7479   59.0900   66.9576 O   0  0  0  0  0  0  0  0  0  0  0  0
  -42.5495   60.9765   67.5984 O   0  0  0  0  0  0  0  0  0  0  0  0
  -43.2000   61.6485   67.5419 H   0  0  0  0  0  0  0  0  0  0  0  0
  -48.5027   61.2921   64.3113 C   0  0  0  0  0  0  0  0  0  0  0  0
  -49.7598   60.9044   65.0522 C   0  0  0  0  0  0  0  0  0  0  0  0
  -50.7885   60.1022   64.3713 C   0  0  0  0  0  0  0  0  0  0  0  0
  -50.6692   59.8700   62.8859 C   0  0  0  0  0  0  0  0  0  0  0  0
  -50.2008   58.4479   62.5978 C   0  0  0  0  0  0  0  0  0  0  0  0
  -50.5978   58.0361   61.1802 C   0  0  0  0  0  0  0  0  0  0  0  0
  -49.7698   58.7687   60.1256 C   0  0  0  0  0  0  0  0  0  0  0  0
  -49.1244   57.7991   59.1321 C   0  0  0  0  0  0  0  0  0  0  0  0
  -47.6412   58.0797   58.9060 C   0  0  0  0  0  0  0  0  0  0  0  0
  7  8  2  0  0  0
  7  6  1  0  0  0
  7  9  1  0  0  0
  6  5  1  0  0  0
  9 10  1  0  0  0
  5  4  1  0  0  0
  4  3  1  0  0  0
  3  2  1  0  0  0
  2  1  1  0  0  0
  1 11  1  0  0  0
 11 12  1  0  0  0
 12 13  2  0  0  0
 13 14  1  0  0  0
 14 15  1  0  0  0
 15 16  1  0  0  0
 16 17  1  0  0  0
 17 18  1  0  0  0
 18 19  1  0  0  0
M  END
> <minimizedAffinity>
-6.95015

> <CNNscore>
0.5680955052

> <CNNaffinity>
6.0511937141

> <CNN_VS>
3.4376559258

> <CNNaffinity_variance>
0.4080188274

$$$$
