/media/chris/experiments/cd1a-new-docking/inputs/ligands/4x6d_2_ligand.pdb


 19 18  0  0  0  0  0  0  0  0999 V2000
  -46.2556   57.4420   65.8611 C   0  0  0  0  0  0  0  0  0  0  0  0
  -44.8184   57.4683   65.3598 C   0  0  0  0  0  0  0  0  0  0  0  0
  -44.0058   58.5914   65.9815 C   0  0  0  0  0  0  0  0  0  0  0  0
  -42.5411   58.1944   66.0657 C   0  0  0  0  0  0  0  0  0  0  0  0
  -41.7932   59.2373   66.8763 C   0  0  0  0  0  0  0  0  0  0  0  0
  -42.1491   60.6503   66.4420 C   0  0  0  0  0  0  0  0  0  0  0  0
  -40.9554   61.2743   65.7629 C   0  0  0  0  0  0  0  0  0  0  0  0
  -40.3061   60.6247   64.9201 O   0  0  0  0  0  0  0  0  0  0  0  0
  -40.5940   62.4397   66.0313 O   0  0  0  0  0  0  0  0  0  0  0  0
  -41.0691   62.9441   66.6620 H   0  0  0  0  0  0  0  0  0  0  0  0
  -47.0711   58.3336   64.9360 C   0  0  0  0  0  0  0  0  0  0  0  0
  -48.5143   58.4199   65.3713 C   0  0  0  0  0  0  0  0  0  0  0  0
  -49.5808   58.4390   64.3576 C   0  0  0  0  0  0  0  0  0  0  0  0
  -49.2056   58.5934   62.9051 C   0  0  0  0  0  0  0  0  0  0  0  0
  -50.4258   58.4085   62.0097 C   0  0  0  0  0  0  0  0  0  0  0  0
  -50.1310   57.3803   60.9178 C   0  0  0  0  0  0  0  0  0  0  0  0
  -50.2552   57.9871   59.5209 C   0  0  0  0  0  0  0  0  0  0  0  0
  -48.9984   57.7469   58.6807 C   0  0  0  0  0  0  0  0  0  0  0  0
  -47.7244   57.6905   59.5197 C   0  0  0  0  0  0  0  0  0  0  0  0
  7  8  2  0  0  0
  7  6  1  0  0  0
  7  9  1  0  0  0
  6  5  1  0  0  0
  9 10  1  0  0  0
  5  4  1  0  0  0
  4  3  1  0  0  0
  3  2  1  0  0  0
  2  1  1  0  0  0
  1 11  1  0  0  0
 11 12  1  0  0  0
 12 13  2  0  0  0
 13 14  1  0  0  0
 14 15  1  0  0  0
 15 16  1  0  0  0
 16 17  1  0  0  0
 17 18  1  0  0  0
 18 19  1  0  0  0
M  END
> <minimizedAffinity>
-6.97914

> <CNNscore>
0.9053319097

> <CNNaffinity>
6.5172681808

> <CNN_VS>
5.9002909660

> <CNNaffinity_variance>
0.4215341508

$$$$
/media/chris/experiments/cd1a-new-docking/inputs/ligands/4x6d_2_ligand.pdb


 19 18  0  0  0  0  0  0  0  0999 V2000
  -48.4938   58.1110   65.4108 C   0  0  0  0  0  0  0  0  0  0  0  0
  -47.9387   59.3676   66.0669 C   0  0  0  0  0  0  0  0  0  0  0  0
  -46.6152   59.1203   66.7709 C   0  0  0  0  0  0  0  0  0  0  0  0
  -45.5016   59.8889   66.0789 C   0  0  0  0  0  0  0  0  0  0  0  0
  -44.8121   58.9711   65.0856 C   0  0  0  0  0  0  0  0  0  0  0  0
  -43.4135   59.4598   64.7437 C   0  0  0  0  0  0  0  0  0  0  0  0
  -42.4020   58.6229   65.4866 C   0  0  0  0  0  0  0  0  0  0  0  0
  -41.1836   58.8457   65.3469 O   0  0  0  0  0  0  0  0  0  0  0  0
  -42.7600   57.6968   66.2450 O   0  0  0  0  0  0  0  0  0  0  0  0
  -43.6713   57.5139   66.3632 H   0  0  0  0  0  0  0  0  0  0  0  0
  -48.8816   58.4810   63.9865 C   0  0  0  0  0  0  0  0  0  0  0  0
  -50.1431   59.3097   63.9477 C   0  0  0  0  0  0  0  0  0  0  0  0
  -50.8550   59.4930   62.6729 C   0  0  0  0  0  0  0  0  0  0  0  0
  -50.1960   59.0360   61.3957 C   0  0  0  0  0  0  0  0  0  0  0  0
  -50.8091   57.7271   60.9102 C   0  0  0  0  0  0  0  0  0  0  0  0
  -49.7870   56.9324   60.0976 C   0  0  0  0  0  0  0  0  0  0  0  0
  -48.4658   57.6870   59.9573 C   0  0  0  0  0  0  0  0  0  0  0  0
  -48.1146   57.9550   58.4916 C   0  0  0  0  0  0  0  0  0  0  0  0
  -46.6384   58.2837   58.2847 C   0  0  0  0  0  0  0  0  0  0  0  0
  7  8  2  0  0  0
  7  6  1  0  0  0
  7  9  1  0  0  0
  6  5  1  0  0  0
  9 10  1  0  0  0
  5  4  1  0  0  0
  4  3  1  0  0  0
  3  2  1  0  0  0
  2  1  1  0  0  0
  1 11  1  0  0  0
 11 12  1  0  0  0
 12 13  2  0  0  0
 13 14  1  0  0  0
 14 15  1  0  0  0
 15 16  1  0  0  0
 16 17  1  0  0  0
 17 18  1  0  0  0
 18 19  1  0  0  0
M  END
> <minimizedAffinity>
-6.88337

> <CNNscore>
0.7921890020

> <CNNaffinity>
6.4799261093

> <CNN_VS>
5.1333260536

> <CNNaffinity_variance>
0.3658737540

$$$$
/media/chris/experiments/cd1a-new-docking/inputs/ligands/4x6d_2_ligand.pdb


 19 18  0  0  0  0  0  0  0  0999 V2000
  -47.9742   58.5679   64.4350 C   0  0  0  0  0  0  0  0  0  0  0  0
  -49.4864   58.7062   64.5434 C   0  0  0  0  0  0  0  0  0  0  0  0
  -50.0040   59.9712   63.8798 C   0  0  0  0  0  0  0  0  0  0  0  0
  -50.9897   59.6195   62.7778 C   0  0  0  0  0  0  0  0  0  0  0  0
  -50.2288   59.0243   61.6069 C   0  0  0  0  0  0  0  0  0  0  0  0
  -50.8371   57.7078   61.1502 C   0  0  0  0  0  0  0  0  0  0  0  0
  -50.0791   57.2036   59.9475 C   0  0  0  0  0  0  0  0  0  0  0  0
  -50.0592   57.8730   58.8961 O   0  0  0  0  0  0  0  0  0  0  0  0
  -49.4664   56.1152   59.9781 O   0  0  0  0  0  0  0  0  0  0  0  0
  -49.4694   55.5977   60.7592 H   0  0  0  0  0  0  0  0  0  0  0  0
  -47.4704   58.0695   65.7817 C   0  0  0  0  0  0  0  0  0  0  0  0
  -47.1229   59.2115   66.7063 C   0  0  0  0  0  0  0  0  0  0  0  0
  -45.7456   59.7286   66.7393 C   0  0  0  0  0  0  0  0  0  0  0  0
  -44.6625   58.9691   66.0152 C   0  0  0  0  0  0  0  0  0  0  0  0
  -43.3204   59.6794   66.1532 C   0  0  0  0  0  0  0  0  0  0  0  0
  -43.1063   60.6397   64.9834 C   0  0  0  0  0  0  0  0  0  0  0  0
  -41.8775   60.2608   64.1580 C   0  0  0  0  0  0  0  0  0  0  0  0
  -41.6276   61.2522   63.0188 C   0  0  0  0  0  0  0  0  0  0  0  0
  -42.6205   62.4117   63.0114 C   0  0  0  0  0  0  0  0  0  0  0  0
  7  8  2  0  0  0
  7  6  1  0  0  0
  7  9  1  0  0  0
  6  5  1  0  0  0
  9 10  1  0  0  0
  5  4  1  0  0  0
  4  3  1  0  0  0
  3  2  1  0  0  0
  2  1  1  0  0  0
  1 11  1  0  0  0
 11 12  1  0  0  0
 12 13  2  0  0  0
 13 14  1  0  0  0
 14 15  1  0  0  0
 15 16  1  0  0  0
 16 17  1  0  0  0
 17 18  1  0  0  0
 18 19  1  0  0  0
M  END
> <minimizedAffinity>
-6.52010

> <CNNscore>
0.7216321230

> <CNNaffinity>
6.3309035301

> <CNN_VS>
4.5685834885

> <CNNaffinity_variance>
0.6008706689

$$$$
/media/chris/experiments/cd1a-new-docking/inputs/ligands/4x6d_2_ligand.pdb


 19 18  0  0  0  0  0  0  0  0999 V2000
  -42.0892   58.1315   65.4950 C   0  0  0  0  0  0  0  0  0  0  0  0
  -41.3023   59.3030   66.0659 C   0  0  0  0  0  0  0  0  0  0  0  0
  -40.2634   59.8352   65.0934 C   0  0  0  0  0  0  0  0  0  0  0  0
  -39.5529   58.6828   64.4026 C   0  0  0  0  0  0  0  0  0  0  0  0
  -39.0656   59.1481   63.0423 C   0  0  0  0  0  0  0  0  0  0  0  0
  -39.6907   60.4756   62.6436 C   0  0  0  0  0  0  0  0  0  0  0  0
  -39.0148   60.9851   61.3950 C   0  0  0  0  0  0  0  0  0  0  0  0
  -39.6031   60.9254   60.2977 O   0  0  0  0  0  0  0  0  0  0  0  0
  -37.8630   61.4675   61.4335 O   0  0  0  0  0  0  0  0  0  0  0  0
  -37.4044   61.5210   62.2488 H   0  0  0  0  0  0  0  0  0  0  0  0
  -43.5420   58.3229   65.9052 C   0  0  0  0  0  0  0  0  0  0  0  0
  -43.9917   59.7524   65.7205 C   0  0  0  0  0  0  0  0  0  0  0  0
  -45.4099   60.0412   65.4549 C   0  0  0  0  0  0  0  0  0  0  0  0
  -46.3449   58.8966   65.1550 C   0  0  0  0  0  0  0  0  0  0  0  0
  -47.7245   59.4147   64.7637 C   0  0  0  0  0  0  0  0  0  0  0  0
  -48.7951   58.3761   65.0977 C   0  0  0  0  0  0  0  0  0  0  0  0
  -50.0944   59.0323   65.5625 C   0  0  0  0  0  0  0  0  0  0  0  0
  -50.4047   60.3061   64.7723 C   0  0  0  0  0  0  0  0  0  0  0  0
  -51.1739   60.0327   63.4824 C   0  0  0  0  0  0  0  0  0  0  0  0
  7  8  2  0  0  0
  7  6  1  0  0  0
  7  9  1  0  0  0
  6  5  1  0  0  0
  9 10  1  0  0  0
  5  4  1  0  0  0
  4  3  1  0  0  0
  3  2  1  0  0  0
  2  1  1  0  0  0
  1 11  1  0  0  0
 11 12  1  0  0  0
 12 13  2  0  0  0
 13 14  1  0  0  0
 14 15  1  0  0  0
 15 16  1  0  0  0
 16 17  1  0  0  0
 17 18  1  0  0  0
 18 19  1  0  0  0
M  END
> <minimizedAffinity>
-6.58218

> <CNNscore>
0.6665970087

> <CNNaffinity>
5.9947662354

> <CNN_VS>
3.9960932732

> <CNNaffinity_variance>
0.2469523847

$$$$
/media/chris/experiments/cd1a-new-docking/inputs/ligands/4x6d_2_ligand.pdb


 19 18  0  0  0  0  0  0  0  0999 V2000
  -43.4057   58.4443   65.1408 C   0  0  0  0  0  0  0  0  0  0  0  0
  -43.2702   59.9483   64.9469 C   0  0  0  0  0  0  0  0  0  0  0  0
  -41.8763   60.3538   64.4987 C   0  0  0  0  0  0  0  0  0  0  0  0
  -40.8779   59.2585   64.8352 C   0  0  0  0  0  0  0  0  0  0  0  0
  -39.6837   59.3770   63.9054 C   0  0  0  0  0  0  0  0  0  0  0  0
  -38.8233   58.1236   63.9308 C   0  0  0  0  0  0  0  0  0  0  0  0
  -37.6980   58.3164   64.9167 C   0  0  0  0  0  0  0  0  0  0  0  0
  -37.4947   59.4380   65.4210 O   0  0  0  0  0  0  0  0  0  0  0  0
  -36.9520   57.3680   65.2408 O   0  0  0  0  0  0  0  0  0  0  0  0
  -37.0887   56.5173   64.8726 H   0  0  0  0  0  0  0  0  0  0  0  0
  -44.8263   58.0663   64.7476 C   0  0  0  0  0  0  0  0  0  0  0  0
  -45.5572   57.3845   65.8793 C   0  0  0  0  0  0  0  0  0  0  0  0
  -47.0274   57.3239   65.8650 C   0  0  0  0  0  0  0  0  0  0  0  0
  -47.7820   58.1311   64.8387 C   0  0  0  0  0  0  0  0  0  0  0  0
  -49.1265   58.5885   65.3936 C   0  0  0  0  0  0  0  0  0  0  0  0
  -50.0636   58.9844   64.2528 C   0  0  0  0  0  0  0  0  0  0  0  0
  -49.6816   58.2973   62.9425 C   0  0  0  0  0  0  0  0  0  0  0  0
  -50.6111   58.7002   61.7949 C   0  0  0  0  0  0  0  0  0  0  0  0
  -50.9571   57.5340   60.8729 C   0  0  0  0  0  0  0  0  0  0  0  0
  7  8  2  0  0  0
  7  6  1  0  0  0
  7  9  1  0  0  0
  6  5  1  0  0  0
  9 10  1  0  0  0
  5  4  1  0  0  0
  4  3  1  0  0  0
  3  2  1  0  0  0
  2  1  1  0  0  0
  1 11  1  0  0  0
 11 12  1  0  0  0
 12 13  2  0  0  0
 13 14  1  0  0  0
 14 15  1  0  0  0
 15 16  1  0  0  0
 16 17  1  0  0  0
 17 18  1  0  0  0
 18 19  1  0  0  0
M  END
> <minimizedAffinity>
-6.42191

> <CNNscore>
0.6450651884

> <CNNaffinity>
6.2385559082

> <CNN_VS>
4.0242753029

> <CNNaffinity_variance>
0.4786645770

$$$$
/media/chris/experiments/cd1a-new-docking/inputs/ligands/4x6d_2_ligand.pdb


 19 18  0  0  0  0  0  0  0  0999 V2000
  -49.6299   58.7064   65.1211 C   0  0  0  0  0  0  0  0  0  0  0  0
  -50.1410   59.0639   63.7323 C   0  0  0  0  0  0  0  0  0  0  0  0
  -49.3911   58.3342   62.6307 C   0  0  0  0  0  0  0  0  0  0  0  0
  -50.3446   57.9554   61.5094 C   0  0  0  0  0  0  0  0  0  0  0  0
  -49.8606   58.5863   60.2162 C   0  0  0  0  0  0  0  0  0  0  0  0
  -49.6318   57.5448   59.1323 C   0  0  0  0  0  0  0  0  0  0  0  0
  -48.2700   56.9245   59.3223 C   0  0  0  0  0  0  0  0  0  0  0  0
  -48.1059   55.7050   59.1231 O   0  0  0  0  0  0  0  0  0  0  0  0
  -47.2908   57.6111   59.6836 O   0  0  0  0  0  0  0  0  0  0  0  0
  -47.3940   58.5294   59.8383 H   0  0  0  0  0  0  0  0  0  0  0  0
  -48.1950   58.2251   64.9622 C   0  0  0  0  0  0  0  0  0  0  0  0
  -47.3863   58.4535   66.2166 C   0  0  0  0  0  0  0  0  0  0  0  0
  -45.9343   58.6708   66.1176 C   0  0  0  0  0  0  0  0  0  0  0  0
  -45.2502   58.4438   64.7929 C   0  0  0  0  0  0  0  0  0  0  0  0
  -44.3037   57.2510   64.8714 C   0  0  0  0  0  0  0  0  0  0  0  0
  -43.1543   57.5490   65.8339 C   0  0  0  0  0  0  0  0  0  0  0  0
  -42.3405   58.7618   65.3850 C   0  0  0  0  0  0  0  0  0  0  0  0
  -41.7035   59.4918   66.5701 C   0  0  0  0  0  0  0  0  0  0  0  0
  -42.5828   60.6116   67.1205 C   0  0  0  0  0  0  0  0  0  0  0  0
  7  8  2  0  0  0
  7  6  1  0  0  0
  7  9  1  0  0  0
  6  5  1  0  0  0
  9 10  1  0  0  0
  5  4  1  0  0  0
  4  3  1  0  0  0
  3  2  1  0  0  0
  2  1  1  0  0  0
  1 11  1  0  0  0
 11 12  1  0  0  0
 12 13  2  0  0  0
 13 14  1  0  0  0
 14 15  1  0  0  0
 15 16  1  0  0  0
 16 17  1  0  0  0
 17 18  1  0  0  0
 18 19  1  0  0  0
M  END
> <minimizedAffinity>
-6.77526

> <CNNscore>
0.6297892928

> <CNNaffinity>
6.1686873436

> <CNN_VS>
3.8849732876

> <CNNaffinity_variance>
0.2478270531

$$$$
/media/chris/experiments/cd1a-new-docking/inputs/ligands/4x6d_2_ligand.pdb


 19 18  0  0  0  0  0  0  0  0999 V2000
  -46.0398   58.5013   65.2410 C   0  0  0  0  0  0  0  0  0  0  0  0
  -44.9405   57.7587   65.9880 C   0  0  0  0  0  0  0  0  0  0  0  0
  -43.7190   57.5027   65.1217 C   0  0  0  0  0  0  0  0  0  0  0  0
  -42.4679   58.0181   65.8140 C   0  0  0  0  0  0  0  0  0  0  0  0
  -42.3988   59.5256   65.6497 C   0  0  0  0  0  0  0  0  0  0  0  0
  -41.4209   60.1550   66.6292 C   0  0  0  0  0  0  0  0  0  0  0  0
  -40.4989   61.0840   65.8793 C   0  0  0  0  0  0  0  0  0  0  0  0
  -39.5572   60.6207   65.2068 O   0  0  0  0  0  0  0  0  0  0  0  0
  -40.6553   62.3229   65.9200 O   0  0  0  0  0  0  0  0  0  0  0  0
  -41.3574   62.6904   66.4199 H   0  0  0  0  0  0  0  0  0  0  0  0
  -46.2045   59.8563   65.9137 C   0  0  0  0  0  0  0  0  0  0  0  0
  -46.8602   60.8602   64.9962 C   0  0  0  0  0  0  0  0  0  0  0  0
  -48.2827   61.1912   65.1766 C   0  0  0  0  0  0  0  0  0  0  0  0
  -49.1105   60.3638   66.1276 C   0  0  0  0  0  0  0  0  0  0  0  0
  -50.1278   59.5216   65.3657 C   0  0  0  0  0  0  0  0  0  0  0  0
  -50.9775   60.4101   64.4575 C   0  0  0  0  0  0  0  0  0  0  0  0
  -51.0758   59.8426   63.0422 C   0  0  0  0  0  0  0  0  0  0  0  0
  -50.2455   58.5668   62.8801 C   0  0  0  0  0  0  0  0  0  0  0  0
  -50.3542   57.9605   61.4834 C   0  0  0  0  0  0  0  0  0  0  0  0
  7  8  2  0  0  0
  7  6  1  0  0  0
  7  9  1  0  0  0
  6  5  1  0  0  0
  9 10  1  0  0  0
  5  4  1  0  0  0
  4  3  1  0  0  0
  3  2  1  0  0  0
  2  1  1  0  0  0
  1 11  1  0  0  0
 11 12  1  0  0  0
 12 13  2  0  0  0
 13 14  1  0  0  0
 14 15  1  0  0  0
 15 16  1  0  0  0
 16 17  1  0  0  0
 17 18  1  0  0  0
 18 19  1  0  0  0
M  END
> <minimizedAffinity>
-6.68380

> <CNNscore>
0.6197935939

> <CNNaffinity>
5.9533438683

> <CNN_VS>
3.6898443699

> <CNNaffinity_variance>
0.2300040275

$$$$
/media/chris/experiments/cd1a-new-docking/inputs/ligands/4x6d_2_ligand.pdb


 19 18  0  0  0  0  0  0  0  0999 V2000
  -38.0305   57.7775   62.7275 C   0  0  0  0  0  0  0  0  0  0  0  0
  -38.0511   58.6867   61.5065 C   0  0  0  0  0  0  0  0  0  0  0  0
  -36.8940   58.4160   60.5599 C   0  0  0  0  0  0  0  0  0  0  0  0
  -36.2390   57.0871   60.8991 C   0  0  0  0  0  0  0  0  0  0  0  0
  -35.8104   56.4057   59.6121 C   0  0  0  0  0  0  0  0  0  0  0  0
  -34.2971   56.3074   59.5034 C   0  0  0  0  0  0  0  0  0  0  0  0
  -33.7602   57.5847   58.9069 C   0  0  0  0  0  0  0  0  0  0  0  0
  -34.4375   58.2179   58.0738 O   0  0  0  0  0  0  0  0  0  0  0  0
  -32.6367   58.0268   59.2282 O   0  0  0  0  0  0  0  0  0  0  0  0
  -32.1126   57.5652   59.8527 H   0  0  0  0  0  0  0  0  0  0  0  0
  -38.4989   58.6071   63.9141 C   0  0  0  0  0  0  0  0  0  0  0  0
  -39.6015   59.5634   63.5275 C   0  0  0  0  0  0  0  0  0  0  0  0
  -40.6600   59.8850   64.4978 C   0  0  0  0  0  0  0  0  0  0  0  0
  -40.7460   59.0891   65.7759 C   0  0  0  0  0  0  0  0  0  0  0  0
  -42.1727   59.0841   66.3138 C   0  0  0  0  0  0  0  0  0  0  0  0
  -43.0003   58.0083   65.6109 C   0  0  0  0  0  0  0  0  0  0  0  0
  -44.1620   58.6127   64.8234 C   0  0  0  0  0  0  0  0  0  0  0  0
  -44.6851   59.8963   65.4731 C   0  0  0  0  0  0  0  0  0  0  0  0
  -45.7965   59.6388   66.4873 C   0  0  0  0  0  0  0  0  0  0  0  0
  7  8  2  0  0  0
  7  6  1  0  0  0
  7  9  1  0  0  0
  6  5  1  0  0  0
  9 10  1  0  0  0
  5  4  1  0  0  0
  4  3  1  0  0  0
  3  2  1  0  0  0
  2  1  1  0  0  0
  1 11  1  0  0  0
 11 12  1  0  0  0
 12 13  2  0  0  0
 13 14  1  0  0  0
 14 15  1  0  0  0
 15 16  1  0  0  0
 16 17  1  0  0  0
 17 18  1  0  0  0
 18 19  1  0  0  0
M  END
> <minimizedAffinity>
-6.17057

> <CNNscore>
0.5928732753

> <CNNaffinity>
5.5099282265

> <CNN_VS>
3.2666893005

> <CNNaffinity_variance>
0.0654753968

$$$$
/media/chris/experiments/cd1a-new-docking/inputs/ligands/4x6d_2_ligand.pdb


 19 18  0  0  0  0  0  0  0  0999 V2000
  -42.0915   59.7721   66.2220 C   0  0  0  0  0  0  0  0  0  0  0  0
  -41.2049   58.7522   65.5208 C   0  0  0  0  0  0  0  0  0  0  0  0
  -40.0687   59.4019   64.7493 C   0  0  0  0  0  0  0  0  0  0  0  0
  -39.2179   58.3387   64.0744 C   0  0  0  0  0  0  0  0  0  0  0  0
  -38.7158   58.8778   62.7471 C   0  0  0  0  0  0  0  0  0  0  0  0
  -39.3035   60.2452   62.4358 C   0  0  0  0  0  0  0  0  0  0  0  0
  -38.9172   60.6414   61.0325 C   0  0  0  0  0  0  0  0  0  0  0  0
  -37.7227   60.6012   60.6786 O   0  0  0  0  0  0  0  0  0  0  0  0
  -39.7758   61.0183   60.2069 O   0  0  0  0  0  0  0  0  0  0  0  0
  -40.6788   61.0553   60.4539 H   0  0  0  0  0  0  0  0  0  0  0  0
  -43.4984   59.1934   66.2614 C   0  0  0  0  0  0  0  0  0  0  0  0
  -43.6372   57.9981   65.3494 C   0  0  0  0  0  0  0  0  0  0  0  0
  -44.9193   57.2791   65.2815 C   0  0  0  0  0  0  0  0  0  0  0  0
  -45.9977   57.6120   66.2817 C   0  0  0  0  0  0  0  0  0  0  0  0
  -47.3744   57.5618   65.6282 C   0  0  0  0  0  0  0  0  0  0  0  0
  -48.1524   58.8419   65.9322 C   0  0  0  0  0  0  0  0  0  0  0  0
  -47.2394   60.0669   65.9551 C   0  0  0  0  0  0  0  0  0  0  0  0
  -47.8549   61.2513   65.2057 C   0  0  0  0  0  0  0  0  0  0  0  0
  -48.8528   60.8223   64.1332 C   0  0  0  0  0  0  0  0  0  0  0  0
  7  8  2  0  0  0
  7  6  1  0  0  0
  7  9  1  0  0  0
  6  5  1  0  0  0
  9 10  1  0  0  0
  5  4  1  0  0  0
  4  3  1  0  0  0
  3  2  1  0  0  0
  2  1  1  0  0  0
  1 11  1  0  0  0
 11 12  1  0  0  0
 12 13  2  0  0  0
 13 14  1  0  0  0
 14 15  1  0  0  0
 15 16  1  0  0  0
 16 17  1  0  0  0
 17 18  1  0  0  0
 18 19  1  0  0  0
M  END
> <minimizedAffinity>
-6.32227

> <CNNscore>
0.5921933651

> <CNNaffinity>
5.9404821396

> <CNN_VS>
3.5179140568

> <CNNaffinity_variance>
0.2341516912

$$$$
