/media/chris/experiments/cd1a-new-docking/inputs/ligands/4x6d_2_ligand.pdb


 19 18  0  0  0  0  0  0  0  0999 V2000
  -50.8016   59.4685   62.3887 C   0  0  0  0  0  0  0  0  0  0  0  0
  -50.1503   58.1591   61.9654 C   0  0  0  0  0  0  0  0  0  0  0  0
  -50.8138   57.5475   60.7432 C   0  0  0  0  0  0  0  0  0  0  0  0
  -50.1305   58.0356   59.4763 C   0  0  0  0  0  0  0  0  0  0  0  0
  -48.6294   57.8694   59.6303 C   0  0  0  0  0  0  0  0  0  0  0  0
  -47.9083   58.0013   58.2982 C   0  0  0  0  0  0  0  0  0  0  0  0
  -48.2033   56.7865   57.4539 C   0  0  0  0  0  0  0  0  0  0  0  0
  -47.9918   55.6447   57.9069 O   0  0  0  0  0  0  0  0  0  0  0  0
  -48.6560   56.8983   56.2948 O   0  0  0  0  0  0  0  0  0  0  0  0
  -48.8216   57.7481   55.9365 H   0  0  0  0  0  0  0  0  0  0  0  0
  -50.3527   59.7541   63.8144 C   0  0  0  0  0  0  0  0  0  0  0  0
  -49.5194   58.6266   64.3748 C   0  0  0  0  0  0  0  0  0  0  0  0
  -48.5955   58.8885   65.4898 C   0  0  0  0  0  0  0  0  0  0  0  0
  -48.3370   60.3151   65.9048 C   0  0  0  0  0  0  0  0  0  0  0  0
  -46.9640   60.7757   65.4277 C   0  0  0  0  0  0  0  0  0  0  0  0
  -45.8914   59.7729   65.8524 C   0  0  0  0  0  0  0  0  0  0  0  0
  -44.4915   60.2403   65.4568 C   0  0  0  0  0  0  0  0  0  0  0  0
  -43.4198   59.6998   66.4068 C   0  0  0  0  0  0  0  0  0  0  0  0
  -42.5622   60.8015   67.0240 C   0  0  0  0  0  0  0  0  0  0  0  0
  7  8  2  0  0  0
  7  6  1  0  0  0
  7  9  1  0  0  0
  6  5  1  0  0  0
  9 10  1  0  0  0
  5  4  1  0  0  0
  4  3  1  0  0  0
  3  2  1  0  0  0
  2  1  1  0  0  0
  1 11  1  0  0  0
 11 12  1  0  0  0
 12 13  2  0  0  0
 13 14  1  0  0  0
 14 15  1  0  0  0
 15 16  1  0  0  0
 16 17  1  0  0  0
 17 18  1  0  0  0
 18 19  1  0  0  0
M  END
> <minimizedAffinity>
-7.36370

> <CNNscore>
0.7736279964

> <CNNaffinity>
6.5521154404

> <CNN_VS>
5.0689001083

> <CNNaffinity_variance>
0.6444050074

$$$$
/media/chris/experiments/cd1a-new-docking/inputs/ligands/4x6d_2_ligand.pdb


 19 18  0  0  0  0  0  0  0  0999 V2000
  -45.9986   60.2903   65.3913 C   0  0  0  0  0  0  0  0  0  0  0  0
  -44.8357   59.4697   65.9316 C   0  0  0  0  0  0  0  0  0  0  0  0
  -44.1629   58.6348   64.8552 C   0  0  0  0  0  0  0  0  0  0  0  0
  -42.9004   57.9907   65.4039 C   0  0  0  0  0  0  0  0  0  0  0  0
  -42.3271   58.8788   66.4935 C   0  0  0  0  0  0  0  0  0  0  0  0
  -41.0803   59.6120   66.0249 C   0  0  0  0  0  0  0  0  0  0  0  0
  -41.2952   61.0977   66.1733 C   0  0  0  0  0  0  0  0  0  0  0  0
  -42.2018   61.5268   66.9134 O   0  0  0  0  0  0  0  0  0  0  0  0
  -40.5805   61.9195   65.5611 O   0  0  0  0  0  0  0  0  0  0  0  0
  -39.8938   61.6165   65.0000 H   0  0  0  0  0  0  0  0  0  0  0  0
  -47.2516   59.4371   65.5245 C   0  0  0  0  0  0  0  0  0  0  0  0
  -48.3455   60.1625   66.2708 C   0  0  0  0  0  0  0  0  0  0  0  0
  -49.7509   59.9511   65.8895 C   0  0  0  0  0  0  0  0  0  0  0  0
  -50.0583   59.1886   64.6252 C   0  0  0  0  0  0  0  0  0  0  0  0
  -50.7763   60.0803   63.6181 C   0  0  0  0  0  0  0  0  0  0  0  0
  -50.4093   59.6712   62.1917 C   0  0  0  0  0  0  0  0  0  0  0  0
  -50.1873   58.1640   62.0749 C   0  0  0  0  0  0  0  0  0  0  0  0
  -50.9563   57.5638   60.8952 C   0  0  0  0  0  0  0  0  0  0  0  0
  -50.3706   57.9576   59.5418 C   0  0  0  0  0  0  0  0  0  0  0  0
  7  8  2  0  0  0
  7  6  1  0  0  0
  7  9  1  0  0  0
  6  5  1  0  0  0
  9 10  1  0  0  0
  5  4  1  0  0  0
  4  3  1  0  0  0
  3  2  1  0  0  0
  2  1  1  0  0  0
  1 11  1  0  0  0
 11 12  1  0  0  0
 12 13  2  0  0  0
 13 14  1  0  0  0
 14 15  1  0  0  0
 15 16  1  0  0  0
 16 17  1  0  0  0
 17 18  1  0  0  0
 18 19  1  0  0  0
M  END
> <minimizedAffinity>
-6.76745

> <CNNscore>
0.7692472339

> <CNNaffinity>
6.1339693069

> <CNN_VS>
4.7185387611

> <CNNaffinity_variance>
0.3614325523

$$$$
/media/chris/experiments/cd1a-new-docking/inputs/ligands/4x6d_2_ligand.pdb


 19 18  0  0  0  0  0  0  0  0999 V2000
  -47.9926   61.1070   65.0701 C   0  0  0  0  0  0  0  0  0  0  0  0
  -46.8617   60.0878   65.0731 C   0  0  0  0  0  0  0  0  0  0  0  0
  -46.1121   60.0543   66.3941 C   0  0  0  0  0  0  0  0  0  0  0  0
  -44.6522   59.7023   66.1598 C   0  0  0  0  0  0  0  0  0  0  0  0
  -44.1219   60.5384   65.0090 C   0  0  0  0  0  0  0  0  0  0  0  0
  -42.7799   60.0254   64.5114 C   0  0  0  0  0  0  0  0  0  0  0  0
  -41.9495   61.1921   64.0372 C   0  0  0  0  0  0  0  0  0  0  0  0
  -41.6950   61.3255   62.8243 O   0  0  0  0  0  0  0  0  0  0  0  0
  -41.5010   62.0365   64.8414 O   0  0  0  0  0  0  0  0  0  0  0  0
  -41.6815   61.9534   65.7571 H   0  0  0  0  0  0  0  0  0  0  0  0
  -49.2903   60.3385   64.8673 C   0  0  0  0  0  0  0  0  0  0  0  0
  -49.0384   58.8697   64.6248 C   0  0  0  0  0  0  0  0  0  0  0  0
  -49.4612   58.2582   63.3549 C   0  0  0  0  0  0  0  0  0  0  0  0
  -50.3306   59.0544   62.4143 C   0  0  0  0  0  0  0  0  0  0  0  0
  -50.3446   58.4224   61.0268 C   0  0  0  0  0  0  0  0  0  0  0  0
  -48.9473   57.9254   60.6566 C   0  0  0  0  0  0  0  0  0  0  0  0
  -48.5480   58.3583   59.2467 C   0  0  0  0  0  0  0  0  0  0  0  0
  -47.1501   57.8600   58.8713 C   0  0  0  0  0  0  0  0  0  0  0  0
  -46.5644   58.5871   57.6637 C   0  0  0  0  0  0  0  0  0  0  0  0
  7  8  2  0  0  0
  7  6  1  0  0  0
  7  9  1  0  0  0
  6  5  1  0  0  0
  9 10  1  0  0  0
  5  4  1  0  0  0
  4  3  1  0  0  0
  3  2  1  0  0  0
  2  1  1  0  0  0
  1 11  1  0  0  0
 11 12  1  0  0  0
 12 13  2  0  0  0
 13 14  1  0  0  0
 14 15  1  0  0  0
 15 16  1  0  0  0
 16 17  1  0  0  0
 17 18  1  0  0  0
 18 19  1  0  0  0
M  END
> <minimizedAffinity>
-6.74989

> <CNNscore>
0.7650029063

> <CNNaffinity>
6.3248062134

> <CNN_VS>
4.8384952545

> <CNNaffinity_variance>
0.2629176080

$$$$
/media/chris/experiments/cd1a-new-docking/inputs/ligands/4x6d_2_ligand.pdb


 19 18  0  0  0  0  0  0  0  0999 V2000
  -48.1062   58.7030   64.3924 C   0  0  0  0  0  0  0  0  0  0  0  0
  -47.7016   59.9307   65.1967 C   0  0  0  0  0  0  0  0  0  0  0  0
  -46.2015   60.0086   65.4245 C   0  0  0  0  0  0  0  0  0  0  0  0
  -45.5568   58.6628   65.1360 C   0  0  0  0  0  0  0  0  0  0  0  0
  -44.0887   58.8779   64.8153 C   0  0  0  0  0  0  0  0  0  0  0  0
  -43.5980   60.2321   65.3024 C   0  0  0  0  0  0  0  0  0  0  0  0
  -42.6577   60.0287   66.4643 C   0  0  0  0  0  0  0  0  0  0  0  0
  -42.3978   60.9766   67.2309 O   0  0  0  0  0  0  0  0  0  0  0  0
  -42.1224   58.9201   66.6772 O   0  0  0  0  0  0  0  0  0  0  0  0
  -42.3052   58.1953   66.1121 H   0  0  0  0  0  0  0  0  0  0  0  0
  -49.6121   58.5430   64.5427 C   0  0  0  0  0  0  0  0  0  0  0  0
  -50.3633   59.6744   63.8829 C   0  0  0  0  0  0  0  0  0  0  0  0
  -50.8995   59.4977   62.5240 C   0  0  0  0  0  0  0  0  0  0  0  0
  -50.5014   58.2760   61.7345 C   0  0  0  0  0  0  0  0  0  0  0  0
  -49.7236   58.6712   60.4840 C   0  0  0  0  0  0  0  0  0  0  0  0
  -49.1080   57.4345   59.8297 C   0  0  0  0  0  0  0  0  0  0  0  0
  -47.6183   57.6253   59.5490 C   0  0  0  0  0  0  0  0  0  0  0  0
  -47.3770   58.4051   58.2540 C   0  0  0  0  0  0  0  0  0  0  0  0
  -47.4780   57.5313   57.0065 C   0  0  0  0  0  0  0  0  0  0  0  0
  7  8  2  0  0  0
  7  6  1  0  0  0
  7  9  1  0  0  0
  6  5  1  0  0  0
  9 10  1  0  0  0
  5  4  1  0  0  0
  4  3  1  0  0  0
  3  2  1  0  0  0
  2  1  1  0  0  0
  1 11  1  0  0  0
 11 12  1  0  0  0
 12 13  2  0  0  0
 13 14  1  0  0  0
 14 15  1  0  0  0
 15 16  1  0  0  0
 16 17  1  0  0  0
 17 18  1  0  0  0
 18 19  1  0  0  0
M  END
> <minimizedAffinity>
-6.96238

> <CNNscore>
0.7504066229

> <CNNaffinity>
6.4197182655

> <CNN_VS>
4.8173990250

> <CNNaffinity_variance>
0.3935402930

$$$$
/media/chris/experiments/cd1a-new-docking/inputs/ligands/4x6d_2_ligand.pdb


 19 18  0  0  0  0  0  0  0  0999 V2000
  -50.1631   59.6278   62.2026 C   0  0  0  0  0  0  0  0  0  0  0  0
  -50.4769   58.1548   61.9800 C   0  0  0  0  0  0  0  0  0  0  0  0
  -50.3714   57.7516   60.5190 C   0  0  0  0  0  0  0  0  0  0  0  0
  -48.9233   57.4641   60.1578 C   0  0  0  0  0  0  0  0  0  0  0  0
  -48.5818   58.1935   58.8710 C   0  0  0  0  0  0  0  0  0  0  0  0
  -47.3931   57.5622   58.1638 C   0  0  0  0  0  0  0  0  0  0  0  0
  -47.8941   56.6645   57.0599 C   0  0  0  0  0  0  0  0  0  0  0  0
  -48.0275   55.4416   57.2613 O   0  0  0  0  0  0  0  0  0  0  0  0
  -48.1782   57.1218   55.9325 O   0  0  0  0  0  0  0  0  0  0  0  0
  -48.0846   58.0384   55.7616 H   0  0  0  0  0  0  0  0  0  0  0  0
  -49.4770   59.7421   63.5561 C   0  0  0  0  0  0  0  0  0  0  0  0
  -49.5801   58.4592   64.3456 C   0  0  0  0  0  0  0  0  0  0  0  0
  -48.4046   57.9554   65.0733 C   0  0  0  0  0  0  0  0  0  0  0  0
  -47.0654   58.6084   64.8395 C   0  0  0  0  0  0  0  0  0  0  0  0
  -45.9338   57.7067   65.3205 C   0  0  0  0  0  0  0  0  0  0  0  0
  -44.6748   57.9459   64.4874 C   0  0  0  0  0  0  0  0  0  0  0  0
  -43.4050   57.7810   65.3211 C   0  0  0  0  0  0  0  0  0  0  0  0
  -42.6318   59.0959   65.4493 C   0  0  0  0  0  0  0  0  0  0  0  0
  -43.1575   59.9876   66.5712 C   0  0  0  0  0  0  0  0  0  0  0  0
  7  8  2  0  0  0
  7  6  1  0  0  0
  7  9  1  0  0  0
  6  5  1  0  0  0
  9 10  1  0  0  0
  5  4  1  0  0  0
  4  3  1  0  0  0
  3  2  1  0  0  0
  2  1  1  0  0  0
  1 11  1  0  0  0
 11 12  1  0  0  0
 12 13  2  0  0  0
 13 14  1  0  0  0
 14 15  1  0  0  0
 15 16  1  0  0  0
 16 17  1  0  0  0
 17 18  1  0  0  0
 18 19  1  0  0  0
M  END
> <minimizedAffinity>
-7.05845

> <CNNscore>
0.7328676581

> <CNNaffinity>
6.6087403297

> <CNN_VS>
4.8433318138

> <CNNaffinity_variance>
0.5337237120

$$$$
/media/chris/experiments/cd1a-new-docking/inputs/ligands/4x6d_2_ligand.pdb


 19 18  0  0  0  0  0  0  0  0999 V2000
  -46.9213   59.6168   66.6308 C   0  0  0  0  0  0  0  0  0  0  0  0
  -45.9594   60.0434   65.5305 C   0  0  0  0  0  0  0  0  0  0  0  0
  -44.5968   59.3843   65.6611 C   0  0  0  0  0  0  0  0  0  0  0  0
  -43.5555   60.4107   66.0759 C   0  0  0  0  0  0  0  0  0  0  0  0
  -42.4119   59.6983   66.7753 C   0  0  0  0  0  0  0  0  0  0  0  0
  -41.8337   58.5838   65.9176 C   0  0  0  0  0  0  0  0  0  0  0  0
  -40.5010   59.0253   65.3658 C   0  0  0  0  0  0  0  0  0  0  0  0
  -40.0104   60.1163   65.7161 O   0  0  0  0  0  0  0  0  0  0  0  0
  -39.8707   58.3171   64.5522 O   0  0  0  0  0  0  0  0  0  0  0  0
  -40.2229   57.4937   64.2767 H   0  0  0  0  0  0  0  0  0  0  0  0
  -48.2974   59.4775   65.9963 C   0  0  0  0  0  0  0  0  0  0  0  0
  -48.3796   58.2658   65.0992 C   0  0  0  0  0  0  0  0  0  0  0  0
  -48.9998   58.3845   63.7701 C   0  0  0  0  0  0  0  0  0  0  0  0
  -49.7354   59.6530   63.4176 C   0  0  0  0  0  0  0  0  0  0  0  0
  -50.4870   59.4930   62.1006 C   0  0  0  0  0  0  0  0  0  0  0  0
  -50.6063   58.0137   61.7348 C   0  0  0  0  0  0  0  0  0  0  0  0
  -50.6231   57.8048   60.2213 C   0  0  0  0  0  0  0  0  0  0  0  0
  -49.3807   58.3956   59.5500 C   0  0  0  0  0  0  0  0  0  0  0  0
  -48.0979   57.6537   59.9160 C   0  0  0  0  0  0  0  0  0  0  0  0
  7  8  2  0  0  0
  7  6  1  0  0  0
  7  9  1  0  0  0
  6  5  1  0  0  0
  9 10  1  0  0  0
  5  4  1  0  0  0
  4  3  1  0  0  0
  3  2  1  0  0  0
  2  1  1  0  0  0
  1 11  1  0  0  0
 11 12  1  0  0  0
 12 13  2  0  0  0
 13 14  1  0  0  0
 14 15  1  0  0  0
 15 16  1  0  0  0
 16 17  1  0  0  0
 17 18  1  0  0  0
 18 19  1  0  0  0
M  END
> <minimizedAffinity>
-6.51344

> <CNNscore>
0.7287331223

> <CNNaffinity>
6.2123436928

> <CNN_VS>
4.5271406174

> <CNNaffinity_variance>
0.3433333635

$$$$
/media/chris/experiments/cd1a-new-docking/inputs/ligands/4x6d_2_ligand.pdb


 19 18  0  0  0  0  0  0  0  0999 V2000
  -45.7895   59.6070   66.8048 C   0  0  0  0  0  0  0  0  0  0  0  0
  -45.0724   60.2358   65.6181 C   0  0  0  0  0  0  0  0  0  0  0  0
  -43.6630   59.6976   65.4381 C   0  0  0  0  0  0  0  0  0  0  0  0
  -42.8538   59.9123   66.7066 C   0  0  0  0  0  0  0  0  0  0  0  0
  -41.3814   59.7218   66.3904 C   0  0  0  0  0  0  0  0  0  0  0  0
  -41.1612   58.6033   65.3842 C   0  0  0  0  0  0  0  0  0  0  0  0
  -39.9061   58.8865   64.5968 C   0  0  0  0  0  0  0  0  0  0  0  0
  -39.7669   59.9803   64.0154 O   0  0  0  0  0  0  0  0  0  0  0  0
  -38.9925   58.0389   64.5083 O   0  0  0  0  0  0  0  0  0  0  0  0
  -39.0785   57.2108   64.9383 H   0  0  0  0  0  0  0  0  0  0  0  0
  -47.2837   59.7269   66.5425 C   0  0  0  0  0  0  0  0  0  0  0  0
  -47.6149   60.9707   65.7532 C   0  0  0  0  0  0  0  0  0  0  0  0
  -48.5090   60.8773   64.5882 C   0  0  0  0  0  0  0  0  0  0  0  0
  -48.9000   59.5143   64.0746 C   0  0  0  0  0  0  0  0  0  0  0  0
  -50.4129   59.4107   63.9163 C   0  0  0  0  0  0  0  0  0  0  0  0
  -50.8115   59.6540   62.4608 C   0  0  0  0  0  0  0  0  0  0  0  0
  -50.5898   58.4124   61.5984 C   0  0  0  0  0  0  0  0  0  0  0  0
  -49.7781   58.7294   60.3398 C   0  0  0  0  0  0  0  0  0  0  0  0
  -48.5615   57.8227   60.1731 C   0  0  0  0  0  0  0  0  0  0  0  0
  7  8  2  0  0  0
  7  6  1  0  0  0
  7  9  1  0  0  0
  6  5  1  0  0  0
  9 10  1  0  0  0
  5  4  1  0  0  0
  4  3  1  0  0  0
  3  2  1  0  0  0
  2  1  1  0  0  0
  1 11  1  0  0  0
 11 12  1  0  0  0
 12 13  2  0  0  0
 13 14  1  0  0  0
 14 15  1  0  0  0
 15 16  1  0  0  0
 16 17  1  0  0  0
 17 18  1  0  0  0
 18 19  1  0  0  0
M  END
> <minimizedAffinity>
-6.42593

> <CNNscore>
0.6956151128

> <CNNaffinity>
6.0801610947

> <CNN_VS>
4.2294521332

> <CNNaffinity_variance>
0.2358802259

$$$$
/media/chris/experiments/cd1a-new-docking/inputs/ligands/4x6d_2_ligand.pdb


 19 18  0  0  0  0  0  0  0  0999 V2000
  -43.5895   58.8232   66.0300 C   0  0  0  0  0  0  0  0  0  0  0  0
  -42.6438   59.7867   66.7337 C   0  0  0  0  0  0  0  0  0  0  0  0
  -41.1827   59.4659   66.4683 C   0  0  0  0  0  0  0  0  0  0  0  0
  -41.0486   58.6475   65.1946 C   0  0  0  0  0  0  0  0  0  0  0  0
  -39.8824   59.1838   64.3842 C   0  0  0  0  0  0  0  0  0  0  0  0
  -38.8595   58.0998   64.0833 C   0  0  0  0  0  0  0  0  0  0  0  0
  -37.6232   58.3424   64.9130 C   0  0  0  0  0  0  0  0  0  0  0  0
  -36.8095   57.4183   65.1064 O   0  0  0  0  0  0  0  0  0  0  0  0
  -37.3943   59.4604   65.4216 O   0  0  0  0  0  0  0  0  0  0  0  0
  -37.9941   60.1677   65.2877 H   0  0  0  0  0  0  0  0  0  0  0  0
  -44.8480   59.6037   65.6795 C   0  0  0  0  0  0  0  0  0  0  0  0
  -45.8455   59.5947   66.8129 C   0  0  0  0  0  0  0  0  0  0  0  0
  -46.9427   58.6142   66.8095 C   0  0  0  0  0  0  0  0  0  0  0  0
  -47.1785   57.7856   65.5717 C   0  0  0  0  0  0  0  0  0  0  0  0
  -48.4550   58.2251   64.8630 C   0  0  0  0  0  0  0  0  0  0  0  0
  -49.3493   59.0117   65.8211 C   0  0  0  0  0  0  0  0  0  0  0  0
  -50.4061   59.8220   65.0720 C   0  0  0  0  0  0  0  0  0  0  0  0
  -49.9443   60.1961   63.6614 C   0  0  0  0  0  0  0  0  0  0  0  0
  -50.9334   59.7701   62.5796 C   0  0  0  0  0  0  0  0  0  0  0  0
  7  8  2  0  0  0
  7  6  1  0  0  0
  7  9  1  0  0  0
  6  5  1  0  0  0
  9 10  1  0  0  0
  5  4  1  0  0  0
  4  3  1  0  0  0
  3  2  1  0  0  0
  2  1  1  0  0  0
  1 11  1  0  0  0
 11 12  1  0  0  0
 12 13  2  0  0  0
 13 14  1  0  0  0
 14 15  1  0  0  0
 15 16  1  0  0  0
 16 17  1  0  0  0
 17 18  1  0  0  0
 18 19  1  0  0  0
M  END
> <minimizedAffinity>
-6.18968

> <CNNscore>
0.6828427911

> <CNNaffinity>
6.1747169495

> <CNN_VS>
4.2163610458

> <CNNaffinity_variance>
0.3463411927

$$$$
/media/chris/experiments/cd1a-new-docking/inputs/ligands/4x6d_2_ligand.pdb


 19 18  0  0  0  0  0  0  0  0999 V2000
  -43.6986   58.9780   64.7507 C   0  0  0  0  0  0  0  0  0  0  0  0
  -43.0103   58.3889   65.9742 C   0  0  0  0  0  0  0  0  0  0  0  0
  -41.6565   59.0240   66.2424 C   0  0  0  0  0  0  0  0  0  0  0  0
  -40.6362   58.5311   65.2293 C   0  0  0  0  0  0  0  0  0  0  0  0
  -40.0804   59.7222   64.4698 C   0  0  0  0  0  0  0  0  0  0  0  0
  -38.6635   60.0581   64.9073 C   0  0  0  0  0  0  0  0  0  0  0  0
  -38.6428   61.4494   65.4900 C   0  0  0  0  0  0  0  0  0  0  0  0
  -37.5641   62.0643   65.6004 O   0  0  0  0  0  0  0  0  0  0  0  0
  -39.6933   62.0060   65.8739 O   0  0  0  0  0  0  0  0  0  0  0  0
  -40.5140   61.5601   65.7992 H   0  0  0  0  0  0  0  0  0  0  0  0
  -44.4765   60.2000   65.2168 C   0  0  0  0  0  0  0  0  0  0  0  0
  -45.3699   59.8798   66.3912 C   0  0  0  0  0  0  0  0  0  0  0  0
  -46.8306   59.9782   66.2432 C   0  0  0  0  0  0  0  0  0  0  0  0
  -47.3978   60.6059   64.9947 C   0  0  0  0  0  0  0  0  0  0  0  0
  -48.7896   61.1699   65.2586 C   0  0  0  0  0  0  0  0  0  0  0  0
  -49.7829   60.0352   65.5082 C   0  0  0  0  0  0  0  0  0  0  0  0
  -49.8397   59.0637   64.3303 C   0  0  0  0  0  0  0  0  0  0  0  0
  -50.6152   59.6471   63.1464 C   0  0  0  0  0  0  0  0  0  0  0  0
  -50.6175   58.7290   61.9269 C   0  0  0  0  0  0  0  0  0  0  0  0
  7  8  2  0  0  0
  7  6  1  0  0  0
  7  9  1  0  0  0
  6  5  1  0  0  0
  9 10  1  0  0  0
  5  4  1  0  0  0
  4  3  1  0  0  0
  3  2  1  0  0  0
  2  1  1  0  0  0
  1 11  1  0  0  0
 11 12  1  0  0  0
 12 13  2  0  0  0
 13 14  1  0  0  0
 14 15  1  0  0  0
 15 16  1  0  0  0
 16 17  1  0  0  0
 17 18  1  0  0  0
 18 19  1  0  0  0
M  END
> <minimizedAffinity>
-6.41658

> <CNNscore>
0.6128806472

> <CNNaffinity>
5.9764242172

> <CNN_VS>
3.6628346443

> <CNNaffinity_variance>
0.1906109005

$$$$
