/media/chris/experiments/cd1a-new-docking/inputs/ligands/4x6d_2_ligand.pdb


 19 18  0  0  0  0  0  0  0  0999 V2000
  -46.2263   59.7557   65.8593 C   0  0  0  0  0  0  0  0  0  0  0  0
  -44.7160   59.6963   65.6771 C   0  0  0  0  0  0  0  0  0  0  0  0
  -44.2324   58.3136   65.2744 C   0  0  0  0  0  0  0  0  0  0  0  0
  -42.7456   58.1749   65.5577 C   0  0  0  0  0  0  0  0  0  0  0  0
  -42.3001   59.3329   66.4322 C   0  0  0  0  0  0  0  0  0  0  0  0
  -40.9077   59.8171   66.0600 C   0  0  0  0  0  0  0  0  0  0  0  0
  -41.0086   61.1963   65.4571 C   0  0  0  0  0  0  0  0  0  0  0  0
  -41.6965   61.3819   64.4344 O   0  0  0  0  0  0  0  0  0  0  0  0
  -40.4081   62.1687   65.9617 O   0  0  0  0  0  0  0  0  0  0  0  0
  -39.8860   62.0492   66.7307 H   0  0  0  0  0  0  0  0  0  0  0  0
  -46.8332   58.7193   64.9248 C   0  0  0  0  0  0  0  0  0  0  0  0
  -48.1410   58.1842   65.4567 C   0  0  0  0  0  0  0  0  0  0  0  0
  -49.3862   58.4334   64.7132 C   0  0  0  0  0  0  0  0  0  0  0  0
  -49.3652   59.4003   63.5561 C   0  0  0  0  0  0  0  0  0  0  0  0
  -50.6259   59.2577   62.7104 C   0  0  0  0  0  0  0  0  0  0  0  0
  -50.4738   58.1006   61.7233 C   0  0  0  0  0  0  0  0  0  0  0  0
  -49.0649   58.0403   61.1351 C   0  0  0  0  0  0  0  0  0  0  0  0
  -49.0618   58.3243   59.6309 C   0  0  0  0  0  0  0  0  0  0  0  0
  -47.7341   57.9762   58.9631 C   0  0  0  0  0  0  0  0  0  0  0  0
  7  8  2  0  0  0
  7  6  1  0  0  0
  7  9  1  0  0  0
  6  5  1  0  0  0
  9 10  1  0  0  0
  5  4  1  0  0  0
  4  3  1  0  0  0
  3  2  1  0  0  0
  2  1  1  0  0  0
  1 11  1  0  0  0
 11 12  1  0  0  0
 12 13  2  0  0  0
 13 14  1  0  0  0
 14 15  1  0  0  0
 15 16  1  0  0  0
 16 17  1  0  0  0
 17 18  1  0  0  0
 18 19  1  0  0  0
M  END
> <minimizedAffinity>
-6.65423

> <CNNscore>
0.8444012403

> <CNNaffinity>
6.5279479027

> <CNN_VS>
5.5122075081

> <CNNaffinity_variance>
0.5901838541

$$$$
/media/chris/experiments/cd1a-new-docking/inputs/ligands/4x6d_2_ligand.pdb


 19 18  0  0  0  0  0  0  0  0999 V2000
  -46.6378   59.0611   66.9416 C   0  0  0  0  0  0  0  0  0  0  0  0
  -45.1946   59.5308   66.8219 C   0  0  0  0  0  0  0  0  0  0  0  0
  -44.9078   60.1953   65.4861 C   0  0  0  0  0  0  0  0  0  0  0  0
  -43.4787   59.9098   65.0545 C   0  0  0  0  0  0  0  0  0  0  0  0
  -42.5416   60.2410   66.2018 C   0  0  0  0  0  0  0  0  0  0  0  0
  -41.0830   60.0915   65.7991 C   0  0  0  0  0  0  0  0  0  0  0  0
  -40.4292   61.4510   65.7957 C   0  0  0  0  0  0  0  0  0  0  0  0
  -39.1864   61.5462   65.8004 O   0  0  0  0  0  0  0  0  0  0  0  0
  -41.1117   62.4974   65.7926 O   0  0  0  0  0  0  0  0  0  0  0  0
  -42.0474   62.4465   65.7890 H   0  0  0  0  0  0  0  0  0  0  0  0
  -47.2358   59.0839   65.5425 C   0  0  0  0  0  0  0  0  0  0  0  0
  -48.3053   58.0316   65.3741 C   0  0  0  0  0  0  0  0  0  0  0  0
  -49.7208   58.4318   65.3333 C   0  0  0  0  0  0  0  0  0  0  0  0
  -50.0885   59.8529   65.6790 C   0  0  0  0  0  0  0  0  0  0  0  0
  -50.3252   60.6722   64.4150 C   0  0  0  0  0  0  0  0  0  0  0  0
  -51.0342   59.8245   63.3591 C   0  0  0  0  0  0  0  0  0  0  0  0
  -50.2310   59.7488   62.0615 C   0  0  0  0  0  0  0  0  0  0  0  0
  -49.8563   58.3079   61.7056 C   0  0  0  0  0  0  0  0  0  0  0  0
  -50.9598   57.5774   60.9449 C   0  0  0  0  0  0  0  0  0  0  0  0
  7  8  2  0  0  0
  7  6  1  0  0  0
  7  9  1  0  0  0
  6  5  1  0  0  0
  9 10  1  0  0  0
  5  4  1  0  0  0
  4  3  1  0  0  0
  3  2  1  0  0  0
  2  1  1  0  0  0
  1 11  1  0  0  0
 11 12  1  0  0  0
 12 13  2  0  0  0
 13 14  1  0  0  0
 14 15  1  0  0  0
 15 16  1  0  0  0
 16 17  1  0  0  0
 17 18  1  0  0  0
 18 19  1  0  0  0
M  END
> <minimizedAffinity>
-6.80426

> <CNNscore>
0.7992114425

> <CNNaffinity>
6.1322565079

> <CNN_VS>
4.9009695053

> <CNNaffinity_variance>
0.3102644086

$$$$
/media/chris/experiments/cd1a-new-docking/inputs/ligands/4x6d_2_ligand.pdb


 19 18  0  0  0  0  0  0  0  0999 V2000
  -46.9469   59.4708   66.6038 C   0  0  0  0  0  0  0  0  0  0  0  0
  -45.4263   59.5322   66.6459 C   0  0  0  0  0  0  0  0  0  0  0  0
  -44.7765   58.4025   65.8652 C   0  0  0  0  0  0  0  0  0  0  0  0
  -43.7691   58.9618   64.8741 C   0  0  0  0  0  0  0  0  0  0  0  0
  -43.5790   60.4430   65.1468 C   0  0  0  0  0  0  0  0  0  0  0  0
  -42.7272   61.1081   64.0773 C   0  0  0  0  0  0  0  0  0  0  0  0
  -41.3705   61.4282   64.6539 C   0  0  0  0  0  0  0  0  0  0  0  0
  -40.3507   60.8798   64.1924 O   0  0  0  0  0  0  0  0  0  0  0  0
  -41.2427   62.2365   65.5979 O   0  0  0  0  0  0  0  0  0  0  0  0
  -41.9975   62.6590   65.9584 H   0  0  0  0  0  0  0  0  0  0  0  0
  -47.3682   59.7381   65.1661 C   0  0  0  0  0  0  0  0  0  0  0  0
  -47.9385   61.1261   64.9993 C   0  0  0  0  0  0  0  0  0  0  0  0
  -49.3917   61.3032   64.8496 C   0  0  0  0  0  0  0  0  0  0  0  0
  -50.2589   60.0864   64.6456 C   0  0  0  0  0  0  0  0  0  0  0  0
  -50.7705   60.0224   63.2107 C   0  0  0  0  0  0  0  0  0  0  0  0
  -50.3402   58.7116   62.5526 C   0  0  0  0  0  0  0  0  0  0  0  0
  -50.0255   58.8999   61.0693 C   0  0  0  0  0  0  0  0  0  0  0  0
  -50.4740   57.6981   60.2339 C   0  0  0  0  0  0  0  0  0  0  0  0
  -49.6322   57.5017   58.9758 C   0  0  0  0  0  0  0  0  0  0  0  0
  7  8  2  0  0  0
  7  6  1  0  0  0
  7  9  1  0  0  0
  6  5  1  0  0  0
  9 10  1  0  0  0
  5  4  1  0  0  0
  4  3  1  0  0  0
  3  2  1  0  0  0
  2  1  1  0  0  0
  1 11  1  0  0  0
 11 12  1  0  0  0
 12 13  2  0  0  0
 13 14  1  0  0  0
 14 15  1  0  0  0
 15 16  1  0  0  0
 16 17  1  0  0  0
 17 18  1  0  0  0
 18 19  1  0  0  0
M  END
> <minimizedAffinity>
-6.43738

> <CNNscore>
0.7655049562

> <CNNaffinity>
6.2385153770

> <CNN_VS>
4.7756142616

> <CNNaffinity_variance>
0.4733555317

$$$$
/media/chris/experiments/cd1a-new-docking/inputs/ligands/4x6d_2_ligand.pdb


 19 18  0  0  0  0  0  0  0  0999 V2000
  -45.2991   58.2733   65.5540 C   0  0  0  0  0  0  0  0  0  0  0  0
  -44.8356   59.6040   66.1303 C   0  0  0  0  0  0  0  0  0  0  0  0
  -43.3756   59.5795   66.5498 C   0  0  0  0  0  0  0  0  0  0  0  0
  -42.6076   60.6826   65.8404 C   0  0  0  0  0  0  0  0  0  0  0  0
  -42.8418   60.5637   64.3453 C   0  0  0  0  0  0  0  0  0  0  0  0
  -42.1464   61.6754   63.5758 C   0  0  0  0  0  0  0  0  0  0  0  0
  -41.0567   61.0781   62.7205 C   0  0  0  0  0  0  0  0  0  0  0  0
  -41.0196   61.3189   61.4981 O   0  0  0  0  0  0  0  0  0  0  0  0
  -40.1817   60.3346   63.2130 O   0  0  0  0  0  0  0  0  0  0  0  0
  -40.1927   60.1418   64.1300 H   0  0  0  0  0  0  0  0  0  0  0  0
  -46.6307   58.5228   64.8607 C   0  0  0  0  0  0  0  0  0  0  0  0
  -47.7913   58.0053   65.6761 C   0  0  0  0  0  0  0  0  0  0  0  0
  -49.1663   58.1931   65.1866 C   0  0  0  0  0  0  0  0  0  0  0  0
  -49.4021   59.0874   63.9955 C   0  0  0  0  0  0  0  0  0  0  0  0
  -49.3856   58.2798   62.7023 C   0  0  0  0  0  0  0  0  0  0  0  0
  -50.6409   58.5702   61.8800 C   0  0  0  0  0  0  0  0  0  0  0  0
  -50.8484   57.5319   60.7784 C   0  0  0  0  0  0  0  0  0  0  0  0
  -50.4038   58.0549   59.4102 C   0  0  0  0  0  0  0  0  0  0  0  0
  -48.8867   58.0628   59.2413 C   0  0  0  0  0  0  0  0  0  0  0  0
  7  8  2  0  0  0
  7  6  1  0  0  0
  7  9  1  0  0  0
  6  5  1  0  0  0
  9 10  1  0  0  0
  5  4  1  0  0  0
  4  3  1  0  0  0
  3  2  1  0  0  0
  2  1  1  0  0  0
  1 11  1  0  0  0
 11 12  1  0  0  0
 12 13  2  0  0  0
 13 14  1  0  0  0
 14 15  1  0  0  0
 15 16  1  0  0  0
 16 17  1  0  0  0
 17 18  1  0  0  0
 18 19  1  0  0  0
M  END
> <minimizedAffinity>
-6.47253

> <CNNscore>
0.7369127870

> <CNNaffinity>
6.3297972679

> <CNN_VS>
4.6645083427

> <CNNaffinity_variance>
0.6967142820

$$$$
/media/chris/experiments/cd1a-new-docking/inputs/ligands/4x6d_2_ligand.pdb


 19 18  0  0  0  0  0  0  0  0999 V2000
  -50.3930   60.1821   64.2141 C   0  0  0  0  0  0  0  0  0  0  0  0
  -50.9909   59.7391   62.8859 C   0  0  0  0  0  0  0  0  0  0  0  0
  -50.0330   58.8855   62.0724 C   0  0  0  0  0  0  0  0  0  0  0  0
  -50.8096   57.9345   61.1766 C   0  0  0  0  0  0  0  0  0  0  0  0
  -50.1748   57.9268   59.7977 C   0  0  0  0  0  0  0  0  0  0  0  0
  -48.7438   57.4145   59.8390 C   0  0  0  0  0  0  0  0  0  0  0  0
  -48.4230   56.7376   58.5296 C   0  0  0  0  0  0  0  0  0  0  0  0
  -48.8691   57.2003   57.4616 O   0  0  0  0  0  0  0  0  0  0  0  0
  -47.7156   55.7085   58.4893 O   0  0  0  0  0  0  0  0  0  0  0  0
  -47.3710   55.3456   59.2815 H   0  0  0  0  0  0  0  0  0  0  0  0
  -49.0934   59.4129   64.4012 C   0  0  0  0  0  0  0  0  0  0  0  0
  -48.0629   60.2283   65.1448 C   0  0  0  0  0  0  0  0  0  0  0  0
  -46.6887   59.7190   65.2777 C   0  0  0  0  0  0  0  0  0  0  0  0
  -46.3920   58.3001   64.8620 C   0  0  0  0  0  0  0  0  0  0  0  0
  -45.2738   57.7103   65.7145 C   0  0  0  0  0  0  0  0  0  0  0  0
  -44.2793   58.8008   66.1123 C   0  0  0  0  0  0  0  0  0  0  0  0
  -42.8352   58.3664   65.8666 C   0  0  0  0  0  0  0  0  0  0  0  0
  -41.8541   59.1034   66.7818 C   0  0  0  0  0  0  0  0  0  0  0  0
  -42.3356   60.4995   67.1677 C   0  0  0  0  0  0  0  0  0  0  0  0
  7  8  2  0  0  0
  7  6  1  0  0  0
  7  9  1  0  0  0
  6  5  1  0  0  0
  9 10  1  0  0  0
  5  4  1  0  0  0
  4  3  1  0  0  0
  3  2  1  0  0  0
  2  1  1  0  0  0
  1 11  1  0  0  0
 11 12  1  0  0  0
 12 13  2  0  0  0
 13 14  1  0  0  0
 14 15  1  0  0  0
 15 16  1  0  0  0
 16 17  1  0  0  0
 17 18  1  0  0  0
 18 19  1  0  0  0
M  END
> <minimizedAffinity>
-6.75032

> <CNNscore>
0.7353273630

> <CNNaffinity>
6.5130095482

> <CNN_VS>
4.7891941071

> <CNNaffinity_variance>
0.8720501065

$$$$
/media/chris/experiments/cd1a-new-docking/inputs/ligands/4x6d_2_ligand.pdb


 19 18  0  0  0  0  0  0  0  0999 V2000
  -44.8724   59.4270   66.5345 C   0  0  0  0  0  0  0  0  0  0  0  0
  -44.2272   60.1967   65.3903 C   0  0  0  0  0  0  0  0  0  0  0  0
  -43.0660   59.4434   64.7641 C   0  0  0  0  0  0  0  0  0  0  0  0
  -41.9568   59.2473   65.7845 C   0  0  0  0  0  0  0  0  0  0  0  0
  -40.6190   59.5018   65.1138 C   0  0  0  0  0  0  0  0  0  0  0  0
  -39.9868   60.7994   65.5917 C   0  0  0  0  0  0  0  0  0  0  0  0
  -38.5006   60.5960   65.7509 C   0  0  0  0  0  0  0  0  0  0  0  0
  -37.8068   61.4695   66.3070 O   0  0  0  0  0  0  0  0  0  0  0  0
  -37.9400   59.5620   65.3296 O   0  0  0  0  0  0  0  0  0  0  0  0
  -38.4446   58.8938   64.9088 H   0  0  0  0  0  0  0  0  0  0  0  0
  -46.3413   59.8230   66.5711 C   0  0  0  0  0  0  0  0  0  0  0  0
  -46.7360   60.6208   65.3515 C   0  0  0  0  0  0  0  0  0  0  0  0
  -48.1570   60.9051   65.0958 C   0  0  0  0  0  0  0  0  0  0  0  0
  -49.2029   60.2115   65.9321 C   0  0  0  0  0  0  0  0  0  0  0  0
  -50.0888   59.3258   65.0629 C   0  0  0  0  0  0  0  0  0  0  0  0
  -50.9533   60.1841   64.1397 C   0  0  0  0  0  0  0  0  0  0  0  0
  -50.6810   59.8817   62.6669 C   0  0  0  0  0  0  0  0  0  0  0  0
  -50.2414   58.4309   62.4541 C   0  0  0  0  0  0  0  0  0  0  0  0
  -50.8934   57.7853   61.2342 C   0  0  0  0  0  0  0  0  0  0  0  0
  7  8  2  0  0  0
  7  6  1  0  0  0
  7  9  1  0  0  0
  6  5  1  0  0  0
  9 10  1  0  0  0
  5  4  1  0  0  0
  4  3  1  0  0  0
  3  2  1  0  0  0
  2  1  1  0  0  0
  1 11  1  0  0  0
 11 12  1  0  0  0
 12 13  2  0  0  0
 13 14  1  0  0  0
 14 15  1  0  0  0
 15 16  1  0  0  0
 16 17  1  0  0  0
 17 18  1  0  0  0
 18 19  1  0  0  0
M  END
> <minimizedAffinity>
-6.49725

> <CNNscore>
0.7040165067

> <CNNaffinity>
6.0841155052

> <CNN_VS>
4.2833175659

> <CNNaffinity_variance>
0.3960623443

$$$$
/media/chris/experiments/cd1a-new-docking/inputs/ligands/4x6d_2_ligand.pdb


 19 18  0  0  0  0  0  0  0  0999 V2000
  -44.4803   57.4608   64.9387 C   0  0  0  0  0  0  0  0  0  0  0  0
  -43.5757   58.1327   65.9624 C   0  0  0  0  0  0  0  0  0  0  0  0
  -43.8335   59.6256   66.0757 C   0  0  0  0  0  0  0  0  0  0  0  0
  -42.8244   60.2621   67.0173 C   0  0  0  0  0  0  0  0  0  0  0  0
  -41.4329   59.7822   66.6465 C   0  0  0  0  0  0  0  0  0  0  0  0
  -40.8845   60.5238   65.4378 C   0  0  0  0  0  0  0  0  0  0  0  0
  -40.1774   59.5435   64.5351 C   0  0  0  0  0  0  0  0  0  0  0  0
  -39.5494   59.9526   63.5391 O   0  0  0  0  0  0  0  0  0  0  0  0
  -40.2098   58.3153   64.7619 O   0  0  0  0  0  0  0  0  0  0  0  0
  -40.6767   57.9884   65.5057 H   0  0  0  0  0  0  0  0  0  0  0  0
  -45.7567   58.2852   64.8566 C   0  0  0  0  0  0  0  0  0  0  0  0
  -46.8825   57.6523   65.6388 C   0  0  0  0  0  0  0  0  0  0  0  0
  -48.2756   57.8773   65.2216 C   0  0  0  0  0  0  0  0  0  0  0  0
  -48.5627   58.9084   64.1591 C   0  0  0  0  0  0  0  0  0  0  0  0
  -50.0561   58.9723   63.8583 C   0  0  0  0  0  0  0  0  0  0  0  0
  -50.2861   59.3042   62.3841 C   0  0  0  0  0  0  0  0  0  0  0  0
  -50.7620   58.0840   61.5971 C   0  0  0  0  0  0  0  0  0  0  0  0
  -49.6860   57.5685   60.6380 C   0  0  0  0  0  0  0  0  0  0  0  0
  -50.0232   57.8273   59.1720 C   0  0  0  0  0  0  0  0  0  0  0  0
  7  8  2  0  0  0
  7  6  1  0  0  0
  7  9  1  0  0  0
  6  5  1  0  0  0
  9 10  1  0  0  0
  5  4  1  0  0  0
  4  3  1  0  0  0
  3  2  1  0  0  0
  2  1  1  0  0  0
  1 11  1  0  0  0
 11 12  1  0  0  0
 12 13  2  0  0  0
 13 14  1  0  0  0
 14 15  1  0  0  0
 15 16  1  0  0  0
 16 17  1  0  0  0
 17 18  1  0  0  0
 18 19  1  0  0  0
M  END
> <minimizedAffinity>
-6.34599

> <CNNscore>
0.6662781239

> <CNNaffinity>
6.1431107521

> <CNN_VS>
4.0930204391

> <CNNaffinity_variance>
0.2114040554

$$$$
/media/chris/experiments/cd1a-new-docking/inputs/ligands/4x6d_2_ligand.pdb


 19 18  0  0  0  0  0  0  0  0999 V2000
  -44.9245   60.4795   65.0306 C   0  0  0  0  0  0  0  0  0  0  0  0
  -44.5971   59.4986   66.1480 C   0  0  0  0  0  0  0  0  0  0  0  0
  -43.8217   58.2898   65.6525 C   0  0  0  0  0  0  0  0  0  0  0  0
  -42.5162   58.1541   66.4188 C   0  0  0  0  0  0  0  0  0  0  0  0
  -41.9778   59.5399   66.7253 C   0  0  0  0  0  0  0  0  0  0  0  0
  -40.7551   59.8684   65.8834 C   0  0  0  0  0  0  0  0  0  0  0  0
  -40.8389   61.3045   65.4291 C   0  0  0  0  0  0  0  0  0  0  0  0
  -41.6174   61.6242   64.5096 O   0  0  0  0  0  0  0  0  0  0  0  0
  -40.1347   62.1920   65.9556 O   0  0  0  0  0  0  0  0  0  0  0  0
  -39.5434   61.9714   66.6483 H   0  0  0  0  0  0  0  0  0  0  0  0
  -46.3529   60.9546   65.2533 C   0  0  0  0  0  0  0  0  0  0  0  0
  -47.0639   60.1213   66.2925 C   0  0  0  0  0  0  0  0  0  0  0  0
  -48.5269   59.9748   66.2322 C   0  0  0  0  0  0  0  0  0  0  0  0
  -49.3081   60.8335   65.2697 C   0  0  0  0  0  0  0  0  0  0  0  0
  -50.6906   60.2417   65.0179 C   0  0  0  0  0  0  0  0  0  0  0  0
  -50.8956   59.9907   63.5242 C   0  0  0  0  0  0  0  0  0  0  0  0
  -50.1265   58.7598   63.0466 C   0  0  0  0  0  0  0  0  0  0  0  0
  -50.6531   58.2429   61.7054 C   0  0  0  0  0  0  0  0  0  0  0  0
  -49.7622   58.6303   60.5280 C   0  0  0  0  0  0  0  0  0  0  0  0
  7  8  2  0  0  0
  7  6  1  0  0  0
  7  9  1  0  0  0
  6  5  1  0  0  0
  9 10  1  0  0  0
  5  4  1  0  0  0
  4  3  1  0  0  0
  3  2  1  0  0  0
  2  1  1  0  0  0
  1 11  1  0  0  0
 11 12  1  0  0  0
 12 13  2  0  0  0
 13 14  1  0  0  0
 14 15  1  0  0  0
 15 16  1  0  0  0
 16 17  1  0  0  0
 17 18  1  0  0  0
 18 19  1  0  0  0
M  END
> <minimizedAffinity>
-6.69580

> <CNNscore>
0.6196396947

> <CNNaffinity>
5.9417347908

> <CNN_VS>
3.6817348003

> <CNNaffinity_variance>
0.2530590594

$$$$
/media/chris/experiments/cd1a-new-docking/inputs/ligands/4x6d_2_ligand.pdb


 19 18  0  0  0  0  0  0  0  0999 V2000
  -42.3603   60.1026   65.0333 C   0  0  0  0  0  0  0  0  0  0  0  0
  -41.4516   58.9184   65.3326 C   0  0  0  0  0  0  0  0  0  0  0  0
  -39.9834   59.2413   65.1128 C   0  0  0  0  0  0  0  0  0  0  0  0
  -39.3279   58.1569   64.2736 C   0  0  0  0  0  0  0  0  0  0  0  0
  -38.7423   58.7874   63.0231 C   0  0  0  0  0  0  0  0  0  0  0  0
  -39.1302   60.2520   62.8958 C   0  0  0  0  0  0  0  0  0  0  0  0
  -38.0307   60.9941   62.1775 C   0  0  0  0  0  0  0  0  0  0  0  0
  -37.1671   61.6140   62.8284 O   0  0  0  0  0  0  0  0  0  0  0  0
  -37.9662   61.0066   60.9298 O   0  0  0  0  0  0  0  0  0  0  0  0
  -38.6061   60.5466   60.4230 H   0  0  0  0  0  0  0  0  0  0  0  0
  -43.7859   59.5731   64.9787 C   0  0  0  0  0  0  0  0  0  0  0  0
  -43.8201   58.0821   64.7429 C   0  0  0  0  0  0  0  0  0  0  0  0
  -44.8931   57.2742   65.3440 C   0  0  0  0  0  0  0  0  0  0  0  0
  -45.8077   57.9130   66.3588 C   0  0  0  0  0  0  0  0  0  0  0  0
  -47.2640   57.7959   65.9224 C   0  0  0  0  0  0  0  0  0  0  0  0
  -47.4835   58.5379   64.6042 C   0  0  0  0  0  0  0  0  0  0  0  0
  -48.9647   58.6117   64.2364 C   0  0  0  0  0  0  0  0  0  0  0  0
  -49.8567   58.7047   65.4769 C   0  0  0  0  0  0  0  0  0  0  0  0
  -50.4165   60.1067   65.7026 C   0  0  0  0  0  0  0  0  0  0  0  0
  7  8  2  0  0  0
  7  6  1  0  0  0
  7  9  1  0  0  0
  6  5  1  0  0  0
  9 10  1  0  0  0
  5  4  1  0  0  0
  4  3  1  0  0  0
  3  2  1  0  0  0
  2  1  1  0  0  0
  1 11  1  0  0  0
 11 12  1  0  0  0
 12 13  2  0  0  0
 13 14  1  0  0  0
 14 15  1  0  0  0
 15 16  1  0  0  0
 16 17  1  0  0  0
 17 18  1  0  0  0
 18 19  1  0  0  0
M  END
> <minimizedAffinity>
-6.35816

> <CNNscore>
0.6102890372

> <CNNaffinity>
6.0402159691

> <CNN_VS>
3.6862776279

> <CNNaffinity_variance>
0.2046167105

$$$$
