/media/chris/experiments/cd1a-new-docking/inputs/ligands/4x6d_2_ligand.pdb


 19 18  0  0  0  0  0  0  0  0999 V2000
  -46.0066   57.7806   65.3402 C   0  0  0  0  0  0  0  0  0  0  0  0
  -44.7856   57.9086   64.4399 C   0  0  0  0  0  0  0  0  0  0  0  0
  -43.4841   57.9251   65.2234 C   0  0  0  0  0  0  0  0  0  0  0  0
  -43.5579   58.9528   66.3408 C   0  0  0  0  0  0  0  0  0  0  0  0
  -42.1541   59.4321   66.6636 C   0  0  0  0  0  0  0  0  0  0  0  0
  -42.0875   60.9470   66.7748 C   0  0  0  0  0  0  0  0  0  0  0  0
  -41.1603   61.4806   65.7113 C   0  0  0  0  0  0  0  0  0  0  0  0
  -41.1674   60.9816   64.5691 O   0  0  0  0  0  0  0  0  0  0  0  0
  -40.3720   62.4196   65.9516 O   0  0  0  0  0  0  0  0  0  0  0  0
  -40.3519   62.8079   66.8041 H   0  0  0  0  0  0  0  0  0  0  0  0
  -47.0261   58.8050   64.8638 C   0  0  0  0  0  0  0  0  0  0  0  0
  -48.4165   58.4804   65.3549 C   0  0  0  0  0  0  0  0  0  0  0  0
  -49.5132   58.3251   64.3861 C   0  0  0  0  0  0  0  0  0  0  0  0
  -49.2764   58.7076   62.9467 C   0  0  0  0  0  0  0  0  0  0  0  0
  -50.5414   58.5067   62.1195 C   0  0  0  0  0  0  0  0  0  0  0  0
  -50.2555   57.5942   60.9271 C   0  0  0  0  0  0  0  0  0  0  0  0
  -49.7840   58.3865   59.7087 C   0  0  0  0  0  0  0  0  0  0  0  0
  -48.8145   57.5781   58.8427 C   0  0  0  0  0  0  0  0  0  0  0  0
  -47.5608   58.3621   58.4637 C   0  0  0  0  0  0  0  0  0  0  0  0
  7  8  2  0  0  0
  7  6  1  0  0  0
  7  9  1  0  0  0
  6  5  1  0  0  0
  9 10  1  0  0  0
  5  4  1  0  0  0
  4  3  1  0  0  0
  3  2  1  0  0  0
  2  1  1  0  0  0
  1 11  1  0  0  0
 11 12  1  0  0  0
 12 13  2  0  0  0
 13 14  1  0  0  0
 14 15  1  0  0  0
 15 16  1  0  0  0
 16 17  1  0  0  0
 17 18  1  0  0  0
 18 19  1  0  0  0
M  END
> <minimizedAffinity>
-6.90514

> <CNNscore>
0.8641566634

> <CNNaffinity>
6.6204590797

> <CNN_VS>
5.7211136818

> <CNNaffinity_variance>
0.5801630616

$$$$
/media/chris/experiments/cd1a-new-docking/inputs/ligands/4x6d_2_ligand.pdb


 19 18  0  0  0  0  0  0  0  0999 V2000
  -49.0046   59.2680   65.5099 C   0  0  0  0  0  0  0  0  0  0  0  0
  -48.0914   60.2090   66.2834 C   0  0  0  0  0  0  0  0  0  0  0  0
  -46.7153   60.3339   65.6520 C   0  0  0  0  0  0  0  0  0  0  0  0
  -45.7980   59.2399   66.1735 C   0  0  0  0  0  0  0  0  0  0  0  0
  -44.5682   59.1632   65.2867 C   0  0  0  0  0  0  0  0  0  0  0  0
  -43.6525   60.3601   65.4882 C   0  0  0  0  0  0  0  0  0  0  0  0
  -42.7547   60.1021   66.6726 C   0  0  0  0  0  0  0  0  0  0  0  0
  -42.1110   59.0373   66.7480 O   0  0  0  0  0  0  0  0  0  0  0  0
  -42.6425   60.9383   67.5941 O   0  0  0  0  0  0  0  0  0  0  0  0
  -43.1181   61.7446   67.5555 H   0  0  0  0  0  0  0  0  0  0  0  0
  -48.9874   59.7184   64.0564 C   0  0  0  0  0  0  0  0  0  0  0  0
  -50.3789   59.9972   63.5408 C   0  0  0  0  0  0  0  0  0  0  0  0
  -50.9308   59.1744   62.4529 C   0  0  0  0  0  0  0  0  0  0  0  0
  -50.0200   58.2160   61.7273 C   0  0  0  0  0  0  0  0  0  0  0  0
  -50.6538   57.7542   60.4196 C   0  0  0  0  0  0  0  0  0  0  0  0
  -49.6218   57.7800   59.2924 C   0  0  0  0  0  0  0  0  0  0  0  0
  -48.1981   57.9097   59.8317 C   0  0  0  0  0  0  0  0  0  0  0  0
  -47.1536   57.5060   58.7880 C   0  0  0  0  0  0  0  0  0  0  0  0
  -46.8963   58.5970   57.7518 C   0  0  0  0  0  0  0  0  0  0  0  0
  7  8  2  0  0  0
  7  6  1  0  0  0
  7  9  1  0  0  0
  6  5  1  0  0  0
  9 10  1  0  0  0
  5  4  1  0  0  0
  4  3  1  0  0  0
  3  2  1  0  0  0
  2  1  1  0  0  0
  1 11  1  0  0  0
 11 12  1  0  0  0
 12 13  2  0  0  0
 13 14  1  0  0  0
 14 15  1  0  0  0
 15 16  1  0  0  0
 16 17  1  0  0  0
 17 18  1  0  0  0
 18 19  1  0  0  0
M  END
> <minimizedAffinity>
-7.11736

> <CNNscore>
0.7754411697

> <CNNaffinity>
6.4292039871

> <CNN_VS>
4.9854693413

> <CNNaffinity_variance>
0.5333082080

$$$$
/media/chris/experiments/cd1a-new-docking/inputs/ligands/4x6d_2_ligand.pdb


 19 18  0  0  0  0  0  0  0  0999 V2000
  -45.6681   60.2559   65.4867 C   0  0  0  0  0  0  0  0  0  0  0  0
  -44.4751   59.5353   66.0992 C   0  0  0  0  0  0  0  0  0  0  0  0
  -43.7480   58.6566   65.0956 C   0  0  0  0  0  0  0  0  0  0  0  0
  -42.4524   58.1363   65.6961 C   0  0  0  0  0  0  0  0  0  0  0  0
  -41.8069   59.2428   66.5107 C   0  0  0  0  0  0  0  0  0  0  0  0
  -40.5723   59.8026   65.8222 C   0  0  0  0  0  0  0  0  0  0  0  0
  -40.8048   61.2568   65.4956 C   0  0  0  0  0  0  0  0  0  0  0  0
  -41.7811   61.5914   64.7966 O   0  0  0  0  0  0  0  0  0  0  0  0
  -40.0302   62.1451   65.9100 O   0  0  0  0  0  0  0  0  0  0  0  0
  -39.2908   61.9135   66.4369 H   0  0  0  0  0  0  0  0  0  0  0  0
  -46.9058   59.8047   66.2486 C   0  0  0  0  0  0  0  0  0  0  0  0
  -47.0616   58.3031   66.2232 C   0  0  0  0  0  0  0  0  0  0  0  0
  -48.1272   57.6952   65.4106 C   0  0  0  0  0  0  0  0  0  0  0  0
  -49.1762   58.5872   64.7957 C   0  0  0  0  0  0  0  0  0  0  0  0
  -48.8992   58.8028   63.3119 C   0  0  0  0  0  0  0  0  0  0  0  0
  -50.0502   58.2495   62.4720 C   0  0  0  0  0  0  0  0  0  0  0  0
  -50.0536   58.8355   61.0610 C   0  0  0  0  0  0  0  0  0  0  0  0
  -50.4252   57.7876   60.0088 C   0  0  0  0  0  0  0  0  0  0  0  0
  -49.7067   56.4569   60.2156 C   0  0  0  0  0  0  0  0  0  0  0  0
  7  8  2  0  0  0
  7  6  1  0  0  0
  7  9  1  0  0  0
  6  5  1  0  0  0
  9 10  1  0  0  0
  5  4  1  0  0  0
  4  3  1  0  0  0
  3  2  1  0  0  0
  2  1  1  0  0  0
  1 11  1  0  0  0
 11 12  1  0  0  0
 12 13  2  0  0  0
 13 14  1  0  0  0
 14 15  1  0  0  0
 15 16  1  0  0  0
 16 17  1  0  0  0
 17 18  1  0  0  0
 18 19  1  0  0  0
M  END
> <minimizedAffinity>
-6.59083

> <CNNscore>
0.7727649808

> <CNNaffinity>
6.2554473877

> <CNN_VS>
4.8339905739

> <CNNaffinity_variance>
0.3695136905

$$$$
/media/chris/experiments/cd1a-new-docking/inputs/ligands/4x6d_2_ligand.pdb


 19 18  0  0  0  0  0  0  0  0999 V2000
  -46.0452   59.4752   66.7139 C   0  0  0  0  0  0  0  0  0  0  0  0
  -44.5610   59.8045   66.6330 C   0  0  0  0  0  0  0  0  0  0  0  0
  -43.9178   59.2830   65.3593 C   0  0  0  0  0  0  0  0  0  0  0  0
  -42.7527   58.3673   65.6972 C   0  0  0  0  0  0  0  0  0  0  0  0
  -41.7812   59.1151   66.5925 C   0  0  0  0  0  0  0  0  0  0  0  0
  -40.6199   59.6968   65.8021 C   0  0  0  0  0  0  0  0  0  0  0  0
  -40.6188   61.1973   65.9568 C   0  0  0  0  0  0  0  0  0  0  0  0
  -41.6537   61.7882   66.3221 O   0  0  0  0  0  0  0  0  0  0  0  0
  -39.5940   61.8717   65.7202 O   0  0  0  0  0  0  0  0  0  0  0  0
  -38.8062   61.4457   65.4446 H   0  0  0  0  0  0  0  0  0  0  0  0
  -46.6140   59.6145   65.3093 C   0  0  0  0  0  0  0  0  0  0  0  0
  -47.2545   60.9651   65.0967 C   0  0  0  0  0  0  0  0  0  0  0  0
  -48.7043   61.0547   64.8618 C   0  0  0  0  0  0  0  0  0  0  0  0
  -49.4851   59.7873   64.6197 C   0  0  0  0  0  0  0  0  0  0  0  0
  -50.8132   60.0935   63.9361 C   0  0  0  0  0  0  0  0  0  0  0  0
  -50.7471   59.7159   62.4565 C   0  0  0  0  0  0  0  0  0  0  0  0
  -50.2617   58.2805   62.2601 C   0  0  0  0  0  0  0  0  0  0  0  0
  -50.8723   57.6373   61.0124 C   0  0  0  0  0  0  0  0  0  0  0  0
  -50.2606   58.1591   59.7149 C   0  0  0  0  0  0  0  0  0  0  0  0
  7  8  2  0  0  0
  7  6  1  0  0  0
  7  9  1  0  0  0
  6  5  1  0  0  0
  9 10  1  0  0  0
  5  4  1  0  0  0
  4  3  1  0  0  0
  3  2  1  0  0  0
  2  1  1  0  0  0
  1 11  1  0  0  0
 11 12  1  0  0  0
 12 13  2  0  0  0
 13 14  1  0  0  0
 14 15  1  0  0  0
 15 16  1  0  0  0
 16 17  1  0  0  0
 17 18  1  0  0  0
 18 19  1  0  0  0
M  END
> <minimizedAffinity>
-6.85118

> <CNNscore>
0.7718220353

> <CNNaffinity>
6.1428723335

> <CNN_VS>
4.7412042618

> <CNNaffinity_variance>
0.3023048639

$$$$
/media/chris/experiments/cd1a-new-docking/inputs/ligands/4x6d_2_ligand.pdb


 19 18  0  0  0  0  0  0  0  0999 V2000
  -43.9444   58.1585   65.6716 C   0  0  0  0  0  0  0  0  0  0  0  0
  -44.0471   59.5786   66.2106 C   0  0  0  0  0  0  0  0  0  0  0  0
  -42.7641   60.0411   66.8801 C   0  0  0  0  0  0  0  0  0  0  0  0
  -41.6355   59.0689   66.5785 C   0  0  0  0  0  0  0  0  0  0  0  0
  -40.5296   59.8083   65.8471 C   0  0  0  0  0  0  0  0  0  0  0  0
  -40.4343   59.3822   64.3907 C   0  0  0  0  0  0  0  0  0  0  0  0
  -39.1441   58.6300   64.1790 C   0  0  0  0  0  0  0  0  0  0  0  0
  -38.3324   58.5062   65.1168 O   0  0  0  0  0  0  0  0  0  0  0  0
  -38.8634   58.1253   63.0711 O   0  0  0  0  0  0  0  0  0  0  0  0
  -39.4608   58.2076   62.3540 H   0  0  0  0  0  0  0  0  0  0  0  0
  -45.1620   57.9229   64.7898 C   0  0  0  0  0  0  0  0  0  0  0  0
  -46.3349   57.3999   65.5839 C   0  0  0  0  0  0  0  0  0  0  0  0
  -47.6210   58.1136   65.5390 C   0  0  0  0  0  0  0  0  0  0  0  0
  -47.6821   59.4687   64.8799 C   0  0  0  0  0  0  0  0  0  0  0  0
  -49.0171   59.6638   64.1695 C   0  0  0  0  0  0  0  0  0  0  0  0
  -49.3968   58.3999   63.3984 C   0  0  0  0  0  0  0  0  0  0  0  0
  -50.3089   58.7128   62.2133 C   0  0  0  0  0  0  0  0  0  0  0  0
  -50.3260   57.5743   61.1902 C   0  0  0  0  0  0  0  0  0  0  0  0
  -50.3015   58.0715   59.7472 C   0  0  0  0  0  0  0  0  0  0  0  0
  7  8  2  0  0  0
  7  6  1  0  0  0
  7  9  1  0  0  0
  6  5  1  0  0  0
  9 10  1  0  0  0
  5  4  1  0  0  0
  4  3  1  0  0  0
  3  2  1  0  0  0
  2  1  1  0  0  0
  1 11  1  0  0  0
 11 12  1  0  0  0
 12 13  2  0  0  0
 13 14  1  0  0  0
 14 15  1  0  0  0
 15 16  1  0  0  0
 16 17  1  0  0  0
 17 18  1  0  0  0
 18 19  1  0  0  0
M  END
> <minimizedAffinity>
-6.22659

> <CNNscore>
0.6463091969

> <CNNaffinity>
6.1891465187

> <CNN_VS>
4.0001025200

> <CNNaffinity_variance>
0.2040032893

$$$$
/media/chris/experiments/cd1a-new-docking/inputs/ligands/4x6d_2_ligand.pdb


 19 18  0  0  0  0  0  0  0  0999 V2000
  -40.0305   59.2340   64.6006 C   0  0  0  0  0  0  0  0  0  0  0  0
  -39.0840   58.0487   64.4705 C   0  0  0  0  0  0  0  0  0  0  0  0
  -38.4792   57.9367   63.0814 C   0  0  0  0  0  0  0  0  0  0  0  0
  -37.0533   58.4629   63.0864 C   0  0  0  0  0  0  0  0  0  0  0  0
  -36.7805   59.1611   61.7662 C   0  0  0  0  0  0  0  0  0  0  0  0
  -38.0367   59.2708   60.9167 C   0  0  0  0  0  0  0  0  0  0  0  0
  -38.5277   60.6969   60.9420 C   0  0  0  0  0  0  0  0  0  0  0  0
  -39.5642   61.0115   60.3253 O   0  0  0  0  0  0  0  0  0  0  0  0
  -37.9105   61.5830   61.5704 O   0  0  0  0  0  0  0  0  0  0  0  0
  -37.1293   61.3661   62.0402 H   0  0  0  0  0  0  0  0  0  0  0  0
  -41.3034   58.7229   65.2597 C   0  0  0  0  0  0  0  0  0  0  0  0
  -41.7528   59.6260   66.3831 C   0  0  0  0  0  0  0  0  0  0  0  0
  -43.1902   59.8337   66.6198 C   0  0  0  0  0  0  0  0  0  0  0  0
  -44.1798   59.3190   65.6048 C   0  0  0  0  0  0  0  0  0  0  0  0
  -45.3407   60.2938   65.4401 C   0  0  0  0  0  0  0  0  0  0  0  0
  -46.4700   59.9414   66.4079 C   0  0  0  0  0  0  0  0  0  0  0  0
  -46.9666   58.5113   66.2011 C   0  0  0  0  0  0  0  0  0  0  0  0
  -47.8132   58.3791   64.9326 C   0  0  0  0  0  0  0  0  0  0  0  0
  -49.3108   58.3157   65.2214 C   0  0  0  0  0  0  0  0  0  0  0  0
  7  8  2  0  0  0
  7  6  1  0  0  0
  7  9  1  0  0  0
  6  5  1  0  0  0
  9 10  1  0  0  0
  5  4  1  0  0  0
  4  3  1  0  0  0
  3  2  1  0  0  0
  2  1  1  0  0  0
  1 11  1  0  0  0
 11 12  1  0  0  0
 12 13  2  0  0  0
 13 14  1  0  0  0
 14 15  1  0  0  0
 15 16  1  0  0  0
 16 17  1  0  0  0
 17 18  1  0  0  0
 18 19  1  0  0  0
M  END
> <minimizedAffinity>
-6.34930

> <CNNscore>
0.6065850258

> <CNNaffinity>
5.8226909637

> <CNN_VS>
3.5319571495

> <CNNaffinity_variance>
0.1785928607

$$$$
/media/chris/experiments/cd1a-new-docking/inputs/ligands/4x6d_2_ligand.pdb


 19 18  0  0  0  0  0  0  0  0999 V2000
  -43.9069   60.0965   65.8303 C   0  0  0  0  0  0  0  0  0  0  0  0
  -42.8884   60.2734   66.9480 C   0  0  0  0  0  0  0  0  0  0  0  0
  -41.8062   59.2073   66.9231 C   0  0  0  0  0  0  0  0  0  0  0  0
  -41.6972   58.6033   65.5327 C   0  0  0  0  0  0  0  0  0  0  0  0
  -40.3178   58.9002   64.9727 C   0  0  0  0  0  0  0  0  0  0  0  0
  -40.2361   60.3020   64.3894 C   0  0  0  0  0  0  0  0  0  0  0  0
  -39.0143   60.9957   64.9386 C   0  0  0  0  0  0  0  0  0  0  0  0
  -37.8759   60.5900   64.6335 O   0  0  0  0  0  0  0  0  0  0  0  0
  -39.1169   61.9767   65.7054 O   0  0  0  0  0  0  0  0  0  0  0  0
  -39.9640   62.2964   65.9464 H   0  0  0  0  0  0  0  0  0  0  0  0
  -45.2079   59.6414   66.4753 C   0  0  0  0  0  0  0  0  0  0  0  0
  -46.0293   58.7898   65.5372 C   0  0  0  0  0  0  0  0  0  0  0  0
  -47.2768   59.3262   64.9704 C   0  0  0  0  0  0  0  0  0  0  0  0
  -47.8231   60.6259   65.5059 C   0  0  0  0  0  0  0  0  0  0  0  0
  -49.2332   60.4341   66.0535 C   0  0  0  0  0  0  0  0  0  0  0  0
  -49.9965   59.4157   65.2070 C   0  0  0  0  0  0  0  0  0  0  0  0
  -50.8723   60.0964   64.1563 C   0  0  0  0  0  0  0  0  0  0  0  0
  -50.3163   59.9100   62.7423 C   0  0  0  0  0  0  0  0  0  0  0  0
  -50.3276   58.4533   62.2865 C   0  0  0  0  0  0  0  0  0  0  0  0
  7  8  2  0  0  0
  7  6  1  0  0  0
  7  9  1  0  0  0
  6  5  1  0  0  0
  9 10  1  0  0  0
  5  4  1  0  0  0
  4  3  1  0  0  0
  3  2  1  0  0  0
  2  1  1  0  0  0
  1 11  1  0  0  0
 11 12  1  0  0  0
 12 13  2  0  0  0
 13 14  1  0  0  0
 14 15  1  0  0  0
 15 16  1  0  0  0
 16 17  1  0  0  0
 17 18  1  0  0  0
 18 19  1  0  0  0
M  END
> <minimizedAffinity>
-6.43840

> <CNNscore>
0.5952205062

> <CNNaffinity>
5.9380006790

> <CNN_VS>
3.5344197750

> <CNNaffinity_variance>
0.1658959687

$$$$
/media/chris/experiments/cd1a-new-docking/inputs/ligands/4x6d_2_ligand.pdb


 19 18  0  0  0  0  0  0  0  0999 V2000
  -43.0730   57.8508   65.9573 C   0  0  0  0  0  0  0  0  0  0  0  0
  -41.9533   58.6643   65.3229 C   0  0  0  0  0  0  0  0  0  0  0  0
  -42.4674   59.8996   64.6033 C   0  0  0  0  0  0  0  0  0  0  0  0
  -41.3054   60.6932   64.0288 C   0  0  0  0  0  0  0  0  0  0  0  0
  -40.0179   60.2277   64.6848 C   0  0  0  0  0  0  0  0  0  0  0  0
  -39.4361   61.2917   65.6019 C   0  0  0  0  0  0  0  0  0  0  0  0
  -38.0337   61.6186   65.1528 C   0  0  0  0  0  0  0  0  0  0  0  0
  -37.4661   60.9015   64.3058 O   0  0  0  0  0  0  0  0  0  0  0  0
  -37.4173   62.6007   65.6182 O   0  0  0  0  0  0  0  0  0  0  0  0
  -37.8271   63.1517   66.2557 H   0  0  0  0  0  0  0  0  0  0  0  0
  -44.2542   57.8871   64.9985 C   0  0  0  0  0  0  0  0  0  0  0  0
  -45.4996   57.3052   65.6232 C   0  0  0  0  0  0  0  0  0  0  0  0
  -46.4630   58.1946   66.2910 C   0  0  0  0  0  0  0  0  0  0  0  0
  -46.0838   59.6344   66.5308 C   0  0  0  0  0  0  0  0  0  0  0  0
  -46.6472   60.5310   65.4338 C   0  0  0  0  0  0  0  0  0  0  0  0
  -47.9944   61.1114   65.8634 C   0  0  0  0  0  0  0  0  0  0  0  0
  -49.0041   61.1064   64.7167 C   0  0  0  0  0  0  0  0  0  0  0  0
  -48.9600   59.7980   63.9233 C   0  0  0  0  0  0  0  0  0  0  0  0
  -49.8301   58.7028   64.5343 C   0  0  0  0  0  0  0  0  0  0  0  0
  7  8  2  0  0  0
  7  6  1  0  0  0
  7  9  1  0  0  0
  6  5  1  0  0  0
  9 10  1  0  0  0
  5  4  1  0  0  0
  4  3  1  0  0  0
  3  2  1  0  0  0
  2  1  1  0  0  0
  1 11  1  0  0  0
 11 12  1  0  0  0
 12 13  2  0  0  0
 13 14  1  0  0  0
 14 15  1  0  0  0
 15 16  1  0  0  0
 16 17  1  0  0  0
 17 18  1  0  0  0
 18 19  1  0  0  0
M  END
> <minimizedAffinity>
-6.06470

> <CNNscore>
0.5837578177

> <CNNaffinity>
6.0054073334

> <CNN_VS>
3.5057034492

> <CNNaffinity_variance>
0.1912060529

$$$$
/media/chris/experiments/cd1a-new-docking/inputs/ligands/4x6d_2_ligand.pdb


 19 18  0  0  0  0  0  0  0  0999 V2000
  -47.2588   59.4358   66.4670 C   0  0  0  0  0  0  0  0  0  0  0  0
  -46.9338   57.9643   66.2508 C   0  0  0  0  0  0  0  0  0  0  0  0
  -45.4401   57.7078   66.1441 C   0  0  0  0  0  0  0  0  0  0  0  0
  -44.9639   57.9666   64.7241 C   0  0  0  0  0  0  0  0  0  0  0  0
  -43.8502   58.9977   64.7575 C   0  0  0  0  0  0  0  0  0  0  0  0
  -43.1188   58.9941   66.0904 C   0  0  0  0  0  0  0  0  0  0  0  0
  -42.6558   60.3951   66.4042 C   0  0  0  0  0  0  0  0  0  0  0  0
  -42.2952   61.1544   65.4838 O   0  0  0  0  0  0  0  0  0  0  0  0
  -42.6202   60.8170   67.5796 O   0  0  0  0  0  0  0  0  0  0  0  0
  -42.8873   60.2613   68.2851 H   0  0  0  0  0  0  0  0  0  0  0  0
  -48.6627   59.6702   65.9286 C   0  0  0  0  0  0  0  0  0  0  0  0
  -49.2386   58.4212   65.3057 C   0  0  0  0  0  0  0  0  0  0  0  0
  -49.6667   58.4403   63.8980 C   0  0  0  0  0  0  0  0  0  0  0  0
  -49.7267   59.7598   63.1703 C   0  0  0  0  0  0  0  0  0  0  0  0
  -50.1153   59.5540   61.7103 C   0  0  0  0  0  0  0  0  0  0  0  0
  -50.7841   58.1919   61.5268 C   0  0  0  0  0  0  0  0  0  0  0  0
  -50.1459   57.3970   60.3887 C   0  0  0  0  0  0  0  0  0  0  0  0
  -49.1410   58.2388   59.5982 C   0  0  0  0  0  0  0  0  0  0  0  0
  -47.7279   57.6626   59.6300 C   0  0  0  0  0  0  0  0  0  0  0  0
  7  8  2  0  0  0
  7  6  1  0  0  0
  7  9  1  0  0  0
  6  5  1  0  0  0
  9 10  1  0  0  0
  5  4  1  0  0  0
  4  3  1  0  0  0
  3  2  1  0  0  0
  2  1  1  0  0  0
  1 11  1  0  0  0
 11 12  1  0  0  0
 12 13  2  0  0  0
 13 14  1  0  0  0
 14 15  1  0  0  0
 15 16  1  0  0  0
 16 17  1  0  0  0
 17 18  1  0  0  0
 18 19  1  0  0  0
M  END
> <minimizedAffinity>
-6.55285

> <CNNscore>
0.5692863464

> <CNNaffinity>
6.1775197983

> <CNN_VS>
3.5167777538

> <CNNaffinity_variance>
0.3864370286

$$$$
