/media/chris/experiments/cd1a-new-docking/inputs/ligands/4x6d_2_ligand.pdb


 19 18  0  0  0  0  0  0  0  0999 V2000
  -46.0166   58.0677   65.0995 C   0  0  0  0  0  0  0  0  0  0  0  0
  -44.9176   59.1180   65.0164 C   0  0  0  0  0  0  0  0  0  0  0  0
  -44.1806   59.2944   66.3332 C   0  0  0  0  0  0  0  0  0  0  0  0
  -42.8274   58.6048   66.2732 C   0  0  0  0  0  0  0  0  0  0  0  0
  -41.7903   59.4952   66.9336 C   0  0  0  0  0  0  0  0  0  0  0  0
  -42.1081   60.9695   66.7402 C   0  0  0  0  0  0  0  0  0  0  0  0
  -41.1931   61.5382   65.6843 C   0  0  0  0  0  0  0  0  0  0  0  0
  -41.3029   61.1700   64.4985 O   0  0  0  0  0  0  0  0  0  0  0  0
  -40.3134   62.3769   65.9737 O   0  0  0  0  0  0  0  0  0  0  0  0
  -40.2152   62.6661   66.8594 H   0  0  0  0  0  0  0  0  0  0  0  0
  -47.2692   58.6779   64.4877 C   0  0  0  0  0  0  0  0  0  0  0  0
  -48.5121   58.2849   65.2495 C   0  0  0  0  0  0  0  0  0  0  0  0
  -49.8324   58.7102   64.7581 C   0  0  0  0  0  0  0  0  0  0  0  0
  -49.9054   59.7103   63.6317 C   0  0  0  0  0  0  0  0  0  0  0  0
  -50.7935   59.1915   62.5060 C   0  0  0  0  0  0  0  0  0  0  0  0
  -50.0732   58.0909   61.7272 C   0  0  0  0  0  0  0  0  0  0  0  0
  -49.9644   58.4281   60.2410 C   0  0  0  0  0  0  0  0  0  0  0  0
  -48.9937   57.4944   59.5137 C   0  0  0  0  0  0  0  0  0  0  0  0
  -47.8673   58.2425   58.8054 C   0  0  0  0  0  0  0  0  0  0  0  0
  7  8  2  0  0  0
  7  6  1  0  0  0
  7  9  1  0  0  0
  6  5  1  0  0  0
  9 10  1  0  0  0
  5  4  1  0  0  0
  4  3  1  0  0  0
  3  2  1  0  0  0
  2  1  1  0  0  0
  1 11  1  0  0  0
 11 12  1  0  0  0
 12 13  2  0  0  0
 13 14  1  0  0  0
 14 15  1  0  0  0
 15 16  1  0  0  0
 16 17  1  0  0  0
 17 18  1  0  0  0
 18 19  1  0  0  0
M  END
> <minimizedAffinity>
-6.74753

> <CNNscore>
0.8768578768

> <CNNaffinity>
6.6116247177

> <CNN_VS>
5.7974553108

> <CNNaffinity_variance>
0.8446244001

$$$$
/media/chris/experiments/cd1a-new-docking/inputs/ligands/4x6d_2_ligand.pdb


 19 18  0  0  0  0  0  0  0  0999 V2000
  -46.1967   60.4135   65.2793 C   0  0  0  0  0  0  0  0  0  0  0  0
  -45.3968   59.9171   66.4757 C   0  0  0  0  0  0  0  0  0  0  0  0
  -44.0766   59.2837   66.0705 C   0  0  0  0  0  0  0  0  0  0  0  0
  -42.9185   60.0268   66.7162 C   0  0  0  0  0  0  0  0  0  0  0  0
  -41.6145   59.3868   66.2752 C   0  0  0  0  0  0  0  0  0  0  0  0
  -40.9535   60.1708   65.1525 C   0  0  0  0  0  0  0  0  0  0  0  0
  -40.1522   61.3030   65.7453 C   0  0  0  0  0  0  0  0  0  0  0  0
  -38.9598   61.1254   66.0621 O   0  0  0  0  0  0  0  0  0  0  0  0
  -40.6622   62.4280   65.9333 O   0  0  0  0  0  0  0  0  0  0  0  0
  -41.5571   62.5812   65.7017 H   0  0  0  0  0  0  0  0  0  0  0  0
  -47.6359   60.5884   65.7418 C   0  0  0  0  0  0  0  0  0  0  0  0
  -48.4752   61.2937   64.7035 C   0  0  0  0  0  0  0  0  0  0  0  0
  -49.5687   60.5694   64.0365 C   0  0  0  0  0  0  0  0  0  0  0  0
  -49.6901   59.0800   64.2405 C   0  0  0  0  0  0  0  0  0  0  0  0
  -49.4719   58.3358   62.9277 C   0  0  0  0  0  0  0  0  0  0  0  0
  -50.5539   58.7158   61.9170 C   0  0  0  0  0  0  0  0  0  0  0  0
  -50.8240   57.5851   60.9256 C   0  0  0  0  0  0  0  0  0  0  0  0
  -50.4194   57.9677   59.4997 C   0  0  0  0  0  0  0  0  0  0  0  0
  -48.9138   58.1628   59.3412 C   0  0  0  0  0  0  0  0  0  0  0  0
  7  8  2  0  0  0
  7  6  1  0  0  0
  7  9  1  0  0  0
  6  5  1  0  0  0
  9 10  1  0  0  0
  5  4  1  0  0  0
  4  3  1  0  0  0
  3  2  1  0  0  0
  2  1  1  0  0  0
  1 11  1  0  0  0
 11 12  1  0  0  0
 12 13  2  0  0  0
 13 14  1  0  0  0
 14 15  1  0  0  0
 15 16  1  0  0  0
 16 17  1  0  0  0
 17 18  1  0  0  0
 18 19  1  0  0  0
M  END
> <minimizedAffinity>
-6.94024

> <CNNscore>
0.8124116063

> <CNNaffinity>
6.1650152206

> <CNN_VS>
5.0085301399

> <CNNaffinity_variance>
0.4991597533

$$$$
/media/chris/experiments/cd1a-new-docking/inputs/ligands/4x6d_2_ligand.pdb


 19 18  0  0  0  0  0  0  0  0999 V2000
  -44.2212   60.1506   65.4083 C   0  0  0  0  0  0  0  0  0  0  0  0
  -43.5824   60.1627   66.7902 C   0  0  0  0  0  0  0  0  0  0  0  0
  -42.0678   60.2656   66.7301 C   0  0  0  0  0  0  0  0  0  0  0  0
  -41.6418   61.0003   65.4696 C   0  0  0  0  0  0  0  0  0  0  0  0
  -40.2214   61.5052   65.6492 C   0  0  0  0  0  0  0  0  0  0  0  0
  -39.2265   60.3608   65.7606 C   0  0  0  0  0  0  0  0  0  0  0  0
  -37.8328   60.8940   65.5399 C   0  0  0  0  0  0  0  0  0  0  0  0
  -37.4857   61.9705   66.0636 O   0  0  0  0  0  0  0  0  0  0  0  0
  -37.0083   60.2772   64.8322 O   0  0  0  0  0  0  0  0  0  0  0  0
  -37.2503   59.4662   64.4300 H   0  0  0  0  0  0  0  0  0  0  0  0
  -45.6928   59.8117   65.5959 C   0  0  0  0  0  0  0  0  0  0  0  0
  -46.5897   60.9198   65.0984 C   0  0  0  0  0  0  0  0  0  0  0  0
  -48.0458   60.7127   65.0521 C   0  0  0  0  0  0  0  0  0  0  0  0
  -48.5951   59.3288   65.2926 C   0  0  0  0  0  0  0  0  0  0  0  0
  -48.7139   58.5598   63.9814 C   0  0  0  0  0  0  0  0  0  0  0  0
  -50.0171   58.9236   63.2699 C   0  0  0  0  0  0  0  0  0  0  0  0
  -50.2223   58.0916   62.0050 C   0  0  0  0  0  0  0  0  0  0  0  0
  -49.9861   58.9146   60.7361 C   0  0  0  0  0  0  0  0  0  0  0  0
  -49.5293   58.0651   59.5530 C   0  0  0  0  0  0  0  0  0  0  0  0
  7  8  2  0  0  0
  7  6  1  0  0  0
  7  9  1  0  0  0
  6  5  1  0  0  0
  9 10  1  0  0  0
  5  4  1  0  0  0
  4  3  1  0  0  0
  3  2  1  0  0  0
  2  1  1  0  0  0
  1 11  1  0  0  0
 11 12  1  0  0  0
 12 13  2  0  0  0
 13 14  1  0  0  0
 14 15  1  0  0  0
 15 16  1  0  0  0
 16 17  1  0  0  0
 17 18  1  0  0  0
 18 19  1  0  0  0
M  END
> <minimizedAffinity>
-6.14469

> <CNNscore>
0.7257938981

> <CNNaffinity>
6.1078028679

> <CNN_VS>
4.4330062866

> <CNNaffinity_variance>
0.5579133630

$$$$
/media/chris/experiments/cd1a-new-docking/inputs/ligands/4x6d_2_ligand.pdb


 19 18  0  0  0  0  0  0  0  0999 V2000
  -47.5619   58.3316   64.7156 C   0  0  0  0  0  0  0  0  0  0  0  0
  -47.0733   57.4179   65.8310 C   0  0  0  0  0  0  0  0  0  0  0  0
  -45.6060   57.6349   66.1602 C   0  0  0  0  0  0  0  0  0  0  0  0
  -44.7956   57.7662   64.8811 C   0  0  0  0  0  0  0  0  0  0  0  0
  -44.1320   59.1313   64.8554 C   0  0  0  0  0  0  0  0  0  0  0  0
  -44.1878   59.8105   66.2147 C   0  0  0  0  0  0  0  0  0  0  0  0
  -42.7828   60.0057   66.7279 C   0  0  0  0  0  0  0  0  0  0  0  0
  -42.3908   61.1419   67.0582 O   0  0  0  0  0  0  0  0  0  0  0  0
  -41.9906   59.0447   66.8272 O   0  0  0  0  0  0  0  0  0  0  0  0
  -42.2666   58.1830   66.5839 H   0  0  0  0  0  0  0  0  0  0  0  0
  -49.0798   58.2288   64.6824 C   0  0  0  0  0  0  0  0  0  0  0  0
  -49.7014   59.3744   63.9202 C   0  0  0  0  0  0  0  0  0  0  0  0
  -50.1939   59.1560   62.5509 C   0  0  0  0  0  0  0  0  0  0  0  0
  -49.8713   57.8564   61.8569 C   0  0  0  0  0  0  0  0  0  0  0  0
  -50.9020   57.5517   60.7753 C   0  0  0  0  0  0  0  0  0  0  0  0
  -50.3850   58.0016   59.4090 C   0  0  0  0  0  0  0  0  0  0  0  0
  -49.0603   57.3275   59.0555 C   0  0  0  0  0  0  0  0  0  0  0  0
  -47.9760   58.3493   58.7042 C   0  0  0  0  0  0  0  0  0  0  0  0
  -46.5634   57.8251   58.9492 C   0  0  0  0  0  0  0  0  0  0  0  0
  7  8  2  0  0  0
  7  6  1  0  0  0
  7  9  1  0  0  0
  6  5  1  0  0  0
  9 10  1  0  0  0
  5  4  1  0  0  0
  4  3  1  0  0  0
  3  2  1  0  0  0
  2  1  1  0  0  0
  1 11  1  0  0  0
 11 12  1  0  0  0
 12 13  2  0  0  0
 13 14  1  0  0  0
 14 15  1  0  0  0
 15 16  1  0  0  0
 16 17  1  0  0  0
 17 18  1  0  0  0
 18 19  1  0  0  0
M  END
> <minimizedAffinity>
-7.07060

> <CNNscore>
0.6934666634

> <CNNaffinity>
6.2971329689

> <CNN_VS>
4.3668518066

> <CNNaffinity_variance>
0.2235212773

$$$$
/media/chris/experiments/cd1a-new-docking/inputs/ligands/4x6d_2_ligand.pdb


 19 18  0  0  0  0  0  0  0  0999 V2000
  -37.7204   57.8707   62.2565 C   0  0  0  0  0  0  0  0  0  0  0  0
  -36.8445   57.9046   63.5012 C   0  0  0  0  0  0  0  0  0  0  0  0
  -37.6545   58.0427   64.7791 C   0  0  0  0  0  0  0  0  0  0  0  0
  -38.5711   59.2520   64.6907 C   0  0  0  0  0  0  0  0  0  0  0  0
  -39.9960   58.8129   64.9760 C   0  0  0  0  0  0  0  0  0  0  0  0
  -40.7056   59.7768   65.9137 C   0  0  0  0  0  0  0  0  0  0  0  0
  -40.6481   61.1667   65.3303 C   0  0  0  0  0  0  0  0  0  0  0  0
  -41.2255   61.4168   64.2544 O   0  0  0  0  0  0  0  0  0  0  0  0
  -40.0240   62.0844   65.9044 O   0  0  0  0  0  0  0  0  0  0  0  0
  -39.5835   61.9161   66.7140 H   0  0  0  0  0  0  0  0  0  0  0  0
  -36.8384   57.4293   61.0976 C   0  0  0  0  0  0  0  0  0  0  0  0
  -36.7971   58.4653   60.0001 C   0  0  0  0  0  0  0  0  0  0  0  0
  -36.1809   58.1313   58.7062 C   0  0  0  0  0  0  0  0  0  0  0  0
  -35.4101   56.8417   58.5751 C   0  0  0  0  0  0  0  0  0  0  0  0
  -33.9957   57.1071   58.0710 C   0  0  0  0  0  0  0  0  0  0  0  0
  -33.0147   56.1179   58.6999 C   0  0  0  0  0  0  0  0  0  0  0  0
  -33.4043   55.7702   60.1358 C   0  0  0  0  0  0  0  0  0  0  0  0
  -32.7663   56.7257   61.1474 C   0  0  0  0  0  0  0  0  0  0  0  0
  -31.3059   56.3921   61.4408 C   0  0  0  0  0  0  0  0  0  0  0  0
  7  8  2  0  0  0
  7  6  1  0  0  0
  7  9  1  0  0  0
  6  5  1  0  0  0
  9 10  1  0  0  0
  5  4  1  0  0  0
  4  3  1  0  0  0
  3  2  1  0  0  0
  2  1  1  0  0  0
  1 11  1  0  0  0
 11 12  1  0  0  0
 12 13  2  0  0  0
 13 14  1  0  0  0
 14 15  1  0  0  0
 15 16  1  0  0  0
 16 17  1  0  0  0
 17 18  1  0  0  0
 18 19  1  0  0  0
M  END
> <minimizedAffinity>
-6.18352

> <CNNscore>
0.6841856837

> <CNNaffinity>
5.5270032883

> <CNN_VS>
3.7814965248

> <CNNaffinity_variance>
0.0859274417

$$$$
/media/chris/experiments/cd1a-new-docking/inputs/ligands/4x6d_2_ligand.pdb


 19 18  0  0  0  0  0  0  0  0999 V2000
  -40.5861   60.7516   65.7128 C   0  0  0  0  0  0  0  0  0  0  0  0
  -39.9171   59.8155   64.7158 C   0  0  0  0  0  0  0  0  0  0  0  0
  -38.4736   59.5127   65.0804 C   0  0  0  0  0  0  0  0  0  0  0  0
  -38.0494   58.1821   64.4807 C   0  0  0  0  0  0  0  0  0  0  0  0
  -38.6807   58.0361   63.1079 C   0  0  0  0  0  0  0  0  0  0  0  0
  -37.6322   57.9878   62.0077 C   0  0  0  0  0  0  0  0  0  0  0  0
  -37.6643   59.2840   61.2368 C   0  0  0  0  0  0  0  0  0  0  0  0
  -37.2590   60.3365   61.7674 O   0  0  0  0  0  0  0  0  0  0  0  0
  -38.0972   59.3300   60.0656 O   0  0  0  0  0  0  0  0  0  0  0  0
  -38.4063   58.5495   59.6495 H   0  0  0  0  0  0  0  0  0  0  0  0
  -41.9499   60.1606   66.0394 C   0  0  0  0  0  0  0  0  0  0  0  0
  -41.8550   58.6949   66.3891 C   0  0  0  0  0  0  0  0  0  0  0  0
  -42.8966   57.7660   65.9228 C   0  0  0  0  0  0  0  0  0  0  0  0
  -44.1480   58.3269   65.2950 C   0  0  0  0  0  0  0  0  0  0  0  0
  -45.3771   57.9574   66.1182 C   0  0  0  0  0  0  0  0  0  0  0  0
  -45.9777   59.2063   66.7634 C   0  0  0  0  0  0  0  0  0  0  0  0
  -47.4367   59.4071   66.3568 C   0  0  0  0  0  0  0  0  0  0  0  0
  -47.9712   58.2237   65.5461 C   0  0  0  0  0  0  0  0  0  0  0  0
  -48.4583   58.6267   64.1567 C   0  0  0  0  0  0  0  0  0  0  0  0
  7  8  2  0  0  0
  7  6  1  0  0  0
  7  9  1  0  0  0
  6  5  1  0  0  0
  9 10  1  0  0  0
  5  4  1  0  0  0
  4  3  1  0  0  0
  3  2  1  0  0  0
  2  1  1  0  0  0
  1 11  1  0  0  0
 11 12  1  0  0  0
 12 13  2  0  0  0
 13 14  1  0  0  0
 14 15  1  0  0  0
 15 16  1  0  0  0
 16 17  1  0  0  0
 17 18  1  0  0  0
 18 19  1  0  0  0
M  END
> <minimizedAffinity>
-5.99034

> <CNNscore>
0.6601064205

> <CNNaffinity>
5.9262399673

> <CNN_VS>
3.9119491577

> <CNNaffinity_variance>
0.2384645045

$$$$
/media/chris/experiments/cd1a-new-docking/inputs/ligands/4x6d_2_ligand.pdb


 19 18  0  0  0  0  0  0  0  0999 V2000
  -39.9982   59.2245   65.1033 C   0  0  0  0  0  0  0  0  0  0  0  0
  -39.2110   58.2760   64.2098 C   0  0  0  0  0  0  0  0  0  0  0  0
  -37.7716   58.1074   64.6656 C   0  0  0  0  0  0  0  0  0  0  0  0
  -36.8876   57.7384   63.4855 C   0  0  0  0  0  0  0  0  0  0  0  0
  -37.7663   57.4559   62.2803 C   0  0  0  0  0  0  0  0  0  0  0  0
  -37.2528   58.1560   61.0321 C   0  0  0  0  0  0  0  0  0  0  0  0
  -36.0438   57.4180   60.5132 C   0  0  0  0  0  0  0  0  0  0  0  0
  -34.9549   58.0118   60.3900 O   0  0  0  0  0  0  0  0  0  0  0  0
  -36.1092   56.2114   60.1954 O   0  0  0  0  0  0  0  0  0  0  0  0
  -36.9188   55.7476   60.2808 H   0  0  0  0  0  0  0  0  0  0  0  0
  -41.2810   58.5083   65.4998 C   0  0  0  0  0  0  0  0  0  0  0  0
  -42.1785   59.3897   66.3349 C   0  0  0  0  0  0  0  0  0  0  0  0
  -43.6148   59.4683   66.0249 C   0  0  0  0  0  0  0  0  0  0  0  0
  -44.1226   58.8425   64.7501 C   0  0  0  0  0  0  0  0  0  0  0  0
  -44.7127   57.4634   65.0235 C   0  0  0  0  0  0  0  0  0  0  0  0
  -45.6367   57.5141   66.2401 C   0  0  0  0  0  0  0  0  0  0  0  0
  -47.0759   57.1561   65.8727 C   0  0  0  0  0  0  0  0  0  0  0  0
  -47.7623   58.2805   65.0932 C   0  0  0  0  0  0  0  0  0  0  0  0
  -49.2787   58.2856   65.2686 C   0  0  0  0  0  0  0  0  0  0  0  0
  7  8  2  0  0  0
  7  6  1  0  0  0
  7  9  1  0  0  0
  6  5  1  0  0  0
  9 10  1  0  0  0
  5  4  1  0  0  0
  4  3  1  0  0  0
  3  2  1  0  0  0
  2  1  1  0  0  0
  1 11  1  0  0  0
 11 12  1  0  0  0
 12 13  2  0  0  0
 13 14  1  0  0  0
 14 15  1  0  0  0
 15 16  1  0  0  0
 16 17  1  0  0  0
 17 18  1  0  0  0
 18 19  1  0  0  0
M  END
> <minimizedAffinity>
-6.33614

> <CNNscore>
0.6425166726

> <CNNaffinity>
5.8691377640

> <CNN_VS>
3.7710189819

> <CNNaffinity_variance>
0.1620485336

$$$$
/media/chris/experiments/cd1a-new-docking/inputs/ligands/4x6d_2_ligand.pdb


 19 18  0  0  0  0  0  0  0  0999 V2000
  -42.5286   60.4681   66.6511 C   0  0  0  0  0  0  0  0  0  0  0  0
  -41.5543   60.5499   65.4841 C   0  0  0  0  0  0  0  0  0  0  0  0
  -40.2531   59.8158   65.7601 C   0  0  0  0  0  0  0  0  0  0  0  0
  -39.9228   58.8825   64.6067 C   0  0  0  0  0  0  0  0  0  0  0  0
  -39.6203   59.7122   63.3719 C   0  0  0  0  0  0  0  0  0  0  0  0
  -38.5203   59.0871   62.5287 C   0  0  0  0  0  0  0  0  0  0  0  0
  -37.4171   60.0961   62.3282 C   0  0  0  0  0  0  0  0  0  0  0  0
  -37.6938   61.3013   62.1715 O   0  0  0  0  0  0  0  0  0  0  0  0
  -36.2171   59.7483   62.3106 O   0  0  0  0  0  0  0  0  0  0  0  0
  -35.9889   58.8470   62.4266 H   0  0  0  0  0  0  0  0  0  0  0  0
  -43.6888   59.5888   66.2076 C   0  0  0  0  0  0  0  0  0  0  0  0
  -44.6220   60.3227   65.2747 C   0  0  0  0  0  0  0  0  0  0  0  0
  -46.0737   60.2742   65.5102 C   0  0  0  0  0  0  0  0  0  0  0  0
  -46.6149   59.3177   66.5431 C   0  0  0  0  0  0  0  0  0  0  0  0
  -47.2798   58.1199   65.8737 C   0  0  0  0  0  0  0  0  0  0  0  0
  -48.3366   58.5904   64.8745 C   0  0  0  0  0  0  0  0  0  0  0  0
  -49.7462   58.4991   65.4570 C   0  0  0  0  0  0  0  0  0  0  0  0
  -50.3746   59.8815   65.6499 C   0  0  0  0  0  0  0  0  0  0  0  0
  -49.6712   60.9716   64.8455 C   0  0  0  0  0  0  0  0  0  0  0  0
  7  8  2  0  0  0
  7  6  1  0  0  0
  7  9  1  0  0  0
  6  5  1  0  0  0
  9 10  1  0  0  0
  5  4  1  0  0  0
  4  3  1  0  0  0
  3  2  1  0  0  0
  2  1  1  0  0  0
  1 11  1  0  0  0
 11 12  1  0  0  0
 12 13  2  0  0  0
 13 14  1  0  0  0
 14 15  1  0  0  0
 15 16  1  0  0  0
 16 17  1  0  0  0
 17 18  1  0  0  0
 18 19  1  0  0  0
M  END
> <minimizedAffinity>
-6.03667

> <CNNscore>
0.5997937322

> <CNNaffinity>
5.9350194931

> <CNN_VS>
3.5597875118

> <CNNaffinity_variance>
0.2254140079

$$$$
/media/chris/experiments/cd1a-new-docking/inputs/ligands/4x6d_2_ligand.pdb


 19 18  0  0  0  0  0  0  0  0999 V2000
  -43.4238   59.8957   66.1056 C   0  0  0  0  0  0  0  0  0  0  0  0
  -43.1166   60.4442   64.7190 C   0  0  0  0  0  0  0  0  0  0  0  0
  -41.6535   60.2855   64.3416 C   0  0  0  0  0  0  0  0  0  0  0  0
  -40.8980   59.5801   65.4560 C   0  0  0  0  0  0  0  0  0  0  0  0
  -40.2160   58.3490   64.8872 C   0  0  0  0  0  0  0  0  0  0  0  0
  -38.9809   58.7122   64.0783 C   0  0  0  0  0  0  0  0  0  0  0  0
  -37.7734   58.6887   64.9821 C   0  0  0  0  0  0  0  0  0  0  0  0
  -37.1767   57.6161   65.1995 O   0  0  0  0  0  0  0  0  0  0  0  0
  -37.3538   59.7308   65.5289 O   0  0  0  0  0  0  0  0  0  0  0  0
  -37.7888   60.5469   65.3778 H   0  0  0  0  0  0  0  0  0  0  0  0
  -44.9384   59.8459   66.2442 C   0  0  0  0  0  0  0  0  0  0  0  0
  -45.6265   60.6135   65.1411 C   0  0  0  0  0  0  0  0  0  0  0  0
  -47.0788   60.8410   65.2085 C   0  0  0  0  0  0  0  0  0  0  0  0
  -47.8835   60.1184   66.2596 C   0  0  0  0  0  0  0  0  0  0  0  0
  -48.5277   58.8643   65.6788 C   0  0  0  0  0  0  0  0  0  0  0  0
  -49.0772   59.1496   64.2812 C   0  0  0  0  0  0  0  0  0  0  0  0
  -50.4412   59.8356   64.3389 C   0  0  0  0  0  0  0  0  0  0  0  0
  -51.1140   59.8840   62.9647 C   0  0  0  0  0  0  0  0  0  0  0  0
  -50.6746   58.7458   62.0474 C   0  0  0  0  0  0  0  0  0  0  0  0
  7  8  2  0  0  0
  7  6  1  0  0  0
  7  9  1  0  0  0
  6  5  1  0  0  0
  9 10  1  0  0  0
  5  4  1  0  0  0
  4  3  1  0  0  0
  3  2  1  0  0  0
  2  1  1  0  0  0
  1 11  1  0  0  0
 11 12  1  0  0  0
 12 13  2  0  0  0
 13 14  1  0  0  0
 14 15  1  0  0  0
 15 16  1  0  0  0
 16 17  1  0  0  0
 17 18  1  0  0  0
 18 19  1  0  0  0
M  END
> <minimizedAffinity>
-6.23128

> <CNNscore>
0.5958131552

> <CNNaffinity>
6.0036249161

> <CNN_VS>
3.5770387650

> <CNNaffinity_variance>
0.3631236553

$$$$
