/media/chris/experiments/cd1a-new-docking/inputs/ligands/4x6d_2_ligand.pdb


 19 18  0  0  0  0  0  0  0  0999 V2000
  -46.7651   60.9742   65.2848 C   0  0  0  0  0  0  0  0  0  0  0  0
  -46.2388   59.5615   65.4968 C   0  0  0  0  0  0  0  0  0  0  0  0
  -45.0358   59.5219   66.4240 C   0  0  0  0  0  0  0  0  0  0  0  0
  -43.8716   60.2781   65.8049 C   0  0  0  0  0  0  0  0  0  0  0  0
  -42.8257   60.5350   66.8748 C   0  0  0  0  0  0  0  0  0  0  0  0
  -41.4362   60.1233   66.4148 C   0  0  0  0  0  0  0  0  0  0  0  0
  -40.8658   61.2067   65.5337 C   0  0  0  0  0  0  0  0  0  0  0  0
  -40.7275   61.0088   64.3108 O   0  0  0  0  0  0  0  0  0  0  0  0
  -40.5199   62.3102   66.0064 O   0  0  0  0  0  0  0  0  0  0  0  0
  -40.6161   62.4781   66.9232 H   0  0  0  0  0  0  0  0  0  0  0  0
  -48.2669   60.9359   65.5272 C   0  0  0  0  0  0  0  0  0  0  0  0
  -48.7776   59.5203   65.6502 C   0  0  0  0  0  0  0  0  0  0  0  0
  -49.9808   59.1130   64.9074 C   0  0  0  0  0  0  0  0  0  0  0  0
  -50.8040   60.1695   64.2141 C   0  0  0  0  0  0  0  0  0  0  0  0
  -50.9973   59.8235   62.7417 C   0  0  0  0  0  0  0  0  0  0  0  0
  -50.1664   58.5947   62.3727 C   0  0  0  0  0  0  0  0  0  0  0  0
  -50.8117   57.7942   61.2425 C   0  0  0  0  0  0  0  0  0  0  0  0
  -50.2191   58.1544   59.8777 C   0  0  0  0  0  0  0  0  0  0  0  0
  -48.7597   57.7311   59.7330 C   0  0  0  0  0  0  0  0  0  0  0  0
  7  8  2  0  0  0
  7  6  1  0  0  0
  7  9  1  0  0  0
  6  5  1  0  0  0
  9 10  1  0  0  0
  5  4  1  0  0  0
  4  3  1  0  0  0
  3  2  1  0  0  0
  2  1  1  0  0  0
  1 11  1  0  0  0
 11 12  1  0  0  0
 12 13  2  0  0  0
 13 14  1  0  0  0
 14 15  1  0  0  0
 15 16  1  0  0  0
 16 17  1  0  0  0
 17 18  1  0  0  0
 18 19  1  0  0  0
M  END
> <minimizedAffinity>
-6.92664

> <CNNscore>
0.8094831109

> <CNNaffinity>
6.2199735641

> <CNN_VS>
5.0349636078

> <CNNaffinity_variance>
0.4905946851

$$$$
/media/chris/experiments/cd1a-new-docking/inputs/ligands/4x6d_2_ligand.pdb


 19 18  0  0  0  0  0  0  0  0999 V2000
  -43.9067   58.5205   64.8348 C   0  0  0  0  0  0  0  0  0  0  0  0
  -43.5338   59.9965   64.8249 C   0  0  0  0  0  0  0  0  0  0  0  0
  -42.0673   60.2240   64.4996 C   0  0  0  0  0  0  0  0  0  0  0  0
  -41.2015   59.2340   65.2615 C   0  0  0  0  0  0  0  0  0  0  0  0
  -39.9596   58.9324   64.4422 C   0  0  0  0  0  0  0  0  0  0  0  0
  -38.6918   59.3694   65.1590 C   0  0  0  0  0  0  0  0  0  0  0  0
  -38.4392   60.8285   64.8713 C   0  0  0  0  0  0  0  0  0  0  0  0
  -38.7438   61.6933   65.7157 O   0  0  0  0  0  0  0  0  0  0  0  0
  -37.9296   61.1965   63.7916 O   0  0  0  0  0  0  0  0  0  0  0  0
  -37.6938   60.5614   63.1443 H   0  0  0  0  0  0  0  0  0  0  0  0
  -45.3058   58.4139   65.4237 C   0  0  0  0  0  0  0  0  0  0  0  0
  -46.0637   59.7142   65.3037 C   0  0  0  0  0  0  0  0  0  0  0  0
  -47.5261   59.6926   65.1421 C   0  0  0  0  0  0  0  0  0  0  0  0
  -48.2128   58.3758   64.8797 C   0  0  0  0  0  0  0  0  0  0  0  0
  -49.7140   58.5757   64.7018 C   0  0  0  0  0  0  0  0  0  0  0  0
  -49.9849   59.7744   63.7930 C   0  0  0  0  0  0  0  0  0  0  0  0
  -50.7700   59.3723   62.5454 C   0  0  0  0  0  0  0  0  0  0  0  0
  -50.1020   58.2144   61.7994 C   0  0  0  0  0  0  0  0  0  0  0  0
  -51.0504   57.4992   60.8407 C   0  0  0  0  0  0  0  0  0  0  0  0
  7  8  2  0  0  0
  7  6  1  0  0  0
  7  9  1  0  0  0
  6  5  1  0  0  0
  9 10  1  0  0  0
  5  4  1  0  0  0
  4  3  1  0  0  0
  3  2  1  0  0  0
  2  1  1  0  0  0
  1 11  1  0  0  0
 11 12  1  0  0  0
 12 13  2  0  0  0
 13 14  1  0  0  0
 14 15  1  0  0  0
 15 16  1  0  0  0
 16 17  1  0  0  0
 17 18  1  0  0  0
 18 19  1  0  0  0
M  END
> <minimizedAffinity>
-6.29165

> <CNNscore>
0.7892248631

> <CNNaffinity>
6.3306856155

> <CNN_VS>
4.9963345528

> <CNNaffinity_variance>
0.2868645787

$$$$
/media/chris/experiments/cd1a-new-docking/inputs/ligands/4x6d_2_ligand.pdb


 19 18  0  0  0  0  0  0  0  0999 V2000
  -47.0383   58.1698   66.5081 C   0  0  0  0  0  0  0  0  0  0  0  0
  -45.6580   57.5473   66.3502 C   0  0  0  0  0  0  0  0  0  0  0  0
  -45.0757   57.7671   64.9643 C   0  0  0  0  0  0  0  0  0  0  0  0
  -43.5765   57.5178   64.9798 C   0  0  0  0  0  0  0  0  0  0  0  0
  -42.9962   58.0807   66.2647 C   0  0  0  0  0  0  0  0  0  0  0  0
  -41.7952   58.9738   65.9968 C   0  0  0  0  0  0  0  0  0  0  0  0
  -42.0486   60.3355   66.5944 C   0  0  0  0  0  0  0  0  0  0  0  0
  -42.9943   60.5026   67.3890 O   0  0  0  0  0  0  0  0  0  0  0  0
  -41.3273   61.3137   66.3051 O   0  0  0  0  0  0  0  0  0  0  0  0
  -40.6115   61.2082   65.7097 H   0  0  0  0  0  0  0  0  0  0  0  0
  -47.7231   58.0958   65.1512 C   0  0  0  0  0  0  0  0  0  0  0  0
  -49.1291   58.6434   65.2036 C   0  0  0  0  0  0  0  0  0  0  0  0
  -49.9356   58.6984   63.9740 C   0  0  0  0  0  0  0  0  0  0  0  0
  -49.2707   58.4135   62.6507 C   0  0  0  0  0  0  0  0  0  0  0  0
  -50.2961   58.4032   61.5223 C   0  0  0  0  0  0  0  0  0  0  0  0
  -49.6272   58.7601   60.1951 C   0  0  0  0  0  0  0  0  0  0  0  0
  -49.4943   57.5416   59.2829 C   0  0  0  0  0  0  0  0  0  0  0  0
  -48.0463   57.0531   59.1908 C   0  0  0  0  0  0  0  0  0  0  0  0
  -47.0878   58.1276   58.6840 C   0  0  0  0  0  0  0  0  0  0  0  0
  7  8  2  0  0  0
  7  6  1  0  0  0
  7  9  1  0  0  0
  6  5  1  0  0  0
  9 10  1  0  0  0
  5  4  1  0  0  0
  4  3  1  0  0  0
  3  2  1  0  0  0
  2  1  1  0  0  0
  1 11  1  0  0  0
 11 12  1  0  0  0
 12 13  2  0  0  0
 13 14  1  0  0  0
 14 15  1  0  0  0
 15 16  1  0  0  0
 16 17  1  0  0  0
 17 18  1  0  0  0
 18 19  1  0  0  0
M  END
> <minimizedAffinity>
-6.63191

> <CNNscore>
0.7772300839

> <CNNaffinity>
6.3406872749

> <CNN_VS>
4.9281730652

> <CNNaffinity_variance>
0.3989543617

$$$$
/media/chris/experiments/cd1a-new-docking/inputs/ligands/4x6d_2_ligand.pdb


 19 18  0  0  0  0  0  0  0  0999 V2000
  -41.4001   59.7279   66.5060 C   0  0  0  0  0  0  0  0  0  0  0  0
  -41.0163   58.8229   65.3435 C   0  0  0  0  0  0  0  0  0  0  0  0
  -39.6697   59.1879   64.7421 C   0  0  0  0  0  0  0  0  0  0  0  0
  -39.0076   57.9539   64.1512 C   0  0  0  0  0  0  0  0  0  0  0  0
  -38.5214   58.2781   62.7501 C   0  0  0  0  0  0  0  0  0  0  0  0
  -37.1940   57.6027   62.4439 C   0  0  0  0  0  0  0  0  0  0  0  0
  -36.9877   57.5726   60.9499 C   0  0  0  0  0  0  0  0  0  0  0  0
  -36.3731   56.6245   60.4234 O   0  0  0  0  0  0  0  0  0  0  0  0
  -37.4193   58.4887   60.2183 O   0  0  0  0  0  0  0  0  0  0  0  0
  -37.8837   59.2099   60.5953 H   0  0  0  0  0  0  0  0  0  0  0  0
  -42.9031   59.9517   66.4247 C   0  0  0  0  0  0  0  0  0  0  0  0
  -43.5447   59.0671   65.3827 C   0  0  0  0  0  0  0  0  0  0  0  0
  -44.9964   59.1451   65.1551 C   0  0  0  0  0  0  0  0  0  0  0  0
  -45.8444   59.9434   66.1132 C   0  0  0  0  0  0  0  0  0  0  0  0
  -47.0648   60.5192   65.4032 C   0  0  0  0  0  0  0  0  0  0  0  0
  -48.2718   60.5205   66.3409 C   0  0  0  0  0  0  0  0  0  0  0  0
  -49.4003   59.6367   65.8116 C   0  0  0  0  0  0  0  0  0  0  0  0
  -50.5888   60.4647   65.3161 C   0  0  0  0  0  0  0  0  0  0  0  0
  -50.9954   60.1232   63.8850 C   0  0  0  0  0  0  0  0  0  0  0  0
  7  8  2  0  0  0
  7  6  1  0  0  0
  7  9  1  0  0  0
  6  5  1  0  0  0
  9 10  1  0  0  0
  5  4  1  0  0  0
  4  3  1  0  0  0
  3  2  1  0  0  0
  2  1  1  0  0  0
  1 11  1  0  0  0
 11 12  1  0  0  0
 12 13  2  0  0  0
 13 14  1  0  0  0
 14 15  1  0  0  0
 15 16  1  0  0  0
 16 17  1  0  0  0
 17 18  1  0  0  0
 18 19  1  0  0  0
M  END
> <minimizedAffinity>
-6.58007

> <CNNscore>
0.6806424260

> <CNNaffinity>
5.8973083496

> <CNN_VS>
4.0139584541

> <CNNaffinity_variance>
0.2586935163

$$$$
/media/chris/experiments/cd1a-new-docking/inputs/ligands/4x6d_2_ligand.pdb


 19 18  0  0  0  0  0  0  0  0999 V2000
  -48.4814   58.6140   65.3387 C   0  0  0  0  0  0  0  0  0  0  0  0
  -46.9925   58.6800   65.6494 C   0  0  0  0  0  0  0  0  0  0  0  0
  -46.1399   58.0869   64.5406 C   0  0  0  0  0  0  0  0  0  0  0  0
  -44.6847   58.4828   64.7293 C   0  0  0  0  0  0  0  0  0  0  0  0
  -44.6267   59.8563   65.3734 C   0  0  0  0  0  0  0  0  0  0  0  0
  -43.2181   60.4284   65.3548 C   0  0  0  0  0  0  0  0  0  0  0  0
  -42.5495   60.1391   66.6757 C   0  0  0  0  0  0  0  0  0  0  0  0
  -41.8504   59.1160   66.8109 O   0  0  0  0  0  0  0  0  0  0  0  0
  -42.6847   60.9075   67.6515 O   0  0  0  0  0  0  0  0  0  0  0  0
  -43.2062   61.6816   67.5695 H   0  0  0  0  0  0  0  0  0  0  0  0
  -48.6242   58.5909   63.8238 C   0  0  0  0  0  0  0  0  0  0  0  0
  -49.8414   59.3574   63.3649 C   0  0  0  0  0  0  0  0  0  0  0  0
  -50.6172   58.8705   62.2133 C   0  0  0  0  0  0  0  0  0  0  0  0
  -50.0596   57.7436   61.3805 C   0  0  0  0  0  0  0  0  0  0  0  0
  -50.4946   57.8810   59.9255 C   0  0  0  0  0  0  0  0  0  0  0  0
  -49.2793   57.8158   59.0007 C   0  0  0  0  0  0  0  0  0  0  0  0
  -47.9818   57.6241   59.7844 C   0  0  0  0  0  0  0  0  0  0  0  0
  -46.7500   57.9588   58.9392 C   0  0  0  0  0  0  0  0  0  0  0  0
  -47.0830   58.1839   57.4667 C   0  0  0  0  0  0  0  0  0  0  0  0
  7  8  2  0  0  0
  7  6  1  0  0  0
  7  9  1  0  0  0
  6  5  1  0  0  0
  9 10  1  0  0  0
  5  4  1  0  0  0
  4  3  1  0  0  0
  3  2  1  0  0  0
  2  1  1  0  0  0
  1 11  1  0  0  0
 11 12  1  0  0  0
 12 13  2  0  0  0
 13 14  1  0  0  0
 14 15  1  0  0  0
 15 16  1  0  0  0
 16 17  1  0  0  0
 17 18  1  0  0  0
 18 19  1  0  0  0
M  END
> <minimizedAffinity>
-7.06797

> <CNNscore>
0.6194481254

> <CNNaffinity>
6.3041219711

> <CNN_VS>
3.9050765038

> <CNNaffinity_variance>
0.2381065190

$$$$
/media/chris/experiments/cd1a-new-docking/inputs/ligands/4x6d_2_ligand.pdb


 19 18  0  0  0  0  0  0  0  0999 V2000
  -43.5459   60.4038   65.4579 C   0  0  0  0  0  0  0  0  0  0  0  0
  -43.0501   60.2190   66.8854 C   0  0  0  0  0  0  0  0  0  0  0  0
  -41.6807   59.5638   66.9455 C   0  0  0  0  0  0  0  0  0  0  0  0
  -41.4353   58.7456   65.6883 C   0  0  0  0  0  0  0  0  0  0  0  0
  -40.0996   59.1490   65.0902 C   0  0  0  0  0  0  0  0  0  0  0  0
  -39.6117   60.4776   65.6457 C   0  0  0  0  0  0  0  0  0  0  0  0
  -38.1175   60.4124   65.8427 C   0  0  0  0  0  0  0  0  0  0  0  0
  -37.5188   61.3555   66.3956 O   0  0  0  0  0  0  0  0  0  0  0  0
  -37.4562   59.4254   65.4561 O   0  0  0  0  0  0  0  0  0  0  0  0
  -37.8882   58.7065   65.0383 H   0  0  0  0  0  0  0  0  0  0  0  0
  -45.0302   60.0685   65.4503 C   0  0  0  0  0  0  0  0  0  0  0  0
  -45.4991   59.5751   66.7981 C   0  0  0  0  0  0  0  0  0  0  0  0
  -46.1279   58.2494   66.9099 C   0  0  0  0  0  0  0  0  0  0  0  0
  -46.4904   57.5041   65.6499 C   0  0  0  0  0  0  0  0  0  0  0  0
  -48.0017   57.4870   65.4485 C   0  0  0  0  0  0  0  0  0  0  0  0
  -48.4898   58.8585   64.9825 C   0  0  0  0  0  0  0  0  0  0  0  0
  -49.9041   58.7905   64.4083 C   0  0  0  0  0  0  0  0  0  0  0  0
  -49.8950   58.5539   62.8959 C   0  0  0  0  0  0  0  0  0  0  0  0
  -50.2773   59.7975   62.0975 C   0  0  0  0  0  0  0  0  0  0  0  0
  7  8  2  0  0  0
  7  6  1  0  0  0
  7  9  1  0  0  0
  6  5  1  0  0  0
  9 10  1  0  0  0
  5  4  1  0  0  0
  4  3  1  0  0  0
  3  2  1  0  0  0
  2  1  1  0  0  0
  1 11  1  0  0  0
 11 12  1  0  0  0
 12 13  2  0  0  0
 13 14  1  0  0  0
 14 15  1  0  0  0
 15 16  1  0  0  0
 16 17  1  0  0  0
 17 18  1  0  0  0
 18 19  1  0  0  0
M  END
> <minimizedAffinity>
-6.32869

> <CNNscore>
0.5969640613

> <CNNaffinity>
6.0465030670

> <CNN_VS>
3.6095449924

> <CNNaffinity_variance>
0.1965573579

$$$$
/media/chris/experiments/cd1a-new-docking/inputs/ligands/4x6d_2_ligand.pdb


 19 18  0  0  0  0  0  0  0  0999 V2000
  -49.0295   61.2775   64.4881 C   0  0  0  0  0  0  0  0  0  0  0  0
  -50.1811   60.3534   64.8592 C   0  0  0  0  0  0  0  0  0  0  0  0
  -51.0339   59.9759   63.6598 C   0  0  0  0  0  0  0  0  0  0  0  0
  -50.1502   59.6985   62.4546 C   0  0  0  0  0  0  0  0  0  0  0  0
  -50.0338   58.1970   62.2636 C   0  0  0  0  0  0  0  0  0  0  0  0
  -50.9355   57.6997   61.1449 C   0  0  0  0  0  0  0  0  0  0  0  0
  -50.0909   57.3664   59.9403 C   0  0  0  0  0  0  0  0  0  0  0  0
  -50.2838   57.9570   58.8596 O   0  0  0  0  0  0  0  0  0  0  0  0
  -49.1943   56.4984   59.9986 O   0  0  0  0  0  0  0  0  0  0  0  0
  -49.0341   56.0435   60.8019 H   0  0  0  0  0  0  0  0  0  0  0  0
  -47.7900   60.7616   65.2044 C   0  0  0  0  0  0  0  0  0  0  0  0
  -48.1108   59.5947   66.1073 C   0  0  0  0  0  0  0  0  0  0  0  0
  -47.0318   58.6963   66.5475 C   0  0  0  0  0  0  0  0  0  0  0  0
  -45.6688   58.8268   65.9153 C   0  0  0  0  0  0  0  0  0  0  0  0
  -45.0537   57.4534   65.6696 C   0  0  0  0  0  0  0  0  0  0  0  0
  -43.6208   57.5983   65.1577 C   0  0  0  0  0  0  0  0  0  0  0  0
  -42.6564   57.9854   66.2778 C   0  0  0  0  0  0  0  0  0  0  0  0
  -42.0471   59.3716   66.0524 C   0  0  0  0  0  0  0  0  0  0  0  0
  -42.4652   60.3846   67.1149 C   0  0  0  0  0  0  0  0  0  0  0  0
  7  8  2  0  0  0
  7  6  1  0  0  0
  7  9  1  0  0  0
  6  5  1  0  0  0
  9 10  1  0  0  0
  5  4  1  0  0  0
  4  3  1  0  0  0
  3  2  1  0  0  0
  2  1  1  0  0  0
  1 11  1  0  0  0
 11 12  1  0  0  0
 12 13  2  0  0  0
 13 14  1  0  0  0
 14 15  1  0  0  0
 15 16  1  0  0  0
 16 17  1  0  0  0
 17 18  1  0  0  0
 18 19  1  0  0  0
M  END
> <minimizedAffinity>
-6.72229

> <CNNscore>
0.5820934772

> <CNNaffinity>
6.1324949265

> <CNN_VS>
3.5696852207

> <CNNaffinity_variance>
0.5000389814

$$$$
/media/chris/experiments/cd1a-new-docking/inputs/ligands/4x6d_2_ligand.pdb


 19 18  0  0  0  0  0  0  0  0999 V2000
  -44.0491   60.2027   65.7258 C   0  0  0  0  0  0  0  0  0  0  0  0
  -43.0971   60.3117   66.9088 C   0  0  0  0  0  0  0  0  0  0  0  0
  -42.0211   59.2392   66.8904 C   0  0  0  0  0  0  0  0  0  0  0  0
  -41.9026   58.6392   65.4990 C   0  0  0  0  0  0  0  0  0  0  0  0
  -40.4827   58.8325   64.9978 C   0  0  0  0  0  0  0  0  0  0  0  0
  -40.1713   60.2980   64.7387 C   0  0  0  0  0  0  0  0  0  0  0  0
  -40.6196   60.6598   63.3445 C   0  0  0  0  0  0  0  0  0  0  0  0
  -39.8313   60.5458   62.3857 O   0  0  0  0  0  0  0  0  0  0  0  0
  -41.7753   61.0806   63.1251 O   0  0  0  0  0  0  0  0  0  0  0  0
  -42.3825   61.1731   63.8327 H   0  0  0  0  0  0  0  0  0  0  0  0
  -45.3582   59.6333   66.2529 C   0  0  0  0  0  0  0  0  0  0  0  0
  -45.6416   58.2636   65.6841 C   0  0  0  0  0  0  0  0  0  0  0  0
  -46.8535   58.0463   64.8783 C   0  0  0  0  0  0  0  0  0  0  0  0
  -47.8967   59.1338   64.8195 C   0  0  0  0  0  0  0  0  0  0  0  0
  -49.2459   58.5653   64.3934 C   0  0  0  0  0  0  0  0  0  0  0  0
  -50.1999   59.6961   64.0092 C   0  0  0  0  0  0  0  0  0  0  0  0
  -50.7625   59.5078   62.6012 C   0  0  0  0  0  0  0  0  0  0  0  0
  -50.0633   58.3685   61.8551 C   0  0  0  0  0  0  0  0  0  0  0  0
  -51.0110   57.5747   60.9597 C   0  0  0  0  0  0  0  0  0  0  0  0
  7  8  2  0  0  0
  7  6  1  0  0  0
  7  9  1  0  0  0
  6  5  1  0  0  0
  9 10  1  0  0  0
  5  4  1  0  0  0
  4  3  1  0  0  0
  3  2  1  0  0  0
  2  1  1  0  0  0
  1 11  1  0  0  0
 11 12  1  0  0  0
 12 13  2  0  0  0
 13 14  1  0  0  0
 14 15  1  0  0  0
 15 16  1  0  0  0
 16 17  1  0  0  0
 17 18  1  0  0  0
 18 19  1  0  0  0
M  END
> <minimizedAffinity>
-6.29477

> <CNNscore>
0.5661261082

> <CNNaffinity>
5.9448409081

> <CNN_VS>
3.3655295372

> <CNNaffinity_variance>
0.1749821454

$$$$
/media/chris/experiments/cd1a-new-docking/inputs/ligands/4x6d_2_ligand.pdb


 19 18  0  0  0  0  0  0  0  0999 V2000
  -38.8813   59.3304   62.7208 C   0  0  0  0  0  0  0  0  0  0  0  0
  -38.5046   57.8795   62.9867 C   0  0  0  0  0  0  0  0  0  0  0  0
  -37.3684   57.4013   62.0987 C   0  0  0  0  0  0  0  0  0  0  0  0
  -37.3224   58.2205   60.8193 C   0  0  0  0  0  0  0  0  0  0  0  0
  -36.1009   57.8121   60.0157 C   0  0  0  0  0  0  0  0  0  0  0  0
  -35.4787   56.5310   60.5482 C   0  0  0  0  0  0  0  0  0  0  0  0
  -35.1315   55.6308   59.3886 C   0  0  0  0  0  0  0  0  0  0  0  0
  -35.8040   55.6757   58.3401 O   0  0  0  0  0  0  0  0  0  0  0  0
  -34.1770   54.8275   59.4560 O   0  0  0  0  0  0  0  0  0  0  0  0
  -33.6596   54.7790   60.2357 H   0  0  0  0  0  0  0  0  0  0  0  0
  -39.5358   59.8644   63.9866 C   0  0  0  0  0  0  0  0  0  0  0  0
  -40.0489   58.7482   64.8646 C   0  0  0  0  0  0  0  0  0  0  0  0
  -41.3170   58.9178   65.5915 C   0  0  0  0  0  0  0  0  0  0  0  0
  -41.9664   60.2786   65.6202 C   0  0  0  0  0  0  0  0  0  0  0  0
  -43.1572   60.3288   64.6690 C   0  0  0  0  0  0  0  0  0  0  0  0
  -44.3373   59.5547   65.2560 C   0  0  0  0  0  0  0  0  0  0  0  0
  -44.5961   58.2553   64.4950 C   0  0  0  0  0  0  0  0  0  0  0  0
  -45.1141   57.1480   65.4165 C   0  0  0  0  0  0  0  0  0  0  0  0
  -45.8764   57.6877   66.6238 C   0  0  0  0  0  0  0  0  0  0  0  0
  7  8  2  0  0  0
  7  6  1  0  0  0
  7  9  1  0  0  0
  6  5  1  0  0  0
  9 10  1  0  0  0
  5  4  1  0  0  0
  4  3  1  0  0  0
  3  2  1  0  0  0
  2  1  1  0  0  0
  1 11  1  0  0  0
 11 12  1  0  0  0
 12 13  2  0  0  0
 13 14  1  0  0  0
 14 15  1  0  0  0
 15 16  1  0  0  0
 16 17  1  0  0  0
 17 18  1  0  0  0
 18 19  1  0  0  0
M  END
> <minimizedAffinity>
-6.15181

> <CNNscore>
0.5394504070

> <CNNaffinity>
5.5344662666

> <CNN_VS>
2.9855701923

> <CNNaffinity_variance>
0.0749480277

$$$$
