/media/chris/experiments/cd1a-new-docking/inputs/ligands/4x6d_2_ligand.pdb


 19 18  0  0  0  0  0  0  0  0999 V2000
  -46.9090   60.5768   65.6158 C   0  0  0  0  0  0  0  0  0  0  0  0
  -45.8231   59.5163   65.4986 C   0  0  0  0  0  0  0  0  0  0  0  0
  -44.4274   60.1149   65.4543 C   0  0  0  0  0  0  0  0  0  0  0  0
  -43.3824   59.0188   65.5829 C   0  0  0  0  0  0  0  0  0  0  0  0
  -42.2853   59.4907   66.5200 C   0  0  0  0  0  0  0  0  0  0  0  0
  -42.1947   61.0078   66.5629 C   0  0  0  0  0  0  0  0  0  0  0  0
  -41.0005   61.4548   65.7568 C   0  0  0  0  0  0  0  0  0  0  0  0
  -40.5975   60.7628   64.8016 O   0  0  0  0  0  0  0  0  0  0  0  0
  -40.3950   62.5130   66.0295 O   0  0  0  0  0  0  0  0  0  0  0  0
  -40.6828   63.0468   66.7437 H   0  0  0  0  0  0  0  0  0  0  0  0
  -48.2115   59.8544   65.9276 C   0  0  0  0  0  0  0  0  0  0  0  0
  -48.2757   58.5028   65.2576 C   0  0  0  0  0  0  0  0  0  0  0  0
  -49.2018   58.2902   64.1340 C   0  0  0  0  0  0  0  0  0  0  0  0
  -50.2219   59.3545   63.8165 C   0  0  0  0  0  0  0  0  0  0  0  0
  -50.6311   59.2896   62.3491 C   0  0  0  0  0  0  0  0  0  0  0  0
  -50.2871   57.9204   61.7631 C   0  0  0  0  0  0  0  0  0  0  0  0
  -50.8636   57.7450   60.3590 C   0  0  0  0  0  0  0  0  0  0  0  0
  -49.7649   57.5440   59.3121 C   0  0  0  0  0  0  0  0  0  0  0  0
  -48.3624   57.7655   59.8724 C   0  0  0  0  0  0  0  0  0  0  0  0
  7  8  2  0  0  0
  7  6  1  0  0  0
  7  9  1  0  0  0
  6  5  1  0  0  0
  9 10  1  0  0  0
  5  4  1  0  0  0
  4  3  1  0  0  0
  3  2  1  0  0  0
  2  1  1  0  0  0
  1 11  1  0  0  0
 11 12  1  0  0  0
 12 13  2  0  0  0
 13 14  1  0  0  0
 14 15  1  0  0  0
 15 16  1  0  0  0
 16 17  1  0  0  0
 17 18  1  0  0  0
 18 19  1  0  0  0
M  END
> <minimizedAffinity>
-6.80620

> <CNNscore>
0.8701558113

> <CNNaffinity>
6.4514493942

> <CNN_VS>
5.6137661934

> <CNNaffinity_variance>
0.6875244379

$$$$
/media/chris/experiments/cd1a-new-docking/inputs/ligands/4x6d_2_ligand.pdb


 19 18  0  0  0  0  0  0  0  0999 V2000
  -44.5818   57.2953   64.9615 C   0  0  0  0  0  0  0  0  0  0  0  0
  -43.3683   58.2109   65.0463 C   0  0  0  0  0  0  0  0  0  0  0  0
  -43.6588   59.4930   65.8077 C   0  0  0  0  0  0  0  0  0  0  0  0
  -43.6933   60.6742   64.8519 C   0  0  0  0  0  0  0  0  0  0  0  0
  -42.2791   61.1888   64.6525 C   0  0  0  0  0  0  0  0  0  0  0  0
  -41.5272   61.2952   65.9697 C   0  0  0  0  0  0  0  0  0  0  0  0
  -40.0456   61.1988   65.7024 C   0  0  0  0  0  0  0  0  0  0  0  0
  -39.5409   60.1090   65.3692 O   0  0  0  0  0  0  0  0  0  0  0  0
  -39.3018   62.1965   65.8129 O   0  0  0  0  0  0  0  0  0  0  0  0
  -39.6625   63.0245   66.0623 H   0  0  0  0  0  0  0  0  0  0  0  0
  -45.4549   57.5925   66.1719 C   0  0  0  0  0  0  0  0  0  0  0  0
  -46.8222   56.9652   66.0427 C   0  0  0  0  0  0  0  0  0  0  0  0
  -47.9317   57.7476   65.4749 C   0  0  0  0  0  0  0  0  0  0  0  0
  -47.7380   59.2242   65.2375 C   0  0  0  0  0  0  0  0  0  0  0  0
  -48.6986   59.7294   64.1665 C   0  0  0  0  0  0  0  0  0  0  0  0
  -49.4217   58.5554   63.5069 C   0  0  0  0  0  0  0  0  0  0  0  0
  -49.8560   58.8881   62.0802 C   0  0  0  0  0  0  0  0  0  0  0  0
  -50.3877   57.6560   61.3436 C   0  0  0  0  0  0  0  0  0  0  0  0
  -50.7036   57.9315   59.8758 C   0  0  0  0  0  0  0  0  0  0  0  0
  7  8  2  0  0  0
  7  6  1  0  0  0
  7  9  1  0  0  0
  6  5  1  0  0  0
  9 10  1  0  0  0
  5  4  1  0  0  0
  4  3  1  0  0  0
  3  2  1  0  0  0
  2  1  1  0  0  0
  1 11  1  0  0  0
 11 12  1  0  0  0
 12 13  2  0  0  0
 13 14  1  0  0  0
 14 15  1  0  0  0
 15 16  1  0  0  0
 16 17  1  0  0  0
 17 18  1  0  0  0
 18 19  1  0  0  0
M  END
> <minimizedAffinity>
-6.35134

> <CNNscore>
0.7342251539

> <CNNaffinity>
6.2774224281

> <CNN_VS>
4.6090412140

> <CNNaffinity_variance>
0.2921822667

$$$$
/media/chris/experiments/cd1a-new-docking/inputs/ligands/4x6d_2_ligand.pdb


 19 18  0  0  0  0  0  0  0  0999 V2000
  -45.2465   60.5630   65.0655 C   0  0  0  0  0  0  0  0  0  0  0  0
  -43.9948   59.7071   65.2014 C   0  0  0  0  0  0  0  0  0  0  0  0
  -43.2225   60.0037   66.4757 C   0  0  0  0  0  0  0  0  0  0  0  0
  -42.1473   58.9520   66.6940 C   0  0  0  0  0  0  0  0  0  0  0  0
  -41.4995   58.6246   65.3607 C   0  0  0  0  0  0  0  0  0  0  0  0
  -40.1064   59.2234   65.2489 C   0  0  0  0  0  0  0  0  0  0  0  0
  -39.7620   59.4053   63.7915 C   0  0  0  0  0  0  0  0  0  0  0  0
  -40.2244   60.3733   63.1567 O   0  0  0  0  0  0  0  0  0  0  0  0
  -39.0186   58.5967   63.1963 O   0  0  0  0  0  0  0  0  0  0  0  0
  -38.6612   57.8628   63.6563 H   0  0  0  0  0  0  0  0  0  0  0  0
  -46.3648   59.8455   65.8073 C   0  0  0  0  0  0  0  0  0  0  0  0
  -47.4443   60.8025   66.2530 C   0  0  0  0  0  0  0  0  0  0  0  0
  -48.8587   60.4220   66.1114 C   0  0  0  0  0  0  0  0  0  0  0  0
  -49.2068   59.1827   65.3257 C   0  0  0  0  0  0  0  0  0  0  0  0
  -49.6462   59.5457   63.9115 C   0  0  0  0  0  0  0  0  0  0  0  0
  -49.9282   58.2796   63.1028 C   0  0  0  0  0  0  0  0  0  0  0  0
  -50.5579   58.6019   61.7485 C   0  0  0  0  0  0  0  0  0  0  0  0
  -50.3025   57.4950   60.7225 C   0  0  0  0  0  0  0  0  0  0  0  0
  -50.4272   57.9806   59.2807 C   0  0  0  0  0  0  0  0  0  0  0  0
  7  8  2  0  0  0
  7  6  1  0  0  0
  7  9  1  0  0  0
  6  5  1  0  0  0
  9 10  1  0  0  0
  5  4  1  0  0  0
  4  3  1  0  0  0
  3  2  1  0  0  0
  2  1  1  0  0  0
  1 11  1  0  0  0
 11 12  1  0  0  0
 12 13  2  0  0  0
 13 14  1  0  0  0
 14 15  1  0  0  0
 15 16  1  0  0  0
 16 17  1  0  0  0
 17 18  1  0  0  0
 18 19  1  0  0  0
M  END
> <minimizedAffinity>
-6.33095

> <CNNscore>
0.7004517317

> <CNNaffinity>
6.1033611298

> <CNN_VS>
4.2751097679

> <CNNaffinity_variance>
0.3486461043

$$$$
/media/chris/experiments/cd1a-new-docking/inputs/ligands/4x6d_2_ligand.pdb


 19 18  0  0  0  0  0  0  0  0999 V2000
  -48.6998   58.2871   64.3455 C   0  0  0  0  0  0  0  0  0  0  0  0
  -49.3762   59.6184   64.0489 C   0  0  0  0  0  0  0  0  0  0  0  0
  -50.3584   59.5274   62.8934 C   0  0  0  0  0  0  0  0  0  0  0  0
  -50.1872   58.2059   62.1625 C   0  0  0  0  0  0  0  0  0  0  0  0
  -49.7942   58.4856   60.7231 C   0  0  0  0  0  0  0  0  0  0  0  0
  -49.7965   57.2190   59.8820 C   0  0  0  0  0  0  0  0  0  0  0  0
  -48.3760   56.8641   59.5186 C   0  0  0  0  0  0  0  0  0  0  0  0
  -48.0954   55.7054   59.1547 O   0  0  0  0  0  0  0  0  0  0  0  0
  -47.4613   57.7130   59.5785 O   0  0  0  0  0  0  0  0  0  0  0  0
  -47.6523   58.5892   59.8498 H   0  0  0  0  0  0  0  0  0  0  0  0
  -47.6956   58.5318   65.4623 C   0  0  0  0  0  0  0  0  0  0  0  0
  -46.9426   57.2738   65.8230 C   0  0  0  0  0  0  0  0  0  0  0  0
  -45.5052   57.1743   65.5239 C   0  0  0  0  0  0  0  0  0  0  0  0
  -44.8616   58.2368   64.6689 C   0  0  0  0  0  0  0  0  0  0  0  0
  -43.9426   59.1200   65.5057 C   0  0  0  0  0  0  0  0  0  0  0  0
  -42.7672   58.3033   66.0424 C   0  0  0  0  0  0  0  0  0  0  0  0
  -41.7636   59.1801   66.7897 C   0  0  0  0  0  0  0  0  0  0  0  0
  -40.7782   59.8597   65.8355 C   0  0  0  0  0  0  0  0  0  0  0  0
  -40.9529   61.3751   65.7810 C   0  0  0  0  0  0  0  0  0  0  0  0
  7  8  2  0  0  0
  7  6  1  0  0  0
  7  9  1  0  0  0
  6  5  1  0  0  0
  9 10  1  0  0  0
  5  4  1  0  0  0
  4  3  1  0  0  0
  3  2  1  0  0  0
  2  1  1  0  0  0
  1 11  1  0  0  0
 11 12  1  0  0  0
 12 13  2  0  0  0
 13 14  1  0  0  0
 14 15  1  0  0  0
 15 16  1  0  0  0
 16 17  1  0  0  0
 17 18  1  0  0  0
 18 19  1  0  0  0
M  END
> <minimizedAffinity>
-6.51787

> <CNNscore>
0.6797404885

> <CNNaffinity>
6.2294464111

> <CNN_VS>
4.2344069481

> <CNNaffinity_variance>
0.3742668033

$$$$
/media/chris/experiments/cd1a-new-docking/inputs/ligands/4x6d_2_ligand.pdb


 19 18  0  0  0  0  0  0  0  0999 V2000
  -41.8311   58.9822   66.6032 C   0  0  0  0  0  0  0  0  0  0  0  0
  -41.2621   58.4432   65.2980 C   0  0  0  0  0  0  0  0  0  0  0  0
  -40.0121   59.1857   64.8575 C   0  0  0  0  0  0  0  0  0  0  0  0
  -39.1014   58.2583   64.0698 C   0  0  0  0  0  0  0  0  0  0  0  0
  -38.7568   58.9138   62.7446 C   0  0  0  0  0  0  0  0  0  0  0  0
  -39.3823   60.2939   62.6191 C   0  0  0  0  0  0  0  0  0  0  0  0
  -38.8399   60.9723   61.3857 C   0  0  0  0  0  0  0  0  0  0  0  0
  -39.4003   60.8069   60.2846 O   0  0  0  0  0  0  0  0  0  0  0  0
  -37.8270   61.7015   61.4406 O   0  0  0  0  0  0  0  0  0  0  0  0
  -37.3918   61.8381   62.2590 H   0  0  0  0  0  0  0  0  0  0  0  0
  -43.0308   59.8482   66.2472 C   0  0  0  0  0  0  0  0  0  0  0  0
  -43.7094   59.3721   64.9852 C   0  0  0  0  0  0  0  0  0  0  0  0
  -44.9989   58.6687   65.0727 C   0  0  0  0  0  0  0  0  0  0  0  0
  -45.5091   58.2439   66.4268 C   0  0  0  0  0  0  0  0  0  0  0  0
  -46.5386   59.2383   66.9522 C   0  0  0  0  0  0  0  0  0  0  0  0
  -47.3339   59.8397   65.7936 C   0  0  0  0  0  0  0  0  0  0  0  0
  -48.6028   60.5377   66.2806 C   0  0  0  0  0  0  0  0  0  0  0  0
  -49.8668   59.8776   65.7239 C   0  0  0  0  0  0  0  0  0  0  0  0
  -49.6007   58.5032   65.1152 C   0  0  0  0  0  0  0  0  0  0  0  0
  7  8  2  0  0  0
  7  6  1  0  0  0
  7  9  1  0  0  0
  6  5  1  0  0  0
  9 10  1  0  0  0
  5  4  1  0  0  0
  4  3  1  0  0  0
  3  2  1  0  0  0
  2  1  1  0  0  0
  1 11  1  0  0  0
 11 12  1  0  0  0
 12 13  2  0  0  0
 13 14  1  0  0  0
 14 15  1  0  0  0
 15 16  1  0  0  0
 16 17  1  0  0  0
 17 18  1  0  0  0
 18 19  1  0  0  0
M  END
> <minimizedAffinity>
-6.53631

> <CNNscore>
0.6177924275

> <CNNaffinity>
5.9108657837

> <CNN_VS>
3.6516880989

> <CNNaffinity_variance>
0.0874104276

$$$$
/media/chris/experiments/cd1a-new-docking/inputs/ligands/4x6d_2_ligand.pdb


 19 18  0  0  0  0  0  0  0  0999 V2000
  -40.1546   59.6395   65.2855 C   0  0  0  0  0  0  0  0  0  0  0  0
  -39.5273   58.8549   64.1415 C   0  0  0  0  0  0  0  0  0  0  0  0
  -38.1726   58.2734   64.5088 C   0  0  0  0  0  0  0  0  0  0  0  0
  -37.3955   57.9197   63.2514 C   0  0  0  0  0  0  0  0  0  0  0  0
  -38.2543   58.2268   62.0379 C   0  0  0  0  0  0  0  0  0  0  0  0
  -37.5084   59.0742   61.0195 C   0  0  0  0  0  0  0  0  0  0  0  0
  -38.1954   60.4110   60.8903 C   0  0  0  0  0  0  0  0  0  0  0  0
  -39.1811   60.5363   60.1377 O   0  0  0  0  0  0  0  0  0  0  0  0
  -37.7927   61.4096   61.5239 O   0  0  0  0  0  0  0  0  0  0  0  0
  -37.0534   61.3354   62.0947 H   0  0  0  0  0  0  0  0  0  0  0  0
  -41.5133   59.0147   65.5675 C   0  0  0  0  0  0  0  0  0  0  0  0
  -42.1474   59.5923   66.8101 C   0  0  0  0  0  0  0  0  0  0  0  0
  -43.5137   60.1348   66.7456 C   0  0  0  0  0  0  0  0  0  0  0  0
  -44.1699   60.3040   65.3983 C   0  0  0  0  0  0  0  0  0  0  0  0
  -45.5926   59.7559   65.4180 C   0  0  0  0  0  0  0  0  0  0  0  0
  -46.5945   60.8720   65.1230 C   0  0  0  0  0  0  0  0  0  0  0  0
  -48.0165   60.3319   64.9783 C   0  0  0  0  0  0  0  0  0  0  0  0
  -48.0286   58.8765   64.5041 C   0  0  0  0  0  0  0  0  0  0  0  0
  -49.3081   58.5046   63.7595 C   0  0  0  0  0  0  0  0  0  0  0  0
  7  8  2  0  0  0
  7  6  1  0  0  0
  7  9  1  0  0  0
  6  5  1  0  0  0
  9 10  1  0  0  0
  5  4  1  0  0  0
  4  3  1  0  0  0
  3  2  1  0  0  0
  2  1  1  0  0  0
  1 11  1  0  0  0
 11 12  1  0  0  0
 12 13  2  0  0  0
 13 14  1  0  0  0
 14 15  1  0  0  0
 15 16  1  0  0  0
 16 17  1  0  0  0
 17 18  1  0  0  0
 18 19  1  0  0  0
M  END
> <minimizedAffinity>
-6.51272

> <CNNscore>
0.5979701281

> <CNNaffinity>
5.8413915634

> <CNN_VS>
3.4929776192

> <CNNaffinity_variance>
0.2466902435

$$$$
/media/chris/experiments/cd1a-new-docking/inputs/ligands/4x6d_2_ligand.pdb


 19 18  0  0  0  0  0  0  0  0999 V2000
  -44.4883   59.8164   65.1325 C   0  0  0  0  0  0  0  0  0  0  0  0
  -44.2041   59.8581   66.6275 C   0  0  0  0  0  0  0  0  0  0  0  0
  -42.7971   60.3392   66.9392 C   0  0  0  0  0  0  0  0  0  0  0  0
  -41.8410   59.1593   67.0001 C   0  0  0  0  0  0  0  0  0  0  0  0
  -40.8949   59.2293   65.8150 C   0  0  0  0  0  0  0  0  0  0  0  0
  -40.6239   60.6651   65.3944 C   0  0  0  0  0  0  0  0  0  0  0  0
  -39.1651   60.9785   65.6168 C   0  0  0  0  0  0  0  0  0  0  0  0
  -38.3288   60.0556   65.6668 O   0  0  0  0  0  0  0  0  0  0  0  0
  -38.7702   62.1552   65.7584 O   0  0  0  0  0  0  0  0  0  0  0  0
  -39.3836   62.8627   65.7239 H   0  0  0  0  0  0  0  0  0  0  0  0
  -44.8178   58.3739   64.7773 C   0  0  0  0  0  0  0  0  0  0  0  0
  -45.2587   57.5865   65.9879 C   0  0  0  0  0  0  0  0  0  0  0  0
  -46.6719   57.2027   66.1319 C   0  0  0  0  0  0  0  0  0  0  0  0
  -47.6883   57.7882   65.1840 C   0  0  0  0  0  0  0  0  0  0  0  0
  -48.4125   58.9651   65.8284 C   0  0  0  0  0  0  0  0  0  0  0  0
  -49.9215   58.8363   65.6217 C   0  0  0  0  0  0  0  0  0  0  0  0
  -50.5202   60.1061   65.0187 C   0  0  0  0  0  0  0  0  0  0  0  0
  -50.1101   60.2913   63.5555 C   0  0  0  0  0  0  0  0  0  0  0  0
  -50.7349   59.2532   62.6271 C   0  0  0  0  0  0  0  0  0  0  0  0
  7  8  2  0  0  0
  7  6  1  0  0  0
  7  9  1  0  0  0
  6  5  1  0  0  0
  9 10  1  0  0  0
  5  4  1  0  0  0
  4  3  1  0  0  0
  3  2  1  0  0  0
  2  1  1  0  0  0
  1 11  1  0  0  0
 11 12  1  0  0  0
 12 13  2  0  0  0
 13 14  1  0  0  0
 14 15  1  0  0  0
 15 16  1  0  0  0
 16 17  1  0  0  0
 17 18  1  0  0  0
 18 19  1  0  0  0
M  END
> <minimizedAffinity>
-6.55318

> <CNNscore>
0.5917310119

> <CNNaffinity>
5.9790520668

> <CNN_VS>
3.5379905701

> <CNNaffinity_variance>
0.1176744252

$$$$
/media/chris/experiments/cd1a-new-docking/inputs/ligands/4x6d_2_ligand.pdb


 19 18  0  0  0  0  0  0  0  0999 V2000
  -44.0487   57.6989   65.2586 C   0  0  0  0  0  0  0  0  0  0  0  0
  -42.8233   58.0156   66.1046 C   0  0  0  0  0  0  0  0  0  0  0  0
  -42.5043   59.5007   66.1338 C   0  0  0  0  0  0  0  0  0  0  0  0
  -42.7797   60.1230   64.7748 C   0  0  0  0  0  0  0  0  0  0  0  0
  -41.6533   61.0819   64.4339 C   0  0  0  0  0  0  0  0  0  0  0  0
  -40.9437   61.5840   65.6814 C   0  0  0  0  0  0  0  0  0  0  0  0
  -39.4744   61.2579   65.5796 C   0  0  0  0  0  0  0  0  0  0  0  0
  -39.1081   60.0850   65.3701 O   0  0  0  0  0  0  0  0  0  0  0  0
  -38.6042   62.1453   65.7062 O   0  0  0  0  0  0  0  0  0  0  0  0
  -38.8596   63.0329   65.8641 H   0  0  0  0  0  0  0  0  0  0  0  0
  -45.2589   57.7605   66.1791 C   0  0  0  0  0  0  0  0  0  0  0  0
  -46.5519   57.6107   65.4139 C   0  0  0  0  0  0  0  0  0  0  0  0
  -47.2647   58.8102   64.9465 C   0  0  0  0  0  0  0  0  0  0  0  0
  -46.8089   60.1648   65.4276 C   0  0  0  0  0  0  0  0  0  0  0  0
  -47.9960   60.9982   65.8980 C   0  0  0  0  0  0  0  0  0  0  0  0
  -48.9868   61.2032   64.7523 C   0  0  0  0  0  0  0  0  0  0  0  0
  -50.3787   60.6831   65.1082 C   0  0  0  0  0  0  0  0  0  0  0  0
  -51.1374   60.1915   63.8728 C   0  0  0  0  0  0  0  0  0  0  0  0
  -50.2204   59.9092   62.6856 C   0  0  0  0  0  0  0  0  0  0  0  0
  7  8  2  0  0  0
  7  6  1  0  0  0
  7  9  1  0  0  0
  6  5  1  0  0  0
  9 10  1  0  0  0
  5  4  1  0  0  0
  4  3  1  0  0  0
  3  2  1  0  0  0
  2  1  1  0  0  0
  1 11  1  0  0  0
 11 12  1  0  0  0
 12 13  2  0  0  0
 13 14  1  0  0  0
 14 15  1  0  0  0
 15 16  1  0  0  0
 16 17  1  0  0  0
 17 18  1  0  0  0
 18 19  1  0  0  0
M  END
> <minimizedAffinity>
-6.41044

> <CNNscore>
0.5882722735

> <CNNaffinity>
5.9776449203

> <CNN_VS>
3.5164828300

> <CNNaffinity_variance>
0.1822031736

$$$$
/media/chris/experiments/cd1a-new-docking/inputs/ligands/4x6d_2_ligand.pdb


 19 18  0  0  0  0  0  0  0  0999 V2000
  -49.6875   59.7597   65.6500 C   0  0  0  0  0  0  0  0  0  0  0  0
  -50.3116   60.6551   64.5886 C   0  0  0  0  0  0  0  0  0  0  0  0
  -50.7309   59.8830   63.3492 C   0  0  0  0  0  0  0  0  0  0  0  0
  -50.0719   58.5135   63.3367 C   0  0  0  0  0  0  0  0  0  0  0  0
  -49.2516   58.3724   62.0671 C   0  0  0  0  0  0  0  0  0  0  0  0
  -50.0651   58.7163   60.8295 C   0  0  0  0  0  0  0  0  0  0  0  0
  -49.9945   57.5660   59.8560 C   0  0  0  0  0  0  0  0  0  0  0  0
  -49.8836   56.3979   60.2767 O   0  0  0  0  0  0  0  0  0  0  0  0
  -50.0403   57.7584   58.6225 O   0  0  0  0  0  0  0  0  0  0  0  0
  -50.1235   58.6292   58.2868 H   0  0  0  0  0  0  0  0  0  0  0  0
  -48.5854   60.5632   66.3250 C   0  0  0  0  0  0  0  0  0  0  0  0
  -47.4790   60.9156   65.3599 C   0  0  0  0  0  0  0  0  0  0  0  0
  -46.1800   60.2316   65.4601 C   0  0  0  0  0  0  0  0  0  0  0  0
  -45.9063   59.3546   66.6560 C   0  0  0  0  0  0  0  0  0  0  0  0
  -45.1368   58.1044   66.2439 C   0  0  0  0  0  0  0  0  0  0  0  0
  -43.8668   58.4897   65.4855 C   0  0  0  0  0  0  0  0  0  0  0  0
  -42.6091   58.0072   66.2066 C   0  0  0  0  0  0  0  0  0  0  0  0
  -41.6442   59.1582   66.5028 C   0  0  0  0  0  0  0  0  0  0  0  0
  -42.3448   60.3900   67.0700 C   0  0  0  0  0  0  0  0  0  0  0  0
  7  8  2  0  0  0
  7  6  1  0  0  0
  7  9  1  0  0  0
  6  5  1  0  0  0
  9 10  1  0  0  0
  5  4  1  0  0  0
  4  3  1  0  0  0
  3  2  1  0  0  0
  2  1  1  0  0  0
  1 11  1  0  0  0
 11 12  1  0  0  0
 12 13  2  0  0  0
 13 14  1  0  0  0
 14 15  1  0  0  0
 15 16  1  0  0  0
 16 17  1  0  0  0
 17 18  1  0  0  0
 18 19  1  0  0  0
M  END
> <minimizedAffinity>
-6.72720

> <CNNscore>
0.5860903859

> <CNNaffinity>
6.0947179794

> <CNN_VS>
3.5720555782

> <CNNaffinity_variance>
0.5536805987

$$$$
