/media/chris/experiments/cd1a-new-docking/inputs/ligands/4x6d_2_ligand.pdb


 19 18  0  0  0  0  0  0  0  0999 V2000
  -47.5437   60.8526   65.7259 C   0  0  0  0  0  0  0  0  0  0  0  0
  -46.4699   59.8713   65.2767 C   0  0  0  0  0  0  0  0  0  0  0  0
  -45.3060   59.7966   66.2502 C   0  0  0  0  0  0  0  0  0  0  0  0
  -44.0250   60.2537   65.5720 C   0  0  0  0  0  0  0  0  0  0  0  0
  -42.8484   59.5286   66.2000 C   0  0  0  0  0  0  0  0  0  0  0  0
  -41.9244   60.4857   66.9362 C   0  0  0  0  0  0  0  0  0  0  0  0
  -41.0150   61.1600   65.9394 C   0  0  0  0  0  0  0  0  0  0  0  0
  -40.2703   60.4756   65.2108 O   0  0  0  0  0  0  0  0  0  0  0  0
  -40.9861   62.4040   65.8278 O   0  0  0  0  0  0  0  0  0  0  0  0
  -41.5384   62.9357   66.3666 H   0  0  0  0  0  0  0  0  0  0  0  0
  -48.3347   61.2513   64.4885 C   0  0  0  0  0  0  0  0  0  0  0  0
  -49.8116   60.9886   64.6600 C   0  0  0  0  0  0  0  0  0  0  0  0
  -50.4057   59.7698   64.0884 C   0  0  0  0  0  0  0  0  0  0  0  0
  -49.5768   58.9200   63.1582 C   0  0  0  0  0  0  0  0  0  0  0  0
  -50.1053   59.0090   61.7306 C   0  0  0  0  0  0  0  0  0  0  0  0
  -49.5570   57.8563   60.8898 C   0  0  0  0  0  0  0  0  0  0  0  0
  -48.9940   58.3464   59.5566 C   0  0  0  0  0  0  0  0  0  0  0  0
  -47.5819   57.8123   59.3027 C   0  0  0  0  0  0  0  0  0  0  0  0
  -46.9251   58.4309   58.0715 C   0  0  0  0  0  0  0  0  0  0  0  0
  7  8  2  0  0  0
  7  6  1  0  0  0
  7  9  1  0  0  0
  6  5  1  0  0  0
  9 10  1  0  0  0
  5  4  1  0  0  0
  4  3  1  0  0  0
  3  2  1  0  0  0
  2  1  1  0  0  0
  1 11  1  0  0  0
 11 12  1  0  0  0
 12 13  2  0  0  0
 13 14  1  0  0  0
 14 15  1  0  0  0
 15 16  1  0  0  0
 16 17  1  0  0  0
 17 18  1  0  0  0
 18 19  1  0  0  0
M  END
> <minimizedAffinity>
-6.91067

> <CNNscore>
0.8406829834

> <CNNaffinity>
6.3400979042

> <CNN_VS>
5.3300123215

> <CNNaffinity_variance>
0.5083819628

$$$$
/media/chris/experiments/cd1a-new-docking/inputs/ligands/4x6d_2_ligand.pdb


 19 18  0  0  0  0  0  0  0  0999 V2000
  -44.8914   60.2063   65.1936 C   0  0  0  0  0  0  0  0  0  0  0  0
  -44.1425   59.5191   66.3270 C   0  0  0  0  0  0  0  0  0  0  0  0
  -43.7361   58.0975   65.9781 C   0  0  0  0  0  0  0  0  0  0  0  0
  -42.2433   58.0320   65.7002 C   0  0  0  0  0  0  0  0  0  0  0  0
  -41.5701   59.2356   66.3348 C   0  0  0  0  0  0  0  0  0  0  0  0
  -40.5844   59.8962   65.3841 C   0  0  0  0  0  0  0  0  0  0  0  0
  -40.4331   61.3492   65.7599 C   0  0  0  0  0  0  0  0  0  0  0  0
  -41.4377   62.0262   66.0537 O   0  0  0  0  0  0  0  0  0  0  0  0
  -39.3115   61.8992   65.7797 O   0  0  0  0  0  0  0  0  0  0  0  0
  -38.5444   61.4071   65.5620 H   0  0  0  0  0  0  0  0  0  0  0  0
  -46.3500   59.7851   65.2978 C   0  0  0  0  0  0  0  0  0  0  0  0
  -47.2162   60.8976   65.8381 C   0  0  0  0  0  0  0  0  0  0  0  0
  -48.5782   61.0810   65.3122 C   0  0  0  0  0  0  0  0  0  0  0  0
  -49.0030   60.2981   64.0952 C   0  0  0  0  0  0  0  0  0  0  0  0
  -50.5191   60.1390   64.0577 C   0  0  0  0  0  0  0  0  0  0  0  0
  -50.9649   59.6323   62.6862 C   0  0  0  0  0  0  0  0  0  0  0  0
  -50.2731   58.3216   62.3151 C   0  0  0  0  0  0  0  0  0  0  0  0
  -50.8476   57.7167   61.0315 C   0  0  0  0  0  0  0  0  0  0  0  0
  -49.8681   56.7842   60.3238 C   0  0  0  0  0  0  0  0  0  0  0  0
  7  8  2  0  0  0
  7  6  1  0  0  0
  7  9  1  0  0  0
  6  5  1  0  0  0
  9 10  1  0  0  0
  5  4  1  0  0  0
  4  3  1  0  0  0
  3  2  1  0  0  0
  2  1  1  0  0  0
  1 11  1  0  0  0
 11 12  1  0  0  0
 12 13  2  0  0  0
 13 14  1  0  0  0
 14 15  1  0  0  0
 15 16  1  0  0  0
 16 17  1  0  0  0
 17 18  1  0  0  0
 18 19  1  0  0  0
M  END
> <minimizedAffinity>
-6.86231

> <CNNscore>
0.7610643506

> <CNNaffinity>
6.1932258606

> <CNN_VS>
4.7134432793

> <CNNaffinity_variance>
0.2991655469

$$$$
/media/chris/experiments/cd1a-new-docking/inputs/ligands/4x6d_2_ligand.pdb


 19 18  0  0  0  0  0  0  0  0999 V2000
  -48.0630   57.3295   65.4185 C   0  0  0  0  0  0  0  0  0  0  0  0
  -46.6407   57.2692   65.9582 C   0  0  0  0  0  0  0  0  0  0  0  0
  -45.6562   58.0345   65.0904 C   0  0  0  0  0  0  0  0  0  0  0  0
  -44.3626   57.2495   64.9478 C   0  0  0  0  0  0  0  0  0  0  0  0
  -43.1892   58.2017   65.0930 C   0  0  0  0  0  0  0  0  0  0  0  0
  -43.0449   58.7046   66.5206 C   0  0  0  0  0  0  0  0  0  0  0  0
  -42.8988   60.2058   66.5036 C   0  0  0  0  0  0  0  0  0  0  0  0
  -43.1078   60.8418   65.4521 O   0  0  0  0  0  0  0  0  0  0  0  0
  -42.5646   60.8352   67.5298 O   0  0  0  0  0  0  0  0  0  0  0  0
  -42.4031   60.3750   68.3299 H   0  0  0  0  0  0  0  0  0  0  0  0
  -48.1527   58.5566   64.5229 C   0  0  0  0  0  0  0  0  0  0  0  0
  -49.5588   59.1034   64.4626 C   0  0  0  0  0  0  0  0  0  0  0  0
  -50.3257   59.0041   63.2107 C   0  0  0  0  0  0  0  0  0  0  0  0
  -49.6196   58.5592   61.9546 C   0  0  0  0  0  0  0  0  0  0  0  0
  -50.6074   57.9449   60.9686 C   0  0  0  0  0  0  0  0  0  0  0  0
  -50.0272   57.9662   59.5547 C   0  0  0  0  0  0  0  0  0  0  0  0
  -48.5178   57.7291   59.5589 C   0  0  0  0  0  0  0  0  0  0  0  0
  -47.9327   57.7524   58.1445 C   0  0  0  0  0  0  0  0  0  0  0  0
  -46.5835   58.4626   58.0712 C   0  0  0  0  0  0  0  0  0  0  0  0
  7  8  2  0  0  0
  7  6  1  0  0  0
  7  9  1  0  0  0
  6  5  1  0  0  0
  9 10  1  0  0  0
  5  4  1  0  0  0
  4  3  1  0  0  0
  3  2  1  0  0  0
  2  1  1  0  0  0
  1 11  1  0  0  0
 11 12  1  0  0  0
 12 13  2  0  0  0
 13 14  1  0  0  0
 14 15  1  0  0  0
 15 16  1  0  0  0
 16 17  1  0  0  0
 17 18  1  0  0  0
 18 19  1  0  0  0
M  END
> <minimizedAffinity>
-6.86571

> <CNNscore>
0.7568258047

> <CNNaffinity>
6.4458074570

> <CNN_VS>
4.8783535957

> <CNNaffinity_variance>
0.4287267327

$$$$
/media/chris/experiments/cd1a-new-docking/inputs/ligands/4x6d_2_ligand.pdb


 19 18  0  0  0  0  0  0  0  0999 V2000
  -48.9442   60.1367   65.8117 C   0  0  0  0  0  0  0  0  0  0  0  0
  -47.6580   59.3228   65.7808 C   0  0  0  0  0  0  0  0  0  0  0  0
  -47.8748   57.9115   65.2617 C   0  0  0  0  0  0  0  0  0  0  0  0
  -46.9552   56.9403   65.9835 C   0  0  0  0  0  0  0  0  0  0  0  0
  -45.6094   57.6069   66.2048 C   0  0  0  0  0  0  0  0  0  0  0  0
  -44.6598   57.3584   65.0438 C   0  0  0  0  0  0  0  0  0  0  0  0
  -43.4074   58.1745   65.2459 C   0  0  0  0  0  0  0  0  0  0  0  0
  -43.2676   59.2615   64.6520 O   0  0  0  0  0  0  0  0  0  0  0  0
  -42.4928   57.7805   66.0003 O   0  0  0  0  0  0  0  0  0  0  0  0
  -42.5792   56.9660   66.4556 H   0  0  0  0  0  0  0  0  0  0  0  0
  -50.0159   59.3110   65.1150 C   0  0  0  0  0  0  0  0  0  0  0  0
  -50.8928   60.1645   64.2305 C   0  0  0  0  0  0  0  0  0  0  0  0
  -51.0231   59.8382   62.8016 C   0  0  0  0  0  0  0  0  0  0  0  0
  -50.1113   58.7962   62.2040 C   0  0  0  0  0  0  0  0  0  0  0  0
  -50.9098   57.7804   61.3942 C   0  0  0  0  0  0  0  0  0  0  0  0
  -50.4350   57.7701   59.9413 C   0  0  0  0  0  0  0  0  0  0  0  0
  -49.0763   58.4513   59.7853 C   0  0  0  0  0  0  0  0  0  0  0  0
  -48.1177   57.6223   58.9264 C   0  0  0  0  0  0  0  0  0  0  0  0
  -47.0409   58.4685   58.2523 C   0  0  0  0  0  0  0  0  0  0  0  0
  7  8  2  0  0  0
  7  6  1  0  0  0
  7  9  1  0  0  0
  6  5  1  0  0  0
  9 10  1  0  0  0
  5  4  1  0  0  0
  4  3  1  0  0  0
  3  2  1  0  0  0
  2  1  1  0  0  0
  1 11  1  0  0  0
 11 12  1  0  0  0
 12 13  2  0  0  0
 13 14  1  0  0  0
 14 15  1  0  0  0
 15 16  1  0  0  0
 16 17  1  0  0  0
 17 18  1  0  0  0
 18 19  1  0  0  0
M  END
> <minimizedAffinity>
-7.02284

> <CNNscore>
0.7512450814

> <CNNaffinity>
6.4699797630

> <CNN_VS>
4.8605403900

> <CNNaffinity_variance>
0.4747540355

$$$$
/media/chris/experiments/cd1a-new-docking/inputs/ligands/4x6d_2_ligand.pdb


 19 18  0  0  0  0  0  0  0  0999 V2000
  -46.3940   58.4497   65.1203 C   0  0  0  0  0  0  0  0  0  0  0  0
  -45.3731   57.5317   65.7784 C   0  0  0  0  0  0  0  0  0  0  0  0
  -44.0807   57.4355   64.9855 C   0  0  0  0  0  0  0  0  0  0  0  0
  -42.9504   58.1152   65.7407 C   0  0  0  0  0  0  0  0  0  0  0  0
  -42.6824   59.4709   65.1123 C   0  0  0  0  0  0  0  0  0  0  0  0
  -42.1255   60.4605   66.1233 C   0  0  0  0  0  0  0  0  0  0  0  0
  -41.3754   61.5456   65.3917 C   0  0  0  0  0  0  0  0  0  0  0  0
  -41.6174   61.7707   64.1898 O   0  0  0  0  0  0  0  0  0  0  0  0
  -40.5030   62.2302   65.9670 O   0  0  0  0  0  0  0  0  0  0  0  0
  -40.3067   62.0761   66.8703 H   0  0  0  0  0  0  0  0  0  0  0  0
  -46.5490   59.6677   66.0192 C   0  0  0  0  0  0  0  0  0  0  0  0
  -46.9990   60.8821   65.2429 C   0  0  0  0  0  0  0  0  0  0  0  0
  -48.4153   61.2805   65.2708 C   0  0  0  0  0  0  0  0  0  0  0  0
  -49.4246   60.3477   65.8915 C   0  0  0  0  0  0  0  0  0  0  0  0
  -50.5781   60.0830   64.9300 C   0  0  0  0  0  0  0  0  0  0  0  0
  -50.1164   59.1838   63.7834 C   0  0  0  0  0  0  0  0  0  0  0  0
  -50.4555   59.7857   62.4206 C   0  0  0  0  0  0  0  0  0  0  0  0
  -49.9958   58.8871   61.2696 C   0  0  0  0  0  0  0  0  0  0  0  0
  -50.9073   57.6814   61.0566 C   0  0  0  0  0  0  0  0  0  0  0  0
  7  8  2  0  0  0
  7  6  1  0  0  0
  7  9  1  0  0  0
  6  5  1  0  0  0
  9 10  1  0  0  0
  5  4  1  0  0  0
  4  3  1  0  0  0
  3  2  1  0  0  0
  2  1  1  0  0  0
  1 11  1  0  0  0
 11 12  1  0  0  0
 12 13  2  0  0  0
 13 14  1  0  0  0
 14 15  1  0  0  0
 15 16  1  0  0  0
 16 17  1  0  0  0
 17 18  1  0  0  0
 18 19  1  0  0  0
M  END
> <minimizedAffinity>
-6.72951

> <CNNscore>
0.7249459028

> <CNNaffinity>
6.0723752975

> <CNN_VS>
4.4021434784

> <CNNaffinity_variance>
0.2762878835

$$$$
/media/chris/experiments/cd1a-new-docking/inputs/ligands/4x6d_2_ligand.pdb


 19 18  0  0  0  0  0  0  0  0999 V2000
  -46.8945   59.7915   66.5248 C   0  0  0  0  0  0  0  0  0  0  0  0
  -46.3070   60.6068   65.3812 C   0  0  0  0  0  0  0  0  0  0  0  0
  -44.8061   60.4169   65.2423 C   0  0  0  0  0  0  0  0  0  0  0  0
  -44.2585   59.6688   66.4467 C   0  0  0  0  0  0  0  0  0  0  0  0
  -42.9927   60.3588   66.9224 C   0  0  0  0  0  0  0  0  0  0  0  0
  -41.8051   59.4096   66.9373 C   0  0  0  0  0  0  0  0  0  0  0  0
  -41.0242   59.5746   65.6573 C   0  0  0  0  0  0  0  0  0  0  0  0
  -41.2113   60.5737   64.9359 O   0  0  0  0  0  0  0  0  0  0  0  0
  -40.1868   58.7209   65.2954 O   0  0  0  0  0  0  0  0  0  0  0  0
  -40.0319   57.9629   65.8242 H   0  0  0  0  0  0  0  0  0  0  0  0
  -48.3235   59.4390   66.1382 C   0  0  0  0  0  0  0  0  0  0  0  0
  -48.3736   58.2581   65.1987 C   0  0  0  0  0  0  0  0  0  0  0  0
  -48.9872   58.4101   63.8699 C   0  0  0  0  0  0  0  0  0  0  0  0
  -49.7475   59.6743   63.5566 C   0  0  0  0  0  0  0  0  0  0  0  0
  -50.8562   59.4012   62.5460 C   0  0  0  0  0  0  0  0  0  0  0  0
  -50.5180   58.1679   61.7087 C   0  0  0  0  0  0  0  0  0  0  0  0
  -49.9438   58.5498   60.3453 C   0  0  0  0  0  0  0  0  0  0  0  0
  -48.5486   57.9586   60.1279 C   0  0  0  0  0  0  0  0  0  0  0  0
  -48.0873   58.0427   58.6753 C   0  0  0  0  0  0  0  0  0  0  0  0
  7  8  2  0  0  0
  7  6  1  0  0  0
  7  9  1  0  0  0
  6  5  1  0  0  0
  9 10  1  0  0  0
  5  4  1  0  0  0
  4  3  1  0  0  0
  3  2  1  0  0  0
  2  1  1  0  0  0
  1 11  1  0  0  0
 11 12  1  0  0  0
 12 13  2  0  0  0
 13 14  1  0  0  0
 14 15  1  0  0  0
 15 16  1  0  0  0
 16 17  1  0  0  0
 17 18  1  0  0  0
 18 19  1  0  0  0
M  END
> <minimizedAffinity>
-6.67051

> <CNNscore>
0.6792721748

> <CNNaffinity>
6.1796236038

> <CNN_VS>
4.1976461411

> <CNNaffinity_variance>
0.4510312080

$$$$
/media/chris/experiments/cd1a-new-docking/inputs/ligands/4x6d_2_ligand.pdb


 19 18  0  0  0  0  0  0  0  0999 V2000
  -40.9207   59.6158   66.0679 C   0  0  0  0  0  0  0  0  0  0  0  0
  -40.5791   58.6759   64.9201 C   0  0  0  0  0  0  0  0  0  0  0  0
  -39.0832   58.5769   64.6746 C   0  0  0  0  0  0  0  0  0  0  0  0
  -38.7957   58.5753   63.1821 C   0  0  0  0  0  0  0  0  0  0  0  0
  -37.6220   57.6528   62.9068 C   0  0  0  0  0  0  0  0  0  0  0  0
  -37.3160   57.5584   61.4204 C   0  0  0  0  0  0  0  0  0  0  0  0
  -35.8206   57.5491   61.2230 C   0  0  0  0  0  0  0  0  0  0  0  0
  -35.1065   58.3776   61.8208 O   0  0  0  0  0  0  0  0  0  0  0  0
  -35.2734   56.7234   60.4616 O   0  0  0  0  0  0  0  0  0  0  0  0
  -35.7931   56.0925   60.0034 H   0  0  0  0  0  0  0  0  0  0  0  0
  -42.3828   59.3831   66.4201 C   0  0  0  0  0  0  0  0  0  0  0  0
  -43.0646   58.4873   65.4139 C   0  0  0  0  0  0  0  0  0  0  0  0
  -44.3750   58.8723   64.8663 C   0  0  0  0  0  0  0  0  0  0  0  0
  -45.1101   60.0369   65.4808 C   0  0  0  0  0  0  0  0  0  0  0  0
  -46.5525   59.6581   65.7985 C   0  0  0  0  0  0  0  0  0  0  0  0
  -47.0227   58.5378   64.8710 C   0  0  0  0  0  0  0  0  0  0  0  0
  -48.3772   57.9775   65.3021 C   0  0  0  0  0  0  0  0  0  0  0  0
  -49.5398   58.7332   64.6534 C   0  0  0  0  0  0  0  0  0  0  0  0
  -50.2954   59.6206   65.6390 C   0  0  0  0  0  0  0  0  0  0  0  0
  7  8  2  0  0  0
  7  6  1  0  0  0
  7  9  1  0  0  0
  6  5  1  0  0  0
  9 10  1  0  0  0
  5  4  1  0  0  0
  4  3  1  0  0  0
  3  2  1  0  0  0
  2  1  1  0  0  0
  1 11  1  0  0  0
 11 12  1  0  0  0
 12 13  2  0  0  0
 13 14  1  0  0  0
 14 15  1  0  0  0
 15 16  1  0  0  0
 16 17  1  0  0  0
 17 18  1  0  0  0
 18 19  1  0  0  0
M  END
> <minimizedAffinity>
-6.17081

> <CNNscore>
0.6762469411

> <CNNaffinity>
6.0183615685

> <CNN_VS>
4.0698986053

> <CNNaffinity_variance>
0.3689211309

$$$$
/media/chris/experiments/cd1a-new-docking/inputs/ligands/4x6d_2_ligand.pdb


 19 18  0  0  0  0  0  0  0  0999 V2000
  -45.4861   57.3363   65.5417 C   0  0  0  0  0  0  0  0  0  0  0  0
  -44.4485   58.1575   64.7888 C   0  0  0  0  0  0  0  0  0  0  0  0
  -43.1771   58.3674   65.5935 C   0  0  0  0  0  0  0  0  0  0  0  0
  -43.3021   59.6124   66.4562 C   0  0  0  0  0  0  0  0  0  0  0  0
  -41.9126   60.0862   66.8429 C   0  0  0  0  0  0  0  0  0  0  0  0
  -40.9650   60.0829   65.6539 C   0  0  0  0  0  0  0  0  0  0  0  0
  -40.1105   61.3251   65.6992 C   0  0  0  0  0  0  0  0  0  0  0  0
  -38.8964   61.2584   65.4248 O   0  0  0  0  0  0  0  0  0  0  0  0
  -40.5950   62.4329   66.0136 O   0  0  0  0  0  0  0  0  0  0  0  0
  -41.5056   62.5036   66.2232 H   0  0  0  0  0  0  0  0  0  0  0  0
  -46.7897   58.1208   65.5105 C   0  0  0  0  0  0  0  0  0  0  0  0
  -46.8219   59.1942   66.5718 C   0  0  0  0  0  0  0  0  0  0  0  0
  -47.4570   60.4890   66.2791 C   0  0  0  0  0  0  0  0  0  0  0  0
  -47.8663   60.7979   64.8609 C   0  0  0  0  0  0  0  0  0  0  0  0
  -49.3423   61.1754   64.7950 C   0  0  0  0  0  0  0  0  0  0  0  0
  -50.2006   59.9258   64.5997 C   0  0  0  0  0  0  0  0  0  0  0  0
  -51.1102   60.0496   63.3783 C   0  0  0  0  0  0  0  0  0  0  0  0
  -50.6806   59.1090   62.2494 C   0  0  0  0  0  0  0  0  0  0  0  0
  -49.5038   58.2166   62.6350 C   0  0  0  0  0  0  0  0  0  0  0  0
  7  8  2  0  0  0
  7  6  1  0  0  0
  7  9  1  0  0  0
  6  5  1  0  0  0
  9 10  1  0  0  0
  5  4  1  0  0  0
  4  3  1  0  0  0
  3  2  1  0  0  0
  2  1  1  0  0  0
  1 11  1  0  0  0
 11 12  1  0  0  0
 12 13  2  0  0  0
 13 14  1  0  0  0
 14 15  1  0  0  0
 15 16  1  0  0  0
 16 17  1  0  0  0
 17 18  1  0  0  0
 18 19  1  0  0  0
M  END
> <minimizedAffinity>
-6.57258

> <CNNscore>
0.6440078020

> <CNNaffinity>
6.0607581139

> <CNN_VS>
3.9031755924

> <CNNaffinity_variance>
0.1510299295

$$$$
/media/chris/experiments/cd1a-new-docking/inputs/ligands/4x6d_2_ligand.pdb


 19 18  0  0  0  0  0  0  0  0999 V2000
  -48.7807   58.9307   65.5609 C   0  0  0  0  0  0  0  0  0  0  0  0
  -49.6581   58.2837   64.4982 C   0  0  0  0  0  0  0  0  0  0  0  0
  -49.2205   58.6384   63.0873 C   0  0  0  0  0  0  0  0  0  0  0  0
  -50.4341   58.7970   62.1861 C   0  0  0  0  0  0  0  0  0  0  0  0
  -50.0331   58.4760   60.7576 C   0  0  0  0  0  0  0  0  0  0  0  0
  -49.7045   57.0019   60.5822 C   0  0  0  0  0  0  0  0  0  0  0  0
  -48.7858   56.8377   59.3971 C   0  0  0  0  0  0  0  0  0  0  0  0
  -48.2571   55.7330   59.1651 O   0  0  0  0  0  0  0  0  0  0  0  0
  -48.5350   57.7954   58.6350 O   0  0  0  0  0  0  0  0  0  0  0  0
  -48.9228   58.6337   58.7927 H   0  0  0  0  0  0  0  0  0  0  0  0
  -47.4441   58.2035   65.5444 C   0  0  0  0  0  0  0  0  0  0  0  0
  -46.6552   58.4546   66.8071 C   0  0  0  0  0  0  0  0  0  0  0  0
  -45.6521   59.5308   66.8373 C   0  0  0  0  0  0  0  0  0  0  0  0
  -45.2762   60.2156   65.5472 C   0  0  0  0  0  0  0  0  0  0  0  0
  -43.7659   60.1846   65.3397 C   0  0  0  0  0  0  0  0  0  0  0  0
  -43.0447   60.2404   66.6862 C   0  0  0  0  0  0  0  0  0  0  0  0
  -41.8834   59.2494   66.7475 C   0  0  0  0  0  0  0  0  0  0  0  0
  -41.6582   58.5508   65.4040 C   0  0  0  0  0  0  0  0  0  0  0  0
  -40.2373   58.7255   64.8742 C   0  0  0  0  0  0  0  0  0  0  0  0
  7  8  2  0  0  0
  7  6  1  0  0  0
  7  9  1  0  0  0
  6  5  1  0  0  0
  9 10  1  0  0  0
  5  4  1  0  0  0
  4  3  1  0  0  0
  3  2  1  0  0  0
  2  1  1  0  0  0
  1 11  1  0  0  0
 11 12  1  0  0  0
 12 13  2  0  0  0
 13 14  1  0  0  0
 14 15  1  0  0  0
 15 16  1  0  0  0
 16 17  1  0  0  0
 17 18  1  0  0  0
 18 19  1  0  0  0
M  END
> <minimizedAffinity>
-6.65102

> <CNNscore>
0.6246179342

> <CNNaffinity>
6.1046438217

> <CNN_VS>
3.8130700588

> <CNNaffinity_variance>
0.3746808767

$$$$
