/media/chris/experiments/cd1a-new-docking/inputs/ligands/4x6d_2_ligand.pdb


 19 18  0  0  0  0  0  0  0  0999 V2000
  -45.7314   59.9016   65.8129 C   0  0  0  0  0  0  0  0  0  0  0  0
  -45.0711   58.7064   65.1396 C   0  0  0  0  0  0  0  0  0  0  0  0
  -43.5725   58.8889   64.9697 C   0  0  0  0  0  0  0  0  0  0  0  0
  -42.8290   58.2052   66.1053 C   0  0  0  0  0  0  0  0  0  0  0  0
  -41.7233   59.1231   66.5943 C   0  0  0  0  0  0  0  0  0  0  0  0
  -41.9738   60.5689   66.1957 C   0  0  0  0  0  0  0  0  0  0  0  0
  -40.6624   61.2123   65.8190 C   0  0  0  0  0  0  0  0  0  0  0  0
  -39.7405   60.5199   65.3454 O   0  0  0  0  0  0  0  0  0  0  0  0
  -40.4737   62.4373   65.9764 O   0  0  0  0  0  0  0  0  0  0  0  0
  -41.1545   62.9745   66.3310 H   0  0  0  0  0  0  0  0  0  0  0  0
  -47.1176   60.0521   65.2033 C   0  0  0  0  0  0  0  0  0  0  0  0
  -48.1044   59.0850   65.8122 C   0  0  0  0  0  0  0  0  0  0  0  0
  -48.9215   58.2304   64.9362 C   0  0  0  0  0  0  0  0  0  0  0  0
  -48.9172   58.4906   63.4508 C   0  0  0  0  0  0  0  0  0  0  0  0
  -50.3231   58.8093   62.9544 C   0  0  0  0  0  0  0  0  0  0  0  0
  -50.5722   58.1405   61.6027 C   0  0  0  0  0  0  0  0  0  0  0  0
  -49.8467   58.8658   60.4703 C   0  0  0  0  0  0  0  0  0  0  0  0
  -49.2885   57.8889   59.4323 C   0  0  0  0  0  0  0  0  0  0  0  0
  -47.7790   57.6954   59.5497 C   0  0  0  0  0  0  0  0  0  0  0  0
  7  8  2  0  0  0
  7  6  1  0  0  0
  7  9  1  0  0  0
  6  5  1  0  0  0
  9 10  1  0  0  0
  5  4  1  0  0  0
  4  3  1  0  0  0
  3  2  1  0  0  0
  2  1  1  0  0  0
  1 11  1  0  0  0
 11 12  1  0  0  0
 12 13  2  0  0  0
 13 14  1  0  0  0
 14 15  1  0  0  0
 15 16  1  0  0  0
 16 17  1  0  0  0
 17 18  1  0  0  0
 18 19  1  0  0  0
M  END
> <minimizedAffinity>
-6.67616

> <CNNscore>
0.8617032766

> <CNNaffinity>
6.5242528915

> <CNN_VS>
5.6219701767

> <CNNaffinity_variance>
0.4913847446

$$$$
/media/chris/experiments/cd1a-new-docking/inputs/ligands/4x6d_2_ligand.pdb


 19 18  0  0  0  0  0  0  0  0999 V2000
  -45.8193   58.0083   65.4930 C   0  0  0  0  0  0  0  0  0  0  0  0
  -44.6481   57.8808   64.5287 C   0  0  0  0  0  0  0  0  0  0  0  0
  -43.5097   58.8281   64.8673 C   0  0  0  0  0  0  0  0  0  0  0  0
  -42.7358   58.3097   66.0682 C   0  0  0  0  0  0  0  0  0  0  0  0
  -41.6345   59.2972   66.4091 C   0  0  0  0  0  0  0  0  0  0  0  0
  -42.1595   60.7221   66.4868 C   0  0  0  0  0  0  0  0  0  0  0  0
  -41.3343   61.6031   65.5821 C   0  0  0  0  0  0  0  0  0  0  0  0
  -41.6810   61.7814   64.3982 O   0  0  0  0  0  0  0  0  0  0  0  0
  -40.2958   62.1620   65.9945 O   0  0  0  0  0  0  0  0  0  0  0  0
  -40.0187   62.0402   66.8812 H   0  0  0  0  0  0  0  0  0  0  0  0
  -46.6110   59.2401   65.0787 C   0  0  0  0  0  0  0  0  0  0  0  0
  -47.3319   59.8619   66.2507 C   0  0  0  0  0  0  0  0  0  0  0  0
  -48.6274   60.5268   66.0393 C   0  0  0  0  0  0  0  0  0  0  0  0
  -49.1040   60.7667   64.6287 C   0  0  0  0  0  0  0  0  0  0  0  0
  -50.5864   60.4356   64.4960 C   0  0  0  0  0  0  0  0  0  0  0  0
  -50.8490   59.6967   63.1839 C   0  0  0  0  0  0  0  0  0  0  0  0
  -49.7789   58.6425   62.9042 C   0  0  0  0  0  0  0  0  0  0  0  0
  -49.7220   58.2668   61.4213 C   0  0  0  0  0  0  0  0  0  0  0  0
  -50.9969   57.5851   60.9315 C   0  0  0  0  0  0  0  0  0  0  0  0
  7  8  2  0  0  0
  7  6  1  0  0  0
  7  9  1  0  0  0
  6  5  1  0  0  0
  9 10  1  0  0  0
  5  4  1  0  0  0
  4  3  1  0  0  0
  3  2  1  0  0  0
  2  1  1  0  0  0
  1 11  1  0  0  0
 11 12  1  0  0  0
 12 13  2  0  0  0
 13 14  1  0  0  0
 14 15  1  0  0  0
 15 16  1  0  0  0
 16 17  1  0  0  0
 17 18  1  0  0  0
 18 19  1  0  0  0
M  END
> <minimizedAffinity>
-6.73306

> <CNNscore>
0.8288049698

> <CNNaffinity>
6.2590069771

> <CNN_VS>
5.1874961853

> <CNNaffinity_variance>
0.3443784416

$$$$
/media/chris/experiments/cd1a-new-docking/inputs/ligands/4x6d_2_ligand.pdb


 19 18  0  0  0  0  0  0  0  0999 V2000
  -45.2806   59.3633   65.2575 C   0  0  0  0  0  0  0  0  0  0  0  0
  -44.9133   59.6791   66.7008 C   0  0  0  0  0  0  0  0  0  0  0  0
  -43.4722   60.1370   66.8476 C   0  0  0  0  0  0  0  0  0  0  0  0
  -42.5879   59.4148   65.8446 C   0  0  0  0  0  0  0  0  0  0  0  0
  -41.1526   59.4489   66.3379 C   0  0  0  0  0  0  0  0  0  0  0  0
  -40.2045   59.9838   65.2763 C   0  0  0  0  0  0  0  0  0  0  0  0
  -39.7759   61.3799   65.6543 C   0  0  0  0  0  0  0  0  0  0  0  0
  -38.5647   61.6699   65.7017 O   0  0  0  0  0  0  0  0  0  0  0  0
  -40.6161   62.2628   65.9289 O   0  0  0  0  0  0  0  0  0  0  0  0
  -41.5314   62.0642   65.8990 H   0  0  0  0  0  0  0  0  0  0  0  0
  -46.7992   59.3935   65.1628 C   0  0  0  0  0  0  0  0  0  0  0  0
  -47.3328   60.8058   65.1829 C   0  0  0  0  0  0  0  0  0  0  0  0
  -48.7851   61.0347   65.2427 C   0  0  0  0  0  0  0  0  0  0  0  0
  -49.7176   59.8633   65.0614 C   0  0  0  0  0  0  0  0  0  0  0  0
  -50.8943   60.2429   64.1692 C   0  0  0  0  0  0  0  0  0  0  0  0
  -50.5098   60.1022   62.6965 C   0  0  0  0  0  0  0  0  0  0  0  0
  -50.6596   58.6623   62.2077 C   0  0  0  0  0  0  0  0  0  0  0  0
  -49.5179   58.2555   61.2726 C   0  0  0  0  0  0  0  0  0  0  0  0
  -49.9355   58.2209   59.8048 C   0  0  0  0  0  0  0  0  0  0  0  0
  7  8  2  0  0  0
  7  6  1  0  0  0
  7  9  1  0  0  0
  6  5  1  0  0  0
  9 10  1  0  0  0
  5  4  1  0  0  0
  4  3  1  0  0  0
  3  2  1  0  0  0
  2  1  1  0  0  0
  1 11  1  0  0  0
 11 12  1  0  0  0
 12 13  2  0  0  0
 13 14  1  0  0  0
 14 15  1  0  0  0
 15 16  1  0  0  0
 16 17  1  0  0  0
 17 18  1  0  0  0
 18 19  1  0  0  0
M  END
> <minimizedAffinity>
-6.61390

> <CNNscore>
0.7814657688

> <CNNaffinity>
6.1456727982

> <CNN_VS>
4.8026328087

> <CNNaffinity_variance>
0.4601680636

$$$$
/media/chris/experiments/cd1a-new-docking/inputs/ligands/4x6d_2_ligand.pdb


 19 18  0  0  0  0  0  0  0  0999 V2000
  -42.8148   60.3408   66.0718 C   0  0  0  0  0  0  0  0  0  0  0  0
  -41.9542   59.1216   66.3732 C   0  0  0  0  0  0  0  0  0  0  0  0
  -40.6277   59.1484   65.6330 C   0  0  0  0  0  0  0  0  0  0  0  0
  -40.4897   60.4443   64.8511 C   0  0  0  0  0  0  0  0  0  0  0  0
  -39.5431   61.3700   65.5937 C   0  0  0  0  0  0  0  0  0  0  0  0
  -38.1097   60.8650   65.5478 C   0  0  0  0  0  0  0  0  0  0  0  0
  -37.2150   61.9629   65.0284 C   0  0  0  0  0  0  0  0  0  0  0  0
  -36.6337   61.8293   63.9340 O   0  0  0  0  0  0  0  0  0  0  0  0
  -37.0365   63.0145   65.6789 O   0  0  0  0  0  0  0  0  0  0  0  0
  -37.4647   63.1335   66.5038 H   0  0  0  0  0  0  0  0  0  0  0  0
  -44.1432   59.8313   65.5317 C   0  0  0  0  0  0  0  0  0  0  0  0
  -43.9815   58.5269   64.7887 C   0  0  0  0  0  0  0  0  0  0  0  0
  -44.8862   57.4043   65.0828 C   0  0  0  0  0  0  0  0  0  0  0  0
  -45.8116   57.5031   66.2695 C   0  0  0  0  0  0  0  0  0  0  0  0
  -47.2682   57.4217   65.8265 C   0  0  0  0  0  0  0  0  0  0  0  0
  -47.5632   58.4916   64.7755 C   0  0  0  0  0  0  0  0  0  0  0  0
  -49.0017   58.4045   64.2677 C   0  0  0  0  0  0  0  0  0  0  0  0
  -50.0178   58.5904   65.3976 C   0  0  0  0  0  0  0  0  0  0  0  0
  -50.2826   60.0580   65.7232 C   0  0  0  0  0  0  0  0  0  0  0  0
  7  8  2  0  0  0
  7  6  1  0  0  0
  7  9  1  0  0  0
  6  5  1  0  0  0
  9 10  1  0  0  0
  5  4  1  0  0  0
  4  3  1  0  0  0
  3  2  1  0  0  0
  2  1  1  0  0  0
  1 11  1  0  0  0
 11 12  1  0  0  0
 12 13  2  0  0  0
 13 14  1  0  0  0
 14 15  1  0  0  0
 15 16  1  0  0  0
 16 17  1  0  0  0
 17 18  1  0  0  0
 18 19  1  0  0  0
M  END
> <minimizedAffinity>
-6.15638

> <CNNscore>
0.7529016733

> <CNNaffinity>
6.0875616074

> <CNN_VS>
4.5833353996

> <CNNaffinity_variance>
0.1419113576

$$$$
/media/chris/experiments/cd1a-new-docking/inputs/ligands/4x6d_2_ligand.pdb


 19 18  0  0  0  0  0  0  0  0999 V2000
  -44.8079   57.8518   65.1388 C   0  0  0  0  0  0  0  0  0  0  0  0
  -43.2878   57.7790   65.1815 C   0  0  0  0  0  0  0  0  0  0  0  0
  -42.7245   58.1670   66.5381 C   0  0  0  0  0  0  0  0  0  0  0  0
  -41.5192   59.0762   66.3647 C   0  0  0  0  0  0  0  0  0  0  0  0
  -41.6516   59.8259   65.0514 C   0  0  0  0  0  0  0  0  0  0  0  0
  -40.3059   60.3247   64.5492 C   0  0  0  0  0  0  0  0  0  0  0  0
  -39.7426   61.3115   65.5415 C   0  0  0  0  0  0  0  0  0  0  0  0
  -38.5883   61.1598   65.9864 O   0  0  0  0  0  0  0  0  0  0  0  0
  -40.4153   62.2873   65.9369 O   0  0  0  0  0  0  0  0  0  0  0  0
  -41.2851   62.4184   65.6140 H   0  0  0  0  0  0  0  0  0  0  0  0
  -45.2326   58.9545   66.0977 C   0  0  0  0  0  0  0  0  0  0  0  0
  -45.6571   60.2027   65.3618 C   0  0  0  0  0  0  0  0  0  0  0  0
  -46.9888   60.7772   65.6102 C   0  0  0  0  0  0  0  0  0  0  0  0
  -47.9837   59.9899   66.4256 C   0  0  0  0  0  0  0  0  0  0  0  0
  -48.9707   59.2634   65.5185 C   0  0  0  0  0  0  0  0  0  0  0  0
  -50.3730   59.8485   65.6848 C   0  0  0  0  0  0  0  0  0  0  0  0
  -50.9765   60.2614   64.3432 C   0  0  0  0  0  0  0  0  0  0  0  0
  -50.0300   59.9664   63.1768 C   0  0  0  0  0  0  0  0  0  0  0  0
  -50.6171   58.9812   62.1695 C   0  0  0  0  0  0  0  0  0  0  0  0
  7  8  2  0  0  0
  7  6  1  0  0  0
  7  9  1  0  0  0
  6  5  1  0  0  0
  9 10  1  0  0  0
  5  4  1  0  0  0
  4  3  1  0  0  0
  3  2  1  0  0  0
  2  1  1  0  0  0
  1 11  1  0  0  0
 11 12  1  0  0  0
 12 13  2  0  0  0
 13 14  1  0  0  0
 14 15  1  0  0  0
 15 16  1  0  0  0
 16 17  1  0  0  0
 17 18  1  0  0  0
 18 19  1  0  0  0
M  END
> <minimizedAffinity>
-6.54158

> <CNNscore>
0.6783648133

> <CNNaffinity>
6.0404405594

> <CNN_VS>
4.0976223946

> <CNNaffinity_variance>
0.2447437048

$$$$
/media/chris/experiments/cd1a-new-docking/inputs/ligands/4x6d_2_ligand.pdb


 19 18  0  0  0  0  0  0  0  0999 V2000
  -41.7084   58.5626   65.4777 C   0  0  0  0  0  0  0  0  0  0  0  0
  -40.4752   59.4534   65.4171 C   0  0  0  0  0  0  0  0  0  0  0  0
  -39.7633   59.3712   64.0775 C   0  0  0  0  0  0  0  0  0  0  0  0
  -38.9957   58.0638   63.9711 C   0  0  0  0  0  0  0  0  0  0  0  0
  -37.7019   58.3113   63.2167 C   0  0  0  0  0  0  0  0  0  0  0  0
  -37.8454   58.0011   61.7351 C   0  0  0  0  0  0  0  0  0  0  0  0
  -37.7201   59.2816   60.9474 C   0  0  0  0  0  0  0  0  0  0  0  0
  -37.4388   60.3475   61.5290 O   0  0  0  0  0  0  0  0  0  0  0  0
  -37.8982   59.3009   59.7110 O   0  0  0  0  0  0  0  0  0  0  0  0
  -38.1106   58.5099   59.2558 H   0  0  0  0  0  0  0  0  0  0  0  0
  -42.6947   59.2241   66.4293 C   0  0  0  0  0  0  0  0  0  0  0  0
  -43.8367   59.8757   65.6870 C   0  0  0  0  0  0  0  0  0  0  0  0
  -45.0622   59.1073   65.4165 C   0  0  0  0  0  0  0  0  0  0  0  0
  -45.0699   57.6242   65.6896 C   0  0  0  0  0  0  0  0  0  0  0  0
  -46.4833   57.1380   65.9905 C   0  0  0  0  0  0  0  0  0  0  0  0
  -47.4792   58.2902   65.8597 C   0  0  0  0  0  0  0  0  0  0  0  0
  -48.7042   57.8889   65.0393 C   0  0  0  0  0  0  0  0  0  0  0  0
  -48.7629   58.6306   63.7015 C   0  0  0  0  0  0  0  0  0  0  0  0
  -50.1571   58.6263   63.0802 C   0  0  0  0  0  0  0  0  0  0  0  0
  7  8  2  0  0  0
  7  6  1  0  0  0
  7  9  1  0  0  0
  6  5  1  0  0  0
  9 10  1  0  0  0
  5  4  1  0  0  0
  4  3  1  0  0  0
  3  2  1  0  0  0
  2  1  1  0  0  0
  1 11  1  0  0  0
 11 12  1  0  0  0
 12 13  2  0  0  0
 13 14  1  0  0  0
 14 15  1  0  0  0
 15 16  1  0  0  0
 16 17  1  0  0  0
 17 18  1  0  0  0
 18 19  1  0  0  0
M  END
> <minimizedAffinity>
-6.36356

> <CNNscore>
0.6738377213

> <CNNaffinity>
6.1411142349

> <CNN_VS>
4.1381144524

> <CNNaffinity_variance>
0.4728537500

$$$$
/media/chris/experiments/cd1a-new-docking/inputs/ligands/4x6d_2_ligand.pdb


 19 18  0  0  0  0  0  0  0  0999 V2000
  -46.2209   58.2839   64.8318 C   0  0  0  0  0  0  0  0  0  0  0  0
  -45.9715   58.2961   66.3337 C   0  0  0  0  0  0  0  0  0  0  0  0
  -45.4026   59.6189   66.8183 C   0  0  0  0  0  0  0  0  0  0  0  0
  -44.3009   60.0897   65.8833 C   0  0  0  0  0  0  0  0  0  0  0  0
  -42.9567   59.6880   66.4630 C   0  0  0  0  0  0  0  0  0  0  0  0
  -42.2250   60.8769   67.0657 C   0  0  0  0  0  0  0  0  0  0  0  0
  -41.1091   61.2921   66.1396 C   0  0  0  0  0  0  0  0  0  0  0  0
  -40.1445   60.5278   65.9421 O   0  0  0  0  0  0  0  0  0  0  0  0
  -41.1259   62.3997   65.5616 O   0  0  0  0  0  0  0  0  0  0  0  0
  -41.8424   62.9881   65.6974 H   0  0  0  0  0  0  0  0  0  0  0  0
  -47.5807   58.9251   64.5963 C   0  0  0  0  0  0  0  0  0  0  0  0
  -48.6772   58.1996   65.3387 C   0  0  0  0  0  0  0  0  0  0  0  0
  -50.0371   58.7613   65.3601 C   0  0  0  0  0  0  0  0  0  0  0  0
  -50.2604   60.1551   64.8292 C   0  0  0  0  0  0  0  0  0  0  0  0
  -51.1774   60.1285   63.6114 C   0  0  0  0  0  0  0  0  0  0  0  0
  -50.3744   59.8112   62.3501 C   0  0  0  0  0  0  0  0  0  0  0  0
  -50.7424   58.4447   61.7739 C   0  0  0  0  0  0  0  0  0  0  0  0
  -49.5021   57.6409   61.3751 C   0  0  0  0  0  0  0  0  0  0  0  0
  -48.8770   58.1219   60.0683 C   0  0  0  0  0  0  0  0  0  0  0  0
  7  8  2  0  0  0
  7  6  1  0  0  0
  7  9  1  0  0  0
  6  5  1  0  0  0
  9 10  1  0  0  0
  5  4  1  0  0  0
  4  3  1  0  0  0
  3  2  1  0  0  0
  2  1  1  0  0  0
  1 11  1  0  0  0
 11 12  1  0  0  0
 12 13  2  0  0  0
 13 14  1  0  0  0
 14 15  1  0  0  0
 15 16  1  0  0  0
 16 17  1  0  0  0
 17 18  1  0  0  0
 18 19  1  0  0  0
M  END
> <minimizedAffinity>
-6.56776

> <CNNscore>
0.6521433592

> <CNNaffinity>
6.0613923073

> <CNN_VS>
3.9528968334

> <CNNaffinity_variance>
0.2961509824

$$$$
/media/chris/experiments/cd1a-new-docking/inputs/ligands/4x6d_2_ligand.pdb


 19 18  0  0  0  0  0  0  0  0999 V2000
  -41.4847   58.6955   65.7067 C   0  0  0  0  0  0  0  0  0  0  0  0
  -40.1111   59.2076   65.2957 C   0  0  0  0  0  0  0  0  0  0  0  0
  -39.4211   58.2889   64.3017 C   0  0  0  0  0  0  0  0  0  0  0  0
  -37.9200   58.2918   64.5398 C   0  0  0  0  0  0  0  0  0  0  0  0
  -37.5894   59.3351   65.5917 C   0  0  0  0  0  0  0  0  0  0  0  0
  -36.7023   60.4366   65.0334 C   0  0  0  0  0  0  0  0  0  0  0  0
  -36.8605   61.6755   65.8795 C   0  0  0  0  0  0  0  0  0  0  0  0
  -36.5424   61.6536   67.0844 O   0  0  0  0  0  0  0  0  0  0  0  0
  -37.3129   62.7354   65.3969 O   0  0  0  0  0  0  0  0  0  0  0  0
  -37.5577   62.7717   64.4932 H   0  0  0  0  0  0  0  0  0  0  0  0
  -42.2764   59.8909   66.2166 C   0  0  0  0  0  0  0  0  0  0  0  0
  -43.1253   60.5044   65.1291 C   0  0  0  0  0  0  0  0  0  0  0  0
  -44.5861   60.3299   65.1599 C   0  0  0  0  0  0  0  0  0  0  0  0
  -45.1857   59.3622   66.1490 C   0  0  0  0  0  0  0  0  0  0  0  0
  -46.6068   59.7756   66.5152 C   0  0  0  0  0  0  0  0  0  0  0  0
  -47.1199   60.8327   65.5376 C   0  0  0  0  0  0  0  0  0  0  0  0
  -48.6374   60.9909   65.6204 C   0  0  0  0  0  0  0  0  0  0  0  0
  -49.2998   60.8674   64.2458 C   0  0  0  0  0  0  0  0  0  0  0  0
  -49.5051   59.4181   63.8131 C   0  0  0  0  0  0  0  0  0  0  0  0
  7  8  2  0  0  0
  7  6  1  0  0  0
  7  9  1  0  0  0
  6  5  1  0  0  0
  9 10  1  0  0  0
  5  4  1  0  0  0
  4  3  1  0  0  0
  3  2  1  0  0  0
  2  1  1  0  0  0
  1 11  1  0  0  0
 11 12  1  0  0  0
 12 13  2  0  0  0
 13 14  1  0  0  0
 14 15  1  0  0  0
 15 16  1  0  0  0
 16 17  1  0  0  0
 17 18  1  0  0  0
 18 19  1  0  0  0
M  END
> <minimizedAffinity>
-6.11845

> <CNNscore>
0.6462858319

> <CNNaffinity>
5.8364434242

> <CNN_VS>
3.7720108032

> <CNNaffinity_variance>
0.1934446096

$$$$
/media/chris/experiments/cd1a-new-docking/inputs/ligands/4x6d_2_ligand.pdb


 19 18  0  0  0  0  0  0  0  0999 V2000
  -43.7269   58.2095   64.8473 C   0  0  0  0  0  0  0  0  0  0  0  0
  -42.8294   57.8831   66.0330 C   0  0  0  0  0  0  0  0  0  0  0  0
  -41.6650   58.8499   66.1648 C   0  0  0  0  0  0  0  0  0  0  0  0
  -40.6471   58.5979   65.0647 C   0  0  0  0  0  0  0  0  0  0  0  0
  -40.1171   59.9309   64.5682 C   0  0  0  0  0  0  0  0  0  0  0  0
  -40.9853   60.5047   63.4595 C   0  0  0  0  0  0  0  0  0  0  0  0
  -41.7388   61.6992   63.9897 C   0  0  0  0  0  0  0  0  0  0  0  0
  -42.6977   62.1684   63.3464 O   0  0  0  0  0  0  0  0  0  0  0  0
  -41.4181   62.2396   65.0695 O   0  0  0  0  0  0  0  0  0  0  0  0
  -40.7001   61.9015   65.5676 H   0  0  0  0  0  0  0  0  0  0  0  0
  -45.0822   58.6160   65.4074 C   0  0  0  0  0  0  0  0  0  0  0  0
  -45.8343   57.4322   65.9665 C   0  0  0  0  0  0  0  0  0  0  0  0
  -47.2990   57.3733   65.8381 C   0  0  0  0  0  0  0  0  0  0  0  0
  -48.0392   58.5928   65.3492 C   0  0  0  0  0  0  0  0  0  0  0  0
  -49.0454   58.2160   64.2674 C   0  0  0  0  0  0  0  0  0  0  0  0
  -49.8660   59.4388   63.8578 C   0  0  0  0  0  0  0  0  0  0  0  0
  -50.6308   59.1972   62.5572 C   0  0  0  0  0  0  0  0  0  0  0  0
  -50.1553   57.9295   61.8428 C   0  0  0  0  0  0  0  0  0  0  0  0
  -51.0203   57.5657   60.6390 C   0  0  0  0  0  0  0  0  0  0  0  0
  7  8  2  0  0  0
  7  6  1  0  0  0
  7  9  1  0  0  0
  6  5  1  0  0  0
  9 10  1  0  0  0
  5  4  1  0  0  0
  4  3  1  0  0  0
  3  2  1  0  0  0
  2  1  1  0  0  0
  1 11  1  0  0  0
 11 12  1  0  0  0
 12 13  2  0  0  0
 13 14  1  0  0  0
 14 15  1  0  0  0
 15 16  1  0  0  0
 16 17  1  0  0  0
 17 18  1  0  0  0
 18 19  1  0  0  0
M  END
> <minimizedAffinity>
-6.26499

> <CNNscore>
0.5845177770

> <CNNaffinity>
5.9981207848

> <CNN_VS>
3.5060081482

> <CNNaffinity_variance>
0.2184936553

$$$$
