/media/chris/experiments/cd1a-new-docking/inputs/ligands/4x6d_2_ligand.pdb


 19 18  0  0  0  0  0  0  0  0999 V2000
  -45.9105   58.4472   64.9662 C   0  0  0  0  0  0  0  0  0  0  0  0
  -45.6218   59.8357   65.5197 C   0  0  0  0  0  0  0  0  0  0  0  0
  -44.4990   59.8323   66.5431 C   0  0  0  0  0  0  0  0  0  0  0  0
  -43.4071   58.8632   66.1203 C   0  0  0  0  0  0  0  0  0  0  0  0
  -42.0618   59.4159   66.5548 C   0  0  0  0  0  0  0  0  0  0  0  0
  -42.1164   60.9184   66.7816 C   0  0  0  0  0  0  0  0  0  0  0  0
  -41.3346   61.6115   65.6936 C   0  0  0  0  0  0  0  0  0  0  0  0
  -41.7184   61.5445   64.5094 O   0  0  0  0  0  0  0  0  0  0  0  0
  -40.2960   62.2557   65.9528 O   0  0  0  0  0  0  0  0  0  0  0  0
  -39.9915   62.3176   66.8367 H   0  0  0  0  0  0  0  0  0  0  0  0
  -47.4190   58.2513   65.0072 C   0  0  0  0  0  0  0  0  0  0  0  0
  -48.1579   59.5319   64.7011 C   0  0  0  0  0  0  0  0  0  0  0  0
  -49.1694   59.5515   63.6325 C   0  0  0  0  0  0  0  0  0  0  0  0
  -49.2923   58.3565   62.7208 C   0  0  0  0  0  0  0  0  0  0  0  0
  -50.4139   58.5628   61.7087 C   0  0  0  0  0  0  0  0  0  0  0  0
  -49.8330   58.8014   60.3151 C   0  0  0  0  0  0  0  0  0  0  0  0
  -48.6203   57.9113   60.0476 C   0  0  0  0  0  0  0  0  0  0  0  0
  -48.3249   57.7841   58.5510 C   0  0  0  0  0  0  0  0  0  0  0  0
  -47.0324   58.4838   58.1388 C   0  0  0  0  0  0  0  0  0  0  0  0
  7  8  2  0  0  0
  7  6  1  0  0  0
  7  9  1  0  0  0
  6  5  1  0  0  0
  9 10  1  0  0  0
  5  4  1  0  0  0
  4  3  1  0  0  0
  3  2  1  0  0  0
  2  1  1  0  0  0
  1 11  1  0  0  0
 11 12  1  0  0  0
 12 13  2  0  0  0
 13 14  1  0  0  0
 14 15  1  0  0  0
 15 16  1  0  0  0
 16 17  1  0  0  0
 17 18  1  0  0  0
 18 19  1  0  0  0
M  END
> <minimizedAffinity>
-6.82919

> <CNNscore>
0.8494425416

> <CNNaffinity>
6.5144209862

> <CNN_VS>
5.5336265564

> <CNNaffinity_variance>
0.5665950775

$$$$
/media/chris/experiments/cd1a-new-docking/inputs/ligands/4x6d_2_ligand.pdb


 19 18  0  0  0  0  0  0  0  0999 V2000
  -45.6889   60.3527   65.3485 C   0  0  0  0  0  0  0  0  0  0  0  0
  -44.6683   59.4871   66.0742 C   0  0  0  0  0  0  0  0  0  0  0  0
  -43.2869   60.1186   66.1056 C   0  0  0  0  0  0  0  0  0  0  0  0
  -42.2193   59.0405   66.1945 C   0  0  0  0  0  0  0  0  0  0  0  0
  -40.9805   59.5109   65.4540 C   0  0  0  0  0  0  0  0  0  0  0  0
  -40.2279   58.3513   64.8211 C   0  0  0  0  0  0  0  0  0  0  0  0
  -38.8477   58.8142   64.4261 C   0  0  0  0  0  0  0  0  0  0  0  0
  -38.6502   59.2923   63.2919 O   0  0  0  0  0  0  0  0  0  0  0  0
  -37.8842   58.7250   65.2163 O   0  0  0  0  0  0  0  0  0  0  0  0
  -38.0125   58.3685   66.0732 H   0  0  0  0  0  0  0  0  0  0  0  0
  -46.9944   59.5719   65.3095 C   0  0  0  0  0  0  0  0  0  0  0  0
  -48.0381   60.1816   66.2143 C   0  0  0  0  0  0  0  0  0  0  0  0
  -49.4645   59.9334   65.9515 C   0  0  0  0  0  0  0  0  0  0  0  0
  -49.8637   59.2602   64.6624 C   0  0  0  0  0  0  0  0  0  0  0  0
  -50.8739   60.1101   63.8997 C   0  0  0  0  0  0  0  0  0  0  0  0
  -50.8411   59.7642   62.4112 C   0  0  0  0  0  0  0  0  0  0  0  0
  -50.2583   58.3731   62.1664 C   0  0  0  0  0  0  0  0  0  0  0  0
  -50.9757   57.6466   61.0258 C   0  0  0  0  0  0  0  0  0  0  0  0
  -50.3580   57.9302   59.6590 C   0  0  0  0  0  0  0  0  0  0  0  0
  7  8  2  0  0  0
  7  6  1  0  0  0
  7  9  1  0  0  0
  6  5  1  0  0  0
  9 10  1  0  0  0
  5  4  1  0  0  0
  4  3  1  0  0  0
  3  2  1  0  0  0
  2  1  1  0  0  0
  1 11  1  0  0  0
 11 12  1  0  0  0
 12 13  2  0  0  0
 13 14  1  0  0  0
 14 15  1  0  0  0
 15 16  1  0  0  0
 16 17  1  0  0  0
 17 18  1  0  0  0
 18 19  1  0  0  0
M  END
> <minimizedAffinity>
-6.42435

> <CNNscore>
0.8043926358

> <CNNaffinity>
6.2880325317

> <CNN_VS>
5.0580472946

> <CNNaffinity_variance>
0.3892533183

$$$$
/media/chris/experiments/cd1a-new-docking/inputs/ligands/4x6d_2_ligand.pdb


 19 18  0  0  0  0  0  0  0  0999 V2000
  -47.6883   58.3094   65.6898 C   0  0  0  0  0  0  0  0  0  0  0  0
  -46.8045   57.0981   65.9536 C   0  0  0  0  0  0  0  0  0  0  0  0
  -45.3273   57.4515   65.9847 C   0  0  0  0  0  0  0  0  0  0  0  0
  -44.9869   58.3844   64.8341 C   0  0  0  0  0  0  0  0  0  0  0  0
  -43.4966   58.6719   64.8566 C   0  0  0  0  0  0  0  0  0  0  0  0
  -42.8939   58.4156   66.2288 C   0  0  0  0  0  0  0  0  0  0  0  0
  -42.0699   59.6110   66.6381 C   0  0  0  0  0  0  0  0  0  0  0  0
  -42.5585   60.4795   67.3870 O   0  0  0  0  0  0  0  0  0  0  0  0
  -40.8960   59.7563   66.2361 O   0  0  0  0  0  0  0  0  0  0  0  0
  -40.5109   59.1143   65.6726 H   0  0  0  0  0  0  0  0  0  0  0  0
  -48.8337   57.8456   64.8016 C   0  0  0  0  0  0  0  0  0  0  0  0
  -49.6901   59.0018   64.3439 C   0  0  0  0  0  0  0  0  0  0  0  0
  -50.2349   59.0082   62.9770 C   0  0  0  0  0  0  0  0  0  0  0  0
  -49.7500   57.9740   61.9923 C   0  0  0  0  0  0  0  0  0  0  0  0
  -50.8368   57.6466   60.9742 C   0  0  0  0  0  0  0  0  0  0  0  0
  -50.3295   57.9052   59.5557 C   0  0  0  0  0  0  0  0  0  0  0  0
  -48.9317   57.3269   59.3406 C   0  0  0  0  0  0  0  0  0  0  0  0
  -47.9987   58.3291   58.6560 C   0  0  0  0  0  0  0  0  0  0  0  0
  -46.5249   57.9534   58.7858 C   0  0  0  0  0  0  0  0  0  0  0  0
  7  8  2  0  0  0
  7  6  1  0  0  0
  7  9  1  0  0  0
  6  5  1  0  0  0
  9 10  1  0  0  0
  5  4  1  0  0  0
  4  3  1  0  0  0
  3  2  1  0  0  0
  2  1  1  0  0  0
  1 11  1  0  0  0
 11 12  1  0  0  0
 12 13  2  0  0  0
 13 14  1  0  0  0
 14 15  1  0  0  0
 15 16  1  0  0  0
 16 17  1  0  0  0
 17 18  1  0  0  0
 18 19  1  0  0  0
M  END
> <minimizedAffinity>
-6.95632

> <CNNscore>
0.8002246022

> <CNNaffinity>
6.4271340370

> <CNN_VS>
5.1431508064

> <CNNaffinity_variance>
0.2903028131

$$$$
/media/chris/experiments/cd1a-new-docking/inputs/ligands/4x6d_2_ligand.pdb


 19 18  0  0  0  0  0  0  0  0999 V2000
  -44.3059   59.1308   65.0783 C   0  0  0  0  0  0  0  0  0  0  0  0
  -43.4135   57.9034   65.1996 C   0  0  0  0  0  0  0  0  0  0  0  0
  -42.5255   57.9490   66.4314 C   0  0  0  0  0  0  0  0  0  0  0  0
  -41.6349   59.1799   66.3906 C   0  0  0  0  0  0  0  0  0  0  0  0
  -40.6372   59.0294   65.2564 C   0  0  0  0  0  0  0  0  0  0  0  0
  -40.3668   60.3557   64.5640 C   0  0  0  0  0  0  0  0  0  0  0  0
  -39.7611   61.3170   65.5561 C   0  0  0  0  0  0  0  0  0  0  0  0
  -38.6321   61.0920   66.0343 O   0  0  0  0  0  0  0  0  0  0  0  0
  -40.3729   62.3443   65.9184 O   0  0  0  0  0  0  0  0  0  0  0  0
  -41.2225   62.5308   65.5702 H   0  0  0  0  0  0  0  0  0  0  0  0
  -45.3203   59.0631   66.2106 C   0  0  0  0  0  0  0  0  0  0  0  0
  -45.9936   57.7133   66.2784 C   0  0  0  0  0  0  0  0  0  0  0  0
  -47.2606   57.4947   65.5627 C   0  0  0  0  0  0  0  0  0  0  0  0
  -47.9726   58.6792   64.9591 C   0  0  0  0  0  0  0  0  0  0  0  0
  -49.4805   58.4537   64.9462 C   0  0  0  0  0  0  0  0  0  0  0  0
  -50.0875   59.0023   63.6550 C   0  0  0  0  0  0  0  0  0  0  0  0
  -49.7276   58.1368   62.4484 C   0  0  0  0  0  0  0  0  0  0  0  0
  -50.2609   58.7296   61.1416 C   0  0  0  0  0  0  0  0  0  0  0  0
  -49.3450   58.4618   59.9502 C   0  0  0  0  0  0  0  0  0  0  0  0
  7  8  2  0  0  0
  7  6  1  0  0  0
  7  9  1  0  0  0
  6  5  1  0  0  0
  9 10  1  0  0  0
  5  4  1  0  0  0
  4  3  1  0  0  0
  3  2  1  0  0  0
  2  1  1  0  0  0
  1 11  1  0  0  0
 11 12  1  0  0  0
 12 13  2  0  0  0
 13 14  1  0  0  0
 14 15  1  0  0  0
 15 16  1  0  0  0
 16 17  1  0  0  0
 17 18  1  0  0  0
 18 19  1  0  0  0
M  END
> <minimizedAffinity>
-6.50525

> <CNNscore>
0.8000708222

> <CNNaffinity>
6.3457317352

> <CNN_VS>
5.0770349503

> <CNNaffinity_variance>
0.3417043090

$$$$
/media/chris/experiments/cd1a-new-docking/inputs/ligands/4x6d_2_ligand.pdb


 19 18  0  0  0  0  0  0  0  0999 V2000
  -45.8289   58.2452   64.8569 C   0  0  0  0  0  0  0  0  0  0  0  0
  -44.6491   57.5896   65.5613 C   0  0  0  0  0  0  0  0  0  0  0  0
  -43.5610   58.5859   65.9237 C   0  0  0  0  0  0  0  0  0  0  0  0
  -42.1901   57.9793   65.6734 C   0  0  0  0  0  0  0  0  0  0  0  0
  -41.1419   59.0733   65.7679 C   0  0  0  0  0  0  0  0  0  0  0  0
  -41.7180   60.3575   66.3429 C   0  0  0  0  0  0  0  0  0  0  0  0
  -41.1792   61.5327   65.5657 C   0  0  0  0  0  0  0  0  0  0  0  0
  -41.7597   61.9164   64.5314 O   0  0  0  0  0  0  0  0  0  0  0  0
  -40.1496   62.1360   65.9354 O   0  0  0  0  0  0  0  0  0  0  0  0
  -39.6992   61.8626   66.7103 H   0  0  0  0  0  0  0  0  0  0  0  0
  -45.9211   59.6750   65.3698 C   0  0  0  0  0  0  0  0  0  0  0  0
  -46.9178   59.8017   66.4968 C   0  0  0  0  0  0  0  0  0  0  0  0
  -48.1996   60.4853   66.2620 C   0  0  0  0  0  0  0  0  0  0  0  0
  -48.4015   61.2356   64.9695 C   0  0  0  0  0  0  0  0  0  0  0  0
  -49.6174   60.7022   64.2199 C   0  0  0  0  0  0  0  0  0  0  0  0
  -49.7469   59.1931   64.4256 C   0  0  0  0  0  0  0  0  0  0  0  0
  -49.4133   58.4179   63.1518 C   0  0  0  0  0  0  0  0  0  0  0  0
  -50.4747   58.6189   62.0671 C   0  0  0  0  0  0  0  0  0  0  0  0
  -49.8779   58.7440   60.6678 C   0  0  0  0  0  0  0  0  0  0  0  0
  7  8  2  0  0  0
  7  6  1  0  0  0
  7  9  1  0  0  0
  6  5  1  0  0  0
  9 10  1  0  0  0
  5  4  1  0  0  0
  4  3  1  0  0  0
  3  2  1  0  0  0
  2  1  1  0  0  0
  1 11  1  0  0  0
 11 12  1  0  0  0
 12 13  2  0  0  0
 13 14  1  0  0  0
 14 15  1  0  0  0
 15 16  1  0  0  0
 16 17  1  0  0  0
 17 18  1  0  0  0
 18 19  1  0  0  0
M  END
> <minimizedAffinity>
-6.51796

> <CNNscore>
0.7196580172

> <CNNaffinity>
6.1596961021

> <CNN_VS>
4.4328746796

> <CNNaffinity_variance>
0.2484296113

$$$$
/media/chris/experiments/cd1a-new-docking/inputs/ligands/4x6d_2_ligand.pdb


 19 18  0  0  0  0  0  0  0  0999 V2000
  -47.1694   58.6359   66.2270 C   0  0  0  0  0  0  0  0  0  0  0  0
  -47.5527   58.5123   64.7589 C   0  0  0  0  0  0  0  0  0  0  0  0
  -48.6427   59.4916   64.3576 C   0  0  0  0  0  0  0  0  0  0  0  0
  -49.8454   58.7416   63.8088 C   0  0  0  0  0  0  0  0  0  0  0  0
  -49.5041   58.2027   62.4314 C   0  0  0  0  0  0  0  0  0  0  0  0
  -50.7218   58.1696   61.5216 C   0  0  0  0  0  0  0  0  0  0  0  0
  -50.3524   57.4922   60.2253 C   0  0  0  0  0  0  0  0  0  0  0  0
  -50.5786   58.0587   59.1382 O   0  0  0  0  0  0  0  0  0  0  0  0
  -49.8226   56.3609   60.2142 O   0  0  0  0  0  0  0  0  0  0  0  0
  -49.6446   55.9190   61.0211 H   0  0  0  0  0  0  0  0  0  0  0  0
  -45.6563   58.4967   66.3101 C   0  0  0  0  0  0  0  0  0  0  0  0
  -44.9691   59.1513   65.1358 C   0  0  0  0  0  0  0  0  0  0  0  0
  -43.6914   59.8526   65.3381 C   0  0  0  0  0  0  0  0  0  0  0  0
  -43.2045   60.0928   66.7451 C   0  0  0  0  0  0  0  0  0  0  0  0
  -41.8104   59.5072   66.9413 C   0  0  0  0  0  0  0  0  0  0  0  0
  -41.3508   58.7951   65.6692 C   0  0  0  0  0  0  0  0  0  0  0  0
  -39.9810   59.2898   65.2073 C   0  0  0  0  0  0  0  0  0  0  0  0
  -39.2583   58.2491   64.3482 C   0  0  0  0  0  0  0  0  0  0  0  0
  -37.7957   58.0641   64.7437 C   0  0  0  0  0  0  0  0  0  0  0  0
  7  8  2  0  0  0
  7  6  1  0  0  0
  7  9  1  0  0  0
  6  5  1  0  0  0
  9 10  1  0  0  0
  5  4  1  0  0  0
  4  3  1  0  0  0
  3  2  1  0  0  0
  2  1  1  0  0  0
  1 11  1  0  0  0
 11 12  1  0  0  0
 12 13  2  0  0  0
 13 14  1  0  0  0
 14 15  1  0  0  0
 15 16  1  0  0  0
 16 17  1  0  0  0
 17 18  1  0  0  0
 18 19  1  0  0  0
M  END
> <minimizedAffinity>
-6.54015

> <CNNscore>
0.6731537580

> <CNNaffinity>
6.0970907211

> <CNN_VS>
4.1042795181

> <CNNaffinity_variance>
0.4914705753

$$$$
/media/chris/experiments/cd1a-new-docking/inputs/ligands/4x6d_2_ligand.pdb


 19 18  0  0  0  0  0  0  0  0999 V2000
  -47.8315   59.1944   65.9247 C   0  0  0  0  0  0  0  0  0  0  0  0
  -48.6842   58.1869   65.1661 C   0  0  0  0  0  0  0  0  0  0  0  0
  -48.8388   58.5442   63.6976 C   0  0  0  0  0  0  0  0  0  0  0  0
  -50.2328   59.0899   63.4346 C   0  0  0  0  0  0  0  0  0  0  0  0
  -50.6468   58.7244   62.0206 C   0  0  0  0  0  0  0  0  0  0  0  0
  -49.6361   57.8017   61.3582 C   0  0  0  0  0  0  0  0  0  0  0  0
  -49.5683   58.1186   59.8850 C   0  0  0  0  0  0  0  0  0  0  0  0
  -50.5990   58.0623   59.1861 O   0  0  0  0  0  0  0  0  0  0  0  0
  -48.4898   58.4359   59.3401 O   0  0  0  0  0  0  0  0  0  0  0  0
  -47.7043   58.4838   59.8486 H   0  0  0  0  0  0  0  0  0  0  0  0
  -46.8085   58.4039   66.7274 C   0  0  0  0  0  0  0  0  0  0  0  0
  -45.9871   57.4945   65.8453 C   0  0  0  0  0  0  0  0  0  0  0  0
  -44.5363   57.7104   65.7273 C   0  0  0  0  0  0  0  0  0  0  0  0
  -43.9340   58.9631   66.3122 C   0  0  0  0  0  0  0  0  0  0  0  0
  -42.4112   58.8880   66.2970 C   0  0  0  0  0  0  0  0  0  0  0  0
  -41.8765   59.2483   64.9111 C   0  0  0  0  0  0  0  0  0  0  0  0
  -42.5218   60.5231   64.3697 C   0  0  0  0  0  0  0  0  0  0  0  0
  -41.6659   61.1787   63.2829 C   0  0  0  0  0  0  0  0  0  0  0  0
  -40.3106   60.4997   63.1036 C   0  0  0  0  0  0  0  0  0  0  0  0
  7  8  2  0  0  0
  7  6  1  0  0  0
  7  9  1  0  0  0
  6  5  1  0  0  0
  9 10  1  0  0  0
  5  4  1  0  0  0
  4  3  1  0  0  0
  3  2  1  0  0  0
  2  1  1  0  0  0
  1 11  1  0  0  0
 11 12  1  0  0  0
 12 13  2  0  0  0
 13 14  1  0  0  0
 14 15  1  0  0  0
 15 16  1  0  0  0
 16 17  1  0  0  0
 17 18  1  0  0  0
 18 19  1  0  0  0
M  END
> <minimizedAffinity>
-6.22754

> <CNNscore>
0.6666195989

> <CNNaffinity>
6.2121958733

> <CNN_VS>
4.1411714554

> <CNNaffinity_variance>
0.8482106924

$$$$
/media/chris/experiments/cd1a-new-docking/inputs/ligands/4x6d_2_ligand.pdb


 19 18  0  0  0  0  0  0  0  0999 V2000
  -44.2966   59.6757   66.4695 C   0  0  0  0  0  0  0  0  0  0  0  0
  -43.8970   58.5518   65.5236 C   0  0  0  0  0  0  0  0  0  0  0  0
  -42.5233   57.9855   65.8403 C   0  0  0  0  0  0  0  0  0  0  0  0
  -41.6025   59.0890   66.3348 C   0  0  0  0  0  0  0  0  0  0  0  0
  -40.6344   59.4576   65.2252 C   0  0  0  0  0  0  0  0  0  0  0  0
  -40.6945   60.9405   64.8946 C   0  0  0  0  0  0  0  0  0  0  0  0
  -41.5925   61.1449   63.6999 C   0  0  0  0  0  0  0  0  0  0  0  0
  -42.7800   61.4873   63.8627 O   0  0  0  0  0  0  0  0  0  0  0  0
  -41.1712   60.9728   62.5364 O   0  0  0  0  0  0  0  0  0  0  0  0
  -40.2816   60.7154   62.3936 H   0  0  0  0  0  0  0  0  0  0  0  0
  -45.7091   59.3776   66.9509 C   0  0  0  0  0  0  0  0  0  0  0  0
  -46.1087   57.9504   66.6627 C   0  0  0  0  0  0  0  0  0  0  0  0
  -47.2737   57.6792   65.8055 C   0  0  0  0  0  0  0  0  0  0  0  0
  -48.1737   58.8236   65.4123 C   0  0  0  0  0  0  0  0  0  0  0  0
  -48.6278   58.6801   63.9638 C   0  0  0  0  0  0  0  0  0  0  0  0
  -50.1414   58.8679   63.8619 C   0  0  0  0  0  0  0  0  0  0  0  0
  -50.5690   59.2589   62.4481 C   0  0  0  0  0  0  0  0  0  0  0  0
  -49.9785   58.3198   61.3932 C   0  0  0  0  0  0  0  0  0  0  0  0
  -51.0311   57.4374   60.7272 C   0  0  0  0  0  0  0  0  0  0  0  0
  7  8  2  0  0  0
  7  6  1  0  0  0
  7  9  1  0  0  0
  6  5  1  0  0  0
  9 10  1  0  0  0
  5  4  1  0  0  0
  4  3  1  0  0  0
  3  2  1  0  0  0
  2  1  1  0  0  0
  1 11  1  0  0  0
 11 12  1  0  0  0
 12 13  2  0  0  0
 13 14  1  0  0  0
 14 15  1  0  0  0
 15 16  1  0  0  0
 16 17  1  0  0  0
 17 18  1  0  0  0
 18 19  1  0  0  0
M  END
> <minimizedAffinity>
-6.28960

> <CNNscore>
0.6529678702

> <CNNaffinity>
6.0491003990

> <CNN_VS>
3.9498682022

> <CNNaffinity_variance>
0.2603272498

$$$$
/media/chris/experiments/cd1a-new-docking/inputs/ligands/4x6d_2_ligand.pdb


 19 18  0  0  0  0  0  0  0  0999 V2000
  -44.3623   59.1557   65.0620 C   0  0  0  0  0  0  0  0  0  0  0  0
  -43.8007   60.5531   64.8390 C   0  0  0  0  0  0  0  0  0  0  0  0
  -42.2818   60.5741   64.8227 C   0  0  0  0  0  0  0  0  0  0  0  0
  -41.7824   61.7009   63.9333 C   0  0  0  0  0  0  0  0  0  0  0  0
  -41.4018   61.1290   62.5797 C   0  0  0  0  0  0  0  0  0  0  0  0
  -39.9852   60.5765   62.5794 C   0  0  0  0  0  0  0  0  0  0  0  0
  -39.2624   61.0696   61.3507 C   0  0  0  0  0  0  0  0  0  0  0  0
  -39.8268   61.0387   60.2397 O   0  0  0  0  0  0  0  0  0  0  0  0
  -38.0951   61.5096   61.4193 O   0  0  0  0  0  0  0  0  0  0  0  0
  -37.6541   61.5409   62.2453 H   0  0  0  0  0  0  0  0  0  0  0  0
  -45.8660   59.2992   65.2458 C   0  0  0  0  0  0  0  0  0  0  0  0
  -46.3103   60.7367   65.1189 C   0  0  0  0  0  0  0  0  0  0  0  0
  -47.7432   61.0478   64.9942 C   0  0  0  0  0  0  0  0  0  0  0  0
  -48.7195   59.9194   64.7752 C   0  0  0  0  0  0  0  0  0  0  0  0
  -50.0964   60.4608   64.4066 C   0  0  0  0  0  0  0  0  0  0  0  0
  -50.6827   59.6674   63.2390 C   0  0  0  0  0  0  0  0  0  0  0  0
  -49.8014   58.4766   62.8650 C   0  0  0  0  0  0  0  0  0  0  0  0
  -49.7934   58.2247   61.3550 C   0  0  0  0  0  0  0  0  0  0  0  0
  -51.0780   57.5689   60.8552 C   0  0  0  0  0  0  0  0  0  0  0  0
  7  8  2  0  0  0
  7  6  1  0  0  0
  7  9  1  0  0  0
  6  5  1  0  0  0
  9 10  1  0  0  0
  5  4  1  0  0  0
  4  3  1  0  0  0
  3  2  1  0  0  0
  2  1  1  0  0  0
  1 11  1  0  0  0
 11 12  1  0  0  0
 12 13  2  0  0  0
 13 14  1  0  0  0
 14 15  1  0  0  0
 15 16  1  0  0  0
 16 17  1  0  0  0
 17 18  1  0  0  0
 18 19  1  0  0  0
M  END
> <minimizedAffinity>
-6.78087

> <CNNscore>
0.6145668030

> <CNNaffinity>
6.0186786652

> <CNN_VS>
3.6988801956

> <CNNaffinity_variance>
0.3714425266

$$$$
