/media/chris/experiments/cd1a-new-docking/inputs/ligands/4x6d_2_ligand.pdb


 19 18  0  0  0  0  0  0  0  0999 V2000
  -47.2670   58.4397   64.8227 C   0  0  0  0  0  0  0  0  0  0  0  0
  -47.1371   59.7076   65.6554 C   0  0  0  0  0  0  0  0  0  0  0  0
  -45.8538   59.7412   66.4678 C   0  0  0  0  0  0  0  0  0  0  0  0
  -44.6699   59.3607   65.5939 C   0  0  0  0  0  0  0  0  0  0  0  0
  -44.1557   60.6042   64.8912 C   0  0  0  0  0  0  0  0  0  0  0  0
  -42.6373   60.6785   64.9165 C   0  0  0  0  0  0  0  0  0  0  0  0
  -42.1502   61.2836   63.6235 C   0  0  0  0  0  0  0  0  0  0  0  0
  -42.6651   62.3337   63.1923 O   0  0  0  0  0  0  0  0  0  0  0  0
  -41.2345   60.7487   62.9630 O   0  0  0  0  0  0  0  0  0  0  0  0
  -40.8348   59.9590   63.2706 H   0  0  0  0  0  0  0  0  0  0  0  0
  -48.7339   58.0356   64.8443 C   0  0  0  0  0  0  0  0  0  0  0  0
  -49.6300   59.1574   64.3769 C   0  0  0  0  0  0  0  0  0  0  0  0
  -50.2481   59.0882   63.0433 C   0  0  0  0  0  0  0  0  0  0  0  0
  -49.8029   58.0109   62.0866 C   0  0  0  0  0  0  0  0  0  0  0  0
  -50.9185   57.6643   61.1066 C   0  0  0  0  0  0  0  0  0  0  0  0
  -50.4431   57.8691   59.6684 C   0  0  0  0  0  0  0  0  0  0  0  0
  -49.0619   58.5206   59.6165 C   0  0  0  0  0  0  0  0  0  0  0  0
  -48.1875   57.9169   58.5145 C   0  0  0  0  0  0  0  0  0  0  0  0
  -46.7020   57.9204   58.8658 C   0  0  0  0  0  0  0  0  0  0  0  0
  7  8  2  0  0  0
  7  6  1  0  0  0
  7  9  1  0  0  0
  6  5  1  0  0  0
  9 10  1  0  0  0
  5  4  1  0  0  0
  4  3  1  0  0  0
  3  2  1  0  0  0
  2  1  1  0  0  0
  1 11  1  0  0  0
 11 12  1  0  0  0
 12 13  2  0  0  0
 13 14  1  0  0  0
 14 15  1  0  0  0
 15 16  1  0  0  0
 16 17  1  0  0  0
 17 18  1  0  0  0
 18 19  1  0  0  0
M  END
> <minimizedAffinity>
-6.76588

> <CNNscore>
0.7573469281

> <CNNaffinity>
6.3879952431

> <CNN_VS>
4.8379287720

> <CNNaffinity_variance>
0.3161340952

$$$$
/media/chris/experiments/cd1a-new-docking/inputs/ligands/4x6d_2_ligand.pdb


 19 18  0  0  0  0  0  0  0  0999 V2000
  -47.5179   60.8760   65.4271 C   0  0  0  0  0  0  0  0  0  0  0  0
  -47.3953   59.3588   65.4583 C   0  0  0  0  0  0  0  0  0  0  0  0
  -46.7955   58.8502   66.7581 C   0  0  0  0  0  0  0  0  0  0  0  0
  -46.0035   57.5774   66.5074 C   0  0  0  0  0  0  0  0  0  0  0  0
  -45.3761   57.6507   65.1271 C   0  0  0  0  0  0  0  0  0  0  0  0
  -43.8623   57.5215   65.1887 C   0  0  0  0  0  0  0  0  0  0  0  0
  -43.2420   58.8846   65.0082 C   0  0  0  0  0  0  0  0  0  0  0  0
  -42.0028   59.0157   65.0381 O   0  0  0  0  0  0  0  0  0  0  0  0
  -43.9491   59.8994   64.8316 O   0  0  0  0  0  0  0  0  0  0  0  0
  -44.8825   59.8212   64.8060 H   0  0  0  0  0  0  0  0  0  0  0  0
  -48.5899   61.2198   64.4032 C   0  0  0  0  0  0  0  0  0  0  0  0
  -49.9337   60.6481   64.7869 C   0  0  0  0  0  0  0  0  0  0  0  0
  -50.7481   59.9589   63.7736 C   0  0  0  0  0  0  0  0  0  0  0  0
  -50.3272   60.0283   62.3271 C   0  0  0  0  0  0  0  0  0  0  0  0
  -50.2382   58.6311   61.7230 C   0  0  0  0  0  0  0  0  0  0  0  0
  -49.7960   58.7125   60.2621 C   0  0  0  0  0  0  0  0  0  0  0  0
  -48.4982   57.9429   60.0204 C   0  0  0  0  0  0  0  0  0  0  0  0
  -48.1087   57.9324   58.5400 C   0  0  0  0  0  0  0  0  0  0  0  0
  -46.6367   58.2653   58.3105 C   0  0  0  0  0  0  0  0  0  0  0  0
  7  8  2  0  0  0
  7  6  1  0  0  0
  7  9  1  0  0  0
  6  5  1  0  0  0
  9 10  1  0  0  0
  5  4  1  0  0  0
  4  3  1  0  0  0
  3  2  1  0  0  0
  2  1  1  0  0  0
  1 11  1  0  0  0
 11 12  1  0  0  0
 12 13  2  0  0  0
 13 14  1  0  0  0
 14 15  1  0  0  0
 15 16  1  0  0  0
 16 17  1  0  0  0
 17 18  1  0  0  0
 18 19  1  0  0  0
M  END
> <minimizedAffinity>
-6.84086

> <CNNscore>
0.6839789748

> <CNNaffinity>
6.2852544785

> <CNN_VS>
4.2989821434

> <CNNaffinity_variance>
0.3946352303

$$$$
/media/chris/experiments/cd1a-new-docking/inputs/ligands/4x6d_2_ligand.pdb


 19 18  0  0  0  0  0  0  0  0999 V2000
  -44.9147   58.7329   64.8591 C   0  0  0  0  0  0  0  0  0  0  0  0
  -44.3599   57.6386   65.7605 C   0  0  0  0  0  0  0  0  0  0  0  0
  -42.8744   57.4044   65.5446 C   0  0  0  0  0  0  0  0  0  0  0  0
  -42.0917   58.6653   65.8726 C   0  0  0  0  0  0  0  0  0  0  0  0
  -40.8446   58.7106   65.0083 C   0  0  0  0  0  0  0  0  0  0  0  0
  -40.7752   59.9875   64.1858 C   0  0  0  0  0  0  0  0  0  0  0  0
  -39.3977   60.1140   63.5843 C   0  0  0  0  0  0  0  0  0  0  0  0
  -38.6070   60.9781   64.0107 O   0  0  0  0  0  0  0  0  0  0  0  0
  -39.0264   59.3672   62.6540 O   0  0  0  0  0  0  0  0  0  0  0  0
  -39.6064   58.7115   62.3198 H   0  0  0  0  0  0  0  0  0  0  0  0
  -45.8910   59.5502   65.6925 C   0  0  0  0  0  0  0  0  0  0  0  0
  -46.1938   60.8834   65.0517 C   0  0  0  0  0  0  0  0  0  0  0  0
  -47.5905   61.2645   64.7887 C   0  0  0  0  0  0  0  0  0  0  0  0
  -48.6748   60.2306   64.9607 C   0  0  0  0  0  0  0  0  0  0  0  0
  -49.5663   60.1725   63.7251 C   0  0  0  0  0  0  0  0  0  0  0  0
  -49.7786   58.7220   63.2924 C   0  0  0  0  0  0  0  0  0  0  0  0
  -50.5301   58.6319   61.9650 C   0  0  0  0  0  0  0  0  0  0  0  0
  -49.6408   58.0930   60.8415 C   0  0  0  0  0  0  0  0  0  0  0  0
  -50.3694   57.9914   59.5039 C   0  0  0  0  0  0  0  0  0  0  0  0
  7  8  2  0  0  0
  7  6  1  0  0  0
  7  9  1  0  0  0
  6  5  1  0  0  0
  9 10  1  0  0  0
  5  4  1  0  0  0
  4  3  1  0  0  0
  3  2  1  0  0  0
  2  1  1  0  0  0
  1 11  1  0  0  0
 11 12  1  0  0  0
 12 13  2  0  0  0
 13 14  1  0  0  0
 14 15  1  0  0  0
 15 16  1  0  0  0
 16 17  1  0  0  0
 17 18  1  0  0  0
 18 19  1  0  0  0
M  END
> <minimizedAffinity>
-6.08366

> <CNNscore>
0.6765200496

> <CNNaffinity>
6.1734876633

> <CNN_VS>
4.1764883995

> <CNNaffinity_variance>
0.3571602404

$$$$
/media/chris/experiments/cd1a-new-docking/inputs/ligands/4x6d_2_ligand.pdb


 19 18  0  0  0  0  0  0  0  0999 V2000
  -37.4426   57.2709   62.1561 C   0  0  0  0  0  0  0  0  0  0  0  0
  -37.4332   58.2724   61.0095 C   0  0  0  0  0  0  0  0  0  0  0  0
  -36.4711   57.8792   59.9014 C   0  0  0  0  0  0  0  0  0  0  0  0
  -35.9651   56.4635   60.1242 C   0  0  0  0  0  0  0  0  0  0  0  0
  -35.1423   56.0386   58.9213 C   0  0  0  0  0  0  0  0  0  0  0  0
  -33.6804   55.8306   59.2836 C   0  0  0  0  0  0  0  0  0  0  0  0
  -32.9528   57.1478   59.1793 C   0  0  0  0  0  0  0  0  0  0  0  0
  -33.2872   57.9791   58.3127 O   0  0  0  0  0  0  0  0  0  0  0  0
  -32.0078   57.4279   59.9471 O   0  0  0  0  0  0  0  0  0  0  0  0
  -31.7416   56.8161   60.6050 H   0  0  0  0  0  0  0  0  0  0  0  0
  -38.0587   57.9701   63.3591 C   0  0  0  0  0  0  0  0  0  0  0  0
  -38.9687   59.1009   62.9433 C   0  0  0  0  0  0  0  0  0  0  0  0
  -39.9158   59.6687   63.9159 C   0  0  0  0  0  0  0  0  0  0  0  0
  -40.1138   58.9690   65.2371 C   0  0  0  0  0  0  0  0  0  0  0  0
  -41.4114   59.4209   65.8981 C   0  0  0  0  0  0  0  0  0  0  0  0
  -42.3874   58.2495   66.0056 C   0  0  0  0  0  0  0  0  0  0  0  0
  -43.5685   58.4077   65.0491 C   0  0  0  0  0  0  0  0  0  0  0  0
  -44.5290   57.2183   65.1272 C   0  0  0  0  0  0  0  0  0  0  0  0
  -45.9273   57.6134   65.5949 C   0  0  0  0  0  0  0  0  0  0  0  0
  7  8  2  0  0  0
  7  6  1  0  0  0
  7  9  1  0  0  0
  6  5  1  0  0  0
  9 10  1  0  0  0
  5  4  1  0  0  0
  4  3  1  0  0  0
  3  2  1  0  0  0
  2  1  1  0  0  0
  1 11  1  0  0  0
 11 12  1  0  0  0
 12 13  2  0  0  0
 13 14  1  0  0  0
 14 15  1  0  0  0
 15 16  1  0  0  0
 16 17  1  0  0  0
 17 18  1  0  0  0
 18 19  1  0  0  0
M  END
> <minimizedAffinity>
-6.16254

> <CNNscore>
0.6368259192

> <CNNaffinity>
5.5030431747

> <CNN_VS>
3.5044806004

> <CNNaffinity_variance>
0.0345361046

$$$$
/media/chris/experiments/cd1a-new-docking/inputs/ligands/4x6d_2_ligand.pdb


 19 18  0  0  0  0  0  0  0  0999 V2000
  -47.2124   58.0351   66.2619 C   0  0  0  0  0  0  0  0  0  0  0  0
  -47.2904   58.4831   64.8089 C   0  0  0  0  0  0  0  0  0  0  0  0
  -48.5045   59.3537   64.5329 C   0  0  0  0  0  0  0  0  0  0  0  0
  -49.6161   58.5223   63.9138 C   0  0  0  0  0  0  0  0  0  0  0  0
  -49.3692   58.4022   62.4209 C   0  0  0  0  0  0  0  0  0  0  0  0
  -50.6640   58.1990   61.6502 C   0  0  0  0  0  0  0  0  0  0  0  0
  -50.3581   57.5151   60.3410 C   0  0  0  0  0  0  0  0  0  0  0  0
  -49.8492   56.3773   60.3347 O   0  0  0  0  0  0  0  0  0  0  0  0
  -50.6013   58.0702   59.2484 O   0  0  0  0  0  0  0  0  0  0  0  0
  -50.9838   58.9254   59.2323 H   0  0  0  0  0  0  0  0  0  0  0  0
  -45.7943   57.5390   66.5041 C   0  0  0  0  0  0  0  0  0  0  0  0
  -45.0659   57.2731   65.2086 C   0  0  0  0  0  0  0  0  0  0  0  0
  -43.6099   57.4737   65.1375 C   0  0  0  0  0  0  0  0  0  0  0  0
  -42.9080   58.1480   66.2894 C   0  0  0  0  0  0  0  0  0  0  0  0
  -42.6594   59.6208   65.9825 C   0  0  0  0  0  0  0  0  0  0  0  0
  -42.3531   59.8083   64.4968 C   0  0  0  0  0  0  0  0  0  0  0  0
  -42.4498   61.2752   64.0801 C   0  0  0  0  0  0  0  0  0  0  0  0
  -41.6955   61.5487   62.7764 C   0  0  0  0  0  0  0  0  0  0  0  0
  -40.3795   60.7812   62.6790 C   0  0  0  0  0  0  0  0  0  0  0  0
  7  8  2  0  0  0
  7  6  1  0  0  0
  7  9  1  0  0  0
  6  5  1  0  0  0
  9 10  1  0  0  0
  5  4  1  0  0  0
  4  3  1  0  0  0
  3  2  1  0  0  0
  2  1  1  0  0  0
  1 11  1  0  0  0
 11 12  1  0  0  0
 12 13  2  0  0  0
 13 14  1  0  0  0
 14 15  1  0  0  0
 15 16  1  0  0  0
 16 17  1  0  0  0
 17 18  1  0  0  0
 18 19  1  0  0  0
M  END
> <minimizedAffinity>
-6.33183

> <CNNscore>
0.6284664273

> <CNNaffinity>
6.2117156982

> <CNN_VS>
3.9038548470

> <CNNaffinity_variance>
0.6359263659

$$$$
/media/chris/experiments/cd1a-new-docking/inputs/ligands/4x6d_2_ligand.pdb


 19 18  0  0  0  0  0  0  0  0999 V2000
  -41.6144   58.3487   65.6798 C   0  0  0  0  0  0  0  0  0  0  0  0
  -41.3392   59.5670   64.8092 C   0  0  0  0  0  0  0  0  0  0  0  0
  -39.9827   59.5011   64.1283 C   0  0  0  0  0  0  0  0  0  0  0  0
  -39.3645   58.1263   64.3230 C   0  0  0  0  0  0  0  0  0  0  0  0
  -37.9512   58.1380   63.7691 C   0  0  0  0  0  0  0  0  0  0  0  0
  -37.9191   57.7521   62.2988 C   0  0  0  0  0  0  0  0  0  0  0  0
  -37.5284   58.9571   61.4798 C   0  0  0  0  0  0  0  0  0  0  0  0
  -36.7616   59.8155   61.9582 O   0  0  0  0  0  0  0  0  0  0  0  0
  -37.9639   59.1205   60.3202 O   0  0  0  0  0  0  0  0  0  0  0  0
  -38.5415   58.4863   59.9430 H   0  0  0  0  0  0  0  0  0  0  0  0
  -43.1009   58.3551   66.0055 C   0  0  0  0  0  0  0  0  0  0  0  0
  -43.8881   57.4992   65.0424 C   0  0  0  0  0  0  0  0  0  0  0  0
  -45.2259   57.9325   64.6091 C   0  0  0  0  0  0  0  0  0  0  0  0
  -45.8736   59.1057   65.3007 C   0  0  0  0  0  0  0  0  0  0  0  0
  -47.3662   58.8615   65.4945 C   0  0  0  0  0  0  0  0  0  0  0  0
  -48.1324   59.2268   64.2234 C   0  0  0  0  0  0  0  0  0  0  0  0
  -49.2511   58.2280   63.9305 C   0  0  0  0  0  0  0  0  0  0  0  0
  -50.2203   58.7524   62.8680 C   0  0  0  0  0  0  0  0  0  0  0  0
  -51.0148   59.9686   63.3369 C   0  0  0  0  0  0  0  0  0  0  0  0
  7  8  2  0  0  0
  7  6  1  0  0  0
  7  9  1  0  0  0
  6  5  1  0  0  0
  9 10  1  0  0  0
  5  4  1  0  0  0
  4  3  1  0  0  0
  3  2  1  0  0  0
  2  1  1  0  0  0
  1 11  1  0  0  0
 11 12  1  0  0  0
 12 13  2  0  0  0
 13 14  1  0  0  0
 14 15  1  0  0  0
 15 16  1  0  0  0
 16 17  1  0  0  0
 17 18  1  0  0  0
 18 19  1  0  0  0
M  END
> <minimizedAffinity>
-6.27816

> <CNNscore>
0.6134519577

> <CNNaffinity>
6.1245660782

> <CNN_VS>
3.7571270466

> <CNNaffinity_variance>
0.4368914068

$$$$
/media/chris/experiments/cd1a-new-docking/inputs/ligands/4x6d_2_ligand.pdb


 19 18  0  0  0  0  0  0  0  0999 V2000
  -45.5875   60.1804   65.3741 C   0  0  0  0  0  0  0  0  0  0  0  0
  -45.0995   59.2715   66.4938 C   0  0  0  0  0  0  0  0  0  0  0  0
  -44.9973   57.8188   66.0611 C   0  0  0  0  0  0  0  0  0  0  0  0
  -43.7172   57.5953   65.2727 C   0  0  0  0  0  0  0  0  0  0  0  0
  -42.5322   57.9979   66.1319 C   0  0  0  0  0  0  0  0  0  0  0  0
  -41.4476   58.6789   65.3123 C   0  0  0  0  0  0  0  0  0  0  0  0
  -40.9842   59.9177   66.0375 C   0  0  0  0  0  0  0  0  0  0  0  0
  -41.7879   60.5752   66.7269 O   0  0  0  0  0  0  0  0  0  0  0  0
  -39.8001   60.3087   65.9594 O   0  0  0  0  0  0  0  0  0  0  0  0
  -39.1809   59.8279   65.4461 H   0  0  0  0  0  0  0  0  0  0  0  0
  -47.0975   60.0141   65.2855 C   0  0  0  0  0  0  0  0  0  0  0  0
  -47.7788   61.2988   64.8791 C   0  0  0  0  0  0  0  0  0  0  0  0
  -49.2392   61.3237   64.7002 C   0  0  0  0  0  0  0  0  0  0  0  0
  -49.9989   60.0210   64.7111 C   0  0  0  0  0  0  0  0  0  0  0  0
  -51.0254   59.9852   63.5841 C   0  0  0  0  0  0  0  0  0  0  0  0
  -50.3328   59.7376   62.2441 C   0  0  0  0  0  0  0  0  0  0  0  0
  -50.0514   58.2528   62.0187 C   0  0  0  0  0  0  0  0  0  0  0  0
  -50.9319   57.6670   60.9119 C   0  0  0  0  0  0  0  0  0  0  0  0
  -50.4055   57.9693   59.5113 C   0  0  0  0  0  0  0  0  0  0  0  0
  7  8  2  0  0  0
  7  6  1  0  0  0
  7  9  1  0  0  0
  6  5  1  0  0  0
  9 10  1  0  0  0
  5  4  1  0  0  0
  4  3  1  0  0  0
  3  2  1  0  0  0
  2  1  1  0  0  0
  1 11  1  0  0  0
 11 12  1  0  0  0
 12 13  2  0  0  0
 13 14  1  0  0  0
 14 15  1  0  0  0
 15 16  1  0  0  0
 16 17  1  0  0  0
 17 18  1  0  0  0
 18 19  1  0  0  0
M  END
> <minimizedAffinity>
-6.76043

> <CNNscore>
0.6064944267

> <CNNaffinity>
5.9627571106

> <CNN_VS>
3.6163790226

> <CNNaffinity_variance>
0.2115513533

$$$$
/media/chris/experiments/cd1a-new-docking/inputs/ligands/4x6d_2_ligand.pdb


 19 18  0  0  0  0  0  0  0  0999 V2000
  -39.4761   59.6876   64.1025 C   0  0  0  0  0  0  0  0  0  0  0  0
  -39.2147   58.1877   64.0996 C   0  0  0  0  0  0  0  0  0  0  0  0
  -38.3025   57.7584   62.9631 C   0  0  0  0  0  0  0  0  0  0  0  0
  -38.0029   58.9405   62.0560 C   0  0  0  0  0  0  0  0  0  0  0  0
  -37.3538   58.4322   60.7814 C   0  0  0  0  0  0  0  0  0  0  0  0
  -36.6904   57.0797   60.9876 C   0  0  0  0  0  0  0  0  0  0  0  0
  -35.1938   57.2641   61.0281 C   0  0  0  0  0  0  0  0  0  0  0  0
  -34.5685   57.5280   59.9826 O   0  0  0  0  0  0  0  0  0  0  0  0
  -34.5566   57.1529   62.0970 O   0  0  0  0  0  0  0  0  0  0  0  0
  -35.0088   56.9549   62.8935 H   0  0  0  0  0  0  0  0  0  0  0  0
  -40.9283   59.8903   64.5097 C   0  0  0  0  0  0  0  0  0  0  0  0
  -41.1026   59.8295   66.0082 C   0  0  0  0  0  0  0  0  0  0  0  0
  -41.8822   58.7344   66.6068 C   0  0  0  0  0  0  0  0  0  0  0  0
  -42.6728   57.8216   65.7034 C   0  0  0  0  0  0  0  0  0  0  0  0
  -44.0705   58.3805   65.4605 C   0  0  0  0  0  0  0  0  0  0  0  0
  -45.0835   57.2420   65.3423 C   0  0  0  0  0  0  0  0  0  0  0  0
  -46.2488   57.4185   66.3147 C   0  0  0  0  0  0  0  0  0  0  0  0
  -47.5845   57.5715   65.5825 C   0  0  0  0  0  0  0  0  0  0  0  0
  -47.7507   58.9412   64.9295 C   0  0  0  0  0  0  0  0  0  0  0  0
  7  8  2  0  0  0
  7  6  1  0  0  0
  7  9  1  0  0  0
  6  5  1  0  0  0
  9 10  1  0  0  0
  5  4  1  0  0  0
  4  3  1  0  0  0
  3  2  1  0  0  0
  2  1  1  0  0  0
  1 11  1  0  0  0
 11 12  1  0  0  0
 12 13  2  0  0  0
 13 14  1  0  0  0
 14 15  1  0  0  0
 15 16  1  0  0  0
 16 17  1  0  0  0
 17 18  1  0  0  0
 18 19  1  0  0  0
M  END
> <minimizedAffinity>
-6.03581

> <CNNscore>
0.6044920087

> <CNNaffinity>
5.8135213852

> <CNN_VS>
3.5142271519

> <CNNaffinity_variance>
0.1954097450

$$$$
/media/chris/experiments/cd1a-new-docking/inputs/ligands/4x6d_2_ligand.pdb


 19 18  0  0  0  0  0  0  0  0999 V2000
  -39.9971   59.2292   64.7331 C   0  0  0  0  0  0  0  0  0  0  0  0
  -39.3661   57.9729   64.1488 C   0  0  0  0  0  0  0  0  0  0  0  0
  -37.9210   58.1876   63.7319 C   0  0  0  0  0  0  0  0  0  0  0  0
  -37.7241   57.7640   62.2855 C   0  0  0  0  0  0  0  0  0  0  0  0
  -37.1077   58.9166   61.5135 C   0  0  0  0  0  0  0  0  0  0  0  0
  -38.1340   59.6250   60.6438 C   0  0  0  0  0  0  0  0  0  0  0  0
  -38.5678   60.8976   61.3278 C   0  0  0  0  0  0  0  0  0  0  0  0
  -39.7774   61.1120   61.5389 O   0  0  0  0  0  0  0  0  0  0  0  0
  -37.7340   61.7552   61.6885 O   0  0  0  0  0  0  0  0  0  0  0  0
  -36.8202   61.6122   61.5386 H   0  0  0  0  0  0  0  0  0  0  0  0
  -41.2788   58.8041   65.4349 C   0  0  0  0  0  0  0  0  0  0  0  0
  -41.4967   59.5734   66.7157 C   0  0  0  0  0  0  0  0  0  0  0  0
  -42.7942   60.2215   66.9641 C   0  0  0  0  0  0  0  0  0  0  0  0
  -43.8024   60.2913   65.8447 C   0  0  0  0  0  0  0  0  0  0  0  0
  -45.1667   59.7992   66.3153 C   0  0  0  0  0  0  0  0  0  0  0  0
  -46.2657   60.3170   65.3878 C   0  0  0  0  0  0  0  0  0  0  0  0
  -47.6161   59.6715   65.6955 C   0  0  0  0  0  0  0  0  0  0  0  0
  -48.7067   60.7181   65.9374 C   0  0  0  0  0  0  0  0  0  0  0  0
  -50.1160   60.1615   65.7522 C   0  0  0  0  0  0  0  0  0  0  0  0
  7  8  2  0  0  0
  7  6  1  0  0  0
  7  9  1  0  0  0
  6  5  1  0  0  0
  9 10  1  0  0  0
  5  4  1  0  0  0
  4  3  1  0  0  0
  3  2  1  0  0  0
  2  1  1  0  0  0
  1 11  1  0  0  0
 11 12  1  0  0  0
 12 13  2  0  0  0
 13 14  1  0  0  0
 14 15  1  0  0  0
 15 16  1  0  0  0
 16 17  1  0  0  0
 17 18  1  0  0  0
 18 19  1  0  0  0
M  END
> <minimizedAffinity>
-6.43034

> <CNNscore>
0.5946642160

> <CNNaffinity>
5.5812578201

> <CNN_VS>
3.3189742565

> <CNNaffinity_variance>
0.0423441827

$$$$
