/media/chris/experiments/cd1a-new-docking/inputs/ligands/4x6d_2_ligand.pdb


 19 18  0  0  0  0  0  0  0  0999 V2000
  -46.0868   58.4093   64.8950 C   0  0  0  0  0  0  0  0  0  0  0  0
  -45.0163   57.4773   65.4460 C   0  0  0  0  0  0  0  0  0  0  0  0
  -43.7573   58.2189   65.8618 C   0  0  0  0  0  0  0  0  0  0  0  0
  -44.0582   59.6962   66.0541 C   0  0  0  0  0  0  0  0  0  0  0  0
  -42.9305   60.3301   66.8483 C   0  0  0  0  0  0  0  0  0  0  0  0
  -41.5921   60.1838   66.1419 C   0  0  0  0  0  0  0  0  0  0  0  0
  -41.2440   61.4871   65.4669 C   0  0  0  0  0  0  0  0  0  0  0  0
  -41.7486   61.7732   64.3635 O   0  0  0  0  0  0  0  0  0  0  0  0
  -40.4488   62.2954   65.9912 O   0  0  0  0  0  0  0  0  0  0  0  0
  -40.0591   62.0984   66.8202 H   0  0  0  0  0  0  0  0  0  0  0  0
  -47.3964   58.0440   65.5785 C   0  0  0  0  0  0  0  0  0  0  0  0
  -48.0478   59.2466   66.2181 C   0  0  0  0  0  0  0  0  0  0  0  0
  -49.3372   59.7356   65.7045 C   0  0  0  0  0  0  0  0  0  0  0  0
  -49.8741   59.1653   64.4158 C   0  0  0  0  0  0  0  0  0  0  0  0
  -49.6874   60.1528   63.2692 C   0  0  0  0  0  0  0  0  0  0  0  0
  -50.2342   59.5645   61.9686 C   0  0  0  0  0  0  0  0  0  0  0  0
  -50.4526   58.0562   62.0780 C   0  0  0  0  0  0  0  0  0  0  0  0
  -50.7776   57.4269   60.7208 C   0  0  0  0  0  0  0  0  0  0  0  0
  -50.1854   58.2043   59.5482 C   0  0  0  0  0  0  0  0  0  0  0  0
  7  8  2  0  0  0
  7  6  1  0  0  0
  7  9  1  0  0  0
  6  5  1  0  0  0
  9 10  1  0  0  0
  5  4  1  0  0  0
  4  3  1  0  0  0
  3  2  1  0  0  0
  2  1  1  0  0  0
  1 11  1  0  0  0
 11 12  1  0  0  0
 12 13  2  0  0  0
 13 14  1  0  0  0
 14 15  1  0  0  0
 15 16  1  0  0  0
 16 17  1  0  0  0
 17 18  1  0  0  0
 18 19  1  0  0  0
M  END
> <minimizedAffinity>
-6.60319

> <CNNscore>
0.8527621031

> <CNNaffinity>
6.3607149124

> <CNN_VS>
5.4241766930

> <CNNaffinity_variance>
0.4992233813

$$$$
/media/chris/experiments/cd1a-new-docking/inputs/ligands/4x6d_2_ligand.pdb


 19 18  0  0  0  0  0  0  0  0999 V2000
  -45.8857   59.7536   66.5092 C   0  0  0  0  0  0  0  0  0  0  0  0
  -44.3638   59.7458   66.4657 C   0  0  0  0  0  0  0  0  0  0  0  0
  -43.8208   59.0599   65.2237 C   0  0  0  0  0  0  0  0  0  0  0  0
  -42.6474   58.1657   65.5892 C   0  0  0  0  0  0  0  0  0  0  0  0
  -41.6336   58.9783   66.3741 C   0  0  0  0  0  0  0  0  0  0  0  0
  -40.5925   59.6111   65.4644 C   0  0  0  0  0  0  0  0  0  0  0  0
  -40.4643   61.0754   65.8031 C   0  0  0  0  0  0  0  0  0  0  0  0
  -39.3459   61.6255   65.7831 O   0  0  0  0  0  0  0  0  0  0  0  0
  -41.4639   61.7583   66.1115 O   0  0  0  0  0  0  0  0  0  0  0  0
  -42.3132   61.3629   66.1321 H   0  0  0  0  0  0  0  0  0  0  0  0
  -46.3720   58.8302   65.4016 C   0  0  0  0  0  0  0  0  0  0  0  0
  -47.5908   58.0449   65.8231 C   0  0  0  0  0  0  0  0  0  0  0  0
  -48.7157   57.8884   64.8874 C   0  0  0  0  0  0  0  0  0  0  0  0
  -48.7241   58.6953   63.6134 C   0  0  0  0  0  0  0  0  0  0  0  0
  -50.1454   58.8559   63.0853 C   0  0  0  0  0  0  0  0  0  0  0  0
  -50.3415   58.0123   61.8258 C   0  0  0  0  0  0  0  0  0  0  0  0
  -49.8432   58.7370   60.5764 C   0  0  0  0  0  0  0  0  0  0  0  0
  -49.2790   57.7630   59.5388 C   0  0  0  0  0  0  0  0  0  0  0  0
  -47.7536   57.7082   59.5427 C   0  0  0  0  0  0  0  0  0  0  0  0
  7  8  2  0  0  0
  7  6  1  0  0  0
  7  9  1  0  0  0
  6  5  1  0  0  0
  9 10  1  0  0  0
  5  4  1  0  0  0
  4  3  1  0  0  0
  3  2  1  0  0  0
  2  1  1  0  0  0
  1 11  1  0  0  0
 11 12  1  0  0  0
 12 13  2  0  0  0
 13 14  1  0  0  0
 14 15  1  0  0  0
 15 16  1  0  0  0
 16 17  1  0  0  0
 17 18  1  0  0  0
 18 19  1  0  0  0
M  END
> <minimizedAffinity>
-6.56803

> <CNNscore>
0.8131143451

> <CNNaffinity>
6.3898792267

> <CNN_VS>
5.1957025528

> <CNNaffinity_variance>
0.4040879309

$$$$
/media/chris/experiments/cd1a-new-docking/inputs/ligands/4x6d_2_ligand.pdb


 19 18  0  0  0  0  0  0  0  0999 V2000
  -48.7550   58.9164   65.6519 C   0  0  0  0  0  0  0  0  0  0  0  0
  -47.7488   59.8425   64.9827 C   0  0  0  0  0  0  0  0  0  0  0  0
  -46.8843   60.5855   65.9870 C   0  0  0  0  0  0  0  0  0  0  0  0
  -45.8427   59.6488   66.5766 C   0  0  0  0  0  0  0  0  0  0  0  0
  -44.8013   59.3391   65.5164 C   0  0  0  0  0  0  0  0  0  0  0  0
  -43.6757   60.3614   65.5165 C   0  0  0  0  0  0  0  0  0  0  0  0
  -42.7904   60.1221   66.7142 C   0  0  0  0  0  0  0  0  0  0  0  0
  -42.1438   59.0607   66.8107 O   0  0  0  0  0  0  0  0  0  0  0  0
  -42.6915   60.9705   67.6258 O   0  0  0  0  0  0  0  0  0  0  0  0
  -43.1697   61.7744   67.5714 H   0  0  0  0  0  0  0  0  0  0  0  0
  -49.5833   58.2779   64.5465 C   0  0  0  0  0  0  0  0  0  0  0  0
  -50.4786   59.2852   63.8657 C   0  0  0  0  0  0  0  0  0  0  0  0
  -50.6817   59.2125   62.4100 C   0  0  0  0  0  0  0  0  0  0  0  0
  -49.8237   58.2747   61.5985 C   0  0  0  0  0  0  0  0  0  0  0  0
  -50.5492   57.8406   60.3297 C   0  0  0  0  0  0  0  0  0  0  0  0
  -49.5569   57.6908   59.1766 C   0  0  0  0  0  0  0  0  0  0  0  0
  -48.1106   57.7105   59.6688 C   0  0  0  0  0  0  0  0  0  0  0  0
  -47.1183   57.4395   58.5350 C   0  0  0  0  0  0  0  0  0  0  0  0
  -46.8099   58.6831   57.7053 C   0  0  0  0  0  0  0  0  0  0  0  0
  7  8  2  0  0  0
  7  6  1  0  0  0
  7  9  1  0  0  0
  6  5  1  0  0  0
  9 10  1  0  0  0
  5  4  1  0  0  0
  4  3  1  0  0  0
  3  2  1  0  0  0
  2  1  1  0  0  0
  1 11  1  0  0  0
 11 12  1  0  0  0
 12 13  2  0  0  0
 13 14  1  0  0  0
 14 15  1  0  0  0
 15 16  1  0  0  0
 16 17  1  0  0  0
 17 18  1  0  0  0
 18 19  1  0  0  0
M  END
> <minimizedAffinity>
-7.09485

> <CNNscore>
0.7791627645

> <CNNaffinity>
6.4826440811

> <CNN_VS>
5.0510349274

> <CNNaffinity_variance>
0.4641831815

$$$$
/media/chris/experiments/cd1a-new-docking/inputs/ligands/4x6d_2_ligand.pdb


 19 18  0  0  0  0  0  0  0  0999 V2000
  -44.6433   57.6856   66.0756 C   0  0  0  0  0  0  0  0  0  0  0  0
  -44.5555   58.8840   65.1407 C   0  0  0  0  0  0  0  0  0  0  0  0
  -43.2191   59.6001   65.2366 C   0  0  0  0  0  0  0  0  0  0  0  0
  -43.2303   60.8494   64.3711 C   0  0  0  0  0  0  0  0  0  0  0  0
  -41.8125   61.3780   64.2494 C   0  0  0  0  0  0  0  0  0  0  0  0
  -41.2161   61.7094   65.6082 C   0  0  0  0  0  0  0  0  0  0  0  0
  -39.7943   61.2081   65.6598 C   0  0  0  0  0  0  0  0  0  0  0  0
  -39.5632   59.9832   65.6454 O   0  0  0  0  0  0  0  0  0  0  0  0
  -38.8305   62.0004   65.7220 O   0  0  0  0  0  0  0  0  0  0  0  0
  -38.9838   62.9247   65.7339 H   0  0  0  0  0  0  0  0  0  0  0  0
  -46.0310   57.7029   66.6999 C   0  0  0  0  0  0  0  0  0  0  0  0
  -47.0156   56.8866   65.8974 C   0  0  0  0  0  0  0  0  0  0  0  0
  -48.1987   57.5394   65.3148 C   0  0  0  0  0  0  0  0  0  0  0  0
  -48.5204   58.9581   65.7122 C   0  0  0  0  0  0  0  0  0  0  0  0
  -50.0286   59.1693   65.7867 C   0  0  0  0  0  0  0  0  0  0  0  0
  -50.4431   60.3472   64.9051 C   0  0  0  0  0  0  0  0  0  0  0  0
  -49.7402   60.3136   63.5488 C   0  0  0  0  0  0  0  0  0  0  0  0
  -50.6238   59.6930   62.4636 C   0  0  0  0  0  0  0  0  0  0  0  0
  -50.2957   58.2262   62.1969 C   0  0  0  0  0  0  0  0  0  0  0  0
  7  8  2  0  0  0
  7  6  1  0  0  0
  7  9  1  0  0  0
  6  5  1  0  0  0
  9 10  1  0  0  0
  5  4  1  0  0  0
  4  3  1  0  0  0
  3  2  1  0  0  0
  2  1  1  0  0  0
  1 11  1  0  0  0
 11 12  1  0  0  0
 12 13  2  0  0  0
 13 14  1  0  0  0
 14 15  1  0  0  0
 15 16  1  0  0  0
 16 17  1  0  0  0
 17 18  1  0  0  0
 18 19  1  0  0  0
M  END
> <minimizedAffinity>
-6.42145

> <CNNscore>
0.7600535750

> <CNNaffinity>
6.2972521782

> <CNN_VS>
4.7862491608

> <CNNaffinity_variance>
0.4160123765

$$$$
/media/chris/experiments/cd1a-new-docking/inputs/ligands/4x6d_2_ligand.pdb


 19 18  0  0  0  0  0  0  0  0999 V2000
  -43.8337   60.1112   65.8300 C   0  0  0  0  0  0  0  0  0  0  0  0
  -42.9588   59.9830   64.5906 C   0  0  0  0  0  0  0  0  0  0  0  0
  -42.1028   61.2153   64.3527 C   0  0  0  0  0  0  0  0  0  0  0  0
  -41.5899   61.2292   62.9220 C   0  0  0  0  0  0  0  0  0  0  0  0
  -40.2224   60.5715   62.8818 C   0  0  0  0  0  0  0  0  0  0  0  0
  -39.4547   60.9438   61.6233 C   0  0  0  0  0  0  0  0  0  0  0  0
  -38.5171   59.8178   61.2646 C   0  0  0  0  0  0  0  0  0  0  0  0
  -37.9108   59.8330   60.1756 O   0  0  0  0  0  0  0  0  0  0  0  0
  -38.3345   58.8557   62.0403 O   0  0  0  0  0  0  0  0  0  0  0  0
  -38.7812   58.8262   62.8634 H   0  0  0  0  0  0  0  0  0  0  0  0
  -45.2689   60.2780   65.3523 C   0  0  0  0  0  0  0  0  0  0  0  0
  -46.2624   59.8606   66.4098 C   0  0  0  0  0  0  0  0  0  0  0  0
  -47.6842   60.2043   66.2494 C   0  0  0  0  0  0  0  0  0  0  0  0
  -48.0870   61.1523   65.1479 C   0  0  0  0  0  0  0  0  0  0  0  0
  -49.5814   61.0465   64.8641 C   0  0  0  0  0  0  0  0  0  0  0  0
  -49.9073   59.6907   64.2379 C   0  0  0  0  0  0  0  0  0  0  0  0
  -50.0440   59.7872   62.7192 C   0  0  0  0  0  0  0  0  0  0  0  0
  -50.3681   58.4307   62.0881 C   0  0  0  0  0  0  0  0  0  0  0  0
  -50.1275   58.4036   60.5810 C   0  0  0  0  0  0  0  0  0  0  0  0
  7  8  2  0  0  0
  7  6  1  0  0  0
  7  9  1  0  0  0
  6  5  1  0  0  0
  9 10  1  0  0  0
  5  4  1  0  0  0
  4  3  1  0  0  0
  3  2  1  0  0  0
  2  1  1  0  0  0
  1 11  1  0  0  0
 11 12  1  0  0  0
 12 13  2  0  0  0
 13 14  1  0  0  0
 14 15  1  0  0  0
 15 16  1  0  0  0
 16 17  1  0  0  0
 17 18  1  0  0  0
 18 19  1  0  0  0
M  END
> <minimizedAffinity>
-6.22278

> <CNNscore>
0.7065567970

> <CNNaffinity>
6.0507855415

> <CNN_VS>
4.2752237320

> <CNNaffinity_variance>
0.5872200131

$$$$
/media/chris/experiments/cd1a-new-docking/inputs/ligands/4x6d_2_ligand.pdb


 19 18  0  0  0  0  0  0  0  0999 V2000
  -47.1649   60.3098   65.9165 C   0  0  0  0  0  0  0  0  0  0  0  0
  -46.7195   58.9036   65.5394 C   0  0  0  0  0  0  0  0  0  0  0  0
  -45.7435   58.3137   66.5432 C   0  0  0  0  0  0  0  0  0  0  0  0
  -44.5984   57.6252   65.8188 C   0  0  0  0  0  0  0  0  0  0  0  0
  -44.1526   58.4976   64.6593 C   0  0  0  0  0  0  0  0  0  0  0  0
  -43.1890   59.5842   65.1096 C   0  0  0  0  0  0  0  0  0  0  0  0
  -41.9925   58.9427   65.7672 C   0  0  0  0  0  0  0  0  0  0  0  0
  -41.8387   59.0264   67.0014 O   0  0  0  0  0  0  0  0  0  0  0  0
  -41.1386   58.3254   65.0961 O   0  0  0  0  0  0  0  0  0  0  0  0
  -41.2366   58.2516   64.1672 H   0  0  0  0  0  0  0  0  0  0  0  0
  -47.8345   60.9134   64.6906 C   0  0  0  0  0  0  0  0  0  0  0  0
  -49.2626   61.3138   64.9735 C   0  0  0  0  0  0  0  0  0  0  0  0
  -50.3582   60.3916   64.6347 C   0  0  0  0  0  0  0  0  0  0  0  0
  -50.0524   59.1637   63.8144 C   0  0  0  0  0  0  0  0  0  0  0  0
  -50.7885   59.2088   62.4799 C   0  0  0  0  0  0  0  0  0  0  0  0
  -50.1762   58.2055   61.5026 C   0  0  0  0  0  0  0  0  0  0  0  0
  -49.6625   58.8902   60.2369 C   0  0  0  0  0  0  0  0  0  0  0  0
  -49.1323   57.8795   59.2166 C   0  0  0  0  0  0  0  0  0  0  0  0
  -47.7945   58.2940   58.6095 C   0  0  0  0  0  0  0  0  0  0  0  0
  7  8  2  0  0  0
  7  6  1  0  0  0
  7  9  1  0  0  0
  6  5  1  0  0  0
  9 10  1  0  0  0
  5  4  1  0  0  0
  4  3  1  0  0  0
  3  2  1  0  0  0
  2  1  1  0  0  0
  1 11  1  0  0  0
 11 12  1  0  0  0
 12 13  2  0  0  0
 13 14  1  0  0  0
 14 15  1  0  0  0
 15 16  1  0  0  0
 16 17  1  0  0  0
 17 18  1  0  0  0
 18 19  1  0  0  0
M  END
> <minimizedAffinity>
-6.57023

> <CNNscore>
0.6318950653

> <CNNaffinity>
6.1699767113

> <CNN_VS>
3.8987777233

> <CNNaffinity_variance>
0.4392324388

$$$$
/media/chris/experiments/cd1a-new-docking/inputs/ligands/4x6d_2_ligand.pdb


 19 18  0  0  0  0  0  0  0  0999 V2000
  -49.7997   58.8740   63.5808 C   0  0  0  0  0  0  0  0  0  0  0  0
  -49.8587   58.9347   62.0607 C   0  0  0  0  0  0  0  0  0  0  0  0
  -50.5473   57.7228   61.4564 C   0  0  0  0  0  0  0  0  0  0  0  0
  -50.5006   57.7956   59.9390 C   0  0  0  0  0  0  0  0  0  0  0  0
  -49.0507   57.8425   59.4917 C   0  0  0  0  0  0  0  0  0  0  0  0
  -48.8993   57.4561   58.0290 C   0  0  0  0  0  0  0  0  0  0  0  0
  -48.0559   56.2093   57.9315 C   0  0  0  0  0  0  0  0  0  0  0  0
  -47.7909   55.7202   56.8159 O   0  0  0  0  0  0  0  0  0  0  0  0
  -47.6145   55.6448   58.9549 O   0  0  0  0  0  0  0  0  0  0  0  0
  -47.8029   55.9972   59.8024 H   0  0  0  0  0  0  0  0  0  0  0  0
  -48.3525   58.6014   63.9643 C   0  0  0  0  0  0  0  0  0  0  0  0
  -48.2540   57.7631   65.2162 C   0  0  0  0  0  0  0  0  0  0  0  0
  -47.0373   57.8266   66.0414 C   0  0  0  0  0  0  0  0  0  0  0  0
  -45.8299   58.5559   65.5079 C   0  0  0  0  0  0  0  0  0  0  0  0
  -44.8329   57.5763   64.8986 C   0  0  0  0  0  0  0  0  0  0  0  0
  -43.4384   57.8093   65.4794 C   0  0  0  0  0  0  0  0  0  0  0  0
  -42.8466   59.1389   65.0139 C   0  0  0  0  0  0  0  0  0  0  0  0
  -41.9985   59.7988   66.1041 C   0  0  0  0  0  0  0  0  0  0  0  0
  -42.8397   60.4628   67.1911 C   0  0  0  0  0  0  0  0  0  0  0  0
  7  8  2  0  0  0
  7  6  1  0  0  0
  7  9  1  0  0  0
  6  5  1  0  0  0
  9 10  1  0  0  0
  5  4  1  0  0  0
  4  3  1  0  0  0
  3  2  1  0  0  0
  2  1  1  0  0  0
  1 11  1  0  0  0
 11 12  1  0  0  0
 12 13  2  0  0  0
 13 14  1  0  0  0
 14 15  1  0  0  0
 15 16  1  0  0  0
 16 17  1  0  0  0
 17 18  1  0  0  0
 18 19  1  0  0  0
M  END
> <minimizedAffinity>
-6.87720

> <CNNscore>
0.6276026368

> <CNNaffinity>
6.3288049698

> <CNN_VS>
3.9719746113

> <CNNaffinity_variance>
0.4754961133

$$$$
/media/chris/experiments/cd1a-new-docking/inputs/ligands/4x6d_2_ligand.pdb


 19 18  0  0  0  0  0  0  0  0999 V2000
  -41.7058   59.2168   66.5973 C   0  0  0  0  0  0  0  0  0  0  0  0
  -41.5093   58.8881   65.1238 C   0  0  0  0  0  0  0  0  0  0  0  0
  -40.1525   59.3324   64.6045 C   0  0  0  0  0  0  0  0  0  0  0  0
  -39.2113   58.1426   64.5117 C   0  0  0  0  0  0  0  0  0  0  0  0
  -38.5821   58.1178   63.1304 C   0  0  0  0  0  0  0  0  0  0  0  0
  -38.7695   59.4392   62.4019 C   0  0  0  0  0  0  0  0  0  0  0  0
  -37.4523   60.1732   62.3624 C   0  0  0  0  0  0  0  0  0  0  0  0
  -37.3955   61.3727   62.6967 O   0  0  0  0  0  0  0  0  0  0  0  0
  -36.4040   59.6023   61.9936 O   0  0  0  0  0  0  0  0  0  0  0  0
  -36.4263   58.7011   61.7383 H   0  0  0  0  0  0  0  0  0  0  0  0
  -42.8606   60.2038   66.6878 C   0  0  0  0  0  0  0  0  0  0  0  0
  -43.6474   60.2636   65.4005 C   0  0  0  0  0  0  0  0  0  0  0  0
  -45.1142   60.1512   65.4375 C   0  0  0  0  0  0  0  0  0  0  0  0
  -45.7845   59.7598   66.7304 C   0  0  0  0  0  0  0  0  0  0  0  0
  -47.2716   59.5038   66.5117 C   0  0  0  0  0  0  0  0  0  0  0  0
  -47.9886   60.8084   66.1643 C   0  0  0  0  0  0  0  0  0  0  0  0
  -48.7557   60.6989   64.8474 C   0  0  0  0  0  0  0  0  0  0  0  0
  -50.2677   60.6185   65.0729 C   0  0  0  0  0  0  0  0  0  0  0  0
  -51.0300   60.1597   63.8326 C   0  0  0  0  0  0  0  0  0  0  0  0
  7  8  2  0  0  0
  7  6  1  0  0  0
  7  9  1  0  0  0
  6  5  1  0  0  0
  9 10  1  0  0  0
  5  4  1  0  0  0
  4  3  1  0  0  0
  3  2  1  0  0  0
  2  1  1  0  0  0
  1 11  1  0  0  0
 11 12  1  0  0  0
 12 13  2  0  0  0
 13 14  1  0  0  0
 14 15  1  0  0  0
 15 16  1  0  0  0
 16 17  1  0  0  0
 17 18  1  0  0  0
 18 19  1  0  0  0
M  END
> <minimizedAffinity>
-6.45696

> <CNNscore>
0.6143159866

> <CNNaffinity>
5.8149662018

> <CNN_VS>
3.5722267628

> <CNNaffinity_variance>
0.1108671054

$$$$
/media/chris/experiments/cd1a-new-docking/inputs/ligands/4x6d_2_ligand.pdb


 19 18  0  0  0  0  0  0  0  0999 V2000
  -41.5047   59.3108   66.4761 C   0  0  0  0  0  0  0  0  0  0  0  0
  -40.8759   58.8295   65.1757 C   0  0  0  0  0  0  0  0  0  0  0  0
  -39.8903   59.8321   64.6001 C   0  0  0  0  0  0  0  0  0  0  0  0
  -39.0992   60.4908   65.7182 C   0  0  0  0  0  0  0  0  0  0  0  0
  -37.6385   60.0990   65.5863 C   0  0  0  0  0  0  0  0  0  0  0  0
  -36.7150   61.1705   66.1436 C   0  0  0  0  0  0  0  0  0  0  0  0
  -36.8159   62.4062   65.2844 C   0  0  0  0  0  0  0  0  0  0  0  0
  -36.6631   62.3227   64.0500 O   0  0  0  0  0  0  0  0  0  0  0  0
  -37.0474   63.5265   65.7864 O   0  0  0  0  0  0  0  0  0  0  0  0
  -37.1652   63.6097   66.7122 H   0  0  0  0  0  0  0  0  0  0  0  0
  -43.0109   59.3446   66.2620 C   0  0  0  0  0  0  0  0  0  0  0  0
  -43.3837   58.9632   64.8495 C   0  0  0  0  0  0  0  0  0  0  0  0
  -44.5106   58.0460   64.6161 C   0  0  0  0  0  0  0  0  0  0  0  0
  -45.1295   57.3347   65.7931 C   0  0  0  0  0  0  0  0  0  0  0  0
  -46.5514   57.8288   66.0359 C   0  0  0  0  0  0  0  0  0  0  0  0
  -46.5449   59.0007   67.0172 C   0  0  0  0  0  0  0  0  0  0  0  0
  -46.7731   60.3343   66.3072 C   0  0  0  0  0  0  0  0  0  0  0  0
  -48.2624   60.6626   66.1746 C   0  0  0  0  0  0  0  0  0  0  0  0
  -48.5873   61.4472   64.9062 C   0  0  0  0  0  0  0  0  0  0  0  0
  7  8  2  0  0  0
  7  6  1  0  0  0
  7  9  1  0  0  0
  6  5  1  0  0  0
  9 10  1  0  0  0
  5  4  1  0  0  0
  4  3  1  0  0  0
  3  2  1  0  0  0
  2  1  1  0  0  0
  1 11  1  0  0  0
 11 12  1  0  0  0
 12 13  2  0  0  0
 13 14  1  0  0  0
 14 15  1  0  0  0
 15 16  1  0  0  0
 16 17  1  0  0  0
 17 18  1  0  0  0
 18 19  1  0  0  0
M  END
> <minimizedAffinity>
-6.00497

> <CNNscore>
0.5814325213

> <CNNaffinity>
5.8378882408

> <CNN_VS>
3.3943381310

> <CNNaffinity_variance>
0.1470459551

$$$$
