/media/chris/experiments/cd1a-new-docking/inputs/ligands/4x6d_2_ligand.pdb


 19 18  0  0  0  0  0  0  0  0999 V2000
  -47.4510   58.1195   65.1600 C   0  0  0  0  0  0  0  0  0  0  0  0
  -46.4053   58.9801   65.8556 C   0  0  0  0  0  0  0  0  0  0  0  0
  -45.0788   58.9962   65.1152 C   0  0  0  0  0  0  0  0  0  0  0  0
  -44.4341   60.3683   65.2242 C   0  0  0  0  0  0  0  0  0  0  0  0
  -42.9447   60.2355   64.9626 C   0  0  0  0  0  0  0  0  0  0  0  0
  -42.1321   60.3945   66.2377 C   0  0  0  0  0  0  0  0  0  0  0  0
  -40.9326   61.2641   65.9546 C   0  0  0  0  0  0  0  0  0  0  0  0
  -39.8005   60.7525   65.8524 O   0  0  0  0  0  0  0  0  0  0  0  0
  -41.0467   62.5013   65.8228 O   0  0  0  0  0  0  0  0  0  0  0  0
  -41.8893   62.9045   65.8961 H   0  0  0  0  0  0  0  0  0  0  0  0
  -48.1913   59.0164   64.1786 C   0  0  0  0  0  0  0  0  0  0  0  0
  -49.6883   58.8589   64.2967 C   0  0  0  0  0  0  0  0  0  0  0  0
  -50.5162   58.8344   63.0804 C   0  0  0  0  0  0  0  0  0  0  0  0
  -49.8824   59.1860   61.7578 C   0  0  0  0  0  0  0  0  0  0  0  0
  -49.7854   57.9563   60.8616 C   0  0  0  0  0  0  0  0  0  0  0  0
  -49.1826   58.3329   59.5084 C   0  0  0  0  0  0  0  0  0  0  0  0
  -48.1565   57.3023   59.0398 C   0  0  0  0  0  0  0  0  0  0  0  0
  -46.7571   57.9090   58.9098 C   0  0  0  0  0  0  0  0  0  0  0  0
  -46.5455   58.6368   57.5848 C   0  0  0  0  0  0  0  0  0  0  0  0
  7  8  2  0  0  0
  7  6  1  0  0  0
  7  9  1  0  0  0
  6  5  1  0  0  0
  9 10  1  0  0  0
  5  4  1  0  0  0
  4  3  1  0  0  0
  3  2  1  0  0  0
  2  1  1  0  0  0
  1 11  1  0  0  0
 11 12  1  0  0  0
 12 13  2  0  0  0
 13 14  1  0  0  0
 14 15  1  0  0  0
 15 16  1  0  0  0
 16 17  1  0  0  0
 17 18  1  0  0  0
 18 19  1  0  0  0
M  END
> <minimizedAffinity>
-6.77829

> <CNNscore>
0.8790842295

> <CNNaffinity>
6.6649389267

> <CNN_VS>
5.8590426445

> <CNNaffinity_variance>
0.6617416143

$$$$
/media/chris/experiments/cd1a-new-docking/inputs/ligands/4x6d_2_ligand.pdb


 19 18  0  0  0  0  0  0  0  0999 V2000
  -45.0791   57.6488   64.9450 C   0  0  0  0  0  0  0  0  0  0  0  0
  -43.7635   58.4148   64.9577 C   0  0  0  0  0  0  0  0  0  0  0  0
  -43.7964   59.6125   65.8919 C   0  0  0  0  0  0  0  0  0  0  0  0
  -42.5273   59.6611   66.7268 C   0  0  0  0  0  0  0  0  0  0  0  0
  -41.4091   58.9728   65.9650 C   0  0  0  0  0  0  0  0  0  0  0  0
  -40.1503   59.8242   65.9204 C   0  0  0  0  0  0  0  0  0  0  0  0
  -40.4729   61.1507   65.2787 C   0  0  0  0  0  0  0  0  0  0  0  0
  -40.9743   61.1872   64.1380 O   0  0  0  0  0  0  0  0  0  0  0  0
  -40.2428   62.2279   65.8683 O   0  0  0  0  0  0  0  0  0  0  0  0
  -39.8662   62.2212   66.7262 H   0  0  0  0  0  0  0  0  0  0  0  0
  -46.1887   58.6561   65.2092 C   0  0  0  0  0  0  0  0  0  0  0  0
  -47.3857   58.0105   65.8650 C   0  0  0  0  0  0  0  0  0  0  0  0
  -48.6586   57.9227   65.1319 C   0  0  0  0  0  0  0  0  0  0  0  0
  -48.8057   58.6714   63.8310 C   0  0  0  0  0  0  0  0  0  0  0  0
  -50.1121   59.4573   63.8051 C   0  0  0  0  0  0  0  0  0  0  0  0
  -50.7838   59.3239   62.4385 C   0  0  0  0  0  0  0  0  0  0  0  0
  -50.4556   57.9873   61.7749 C   0  0  0  0  0  0  0  0  0  0  0  0
  -50.2708   58.1315   60.2622 C   0  0  0  0  0  0  0  0  0  0  0  0
  -48.8039   58.1321   59.8400 C   0  0  0  0  0  0  0  0  0  0  0  0
  7  8  2  0  0  0
  7  6  1  0  0  0
  7  9  1  0  0  0
  6  5  1  0  0  0
  9 10  1  0  0  0
  5  4  1  0  0  0
  4  3  1  0  0  0
  3  2  1  0  0  0
  2  1  1  0  0  0
  1 11  1  0  0  0
 11 12  1  0  0  0
 12 13  2  0  0  0
 13 14  1  0  0  0
 14 15  1  0  0  0
 15 16  1  0  0  0
 16 17  1  0  0  0
 17 18  1  0  0  0
 18 19  1  0  0  0
M  END
> <minimizedAffinity>
-6.60790

> <CNNscore>
0.8433419466

> <CNNaffinity>
6.3921017647

> <CNN_VS>
5.3907275200

> <CNNaffinity_variance>
0.4283875823

$$$$
/media/chris/experiments/cd1a-new-docking/inputs/ligands/4x6d_2_ligand.pdb


 19 18  0  0  0  0  0  0  0  0999 V2000
  -50.4647   59.2686   62.5750 C   0  0  0  0  0  0  0  0  0  0  0  0
  -50.0237   57.9330   61.9923 C   0  0  0  0  0  0  0  0  0  0  0  0
  -50.7810   57.5723   60.7255 C   0  0  0  0  0  0  0  0  0  0  0  0
  -50.0746   58.1498   59.5100 C   0  0  0  0  0  0  0  0  0  0  0  0
  -48.5835   57.8967   59.6397 C   0  0  0  0  0  0  0  0  0  0  0  0
  -47.8782   57.9832   58.2956 C   0  0  0  0  0  0  0  0  0  0  0  0
  -48.1757   56.7367   57.4999 C   0  0  0  0  0  0  0  0  0  0  0  0
  -47.8601   55.6180   57.9503 O   0  0  0  0  0  0  0  0  0  0  0  0
  -48.7338   56.7991   56.3838 O   0  0  0  0  0  0  0  0  0  0  0  0
  -48.9787   57.6307   56.0283 H   0  0  0  0  0  0  0  0  0  0  0  0
  -50.0221   59.2925   64.0307 C   0  0  0  0  0  0  0  0  0  0  0  0
  -50.0954   60.6829   64.6149 C   0  0  0  0  0  0  0  0  0  0  0  0
  -48.8597   61.3622   65.0354 C   0  0  0  0  0  0  0  0  0  0  0  0
  -47.5729   60.5768   65.0797 C   0  0  0  0  0  0  0  0  0  0  0  0
  -47.3274   60.0209   66.4781 C   0  0  0  0  0  0  0  0  0  0  0  0
  -45.9042   59.4746   66.5890 C   0  0  0  0  0  0  0  0  0  0  0  0
  -45.8886   57.9490   66.6708 C   0  0  0  0  0  0  0  0  0  0  0  0
  -45.2855   57.3164   65.4140 C   0  0  0  0  0  0  0  0  0  0  0  0
  -44.4330   58.2927   64.6078 C   0  0  0  0  0  0  0  0  0  0  0  0
  7  8  2  0  0  0
  7  6  1  0  0  0
  7  9  1  0  0  0
  6  5  1  0  0  0
  9 10  1  0  0  0
  5  4  1  0  0  0
  4  3  1  0  0  0
  3  2  1  0  0  0
  2  1  1  0  0  0
  1 11  1  0  0  0
 11 12  1  0  0  0
 12 13  2  0  0  0
 13 14  1  0  0  0
 14 15  1  0  0  0
 15 16  1  0  0  0
 16 17  1  0  0  0
 17 18  1  0  0  0
 18 19  1  0  0  0
M  END
> <minimizedAffinity>
-7.24218

> <CNNscore>
0.7584964037

> <CNNaffinity>
6.4036712646

> <CNN_VS>
4.8571615219

> <CNNaffinity_variance>
0.4937713146

$$$$
/media/chris/experiments/cd1a-new-docking/inputs/ligands/4x6d_2_ligand.pdb


 19 18  0  0  0  0  0  0  0  0999 V2000
  -45.1129   59.9499   65.3600 C   0  0  0  0  0  0  0  0  0  0  0  0
  -44.6492   58.5850   64.8702 C   0  0  0  0  0  0  0  0  0  0  0  0
  -43.2561   58.2324   65.3633 C   0  0  0  0  0  0  0  0  0  0  0  0
  -42.5712   59.4667   65.9266 C   0  0  0  0  0  0  0  0  0  0  0  0
  -41.5295   59.9492   64.9333 C   0  0  0  0  0  0  0  0  0  0  0  0
  -40.1255   59.8848   65.5131 C   0  0  0  0  0  0  0  0  0  0  0  0
  -39.6193   61.2876   65.7399 C   0  0  0  0  0  0  0  0  0  0  0  0
  -38.3936   61.5090   65.7885 O   0  0  0  0  0  0  0  0  0  0  0  0
  -40.4088   62.2448   65.8867 O   0  0  0  0  0  0  0  0  0  0  0  0
  -41.3337   62.0985   65.8534 H   0  0  0  0  0  0  0  0  0  0  0  0
  -46.6343   59.9256   65.3858 C   0  0  0  0  0  0  0  0  0  0  0  0
  -47.2232   61.2134   64.8617 C   0  0  0  0  0  0  0  0  0  0  0  0
  -48.6552   61.4912   65.0552 C   0  0  0  0  0  0  0  0  0  0  0  0
  -49.5487   60.3933   65.5757 C   0  0  0  0  0  0  0  0  0  0  0  0
  -50.8248   60.2973   64.7468 C   0  0  0  0  0  0  0  0  0  0  0  0
  -50.4854   60.0358   63.2796 C   0  0  0  0  0  0  0  0  0  0  0  0
  -50.1031   58.5762   63.0389 C   0  0  0  0  0  0  0  0  0  0  0  0
  -49.8489   58.2900   61.5567 C   0  0  0  0  0  0  0  0  0  0  0  0
  -51.0061   57.5541   60.8864 C   0  0  0  0  0  0  0  0  0  0  0  0
  7  8  2  0  0  0
  7  6  1  0  0  0
  7  9  1  0  0  0
  6  5  1  0  0  0
  9 10  1  0  0  0
  5  4  1  0  0  0
  4  3  1  0  0  0
  3  2  1  0  0  0
  2  1  1  0  0  0
  1 11  1  0  0  0
 11 12  1  0  0  0
 12 13  2  0  0  0
 13 14  1  0  0  0
 14 15  1  0  0  0
 15 16  1  0  0  0
 16 17  1  0  0  0
 17 18  1  0  0  0
 18 19  1  0  0  0
M  END
> <minimizedAffinity>
-6.78004

> <CNNscore>
0.7405907512

> <CNNaffinity>
6.0579805374

> <CNN_VS>
4.4864845276

> <CNNaffinity_variance>
0.3217606843

$$$$
/media/chris/experiments/cd1a-new-docking/inputs/ligands/4x6d_2_ligand.pdb


 19 18  0  0  0  0  0  0  0  0999 V2000
  -44.4319   58.5902   64.9638 C   0  0  0  0  0  0  0  0  0  0  0  0
  -43.7852   59.9349   65.2660 C   0  0  0  0  0  0  0  0  0  0  0  0
  -42.4336   59.7912   65.9447 C   0  0  0  0  0  0  0  0  0  0  0  0
  -41.6440   58.6603   65.3063 C   0  0  0  0  0  0  0  0  0  0  0  0
  -40.3637   59.2241   64.7169 C   0  0  0  0  0  0  0  0  0  0  0  0
  -39.3563   58.1287   64.4058 C   0  0  0  0  0  0  0  0  0  0  0  0
  -38.7427   58.3908   63.0529 C   0  0  0  0  0  0  0  0  0  0  0  0
  -38.0342   57.5212   62.5094 O   0  0  0  0  0  0  0  0  0  0  0  0
  -38.9258   59.4742   62.4581 O   0  0  0  0  0  0  0  0  0  0  0  0
  -39.4553   60.1404   62.8504 H   0  0  0  0  0  0  0  0  0  0  0  0
  -45.3380   58.2526   66.1388 C   0  0  0  0  0  0  0  0  0  0  0  0
  -46.2710   59.3922   66.4712 C   0  0  0  0  0  0  0  0  0  0  0  0
  -47.6979   59.2894   66.1266 C   0  0  0  0  0  0  0  0  0  0  0  0
  -48.1588   58.1481   65.2551 C   0  0  0  0  0  0  0  0  0  0  0  0
  -48.5437   58.6496   63.8676 C   0  0  0  0  0  0  0  0  0  0  0  0
  -50.0576   58.8381   63.7733 C   0  0  0  0  0  0  0  0  0  0  0  0
  -50.4546   59.6073   62.5142 C   0  0  0  0  0  0  0  0  0  0  0  0
  -50.0585   58.8581   61.2394 C   0  0  0  0  0  0  0  0  0  0  0  0
  -50.9023   57.6093   60.9974 C   0  0  0  0  0  0  0  0  0  0  0  0
  7  8  2  0  0  0
  7  6  1  0  0  0
  7  9  1  0  0  0
  6  5  1  0  0  0
  9 10  1  0  0  0
  5  4  1  0  0  0
  4  3  1  0  0  0
  3  2  1  0  0  0
  2  1  1  0  0  0
  1 11  1  0  0  0
 11 12  1  0  0  0
 12 13  2  0  0  0
 13 14  1  0  0  0
 14 15  1  0  0  0
 15 16  1  0  0  0
 16 17  1  0  0  0
 17 18  1  0  0  0
 18 19  1  0  0  0
M  END
> <minimizedAffinity>
-6.32003

> <CNNscore>
0.7266932130

> <CNNaffinity>
6.2418355942

> <CNN_VS>
4.5358996391

> <CNNaffinity_variance>
0.4219798446

$$$$
/media/chris/experiments/cd1a-new-docking/inputs/ligands/4x6d_2_ligand.pdb


 19 18  0  0  0  0  0  0  0  0999 V2000
  -48.1740   58.8642   64.5133 C   0  0  0  0  0  0  0  0  0  0  0  0
  -47.6566   59.9407   65.4574 C   0  0  0  0  0  0  0  0  0  0  0  0
  -46.1526   60.1298   65.3559 C   0  0  0  0  0  0  0  0  0  0  0  0
  -45.4685   58.7887   65.1470 C   0  0  0  0  0  0  0  0  0  0  0  0
  -43.9849   59.0213   64.9246 C   0  0  0  0  0  0  0  0  0  0  0  0
  -43.5372   60.3672   65.4721 C   0  0  0  0  0  0  0  0  0  0  0  0
  -42.6591   60.1432   66.6780 C   0  0  0  0  0  0  0  0  0  0  0  0
  -41.8734   59.1760   66.7075 O   0  0  0  0  0  0  0  0  0  0  0  0
  -42.7041   60.9108   67.6628 O   0  0  0  0  0  0  0  0  0  0  0  0
  -43.2882   61.6433   67.6596 H   0  0  0  0  0  0  0  0  0  0  0  0
  -49.6721   58.7404   64.7498 C   0  0  0  0  0  0  0  0  0  0  0  0
  -50.4287   59.9107   64.1688 C   0  0  0  0  0  0  0  0  0  0  0  0
  -51.0636   59.7837   62.8474 C   0  0  0  0  0  0  0  0  0  0  0  0
  -50.7627   58.5689   62.0058 C   0  0  0  0  0  0  0  0  0  0  0  0
  -49.7741   58.9118   60.8968 C   0  0  0  0  0  0  0  0  0  0  0  0
  -49.2088   57.6340   60.2770 C   0  0  0  0  0  0  0  0  0  0  0  0
  -48.6677   57.8795   58.8694 C   0  0  0  0  0  0  0  0  0  0  0  0
  -47.1376   57.9204   58.8455 C   0  0  0  0  0  0  0  0  0  0  0  0
  -46.5821   58.6793   57.6432 C   0  0  0  0  0  0  0  0  0  0  0  0
  7  8  2  0  0  0
  7  6  1  0  0  0
  7  9  1  0  0  0
  6  5  1  0  0  0
  9 10  1  0  0  0
  5  4  1  0  0  0
  4  3  1  0  0  0
  3  2  1  0  0  0
  2  1  1  0  0  0
  1 11  1  0  0  0
 11 12  1  0  0  0
 12 13  2  0  0  0
 13 14  1  0  0  0
 14 15  1  0  0  0
 15 16  1  0  0  0
 16 17  1  0  0  0
 17 18  1  0  0  0
 18 19  1  0  0  0
M  END
> <minimizedAffinity>
-7.12361

> <CNNscore>
0.7045625448

> <CNNaffinity>
6.4837961197

> <CNN_VS>
4.5682396889

> <CNNaffinity_variance>
0.5871220827

$$$$
/media/chris/experiments/cd1a-new-docking/inputs/ligands/4x6d_2_ligand.pdb


 19 18  0  0  0  0  0  0  0  0999 V2000
  -47.6102   58.4399   64.6434 C   0  0  0  0  0  0  0  0  0  0  0  0
  -48.9285   59.0420   65.1100 C   0  0  0  0  0  0  0  0  0  0  0  0
  -50.0636   58.7845   64.1336 C   0  0  0  0  0  0  0  0  0  0  0  0
  -49.5092   58.3354   62.7916 C   0  0  0  0  0  0  0  0  0  0  0  0
  -50.4658   58.7653   61.6940 C   0  0  0  0  0  0  0  0  0  0  0  0
  -51.0159   57.5733   60.9271 C   0  0  0  0  0  0  0  0  0  0  0  0
  -49.9978   57.1295   59.9063 C   0  0  0  0  0  0  0  0  0  0  0  0
  -49.4033   56.0432   60.0486 O   0  0  0  0  0  0  0  0  0  0  0  0
  -49.7291   57.8354   58.9110 O   0  0  0  0  0  0  0  0  0  0  0  0
  -50.1654   58.6552   58.7866 H   0  0  0  0  0  0  0  0  0  0  0  0
  -46.5022   59.3828   65.0894 C   0  0  0  0  0  0  0  0  0  0  0  0
  -45.6136   58.7480   66.1320 C   0  0  0  0  0  0  0  0  0  0  0  0
  -44.2721   59.2999   66.3793 C   0  0  0  0  0  0  0  0  0  0  0  0
  -43.7275   60.3459   65.4391 C   0  0  0  0  0  0  0  0  0  0  0  0
  -42.7484   59.7247   64.4491 C   0  0  0  0  0  0  0  0  0  0  0  0
  -41.6067   59.0344   65.1951 C   0  0  0  0  0  0  0  0  0  0  0  0
  -40.2428   59.4243   64.6276 C   0  0  0  0  0  0  0  0  0  0  0  0
  -39.3259   58.2099   64.4608 C   0  0  0  0  0  0  0  0  0  0  0  0
  -38.6063   58.1889   63.1148 C   0  0  0  0  0  0  0  0  0  0  0  0
  7  8  2  0  0  0
  7  6  1  0  0  0
  7  9  1  0  0  0
  6  5  1  0  0  0
  9 10  1  0  0  0
  5  4  1  0  0  0
  4  3  1  0  0  0
  3  2  1  0  0  0
  2  1  1  0  0  0
  1 11  1  0  0  0
 11 12  1  0  0  0
 12 13  2  0  0  0
 13 14  1  0  0  0
 14 15  1  0  0  0
 15 16  1  0  0  0
 16 17  1  0  0  0
 17 18  1  0  0  0
 18 19  1  0  0  0
M  END
> <minimizedAffinity>
-6.38478

> <CNNscore>
0.6854796410

> <CNNaffinity>
6.2169599533

> <CNN_VS>
4.2615995407

> <CNNaffinity_variance>
0.5413370132

$$$$
/media/chris/experiments/cd1a-new-docking/inputs/ligands/4x6d_2_ligand.pdb


 19 18  0  0  0  0  0  0  0  0999 V2000
  -50.8356   59.5120   62.4474 C   0  0  0  0  0  0  0  0  0  0  0  0
  -50.1989   58.2221   61.9489 C   0  0  0  0  0  0  0  0  0  0  0  0
  -50.9633   57.6062   60.7893 C   0  0  0  0  0  0  0  0  0  0  0  0
  -50.2506   57.8962   59.4786 C   0  0  0  0  0  0  0  0  0  0  0  0
  -48.7516   57.8132   59.7034 C   0  0  0  0  0  0  0  0  0  0  0  0
  -47.9767   57.9890   58.4072 C   0  0  0  0  0  0  0  0  0  0  0  0
  -48.2009   56.7827   57.5296 C   0  0  0  0  0  0  0  0  0  0  0  0
  -48.6766   56.9222   56.3859 O   0  0  0  0  0  0  0  0  0  0  0  0
  -47.9221   55.6318   57.9278 O   0  0  0  0  0  0  0  0  0  0  0  0
  -47.5637   55.5064   58.7844 H   0  0  0  0  0  0  0  0  0  0  0  0
  -50.1462   59.8784   63.7537 C   0  0  0  0  0  0  0  0  0  0  0  0
  -49.8944   58.6629   64.6133 C   0  0  0  0  0  0  0  0  0  0  0  0
  -48.5880   58.4926   65.2688 C   0  0  0  0  0  0  0  0  0  0  0  0
  -47.4568   59.4173   64.8950 C   0  0  0  0  0  0  0  0  0  0  0  0
  -47.0214   60.2505   66.0954 C   0  0  0  0  0  0  0  0  0  0  0  0
  -46.1060   59.4314   67.0051 C   0  0  0  0  0  0  0  0  0  0  0  0
  -44.7018   59.2938   66.4186 C   0  0  0  0  0  0  0  0  0  0  0  0
  -44.3426   57.8330   66.1351 C   0  0  0  0  0  0  0  0  0  0  0  0
  -44.3396   57.5001   64.6454 C   0  0  0  0  0  0  0  0  0  0  0  0
  7  8  2  0  0  0
  7  6  1  0  0  0
  7  9  1  0  0  0
  6  5  1  0  0  0
  9 10  1  0  0  0
  5  4  1  0  0  0
  4  3  1  0  0  0
  3  2  1  0  0  0
  2  1  1  0  0  0
  1 11  1  0  0  0
 11 12  1  0  0  0
 12 13  2  0  0  0
 13 14  1  0  0  0
 14 15  1  0  0  0
 15 16  1  0  0  0
 16 17  1  0  0  0
 17 18  1  0  0  0
 18 19  1  0  0  0
M  END
> <minimizedAffinity>
-7.15879

> <CNNscore>
0.6746567488

> <CNNaffinity>
6.4234528542

> <CNN_VS>
4.3336257935

> <CNNaffinity_variance>
0.3636571467

$$$$
/media/chris/experiments/cd1a-new-docking/inputs/ligands/4x6d_2_ligand.pdb


 19 18  0  0  0  0  0  0  0  0999 V2000
  -43.0702   60.1679   64.6489 C   0  0  0  0  0  0  0  0  0  0  0  0
  -42.2708   60.3751   65.9279 C   0  0  0  0  0  0  0  0  0  0  0  0
  -41.1288   59.3829   66.0675 C   0  0  0  0  0  0  0  0  0  0  0  0
  -40.5205   59.0887   64.7061 C   0  0  0  0  0  0  0  0  0  0  0  0
  -39.0542   58.7396   64.8861 C   0  0  0  0  0  0  0  0  0  0  0  0
  -38.4793   58.0662   63.6501 C   0  0  0  0  0  0  0  0  0  0  0  0
  -37.0033   57.8324   63.8556 C   0  0  0  0  0  0  0  0  0  0  0  0
  -36.5904   57.3546   64.9303 O   0  0  0  0  0  0  0  0  0  0  0  0
  -36.1733   58.1138   62.9652 O   0  0  0  0  0  0  0  0  0  0  0  0
  -36.4642   58.4738   62.1505 H   0  0  0  0  0  0  0  0  0  0  0  0
  -44.2682   59.2988   65.0029 C   0  0  0  0  0  0  0  0  0  0  0  0
  -45.0200   59.8412   66.1947 C   0  0  0  0  0  0  0  0  0  0  0  0
  -46.4789   59.6670   66.2763 C   0  0  0  0  0  0  0  0  0  0  0  0
  -47.2213   59.1474   65.0708 C   0  0  0  0  0  0  0  0  0  0  0  0
  -48.1012   57.9609   65.4486 C   0  0  0  0  0  0  0  0  0  0  0  0
  -49.5700   58.2809   65.1719 C   0  0  0  0  0  0  0  0  0  0  0  0
  -49.7749   58.8175   63.7560 C   0  0  0  0  0  0  0  0  0  0  0  0
  -50.8103   59.9444   63.7173 C   0  0  0  0  0  0  0  0  0  0  0  0
  -50.9451   60.6737   65.0514 C   0  0  0  0  0  0  0  0  0  0  0  0
  7  8  2  0  0  0
  7  6  1  0  0  0
  7  9  1  0  0  0
  6  5  1  0  0  0
  9 10  1  0  0  0
  5  4  1  0  0  0
  4  3  1  0  0  0
  3  2  1  0  0  0
  2  1  1  0  0  0
  1 11  1  0  0  0
 11 12  1  0  0  0
 12 13  2  0  0  0
 13 14  1  0  0  0
 14 15  1  0  0  0
 15 16  1  0  0  0
 16 17  1  0  0  0
 17 18  1  0  0  0
 18 19  1  0  0  0
M  END
> <minimizedAffinity>
-6.16829

> <CNNscore>
0.6148800254

> <CNNaffinity>
6.0293631554

> <CNN_VS>
3.7073349953

> <CNNaffinity_variance>
0.3174826801

$$$$
