/media/chris/experiments/cd1a-new-docking/inputs/ligands/4x6d_2_ligand.pdb


 19 18  0  0  0  0  0  0  0  0999 V2000
  -46.7680   60.3265   65.6931 C   0  0  0  0  0  0  0  0  0  0  0  0
  -45.8631   59.5219   66.6160 C   0  0  0  0  0  0  0  0  0  0  0  0
  -44.3969   59.8865   66.4561 C   0  0  0  0  0  0  0  0  0  0  0  0
  -43.9279   59.5666   65.0461 C   0  0  0  0  0  0  0  0  0  0  0  0
  -42.7241   60.4315   64.7187 C   0  0  0  0  0  0  0  0  0  0  0  0
  -41.7295   60.4715   65.8681 C   0  0  0  0  0  0  0  0  0  0  0  0
  -40.6215   61.4376   65.5299 C   0  0  0  0  0  0  0  0  0  0  0  0
  -39.7218   61.1026   64.7349 O   0  0  0  0  0  0  0  0  0  0  0  0
  -40.5803   62.5785   66.0373 O   0  0  0  0  0  0  0  0  0  0  0  0
  -41.2474   62.8489   66.6372 H   0  0  0  0  0  0  0  0  0  0  0  0
  -47.6010   59.3304   64.8995 C   0  0  0  0  0  0  0  0  0  0  0  0
  -48.7439   58.7795   65.7180 C   0  0  0  0  0  0  0  0  0  0  0  0
  -50.1183   59.2284   65.4445 C   0  0  0  0  0  0  0  0  0  0  0  0
  -50.3348   60.3882   64.5051 C   0  0  0  0  0  0  0  0  0  0  0  0
  -51.1733   59.9617   63.3051 C   0  0  0  0  0  0  0  0  0  0  0  0
  -50.2677   59.5169   62.1570 C   0  0  0  0  0  0  0  0  0  0  0  0
  -50.4290   58.0280   61.8535 C   0  0  0  0  0  0  0  0  0  0  0  0
  -50.6189   57.7681   60.3569 C   0  0  0  0  0  0  0  0  0  0  0  0
  -49.3074   57.4729   59.6339 C   0  0  0  0  0  0  0  0  0  0  0  0
  7  8  2  0  0  0
  7  6  1  0  0  0
  7  9  1  0  0  0
  6  5  1  0  0  0
  9 10  1  0  0  0
  5  4  1  0  0  0
  4  3  1  0  0  0
  3  2  1  0  0  0
  2  1  1  0  0  0
  1 11  1  0  0  0
 11 12  1  0  0  0
 12 13  2  0  0  0
 13 14  1  0  0  0
 14 15  1  0  0  0
 15 16  1  0  0  0
 16 17  1  0  0  0
 17 18  1  0  0  0
 18 19  1  0  0  0
M  END
> <minimizedAffinity>
-6.68246

> <CNNscore>
0.8439694643

> <CNNaffinity>
6.3515510559

> <CNN_VS>
5.3605151176

> <CNNaffinity_variance>
0.6192566156

$$$$
/media/chris/experiments/cd1a-new-docking/inputs/ligands/4x6d_2_ligand.pdb


 19 18  0  0  0  0  0  0  0  0999 V2000
  -44.3072   58.3022   64.5790 C   0  0  0  0  0  0  0  0  0  0  0  0
  -43.6398   59.5864   65.0515 C   0  0  0  0  0  0  0  0  0  0  0  0
  -42.9699   59.4296   66.4061 C   0  0  0  0  0  0  0  0  0  0  0  0
  -41.5314   58.9717   66.2297 C   0  0  0  0  0  0  0  0  0  0  0  0
  -40.9382   59.6655   65.0167 C   0  0  0  0  0  0  0  0  0  0  0  0
  -39.4186   59.6854   65.0660 C   0  0  0  0  0  0  0  0  0  0  0  0
  -38.9628   60.9484   65.7535 C   0  0  0  0  0  0  0  0  0  0  0  0
  -37.8421   60.9938   66.2974 O   0  0  0  0  0  0  0  0  0  0  0  0
  -39.6923   61.9618   65.7958 O   0  0  0  0  0  0  0  0  0  0  0  0
  -40.5381   61.9473   65.3929 H   0  0  0  0  0  0  0  0  0  0  0  0
  -45.6643   58.2225   65.2629 C   0  0  0  0  0  0  0  0  0  0  0  0
  -46.3386   59.5719   65.3265 C   0  0  0  0  0  0  0  0  0  0  0  0
  -47.7994   59.6493   65.4865 C   0  0  0  0  0  0  0  0  0  0  0  0
  -48.6157   58.3872   65.3636 C   0  0  0  0  0  0  0  0  0  0  0  0
  -50.0234   58.7008   64.8685 C   0  0  0  0  0  0  0  0  0  0  0  0
  -49.9769   59.7825   63.7895 C   0  0  0  0  0  0  0  0  0  0  0  0
  -50.9214   59.4664   62.6306 C   0  0  0  0  0  0  0  0  0  0  0  0
  -50.1926   58.7826   61.4710 C   0  0  0  0  0  0  0  0  0  0  0  0
  -50.9457   57.5713   60.9274 C   0  0  0  0  0  0  0  0  0  0  0  0
  7  8  2  0  0  0
  7  6  1  0  0  0
  7  9  1  0  0  0
  6  5  1  0  0  0
  9 10  1  0  0  0
  5  4  1  0  0  0
  4  3  1  0  0  0
  3  2  1  0  0  0
  2  1  1  0  0  0
  1 11  1  0  0  0
 11 12  1  0  0  0
 12 13  2  0  0  0
 13 14  1  0  0  0
 14 15  1  0  0  0
 15 16  1  0  0  0
 16 17  1  0  0  0
 17 18  1  0  0  0
 18 19  1  0  0  0
M  END
> <minimizedAffinity>
-6.51942

> <CNNscore>
0.8191636801

> <CNNaffinity>
6.2934989929

> <CNN_VS>
5.1554059982

> <CNNaffinity_variance>
0.3223562539

$$$$
/media/chris/experiments/cd1a-new-docking/inputs/ligands/4x6d_2_ligand.pdb


 19 18  0  0  0  0  0  0  0  0999 V2000
  -41.8725   59.6655   66.6638 C   0  0  0  0  0  0  0  0  0  0  0  0
  -41.3484   58.7177   65.5938 C   0  0  0  0  0  0  0  0  0  0  0  0
  -40.2599   59.3472   64.7413 C   0  0  0  0  0  0  0  0  0  0  0  0
  -39.0554   58.4236   64.6629 C   0  0  0  0  0  0  0  0  0  0  0  0
  -37.8237   59.1786   65.1295 C   0  0  0  0  0  0  0  0  0  0  0  0
  -38.1895   60.4897   65.8070 C   0  0  0  0  0  0  0  0  0  0  0  0
  -37.4770   61.6220   65.1100 C   0  0  0  0  0  0  0  0  0  0  0  0
  -36.9741   61.4442   63.9834 O   0  0  0  0  0  0  0  0  0  0  0  0
  -37.3731   62.7471   65.6432 O   0  0  0  0  0  0  0  0  0  0  0  0
  -37.7444   62.9005   66.4897 H   0  0  0  0  0  0  0  0  0  0  0  0
  -43.3575   59.8661   66.3989 C   0  0  0  0  0  0  0  0  0  0  0  0
  -43.7889   59.2111   65.1087 C   0  0  0  0  0  0  0  0  0  0  0  0
  -45.0526   58.4588   65.0609 C   0  0  0  0  0  0  0  0  0  0  0  0
  -45.7810   58.1713   66.3498 C   0  0  0  0  0  0  0  0  0  0  0  0
  -47.1741   58.7911   66.3324 C   0  0  0  0  0  0  0  0  0  0  0  0
  -47.0930   60.2662   65.9402 C   0  0  0  0  0  0  0  0  0  0  0  0
  -48.4554   60.9519   66.0329 C   0  0  0  0  0  0  0  0  0  0  0  0
  -49.3001   60.7146   64.7785 C   0  0  0  0  0  0  0  0  0  0  0  0
  -50.7886   60.5687   65.0832 C   0  0  0  0  0  0  0  0  0  0  0  0
  7  8  2  0  0  0
  7  6  1  0  0  0
  7  9  1  0  0  0
  6  5  1  0  0  0
  9 10  1  0  0  0
  5  4  1  0  0  0
  4  3  1  0  0  0
  3  2  1  0  0  0
  2  1  1  0  0  0
  1 11  1  0  0  0
 11 12  1  0  0  0
 12 13  2  0  0  0
 13 14  1  0  0  0
 14 15  1  0  0  0
 15 16  1  0  0  0
 16 17  1  0  0  0
 17 18  1  0  0  0
 18 19  1  0  0  0
M  END
> <minimizedAffinity>
-6.14484

> <CNNscore>
0.7809434533

> <CNNaffinity>
6.0772142410

> <CNN_VS>
4.7459607124

> <CNNaffinity_variance>
0.2612504065

$$$$
/media/chris/experiments/cd1a-new-docking/inputs/ligands/4x6d_2_ligand.pdb


 19 18  0  0  0  0  0  0  0  0999 V2000
  -48.5892   57.8529   65.0854 C   0  0  0  0  0  0  0  0  0  0  0  0
  -47.7031   58.6800   66.0065 C   0  0  0  0  0  0  0  0  0  0  0  0
  -46.3312   58.9454   65.4101 C   0  0  0  0  0  0  0  0  0  0  0  0
  -45.5198   57.6609   65.3695 C   0  0  0  0  0  0  0  0  0  0  0  0
  -44.1995   57.9334   64.6715 C   0  0  0  0  0  0  0  0  0  0  0  0
  -43.0139   57.5011   65.5197 C   0  0  0  0  0  0  0  0  0  0  0  0
  -42.1727   58.7098   65.8466 C   0  0  0  0  0  0  0  0  0  0  0  0
  -42.6765   59.6761   66.4517 O   0  0  0  0  0  0  0  0  0  0  0  0
  -40.9690   58.7689   65.5172 O   0  0  0  0  0  0  0  0  0  0  0  0
  -40.5722   58.0527   65.0617 H   0  0  0  0  0  0  0  0  0  0  0  0
  -48.7777   58.6530   63.8047 C   0  0  0  0  0  0  0  0  0  0  0  0
  -50.1804   59.1996   63.6881 C   0  0  0  0  0  0  0  0  0  0  0  0
  -50.8548   59.2015   62.3802 C   0  0  0  0  0  0  0  0  0  0  0  0
  -50.0569   58.8627   61.1462 C   0  0  0  0  0  0  0  0  0  0  0  0
  -50.4634   57.4992   60.5978 C   0  0  0  0  0  0  0  0  0  0  0  0
  -49.3063   56.8753   59.8180 C   0  0  0  0  0  0  0  0  0  0  0  0
  -48.0238   57.6943   59.9569 C   0  0  0  0  0  0  0  0  0  0  0  0
  -47.0652   57.4559   58.7874 C   0  0  0  0  0  0  0  0  0  0  0  0
  -47.0140   58.6290   57.8123 C   0  0  0  0  0  0  0  0  0  0  0  0
  7  8  2  0  0  0
  7  6  1  0  0  0
  7  9  1  0  0  0
  6  5  1  0  0  0
  9 10  1  0  0  0
  5  4  1  0  0  0
  4  3  1  0  0  0
  3  2  1  0  0  0
  2  1  1  0  0  0
  1 11  1  0  0  0
 11 12  1  0  0  0
 12 13  2  0  0  0
 13 14  1  0  0  0
 14 15  1  0  0  0
 15 16  1  0  0  0
 16 17  1  0  0  0
 17 18  1  0  0  0
 18 19  1  0  0  0
M  END
> <minimizedAffinity>
-6.89124

> <CNNscore>
0.7495227456

> <CNNaffinity>
6.3769340515

> <CNN_VS>
4.7796568871

> <CNNaffinity_variance>
0.2362062484

$$$$
/media/chris/experiments/cd1a-new-docking/inputs/ligands/4x6d_2_ligand.pdb


 19 18  0  0  0  0  0  0  0  0999 V2000
  -47.7626   61.0509   65.1946 C   0  0  0  0  0  0  0  0  0  0  0  0
  -47.5355   59.9813   66.2540 C   0  0  0  0  0  0  0  0  0  0  0  0
  -46.0646   59.7926   66.5842 C   0  0  0  0  0  0  0  0  0  0  0  0
  -45.2675   59.5579   65.3116 C   0  0  0  0  0  0  0  0  0  0  0  0
  -44.0092   60.4062   65.3543 C   0  0  0  0  0  0  0  0  0  0  0  0
  -42.9079   59.8250   64.4818 C   0  0  0  0  0  0  0  0  0  0  0  0
  -41.9970   60.9385   64.0281 C   0  0  0  0  0  0  0  0  0  0  0  0
  -41.5321   60.9330   62.8715 O   0  0  0  0  0  0  0  0  0  0  0  0
  -41.6893   61.8759   64.7945 O   0  0  0  0  0  0  0  0  0  0  0  0
  -42.0285   61.8977   65.6677 H   0  0  0  0  0  0  0  0  0  0  0  0
  -48.7657   60.4901   64.1971 C   0  0  0  0  0  0  0  0  0  0  0  0
  -48.6759   58.9861   64.0991 C   0  0  0  0  0  0  0  0  0  0  0  0
  -49.3774   58.2839   63.0128 C   0  0  0  0  0  0  0  0  0  0  0  0
  -50.3472   59.0536   62.1517 C   0  0  0  0  0  0  0  0  0  0  0  0
  -49.8490   59.1290   60.7125 C   0  0  0  0  0  0  0  0  0  0  0  0
  -49.2999   57.7729   60.2700 C   0  0  0  0  0  0  0  0  0  0  0  0
  -49.2563   57.6498   58.7476 C   0  0  0  0  0  0  0  0  0  0  0  0
  -47.9119   58.1078   58.1764 C   0  0  0  0  0  0  0  0  0  0  0  0
  -46.7336   57.7693   59.0857 C   0  0  0  0  0  0  0  0  0  0  0  0
  7  8  2  0  0  0
  7  6  1  0  0  0
  7  9  1  0  0  0
  6  5  1  0  0  0
  9 10  1  0  0  0
  5  4  1  0  0  0
  4  3  1  0  0  0
  3  2  1  0  0  0
  2  1  1  0  0  0
  1 11  1  0  0  0
 11 12  1  0  0  0
 12 13  2  0  0  0
 13 14  1  0  0  0
 14 15  1  0  0  0
 15 16  1  0  0  0
 16 17  1  0  0  0
 17 18  1  0  0  0
 18 19  1  0  0  0
M  END
> <minimizedAffinity>
-6.63554

> <CNNscore>
0.7232332230

> <CNNaffinity>
6.2254023552

> <CNN_VS>
4.5024180412

> <CNNaffinity_variance>
0.1910639107

$$$$
/media/chris/experiments/cd1a-new-docking/inputs/ligands/4x6d_2_ligand.pdb


 19 18  0  0  0  0  0  0  0  0999 V2000
  -47.9358   58.9282   64.5369 C   0  0  0  0  0  0  0  0  0  0  0  0
  -47.4101   58.3443   65.8410 C   0  0  0  0  0  0  0  0  0  0  0  0
  -46.0027   58.8161   66.1642 C   0  0  0  0  0  0  0  0  0  0  0  0
  -45.7669   60.2000   65.5816 C   0  0  0  0  0  0  0  0  0  0  0  0
  -44.2971   60.3431   65.2296 C   0  0  0  0  0  0  0  0  0  0  0  0
  -43.4577   59.2409   65.8560 C   0  0  0  0  0  0  0  0  0  0  0  0
  -42.5413   59.8448   66.8909 C   0  0  0  0  0  0  0  0  0  0  0  0
  -41.5385   59.2154   67.2805 O   0  0  0  0  0  0  0  0  0  0  0  0
  -42.7683   60.9732   67.3768 O   0  0  0  0  0  0  0  0  0  0  0  0
  -43.5171   61.4619   67.0969 H   0  0  0  0  0  0  0  0  0  0  0  0
  -49.3581   58.4179   64.3566 C   0  0  0  0  0  0  0  0  0  0  0  0
  -50.2155   59.4061   63.6028 C   0  0  0  0  0  0  0  0  0  0  0  0
  -50.7210   59.0597   62.2650 C   0  0  0  0  0  0  0  0  0  0  0  0
  -50.1953   57.8215   61.5832 C   0  0  0  0  0  0  0  0  0  0  0  0
  -50.6475   57.7733   60.1278 C   0  0  0  0  0  0  0  0  0  0  0  0
  -49.4451   57.9118   59.1944 C   0  0  0  0  0  0  0  0  0  0  0  0
  -48.1240   57.7656   59.9482 C   0  0  0  0  0  0  0  0  0  0  0  0
  -46.9299   57.6750   58.9946 C   0  0  0  0  0  0  0  0  0  0  0  0
  -47.0263   58.6536   57.8270 C   0  0  0  0  0  0  0  0  0  0  0  0
  7  8  2  0  0  0
  7  6  1  0  0  0
  7  9  1  0  0  0
  6  5  1  0  0  0
  9 10  1  0  0  0
  5  4  1  0  0  0
  4  3  1  0  0  0
  3  2  1  0  0  0
  2  1  1  0  0  0
  1 11  1  0  0  0
 11 12  1  0  0  0
 12 13  2  0  0  0
 13 14  1  0  0  0
 14 15  1  0  0  0
 15 16  1  0  0  0
 16 17  1  0  0  0
 17 18  1  0  0  0
 18 19  1  0  0  0
M  END
> <minimizedAffinity>
-7.15525

> <CNNscore>
0.7132084370

> <CNNaffinity>
6.3207941055

> <CNN_VS>
4.5080437660

> <CNNaffinity_variance>
0.3533056676

$$$$
/media/chris/experiments/cd1a-new-docking/inputs/ligands/4x6d_2_ligand.pdb


 19 18  0  0  0  0  0  0  0  0999 V2000
  -45.4821   60.4758   65.2760 C   0  0  0  0  0  0  0  0  0  0  0  0
  -44.8245   59.6456   66.3697 C   0  0  0  0  0  0  0  0  0  0  0  0
  -43.3078   59.7206   66.3248 C   0  0  0  0  0  0  0  0  0  0  0  0
  -42.7939   59.1601   65.0088 C   0  0  0  0  0  0  0  0  0  0  0  0
  -41.4392   58.5161   65.2424 C   0  0  0  0  0  0  0  0  0  0  0  0
  -40.3009   59.4954   65.0030 C   0  0  0  0  0  0  0  0  0  0  0  0
  -39.1620   58.7740   64.3264 C   0  0  0  0  0  0  0  0  0  0  0  0
  -38.2537   58.2617   65.0092 O   0  0  0  0  0  0  0  0  0  0  0  0
  -39.1035   58.6801   63.0819 O   0  0  0  0  0  0  0  0  0  0  0  0
  -39.7767   59.0587   62.5514 H   0  0  0  0  0  0  0  0  0  0  0  0
  -46.9750   60.1853   65.3269 C   0  0  0  0  0  0  0  0  0  0  0  0
  -47.2835   58.7680   64.9075 C   0  0  0  0  0  0  0  0  0  0  0  0
  -48.5305   58.4783   64.1820 C   0  0  0  0  0  0  0  0  0  0  0  0
  -49.5755   59.5593   64.0644 C   0  0  0  0  0  0  0  0  0  0  0  0
  -50.4763   59.3106   62.8596 C   0  0  0  0  0  0  0  0  0  0  0  0
  -49.9330   58.1536   62.0215 C   0  0  0  0  0  0  0  0  0  0  0  0
  -50.9148   57.7383   60.9267 C   0  0  0  0  0  0  0  0  0  0  0  0
  -50.2649   57.7565   59.5408 C   0  0  0  0  0  0  0  0  0  0  0  0
  -48.8474   58.3225   59.5564 C   0  0  0  0  0  0  0  0  0  0  0  0
  7  8  2  0  0  0
  7  6  1  0  0  0
  7  9  1  0  0  0
  6  5  1  0  0  0
  9 10  1  0  0  0
  5  4  1  0  0  0
  4  3  1  0  0  0
  3  2  1  0  0  0
  2  1  1  0  0  0
  1 11  1  0  0  0
 11 12  1  0  0  0
 12 13  2  0  0  0
 13 14  1  0  0  0
 14 15  1  0  0  0
 15 16  1  0  0  0
 16 17  1  0  0  0
 17 18  1  0  0  0
 18 19  1  0  0  0
M  END
> <minimizedAffinity>
-6.45405

> <CNNscore>
0.7038650513

> <CNNaffinity>
6.3279662132

> <CNN_VS>
4.4540343285

> <CNNaffinity_variance>
0.4133468568

$$$$
/media/chris/experiments/cd1a-new-docking/inputs/ligands/4x6d_2_ligand.pdb


 19 18  0  0  0  0  0  0  0  0999 V2000
  -49.4757   59.1564   65.3655 C   0  0  0  0  0  0  0  0  0  0  0  0
  -49.5885   58.4380   64.0279 C   0  0  0  0  0  0  0  0  0  0  0  0
  -49.8012   59.3967   62.8686 C   0  0  0  0  0  0  0  0  0  0  0  0
  -50.5102   58.6884   61.7259 C   0  0  0  0  0  0  0  0  0  0  0  0
  -49.4783   57.9709   60.8744 C   0  0  0  0  0  0  0  0  0  0  0  0
  -49.9669   57.7676   59.4490 C   0  0  0  0  0  0  0  0  0  0  0  0
  -48.7807   57.7523   58.5171 C   0  0  0  0  0  0  0  0  0  0  0  0
  -47.8568   58.5752   58.6687 O   0  0  0  0  0  0  0  0  0  0  0  0
  -48.7029   56.9274   57.5821 O   0  0  0  0  0  0  0  0  0  0  0  0
  -49.3873   56.3010   57.4517 H   0  0  0  0  0  0  0  0  0  0  0  0
  -48.0756   58.8933   65.9006 C   0  0  0  0  0  0  0  0  0  0  0  0
  -47.6372   57.4713   65.6450 C   0  0  0  0  0  0  0  0  0  0  0  0
  -46.2136   57.1166   65.7585 C   0  0  0  0  0  0  0  0  0  0  0  0
  -45.1958   58.2190   65.9112 C   0  0  0  0  0  0  0  0  0  0  0  0
  -44.0178   58.0007   64.9681 C   0  0  0  0  0  0  0  0  0  0  0  0
  -42.7531   57.6812   65.7649 C   0  0  0  0  0  0  0  0  0  0  0  0
  -41.8806   58.9201   65.9618 C   0  0  0  0  0  0  0  0  0  0  0  0
  -40.6183   58.8722   65.0970 C   0  0  0  0  0  0  0  0  0  0  0  0
  -40.5467   60.0139   64.0863 C   0  0  0  0  0  0  0  0  0  0  0  0
  7  8  2  0  0  0
  7  6  1  0  0  0
  7  9  1  0  0  0
  6  5  1  0  0  0
  9 10  1  0  0  0
  5  4  1  0  0  0
  4  3  1  0  0  0
  3  2  1  0  0  0
  2  1  1  0  0  0
  1 11  1  0  0  0
 11 12  1  0  0  0
 12 13  2  0  0  0
 13 14  1  0  0  0
 14 15  1  0  0  0
 15 16  1  0  0  0
 16 17  1  0  0  0
 17 18  1  0  0  0
 18 19  1  0  0  0
M  END
> <minimizedAffinity>
-6.37539

> <CNNscore>
0.6881758571

> <CNNaffinity>
6.3627109528

> <CNN_VS>
4.3786640167

> <CNNaffinity_variance>
0.5614579916

$$$$
/media/chris/experiments/cd1a-new-docking/inputs/ligands/4x6d_2_ligand.pdb


 19 18  0  0  0  0  0  0  0  0999 V2000
  -46.1857   58.4643   64.9825 C   0  0  0  0  0  0  0  0  0  0  0  0
  -45.1686   57.5522   65.6545 C   0  0  0  0  0  0  0  0  0  0  0  0
  -43.7713   57.7167   65.0814 C   0  0  0  0  0  0  0  0  0  0  0  0
  -42.7753   57.9860   66.1974 C   0  0  0  0  0  0  0  0  0  0  0  0
  -41.6765   58.8912   65.6701 C   0  0  0  0  0  0  0  0  0  0  0  0
  -41.9326   60.3493   66.0172 C   0  0  0  0  0  0  0  0  0  0  0  0
  -40.6509   61.1283   65.8566 C   0  0  0  0  0  0  0  0  0  0  0  0
  -39.5841   60.5319   65.6116 O   0  0  0  0  0  0  0  0  0  0  0  0
  -40.6312   62.3724   65.9692 O   0  0  0  0  0  0  0  0  0  0  0  0
  -41.4227   62.8387   66.1533 H   0  0  0  0  0  0  0  0  0  0  0  0
  -46.5639   59.5377   65.9928 C   0  0  0  0  0  0  0  0  0  0  0  0
  -46.8887   60.8496   65.3197 C   0  0  0  0  0  0  0  0  0  0  0  0
  -48.2860   61.3054   65.2487 C   0  0  0  0  0  0  0  0  0  0  0  0
  -49.3858   60.3555   65.6518 C   0  0  0  0  0  0  0  0  0  0  0  0
  -50.6747   60.6722   64.9012 C   0  0  0  0  0  0  0  0  0  0  0  0
  -50.7916   59.7948   63.6551 C   0  0  0  0  0  0  0  0  0  0  0  0
  -49.7639   58.6639   63.6612 C   0  0  0  0  0  0  0  0  0  0  0  0
  -49.4822   58.1415   62.2501 C   0  0  0  0  0  0  0  0  0  0  0  0
  -50.7369   58.0612   61.3846 C   0  0  0  0  0  0  0  0  0  0  0  0
  7  8  2  0  0  0
  7  6  1  0  0  0
  7  9  1  0  0  0
  6  5  1  0  0  0
  9 10  1  0  0  0
  5  4  1  0  0  0
  4  3  1  0  0  0
  3  2  1  0  0  0
  2  1  1  0  0  0
  1 11  1  0  0  0
 11 12  1  0  0  0
 12 13  2  0  0  0
 13 14  1  0  0  0
 14 15  1  0  0  0
 15 16  1  0  0  0
 16 17  1  0  0  0
 17 18  1  0  0  0
 18 19  1  0  0  0
M  END
> <minimizedAffinity>
-6.70957

> <CNNscore>
0.6696828604

> <CNNaffinity>
6.0375275612

> <CNN_VS>
4.0432286263

> <CNNaffinity_variance>
0.2475878447

$$$$
