/media/chris/experiments/cd1a-new-docking/inputs/ligands/4x6d_2_ligand.pdb


 19 18  0  0  0  0  0  0  0  0999 V2000
  -45.6107   59.7413   66.2774 C   0  0  0  0  0  0  0  0  0  0  0  0
  -45.1003   58.9485   65.0822 C   0  0  0  0  0  0  0  0  0  0  0  0
  -43.5943   59.0558   64.9130 C   0  0  0  0  0  0  0  0  0  0  0  0
  -42.8878   58.4814   66.1299 C   0  0  0  0  0  0  0  0  0  0  0  0
  -41.6175   59.2733   66.3823 C   0  0  0  0  0  0  0  0  0  0  0  0
  -41.8884   60.7680   66.4458 C   0  0  0  0  0  0  0  0  0  0  0  0
  -40.9299   61.4837   65.5269 C   0  0  0  0  0  0  0  0  0  0  0  0
  -40.9802   61.2882   64.2969 O   0  0  0  0  0  0  0  0  0  0  0  0
  -40.0726   62.2745   65.9746 O   0  0  0  0  0  0  0  0  0  0  0  0
  -40.0189   62.4348   66.8963 H   0  0  0  0  0  0  0  0  0  0  0  0
  -46.9983   59.2118   66.6090 C   0  0  0  0  0  0  0  0  0  0  0  0
  -47.2477   57.8629   65.9780 C   0  0  0  0  0  0  0  0  0  0  0  0
  -48.5158   57.6110   65.2753 C   0  0  0  0  0  0  0  0  0  0  0  0
  -49.6270   58.6245   65.3869 C   0  0  0  0  0  0  0  0  0  0  0  0
  -49.9310   59.2443   64.0275 C   0  0  0  0  0  0  0  0  0  0  0  0
  -49.3873   58.3578   62.9073 C   0  0  0  0  0  0  0  0  0  0  0  0
  -50.4087   58.1726   61.7861 C   0  0  0  0  0  0  0  0  0  0  0  0
  -49.9436   58.8179   60.4782 C   0  0  0  0  0  0  0  0  0  0  0  0
  -50.0752   57.8865   59.2761 C   0  0  0  0  0  0  0  0  0  0  0  0
  7  8  2  0  0  0
  7  6  1  0  0  0
  7  9  1  0  0  0
  6  5  1  0  0  0
  9 10  1  0  0  0
  5  4  1  0  0  0
  4  3  1  0  0  0
  3  2  1  0  0  0
  2  1  1  0  0  0
  1 11  1  0  0  0
 11 12  1  0  0  0
 12 13  2  0  0  0
 13 14  1  0  0  0
 14 15  1  0  0  0
 15 16  1  0  0  0
 16 17  1  0  0  0
 17 18  1  0  0  0
 18 19  1  0  0  0
M  END
> <minimizedAffinity>
-6.57361

> <CNNscore>
0.8434619904

> <CNNaffinity>
6.3793506622

> <CNN_VS>
5.3807396889

> <CNNaffinity_variance>
0.3584903777

$$$$
/media/chris/experiments/cd1a-new-docking/inputs/ligands/4x6d_2_ligand.pdb


 19 18  0  0  0  0  0  0  0  0999 V2000
  -46.6758   59.9374   65.4206 C   0  0  0  0  0  0  0  0  0  0  0  0
  -45.8049   59.4495   66.5701 C   0  0  0  0  0  0  0  0  0  0  0  0
  -44.3486   59.8503   66.4074 C   0  0  0  0  0  0  0  0  0  0  0  0
  -44.1317   60.4986   65.0499 C   0  0  0  0  0  0  0  0  0  0  0  0
  -42.7699   60.0883   64.5193 C   0  0  0  0  0  0  0  0  0  0  0  0
  -41.8625   61.2896   64.3068 C   0  0  0  0  0  0  0  0  0  0  0  0
  -40.7974   61.2997   65.3750 C   0  0  0  0  0  0  0  0  0  0  0  0
  -40.2059   60.2450   65.6772 O   0  0  0  0  0  0  0  0  0  0  0  0
  -40.4928   62.3522   65.9753 O   0  0  0  0  0  0  0  0  0  0  0  0
  -40.9260   63.1553   65.7624 H   0  0  0  0  0  0  0  0  0  0  0  0
  -47.3057   58.7088   64.7807 C   0  0  0  0  0  0  0  0  0  0  0  0
  -48.6304   58.3634   65.4176 C   0  0  0  0  0  0  0  0  0  0  0  0
  -49.8825   58.6900   64.7169 C   0  0  0  0  0  0  0  0  0  0  0  0
  -49.8253   59.5566   63.4840 C   0  0  0  0  0  0  0  0  0  0  0  0
  -50.7056   58.9825   62.3793 C   0  0  0  0  0  0  0  0  0  0  0  0
  -49.8807   58.0861   61.4562 C   0  0  0  0  0  0  0  0  0  0  0  0
  -50.6012   57.8183   60.1356 C   0  0  0  0  0  0  0  0  0  0  0  0
  -49.6188   57.6501   58.9737 C   0  0  0  0  0  0  0  0  0  0  0  0
  -48.1873   58.0265   59.3464 C   0  0  0  0  0  0  0  0  0  0  0  0
  7  8  2  0  0  0
  7  6  1  0  0  0
  7  9  1  0  0  0
  6  5  1  0  0  0
  9 10  1  0  0  0
  5  4  1  0  0  0
  4  3  1  0  0  0
  3  2  1  0  0  0
  2  1  1  0  0  0
  1 11  1  0  0  0
 11 12  1  0  0  0
 12 13  2  0  0  0
 13 14  1  0  0  0
 14 15  1  0  0  0
 15 16  1  0  0  0
 16 17  1  0  0  0
 17 18  1  0  0  0
 18 19  1  0  0  0
M  END
> <minimizedAffinity>
-6.82599

> <CNNscore>
0.8006930947

> <CNNaffinity>
6.4508118629

> <CNN_VS>
5.1651206017

> <CNNaffinity_variance>
0.6949130893

$$$$
/media/chris/experiments/cd1a-new-docking/inputs/ligands/4x6d_2_ligand.pdb


 19 18  0  0  0  0  0  0  0  0999 V2000
  -47.4248   61.0053   65.5507 C   0  0  0  0  0  0  0  0  0  0  0  0
  -46.4845   59.8367   65.2896 C   0  0  0  0  0  0  0  0  0  0  0  0
  -45.0218   60.2441   65.3412 C   0  0  0  0  0  0  0  0  0  0  0  0
  -44.3831   59.7433   66.6262 C   0  0  0  0  0  0  0  0  0  0  0  0
  -42.8752   59.7214   66.4517 C   0  0  0  0  0  0  0  0  0  0  0  0
  -42.2415   61.0420   66.8588 C   0  0  0  0  0  0  0  0  0  0  0  0
  -41.3492   61.5270   65.7434 C   0  0  0  0  0  0  0  0  0  0  0  0
  -40.2009   61.9402   65.9970 O   0  0  0  0  0  0  0  0  0  0  0  0
  -41.7396   61.5288   64.5566 O   0  0  0  0  0  0  0  0  0  0  0  0
  -42.5995   61.2221   64.3457 H   0  0  0  0  0  0  0  0  0  0  0  0
  -48.4566   61.0109   64.4322 C   0  0  0  0  0  0  0  0  0  0  0  0
  -49.8607   60.8574   64.9659 C   0  0  0  0  0  0  0  0  0  0  0  0
  -50.8772   60.1697   64.1540 C   0  0  0  0  0  0  0  0  0  0  0  0
  -50.5582   59.8270   62.7204 C   0  0  0  0  0  0  0  0  0  0  0  0
  -50.1878   58.3540   62.5870 C   0  0  0  0  0  0  0  0  0  0  0  0
  -50.3619   57.8925   61.1403 C   0  0  0  0  0  0  0  0  0  0  0  0
  -49.4028   58.6162   60.1963 C   0  0  0  0  0  0  0  0  0  0  0  0
  -48.4005   57.6540   59.5536 C   0  0  0  0  0  0  0  0  0  0  0  0
  -47.4631   58.3444   58.5664 C   0  0  0  0  0  0  0  0  0  0  0  0
  7  8  2  0  0  0
  7  6  1  0  0  0
  7  9  1  0  0  0
  6  5  1  0  0  0
  9 10  1  0  0  0
  5  4  1  0  0  0
  4  3  1  0  0  0
  3  2  1  0  0  0
  2  1  1  0  0  0
  1 11  1  0  0  0
 11 12  1  0  0  0
 12 13  2  0  0  0
 13 14  1  0  0  0
 14 15  1  0  0  0
 15 16  1  0  0  0
 16 17  1  0  0  0
 17 18  1  0  0  0
 18 19  1  0  0  0
M  END
> <minimizedAffinity>
-7.04898

> <CNNscore>
0.7980288267

> <CNNaffinity>
6.1607379913

> <CNN_VS>
4.9164466858

> <CNNaffinity_variance>
0.4615980983

$$$$
/media/chris/experiments/cd1a-new-docking/inputs/ligands/4x6d_2_ligand.pdb


 19 18  0  0  0  0  0  0  0  0999 V2000
  -48.5469   60.9484   65.0973 C   0  0  0  0  0  0  0  0  0  0  0  0
  -47.5158   60.5659   66.1500 C   0  0  0  0  0  0  0  0  0  0  0  0
  -47.1346   59.0968   66.0843 C   0  0  0  0  0  0  0  0  0  0  0  0
  -45.6644   58.9521   65.7267 C   0  0  0  0  0  0  0  0  0  0  0  0
  -45.0132   60.3231   65.7529 C   0  0  0  0  0  0  0  0  0  0  0  0
  -43.5364   60.2524   65.3983 C   0  0  0  0  0  0  0  0  0  0  0  0
  -42.7355   60.0330   66.6576 C   0  0  0  0  0  0  0  0  0  0  0  0
  -42.1336   58.9561   66.8354 O   0  0  0  0  0  0  0  0  0  0  0  0
  -42.6634   60.9141   67.5405 O   0  0  0  0  0  0  0  0  0  0  0  0
  -43.1088   61.7304   67.4253 H   0  0  0  0  0  0  0  0  0  0  0  0
  -49.5600   59.8149   65.0273 C   0  0  0  0  0  0  0  0  0  0  0  0
  -50.8719   60.2731   64.4369 C   0  0  0  0  0  0  0  0  0  0  0  0
  -51.1779   59.9806   63.0276 C   0  0  0  0  0  0  0  0  0  0  0  0
  -50.0896   59.4251   62.1436 C   0  0  0  0  0  0  0  0  0  0  0  0
  -50.3122   57.9396   61.8820 C   0  0  0  0  0  0  0  0  0  0  0  0
  -50.6113   57.7009   60.4022 C   0  0  0  0  0  0  0  0  0  0  0  0
  -49.6038   58.4115   59.4996 C   0  0  0  0  0  0  0  0  0  0  0  0
  -48.2492   57.6986   59.4846 C   0  0  0  0  0  0  0  0  0  0  0  0
  -47.2819   58.2822   58.4581 C   0  0  0  0  0  0  0  0  0  0  0  0
  7  8  2  0  0  0
  7  6  1  0  0  0
  7  9  1  0  0  0
  6  5  1  0  0  0
  9 10  1  0  0  0
  5  4  1  0  0  0
  4  3  1  0  0  0
  3  2  1  0  0  0
  2  1  1  0  0  0
  1 11  1  0  0  0
 11 12  1  0  0  0
 12 13  2  0  0  0
 13 14  1  0  0  0
 14 15  1  0  0  0
 15 16  1  0  0  0
 16 17  1  0  0  0
 17 18  1  0  0  0
 18 19  1  0  0  0
M  END
> <minimizedAffinity>
-6.97046

> <CNNscore>
0.6681327820

> <CNNaffinity>
6.2508602142

> <CNN_VS>
4.1764044762

> <CNNaffinity_variance>
0.4766681790

$$$$
/media/chris/experiments/cd1a-new-docking/inputs/ligands/4x6d_2_ligand.pdb


 19 18  0  0  0  0  0  0  0  0999 V2000
  -37.9405   57.4774   62.4369 C   0  0  0  0  0  0  0  0  0  0  0  0
  -36.4985   57.7053   62.8688 C   0  0  0  0  0  0  0  0  0  0  0  0
  -35.5045   57.4055   61.7597 C   0  0  0  0  0  0  0  0  0  0  0  0
  -36.2244   57.2992   60.4253 C   0  0  0  0  0  0  0  0  0  0  0  0
  -35.6680   56.1135   59.6577 C   0  0  0  0  0  0  0  0  0  0  0  0
  -35.0455   56.5388   58.3374 C   0  0  0  0  0  0  0  0  0  0  0  0
  -33.6018   56.9102   58.5683 C   0  0  0  0  0  0  0  0  0  0  0  0
  -32.7673   56.0280   58.8495 O   0  0  0  0  0  0  0  0  0  0  0  0
  -33.2179   58.0963   58.4881 O   0  0  0  0  0  0  0  0  0  0  0  0
  -33.8301   58.7738   58.2777 H   0  0  0  0  0  0  0  0  0  0  0  0
  -38.7749   58.5935   63.0483 C   0  0  0  0  0  0  0  0  0  0  0  0
  -39.1558   58.2886   64.4771 C   0  0  0  0  0  0  0  0  0  0  0  0
  -40.3984   58.8459   65.0343 C   0  0  0  0  0  0  0  0  0  0  0  0
  -41.1527   59.8847   64.2429 C   0  0  0  0  0  0  0  0  0  0  0  0
  -42.6252   59.9007   64.6384 C   0  0  0  0  0  0  0  0  0  0  0  0
  -43.0417   58.5358   65.1860 C   0  0  0  0  0  0  0  0  0  0  0  0
  -44.5424   58.2964   65.0267 C   0  0  0  0  0  0  0  0  0  0  0  0
  -45.1314   57.5493   66.2261 C   0  0  0  0  0  0  0  0  0  0  0  0
  -46.5611   57.0720   65.9853 C   0  0  0  0  0  0  0  0  0  0  0  0
  7  8  2  0  0  0
  7  6  1  0  0  0
  7  9  1  0  0  0
  6  5  1  0  0  0
  9 10  1  0  0  0
  5  4  1  0  0  0
  4  3  1  0  0  0
  3  2  1  0  0  0
  2  1  1  0  0  0
  1 11  1  0  0  0
 11 12  1  0  0  0
 12 13  2  0  0  0
 13 14  1  0  0  0
 14 15  1  0  0  0
 15 16  1  0  0  0
 16 17  1  0  0  0
 17 18  1  0  0  0
 18 19  1  0  0  0
M  END
> <minimizedAffinity>
-6.15553

> <CNNscore>
0.6307196021

> <CNNaffinity>
5.5502610207

> <CNN_VS>
3.5006585121

> <CNNaffinity_variance>
0.0586794987

$$$$
/media/chris/experiments/cd1a-new-docking/inputs/ligands/4x6d_2_ligand.pdb


 19 18  0  0  0  0  0  0  0  0999 V2000
  -41.9669   58.5095   66.2469 C   0  0  0  0  0  0  0  0  0  0  0  0
  -41.3293   59.8916   66.2756 C   0  0  0  0  0  0  0  0  0  0  0  0
  -40.6808   60.2609   64.9523 C   0  0  0  0  0  0  0  0  0  0  0  0
  -41.6137   61.1437   64.1396 C   0  0  0  0  0  0  0  0  0  0  0  0
  -41.1731   61.1213   62.6870 C   0  0  0  0  0  0  0  0  0  0  0  0
  -39.8142   60.4600   62.5204 C   0  0  0  0  0  0  0  0  0  0  0  0
  -39.1661   60.9730   61.2585 C   0  0  0  0  0  0  0  0  0  0  0  0
  -39.8141   61.0102   60.1943 O   0  0  0  0  0  0  0  0  0  0  0  0
  -37.9790   61.3624   61.2528 O   0  0  0  0  0  0  0  0  0  0  0  0
  -37.4755   61.3422   62.0427 H   0  0  0  0  0  0  0  0  0  0  0  0
  -43.4738   58.7105   66.1802 C   0  0  0  0  0  0  0  0  0  0  0  0
  -44.0122   58.4489   64.7940 C   0  0  0  0  0  0  0  0  0  0  0  0
  -45.3929   57.9681   64.6278 C   0  0  0  0  0  0  0  0  0  0  0  0
  -46.1686   57.5376   65.8474 C   0  0  0  0  0  0  0  0  0  0  0  0
  -47.6630   57.7613   65.6435 C   0  0  0  0  0  0  0  0  0  0  0  0
  -47.9075   58.5944   64.3855 C   0  0  0  0  0  0  0  0  0  0  0  0
  -49.2903   58.3302   63.7918 C   0  0  0  0  0  0  0  0  0  0  0  0
  -49.3030   58.5123   62.2719 C   0  0  0  0  0  0  0  0  0  0  0  0
  -50.6717   58.2424   61.6523 C   0  0  0  0  0  0  0  0  0  0  0  0
  7  8  2  0  0  0
  7  6  1  0  0  0
  7  9  1  0  0  0
  6  5  1  0  0  0
  9 10  1  0  0  0
  5  4  1  0  0  0
  4  3  1  0  0  0
  3  2  1  0  0  0
  2  1  1  0  0  0
  1 11  1  0  0  0
 11 12  1  0  0  0
 12 13  2  0  0  0
 13 14  1  0  0  0
 14 15  1  0  0  0
 15 16  1  0  0  0
 16 17  1  0  0  0
 17 18  1  0  0  0
 18 19  1  0  0  0
M  END
> <minimizedAffinity>
-6.44395

> <CNNscore>
0.6222734451

> <CNNaffinity>
6.1178417206

> <CNN_VS>
3.8069703579

> <CNNaffinity_variance>
0.3147624135

$$$$
/media/chris/experiments/cd1a-new-docking/inputs/ligands/4x6d_2_ligand.pdb


 19 18  0  0  0  0  0  0  0  0999 V2000
  -40.7549   59.4411   65.6557 C   0  0  0  0  0  0  0  0  0  0  0  0
  -39.8448   58.8883   64.5677 C   0  0  0  0  0  0  0  0  0  0  0  0
  -38.3840   58.8702   64.9846 C   0  0  0  0  0  0  0  0  0  0  0  0
  -37.5798   57.9929   64.0393 C   0  0  0  0  0  0  0  0  0  0  0  0
  -38.3440   57.8418   62.7363 C   0  0  0  0  0  0  0  0  0  0  0  0
  -37.4234   57.9307   61.5296 C   0  0  0  0  0  0  0  0  0  0  0  0
  -37.5850   59.2841   60.8832 C   0  0  0  0  0  0  0  0  0  0  0  0
  -37.3550   60.3200   61.5373 O   0  0  0  0  0  0  0  0  0  0  0  0
  -37.9528   59.3939   59.6943 O   0  0  0  0  0  0  0  0  0  0  0  0
  -38.1305   58.6269   59.1861 H   0  0  0  0  0  0  0  0  0  0  0  0
  -42.1491   58.8872   65.4004 C   0  0  0  0  0  0  0  0  0  0  0  0
  -42.9983   59.8530   64.6093 C   0  0  0  0  0  0  0  0  0  0  0  0
  -44.3105   60.2657   65.1319 C   0  0  0  0  0  0  0  0  0  0  0  0
  -44.8761   59.5512   66.3336 C   0  0  0  0  0  0  0  0  0  0  0  0
  -46.3695   59.8258   66.4715 C   0  0  0  0  0  0  0  0  0  0  0  0
  -46.8413   60.7620   65.3591 C   0  0  0  0  0  0  0  0  0  0  0  0
  -48.2607   61.2687   65.6102 C   0  0  0  0  0  0  0  0  0  0  0  0
  -49.2937   60.5105   64.7727 C   0  0  0  0  0  0  0  0  0  0  0  0
  -49.9827   59.3915   65.5493 C   0  0  0  0  0  0  0  0  0  0  0  0
  7  8  2  0  0  0
  7  6  1  0  0  0
  7  9  1  0  0  0
  6  5  1  0  0  0
  9 10  1  0  0  0
  5  4  1  0  0  0
  4  3  1  0  0  0
  3  2  1  0  0  0
  2  1  1  0  0  0
  1 11  1  0  0  0
 11 12  1  0  0  0
 12 13  2  0  0  0
 13 14  1  0  0  0
 14 15  1  0  0  0
 15 16  1  0  0  0
 16 17  1  0  0  0
 17 18  1  0  0  0
 18 19  1  0  0  0
M  END
> <minimizedAffinity>
-6.51274

> <CNNscore>
0.6145935059

> <CNNaffinity>
5.8135724068

> <CNN_VS>
3.5729837418

> <CNNaffinity_variance>
0.1108741760

$$$$
/media/chris/experiments/cd1a-new-docking/inputs/ligands/4x6d_2_ligand.pdb


 19 18  0  0  0  0  0  0  0  0999 V2000
  -42.8357   58.6084   65.5873 C   0  0  0  0  0  0  0  0  0  0  0  0
  -41.3622   58.8806   65.8564 C   0  0  0  0  0  0  0  0  0  0  0  0
  -40.6065   59.2846   64.6019 C   0  0  0  0  0  0  0  0  0  0  0  0
  -39.3949   58.3877   64.4080 C   0  0  0  0  0  0  0  0  0  0  0  0
  -38.8176   58.6307   63.0251 C   0  0  0  0  0  0  0  0  0  0  0  0
  -37.7860   57.5779   62.6522 C   0  0  0  0  0  0  0  0  0  0  0  0
  -37.3479   57.7985   61.2257 C   0  0  0  0  0  0  0  0  0  0  0  0
  -36.5536   57.0036   60.6862 O   0  0  0  0  0  0  0  0  0  0  0  0
  -37.7634   58.7737   60.5644 O   0  0  0  0  0  0  0  0  0  0  0  0
  -38.3610   59.3823   60.9523 H   0  0  0  0  0  0  0  0  0  0  0  0
  -43.6260   59.7432   66.2224 C   0  0  0  0  0  0  0  0  0  0  0  0
  -44.5287   60.4245   65.2220 C   0  0  0  0  0  0  0  0  0  0  0  0
  -45.9889   60.3088   65.3617 C   0  0  0  0  0  0  0  0  0  0  0  0
  -46.5521   59.3361   66.3672 C   0  0  0  0  0  0  0  0  0  0  0  0
  -47.2371   58.1692   65.6643 C   0  0  0  0  0  0  0  0  0  0  0  0
  -47.9766   58.6603   64.4200 C   0  0  0  0  0  0  0  0  0  0  0  0
  -49.4923   58.5658   64.5885 C   0  0  0  0  0  0  0  0  0  0  0  0
  -50.2356   59.0139   63.3275 C   0  0  0  0  0  0  0  0  0  0  0  0
  -49.9669   58.1108   62.1267 C   0  0  0  0  0  0  0  0  0  0  0  0
  7  8  2  0  0  0
  7  6  1  0  0  0
  7  9  1  0  0  0
  6  5  1  0  0  0
  9 10  1  0  0  0
  5  4  1  0  0  0
  4  3  1  0  0  0
  3  2  1  0  0  0
  2  1  1  0  0  0
  1 11  1  0  0  0
 11 12  1  0  0  0
 12 13  2  0  0  0
 13 14  1  0  0  0
 14 15  1  0  0  0
 15 16  1  0  0  0
 16 17  1  0  0  0
 17 18  1  0  0  0
 18 19  1  0  0  0
M  END
> <minimizedAffinity>
-6.47499

> <CNNscore>
0.6058456898

> <CNNaffinity>
6.1028032303

> <CNN_VS>
3.6973569393

> <CNNaffinity_variance>
0.5046707392

$$$$
/media/chris/experiments/cd1a-new-docking/inputs/ligands/4x6d_2_ligand.pdb


 19 18  0  0  0  0  0  0  0  0999 V2000
  -42.3277   57.7517   65.6999 C   0  0  0  0  0  0  0  0  0  0  0  0
  -41.8830   58.7947   66.7159 C   0  0  0  0  0  0  0  0  0  0  0  0
  -40.8867   59.7842   66.1359 C   0  0  0  0  0  0  0  0  0  0  0  0
  -40.4298   59.3235   64.7614 C   0  0  0  0  0  0  0  0  0  0  0  0
  -38.9124   59.2925   64.7308 C   0  0  0  0  0  0  0  0  0  0  0  0
  -38.3086   60.2134   65.7790 C   0  0  0  0  0  0  0  0  0  0  0  0
  -37.7379   61.4319   65.0970 C   0  0  0  0  0  0  0  0  0  0  0  0
  -37.2606   61.3391   63.9493 O   0  0  0  0  0  0  0  0  0  0  0  0
  -37.7278   62.5454   65.6633 O   0  0  0  0  0  0  0  0  0  0  0  0
  -38.0820   62.6356   66.5261 H   0  0  0  0  0  0  0  0  0  0  0  0
  -43.8386   57.8718   65.5640 C   0  0  0  0  0  0  0  0  0  0  0  0
  -44.2371   59.1451   64.8571 C   0  0  0  0  0  0  0  0  0  0  0  0
  -45.1993   60.0598   65.4918 C   0  0  0  0  0  0  0  0  0  0  0  0
  -45.9331   59.6054   66.7285 C   0  0  0  0  0  0  0  0  0  0  0  0
  -47.4327   59.5210   66.4661 C   0  0  0  0  0  0  0  0  0  0  0  0
  -47.7500   58.3099   65.5891 C   0  0  0  0  0  0  0  0  0  0  0  0
  -48.3484   58.7252   64.2460 C   0  0  0  0  0  0  0  0  0  0  0  0
  -49.8771   58.6434   64.2527 C   0  0  0  0  0  0  0  0  0  0  0  0
  -50.5444   59.9582   63.8577 C   0  0  0  0  0  0  0  0  0  0  0  0
  7  8  2  0  0  0
  7  6  1  0  0  0
  7  9  1  0  0  0
  6  5  1  0  0  0
  9 10  1  0  0  0
  5  4  1  0  0  0
  4  3  1  0  0  0
  3  2  1  0  0  0
  2  1  1  0  0  0
  1 11  1  0  0  0
 11 12  1  0  0  0
 12 13  2  0  0  0
 13 14  1  0  0  0
 14 15  1  0  0  0
 15 16  1  0  0  0
 16 17  1  0  0  0
 17 18  1  0  0  0
 18 19  1  0  0  0
M  END
> <minimizedAffinity>
-6.21866

> <CNNscore>
0.5974516273

> <CNNaffinity>
6.0323576927

> <CNN_VS>
3.6040418148

> <CNNaffinity_variance>
0.1561505347

$$$$
