/media/chris/experiments/cd1a-new-docking/inputs/ligands/1onq_ligand.pdb


 62 62  0  0  0  0  0  0  0  0999 V2000
  -38.3378   59.6679   64.4320 C   0  0  0  0  0  0  0  0  0  0  0  0
  -39.4795   59.4082   65.2865 N   0  0  0  0  0  0  0  0  0  0  0  0
  -40.8661   61.1255   64.7611 O   0  0  0  0  0  0  0  0  0  0  0  0
  -40.6119   60.1172   65.3908 C   0  0  0  0  0  0  0  0  0  0  0  0
  -39.4150   58.6120   65.8619 H   0  0  0  0  0  0  0  0  0  0  0  0
  -41.6141   59.5780   66.3679 C   0  0  0  0  0  0  0  0  0  0  0  0
  -41.9557   58.1627   65.9016 C   0  0  0  0  0  0  0  0  0  0  0  0
  -43.4421   57.8876   66.1157 C   0  0  0  0  0  0  0  0  0  0  0  0
  -44.3967   58.7473   65.3231 C   0  0  0  0  0  0  0  0  0  0  0  0
  -45.8073   58.4472   65.8190 C   0  0  0  0  0  0  0  0  0  0  0  0
  -46.7971   59.5790   65.5124 C   0  0  0  0  0  0  0  0  0  0  0  0
  -48.1943   59.3812   66.1283 C   0  0  0  0  0  0  0  0  0  0  0  0
  -48.8845   58.0858   65.6472 C   0  0  0  0  0  0  0  0  0  0  0  0
  -50.3342   58.3653   65.2408 C   0  0  0  0  0  0  0  0  0  0  0  0
  -50.5458   59.6495   64.4484 C   0  0  0  0  0  0  0  0  0  0  0  0
  -51.0330   59.3806   63.0322 C   0  0  0  0  0  0  0  0  0  0  0  0
  -50.7709   57.9744   62.4881 C   0  0  0  0  0  0  0  0  0  0  0  0
  -50.2789   58.1038   61.0527 C   0  0  0  0  0  0  0  0  0  0  0  0
  -48.7900   57.9566   60.7762 C   0  0  0  0  0  0  0  0  0  0  0  0
  -48.5475   57.2613   59.4272 C   0  0  0  0  0  0  0  0  0  0  0  0
  -47.2538   57.6908   58.7110 C   0  0  0  0  0  0  0  0  0  0  0  0
  -47.0595   57.0125   57.3568 C   0  0  0  0  0  0  0  0  0  0  0  0
  -38.1747   57.5838   65.4447 O   0  0  0  0  0  0  0  0  0  0  0  0
  -37.6859   58.3000   64.3259 C   0  0  0  0  0  0  0  0  0  0  0  0
  -39.1395   57.5056   65.3822 H   0  0  0  0  0  0  0  0  0  0  0  0
  -36.1642   58.4593   64.3631 C   0  0  0  0  0  0  0  0  0  0  0  0
  -35.3405   57.8214   63.5140 C   0  0  0  0  0  0  0  0  0  0  0  0
  -33.8311   58.0325   63.6161 C   0  0  0  0  0  0  0  0  0  0  0  0
  -33.0943   57.9113   62.2743 C   0  0  0  0  0  0  0  0  0  0  0  0
  -33.0297   56.4943   61.6749 C   0  0  0  0  0  0  0  0  0  0  0  0
  -34.1401   56.2949   60.6153 C   0  0  0  0  0  0  0  0  0  0  0  0
  -33.6519   55.8000   59.2303 C   0  0  0  0  0  0  0  0  0  0  0  0
  -34.2627   56.5653   58.0328 C   0  0  0  0  0  0  0  0  0  0  0  0
  -35.8025   56.6668   58.0853 C   0  0  0  0  0  0  0  0  0  0  0  0
  -36.3441   58.0482   57.6984 C   0  0  0  0  0  0  0  0  0  0  0  0
  -37.4327   58.6203   58.6040 C   0  0  0  0  0  0  0  0  0  0  0  0
  -37.3215   58.1737   60.0751 C   0  0  0  0  0  0  0  0  0  0  0  0
  -38.5430   58.4928   60.9504 C   0  0  0  0  0  0  0  0  0  0  0  0
  -39.0611   59.9077   60.6767 C   0  0  0  0  0  0  0  0  0  0  0  0
  -40.3019   60.3322   61.4420 C   0  0  0  0  0  0  0  0  0  0  0  0
  -37.4336   60.8431   64.8680 C   0  0  0  0  0  0  0  0  0  0  0  0
  -37.5142   62.0529   64.0723 O   0  0  0  0  0  0  0  0  0  0  0  0
  -36.7610   63.8697   66.1482 O   0  0  0  0  0  0  0  0  0  0  0  0
  -32.9060   62.8004   64.9673 O   0  0  0  0  0  0  0  0  0  0  0  0
  -35.3159   62.5203   63.1590 O   0  0  0  0  0  0  0  0  0  0  0  0
  -36.3859   63.0030   64.0073 C   0  0  0  0  0  0  0  0  0  0  0  0
  -35.7340   63.3705   65.3481 C   0  0  0  0  0  0  0  0  0  0  0  0
  -34.6407   64.4548   65.2298 C   0  0  0  0  0  0  0  0  0  0  0  0
  -33.5784   63.8845   64.3311 C   0  0  0  0  0  0  0  0  0  0  0  0
  -34.1995   63.4401   63.0192 C   0  0  0  0  0  0  0  0  0  0  0  0
  -37.4583   63.2008   66.2339 H   0  0  0  0  0  0  0  0  0  0  0  0
  -32.5174   63.1061   65.8019 H   0  0  0  0  0  0  0  0  0  0  0  0
  -32.9730   61.5020   62.3464 O   0  0  0  0  0  0  0  0  0  0  0  0
  -32.9801   62.8962   62.2780 C   0  0  0  0  0  0  0  0  0  0  0  0
  -32.1977   61.1591   61.8751 H   0  0  0  0  0  0  0  0  0  0  0  0
  -33.9734   64.8198   66.4592 O   0  0  0  0  0  0  0  0  0  0  0  0
  -32.3697   66.2620   67.8961 O   0  0  0  0  0  0  0  0  0  0  0  0
  -32.8514   66.9229   65.6114 O   0  0  0  0  0  0  0  0  0  0  0  0
  -31.3706   65.0559   66.0540 O   0  0  0  0  0  0  0  0  0  0  0  0
  -32.6019   65.7623   66.5086 S   0  0  0  0  0  0  0  0  0  0  0  0
  -33.1620   66.7255   68.2097 H   0  0  0  0  0  0  0  0  0  0  0  0
  -31.2003   64.2973   66.6339 H   0  0  0  0  0  0  0  0  0  0  0  0
  2  1  1  0  0  0
  2  4  1  0  0  0
  2  5  1  0  0  0
 41 42  1  0  0  0
 41  1  1  0  0  0
 42 46  1  0  0  0
  1 24  1  0  0  0
 23 24  1  0  0  0
 23 25  1  0  0  0
 24 26  1  0  0  0
  3  4  2  0  0  0
 26 27  2  0  0  0
 27 28  1  0  0  0
 43 47  1  0  0  0
 43 51  1  0  0  0
 28 29  1  0  0  0
 56 48  1  0  0  0
 56 60  1  0  0  0
 29 30  1  0  0  0
 57 60  1  0  0  0
 57 61  1  0  0  0
 30 31  1  0  0  0
 44 49  1  0  0  0
 44 52  1  0  0  0
 31 32  1  0  0  0
 45 46  1  0  0  0
 45 50  1  0  0  0
 32 33  1  0  0  0
 53 54  1  0  0  0
 53 55  1  0  0  0
 33 34  1  0  0  0
 34 35  1  0  0  0
 35 36  1  0  0  0
 58 60  1  0  0  0
 36 37  1  0  0  0
 59 60  1  0  0  0
 59 62  1  0  0  0
 37 38  1  0  0  0
 38 39  1  0  0  0
 39 40  1  0  0  0
  4  6  1  0  0  0
  6  7  1  0  0  0
  7  8  1  0  0  0
  8  9  1  0  0  0
  9 10  1  0  0  0
 10 11  1  0  0  0
 11 12  1  0  0  0
 12 13  1  0  0  0
 13 14  1  0  0  0
 14 15  1  0  0  0
 15 16  1  0  0  0
 16 17  1  0  0  0
 17 18  1  0  0  0
 18 19  1  0  0  0
 19 20  1  0  0  0
 20 21  1  0  0  0
 21 22  1  0  0  0
 46 47  1  0  0  0
 47 48  1  0  0  0
 48 49  1  0  0  0
 49 50  1  0  0  0
 50 54  1  0  0  0
M  CHG 1  58  -1
M  END
> <minimizedAffinity>
-10.01909

> <CNNscore>
0.4917296171

> <CNNaffinity>
7.1363840103

> <CNN_VS>
3.5091714859

> <CNNaffinity_variance>
1.4699671268

$$$$
/media/chris/experiments/cd1a-new-docking/inputs/ligands/1onq_ligand.pdb


 62 62  0  0  0  0  0  0  0  0999 V2000
  -36.9398   58.0508   64.0099 C   0  0  0  0  0  0  0  0  0  0  0  0
  -37.1331   57.6438   62.6322 N   0  0  0  0  0  0  0  0  0  0  0  0
  -35.0209   57.1191   61.9912 O   0  0  0  0  0  0  0  0  0  0  0  0
  -36.2089   57.2257   61.7565 C   0  0  0  0  0  0  0  0  0  0  0  0
  -38.0585   57.6790   62.2981 H   0  0  0  0  0  0  0  0  0  0  0  0
  -36.7340   56.8660   60.3983 C   0  0  0  0  0  0  0  0  0  0  0  0
  -36.9556   58.1842   59.6564 C   0  0  0  0  0  0  0  0  0  0  0  0
  -38.2748   58.8146   60.0960 C   0  0  0  0  0  0  0  0  0  0  0  0
  -39.1122   59.4317   59.0021 C   0  0  0  0  0  0  0  0  0  0  0  0
  -40.2824   60.1491   59.6669 C   0  0  0  0  0  0  0  0  0  0  0  0
  -41.6331   59.7980   59.0287 C   0  0  0  0  0  0  0  0  0  0  0  0
  -41.5562   59.4699   57.5263 C   0  0  0  0  0  0  0  0  0  0  0  0
  -42.5928   58.4114   57.0892 C   0  0  0  0  0  0  0  0  0  0  0  0
  -44.0144   58.8854   57.4046 C   0  0  0  0  0  0  0  0  0  0  0  0
  -44.8542   57.9086   58.2187 C   0  0  0  0  0  0  0  0  0  0  0  0
  -46.3418   58.0467   57.9305 C   0  0  0  0  0  0  0  0  0  0  0  0
  -46.9643   56.9437   57.0715 C   0  0  0  0  0  0  0  0  0  0  0  0
  -47.5786   55.9061   58.0016 C   0  0  0  0  0  0  0  0  0  0  0  0
  -47.8291   56.2856   59.4536 C   0  0  0  0  0  0  0  0  0  0  0  0
  -49.2977   56.0474   59.8386 C   0  0  0  0  0  0  0  0  0  0  0  0
  -50.1616   57.3213   59.8806 C   0  0  0  0  0  0  0  0  0  0  0  0
  -49.4063   58.5467   60.3901 C   0  0  0  0  0  0  0  0  0  0  0  0
  -39.0309   57.1219   63.6102 O   0  0  0  0  0  0  0  0  0  0  0  0
  -38.2217   57.5821   64.6765 C   0  0  0  0  0  0  0  0  0  0  0  0
  -38.5894   56.3815   63.1654 H   0  0  0  0  0  0  0  0  0  0  0  0
  -38.8629   58.7543   65.4228 C   0  0  0  0  0  0  0  0  0  0  0  0
  -40.1589   59.0852   65.2906 C   0  0  0  0  0  0  0  0  0  0  0  0
  -40.7242   60.2711   66.0698 C   0  0  0  0  0  0  0  0  0  0  0  0
  -41.9980   59.9438   66.8624 C   0  0  0  0  0  0  0  0  0  0  0  0
  -42.4076   58.4595   66.8827 C   0  0  0  0  0  0  0  0  0  0  0  0
  -43.4289   58.1561   65.7601 C   0  0  0  0  0  0  0  0  0  0  0  0
  -44.4371   57.0211   66.0718 C   0  0  0  0  0  0  0  0  0  0  0  0
  -45.7162   57.0537   65.2026 C   0  0  0  0  0  0  0  0  0  0  0  0
  -46.2857   58.4738   64.9948 C   0  0  0  0  0  0  0  0  0  0  0  0
  -46.7384   59.1538   66.2924 C   0  0  0  0  0  0  0  0  0  0  0  0
  -48.2419   59.3732   66.4462 C   0  0  0  0  0  0  0  0  0  0  0  0
  -49.1050   58.2978   65.7575 C   0  0  0  0  0  0  0  0  0  0  0  0
  -50.4978   58.7649   65.3081 C   0  0  0  0  0  0  0  0  0  0  0  0
  -50.4049   59.6550   64.0654 C   0  0  0  0  0  0  0  0  0  0  0  0
  -51.5522   59.5547   63.0758 C   0  0  0  0  0  0  0  0  0  0  0  0
  -36.5423   59.5299   64.2176 C   0  0  0  0  0  0  0  0  0  0  0  0
  -35.1695   59.8816   63.9096 O   0  0  0  0  0  0  0  0  0  0  0  0
  -33.3279   61.6269   62.5906 O   0  0  0  0  0  0  0  0  0  0  0  0
  -35.4133   64.5634   64.6945 O   0  0  0  0  0  0  0  0  0  0  0  0
  -35.3516   61.6612   65.5482 O   0  0  0  0  0  0  0  0  0  0  0  0
  -34.5266   61.0627   64.5193 C   0  0  0  0  0  0  0  0  0  0  0  0
  -34.1525   62.2000   63.5579 C   0  0  0  0  0  0  0  0  0  0  0  0
  -33.3790   63.3538   64.2329 C   0  0  0  0  0  0  0  0  0  0  0  0
  -34.2931   63.9119   65.2884 C   0  0  0  0  0  0  0  0  0  0  0  0
  -34.7448   62.7995   66.2173 C   0  0  0  0  0  0  0  0  0  0  0  0
  -33.7981   60.8987   62.1551 H   0  0  0  0  0  0  0  0  0  0  0  0
  -35.1024   65.2691   64.1061 H   0  0  0  0  0  0  0  0  0  0  0  0
  -36.9551   63.5787   66.6872 O   0  0  0  0  0  0  0  0  0  0  0  0
  -35.6499   63.5623   67.1822 C   0  0  0  0  0  0  0  0  0  0  0  0
  -37.5279   64.0637   67.3017 H   0  0  0  0  0  0  0  0  0  0  0  0
  -33.0253   64.4654   63.3790 O   0  0  0  0  0  0  0  0  0  0  0  0
  -33.4441   66.9012   64.1588 O   0  0  0  0  0  0  0  0  0  0  0  0
  -31.4349   66.3748   62.9039 O   0  0  0  0  0  0  0  0  0  0  0  0
  -31.6227   65.7278   65.2320 O   0  0  0  0  0  0  0  0  0  0  0  0
  -32.3704   65.8847   63.9522 S   0  0  0  0  0  0  0  0  0  0  0  0
  -33.9425   67.0171   63.3348 H   0  0  0  0  0  0  0  0  0  0  0  0
  -32.2254   65.4084   65.9216 H   0  0  0  0  0  0  0  0  0  0  0  0
  2  1  1  0  0  0
  2  4  1  0  0  0
  2  5  1  0  0  0
 41 42  1  0  0  0
 41  1  1  0  0  0
 42 46  1  0  0  0
  1 24  1  0  0  0
 23 24  1  0  0  0
 23 25  1  0  0  0
 24 26  1  0  0  0
  3  4  2  0  0  0
 26 27  2  0  0  0
 27 28  1  0  0  0
 43 47  1  0  0  0
 43 51  1  0  0  0
 28 29  1  0  0  0
 56 48  1  0  0  0
 56 60  1  0  0  0
 29 30  1  0  0  0
 57 60  1  0  0  0
 57 61  1  0  0  0
 30 31  1  0  0  0
 44 49  1  0  0  0
 44 52  1  0  0  0
 31 32  1  0  0  0
 45 46  1  0  0  0
 45 50  1  0  0  0
 32 33  1  0  0  0
 53 54  1  0  0  0
 53 55  1  0  0  0
 33 34  1  0  0  0
 34 35  1  0  0  0
 35 36  1  0  0  0
 58 60  1  0  0  0
 36 37  1  0  0  0
 59 60  1  0  0  0
 59 62  1  0  0  0
 37 38  1  0  0  0
 38 39  1  0  0  0
 39 40  1  0  0  0
  4  6  1  0  0  0
  6  7  1  0  0  0
  7  8  1  0  0  0
  8  9  1  0  0  0
  9 10  1  0  0  0
 10 11  1  0  0  0
 11 12  1  0  0  0
 12 13  1  0  0  0
 13 14  1  0  0  0
 14 15  1  0  0  0
 15 16  1  0  0  0
 16 17  1  0  0  0
 17 18  1  0  0  0
 18 19  1  0  0  0
 19 20  1  0  0  0
 20 21  1  0  0  0
 21 22  1  0  0  0
 46 47  1  0  0  0
 47 48  1  0  0  0
 48 49  1  0  0  0
 49 50  1  0  0  0
 50 54  1  0  0  0
M  CHG 1  58  -1
M  END
> <minimizedAffinity>
-8.76084

> <CNNscore>
0.4005320072

> <CNNaffinity>
7.1264472008

> <CNN_VS>
2.8543701172

> <CNNaffinity_variance>
0.9690445662

$$$$
/media/chris/experiments/cd1a-new-docking/inputs/ligands/1onq_ligand.pdb


 62 62  0  0  0  0  0  0  0  0999 V2000
  -40.2232   58.8195   64.7779 C   0  0  0  0  0  0  0  0  0  0  0  0
  -41.3043   58.3012   65.5926 N   0  0  0  0  0  0  0  0  0  0  0  0
  -43.0686   59.5390   64.8837 O   0  0  0  0  0  0  0  0  0  0  0  0
  -42.5911   58.6750   65.5931 C   0  0  0  0  0  0  0  0  0  0  0  0
  -41.0631   57.5855   66.2241 H   0  0  0  0  0  0  0  0  0  0  0  0
  -43.4701   57.9334   66.5561 C   0  0  0  0  0  0  0  0  0  0  0  0
  -44.1361   56.8116   65.7590 C   0  0  0  0  0  0  0  0  0  0  0  0
  -45.4907   57.2791   65.2325 C   0  0  0  0  0  0  0  0  0  0  0  0
  -46.2811   58.1841   66.1462 C   0  0  0  0  0  0  0  0  0  0  0  0
  -46.6167   59.4495   65.3637 C   0  0  0  0  0  0  0  0  0  0  0  0
  -48.1277   59.6822   65.2322 C   0  0  0  0  0  0  0  0  0  0  0  0
  -48.9940   58.5191   65.7493 C   0  0  0  0  0  0  0  0  0  0  0  0
  -50.4875   58.6763   65.3885 C   0  0  0  0  0  0  0  0  0  0  0  0
  -50.6645   59.6830   64.2481 C   0  0  0  0  0  0  0  0  0  0  0  0
  -51.3330   59.1283   62.9962 C   0  0  0  0  0  0  0  0  0  0  0  0
  -50.5261   58.0063   62.3596 C   0  0  0  0  0  0  0  0  0  0  0  0
  -51.0822   57.4381   61.0520 C   0  0  0  0  0  0  0  0  0  0  0  0
  -49.9184   56.8845   60.2409 C   0  0  0  0  0  0  0  0  0  0  0  0
  -48.8199   57.8389   59.7965 C   0  0  0  0  0  0  0  0  0  0  0  0
  -47.5863   57.0662   59.3036 C   0  0  0  0  0  0  0  0  0  0  0  0
  -47.0493   57.5260   57.9357 C   0  0  0  0  0  0  0  0  0  0  0  0
  -47.4756   56.6190   56.7836 C   0  0  0  0  0  0  0  0  0  0  0  0
  -38.1147   58.0390   65.3615 O   0  0  0  0  0  0  0  0  0  0  0  0
  -39.2844   57.6295   64.6776 C   0  0  0  0  0  0  0  0  0  0  0  0
  -38.3304   58.2239   66.2889 H   0  0  0  0  0  0  0  0  0  0  0  0
  -39.0125   57.3212   63.2034 C   0  0  0  0  0  0  0  0  0  0  0  0
  -37.9405   57.7915   62.5429 C   0  0  0  0  0  0  0  0  0  0  0  0
  -37.7400   57.4391   61.0702 C   0  0  0  0  0  0  0  0  0  0  0  0
  -38.1463   58.5597   60.1020 C   0  0  0  0  0  0  0  0  0  0  0  0
  -37.2029   58.7813   58.9052 C   0  0  0  0  0  0  0  0  0  0  0  0
  -37.3298   57.6250   57.8843 C   0  0  0  0  0  0  0  0  0  0  0  0
  -36.1339   56.6400   57.8483 C   0  0  0  0  0  0  0  0  0  0  0  0
  -36.3210   55.3839   58.7315 C   0  0  0  0  0  0  0  0  0  0  0  0
  -35.1655   55.1527   59.7291 C   0  0  0  0  0  0  0  0  0  0  0  0
  -34.0830   56.2377   59.6829 C   0  0  0  0  0  0  0  0  0  0  0  0
  -34.1154   57.2669   60.8108 C   0  0  0  0  0  0  0  0  0  0  0  0
  -32.8227   57.3178   61.6489 C   0  0  0  0  0  0  0  0  0  0  0  0
  -32.9652   57.9680   63.0334 C   0  0  0  0  0  0  0  0  0  0  0  0
  -34.4216   58.3483   63.3151 C   0  0  0  0  0  0  0  0  0  0  0  0
  -34.7255   58.8719   64.7077 C   0  0  0  0  0  0  0  0  0  0  0  0
  -39.6117   60.1563   65.2554 C   0  0  0  0  0  0  0  0  0  0  0  0
  -38.8912   60.9306   64.2632 O   0  0  0  0  0  0  0  0  0  0  0  0
  -36.9894   61.3546   62.1701 O   0  0  0  0  0  0  0  0  0  0  0  0
  -35.7250   64.4539   64.6590 O   0  0  0  0  0  0  0  0  0  0  0  0
  -37.2707   62.0584   65.6729 O   0  0  0  0  0  0  0  0  0  0  0  0
  -37.4740   61.2959   64.4585 C   0  0  0  0  0  0  0  0  0  0  0  0
  -36.8244   62.1101   63.3303 C   0  0  0  0  0  0  0  0  0  0  0  0
  -35.3143   62.3599   63.5358 C   0  0  0  0  0  0  0  0  0  0  0  0
  -35.1876   63.1426   64.8135 C   0  0  0  0  0  0  0  0  0  0  0  0
  -35.8844   62.4023   65.9407 C   0  0  0  0  0  0  0  0  0  0  0  0
  -37.9338   61.1875   62.0247 H   0  0  0  0  0  0  0  0  0  0  0  0
  -35.2662   64.9080   63.9350 H   0  0  0  0  0  0  0  0  0  0  0  0
  -34.3901   63.1147   67.6649 O   0  0  0  0  0  0  0  0  0  0  0  0
  -35.6506   63.3516   67.1138 C   0  0  0  0  0  0  0  0  0  0  0  0
  -34.2440   63.7188   68.4096 H   0  0  0  0  0  0  0  0  0  0  0  0
  -34.6569   63.1461   62.5161 O   0  0  0  0  0  0  0  0  0  0  0  0
  -32.4640   63.7260   61.2624 O   0  0  0  0  0  0  0  0  0  0  0  0
  -32.3538   62.5937   63.4060 O   0  0  0  0  0  0  0  0  0  0  0  0
  -32.8933   64.9542   63.3004 O   0  0  0  0  0  0  0  0  0  0  0  0
  -33.0699   63.6378   62.6240 S   0  0  0  0  0  0  0  0  0  0  0  0
  -32.5694   62.8766   60.8060 H   0  0  0  0  0  0  0  0  0  0  0  0
  -33.3572   65.6413   62.7969 H   0  0  0  0  0  0  0  0  0  0  0  0
  2  1  1  0  0  0
  2  4  1  0  0  0
  2  5  1  0  0  0
 41 42  1  0  0  0
 41  1  1  0  0  0
 42 46  1  0  0  0
  1 24  1  0  0  0
 23 24  1  0  0  0
 23 25  1  0  0  0
 24 26  1  0  0  0
  3  4  2  0  0  0
 26 27  2  0  0  0
 27 28  1  0  0  0
 43 47  1  0  0  0
 43 51  1  0  0  0
 28 29  1  0  0  0
 56 48  1  0  0  0
 56 60  1  0  0  0
 29 30  1  0  0  0
 57 60  1  0  0  0
 57 61  1  0  0  0
 30 31  1  0  0  0
 44 49  1  0  0  0
 44 52  1  0  0  0
 31 32  1  0  0  0
 45 46  1  0  0  0
 45 50  1  0  0  0
 32 33  1  0  0  0
 53 54  1  0  0  0
 53 55  1  0  0  0
 33 34  1  0  0  0
 34 35  1  0  0  0
 35 36  1  0  0  0
 58 60  1  0  0  0
 36 37  1  0  0  0
 59 60  1  0  0  0
 59 62  1  0  0  0
 37 38  1  0  0  0
 38 39  1  0  0  0
 39 40  1  0  0  0
  4  6  1  0  0  0
  6  7  1  0  0  0
  7  8  1  0  0  0
  8  9  1  0  0  0
  9 10  1  0  0  0
 10 11  1  0  0  0
 11 12  1  0  0  0
 12 13  1  0  0  0
 13 14  1  0  0  0
 14 15  1  0  0  0
 15 16  1  0  0  0
 16 17  1  0  0  0
 17 18  1  0  0  0
 18 19  1  0  0  0
 19 20  1  0  0  0
 20 21  1  0  0  0
 21 22  1  0  0  0
 46 47  1  0  0  0
 47 48  1  0  0  0
 48 49  1  0  0  0
 49 50  1  0  0  0
 50 54  1  0  0  0
M  CHG 1  58  -1
M  END
> <minimizedAffinity>
-10.37078

> <CNNscore>
0.3832508922

> <CNNaffinity>
7.2062034607

> <CNN_VS>
2.7617838383

> <CNNaffinity_variance>
1.2334868908

$$$$
/media/chris/experiments/cd1a-new-docking/inputs/ligands/1onq_ligand.pdb


 62 62  0  0  0  0  0  0  0  0999 V2000
  -38.6595   59.2398   64.0590 C   0  0  0  0  0  0  0  0  0  0  0  0
  -39.9552   59.0441   64.6787 N   0  0  0  0  0  0  0  0  0  0  0  0
  -41.0241   60.9782   64.1647 O   0  0  0  0  0  0  0  0  0  0  0  0
  -41.0003   59.8827   64.6911 C   0  0  0  0  0  0  0  0  0  0  0  0
  -40.0833   58.1888   65.1490 H   0  0  0  0  0  0  0  0  0  0  0  0
  -42.2128   59.3798   65.4170 C   0  0  0  0  0  0  0  0  0  0  0  0
  -41.9450   57.9099   65.7411 C   0  0  0  0  0  0  0  0  0  0  0  0
  -43.1343   57.3166   66.4924 C   0  0  0  0  0  0  0  0  0  0  0  0
  -44.4621   57.3638   65.7760 C   0  0  0  0  0  0  0  0  0  0  0  0
  -45.5439   56.9955   66.7859 C   0  0  0  0  0  0  0  0  0  0  0  0
  -46.8451   56.5309   66.1183 C   0  0  0  0  0  0  0  0  0  0  0  0
  -47.8813   57.6498   65.9060 C   0  0  0  0  0  0  0  0  0  0  0  0
  -48.2985   57.8090   64.4274 C   0  0  0  0  0  0  0  0  0  0  0  0
  -49.5012   58.7490   64.3039 C   0  0  0  0  0  0  0  0  0  0  0  0
  -49.4009   59.7813   63.1875 C   0  0  0  0  0  0  0  0  0  0  0  0
  -50.1950   59.3771   61.9542 C   0  0  0  0  0  0  0  0  0  0  0  0
  -51.1543   58.1977   62.1305 C   0  0  0  0  0  0  0  0  0  0  0  0
  -51.0119   57.2838   60.9208 C   0  0  0  0  0  0  0  0  0  0  0  0
  -49.6157   56.9730   60.4020 C   0  0  0  0  0  0  0  0  0  0  0  0
  -49.4770   57.3710   58.9241 C   0  0  0  0  0  0  0  0  0  0  0  0
  -48.1134   57.0292   58.2959 C   0  0  0  0  0  0  0  0  0  0  0  0
  -48.2298   56.2878   56.9661 C   0  0  0  0  0  0  0  0  0  0  0  0
  -36.8477   58.0116   64.8366 O   0  0  0  0  0  0  0  0  0  0  0  0
  -38.0532   57.8480   64.1131 C   0  0  0  0  0  0  0  0  0  0  0  0
  -37.0479   58.3295   65.7309 H   0  0  0  0  0  0  0  0  0  0  0  0
  -37.8071   57.3465   62.6882 C   0  0  0  0  0  0  0  0  0  0  0  0
  -37.9600   58.1235   61.6022 C   0  0  0  0  0  0  0  0  0  0  0  0
  -37.6956   57.5480   60.2122 C   0  0  0  0  0  0  0  0  0  0  0  0
  -37.6480   58.6058   59.1001 C   0  0  0  0  0  0  0  0  0  0  0  0
  -36.9207   58.1843   57.8098 C   0  0  0  0  0  0  0  0  0  0  0  0
  -36.0353   56.9398   58.0598 C   0  0  0  0  0  0  0  0  0  0  0  0
  -34.5176   57.1500   57.8272 C   0  0  0  0  0  0  0  0  0  0  0  0
  -33.6178   56.1157   58.5438 C   0  0  0  0  0  0  0  0  0  0  0  0
  -34.2275   55.5682   59.8524 C   0  0  0  0  0  0  0  0  0  0  0  0
  -33.5125   56.0556   61.1183 C   0  0  0  0  0  0  0  0  0  0  0  0
  -34.3860   56.7618   62.1530 C   0  0  0  0  0  0  0  0  0  0  0  0
  -34.1511   58.2829   62.2369 C   0  0  0  0  0  0  0  0  0  0  0  0
  -32.7894   58.7045   62.8094 C   0  0  0  0  0  0  0  0  0  0  0  0
  -31.8749   59.2496   61.7085 C   0  0  0  0  0  0  0  0  0  0  0  0
  -30.5845   59.9060   62.1661 C   0  0  0  0  0  0  0  0  0  0  0  0
  -37.8126   60.3960   64.6376 C   0  0  0  0  0  0  0  0  0  0  0  0
  -36.5616   60.6839   63.9628 O   0  0  0  0  0  0  0  0  0  0  0  0
  -34.2686   61.7809   62.6528 O   0  0  0  0  0  0  0  0  0  0  0  0
  -35.0399   65.0257   65.1578 O   0  0  0  0  0  0  0  0  0  0  0  0
  -36.0076   62.2218   65.7553 O   0  0  0  0  0  0  0  0  0  0  0  0
  -35.5049   61.4813   64.6167 C   0  0  0  0  0  0  0  0  0  0  0  0
  -34.7829   62.5044   63.7281 C   0  0  0  0  0  0  0  0  0  0  0  0
  -33.6120   63.2223   64.4341 C   0  0  0  0  0  0  0  0  0  0  0  0
  -34.2111   63.9547   65.6029 C   0  0  0  0  0  0  0  0  0  0  0  0
  -34.9975   62.9861   66.4676 C   0  0  0  0  0  0  0  0  0  0  0  0
  -34.9913   61.3223   62.1964 H   0  0  0  0  0  0  0  0  0  0  0  0
  -34.5182   65.6313   64.6082 H   0  0  0  0  0  0  0  0  0  0  0  0
  -34.4885   64.7541   67.9935 O   0  0  0  0  0  0  0  0  0  0  0  0
  -35.5174   63.9146   67.5629 C   0  0  0  0  0  0  0  0  0  0  0  0
  -34.8212   65.3427   68.6890 H   0  0  0  0  0  0  0  0  0  0  0  0
  -32.9136   64.2174   63.6517 O   0  0  0  0  0  0  0  0  0  0  0  0
  -30.5734   63.1071   63.7393 O   0  0  0  0  0  0  0  0  0  0  0  0
  -30.8439   65.2429   62.6194 O   0  0  0  0  0  0  0  0  0  0  0  0
  -31.6346   63.2068   61.5689 O   0  0  0  0  0  0  0  0  0  0  0  0
  -31.4749   63.9185   62.8688 S   0  0  0  0  0  0  0  0  0  0  0  0
  -30.4574   63.5555   64.5916 H   0  0  0  0  0  0  0  0  0  0  0  0
  -32.0455   62.3417   61.7223 H   0  0  0  0  0  0  0  0  0  0  0  0
  2  1  1  0  0  0
  2  4  1  0  0  0
  2  5  1  0  0  0
 41 42  1  0  0  0
 41  1  1  0  0  0
 42 46  1  0  0  0
  1 24  1  0  0  0
 23 24  1  0  0  0
 23 25  1  0  0  0
 24 26  1  0  0  0
  3  4  2  0  0  0
 26 27  2  0  0  0
 27 28  1  0  0  0
 43 47  1  0  0  0
 43 51  1  0  0  0
 28 29  1  0  0  0
 56 48  1  0  0  0
 56 60  1  0  0  0
 29 30  1  0  0  0
 57 60  1  0  0  0
 57 61  1  0  0  0
 30 31  1  0  0  0
 44 49  1  0  0  0
 44 52  1  0  0  0
 31 32  1  0  0  0
 45 46  1  0  0  0
 45 50  1  0  0  0
 32 33  1  0  0  0
 53 54  1  0  0  0
 53 55  1  0  0  0
 33 34  1  0  0  0
 34 35  1  0  0  0
 35 36  1  0  0  0
 58 60  1  0  0  0
 36 37  1  0  0  0
 59 60  1  0  0  0
 59 62  1  0  0  0
 37 38  1  0  0  0
 38 39  1  0  0  0
 39 40  1  0  0  0
  4  6  1  0  0  0
  6  7  1  0  0  0
  7  8  1  0  0  0
  8  9  1  0  0  0
  9 10  1  0  0  0
 10 11  1  0  0  0
 11 12  1  0  0  0
 12 13  1  0  0  0
 13 14  1  0  0  0
 14 15  1  0  0  0
 15 16  1  0  0  0
 16 17  1  0  0  0
 17 18  1  0  0  0
 18 19  1  0  0  0
 19 20  1  0  0  0
 20 21  1  0  0  0
 21 22  1  0  0  0
 46 47  1  0  0  0
 47 48  1  0  0  0
 48 49  1  0  0  0
 49 50  1  0  0  0
 50 54  1  0  0  0
M  CHG 1  58  -1
M  END
> <minimizedAffinity>
-9.46606

> <CNNscore>
0.3643984795

> <CNNaffinity>
7.0860610008

> <CNN_VS>
2.5821497440

> <CNNaffinity_variance>
0.6885615587

$$$$
/media/chris/experiments/cd1a-new-docking/inputs/ligands/1onq_ligand.pdb


 62 62  0  0  0  0  0  0  0  0999 V2000
  -35.0198   57.6070   63.0702 C   0  0  0  0  0  0  0  0  0  0  0  0
  -36.0804   57.5546   62.0835 N   0  0  0  0  0  0  0  0  0  0  0  0
  -35.1504   56.2788   60.4541 O   0  0  0  0  0  0  0  0  0  0  0  0
  -36.0776   56.9264   60.8999 C   0  0  0  0  0  0  0  0  0  0  0  0
  -36.9053   58.0413   62.3112 H   0  0  0  0  0  0  0  0  0  0  0  0
  -37.3436   57.0565   60.1060 C   0  0  0  0  0  0  0  0  0  0  0  0
  -37.0911   58.1456   59.0632 C   0  0  0  0  0  0  0  0  0  0  0  0
  -38.3386   59.0103   58.8997 C   0  0  0  0  0  0  0  0  0  0  0  0
  -38.8366   59.6990   60.1472 C   0  0  0  0  0  0  0  0  0  0  0  0
  -40.2537   60.1890   59.8685 C   0  0  0  0  0  0  0  0  0  0  0  0
  -40.7884   59.7158   58.5102 C   0  0  0  0  0  0  0  0  0  0  0  0
  -42.2948   59.3969   58.5000 C   0  0  0  0  0  0  0  0  0  0  0  0
  -42.7347   58.6168   57.2416 C   0  0  0  0  0  0  0  0  0  0  0  0
  -44.2556   58.4396   57.2204 C   0  0  0  0  0  0  0  0  0  0  0  0
  -44.8700   57.9825   58.5379 C   0  0  0  0  0  0  0  0  0  0  0  0
  -46.3901   57.9431   58.4831 C   0  0  0  0  0  0  0  0  0  0  0  0
  -47.0197   56.5598   58.3039 C   0  0  0  0  0  0  0  0  0  0  0  0
  -48.1699   56.4288   59.2932 C   0  0  0  0  0  0  0  0  0  0  0  0
  -49.4511   57.2057   59.0289 C   0  0  0  0  0  0  0  0  0  0  0  0
  -50.3797   57.1674   60.2529 C   0  0  0  0  0  0  0  0  0  0  0  0
  -49.8986   58.0134   61.4462 C   0  0  0  0  0  0  0  0  0  0  0  0
  -51.0310   58.4494   62.3731 C   0  0  0  0  0  0  0  0  0  0  0  0
  -35.5697   56.3499   64.9444 O   0  0  0  0  0  0  0  0  0  0  0  0
  -35.7877   57.6298   64.3806 C   0  0  0  0  0  0  0  0  0  0  0  0
  -34.6218   56.2261   65.1088 H   0  0  0  0  0  0  0  0  0  0  0  0
  -37.2687   57.8898   64.0958 C   0  0  0  0  0  0  0  0  0  0  0  0
  -38.2511   57.5238   64.9369 C   0  0  0  0  0  0  0  0  0  0  0  0
  -39.7068   57.8185   64.5799 C   0  0  0  0  0  0  0  0  0  0  0  0
  -39.8762   58.9024   63.5055 C   0  0  0  0  0  0  0  0  0  0  0  0
  -41.0681   59.8571   63.7038 C   0  0  0  0  0  0  0  0  0  0  0  0
  -41.4399   59.9677   65.2021 C   0  0  0  0  0  0  0  0  0  0  0  0
  -42.9163   59.6428   65.5432 C   0  0  0  0  0  0  0  0  0  0  0  0
  -43.0932   58.6972   66.7545 C   0  0  0  0  0  0  0  0  0  0  0  0
  -42.9561   57.2017   66.3957 C   0  0  0  0  0  0  0  0  0  0  0  0
  -44.0927   56.6713   65.5135 C   0  0  0  0  0  0  0  0  0  0  0  0
  -45.5078   57.0607   65.9356 C   0  0  0  0  0  0  0  0  0  0  0  0
  -46.2450   57.9462   64.9117 C   0  0  0  0  0  0  0  0  0  0  0  0
  -46.8666   59.2295   65.4834 C   0  0  0  0  0  0  0  0  0  0  0  0
  -48.3941   59.1940   65.3798 C   0  0  0  0  0  0  0  0  0  0  0  0
  -49.0609   57.8648   65.6864 C   0  0  0  0  0  0  0  0  0  0  0  0
  -33.9657   58.7170   62.8563 C   0  0  0  0  0  0  0  0  0  0  0  0
  -34.4639   60.0763   62.7715 O   0  0  0  0  0  0  0  0  0  0  0  0
  -33.0882   62.5762   62.5827 O   0  0  0  0  0  0  0  0  0  0  0  0
  -36.1744   63.8664   65.0747 O   0  0  0  0  0  0  0  0  0  0  0  0
  -35.3493   60.9640   64.8483 O   0  0  0  0  0  0  0  0  0  0  0  0
  -34.2737   61.0319   63.8808 C   0  0  0  0  0  0  0  0  0  0  0  0
  -34.1490   62.5103   63.4853 C   0  0  0  0  0  0  0  0  0  0  0  0
  -33.8342   63.4459   64.6730 C   0  0  0  0  0  0  0  0  0  0  0  0
  -34.9853   63.3110   65.6311 C   0  0  0  0  0  0  0  0  0  0  0  0
  -35.1873   61.8497   65.9890 C   0  0  0  0  0  0  0  0  0  0  0  0
  -33.2688   61.9936   61.8284 H   0  0  0  0  0  0  0  0  0  0  0  0
  -36.0232   64.7987   64.8538 H   0  0  0  0  0  0  0  0  0  0  0  0
  -36.1480   62.9226   67.8966 O   0  0  0  0  0  0  0  0  0  0  0  0
  -36.3805   61.9346   66.9382 C   0  0  0  0  0  0  0  0  0  0  0  0
  -36.9071   62.9746   68.4982 H   0  0  0  0  0  0  0  0  0  0  0  0
  -33.7332   64.8540   64.3618 O   0  0  0  0  0  0  0  0  0  0  0  0
  -31.1761   64.6559   63.9897 O   0  0  0  0  0  0  0  0  0  0  0  0
  -32.0450   66.4140   65.4190 O   0  0  0  0  0  0  0  0  0  0  0  0
  -32.2579   66.5840   63.0107 O   0  0  0  0  0  0  0  0  0  0  0  0
  -32.2807   65.6443   64.1674 S   0  0  0  0  0  0  0  0  0  0  0  0
  -31.1751   64.0347   64.7346 H   0  0  0  0  0  0  0  0  0  0  0  0
  -32.4108   66.0902   62.1899 H   0  0  0  0  0  0  0  0  0  0  0  0
  2  1  1  0  0  0
  2  4  1  0  0  0
  2  5  1  0  0  0
 41 42  1  0  0  0
 41  1  1  0  0  0
 42 46  1  0  0  0
  1 24  1  0  0  0
 23 24  1  0  0  0
 23 25  1  0  0  0
 24 26  1  0  0  0
  3  4  2  0  0  0
 26 27  2  0  0  0
 27 28  1  0  0  0
 43 47  1  0  0  0
 43 51  1  0  0  0
 28 29  1  0  0  0
 56 48  1  0  0  0
 56 60  1  0  0  0
 29 30  1  0  0  0
 57 60  1  0  0  0
 57 61  1  0  0  0
 30 31  1  0  0  0
 44 49  1  0  0  0
 44 52  1  0  0  0
 31 32  1  0  0  0
 45 46  1  0  0  0
 45 50  1  0  0  0
 32 33  1  0  0  0
 53 54  1  0  0  0
 53 55  1  0  0  0
 33 34  1  0  0  0
 34 35  1  0  0  0
 35 36  1  0  0  0
 58 60  1  0  0  0
 36 37  1  0  0  0
 59 60  1  0  0  0
 59 62  1  0  0  0
 37 38  1  0  0  0
 38 39  1  0  0  0
 39 40  1  0  0  0
  4  6  1  0  0  0
  6  7  1  0  0  0
  7  8  1  0  0  0
  8  9  1  0  0  0
  9 10  1  0  0  0
 10 11  1  0  0  0
 11 12  1  0  0  0
 12 13  1  0  0  0
 13 14  1  0  0  0
 14 15  1  0  0  0
 15 16  1  0  0  0
 16 17  1  0  0  0
 17 18  1  0  0  0
 18 19  1  0  0  0
 19 20  1  0  0  0
 20 21  1  0  0  0
 21 22  1  0  0  0
 46 47  1  0  0  0
 47 48  1  0  0  0
 48 49  1  0  0  0
 49 50  1  0  0  0
 50 54  1  0  0  0
M  CHG 1  58  -1
M  END
> <minimizedAffinity>
-8.66439

> <CNNscore>
0.3418694437

> <CNNaffinity>
7.1284346581

> <CNN_VS>
2.4369940758

> <CNNaffinity_variance>
1.1430937052

$$$$
/media/chris/experiments/cd1a-new-docking/inputs/ligands/1onq_ligand.pdb


 62 62  0  0  0  0  0  0  0  0999 V2000
  -38.0326   59.8011   59.6954 C   0  0  0  0  0  0  0  0  0  0  0  0
  -39.4078   59.4583   59.3912 N   0  0  0  0  0  0  0  0  0  0  0  0
  -40.5069   61.3623   59.9519 O   0  0  0  0  0  0  0  0  0  0  0  0
  -40.5002   60.2216   59.5317 C   0  0  0  0  0  0  0  0  0  0  0  0
  -39.5579   58.5520   59.0373 H   0  0  0  0  0  0  0  0  0  0  0  0
  -41.7881   59.5742   59.1168 C   0  0  0  0  0  0  0  0  0  0  0  0
  -41.7464   59.4645   57.5925 C   0  0  0  0  0  0  0  0  0  0  0  0
  -42.9942   58.7444   57.0872 C   0  0  0  0  0  0  0  0  0  0  0  0
  -43.9742   58.2948   58.1435 C   0  0  0  0  0  0  0  0  0  0  0  0
  -45.3528   58.2286   57.4947 C   0  0  0  0  0  0  0  0  0  0  0  0
  -46.4505   57.7986   58.4770 C   0  0  0  0  0  0  0  0  0  0  0  0
  -47.2758   56.5850   58.0114 C   0  0  0  0  0  0  0  0  0  0  0  0
  -48.1861   56.0163   59.1220 C   0  0  0  0  0  0  0  0  0  0  0  0
  -48.7433   57.1450   59.9942 C   0  0  0  0  0  0  0  0  0  0  0  0
  -50.2118   57.4770   59.7588 C   0  0  0  0  0  0  0  0  0  0  0  0
  -51.0534   57.2935   61.0131 C   0  0  0  0  0  0  0  0  0  0  0  0
  -50.5150   57.9526   62.2850 C   0  0  0  0  0  0  0  0  0  0  0  0
  -51.4274   59.1192   62.6391 C   0  0  0  0  0  0  0  0  0  0  0  0
  -51.1939   59.8557   63.9499 C   0  0  0  0  0  0  0  0  0  0  0  0
  -49.8936   59.3855   64.6207 C   0  0  0  0  0  0  0  0  0  0  0  0
  -48.7203   60.3758   64.5036 C   0  0  0  0  0  0  0  0  0  0  0  0
  -47.4145   59.8364   65.0830 C   0  0  0  0  0  0  0  0  0  0  0  0
  -38.1985   58.1652   58.0547 O   0  0  0  0  0  0  0  0  0  0  0  0
  -37.2517   58.7444   58.9331 C   0  0  0  0  0  0  0  0  0  0  0  0
  -38.5335   58.8434   57.4476 H   0  0  0  0  0  0  0  0  0  0  0  0
  -36.6819   57.7240   59.9212 C   0  0  0  0  0  0  0  0  0  0  0  0
  -35.4976   57.1141   59.7422 C   0  0  0  0  0  0  0  0  0  0  0  0
  -34.9980   56.1055   60.7747 C   0  0  0  0  0  0  0  0  0  0  0  0
  -33.5867   56.4027   61.3018 C   0  0  0  0  0  0  0  0  0  0  0  0
  -33.2674   57.8884   61.5512 C   0  0  0  0  0  0  0  0  0  0  0  0
  -32.8995   58.1296   63.0351 C   0  0  0  0  0  0  0  0  0  0  0  0
  -34.0028   57.7602   64.0588 C   0  0  0  0  0  0  0  0  0  0  0  0
  -35.3853   58.3827   63.7524 C   0  0  0  0  0  0  0  0  0  0  0  0
  -36.5542   57.3812   63.8738 C   0  0  0  0  0  0  0  0  0  0  0  0
  -37.6798   57.8549   64.8011 C   0  0  0  0  0  0  0  0  0  0  0  0
  -39.0775   57.9074   64.1878 C   0  0  0  0  0  0  0  0  0  0  0  0
  -40.1844   58.3012   65.1856 C   0  0  0  0  0  0  0  0  0  0  0  0
  -41.2029   59.3256   64.6630 C   0  0  0  0  0  0  0  0  0  0  0  0
  -42.5727   59.1220   65.3168 C   0  0  0  0  0  0  0  0  0  0  0  0
  -42.5989   59.0949   66.8348 C   0  0  0  0  0  0  0  0  0  0  0  0
  -37.7046   59.9678   61.1966 C   0  0  0  0  0  0  0  0  0  0  0  0
  -37.5530   61.3267   61.6799 O   0  0  0  0  0  0  0  0  0  0  0  0
  -35.5943   63.4102   61.6821 O   0  0  0  0  0  0  0  0  0  0  0  0
  -36.8708   63.8908   65.6239 O   0  0  0  0  0  0  0  0  0  0  0  0
  -37.2276   61.3107   64.0839 O   0  0  0  0  0  0  0  0  0  0  0  0
  -36.6453   61.6438   62.8004 C   0  0  0  0  0  0  0  0  0  0  0  0
  -36.1879   63.1058   62.9065 C   0  0  0  0  0  0  0  0  0  0  0  0
  -35.1498   63.3516   64.0232 C   0  0  0  0  0  0  0  0  0  0  0  0
  -35.8235   62.9748   65.3138 C   0  0  0  0  0  0  0  0  0  0  0  0
  -36.3559   61.5564   65.2204 C   0  0  0  0  0  0  0  0  0  0  0  0
  -36.2329   63.2614   60.9673 H   0  0  0  0  0  0  0  0  0  0  0  0
  -36.5090   64.7891   65.6787 H   0  0  0  0  0  0  0  0  0  0  0  0
  -36.2307   62.0510   67.5555 O   0  0  0  0  0  0  0  0  0  0  0  0
  -36.9949   61.3837   66.5966 C   0  0  0  0  0  0  0  0  0  0  0  0
  -36.6385   61.9398   68.4286 H   0  0  0  0  0  0  0  0  0  0  0  0
  -34.7046   64.7173   64.1861 O   0  0  0  0  0  0  0  0  0  0  0  0
  -32.3654   64.0126   65.0509 O   0  0  0  0  0  0  0  0  0  0  0  0
  -33.1023   66.3081   65.3275 O   0  0  0  0  0  0  0  0  0  0  0  0
  -32.4027   65.5062   63.1499 O   0  0  0  0  0  0  0  0  0  0  0  0
  -33.1090   65.1370   64.4094 S   0  0  0  0  0  0  0  0  0  0  0  0
  -32.8111   63.7580   65.8739 H   0  0  0  0  0  0  0  0  0  0  0  0
  -32.4024   64.7479   62.5452 H   0  0  0  0  0  0  0  0  0  0  0  0
  2  1  1  0  0  0
  2  4  1  0  0  0
  2  5  1  0  0  0
 41 42  1  0  0  0
 41  1  1  0  0  0
 42 46  1  0  0  0
  1 24  1  0  0  0
 23 24  1  0  0  0
 23 25  1  0  0  0
 24 26  1  0  0  0
  3  4  2  0  0  0
 26 27  2  0  0  0
 27 28  1  0  0  0
 43 47  1  0  0  0
 43 51  1  0  0  0
 28 29  1  0  0  0
 56 48  1  0  0  0
 56 60  1  0  0  0
 29 30  1  0  0  0
 57 60  1  0  0  0
 57 61  1  0  0  0
 30 31  1  0  0  0
 44 49  1  0  0  0
 44 52  1  0  0  0
 31 32  1  0  0  0
 45 46  1  0  0  0
 45 50  1  0  0  0
 32 33  1  0  0  0
 53 54  1  0  0  0
 53 55  1  0  0  0
 33 34  1  0  0  0
 34 35  1  0  0  0
 35 36  1  0  0  0
 58 60  1  0  0  0
 36 37  1  0  0  0
 59 60  1  0  0  0
 59 62  1  0  0  0
 37 38  1  0  0  0
 38 39  1  0  0  0
 39 40  1  0  0  0
  4  6  1  0  0  0
  6  7  1  0  0  0
  7  8  1  0  0  0
  8  9  1  0  0  0
  9 10  1  0  0  0
 10 11  1  0  0  0
 11 12  1  0  0  0
 12 13  1  0  0  0
 13 14  1  0  0  0
 14 15  1  0  0  0
 15 16  1  0  0  0
 16 17  1  0  0  0
 17 18  1  0  0  0
 18 19  1  0  0  0
 19 20  1  0  0  0
 20 21  1  0  0  0
 21 22  1  0  0  0
 46 47  1  0  0  0
 47 48  1  0  0  0
 48 49  1  0  0  0
 49 50  1  0  0  0
 50 54  1  0  0  0
M  CHG 1  58  -1
M  END
> <minimizedAffinity>
-9.18219

> <CNNscore>
0.3363033533

> <CNNaffinity>
7.0715928078

> <CNN_VS>
2.3782002926

> <CNNaffinity_variance>
1.2365436554

$$$$
/media/chris/experiments/cd1a-new-docking/inputs/ligands/1onq_ligand.pdb


 62 62  0  0  0  0  0  0  0  0999 V2000
  -39.8781   59.1039   64.8235 C   0  0  0  0  0  0  0  0  0  0  0  0
  -40.8826   58.4862   65.6664 N   0  0  0  0  0  0  0  0  0  0  0  0
  -42.7849   59.5001   64.9590 O   0  0  0  0  0  0  0  0  0  0  0  0
  -42.2033   58.7124   65.6794 C   0  0  0  0  0  0  0  0  0  0  0  0
  -40.5536   57.8173   66.3095 H   0  0  0  0  0  0  0  0  0  0  0  0
  -42.9798   57.8992   66.6722 C   0  0  0  0  0  0  0  0  0  0  0  0
  -44.0051   57.0985   65.8690 C   0  0  0  0  0  0  0  0  0  0  0  0
  -45.3931   57.2642   66.4830 C   0  0  0  0  0  0  0  0  0  0  0  0
  -45.7811   58.6688   66.8765 C   0  0  0  0  0  0  0  0  0  0  0  0
  -46.6751   59.2259   65.7736 C   0  0  0  0  0  0  0  0  0  0  0  0
  -48.1426   59.3488   66.2051 C   0  0  0  0  0  0  0  0  0  0  0  0
  -49.0399   58.1905   65.7319 C   0  0  0  0  0  0  0  0  0  0  0  0
  -50.4872   58.6372   65.4297 C   0  0  0  0  0  0  0  0  0  0  0  0
  -50.5068   59.6865   64.3146 C   0  0  0  0  0  0  0  0  0  0  0  0
  -51.1963   59.2479   63.0284 C   0  0  0  0  0  0  0  0  0  0  0  0
  -50.6521   57.9278   62.5028 C   0  0  0  0  0  0  0  0  0  0  0  0
  -51.1661   57.4890   61.1298 C   0  0  0  0  0  0  0  0  0  0  0  0
  -50.0394   56.7589   60.4111 C   0  0  0  0  0  0  0  0  0  0  0  0
  -48.7265   57.4922   60.1792 C   0  0  0  0  0  0  0  0  0  0  0  0
  -48.1150   57.1090   58.8224 C   0  0  0  0  0  0  0  0  0  0  0  0
  -47.8253   55.6061   58.6541 C   0  0  0  0  0  0  0  0  0  0  0  0
  -47.4764   55.2151   57.2198 C   0  0  0  0  0  0  0  0  0  0  0  0
  -39.9363   56.7884   64.6477 O   0  0  0  0  0  0  0  0  0  0  0  0
  -39.1997   57.9046   64.1840 C   0  0  0  0  0  0  0  0  0  0  0  0
  -40.8553   56.8594   64.3456 H   0  0  0  0  0  0  0  0  0  0  0  0
  -37.7358   57.8541   64.6277 C   0  0  0  0  0  0  0  0  0  0  0  0
  -36.7232   57.5968   63.7822 C   0  0  0  0  0  0  0  0  0  0  0  0
  -35.2877   57.5628   64.3031 C   0  0  0  0  0  0  0  0  0  0  0  0
  -34.2565   58.1389   63.3218 C   0  0  0  0  0  0  0  0  0  0  0  0
  -34.5036   57.8250   61.8346 C   0  0  0  0  0  0  0  0  0  0  0  0
  -34.0091   56.4009   61.4842 C   0  0  0  0  0  0  0  0  0  0  0  0
  -34.6228   55.7842   60.2018 C   0  0  0  0  0  0  0  0  0  0  0  0
  -33.9001   56.1895   58.8956 C   0  0  0  0  0  0  0  0  0  0  0  0
  -34.7628   57.0609   57.9572 C   0  0  0  0  0  0  0  0  0  0  0  0
  -36.2713   56.8430   58.1252 C   0  0  0  0  0  0  0  0  0  0  0  0
  -37.0516   57.9997   58.7461 C   0  0  0  0  0  0  0  0  0  0  0  0
  -37.6750   57.6698   60.1167 C   0  0  0  0  0  0  0  0  0  0  0  0
  -38.4275   58.8278   60.7895 C   0  0  0  0  0  0  0  0  0  0  0  0
  -38.8275   59.8930   59.7645 C   0  0  0  0  0  0  0  0  0  0  0  0
  -40.2880   60.3084   59.7574 C   0  0  0  0  0  0  0  0  0  0  0  0
  -38.9642   60.1352   65.5235 C   0  0  0  0  0  0  0  0  0  0  0  0
  -38.3644   61.1491   64.6777 O   0  0  0  0  0  0  0  0  0  0  0  0
  -36.2970   60.9819   62.7091 O   0  0  0  0  0  0  0  0  0  0  0  0
  -35.2127   64.6863   64.2904 O   0  0  0  0  0  0  0  0  0  0  0  0
  -36.8539   62.6606   65.8262 O   0  0  0  0  0  0  0  0  0  0  0  0
  -36.9647   61.5775   64.8712 C   0  0  0  0  0  0  0  0  0  0  0  0
  -36.2200   62.0421   63.6114 C   0  0  0  0  0  0  0  0  0  0  0  0
  -34.7294   62.3642   63.8553 C   0  0  0  0  0  0  0  0  0  0  0  0
  -34.6998   63.4838   64.8588 C   0  0  0  0  0  0  0  0  0  0  0  0
  -35.4910   63.0887   66.0926 C   0  0  0  0  0  0  0  0  0  0  0  0
  -37.2279   60.7652   62.5436 H   0  0  0  0  0  0  0  0  0  0  0  0
  -34.6935   64.9197   63.5050 H   0  0  0  0  0  0  0  0  0  0  0  0
  -34.2863   64.1706   67.8509 O   0  0  0  0  0  0  0  0  0  0  0  0
  -35.3450   64.3393   66.9567 C   0  0  0  0  0  0  0  0  0  0  0  0
  -34.1957   64.9661   68.3985 H   0  0  0  0  0  0  0  0  0  0  0  0
  -33.9858   62.8335   62.7077 O   0  0  0  0  0  0  0  0  0  0  0  0
  -31.8566   63.2657   61.2947 O   0  0  0  0  0  0  0  0  0  0  0  0
  -32.2898   61.0389   62.1564 O   0  0  0  0  0  0  0  0  0  0  0  0
  -31.5112   62.7900   63.6401 O   0  0  0  0  0  0  0  0  0  0  0  0
  -32.3747   62.4927   62.4622 S   0  0  0  0  0  0  0  0  0  0  0  0
  -32.4072   63.0846   60.5170 H   0  0  0  0  0  0  0  0  0  0  0  0
  -31.5606   63.7365   63.8465 H   0  0  0  0  0  0  0  0  0  0  0  0
  2  1  1  0  0  0
  2  4  1  0  0  0
  2  5  1  0  0  0
 41 42  1  0  0  0
 41  1  1  0  0  0
 42 46  1  0  0  0
  1 24  1  0  0  0
 23 24  1  0  0  0
 23 25  1  0  0  0
 24 26  1  0  0  0
  3  4  2  0  0  0
 26 27  2  0  0  0
 27 28  1  0  0  0
 43 47  1  0  0  0
 43 51  1  0  0  0
 28 29  1  0  0  0
 56 48  1  0  0  0
 56 60  1  0  0  0
 29 30  1  0  0  0
 57 60  1  0  0  0
 57 61  1  0  0  0
 30 31  1  0  0  0
 44 49  1  0  0  0
 44 52  1  0  0  0
 31 32  1  0  0  0
 45 46  1  0  0  0
 45 50  1  0  0  0
 32 33  1  0  0  0
 53 54  1  0  0  0
 53 55  1  0  0  0
 33 34  1  0  0  0
 34 35  1  0  0  0
 35 36  1  0  0  0
 58 60  1  0  0  0
 36 37  1  0  0  0
 59 60  1  0  0  0
 59 62  1  0  0  0
 37 38  1  0  0  0
 38 39  1  0  0  0
 39 40  1  0  0  0
  4  6  1  0  0  0
  6  7  1  0  0  0
  7  8  1  0  0  0
  8  9  1  0  0  0
  9 10  1  0  0  0
 10 11  1  0  0  0
 11 12  1  0  0  0
 12 13  1  0  0  0
 13 14  1  0  0  0
 14 15  1  0  0  0
 15 16  1  0  0  0
 16 17  1  0  0  0
 17 18  1  0  0  0
 18 19  1  0  0  0
 19 20  1  0  0  0
 20 21  1  0  0  0
 21 22  1  0  0  0
 46 47  1  0  0  0
 47 48  1  0  0  0
 48 49  1  0  0  0
 49 50  1  0  0  0
 50 54  1  0  0  0
M  CHG 1  58  -1
M  END
> <minimizedAffinity>
-10.19974

> <CNNscore>
0.2708311379

> <CNNaffinity>
7.2301383018

> <CNN_VS>
1.9581465721

> <CNNaffinity_variance>
0.9433646202

$$$$
/media/chris/experiments/cd1a-new-docking/inputs/ligands/1onq_ligand.pdb


 62 62  0  0  0  0  0  0  0  0999 V2000
  -37.9907   59.5285   59.3653 C   0  0  0  0  0  0  0  0  0  0  0  0
  -39.3956   59.2315   59.1674 N   0  0  0  0  0  0  0  0  0  0  0  0
  -40.3500   61.2771   59.3957 O   0  0  0  0  0  0  0  0  0  0  0  0
  -40.4315   60.0811   59.1940 C   0  0  0  0  0  0  0  0  0  0  0  0
  -39.6162   58.2883   58.9917 H   0  0  0  0  0  0  0  0  0  0  0  0
  -41.7729   59.4592   58.9414 C   0  0  0  0  0  0  0  0  0  0  0  0
  -41.9317   59.3733   57.4233 C   0  0  0  0  0  0  0  0  0  0  0  0
  -43.2477   58.6822   57.0749 C   0  0  0  0  0  0  0  0  0  0  0  0
  -44.1131   58.2759   58.2430 C   0  0  0  0  0  0  0  0  0  0  0  0
  -45.5570   58.2334   57.7537 C   0  0  0  0  0  0  0  0  0  0  0  0
  -46.5058   57.5726   58.7627 C   0  0  0  0  0  0  0  0  0  0  0  0
  -47.4845   56.5597   58.1406 C   0  0  0  0  0  0  0  0  0  0  0  0
  -48.9646   56.9238   58.3903 C   0  0  0  0  0  0  0  0  0  0  0  0
  -49.1360   57.5738   59.7663 C   0  0  0  0  0  0  0  0  0  0  0  0
  -50.4617   57.2799   60.4577 C   0  0  0  0  0  0  0  0  0  0  0  0
  -50.4809   57.7654   61.8996 C   0  0  0  0  0  0  0  0  0  0  0  0
  -50.7486   59.2586   62.1015 C   0  0  0  0  0  0  0  0  0  0  0  0
  -51.2383   59.4655   63.5285 C   0  0  0  0  0  0  0  0  0  0  0  0
  -50.4615   58.8204   64.6668 C   0  0  0  0  0  0  0  0  0  0  0  0
  -49.1313   59.5512   64.9081 C   0  0  0  0  0  0  0  0  0  0  0  0
  -47.9503   58.6280   65.2601 C   0  0  0  0  0  0  0  0  0  0  0  0
  -48.3868   57.2683   65.8009 C   0  0  0  0  0  0  0  0  0  0  0  0
  -38.3278   57.9648   57.6810 O   0  0  0  0  0  0  0  0  0  0  0  0
  -37.3059   58.4664   58.5224 C   0  0  0  0  0  0  0  0  0  0  0  0
  -38.6635   58.6800   57.1184 H   0  0  0  0  0  0  0  0  0  0  0  0
  -36.7310   57.3843   59.4394 C   0  0  0  0  0  0  0  0  0  0  0  0
  -35.4210   57.0881   59.4901 C   0  0  0  0  0  0  0  0  0  0  0  0
  -34.9250   55.9926   60.4320 C   0  0  0  0  0  0  0  0  0  0  0  0
  -34.1296   56.5203   61.6349 C   0  0  0  0  0  0  0  0  0  0  0  0
  -34.7996   57.6557   62.4308 C   0  0  0  0  0  0  0  0  0  0  0  0
  -35.2885   57.1467   63.8082 C   0  0  0  0  0  0  0  0  0  0  0  0
  -36.7414   57.5371   64.1803 C   0  0  0  0  0  0  0  0  0  0  0  0
  -37.7800   57.2416   63.0727 C   0  0  0  0  0  0  0  0  0  0  0  0
  -39.2093   57.7067   63.4264 C   0  0  0  0  0  0  0  0  0  0  0  0
  -39.5190   57.6641   64.9276 C   0  0  0  0  0  0  0  0  0  0  0  0
  -40.9819   57.8654   65.3173 C   0  0  0  0  0  0  0  0  0  0  0  0
  -41.2824   59.2487   65.9273 C   0  0  0  0  0  0  0  0  0  0  0  0
  -42.4203   59.2761   66.9590 C   0  0  0  0  0  0  0  0  0  0  0  0
  -43.6575   58.5428   66.4329 C   0  0  0  0  0  0  0  0  0  0  0  0
  -44.4030   59.2101   65.2907 C   0  0  0  0  0  0  0  0  0  0  0  0
  -37.5377   59.6541   60.8377 C   0  0  0  0  0  0  0  0  0  0  0  0
  -38.2432   60.6247   61.6523 O   0  0  0  0  0  0  0  0  0  0  0  0
  -38.7267   60.9190   64.4553 O   0  0  0  0  0  0  0  0  0  0  0  0
  -34.5670   61.1838   64.6133 O   0  0  0  0  0  0  0  0  0  0  0  0
  -36.1575   61.7766   62.1084 O   0  0  0  0  0  0  0  0  0  0  0  0
  -37.5159   61.5417   62.5523 C   0  0  0  0  0  0  0  0  0  0  0  0
  -37.4150   61.1075   64.0217 C   0  0  0  0  0  0  0  0  0  0  0  0
  -36.7486   62.1594   64.9351 C   0  0  0  0  0  0  0  0  0  0  0  0
  -35.3546   62.3536   64.4054 C   0  0  0  0  0  0  0  0  0  0  0  0
  -35.4105   62.7127   62.9316 C   0  0  0  0  0  0  0  0  0  0  0  0
  -39.1620   60.2601   63.8920 H   0  0  0  0  0  0  0  0  0  0  0  0
  -34.5448   60.9729   65.5599 H   0  0  0  0  0  0  0  0  0  0  0  0
  -33.7749   63.6092   61.4368 O   0  0  0  0  0  0  0  0  0  0  0  0
  -33.9265   62.8512   62.5993 C   0  0  0  0  0  0  0  0  0  0  0  0
  -32.8316   63.6957   61.2279 H   0  0  0  0  0  0  0  0  0  0  0  0
  -36.6024   61.7909   66.3254 O   0  0  0  0  0  0  0  0  0  0  0  0
  -36.4677   62.4621   68.8250 O   0  0  0  0  0  0  0  0  0  0  0  0
  -36.3517   64.1811   67.1161 O   0  0  0  0  0  0  0  0  0  0  0  0
  -34.4465   62.7405   67.5275 O   0  0  0  0  0  0  0  0  0  0  0  0
  -35.9349   62.7974   67.4713 S   0  0  0  0  0  0  0  0  0  0  0  0
  -37.4370   62.4941   68.8080 H   0  0  0  0  0  0  0  0  0  0  0  0
  -34.1659   61.8413   67.7587 H   0  0  0  0  0  0  0  0  0  0  0  0
  2  1  1  0  0  0
  2  4  1  0  0  0
  2  5  1  0  0  0
 41 42  1  0  0  0
 41  1  1  0  0  0
 42 46  1  0  0  0
  1 24  1  0  0  0
 23 24  1  0  0  0
 23 25  1  0  0  0
 24 26  1  0  0  0
  3  4  2  0  0  0
 26 27  2  0  0  0
 27 28  1  0  0  0
 43 47  1  0  0  0
 43 51  1  0  0  0
 28 29  1  0  0  0
 56 48  1  0  0  0
 56 60  1  0  0  0
 29 30  1  0  0  0
 57 60  1  0  0  0
 57 61  1  0  0  0
 30 31  1  0  0  0
 44 49  1  0  0  0
 44 52  1  0  0  0
 31 32  1  0  0  0
 45 46  1  0  0  0
 45 50  1  0  0  0
 32 33  1  0  0  0
 53 54  1  0  0  0
 53 55  1  0  0  0
 33 34  1  0  0  0
 34 35  1  0  0  0
 35 36  1  0  0  0
 58 60  1  0  0  0
 36 37  1  0  0  0
 59 60  1  0  0  0
 59 62  1  0  0  0
 37 38  1  0  0  0
 38 39  1  0  0  0
 39 40  1  0  0  0
  4  6  1  0  0  0
  6  7  1  0  0  0
  7  8  1  0  0  0
  8  9  1  0  0  0
  9 10  1  0  0  0
 10 11  1  0  0  0
 11 12  1  0  0  0
 12 13  1  0  0  0
 13 14  1  0  0  0
 14 15  1  0  0  0
 15 16  1  0  0  0
 16 17  1  0  0  0
 17 18  1  0  0  0
 18 19  1  0  0  0
 19 20  1  0  0  0
 20 21  1  0  0  0
 21 22  1  0  0  0
 46 47  1  0  0  0
 47 48  1  0  0  0
 48 49  1  0  0  0
 49 50  1  0  0  0
 50 54  1  0  0  0
M  CHG 1  58  -1
M  END
> <minimizedAffinity>
-8.87335

> <CNNscore>
0.2597309649

> <CNNaffinity>
7.1171445847

> <CNN_VS>
1.8485428095

> <CNNaffinity_variance>
1.5271667242

$$$$
/media/chris/experiments/cd1a-new-docking/inputs/ligands/1onq_ligand.pdb


 62 62  0  0  0  0  0  0  0  0999 V2000
  -39.7220   59.2638   65.4094 C   0  0  0  0  0  0  0  0  0  0  0  0
  -39.6124   59.1209   63.9711 N   0  0  0  0  0  0  0  0  0  0  0  0
  -40.2827   61.1610   63.2390 O   0  0  0  0  0  0  0  0  0  0  0  0
  -39.8857   60.0317   63.0270 C   0  0  0  0  0  0  0  0  0  0  0  0
  -39.2980   58.2459   63.6476 H   0  0  0  0  0  0  0  0  0  0  0  0
  -39.6600   59.5752   61.6162 C   0  0  0  0  0  0  0  0  0  0  0  0
  -38.7322   58.3628   61.6963 C   0  0  0  0  0  0  0  0  0  0  0  0
  -37.5194   58.5737   60.7933 C   0  0  0  0  0  0  0  0  0  0  0  0
  -37.7747   59.3106   59.5009 C   0  0  0  0  0  0  0  0  0  0  0  0
  -36.8852   58.6862   58.4309 C   0  0  0  0  0  0  0  0  0  0  0  0
  -37.3420   57.2778   58.0277 C   0  0  0  0  0  0  0  0  0  0  0  0
  -36.1915   56.3153   57.6802 C   0  0  0  0  0  0  0  0  0  0  0  0
  -34.7989   56.9678   57.8235 C   0  0  0  0  0  0  0  0  0  0  0  0
  -33.9012   56.1291   58.7377 C   0  0  0  0  0  0  0  0  0  0  0  0
  -34.6010   55.5202   59.9466 C   0  0  0  0  0  0  0  0  0  0  0  0
  -34.2310   56.2249   61.2434 C   0  0  0  0  0  0  0  0  0  0  0  0
  -33.4896   57.5555   61.0962 C   0  0  0  0  0  0  0  0  0  0  0  0
  -32.5313   57.6987   62.2710 C   0  0  0  0  0  0  0  0  0  0  0  0
  -33.1081   57.9541   63.6557 C   0  0  0  0  0  0  0  0  0  0  0  0
  -34.3577   58.8452   63.5749 C   0  0  0  0  0  0  0  0  0  0  0  0
  -35.4734   58.4720   64.5683 C   0  0  0  0  0  0  0  0  0  0  0  0
  -36.2343   57.2079   64.1751 C   0  0  0  0  0  0  0  0  0  0  0  0
  -40.8271   61.0724   66.3597 O   0  0  0  0  0  0  0  0  0  0  0  0
  -41.0807   59.9227   65.5740 C   0  0  0  0  0  0  0  0  0  0  0  0
  -40.2199   61.6611   65.8848 H   0  0  0  0  0  0  0  0  0  0  0  0
  -42.0356   58.9488   66.2683 C   0  0  0  0  0  0  0  0  0  0  0  0
  -42.9149   58.1836   65.5992 C   0  0  0  0  0  0  0  0  0  0  0  0
  -43.8358   57.2361   66.3656 C   0  0  0  0  0  0  0  0  0  0  0  0
  -45.0891   56.8187   65.5826 C   0  0  0  0  0  0  0  0  0  0  0  0
  -45.9492   57.9734   65.0364 C   0  0  0  0  0  0  0  0  0  0  0  0
  -46.5652   58.7949   66.1944 C   0  0  0  0  0  0  0  0  0  0  0  0
  -48.0579   59.1719   66.0173 C   0  0  0  0  0  0  0  0  0  0  0  0
  -48.8986   58.1014   65.2824 C   0  0  0  0  0  0  0  0  0  0  0  0
  -50.4073   58.4267   65.2346 C   0  0  0  0  0  0  0  0  0  0  0  0
  -50.7368   59.7200   64.4797 C   0  0  0  0  0  0  0  0  0  0  0  0
  -51.5275   59.5578   63.1832 C   0  0  0  0  0  0  0  0  0  0  0  0
  -50.6837   59.0586   61.9938 C   0  0  0  0  0  0  0  0  0  0  0  0
  -51.0061   57.6354   61.5138 C   0  0  0  0  0  0  0  0  0  0  0  0
  -50.3743   57.3599   60.1463 C   0  0  0  0  0  0  0  0  0  0  0  0
  -48.8670   57.5192   60.0544 C   0  0  0  0  0  0  0  0  0  0  0  0
  -38.5226   59.9482   66.1038 C   0  0  0  0  0  0  0  0  0  0  0  0
  -38.2058   61.2957   65.6712 O   0  0  0  0  0  0  0  0  0  0  0  0
  -36.6322   61.3823   63.2850 O   0  0  0  0  0  0  0  0  0  0  0  0
  -35.2991   64.9809   64.9195 O   0  0  0  0  0  0  0  0  0  0  0  0
  -36.5081   62.7656   66.5889 O   0  0  0  0  0  0  0  0  0  0  0  0
  -36.8080   61.7638   65.5869 C   0  0  0  0  0  0  0  0  0  0  0  0
  -36.3766   62.3644   64.2412 C   0  0  0  0  0  0  0  0  0  0  0  0
  -34.8766   62.7263   64.1758 C   0  0  0  0  0  0  0  0  0  0  0  0
  -34.6457   63.7568   65.2463 C   0  0  0  0  0  0  0  0  0  0  0  0
  -35.1297   63.2259   66.5835 C   0  0  0  0  0  0  0  0  0  0  0  0
  -37.5716   61.1419   63.3116 H   0  0  0  0  0  0  0  0  0  0  0  0
  -34.9754   65.3016   64.0632 H   0  0  0  0  0  0  0  0  0  0  0  0
  -33.6037   64.9811   67.1347 O   0  0  0  0  0  0  0  0  0  0  0  0
  -34.8195   64.4036   67.5048 C   0  0  0  0  0  0  0  0  0  0  0  0
  -33.4089   65.7286   67.7213 H   0  0  0  0  0  0  0  0  0  0  0  0
  -34.4211   63.3218   62.9398 O   0  0  0  0  0  0  0  0  0  0  0  0
  -31.9351   62.7217   63.3596 O   0  0  0  0  0  0  0  0  0  0  0  0
  -32.5848   65.0499   63.1457 O   0  0  0  0  0  0  0  0  0  0  0  0
  -32.4678   63.6317   61.1838 O   0  0  0  0  0  0  0  0  0  0  0  0
  -32.8236   63.6745   62.6306 S   0  0  0  0  0  0  0  0  0  0  0  0
  -32.1523   62.7357   64.3049 H   0  0  0  0  0  0  0  0  0  0  0  0
  -32.6205   62.7379   60.8396 H   0  0  0  0  0  0  0  0  0  0  0  0
  2  1  1  0  0  0
  2  4  1  0  0  0
  2  5  1  0  0  0
 41 42  1  0  0  0
 41  1  1  0  0  0
 42 46  1  0  0  0
  1 24  1  0  0  0
 23 24  1  0  0  0
 23 25  1  0  0  0
 24 26  1  0  0  0
  3  4  2  0  0  0
 26 27  2  0  0  0
 27 28  1  0  0  0
 43 47  1  0  0  0
 43 51  1  0  0  0
 28 29  1  0  0  0
 56 48  1  0  0  0
 56 60  1  0  0  0
 29 30  1  0  0  0
 57 60  1  0  0  0
 57 61  1  0  0  0
 30 31  1  0  0  0
 44 49  1  0  0  0
 44 52  1  0  0  0
 31 32  1  0  0  0
 45 46  1  0  0  0
 45 50  1  0  0  0
 32 33  1  0  0  0
 53 54  1  0  0  0
 53 55  1  0  0  0
 33 34  1  0  0  0
 34 35  1  0  0  0
 35 36  1  0  0  0
 58 60  1  0  0  0
 36 37  1  0  0  0
 59 60  1  0  0  0
 59 62  1  0  0  0
 37 38  1  0  0  0
 38 39  1  0  0  0
 39 40  1  0  0  0
  4  6  1  0  0  0
  6  7  1  0  0  0
  7  8  1  0  0  0
  8  9  1  0  0  0
  9 10  1  0  0  0
 10 11  1  0  0  0
 11 12  1  0  0  0
 12 13  1  0  0  0
 13 14  1  0  0  0
 14 15  1  0  0  0
 15 16  1  0  0  0
 16 17  1  0  0  0
 17 18  1  0  0  0
 18 19  1  0  0  0
 19 20  1  0  0  0
 20 21  1  0  0  0
 21 22  1  0  0  0
 46 47  1  0  0  0
 47 48  1  0  0  0
 48 49  1  0  0  0
 49 50  1  0  0  0
 50 54  1  0  0  0
M  CHG 1  58  -1
M  END
> <minimizedAffinity>
-9.36699

> <CNNscore>
0.2520565093

> <CNNaffinity>
7.1726388931

> <CNN_VS>
1.8079103231

> <CNNaffinity_variance>
1.4515219927

$$$$
