/media/chris/experiments/cd1a-new-docking/inputs/ligands/1onq_ligand.pdb


 62 62  0  0  0  0  0  0  0  0999 V2000
  -40.1631   58.8256   64.7444 C   0  0  0  0  0  0  0  0  0  0  0  0
  -41.2056   58.2547   65.5741 N   0  0  0  0  0  0  0  0  0  0  0  0
  -43.0211   59.4673   64.9567 O   0  0  0  0  0  0  0  0  0  0  0  0
  -42.5008   58.5946   65.6243 C   0  0  0  0  0  0  0  0  0  0  0  0
  -40.9275   57.5266   66.1755 H   0  0  0  0  0  0  0  0  0  0  0  0
  -43.3313   57.8015   66.5893 C   0  0  0  0  0  0  0  0  0  0  0  0
  -43.9887   56.6845   65.7787 C   0  0  0  0  0  0  0  0  0  0  0  0
  -45.4972   56.9098   65.7082 C   0  0  0  0  0  0  0  0  0  0  0  0
  -46.0070   58.1871   66.3305 C   0  0  0  0  0  0  0  0  0  0  0  0
  -46.7253   58.9759   65.2406 C   0  0  0  0  0  0  0  0  0  0  0  0
  -47.9302   58.2232   64.6604 C   0  0  0  0  0  0  0  0  0  0  0  0
  -49.0362   57.9141   65.6861 C   0  0  0  0  0  0  0  0  0  0  0  0
  -50.4260   58.4202   65.2411 C   0  0  0  0  0  0  0  0  0  0  0  0
  -50.3052   59.3079   63.9992 C   0  0  0  0  0  0  0  0  0  0  0  0
  -51.1777   58.8914   62.8213 C   0  0  0  0  0  0  0  0  0  0  0  0
  -50.3558   58.3952   61.6411 C   0  0  0  0  0  0  0  0  0  0  0  0
  -50.8107   57.0753   61.0140 C   0  0  0  0  0  0  0  0  0  0  0  0
  -49.6737   56.5403   60.1540 C   0  0  0  0  0  0  0  0  0  0  0  0
  -49.1290   57.4180   59.0369 C   0  0  0  0  0  0  0  0  0  0  0  0
  -47.5983   57.3118   58.9508 C   0  0  0  0  0  0  0  0  0  0  0  0
  -47.0671   56.8332   57.5871 C   0  0  0  0  0  0  0  0  0  0  0  0
  -47.6932   55.5205   57.1220 C   0  0  0  0  0  0  0  0  0  0  0  0
  -38.0869   57.9419   65.2958 O   0  0  0  0  0  0  0  0  0  0  0  0
  -39.2339   57.6448   64.5213 C   0  0  0  0  0  0  0  0  0  0  0  0
  -38.3360   58.0057   66.2312 H   0  0  0  0  0  0  0  0  0  0  0  0
  -38.9088   57.5301   63.0301 C   0  0  0  0  0  0  0  0  0  0  0  0
  -37.7041   57.1511   62.5707 C   0  0  0  0  0  0  0  0  0  0  0  0
  -37.4579   57.0619   61.0658 C   0  0  0  0  0  0  0  0  0  0  0  0
  -37.9638   58.2803   60.2797 C   0  0  0  0  0  0  0  0  0  0  0  0
  -37.1520   58.6470   59.0236 C   0  0  0  0  0  0  0  0  0  0  0  0
  -37.3895   57.6146   57.8953 C   0  0  0  0  0  0  0  0  0  0  0  0
  -36.3751   56.4442   57.8450 C   0  0  0  0  0  0  0  0  0  0  0  0
  -34.9352   56.8361   58.2523 C   0  0  0  0  0  0  0  0  0  0  0  0
  -34.1873   55.7260   59.0220 C   0  0  0  0  0  0  0  0  0  0  0  0
  -33.9457   56.0545   60.5003 C   0  0  0  0  0  0  0  0  0  0  0  0
  -33.7757   57.5337   60.8402 C   0  0  0  0  0  0  0  0  0  0  0  0
  -32.8616   57.7960   62.0534 C   0  0  0  0  0  0  0  0  0  0  0  0
  -33.1360   59.1050   62.8091 C   0  0  0  0  0  0  0  0  0  0  0  0
  -34.4614   59.0317   63.5727 C   0  0  0  0  0  0  0  0  0  0  0  0
  -34.5804   57.9336   64.6146 C   0  0  0  0  0  0  0  0  0  0  0  0
  -39.5253   60.1281   65.2789 C   0  0  0  0  0  0  0  0  0  0  0  0
  -38.8311   60.9548   64.3104 O   0  0  0  0  0  0  0  0  0  0  0  0
  -36.8986   61.3409   62.2384 O   0  0  0  0  0  0  0  0  0  0  0  0
  -35.7554   64.5654   64.6250 O   0  0  0  0  0  0  0  0  0  0  0  0
  -37.2654   62.1757   65.7044 O   0  0  0  0  0  0  0  0  0  0  0  0
  -37.4269   61.3613   64.5178 C   0  0  0  0  0  0  0  0  0  0  0  0
  -36.7740   62.1454   63.3705 C   0  0  0  0  0  0  0  0  0  0  0  0
  -35.2744   62.4390   63.5943 C   0  0  0  0  0  0  0  0  0  0  0  0
  -35.1912   63.2744   64.8419 C   0  0  0  0  0  0  0  0  0  0  0  0
  -35.8930   62.5628   65.9844 C   0  0  0  0  0  0  0  0  0  0  0  0
  -37.8357   61.1459   62.0820 H   0  0  0  0  0  0  0  0  0  0  0  0
  -35.2929   65.0014   63.8922 H   0  0  0  0  0  0  0  0  0  0  0  0
  -34.3449   63.8319   67.2905 O   0  0  0  0  0  0  0  0  0  0  0  0
  -35.7045   63.5630   67.1228 C   0  0  0  0  0  0  0  0  0  0  0  0
  -34.2277   64.4674   68.0141 H   0  0  0  0  0  0  0  0  0  0  0  0
  -34.6151   63.1998   62.5567 O   0  0  0  0  0  0  0  0  0  0  0  0
  -32.4212   63.7027   61.2719 O   0  0  0  0  0  0  0  0  0  0  0  0
  -32.3162   62.6288   63.4455 O   0  0  0  0  0  0  0  0  0  0  0  0
  -32.8120   64.9953   63.2775 O   0  0  0  0  0  0  0  0  0  0  0  0
  -33.0184   63.6642   62.6396 S   0  0  0  0  0  0  0  0  0  0  0  0
  -32.5461   62.8431   60.8402 H   0  0  0  0  0  0  0  0  0  0  0  0
  -33.2668   65.6767   62.7583 H   0  0  0  0  0  0  0  0  0  0  0  0
  2  1  1  0  0  0
  2  4  1  0  0  0
  2  5  1  0  0  0
 41 42  1  0  0  0
 41  1  1  0  0  0
 42 46  1  0  0  0
  1 24  1  0  0  0
 23 24  1  0  0  0
 23 25  1  0  0  0
 24 26  1  0  0  0
  3  4  2  0  0  0
 26 27  2  0  0  0
 27 28  1  0  0  0
 43 47  1  0  0  0
 43 51  1  0  0  0
 28 29  1  0  0  0
 56 48  1  0  0  0
 56 60  1  0  0  0
 29 30  1  0  0  0
 57 60  1  0  0  0
 57 61  1  0  0  0
 30 31  1  0  0  0
 44 49  1  0  0  0
 44 52  1  0  0  0
 31 32  1  0  0  0
 45 46  1  0  0  0
 45 50  1  0  0  0
 32 33  1  0  0  0
 53 54  1  0  0  0
 53 55  1  0  0  0
 33 34  1  0  0  0
 34 35  1  0  0  0
 35 36  1  0  0  0
 58 60  1  0  0  0
 36 37  1  0  0  0
 59 60  1  0  0  0
 59 62  1  0  0  0
 37 38  1  0  0  0
 38 39  1  0  0  0
 39 40  1  0  0  0
  4  6  1  0  0  0
  6  7  1  0  0  0
  7  8  1  0  0  0
  8  9  1  0  0  0
  9 10  1  0  0  0
 10 11  1  0  0  0
 11 12  1  0  0  0
 12 13  1  0  0  0
 13 14  1  0  0  0
 14 15  1  0  0  0
 15 16  1  0  0  0
 16 17  1  0  0  0
 17 18  1  0  0  0
 18 19  1  0  0  0
 19 20  1  0  0  0
 20 21  1  0  0  0
 21 22  1  0  0  0
 46 47  1  0  0  0
 47 48  1  0  0  0
 48 49  1  0  0  0
 49 50  1  0  0  0
 50 54  1  0  0  0
M  CHG 1  58  -1
M  END
> <minimizedAffinity>
-10.27385

> <CNNscore>
0.3198010623

> <CNNaffinity>
7.0614485741

> <CNN_VS>
2.2582588196

> <CNNaffinity_variance>
1.4373881817

$$$$
/media/chris/experiments/cd1a-new-docking/inputs/ligands/1onq_ligand.pdb


 62 62  0  0  0  0  0  0  0  0999 V2000
  -38.1075   59.8620   59.6225 C   0  0  0  0  0  0  0  0  0  0  0  0
  -39.4802   59.4927   59.3390 N   0  0  0  0  0  0  0  0  0  0  0  0
  -40.6226   61.3076   60.0795 O   0  0  0  0  0  0  0  0  0  0  0  0
  -40.5922   60.2026   59.5736 C   0  0  0  0  0  0  0  0  0  0  0  0
  -39.6119   58.6106   58.9222 H   0  0  0  0  0  0  0  0  0  0  0  0
  -41.8714   59.5414   59.1538 C   0  0  0  0  0  0  0  0  0  0  0  0
  -41.8231   59.4327   57.6298 C   0  0  0  0  0  0  0  0  0  0  0  0
  -43.0877   58.7490   57.1154 C   0  0  0  0  0  0  0  0  0  0  0  0
  -44.0856   58.3235   58.1651 C   0  0  0  0  0  0  0  0  0  0  0  0
  -45.4685   58.3463   57.5222 C   0  0  0  0  0  0  0  0  0  0  0  0
  -46.3809   57.2258   58.0387 C   0  0  0  0  0  0  0  0  0  0  0  0
  -47.0167   57.5107   59.4119 C   0  0  0  0  0  0  0  0  0  0  0  0
  -48.4479   56.9443   59.5400 C   0  0  0  0  0  0  0  0  0  0  0  0
  -49.3601   57.9402   60.2620 C   0  0  0  0  0  0  0  0  0  0  0  0
  -50.6318   57.3408   60.8498 C   0  0  0  0  0  0  0  0  0  0  0  0
  -51.0570   58.0357   62.1349 C   0  0  0  0  0  0  0  0  0  0  0  0
  -50.4342   59.4097   62.3926 C   0  0  0  0  0  0  0  0  0  0  0  0
  -49.7322   59.3681   63.7432 C   0  0  0  0  0  0  0  0  0  0  0  0
  -48.5743   60.3229   63.9930 C   0  0  0  0  0  0  0  0  0  0  0  0
  -47.9682   60.0995   65.3876 C   0  0  0  0  0  0  0  0  0  0  0  0
  -46.5098   59.6055   65.3784 C   0  0  0  0  0  0  0  0  0  0  0  0
  -46.3558   58.1875   64.8334 C   0  0  0  0  0  0  0  0  0  0  0  0
  -38.2931   58.2061   58.0040 O   0  0  0  0  0  0  0  0  0  0  0  0
  -37.3182   58.8667   58.7894 C   0  0  0  0  0  0  0  0  0  0  0  0
  -38.7379   58.8505   57.4314 H   0  0  0  0  0  0  0  0  0  0  0  0
  -36.5767   57.9030   59.7189 C   0  0  0  0  0  0  0  0  0  0  0  0
  -35.9572   56.7941   59.2801 C   0  0  0  0  0  0  0  0  0  0  0  0
  -35.2388   55.8813   60.2721 C   0  0  0  0  0  0  0  0  0  0  0  0
  -33.9144   56.4542   60.7975 C   0  0  0  0  0  0  0  0  0  0  0  0
  -33.8930   56.8196   62.2933 C   0  0  0  0  0  0  0  0  0  0  0  0
  -34.5667   58.1922   62.5330 C   0  0  0  0  0  0  0  0  0  0  0  0
  -35.4262   58.2919   63.8187 C   0  0  0  0  0  0  0  0  0  0  0  0
  -36.5759   57.2597   63.8936 C   0  0  0  0  0  0  0  0  0  0  0  0
  -37.7885   57.7446   64.7174 C   0  0  0  0  0  0  0  0  0  0  0  0
  -39.1122   57.7156   63.9439 C   0  0  0  0  0  0  0  0  0  0  0  0
  -39.8874   59.0304   63.8904 C   0  0  0  0  0  0  0  0  0  0  0  0
  -40.8944   59.2105   65.0435 C   0  0  0  0  0  0  0  0  0  0  0  0
  -41.4811   57.9087   65.6098 C   0  0  0  0  0  0  0  0  0  0  0  0
  -42.6661   58.1967   66.5361 C   0  0  0  0  0  0  0  0  0  0  0  0
  -42.5726   59.4550   67.3807 C   0  0  0  0  0  0  0  0  0  0  0  0
  -37.7422   59.9671   61.1206 C   0  0  0  0  0  0  0  0  0  0  0  0
  -37.6251   61.3055   61.6669 O   0  0  0  0  0  0  0  0  0  0  0  0
  -35.6182   63.3424   61.6580 O   0  0  0  0  0  0  0  0  0  0  0  0
  -36.8544   63.8459   65.6099 O   0  0  0  0  0  0  0  0  0  0  0  0
  -37.2829   61.2777   64.0684 O   0  0  0  0  0  0  0  0  0  0  0  0
  -36.7022   61.5994   62.7812 C   0  0  0  0  0  0  0  0  0  0  0  0
  -36.2098   63.0499   62.8862 C   0  0  0  0  0  0  0  0  0  0  0  0
  -35.1582   63.2693   63.9958 C   0  0  0  0  0  0  0  0  0  0  0  0
  -35.8311   62.9062   65.2906 C   0  0  0  0  0  0  0  0  0  0  0  0
  -36.3975   61.5008   65.1989 C   0  0  0  0  0  0  0  0  0  0  0  0
  -36.2653   63.2099   60.9477 H   0  0  0  0  0  0  0  0  0  0  0  0
  -36.4713   64.7355   65.6634 H   0  0  0  0  0  0  0  0  0  0  0  0
  -36.2683   62.0268   67.5269 O   0  0  0  0  0  0  0  0  0  0  0  0
  -37.0302   61.3408   66.5794 C   0  0  0  0  0  0  0  0  0  0  0  0
  -36.6723   61.9237   68.4029 H   0  0  0  0  0  0  0  0  0  0  0  0
  -34.6799   64.6240   64.1576 O   0  0  0  0  0  0  0  0  0  0  0  0
  -32.3162   64.1536   63.2045 O   0  0  0  0  0  0  0  0  0  0  0  0
  -32.5635   64.7848   65.5346 O   0  0  0  0  0  0  0  0  0  0  0  0
  -32.8016   66.4490   63.7887 O   0  0  0  0  0  0  0  0  0  0  0  0
  -33.0648   65.0284   64.1547 S   0  0  0  0  0  0  0  0  0  0  0  0
  -32.4756   63.2232   63.4275 H   0  0  0  0  0  0  0  0  0  0  0  0
  -33.1256   66.6167   62.8900 H   0  0  0  0  0  0  0  0  0  0  0  0
  2  1  1  0  0  0
  2  4  1  0  0  0
  2  5  1  0  0  0
 41 42  1  0  0  0
 41  1  1  0  0  0
 42 46  1  0  0  0
  1 24  1  0  0  0
 23 24  1  0  0  0
 23 25  1  0  0  0
 24 26  1  0  0  0
  3  4  2  0  0  0
 26 27  2  0  0  0
 27 28  1  0  0  0
 43 47  1  0  0  0
 43 51  1  0  0  0
 28 29  1  0  0  0
 56 48  1  0  0  0
 56 60  1  0  0  0
 29 30  1  0  0  0
 57 60  1  0  0  0
 57 61  1  0  0  0
 30 31  1  0  0  0
 44 49  1  0  0  0
 44 52  1  0  0  0
 31 32  1  0  0  0
 45 46  1  0  0  0
 45 50  1  0  0  0
 32 33  1  0  0  0
 53 54  1  0  0  0
 53 55  1  0  0  0
 33 34  1  0  0  0
 34 35  1  0  0  0
 35 36  1  0  0  0
 58 60  1  0  0  0
 36 37  1  0  0  0
 59 60  1  0  0  0
 59 62  1  0  0  0
 37 38  1  0  0  0
 38 39  1  0  0  0
 39 40  1  0  0  0
  4  6  1  0  0  0
  6  7  1  0  0  0
  7  8  1  0  0  0
  8  9  1  0  0  0
  9 10  1  0  0  0
 10 11  1  0  0  0
 11 12  1  0  0  0
 12 13  1  0  0  0
 13 14  1  0  0  0
 14 15  1  0  0  0
 15 16  1  0  0  0
 16 17  1  0  0  0
 17 18  1  0  0  0
 18 19  1  0  0  0
 19 20  1  0  0  0
 20 21  1  0  0  0
 21 22  1  0  0  0
 46 47  1  0  0  0
 47 48  1  0  0  0
 48 49  1  0  0  0
 49 50  1  0  0  0
 50 54  1  0  0  0
M  CHG 1  58  -1
M  END
> <minimizedAffinity>
-8.82873

> <CNNscore>
0.3157205284

> <CNNaffinity>
7.1746025085

> <CNN_VS>
2.2651693821

> <CNNaffinity_variance>
1.4946184158

$$$$
/media/chris/experiments/cd1a-new-docking/inputs/ligands/1onq_ligand.pdb


 62 62  0  0  0  0  0  0  0  0999 V2000
  -39.7125   59.7053   64.0882 C   0  0  0  0  0  0  0  0  0  0  0  0
  -41.1266   59.3877   64.1117 N   0  0  0  0  0  0  0  0  0  0  0  0
  -41.7610   60.1954   66.1347 O   0  0  0  0  0  0  0  0  0  0  0  0
  -42.0142   59.6401   65.0832 C   0  0  0  0  0  0  0  0  0  0  0  0
  -41.4786   58.9294   63.3147 H   0  0  0  0  0  0  0  0  0  0  0  0
  -43.4164   59.1898   64.7988 C   0  0  0  0  0  0  0  0  0  0  0  0
  -43.7747   58.1761   65.8855 C   0  0  0  0  0  0  0  0  0  0  0  0
  -44.9624   58.6830   66.7002 C   0  0  0  0  0  0  0  0  0  0  0  0
  -46.1841   57.7965   66.7140 C   0  0  0  0  0  0  0  0  0  0  0  0
  -46.6419   57.6205   65.2699 C   0  0  0  0  0  0  0  0  0  0  0  0
  -47.9100   58.4225   64.9481 C   0  0  0  0  0  0  0  0  0  0  0  0
  -49.1091   58.1020   65.8594 C   0  0  0  0  0  0  0  0  0  0  0  0
  -50.4227   58.7541   65.3747 C   0  0  0  0  0  0  0  0  0  0  0  0
  -50.1727   59.6124   64.1314 C   0  0  0  0  0  0  0  0  0  0  0  0
  -50.9883   59.2232   62.9044 C   0  0  0  0  0  0  0  0  0  0  0  0
  -50.7233   57.7906   62.4658 C   0  0  0  0  0  0  0  0  0  0  0  0
  -51.1777   57.4272   61.0503 C   0  0  0  0  0  0  0  0  0  0  0  0
  -50.0080   56.7717   60.3286 C   0  0  0  0  0  0  0  0  0  0  0  0
  -49.4526   57.4424   59.0810 C   0  0  0  0  0  0  0  0  0  0  0  0
  -48.2999   56.6212   58.4821 C   0  0  0  0  0  0  0  0  0  0  0  0
  -47.0934   57.4579   58.0181 C   0  0  0  0  0  0  0  0  0  0  0  0
  -45.9701   57.5221   59.0503 C   0  0  0  0  0  0  0  0  0  0  0  0
  -38.9866   60.5082   66.1435 O   0  0  0  0  0  0  0  0  0  0  0  0
  -39.2567   59.2894   65.4763 C   0  0  0  0  0  0  0  0  0  0  0  0
  -39.7996   61.0347   66.1968 H   0  0  0  0  0  0  0  0  0  0  0  0
  -38.0109   58.4082   65.3581 C   0  0  0  0  0  0  0  0  0  0  0  0
  -37.4873   58.0357   64.1778 C   0  0  0  0  0  0  0  0  0  0  0  0
  -36.2411   57.1531   64.1435 C   0  0  0  0  0  0  0  0  0  0  0  0
  -34.9401   57.9016   64.4681 C   0  0  0  0  0  0  0  0  0  0  0  0
  -34.6430   59.1325   63.5919 C   0  0  0  0  0  0  0  0  0  0  0  0
  -33.1513   59.1669   63.1807 C   0  0  0  0  0  0  0  0  0  0  0  0
  -32.8195   58.4724   61.8357 C   0  0  0  0  0  0  0  0  0  0  0  0
  -32.4265   56.9825   61.9722 C   0  0  0  0  0  0  0  0  0  0  0  0
  -33.4394   56.0147   61.3231 C   0  0  0  0  0  0  0  0  0  0  0  0
  -34.3920   56.6918   60.3304 C   0  0  0  0  0  0  0  0  0  0  0  0
  -35.8782   56.3927   60.5154 C   0  0  0  0  0  0  0  0  0  0  0  0
  -36.6137   56.0423   59.2068 C   0  0  0  0  0  0  0  0  0  0  0  0
  -36.0780   56.7400   57.9475 C   0  0  0  0  0  0  0  0  0  0  0  0
  -36.5667   58.1894   57.8719 C   0  0  0  0  0  0  0  0  0  0  0  0
  -37.7937   58.5322   58.6980 C   0  0  0  0  0  0  0  0  0  0  0  0
  -39.3599   61.1405   63.6357 C   0  0  0  0  0  0  0  0  0  0  0  0
  -38.1230   61.3015   62.8959 O   0  0  0  0  0  0  0  0  0  0  0  0
  -35.8818   62.5443   61.6271 O   0  0  0  0  0  0  0  0  0  0  0  0
  -35.7753   64.7595   65.1600 O   0  0  0  0  0  0  0  0  0  0  0  0
  -37.0917   62.0421   64.9631 O   0  0  0  0  0  0  0  0  0  0  0  0
  -36.8732   61.7025   63.5722 C   0  0  0  0  0  0  0  0  0  0  0  0
  -36.1229   62.8918   62.9558 C   0  0  0  0  0  0  0  0  0  0  0  0
  -34.7671   63.1885   63.6333 C   0  0  0  0  0  0  0  0  0  0  0  0
  -35.0772   63.5201   65.0669 C   0  0  0  0  0  0  0  0  0  0  0  0
  -35.8849   62.3966   65.6910 C   0  0  0  0  0  0  0  0  0  0  0  0
  -36.7238   62.3541   61.1849 H   0  0  0  0  0  0  0  0  0  0  0  0
  -35.2422   65.4620   64.7560 H   0  0  0  0  0  0  0  0  0  0  0  0
  -34.9316   62.7440   67.8551 O   0  0  0  0  0  0  0  0  0  0  0  0
  -36.0957   62.9282   67.1069 C   0  0  0  0  0  0  0  0  0  0  0  0
  -35.0680   63.0825   68.7540 H   0  0  0  0  0  0  0  0  0  0  0  0
  -34.0301   64.3169   63.1103 O   0  0  0  0  0  0  0  0  0  0  0  0
  -31.7839   63.0660   63.4370 O   0  0  0  0  0  0  0  0  0  0  0  0
  -31.8173   65.4924   63.4612 O   0  0  0  0  0  0  0  0  0  0  0  0
  -32.0403   64.2907   61.3682 O   0  0  0  0  0  0  0  0  0  0  0  0
  -32.3917   64.2802   62.8165 S   0  0  0  0  0  0  0  0  0  0  0  0
  -32.0022   63.0419   64.3818 H   0  0  0  0  0  0  0  0  0  0  0  0
  -32.4111   63.5034   60.9398 H   0  0  0  0  0  0  0  0  0  0  0  0
  2  1  1  0  0  0
  2  4  1  0  0  0
  2  5  1  0  0  0
 41 42  1  0  0  0
 41  1  1  0  0  0
 42 46  1  0  0  0
  1 24  1  0  0  0
 23 24  1  0  0  0
 23 25  1  0  0  0
 24 26  1  0  0  0
  3  4  2  0  0  0
 26 27  2  0  0  0
 27 28  1  0  0  0
 43 47  1  0  0  0
 43 51  1  0  0  0
 28 29  1  0  0  0
 56 48  1  0  0  0
 56 60  1  0  0  0
 29 30  1  0  0  0
 57 60  1  0  0  0
 57 61  1  0  0  0
 30 31  1  0  0  0
 44 49  1  0  0  0
 44 52  1  0  0  0
 31 32  1  0  0  0
 45 46  1  0  0  0
 45 50  1  0  0  0
 32 33  1  0  0  0
 53 54  1  0  0  0
 53 55  1  0  0  0
 33 34  1  0  0  0
 34 35  1  0  0  0
 35 36  1  0  0  0
 58 60  1  0  0  0
 36 37  1  0  0  0
 59 60  1  0  0  0
 59 62  1  0  0  0
 37 38  1  0  0  0
 38 39  1  0  0  0
 39 40  1  0  0  0
  4  6  1  0  0  0
  6  7  1  0  0  0
  7  8  1  0  0  0
  8  9  1  0  0  0
  9 10  1  0  0  0
 10 11  1  0  0  0
 11 12  1  0  0  0
 12 13  1  0  0  0
 13 14  1  0  0  0
 14 15  1  0  0  0
 15 16  1  0  0  0
 16 17  1  0  0  0
 17 18  1  0  0  0
 18 19  1  0  0  0
 19 20  1  0  0  0
 20 21  1  0  0  0
 21 22  1  0  0  0
 46 47  1  0  0  0
 47 48  1  0  0  0
 48 49  1  0  0  0
 49 50  1  0  0  0
 50 54  1  0  0  0
M  CHG 1  58  -1
M  END
> <minimizedAffinity>
-9.24354

> <CNNscore>
0.2921658456

> <CNNaffinity>
7.1318025589

> <CNN_VS>
2.0836691856

> <CNNaffinity_variance>
1.0175672770

$$$$
/media/chris/experiments/cd1a-new-docking/inputs/ligands/1onq_ligand.pdb


 62 62  0  0  0  0  0  0  0  0999 V2000
  -39.5800   59.4868   64.2808 C   0  0  0  0  0  0  0  0  0  0  0  0
  -38.4366   60.1255   64.9021 N   0  0  0  0  0  0  0  0  0  0  0  0
  -37.5440   61.2890   63.1709 O   0  0  0  0  0  0  0  0  0  0  0  0
  -37.5385   60.9433   64.3364 C   0  0  0  0  0  0  0  0  0  0  0  0
  -38.3034   59.9346   65.8586 H   0  0  0  0  0  0  0  0  0  0  0  0
  -36.4685   61.4502   65.2574 C   0  0  0  0  0  0  0  0  0  0  0  0
  -35.5069   62.2684   64.3955 C   0  0  0  0  0  0  0  0  0  0  0  0
  -35.6667   63.7552   64.7037 C   0  0  0  0  0  0  0  0  0  0  0  0
  -35.3428   64.1786   66.1160 C   0  0  0  0  0  0  0  0  0  0  0  0
  -33.8589   64.5276   66.1634 C   0  0  0  0  0  0  0  0  0  0  0  0
  -33.4030   65.3449   64.9472 C   0  0  0  0  0  0  0  0  0  0  0  0
  -32.0410   64.9156   64.3715 C   0  0  0  0  0  0  0  0  0  0  0  0
  -31.9975   64.9695   62.8286 C   0  0  0  0  0  0  0  0  0  0  0  0
  -32.2616   63.5839   62.2323 C   0  0  0  0  0  0  0  0  0  0  0  0
  -31.4072   62.4607   62.8072 C   0  0  0  0  0  0  0  0  0  0  0  0
  -31.0907   61.3895   61.7742 C   0  0  0  0  0  0  0  0  0  0  0  0
  -30.9277   59.9659   62.3119 C   0  0  0  0  0  0  0  0  0  0  0  0
  -32.1529   59.1596   61.9026 C   0  0  0  0  0  0  0  0  0  0  0  0
  -33.4355   59.3243   62.7043 C   0  0  0  0  0  0  0  0  0  0  0  0
  -33.7972   58.0225   63.4366 C   0  0  0  0  0  0  0  0  0  0  0  0
  -34.8027   58.1967   64.5898 C   0  0  0  0  0  0  0  0  0  0  0  0
  -35.9268   57.1633   64.5722 C   0  0  0  0  0  0  0  0  0  0  0  0
  -40.1676   60.6900   66.1789 O   0  0  0  0  0  0  0  0  0  0  0  0
  -40.7497   60.0994   65.0317 C   0  0  0  0  0  0  0  0  0  0  0  0
  -39.5417   61.3789   65.9055 H   0  0  0  0  0  0  0  0  0  0  0  0
  -41.7510   59.0000   65.3943 C   0  0  0  0  0  0  0  0  0  0  0  0
  -43.0688   59.1009   65.1507 C   0  0  0  0  0  0  0  0  0  0  0  0
  -44.0043   57.9593   65.5439 C   0  0  0  0  0  0  0  0  0  0  0  0
  -45.4583   58.1641   65.0945 C   0  0  0  0  0  0  0  0  0  0  0  0
  -46.1836   59.3727   65.7147 C   0  0  0  0  0  0  0  0  0  0  0  0
  -47.5649   58.9562   66.2749 C   0  0  0  0  0  0  0  0  0  0  0  0
  -48.7875   59.5364   65.5197 C   0  0  0  0  0  0  0  0  0  0  0  0
  -49.0765   58.8529   64.1625 C   0  0  0  0  0  0  0  0  0  0  0  0
  -50.5818   58.7281   63.8421 C   0  0  0  0  0  0  0  0  0  0  0  0
  -50.8788   58.4752   62.3590 C   0  0  0  0  0  0  0  0  0  0  0  0
  -49.7228   58.7204   61.3915 C   0  0  0  0  0  0  0  0  0  0  0  0
  -49.0854   57.4306   60.8382 C   0  0  0  0  0  0  0  0  0  0  0  0
  -48.7315   57.4640   59.3438 C   0  0  0  0  0  0  0  0  0  0  0  0
  -47.2174   57.3685   59.1350 C   0  0  0  0  0  0  0  0  0  0  0  0
  -46.7101   57.6520   57.7323 C   0  0  0  0  0  0  0  0  0  0  0  0
  -39.5235   57.9439   64.2098 C   0  0  0  0  0  0  0  0  0  0  0  0
  -39.1185   57.3677   62.9421 O   0  0  0  0  0  0  0  0  0  0  0  0
  -36.8526   56.5674   61.3920 O   0  0  0  0  0  0  0  0  0  0  0  0
  -38.9187   58.5078   58.3317 O   0  0  0  0  0  0  0  0  0  0  0  0
  -39.3880   59.0971   61.2622 O   0  0  0  0  0  0  0  0  0  0  0  0
  -38.4620   58.1869   61.9038 C   0  0  0  0  0  0  0  0  0  0  0  0
  -37.7696   57.4149   60.7716 C   0  0  0  0  0  0  0  0  0  0  0  0
  -37.0020   58.3197   59.7828 C   0  0  0  0  0  0  0  0  0  0  0  0
  -38.0250   59.2359   59.1702 C   0  0  0  0  0  0  0  0  0  0  0  0
  -38.7835   59.9642   60.2650 C   0  0  0  0  0  0  0  0  0  0  0  0
  -37.3177   55.9905   62.0179 H   0  0  0  0  0  0  0  0  0  0  0  0
  -38.4139   58.0510   57.6406 H   0  0  0  0  0  0  0  0  0  0  0  0
  -40.9238   60.0868   59.2080 O   0  0  0  0  0  0  0  0  0  0  0  0
  -39.7545   60.8114   59.4458 C   0  0  0  0  0  0  0  0  0  0  0  0
  -41.5389   60.6271   58.6875 H   0  0  0  0  0  0  0  0  0  0  0  0
  -36.3534   57.6469   58.6798 O   0  0  0  0  0  0  0  0  0  0  0  0
  -34.0890   56.9393   57.6364 O   0  0  0  0  0  0  0  0  0  0  0  0
  -35.3513   55.3401   58.9548 O   0  0  0  0  0  0  0  0  0  0  0  0
  -34.1463   57.1381   60.0454 O   0  0  0  0  0  0  0  0  0  0  0  0
  -34.9486   56.7685   58.8450 S   0  0  0  0  0  0  0  0  0  0  0  0
  -34.5952   56.7029   56.8435 H   0  0  0  0  0  0  0  0  0  0  0  0
  -33.8795   58.0685   59.9821 H   0  0  0  0  0  0  0  0  0  0  0  0
  2  1  1  0  0  0
  2  4  1  0  0  0
  2  5  1  0  0  0
 41 42  1  0  0  0
 41  1  1  0  0  0
 42 46  1  0  0  0
  1 24  1  0  0  0
 23 24  1  0  0  0
 23 25  1  0  0  0
 24 26  1  0  0  0
  3  4  2  0  0  0
 26 27  2  0  0  0
 27 28  1  0  0  0
 43 47  1  0  0  0
 43 51  1  0  0  0
 28 29  1  0  0  0
 56 48  1  0  0  0
 56 60  1  0  0  0
 29 30  1  0  0  0
 57 60  1  0  0  0
 57 61  1  0  0  0
 30 31  1  0  0  0
 44 49  1  0  0  0
 44 52  1  0  0  0
 31 32  1  0  0  0
 45 46  1  0  0  0
 45 50  1  0  0  0
 32 33  1  0  0  0
 53 54  1  0  0  0
 53 55  1  0  0  0
 33 34  1  0  0  0
 34 35  1  0  0  0
 35 36  1  0  0  0
 58 60  1  0  0  0
 36 37  1  0  0  0
 59 60  1  0  0  0
 59 62  1  0  0  0
 37 38  1  0  0  0
 38 39  1  0  0  0
 39 40  1  0  0  0
  4  6  1  0  0  0
  6  7  1  0  0  0
  7  8  1  0  0  0
  8  9  1  0  0  0
  9 10  1  0  0  0
 10 11  1  0  0  0
 11 12  1  0  0  0
 12 13  1  0  0  0
 13 14  1  0  0  0
 14 15  1  0  0  0
 15 16  1  0  0  0
 16 17  1  0  0  0
 17 18  1  0  0  0
 18 19  1  0  0  0
 19 20  1  0  0  0
 20 21  1  0  0  0
 21 22  1  0  0  0
 46 47  1  0  0  0
 47 48  1  0  0  0
 48 49  1  0  0  0
 49 50  1  0  0  0
 50 54  1  0  0  0
M  CHG 1  58  -1
M  END
> <minimizedAffinity>
-8.77394

> <CNNscore>
0.2844033539

> <CNNaffinity>
6.9944686890

> <CNN_VS>
1.9892503023

> <CNNaffinity_variance>
1.2245206833

$$$$
/media/chris/experiments/cd1a-new-docking/inputs/ligands/1onq_ligand.pdb


 62 62  0  0  0  0  0  0  0  0999 V2000
  -38.2138   58.9983   59.0145 C   0  0  0  0  0  0  0  0  0  0  0  0
  -39.3964   58.7995   58.2002 N   0  0  0  0  0  0  0  0  0  0  0  0
  -40.8656   60.2546   59.1338 O   0  0  0  0  0  0  0  0  0  0  0  0
  -40.5850   59.4090   58.3067 C   0  0  0  0  0  0  0  0  0  0  0  0
  -39.3164   58.1338   57.4794 H   0  0  0  0  0  0  0  0  0  0  0  0
  -41.6117   58.9851   57.2987 C   0  0  0  0  0  0  0  0  0  0  0  0
  -42.9727   59.3709   57.8780 C   0  0  0  0  0  0  0  0  0  0  0  0
  -44.0039   58.2943   57.5485 C   0  0  0  0  0  0  0  0  0  0  0  0
  -44.9831   57.9554   58.6463 C   0  0  0  0  0  0  0  0  0  0  0  0
  -46.2379   57.3926   57.9868 C   0  0  0  0  0  0  0  0  0  0  0  0
  -47.5298   57.9630   58.5873 C   0  0  0  0  0  0  0  0  0  0  0  0
  -47.9826   57.2710   59.8861 C   0  0  0  0  0  0  0  0  0  0  0  0
  -49.2420   56.3978   59.6937 C   0  0  0  0  0  0  0  0  0  0  0  0
  -50.3979   56.9210   60.5511 C   0  0  0  0  0  0  0  0  0  0  0  0
  -50.1912   58.3149   61.1310 C   0  0  0  0  0  0  0  0  0  0  0  0
  -50.9283   58.5073   62.4481 C   0  0  0  0  0  0  0  0  0  0  0  0
  -50.1646   59.2588   63.5409 C   0  0  0  0  0  0  0  0  0  0  0  0
  -50.2108   58.4240   64.8136 C   0  0  0  0  0  0  0  0  0  0  0  0
  -48.9025   57.9134   65.3988 C   0  0  0  0  0  0  0  0  0  0  0  0
  -47.6986   58.4675   64.6206 C   0  0  0  0  0  0  0  0  0  0  0  0
  -46.9269   59.5838   65.3481 C   0  0  0  0  0  0  0  0  0  0  0  0
  -45.4401   59.2793   65.5165 C   0  0  0  0  0  0  0  0  0  0  0  0
  -37.8517   57.6345   57.1692 O   0  0  0  0  0  0  0  0  0  0  0  0
  -37.1642   58.1838   58.2780 C   0  0  0  0  0  0  0  0  0  0  0  0
  -38.1816   58.3518   56.6057 H   0  0  0  0  0  0  0  0  0  0  0  0
  -36.6161   57.1012   59.2107 C   0  0  0  0  0  0  0  0  0  0  0  0
  -35.5292   56.3661   58.9198 C   0  0  0  0  0  0  0  0  0  0  0  0
  -35.0450   55.3027   59.9036 C   0  0  0  0  0  0  0  0  0  0  0  0
  -33.9134   55.7786   60.8262 C   0  0  0  0  0  0  0  0  0  0  0  0
  -33.6263   57.2913   60.8031 C   0  0  0  0  0  0  0  0  0  0  0  0
  -34.2400   57.9859   62.0425 C   0  0  0  0  0  0  0  0  0  0  0  0
  -33.2701   58.8940   62.8402 C   0  0  0  0  0  0  0  0  0  0  0  0
  -31.8049   58.8431   62.3470 C   0  0  0  0  0  0  0  0  0  0  0  0
  -31.3184   60.1670   61.7187 C   0  0  0  0  0  0  0  0  0  0  0  0
  -31.8111   61.4183   62.4556 C   0  0  0  0  0  0  0  0  0  0  0  0
  -31.4380   62.7587   61.8260 C   0  0  0  0  0  0  0  0  0  0  0  0
  -32.4924   63.8636   62.0354 C   0  0  0  0  0  0  0  0  0  0  0  0
  -32.0831   64.9843   63.0029 C   0  0  0  0  0  0  0  0  0  0  0  0
  -32.9077   64.9263   64.2920 C   0  0  0  0  0  0  0  0  0  0  0  0
  -32.4606   63.9172   65.3347 C   0  0  0  0  0  0  0  0  0  0  0  0
  -38.3891   58.7145   60.5236 C   0  0  0  0  0  0  0  0  0  0  0  0
  -37.9908   59.7720   61.4326 O   0  0  0  0  0  0  0  0  0  0  0  0
  -36.6178   61.3966   63.3438 O   0  0  0  0  0  0  0  0  0  0  0  0
  -40.1170   60.8453   65.5464 O   0  0  0  0  0  0  0  0  0  0  0  0
  -39.2482   58.9624   63.3428 O   0  0  0  0  0  0  0  0  0  0  0  0
  -38.0134   59.5728   62.8955 C   0  0  0  0  0  0  0  0  0  0  0  0
  -37.8261   60.8332   63.7520 C   0  0  0  0  0  0  0  0  0  0  0  0
  -37.7405   60.5466   65.2672 C   0  0  0  0  0  0  0  0  0  0  0  0
  -39.0475   59.9085   65.6490 C   0  0  0  0  0  0  0  0  0  0  0  0
  -39.3038   58.6973   64.7705 C   0  0  0  0  0  0  0  0  0  0  0  0
  -36.6533   61.5837   62.3928 H   0  0  0  0  0  0  0  0  0  0  0  0
  -39.9328   61.6098   66.1145 H   0  0  0  0  0  0  0  0  0  0  0  0
  -41.6836   58.8562   64.6141 O   0  0  0  0  0  0  0  0  0  0  0  0
  -40.6518   58.2181   65.3047 C   0  0  0  0  0  0  0  0  0  0  0  0
  -42.5387   58.5501   64.9552 H   0  0  0  0  0  0  0  0  0  0  0  0
  -37.5918   61.7015   66.1239 O   0  0  0  0  0  0  0  0  0  0  0  0
  -35.9796   63.7055   65.8046 O   0  0  0  0  0  0  0  0  0  0  0  0
  -35.0787   61.4578   65.9626 O   0  0  0  0  0  0  0  0  0  0  0  0
  -35.8925   62.5874   67.9466 O   0  0  0  0  0  0  0  0  0  0  0  0
  -36.1177   62.3850   66.4873 S   0  0  0  0  0  0  0  0  0  0  0  0
  -36.1232   63.5936   64.8519 H   0  0  0  0  0  0  0  0  0  0  0  0
  -36.5660   63.1910   68.2971 H   0  0  0  0  0  0  0  0  0  0  0  0
  2  1  1  0  0  0
  2  4  1  0  0  0
  2  5  1  0  0  0
 41 42  1  0  0  0
 41  1  1  0  0  0
 42 46  1  0  0  0
  1 24  1  0  0  0
 23 24  1  0  0  0
 23 25  1  0  0  0
 24 26  1  0  0  0
  3  4  2  0  0  0
 26 27  2  0  0  0
 27 28  1  0  0  0
 43 47  1  0  0  0
 43 51  1  0  0  0
 28 29  1  0  0  0
 56 48  1  0  0  0
 56 60  1  0  0  0
 29 30  1  0  0  0
 57 60  1  0  0  0
 57 61  1  0  0  0
 30 31  1  0  0  0
 44 49  1  0  0  0
 44 52  1  0  0  0
 31 32  1  0  0  0
 45 46  1  0  0  0
 45 50  1  0  0  0
 32 33  1  0  0  0
 53 54  1  0  0  0
 53 55  1  0  0  0
 33 34  1  0  0  0
 34 35  1  0  0  0
 35 36  1  0  0  0
 58 60  1  0  0  0
 36 37  1  0  0  0
 59 60  1  0  0  0
 59 62  1  0  0  0
 37 38  1  0  0  0
 38 39  1  0  0  0
 39 40  1  0  0  0
  4  6  1  0  0  0
  6  7  1  0  0  0
  7  8  1  0  0  0
  8  9  1  0  0  0
  9 10  1  0  0  0
 10 11  1  0  0  0
 11 12  1  0  0  0
 12 13  1  0  0  0
 13 14  1  0  0  0
 14 15  1  0  0  0
 15 16  1  0  0  0
 16 17  1  0  0  0
 17 18  1  0  0  0
 18 19  1  0  0  0
 19 20  1  0  0  0
 20 21  1  0  0  0
 21 22  1  0  0  0
 46 47  1  0  0  0
 47 48  1  0  0  0
 48 49  1  0  0  0
 49 50  1  0  0  0
 50 54  1  0  0  0
M  CHG 1  58  -1
M  END
> <minimizedAffinity>
-8.47069

> <CNNscore>
0.2777639627

> <CNNaffinity>
6.7993659973

> <CNN_VS>
1.8886188269

> <CNNaffinity_variance>
0.6529805064

$$$$
/media/chris/experiments/cd1a-new-docking/inputs/ligands/1onq_ligand.pdb


 62 62  0  0  0  0  0  0  0  0999 V2000
  -38.8469   59.4935   60.5649 C   0  0  0  0  0  0  0  0  0  0  0  0
  -38.5653   58.5525   59.4989 N   0  0  0  0  0  0  0  0  0  0  0  0
  -36.5734   59.3048   58.7154 O   0  0  0  0  0  0  0  0  0  0  0  0
  -37.5016   58.5202   58.6847 C   0  0  0  0  0  0  0  0  0  0  0  0
  -39.2395   57.8496   59.3553 H   0  0  0  0  0  0  0  0  0  0  0  0
  -37.5004   57.4057   57.6808 C   0  0  0  0  0  0  0  0  0  0  0  0
  -36.1727   56.6681   57.8539 C   0  0  0  0  0  0  0  0  0  0  0  0
  -36.3232   55.5604   58.8938 C   0  0  0  0  0  0  0  0  0  0  0  0
  -35.0688   55.1769   59.6409 C   0  0  0  0  0  0  0  0  0  0  0  0
  -34.1806   56.4144   59.7157 C   0  0  0  0  0  0  0  0  0  0  0  0
  -34.0366   56.9553   61.1446 C   0  0  0  0  0  0  0  0  0  0  0  0
  -35.3060   57.6300   61.6961 C   0  0  0  0  0  0  0  0  0  0  0  0
  -35.6419   57.1898   63.1379 C   0  0  0  0  0  0  0  0  0  0  0  0
  -37.1066   57.4918   63.4674 C   0  0  0  0  0  0  0  0  0  0  0  0
  -37.4337   57.5533   64.9544 C   0  0  0  0  0  0  0  0  0  0  0  0
  -38.7667   58.2353   65.2245 C   0  0  0  0  0  0  0  0  0  0  0  0
  -39.5698   58.6518   63.9901 C   0  0  0  0  0  0  0  0  0  0  0  0
  -40.5295   59.7611   64.3988 C   0  0  0  0  0  0  0  0  0  0  0  0
  -42.0246   59.4810   64.3654 C   0  0  0  0  0  0  0  0  0  0  0  0
  -42.5991   59.3907   65.7880 C   0  0  0  0  0  0  0  0  0  0  0  0
  -42.2202   58.1070   66.5494 C   0  0  0  0  0  0  0  0  0  0  0  0
  -43.0366   56.8889   66.1234 C   0  0  0  0  0  0  0  0  0  0  0  0
  -40.9280   60.4484   60.9560 O   0  0  0  0  0  0  0  0  0  0  0  0
  -39.9289   60.3689   59.9564 C   0  0  0  0  0  0  0  0  0  0  0  0
  -40.5589   60.8672   61.7494 H   0  0  0  0  0  0  0  0  0  0  0  0
  -40.4476   59.7155   58.6733 C   0  0  0  0  0  0  0  0  0  0  0  0
  -41.7548   59.5263   58.4251 C   0  0  0  0  0  0  0  0  0  0  0  0
  -42.1929   58.8651   57.1197 C   0  0  0  0  0  0  0  0  0  0  0  0
  -43.7034   58.6019   57.0325 C   0  0  0  0  0  0  0  0  0  0  0  0
  -44.3905   58.2185   58.3562 C   0  0  0  0  0  0  0  0  0  0  0  0
  -45.8887   57.9052   58.1267 C   0  0  0  0  0  0  0  0  0  0  0  0
  -46.6359   57.3141   59.3489 C   0  0  0  0  0  0  0  0  0  0  0  0
  -48.0510   56.7783   59.0278 C   0  0  0  0  0  0  0  0  0  0  0  0
  -49.1861   57.6233   59.6456 C   0  0  0  0  0  0  0  0  0  0  0  0
  -50.2081   56.7997   60.4384 C   0  0  0  0  0  0  0  0  0  0  0  0
  -51.1483   57.5901   61.3461 C   0  0  0  0  0  0  0  0  0  0  0  0
  -50.4533   58.7136   62.1405 C   0  0  0  0  0  0  0  0  0  0  0  0
  -49.5537   58.2409   63.2925 C   0  0  0  0  0  0  0  0  0  0  0  0
  -50.3132   58.2495   64.6223 C   0  0  0  0  0  0  0  0  0  0  0  0
  -49.6903   59.0526   65.7504 C   0  0  0  0  0  0  0  0  0  0  0  0
  -37.6153   60.2133   61.1600 C   0  0  0  0  0  0  0  0  0  0  0  0
  -37.8794   61.2319   62.1580 O   0  0  0  0  0  0  0  0  0  0  0  0
  -35.8139   63.1841   61.8424 O   0  0  0  0  0  0  0  0  0  0  0  0
  -36.7560   64.0589   65.8106 O   0  0  0  0  0  0  0  0  0  0  0  0
  -37.3722   61.3899   64.5251 O   0  0  0  0  0  0  0  0  0  0  0  0
  -36.8724   61.5820   63.1795 C   0  0  0  0  0  0  0  0  0  0  0  0
  -36.3278   63.0166   63.1277 C   0  0  0  0  0  0  0  0  0  0  0  0
  -35.1952   63.2873   64.1422 C   0  0  0  0  0  0  0  0  0  0  0  0
  -35.7879   63.0582   65.5051 C   0  0  0  0  0  0  0  0  0  0  0  0
  -36.4038   61.6723   65.5711 C   0  0  0  0  0  0  0  0  0  0  0  0
  -36.5126   63.0178   61.1906 H   0  0  0  0  0  0  0  0  0  0  0  0
  -36.3418   64.9348   65.7626 H   0  0  0  0  0  0  0  0  0  0  0  0
  -36.0780   62.3540   67.8388 O   0  0  0  0  0  0  0  0  0  0  0  0
  -36.9439   61.6509   66.9993 C   0  0  0  0  0  0  0  0  0  0  0  0
  -36.4233   62.3390   68.7452 H   0  0  0  0  0  0  0  0  0  0  0  0
  -34.6639   64.6317   64.1559 O   0  0  0  0  0  0  0  0  0  0  0  0
  -32.3092   63.9513   63.3136 O   0  0  0  0  0  0  0  0  0  0  0  0
  -32.5606   64.8859   65.5390 O   0  0  0  0  0  0  0  0  0  0  0  0
  -32.7080   66.3198   63.5905 O   0  0  0  0  0  0  0  0  0  0  0  0
  -33.0337   64.9694   64.1305 S   0  0  0  0  0  0  0  0  0  0  0  0
  -32.5093   63.0641   63.6509 H   0  0  0  0  0  0  0  0  0  0  0  0
  -33.0133   66.3830   62.6720 H   0  0  0  0  0  0  0  0  0  0  0  0
  2  1  1  0  0  0
  2  4  1  0  0  0
  2  5  1  0  0  0
 41 42  1  0  0  0
 41  1  1  0  0  0
 42 46  1  0  0  0
  1 24  1  0  0  0
 23 24  1  0  0  0
 23 25  1  0  0  0
 24 26  1  0  0  0
  3  4  2  0  0  0
 26 27  2  0  0  0
 27 28  1  0  0  0
 43 47  1  0  0  0
 43 51  1  0  0  0
 28 29  1  0  0  0
 56 48  1  0  0  0
 56 60  1  0  0  0
 29 30  1  0  0  0
 57 60  1  0  0  0
 57 61  1  0  0  0
 30 31  1  0  0  0
 44 49  1  0  0  0
 44 52  1  0  0  0
 31 32  1  0  0  0
 45 46  1  0  0  0
 45 50  1  0  0  0
 32 33  1  0  0  0
 53 54  1  0  0  0
 53 55  1  0  0  0
 33 34  1  0  0  0
 34 35  1  0  0  0
 35 36  1  0  0  0
 58 60  1  0  0  0
 36 37  1  0  0  0
 59 60  1  0  0  0
 59 62  1  0  0  0
 37 38  1  0  0  0
 38 39  1  0  0  0
 39 40  1  0  0  0
  4  6  1  0  0  0
  6  7  1  0  0  0
  7  8  1  0  0  0
  8  9  1  0  0  0
  9 10  1  0  0  0
 10 11  1  0  0  0
 11 12  1  0  0  0
 12 13  1  0  0  0
 13 14  1  0  0  0
 14 15  1  0  0  0
 15 16  1  0  0  0
 16 17  1  0  0  0
 17 18  1  0  0  0
 18 19  1  0  0  0
 19 20  1  0  0  0
 20 21  1  0  0  0
 21 22  1  0  0  0
 46 47  1  0  0  0
 47 48  1  0  0  0
 48 49  1  0  0  0
 49 50  1  0  0  0
 50 54  1  0  0  0
M  CHG 1  58  -1
M  END
> <minimizedAffinity>
-8.99060

> <CNNscore>
0.2699479461

> <CNNaffinity>
7.0806493759

> <CNN_VS>
1.9114067554

> <CNNaffinity_variance>
1.1742022038

$$$$
/media/chris/experiments/cd1a-new-docking/inputs/ligands/1onq_ligand.pdb


 62 62  0  0  0  0  0  0  0  0999 V2000
  -38.1391   59.6376   59.6450 C   0  0  0  0  0  0  0  0  0  0  0  0
  -39.5325   59.3765   59.3427 N   0  0  0  0  0  0  0  0  0  0  0  0
  -40.5210   61.3309   59.9345 O   0  0  0  0  0  0  0  0  0  0  0  0
  -40.5798   60.1975   59.4987 C   0  0  0  0  0  0  0  0  0  0  0  0
  -39.7344   58.4850   58.9771 H   0  0  0  0  0  0  0  0  0  0  0  0
  -41.9036   59.6290   59.0813 C   0  0  0  0  0  0  0  0  0  0  0  0
  -41.7986   59.3410   57.5837 C   0  0  0  0  0  0  0  0  0  0  0  0
  -43.1089   58.7457   57.0740 C   0  0  0  0  0  0  0  0  0  0  0  0
  -44.0715   58.2588   58.1299 C   0  0  0  0  0  0  0  0  0  0  0  0
  -45.4796   58.3641   57.5536 C   0  0  0  0  0  0  0  0  0  0  0  0
  -46.5093   57.5540   58.3525 C   0  0  0  0  0  0  0  0  0  0  0  0
  -47.4491   56.6959   57.4856 C   0  0  0  0  0  0  0  0  0  0  0  0
  -48.8982   56.6664   58.0193 C   0  0  0  0  0  0  0  0  0  0  0  0
  -49.0048   57.4427   59.3351 C   0  0  0  0  0  0  0  0  0  0  0  0
  -49.6712   56.6863   60.4779 C   0  0  0  0  0  0  0  0  0  0  0  0
  -50.9404   57.3721   60.9614 C   0  0  0  0  0  0  0  0  0  0  0  0
  -50.7449   58.6804   61.7310 C   0  0  0  0  0  0  0  0  0  0  0  0
  -50.3358   58.3370   63.1570 C   0  0  0  0  0  0  0  0  0  0  0  0
  -49.4693   59.3242   63.9249 C   0  0  0  0  0  0  0  0  0  0  0  0
  -49.6017   59.1087   65.4408 C   0  0  0  0  0  0  0  0  0  0  0  0
  -49.4808   57.6408   65.8901 C   0  0  0  0  0  0  0  0  0  0  0  0
  -48.0394   57.1384   65.9308 C   0  0  0  0  0  0  0  0  0  0  0  0
  -38.4164   58.2815   57.7795 O   0  0  0  0  0  0  0  0  0  0  0  0
  -37.4127   58.7210   58.6756 C   0  0  0  0  0  0  0  0  0  0  0  0
  -38.7881   59.0451   57.3107 H   0  0  0  0  0  0  0  0  0  0  0  0
  -36.7829   57.5608   59.4502 C   0  0  0  0  0  0  0  0  0  0  0  0
  -36.1177   56.5575   58.8527 C   0  0  0  0  0  0  0  0  0  0  0  0
  -35.5181   55.4342   59.6964 C   0  0  0  0  0  0  0  0  0  0  0  0
  -34.0004   55.5510   59.8989 C   0  0  0  0  0  0  0  0  0  0  0  0
  -33.5414   56.6424   60.8835 C   0  0  0  0  0  0  0  0  0  0  0  0
  -34.5364   56.7726   62.0619 C   0  0  0  0  0  0  0  0  0  0  0  0
  -34.2008   57.8809   63.0918 C   0  0  0  0  0  0  0  0  0  0  0  0
  -35.3944   58.3011   63.9815 C   0  0  0  0  0  0  0  0  0  0  0  0
  -36.4121   57.1660   64.2260 C   0  0  0  0  0  0  0  0  0  0  0  0
  -37.6928   57.6261   64.9330 C   0  0  0  0  0  0  0  0  0  0  0  0
  -38.9724   57.5811   64.1005 C   0  0  0  0  0  0  0  0  0  0  0  0
  -40.2647   57.6989   64.9325 C   0  0  0  0  0  0  0  0  0  0  0  0
  -40.9294   59.0837   64.9170 C   0  0  0  0  0  0  0  0  0  0  0  0
  -41.5043   59.4332   66.2927 C   0  0  0  0  0  0  0  0  0  0  0  0
  -42.6922   58.6095   66.7572 C   0  0  0  0  0  0  0  0  0  0  0  0
  -37.7500   59.5295   61.1369 C   0  0  0  0  0  0  0  0  0  0  0  0
  -38.4023   60.4527   62.0455 O   0  0  0  0  0  0  0  0  0  0  0  0
  -38.2851   60.8920   64.8687 O   0  0  0  0  0  0  0  0  0  0  0  0
  -34.2933   61.7725   64.0379 O   0  0  0  0  0  0  0  0  0  0  0  0
  -36.4793   61.9287   61.9517 O   0  0  0  0  0  0  0  0  0  0  0  0
  -37.6478   61.5336   62.7106 C   0  0  0  0  0  0  0  0  0  0  0  0
  -37.1517   61.2353   64.1327 C   0  0  0  0  0  0  0  0  0  0  0  0
  -36.4743   62.4415   64.8192 C   0  0  0  0  0  0  0  0  0  0  0  0
  -35.2844   62.7949   63.9704 C   0  0  0  0  0  0  0  0  0  0  0  0
  -35.7264   63.0253   62.5366 C   0  0  0  0  0  0  0  0  0  0  0  0
  -38.7243   60.1346   64.4514 H   0  0  0  0  0  0  0  0  0  0  0  0
  -34.0258   61.6419   64.9612 H   0  0  0  0  0  0  0  0  0  0  0  0
  -33.6650   64.2284   62.6648 O   0  0  0  0  0  0  0  0  0  0  0  0
  -34.3966   63.3525   61.8608 C   0  0  0  0  0  0  0  0  0  0  0  0
  -32.8209   64.4346   62.2334 H   0  0  0  0  0  0  0  0  0  0  0  0
  -35.9628   62.2084   66.1511 O   0  0  0  0  0  0  0  0  0  0  0  0
  -36.3833   63.9046   68.0651 O   0  0  0  0  0  0  0  0  0  0  0  0
  -34.9548   64.5284   66.2051 O   0  0  0  0  0  0  0  0  0  0  0  0
  -34.1470   62.9998   67.9036 O   0  0  0  0  0  0  0  0  0  0  0  0
  -35.3410   63.4156   67.1146 S   0  0  0  0  0  0  0  0  0  0  0  0
  -37.1697   64.1803   67.5688 H   0  0  0  0  0  0  0  0  0  0  0  0
  -34.3899   62.2741   68.4996 H   0  0  0  0  0  0  0  0  0  0  0  0
  2  1  1  0  0  0
  2  4  1  0  0  0
  2  5  1  0  0  0
 41 42  1  0  0  0
 41  1  1  0  0  0
 42 46  1  0  0  0
  1 24  1  0  0  0
 23 24  1  0  0  0
 23 25  1  0  0  0
 24 26  1  0  0  0
  3  4  2  0  0  0
 26 27  2  0  0  0
 27 28  1  0  0  0
 43 47  1  0  0  0
 43 51  1  0  0  0
 28 29  1  0  0  0
 56 48  1  0  0  0
 56 60  1  0  0  0
 29 30  1  0  0  0
 57 60  1  0  0  0
 57 61  1  0  0  0
 30 31  1  0  0  0
 44 49  1  0  0  0
 44 52  1  0  0  0
 31 32  1  0  0  0
 45 46  1  0  0  0
 45 50  1  0  0  0
 32 33  1  0  0  0
 53 54  1  0  0  0
 53 55  1  0  0  0
 33 34  1  0  0  0
 34 35  1  0  0  0
 35 36  1  0  0  0
 58 60  1  0  0  0
 36 37  1  0  0  0
 59 60  1  0  0  0
 59 62  1  0  0  0
 37 38  1  0  0  0
 38 39  1  0  0  0
 39 40  1  0  0  0
  4  6  1  0  0  0
  6  7  1  0  0  0
  7  8  1  0  0  0
  8  9  1  0  0  0
  9 10  1  0  0  0
 10 11  1  0  0  0
 11 12  1  0  0  0
 12 13  1  0  0  0
 13 14  1  0  0  0
 14 15  1  0  0  0
 15 16  1  0  0  0
 16 17  1  0  0  0
 17 18  1  0  0  0
 18 19  1  0  0  0
 19 20  1  0  0  0
 20 21  1  0  0  0
 21 22  1  0  0  0
 46 47  1  0  0  0
 47 48  1  0  0  0
 48 49  1  0  0  0
 49 50  1  0  0  0
 50 54  1  0  0  0
M  CHG 1  58  -1
M  END
> <minimizedAffinity>
-8.98960

> <CNNscore>
0.2578893900

> <CNNaffinity>
6.9250259399

> <CNN_VS>
1.7858906984

> <CNNaffinity_variance>
1.0381004810

$$$$
/media/chris/experiments/cd1a-new-docking/inputs/ligands/1onq_ligand.pdb


 62 62  0  0  0  0  0  0  0  0999 V2000
  -40.2563   59.2461   64.8594 C   0  0  0  0  0  0  0  0  0  0  0  0
  -39.6367   58.5389   63.7562 N   0  0  0  0  0  0  0  0  0  0  0  0
  -38.1024   57.2501   64.8204 O   0  0  0  0  0  0  0  0  0  0  0  0
  -38.6504   57.6331   63.8050 C   0  0  0  0  0  0  0  0  0  0  0  0
  -39.9836   58.7504   62.8595 H   0  0  0  0  0  0  0  0  0  0  0  0
  -38.2325   57.0732   62.4778 C   0  0  0  0  0  0  0  0  0  0  0  0
  -36.7059   56.9964   62.5013 C   0  0  0  0  0  0  0  0  0  0  0  0
  -36.1132   58.4034   62.5155 C   0  0  0  0  0  0  0  0  0  0  0  0
  -35.1841   58.7203   63.6623 C   0  0  0  0  0  0  0  0  0  0  0  0
  -33.8500   59.1582   63.0670 C   0  0  0  0  0  0  0  0  0  0  0  0
  -32.9212   57.9759   62.7600 C   0  0  0  0  0  0  0  0  0  0  0  0
  -32.9472   57.5163   61.2906 C   0  0  0  0  0  0  0  0  0  0  0  0
  -33.4816   56.0772   61.1211 C   0  0  0  0  0  0  0  0  0  0  0  0
  -34.0331   55.8690   59.7077 C   0  0  0  0  0  0  0  0  0  0  0  0
  -35.4108   55.2212   59.6419 C   0  0  0  0  0  0  0  0  0  0  0  0
  -36.3681   55.9905   58.7437 C   0  0  0  0  0  0  0  0  0  0  0  0
  -35.7695   57.1776   57.9856 C   0  0  0  0  0  0  0  0  0  0  0  0
  -36.7969   58.3014   57.9736 C   0  0  0  0  0  0  0  0  0  0  0  0
  -37.8582   58.3309   59.0635 C   0  0  0  0  0  0  0  0  0  0  0  0
  -37.9431   59.7222   59.7108 C   0  0  0  0  0  0  0  0  0  0  0  0
  -39.2331   59.9759   60.5124 C   0  0  0  0  0  0  0  0  0  0  0  0
  -40.4526   60.2306   59.6295 C   0  0  0  0  0  0  0  0  0  0  0  0
  -41.4616   61.0061   63.9398 O   0  0  0  0  0  0  0  0  0  0  0  0
  -41.6055   59.6405   64.2835 C   0  0  0  0  0  0  0  0  0  0  0  0
  -40.7663   61.0992   63.2698 H   0  0  0  0  0  0  0  0  0  0  0  0
  -42.6909   59.4233   65.3405 C   0  0  0  0  0  0  0  0  0  0  0  0
  -43.9219   58.9729   65.0437 C   0  0  0  0  0  0  0  0  0  0  0  0
  -44.9509   58.7831   66.1564 C   0  0  0  0  0  0  0  0  0  0  0  0
  -46.3392   59.3482   65.8224 C   0  0  0  0  0  0  0  0  0  0  0  0
  -47.5093   58.7661   66.6369 C   0  0  0  0  0  0  0  0  0  0  0  0
  -48.3147   57.7498   65.7919 C   0  0  0  0  0  0  0  0  0  0  0  0
  -49.8306   58.0467   65.6679 C   0  0  0  0  0  0  0  0  0  0  0  0
  -50.2101   58.8997   64.4345 C   0  0  0  0  0  0  0  0  0  0  0  0
  -49.5468   58.4212   63.1249 C   0  0  0  0  0  0  0  0  0  0  0  0
  -50.4539   58.5388   61.8941 C   0  0  0  0  0  0  0  0  0  0  0  0
  -50.6938   57.2495   61.1114 C   0  0  0  0  0  0  0  0  0  0  0  0
  -50.0438   57.2357   59.7137 C   0  0  0  0  0  0  0  0  0  0  0  0
  -49.0604   56.0831   59.4602 C   0  0  0  0  0  0  0  0  0  0  0  0
  -47.8318   56.5687   58.6858 C   0  0  0  0  0  0  0  0  0  0  0  0
  -46.8502   57.4370   59.4525 C   0  0  0  0  0  0  0  0  0  0  0  0
  -39.4066   60.3732   65.4889 C   0  0  0  0  0  0  0  0  0  0  0  0
  -38.7310   61.2671   64.5680 O   0  0  0  0  0  0  0  0  0  0  0  0
  -36.9262   61.6538   62.3840 O   0  0  0  0  0  0  0  0  0  0  0  0
  -35.3513   64.5943   64.8886 O   0  0  0  0  0  0  0  0  0  0  0  0
  -36.9737   62.2561   65.9166 O   0  0  0  0  0  0  0  0  0  0  0  0
  -37.2867   61.5467   64.6934 C   0  0  0  0  0  0  0  0  0  0  0  0
  -36.6546   62.3602   63.5550 C   0  0  0  0  0  0  0  0  0  0  0  0
  -35.1236   62.5190   63.6819 C   0  0  0  0  0  0  0  0  0  0  0  0
  -34.8823   63.2508   64.9732 C   0  0  0  0  0  0  0  0  0  0  0  0
  -35.5574   62.5135   66.1155 C   0  0  0  0  0  0  0  0  0  0  0  0
  -37.8850   61.5443   62.2875 H   0  0  0  0  0  0  0  0  0  0  0  0
  -34.9078   65.0460   64.1536 H   0  0  0  0  0  0  0  0  0  0  0  0
  -36.3724   63.9546   67.8395 O   0  0  0  0  0  0  0  0  0  0  0  0
  -35.2055   63.4091   67.3012 C   0  0  0  0  0  0  0  0  0  0  0  0
  -36.1462   64.5229   68.5925 H   0  0  0  0  0  0  0  0  0  0  0  0
  -34.4793   63.3007   62.6505 O   0  0  0  0  0  0  0  0  0  0  0  0
  -32.3771   63.8172   61.2253 O   0  0  0  0  0  0  0  0  0  0  0  0
  -32.1744   62.4076   63.1902 O   0  0  0  0  0  0  0  0  0  0  0  0
  -32.4480   64.8037   63.4316 O   0  0  0  0  0  0  0  0  0  0  0  0
  -32.8438   63.6122   62.6285 S   0  0  0  0  0  0  0  0  0  0  0  0
  -32.6262   63.0502   60.6863 H   0  0  0  0  0  0  0  0  0  0  0  0
  -32.8803   65.5940   63.0721 H   0  0  0  0  0  0  0  0  0  0  0  0
  2  1  1  0  0  0
  2  4  1  0  0  0
  2  5  1  0  0  0
 41 42  1  0  0  0
 41  1  1  0  0  0
 42 46  1  0  0  0
  1 24  1  0  0  0
 23 24  1  0  0  0
 23 25  1  0  0  0
 24 26  1  0  0  0
  3  4  2  0  0  0
 26 27  2  0  0  0
 27 28  1  0  0  0
 43 47  1  0  0  0
 43 51  1  0  0  0
 28 29  1  0  0  0
 56 48  1  0  0  0
 56 60  1  0  0  0
 29 30  1  0  0  0
 57 60  1  0  0  0
 57 61  1  0  0  0
 30 31  1  0  0  0
 44 49  1  0  0  0
 44 52  1  0  0  0
 31 32  1  0  0  0
 45 46  1  0  0  0
 45 50  1  0  0  0
 32 33  1  0  0  0
 53 54  1  0  0  0
 53 55  1  0  0  0
 33 34  1  0  0  0
 34 35  1  0  0  0
 35 36  1  0  0  0
 58 60  1  0  0  0
 36 37  1  0  0  0
 59 60  1  0  0  0
 59 62  1  0  0  0
 37 38  1  0  0  0
 38 39  1  0  0  0
 39 40  1  0  0  0
  4  6  1  0  0  0
  6  7  1  0  0  0
  7  8  1  0  0  0
  8  9  1  0  0  0
  9 10  1  0  0  0
 10 11  1  0  0  0
 11 12  1  0  0  0
 12 13  1  0  0  0
 13 14  1  0  0  0
 14 15  1  0  0  0
 15 16  1  0  0  0
 16 17  1  0  0  0
 17 18  1  0  0  0
 18 19  1  0  0  0
 19 20  1  0  0  0
 20 21  1  0  0  0
 21 22  1  0  0  0
 46 47  1  0  0  0
 47 48  1  0  0  0
 48 49  1  0  0  0
 49 50  1  0  0  0
 50 54  1  0  0  0
M  CHG 1  58  -1
M  END
> <minimizedAffinity>
-9.55587

> <CNNscore>
0.2314295620

> <CNNaffinity>
7.2449011803

> <CNN_VS>
1.6766842604

> <CNNaffinity_variance>
1.1452585459

$$$$
/media/chris/experiments/cd1a-new-docking/inputs/ligands/1onq_ligand.pdb


 62 62  0  0  0  0  0  0  0  0999 V2000
  -40.1639   59.1643   65.1195 C   0  0  0  0  0  0  0  0  0  0  0  0
  -39.6993   58.4191   63.9663 N   0  0  0  0  0  0  0  0  0  0  0  0
  -37.8804   57.3462   64.7957 O   0  0  0  0  0  0  0  0  0  0  0  0
  -38.6420   57.6002   63.8828 C   0  0  0  0  0  0  0  0  0  0  0  0
  -40.2262   58.5282   63.1419 H   0  0  0  0  0  0  0  0  0  0  0  0
  -38.4303   56.9670   62.5396 C   0  0  0  0  0  0  0  0  0  0  0  0
  -37.0203   57.3557   62.0948 C   0  0  0  0  0  0  0  0  0  0  0  0
  -37.0902   58.4790   61.0631 C   0  0  0  0  0  0  0  0  0  0  0  0
  -38.4738   58.8822   60.6139 C   0  0  0  0  0  0  0  0  0  0  0  0
  -38.4232   59.0998   59.1052 C   0  0  0  0  0  0  0  0  0  0  0  0
  -37.0716   58.7060   58.4944 C   0  0  0  0  0  0  0  0  0  0  0  0
  -37.1339   57.4898   57.5522 C   0  0  0  0  0  0  0  0  0  0  0  0
  -36.0344   56.4457   57.8461 C   0  0  0  0  0  0  0  0  0  0  0  0
  -36.4953   55.4666   58.9296 C   0  0  0  0  0  0  0  0  0  0  0  0
  -35.3754   54.8396   59.7510 C   0  0  0  0  0  0  0  0  0  0  0  0
  -34.0813   55.6353   59.6648 C   0  0  0  0  0  0  0  0  0  0  0  0
  -33.5615   56.2160   60.9820 C   0  0  0  0  0  0  0  0  0  0  0  0
  -33.5481   57.7337   60.8604 C   0  0  0  0  0  0  0  0  0  0  0  0
  -32.4167   58.5083   61.5200 C   0  0  0  0  0  0  0  0  0  0  0  0
  -32.5884   58.5388   63.0470 C   0  0  0  0  0  0  0  0  0  0  0  0
  -33.9743   59.0104   63.5245 C   0  0  0  0  0  0  0  0  0  0  0  0
  -34.5326   58.1763   64.6751 C   0  0  0  0  0  0  0  0  0  0  0  0
  -41.4651   61.0117   64.5813 O   0  0  0  0  0  0  0  0  0  0  0  0
  -41.5538   59.6033   64.6919 C   0  0  0  0  0  0  0  0  0  0  0  0
  -40.8124   61.2422   63.9018 H   0  0  0  0  0  0  0  0  0  0  0  0
  -42.5704   59.1709   65.7512 C   0  0  0  0  0  0  0  0  0  0  0  0
  -43.8870   59.0662   65.5024 C   0  0  0  0  0  0  0  0  0  0  0  0
  -44.8384   58.6288   66.6145 C   0  0  0  0  0  0  0  0  0  0  0  0
  -46.2960   59.0567   66.3897 C   0  0  0  0  0  0  0  0  0  0  0  0
  -46.6858   59.3537   64.9298 C   0  0  0  0  0  0  0  0  0  0  0  0
  -47.6803   58.2928   64.4001 C   0  0  0  0  0  0  0  0  0  0  0  0
  -48.6508   58.7875   63.2978 C   0  0  0  0  0  0  0  0  0  0  0  0
  -50.0671   58.1706   63.3773 C   0  0  0  0  0  0  0  0  0  0  0  0
  -50.7702   58.0598   62.0071 C   0  0  0  0  0  0  0  0  0  0  0  0
  -49.8508   58.3533   60.8154 C   0  0  0  0  0  0  0  0  0  0  0  0
  -49.9868   57.4174   59.6162 C   0  0  0  0  0  0  0  0  0  0  0  0
  -48.7170   56.5966   59.3159 C   0  0  0  0  0  0  0  0  0  0  0  0
  -47.3989   57.3831   59.3781 C   0  0  0  0  0  0  0  0  0  0  0  0
  -46.9095   57.7481   57.9737 C   0  0  0  0  0  0  0  0  0  0  0  0
  -47.2639   56.7769   56.8616 C   0  0  0  0  0  0  0  0  0  0  0  0
  -39.2072   60.2657   65.6300 C   0  0  0  0  0  0  0  0  0  0  0  0
  -38.5775   61.0958   64.6212 O   0  0  0  0  0  0  0  0  0  0  0  0
  -36.7405   61.4471   62.4580 O   0  0  0  0  0  0  0  0  0  0  0  0
  -35.5557   64.7645   64.6921 O   0  0  0  0  0  0  0  0  0  0  0  0
  -36.9767   62.3862   65.9087 O   0  0  0  0  0  0  0  0  0  0  0  0
  -37.1733   61.5317   64.7560 C   0  0  0  0  0  0  0  0  0  0  0  0
  -36.5830   62.2893   63.5581 C   0  0  0  0  0  0  0  0  0  0  0  0
  -35.0807   62.6145   63.7089 C   0  0  0  0  0  0  0  0  0  0  0  0
  -34.9601   63.4905   64.9251 C   0  0  0  0  0  0  0  0  0  0  0  0
  -35.6009   62.8044   66.1180 C   0  0  0  0  0  0  0  0  0  0  0  0
  -37.6798   61.2319   62.3477 H   0  0  0  0  0  0  0  0  0  0  0  0
  -35.1321   65.1844   63.9270 H   0  0  0  0  0  0  0  0  0  0  0  0
  -36.4637   63.8270   68.0987 O   0  0  0  0  0  0  0  0  0  0  0  0
  -35.3826   63.8434   67.2156 C   0  0  0  0  0  0  0  0  0  0  0  0
  -36.3226   64.4876   68.7949 H   0  0  0  0  0  0  0  0  0  0  0  0
  -34.4790   63.3523   62.6210 O   0  0  0  0  0  0  0  0  0  0  0  0
  -32.3420   63.2962   61.1557 O   0  0  0  0  0  0  0  0  0  0  0  0
  -32.1857   62.7757   63.5208 O   0  0  0  0  0  0  0  0  0  0  0  0
  -32.4751   65.0696   62.7938 O   0  0  0  0  0  0  0  0  0  0  0  0
  -32.8448   63.6529   62.5154 S   0  0  0  0  0  0  0  0  0  0  0  0
  -32.5738   62.3757   60.9564 H   0  0  0  0  0  0  0  0  0  0  0  0
  -32.9008   65.6488   62.1426 H   0  0  0  0  0  0  0  0  0  0  0  0
  2  1  1  0  0  0
  2  4  1  0  0  0
  2  5  1  0  0  0
 41 42  1  0  0  0
 41  1  1  0  0  0
 42 46  1  0  0  0
  1 24  1  0  0  0
 23 24  1  0  0  0
 23 25  1  0  0  0
 24 26  1  0  0  0
  3  4  2  0  0  0
 26 27  2  0  0  0
 27 28  1  0  0  0
 43 47  1  0  0  0
 43 51  1  0  0  0
 28 29  1  0  0  0
 56 48  1  0  0  0
 56 60  1  0  0  0
 29 30  1  0  0  0
 57 60  1  0  0  0
 57 61  1  0  0  0
 30 31  1  0  0  0
 44 49  1  0  0  0
 44 52  1  0  0  0
 31 32  1  0  0  0
 45 46  1  0  0  0
 45 50  1  0  0  0
 32 33  1  0  0  0
 53 54  1  0  0  0
 53 55  1  0  0  0
 33 34  1  0  0  0
 34 35  1  0  0  0
 35 36  1  0  0  0
 58 60  1  0  0  0
 36 37  1  0  0  0
 59 60  1  0  0  0
 59 62  1  0  0  0
 37 38  1  0  0  0
 38 39  1  0  0  0
 39 40  1  0  0  0
  4  6  1  0  0  0
  6  7  1  0  0  0
  7  8  1  0  0  0
  8  9  1  0  0  0
  9 10  1  0  0  0
 10 11  1  0  0  0
 11 12  1  0  0  0
 12 13  1  0  0  0
 13 14  1  0  0  0
 14 15  1  0  0  0
 15 16  1  0  0  0
 16 17  1  0  0  0
 17 18  1  0  0  0
 18 19  1  0  0  0
 19 20  1  0  0  0
 20 21  1  0  0  0
 21 22  1  0  0  0
 46 47  1  0  0  0
 47 48  1  0  0  0
 48 49  1  0  0  0
 49 50  1  0  0  0
 50 54  1  0  0  0
M  CHG 1  58  -1
M  END
> <minimizedAffinity>
-9.74352

> <CNNscore>
0.2301972657

> <CNNaffinity>
7.1713881493

> <CNN_VS>
1.6508339643

> <CNNaffinity_variance>
1.1137996912

$$$$
