/media/chris/experiments/cd1a-new-docking/inputs/ligands/1onq_ligand.pdb


 62 62  0  0  0  0  0  0  0  0999 V2000
  -40.2703   59.1151   65.0234 C   0  0  0  0  0  0  0  0  0  0  0  0
  -39.8639   58.4346   63.8098 N   0  0  0  0  0  0  0  0  0  0  0  0
  -38.5377   57.0559   62.5900 O   0  0  0  0  0  0  0  0  0  0  0  0
  -38.8382   57.5892   63.6403 C   0  0  0  0  0  0  0  0  0  0  0  0
  -40.4094   58.6161   63.0105 H   0  0  0  0  0  0  0  0  0  0  0  0
  -38.0241   57.3195   64.8708 C   0  0  0  0  0  0  0  0  0  0  0  0
  -36.6013   57.0274   64.3937 C   0  0  0  0  0  0  0  0  0  0  0  0
  -35.8012   58.3253   64.3138 C   0  0  0  0  0  0  0  0  0  0  0  0
  -34.3084   58.1965   64.4953 C   0  0  0  0  0  0  0  0  0  0  0  0
  -33.6391   58.8678   63.3007 C   0  0  0  0  0  0  0  0  0  0  0  0
  -32.4347   58.0763   62.7737 C   0  0  0  0  0  0  0  0  0  0  0  0
  -32.8042   56.9128   61.8355 C   0  0  0  0  0  0  0  0  0  0  0  0
  -33.9336   57.2748   60.8461 C   0  0  0  0  0  0  0  0  0  0  0  0
  -34.5718   56.0084   60.2682 C   0  0  0  0  0  0  0  0  0  0  0  0
  -36.0953   55.9853   60.2921 C   0  0  0  0  0  0  0  0  0  0  0  0
  -36.6939   55.9374   58.8941 C   0  0  0  0  0  0  0  0  0  0  0  0
  -35.9986   56.7977   57.8365 C   0  0  0  0  0  0  0  0  0  0  0  0
  -36.4576   58.2382   58.0180 C   0  0  0  0  0  0  0  0  0  0  0  0
  -37.8818   58.4961   58.4876 C   0  0  0  0  0  0  0  0  0  0  0  0
  -37.9136   59.5787   59.5781 C   0  0  0  0  0  0  0  0  0  0  0  0
  -39.1967   59.5901   60.4293 C   0  0  0  0  0  0  0  0  0  0  0  0
  -40.3592   60.3197   59.7600 C   0  0  0  0  0  0  0  0  0  0  0  0
  -41.4936   61.0347   64.5606 O   0  0  0  0  0  0  0  0  0  0  0  0
  -41.6531   59.6322   64.6658 C   0  0  0  0  0  0  0  0  0  0  0  0
  -40.8623   61.2362   63.8522 H   0  0  0  0  0  0  0  0  0  0  0  0
  -42.6402   59.2451   65.7695 C   0  0  0  0  0  0  0  0  0  0  0  0
  -43.9288   58.9494   65.5283 C   0  0  0  0  0  0  0  0  0  0  0  0
  -44.8520   58.5728   66.6855 C   0  0  0  0  0  0  0  0  0  0  0  0
  -46.3281   58.9184   66.4411 C   0  0  0  0  0  0  0  0  0  0  0  0
  -46.6188   59.7419   65.1727 C   0  0  0  0  0  0  0  0  0  0  0  0
  -48.1202   59.6706   64.8038 C   0  0  0  0  0  0  0  0  0  0  0  0
  -48.9745   58.7267   65.6873 C   0  0  0  0  0  0  0  0  0  0  0  0
  -50.4264   58.5348   65.1894 C   0  0  0  0  0  0  0  0  0  0  0  0
  -50.9622   59.7306   64.3726 C   0  0  0  0  0  0  0  0  0  0  0  0
  -51.3415   59.3732   62.9304 C   0  0  0  0  0  0  0  0  0  0  0  0
  -50.8256   58.0320   62.4133 C   0  0  0  0  0  0  0  0  0  0  0  0
  -50.3343   58.0714   60.9528 C   0  0  0  0  0  0  0  0  0  0  0  0
  -50.1060   56.6989   60.3016 C   0  0  0  0  0  0  0  0  0  0  0  0
  -49.0803   56.7918   59.1682 C   0  0  0  0  0  0  0  0  0  0  0  0
  -47.8677   57.6686   59.4252 C   0  0  0  0  0  0  0  0  0  0  0  0
  -39.2598   60.1437   65.5801 C   0  0  0  0  0  0  0  0  0  0  0  0
  -38.6034   60.9982   64.6094 O   0  0  0  0  0  0  0  0  0  0  0  0
  -36.6276   61.1801   62.5502 O   0  0  0  0  0  0  0  0  0  0  0  0
  -35.5764   64.6632   64.5903 O   0  0  0  0  0  0  0  0  0  0  0  0
  -37.0842   62.3866   65.8938 O   0  0  0  0  0  0  0  0  0  0  0  0
  -37.2091   61.4441   64.8012 C   0  0  0  0  0  0  0  0  0  0  0  0
  -36.5384   62.1060   63.5888 C   0  0  0  0  0  0  0  0  0  0  0  0
  -35.0478   62.4431   63.8116 C   0  0  0  0  0  0  0  0  0  0  0  0
  -35.0030   63.4119   64.9608 C   0  0  0  0  0  0  0  0  0  0  0  0
  -35.7232   62.8209   66.1593 C   0  0  0  0  0  0  0  0  0  0  0  0
  -37.5587   60.9561   62.3957 H   0  0  0  0  0  0  0  0  0  0  0  0
  -35.1019   65.0220   63.8242 H   0  0  0  0  0  0  0  0  0  0  0  0
  -34.2177   64.1917   67.4115 O   0  0  0  0  0  0  0  0  0  0  0  0
  -35.5724   63.9430   67.1842 C   0  0  0  0  0  0  0  0  0  0  0  0
  -34.1247   64.9046   68.0627 H   0  0  0  0  0  0  0  0  0  0  0  0
  -34.3731   63.0937   62.7109 O   0  0  0  0  0  0  0  0  0  0  0  0
  -32.3102   64.0446   61.4632 O   0  0  0  0  0  0  0  0  0  0  0  0
  -32.3916   61.6829   62.0154 O   0  0  0  0  0  0  0  0  0  0  0  0
  -31.9489   63.3243   63.7429 O   0  0  0  0  0  0  0  0  0  0  0  0
  -32.7224   63.0510   62.4984 S   0  0  0  0  0  0  0  0  0  0  0  0
  -32.8041   63.8821   60.6443 H   0  0  0  0  0  0  0  0  0  0  0  0
  -32.1587   64.2149   64.0648 H   0  0  0  0  0  0  0  0  0  0  0  0
  2  1  1  0  0  0
  2  4  1  0  0  0
  2  5  1  0  0  0
 41 42  1  0  0  0
 41  1  1  0  0  0
 42 46  1  0  0  0
  1 24  1  0  0  0
 23 24  1  0  0  0
 23 25  1  0  0  0
 24 26  1  0  0  0
  3  4  2  0  0  0
 26 27  2  0  0  0
 27 28  1  0  0  0
 43 47  1  0  0  0
 43 51  1  0  0  0
 28 29  1  0  0  0
 56 48  1  0  0  0
 56 60  1  0  0  0
 29 30  1  0  0  0
 57 60  1  0  0  0
 57 61  1  0  0  0
 30 31  1  0  0  0
 44 49  1  0  0  0
 44 52  1  0  0  0
 31 32  1  0  0  0
 45 46  1  0  0  0
 45 50  1  0  0  0
 32 33  1  0  0  0
 53 54  1  0  0  0
 53 55  1  0  0  0
 33 34  1  0  0  0
 34 35  1  0  0  0
 35 36  1  0  0  0
 58 60  1  0  0  0
 36 37  1  0  0  0
 59 60  1  0  0  0
 59 62  1  0  0  0
 37 38  1  0  0  0
 38 39  1  0  0  0
 39 40  1  0  0  0
  4  6  1  0  0  0
  6  7  1  0  0  0
  7  8  1  0  0  0
  8  9  1  0  0  0
  9 10  1  0  0  0
 10 11  1  0  0  0
 11 12  1  0  0  0
 12 13  1  0  0  0
 13 14  1  0  0  0
 14 15  1  0  0  0
 15 16  1  0  0  0
 16 17  1  0  0  0
 17 18  1  0  0  0
 18 19  1  0  0  0
 19 20  1  0  0  0
 20 21  1  0  0  0
 21 22  1  0  0  0
 46 47  1  0  0  0
 47 48  1  0  0  0
 48 49  1  0  0  0
 49 50  1  0  0  0
 50 54  1  0  0  0
M  CHG 1  58  -1
M  END
> <minimizedAffinity>
-9.97921

> <CNNscore>
0.2890398502

> <CNNaffinity>
7.2212247849

> <CNN_VS>
2.0872216225

> <CNNaffinity_variance>
1.3627221584

$$$$
/media/chris/experiments/cd1a-new-docking/inputs/ligands/1onq_ligand.pdb


 62 62  0  0  0  0  0  0  0  0999 V2000
  -38.6884   59.5902   60.9120 C   0  0  0  0  0  0  0  0  0  0  0  0
  -38.6879   58.2475   61.4581 N   0  0  0  0  0  0  0  0  0  0  0  0
  -37.8861   56.1372   61.6845 O   0  0  0  0  0  0  0  0  0  0  0  0
  -37.8282   57.2519   61.2027 C   0  0  0  0  0  0  0  0  0  0  0  0
  -39.4090   58.0413   62.0959 H   0  0  0  0  0  0  0  0  0  0  0  0
  -36.7328   57.5877   60.2348 C   0  0  0  0  0  0  0  0  0  0  0  0
  -36.1050   56.2592   59.8127 C   0  0  0  0  0  0  0  0  0  0  0  0
  -34.5835   56.3848   59.7916 C   0  0  0  0  0  0  0  0  0  0  0  0
  -33.8911   56.2852   61.1290 C   0  0  0  0  0  0  0  0  0  0  0  0
  -33.3094   57.6579   61.4502 C   0  0  0  0  0  0  0  0  0  0  0  0
  -33.4331   58.0214   62.9360 C   0  0  0  0  0  0  0  0  0  0  0  0
  -34.8051   58.5954   63.3343 C   0  0  0  0  0  0  0  0  0  0  0  0
  -35.6109   57.6458   64.2478 C   0  0  0  0  0  0  0  0  0  0  0  0
  -36.9352   58.2921   64.6645 C   0  0  0  0  0  0  0  0  0  0  0  0
  -38.0671   57.3140   64.9546 C   0  0  0  0  0  0  0  0  0  0  0  0
  -39.4382   57.9543   64.7961 C   0  0  0  0  0  0  0  0  0  0  0  0
  -39.5816   59.3771   65.3413 C   0  0  0  0  0  0  0  0  0  0  0  0
  -40.4624   60.1672   64.3829 C   0  0  0  0  0  0  0  0  0  0  0  0
  -41.9620   59.9094   64.3900 C   0  0  0  0  0  0  0  0  0  0  0  0
  -42.4295   59.4214   65.7704 C   0  0  0  0  0  0  0  0  0  0  0  0
  -43.4420   58.2620   65.7285 C   0  0  0  0  0  0  0  0  0  0  0  0
  -43.0025   57.0466   66.5417 C   0  0  0  0  0  0  0  0  0  0  0  0
  -37.9686   60.1577   58.7776 O   0  0  0  0  0  0  0  0  0  0  0  0
  -38.9257   59.3454   59.4317 C   0  0  0  0  0  0  0  0  0  0  0  0
  -37.0763   59.8729   59.0299 H   0  0  0  0  0  0  0  0  0  0  0  0
  -40.3599   59.7436   59.0756 C   0  0  0  0  0  0  0  0  0  0  0  0
  -41.0279   59.2190   58.0340 C   0  0  0  0  0  0  0  0  0  0  0  0
  -42.4582   59.6696   57.7434 C   0  0  0  0  0  0  0  0  0  0  0  0
  -43.3954   58.5293   57.3198 C   0  0  0  0  0  0  0  0  0  0  0  0
  -44.4625   58.1246   58.3537 C   0  0  0  0  0  0  0  0  0  0  0  0
  -45.8558   58.0116   57.6894 C   0  0  0  0  0  0  0  0  0  0  0  0
  -47.0276   57.7086   58.6572 C   0  0  0  0  0  0  0  0  0  0  0  0
  -47.5537   56.2561   58.5798 C   0  0  0  0  0  0  0  0  0  0  0  0
  -48.7443   55.9795   59.5232 C   0  0  0  0  0  0  0  0  0  0  0  0
  -49.5887   57.2215   59.8328 C   0  0  0  0  0  0  0  0  0  0  0  0
  -50.7309   57.0258   60.8274 C   0  0  0  0  0  0  0  0  0  0  0  0
  -50.9381   58.2161   61.7847 C   0  0  0  0  0  0  0  0  0  0  0  0
  -49.8686   59.3159   61.7029 C   0  0  0  0  0  0  0  0  0  0  0  0
  -49.1244   59.4593   63.0337 C   0  0  0  0  0  0  0  0  0  0  0  0
  -49.2626   58.3065   64.0121 C   0  0  0  0  0  0  0  0  0  0  0  0
  -37.4710   60.4636   61.2915 C   0  0  0  0  0  0  0  0  0  0  0  0
  -37.7117   61.5344   62.2395 O   0  0  0  0  0  0  0  0  0  0  0  0
  -35.7248   63.5671   61.9271 O   0  0  0  0  0  0  0  0  0  0  0  0
  -36.6315   64.3348   65.9255 O   0  0  0  0  0  0  0  0  0  0  0  0
  -37.1709   61.6684   64.6006 O   0  0  0  0  0  0  0  0  0  0  0  0
  -36.7012   61.9029   63.2508 C   0  0  0  0  0  0  0  0  0  0  0  0
  -36.2106   63.3575   63.2171 C   0  0  0  0  0  0  0  0  0  0  0  0
  -35.0718   63.6516   64.2180 C   0  0  0  0  0  0  0  0  0  0  0  0
  -35.6327   63.3762   65.5858 C   0  0  0  0  0  0  0  0  0  0  0  0
  -36.1960   61.9675   65.6358 C   0  0  0  0  0  0  0  0  0  0  0  0
  -36.4279   63.3868   61.2835 H   0  0  0  0  0  0  0  0  0  0  0  0
  -36.2506   65.2260   65.8872 H   0  0  0  0  0  0  0  0  0  0  0  0
  -35.8758   62.6468   67.9052 O   0  0  0  0  0  0  0  0  0  0  0  0
  -36.7110   61.9004   67.0720 C   0  0  0  0  0  0  0  0  0  0  0  0
  -36.2051   62.6025   68.8165 H   0  0  0  0  0  0  0  0  0  0  0  0
  -34.5900   65.0144   64.2482 O   0  0  0  0  0  0  0  0  0  0  0  0
  -32.2390   64.2554   65.0317 O   0  0  0  0  0  0  0  0  0  0  0  0
  -32.9486   66.5438   65.4176 O   0  0  0  0  0  0  0  0  0  0  0  0
  -32.3040   65.8257   63.1943 O   0  0  0  0  0  0  0  0  0  0  0  0
  -32.9861   65.4112   64.4530 S   0  0  0  0  0  0  0  0  0  0  0  0
  -32.6691   63.9712   65.8534 H   0  0  0  0  0  0  0  0  0  0  0  0
  -32.3238   65.0927   62.5594 H   0  0  0  0  0  0  0  0  0  0  0  0
  2  1  1  0  0  0
  2  4  1  0  0  0
  2  5  1  0  0  0
 41 42  1  0  0  0
 41  1  1  0  0  0
 42 46  1  0  0  0
  1 24  1  0  0  0
 23 24  1  0  0  0
 23 25  1  0  0  0
 24 26  1  0  0  0
  3  4  2  0  0  0
 26 27  2  0  0  0
 27 28  1  0  0  0
 43 47  1  0  0  0
 43 51  1  0  0  0
 28 29  1  0  0  0
 56 48  1  0  0  0
 56 60  1  0  0  0
 29 30  1  0  0  0
 57 60  1  0  0  0
 57 61  1  0  0  0
 30 31  1  0  0  0
 44 49  1  0  0  0
 44 52  1  0  0  0
 31 32  1  0  0  0
 45 46  1  0  0  0
 45 50  1  0  0  0
 32 33  1  0  0  0
 53 54  1  0  0  0
 53 55  1  0  0  0
 33 34  1  0  0  0
 34 35  1  0  0  0
 35 36  1  0  0  0
 58 60  1  0  0  0
 36 37  1  0  0  0
 59 60  1  0  0  0
 59 62  1  0  0  0
 37 38  1  0  0  0
 38 39  1  0  0  0
 39 40  1  0  0  0
  4  6  1  0  0  0
  6  7  1  0  0  0
  7  8  1  0  0  0
  8  9  1  0  0  0
  9 10  1  0  0  0
 10 11  1  0  0  0
 11 12  1  0  0  0
 12 13  1  0  0  0
 13 14  1  0  0  0
 14 15  1  0  0  0
 15 16  1  0  0  0
 16 17  1  0  0  0
 17 18  1  0  0  0
 18 19  1  0  0  0
 19 20  1  0  0  0
 20 21  1  0  0  0
 21 22  1  0  0  0
 46 47  1  0  0  0
 47 48  1  0  0  0
 48 49  1  0  0  0
 49 50  1  0  0  0
 50 54  1  0  0  0
M  CHG 1  58  -1
M  END
> <minimizedAffinity>
-8.37443

> <CNNscore>
0.2710630298

> <CNNaffinity>
7.0729765892

> <CNN_VS>
1.9172224998

> <CNNaffinity_variance>
1.2771159410

$$$$
/media/chris/experiments/cd1a-new-docking/inputs/ligands/1onq_ligand.pdb


 62 62  0  0  0  0  0  0  0  0999 V2000
  -36.9849   58.5609   62.6701 C   0  0  0  0  0  0  0  0  0  0  0  0
  -36.6762   57.5240   63.6349 N   0  0  0  0  0  0  0  0  0  0  0  0
  -37.0950   56.2494   65.4644 O   0  0  0  0  0  0  0  0  0  0  0  0
  -37.4133   57.1207   64.6787 C   0  0  0  0  0  0  0  0  0  0  0  0
  -35.8184   57.0582   63.5073 H   0  0  0  0  0  0  0  0  0  0  0  0
  -38.7197   57.8370   64.8517 C   0  0  0  0  0  0  0  0  0  0  0  0
  -38.4072   59.1344   65.5975 C   0  0  0  0  0  0  0  0  0  0  0  0
  -39.2559   60.2743   65.0393 C   0  0  0  0  0  0  0  0  0  0  0  0
  -40.6412   60.4164   65.6215 C   0  0  0  0  0  0  0  0  0  0  0  0
  -41.6408   60.0758   64.5212 C   0  0  0  0  0  0  0  0  0  0  0  0
  -42.7741   59.1645   65.0110 C   0  0  0  0  0  0  0  0  0  0  0  0
  -42.6737   58.7735   66.4968 C   0  0  0  0  0  0  0  0  0  0  0  0
  -43.4826   57.5032   66.8394 C   0  0  0  0  0  0  0  0  0  0  0  0
  -44.0462   56.8626   65.5678 C   0  0  0  0  0  0  0  0  0  0  0  0
  -45.5488   56.6096   65.5845 C   0  0  0  0  0  0  0  0  0  0  0  0
  -46.2204   57.2023   66.8143 C   0  0  0  0  0  0  0  0  0  0  0  0
  -47.2972   58.2568   66.5484 C   0  0  0  0  0  0  0  0  0  0  0  0
  -48.3437   57.6460   65.6261 C   0  0  0  0  0  0  0  0  0  0  0  0
  -48.4858   58.2004   64.2162 C   0  0  0  0  0  0  0  0  0  0  0  0
  -48.4964   59.7373   64.2282 C   0  0  0  0  0  0  0  0  0  0  0  0
  -49.8373   60.3698   63.8125 C   0  0  0  0  0  0  0  0  0  0  0  0
  -50.9916   59.3708   63.7781 C   0  0  0  0  0  0  0  0  0  0  0  0
  -36.2222   57.3706   60.8270 O   0  0  0  0  0  0  0  0  0  0  0  0
  -37.4281   57.7624   61.4563 C   0  0  0  0  0  0  0  0  0  0  0  0
  -35.7086   56.8122   61.4315 H   0  0  0  0  0  0  0  0  0  0  0  0
  -38.2885   58.6489   60.5528 C   0  0  0  0  0  0  0  0  0  0  0  0
  -39.1951   59.5187   61.0300 C   0  0  0  0  0  0  0  0  0  0  0  0
  -40.0164   60.3683   60.0620 C   0  0  0  0  0  0  0  0  0  0  0  0
  -40.4884   59.6080   58.8140 C   0  0  0  0  0  0  0  0  0  0  0  0
  -42.0086   59.6086   58.5684 C   0  0  0  0  0  0  0  0  0  0  0  0
  -42.3363   59.0771   57.1523 C   0  0  0  0  0  0  0  0  0  0  0  0
  -43.7449   58.4519   56.9898 C   0  0  0  0  0  0  0  0  0  0  0  0
  -44.4436   58.1085   58.3265 C   0  0  0  0  0  0  0  0  0  0  0  0
  -45.9819   58.0324   58.2175 C   0  0  0  0  0  0  0  0  0  0  0  0
  -46.4765   57.2343   57.0052 C   0  0  0  0  0  0  0  0  0  0  0  0
  -47.4707   56.1131   57.2998 C   0  0  0  0  0  0  0  0  0  0  0  0
  -48.7411   56.5807   58.0372 C   0  0  0  0  0  0  0  0  0  0  0  0
  -48.7955   56.2330   59.5325 C   0  0  0  0  0  0  0  0  0  0  0  0
  -49.3251   57.4130   60.3526 C   0  0  0  0  0  0  0  0  0  0  0  0
  -50.7704   57.3234   60.8090 C   0  0  0  0  0  0  0  0  0  0  0  0
  -35.8767   59.6154   62.4487 C   0  0  0  0  0  0  0  0  0  0  0  0
  -36.0889   60.9158   63.0546 O   0  0  0  0  0  0  0  0  0  0  0  0
  -33.3341   61.6285   62.7710 O   0  0  0  0  0  0  0  0  0  0  0  0
  -34.4017   64.7024   65.3806 O   0  0  0  0  0  0  0  0  0  0  0  0
  -35.9629   62.1202   65.1567 O   0  0  0  0  0  0  0  0  0  0  0  0
  -35.2176   61.4053   64.1413 C   0  0  0  0  0  0  0  0  0  0  0  0
  -34.0705   62.3354   63.7207 C   0  0  0  0  0  0  0  0  0  0  0  0
  -33.1254   62.7185   64.8805 C   0  0  0  0  0  0  0  0  0  0  0  0
  -33.9716   63.4428   65.8908 C   0  0  0  0  0  0  0  0  0  0  0  0
  -35.1605   62.5816   66.2769 C   0  0  0  0  0  0  0  0  0  0  0  0
  -33.9126   61.3789   62.0334 H   0  0  0  0  0  0  0  0  0  0  0  0
  -33.6275   65.2354   65.1406 H   0  0  0  0  0  0  0  0  0  0  0  0
  -36.9115   64.1688   66.6358 O   0  0  0  0  0  0  0  0  0  0  0  0
  -35.8757   63.4872   67.2772 C   0  0  0  0  0  0  0  0  0  0  0  0
  -37.3640   64.7431   67.2731 H   0  0  0  0  0  0  0  0  0  0  0  0
  -32.0423   63.6160   64.5462 O   0  0  0  0  0  0  0  0  0  0  0  0
  -33.2882   64.6356   62.5152 O   0  0  0  0  0  0  0  0  0  0  0  0
  -31.1704   63.5007   62.1740 O   0  0  0  0  0  0  0  0  0  0  0  0
  -31.2225   65.7141   63.1604 O   0  0  0  0  0  0  0  0  0  0  0  0
  -31.9274   64.4031   63.0836 S   0  0  0  0  0  0  0  0  0  0  0  0
  -33.7630   63.7918   62.4574 H   0  0  0  0  0  0  0  0  0  0  0  0
  -31.7097   66.3089   63.7517 H   0  0  0  0  0  0  0  0  0  0  0  0
  2  1  1  0  0  0
  2  4  1  0  0  0
  2  5  1  0  0  0
 41 42  1  0  0  0
 41  1  1  0  0  0
 42 46  1  0  0  0
  1 24  1  0  0  0
 23 24  1  0  0  0
 23 25  1  0  0  0
 24 26  1  0  0  0
  3  4  2  0  0  0
 26 27  2  0  0  0
 27 28  1  0  0  0
 43 47  1  0  0  0
 43 51  1  0  0  0
 28 29  1  0  0  0
 56 48  1  0  0  0
 56 60  1  0  0  0
 29 30  1  0  0  0
 57 60  1  0  0  0
 57 61  1  0  0  0
 30 31  1  0  0  0
 44 49  1  0  0  0
 44 52  1  0  0  0
 31 32  1  0  0  0
 45 46  1  0  0  0
 45 50  1  0  0  0
 32 33  1  0  0  0
 53 54  1  0  0  0
 53 55  1  0  0  0
 33 34  1  0  0  0
 34 35  1  0  0  0
 35 36  1  0  0  0
 58 60  1  0  0  0
 36 37  1  0  0  0
 59 60  1  0  0  0
 59 62  1  0  0  0
 37 38  1  0  0  0
 38 39  1  0  0  0
 39 40  1  0  0  0
  4  6  1  0  0  0
  6  7  1  0  0  0
  7  8  1  0  0  0
  8  9  1  0  0  0
  9 10  1  0  0  0
 10 11  1  0  0  0
 11 12  1  0  0  0
 12 13  1  0  0  0
 13 14  1  0  0  0
 14 15  1  0  0  0
 15 16  1  0  0  0
 16 17  1  0  0  0
 17 18  1  0  0  0
 18 19  1  0  0  0
 19 20  1  0  0  0
 20 21  1  0  0  0
 21 22  1  0  0  0
 46 47  1  0  0  0
 47 48  1  0  0  0
 48 49  1  0  0  0
 49 50  1  0  0  0
 50 54  1  0  0  0
M  CHG 1  58  -1
M  END
> <minimizedAffinity>
-8.15798

> <CNNscore>
0.2442823648

> <CNNaffinity>
7.0459380150

> <CNN_VS>
1.7211984396

> <CNNaffinity_variance>
1.0181096792

$$$$
/media/chris/experiments/cd1a-new-docking/inputs/ligands/1onq_ligand.pdb


 62 62  0  0  0  0  0  0  0  0999 V2000
  -38.4215   59.0401   63.7069 C   0  0  0  0  0  0  0  0  0  0  0  0
  -38.5820   57.8485   62.8973 N   0  0  0  0  0  0  0  0  0  0  0  0
  -37.8887   56.2885   61.4030 O   0  0  0  0  0  0  0  0  0  0  0  0
  -37.6916   57.2865   62.0684 C   0  0  0  0  0  0  0  0  0  0  0  0
  -39.4536   57.3958   62.9648 H   0  0  0  0  0  0  0  0  0  0  0  0
  -36.3676   57.9864   61.9851 C   0  0  0  0  0  0  0  0  0  0  0  0
  -35.2997   56.9273   62.2591 C   0  0  0  0  0  0  0  0  0  0  0  0
  -34.0623   57.2020   61.4078 C   0  0  0  0  0  0  0  0  0  0  0  0
  -34.1170   56.7129   59.9810 C   0  0  0  0  0  0  0  0  0  0  0  0
  -34.8450   55.3728   59.9807 C   0  0  0  0  0  0  0  0  0  0  0  0
  -36.0539   55.3550   59.0356 C   0  0  0  0  0  0  0  0  0  0  0  0
  -36.0403   56.4667   57.9706 C   0  0  0  0  0  0  0  0  0  0  0  0
  -37.2789   57.3863   58.0466 C   0  0  0  0  0  0  0  0  0  0  0  0
  -36.8760   58.8005   58.4742 C   0  0  0  0  0  0  0  0  0  0  0  0
  -37.9191   59.5474   59.2965 C   0  0  0  0  0  0  0  0  0  0  0  0
  -39.3384   59.2492   58.8368 C   0  0  0  0  0  0  0  0  0  0  0  0
  -40.4408   60.1064   59.4631 C   0  0  0  0  0  0  0  0  0  0  0  0
  -41.7678   59.7129   58.8283 C   0  0  0  0  0  0  0  0  0  0  0  0
  -41.7919   59.3589   57.3487 C   0  0  0  0  0  0  0  0  0  0  0  0
  -43.0879   58.6188   56.9814 C   0  0  0  0  0  0  0  0  0  0  0  0
  -44.0544   58.4003   58.1600 C   0  0  0  0  0  0  0  0  0  0  0  0
  -45.4565   57.9832   57.7220 C   0  0  0  0  0  0  0  0  0  0  0  0
  -38.0473   57.4938   65.3994 O   0  0  0  0  0  0  0  0  0  0  0  0
  -38.8968   58.5782   65.0737 C   0  0  0  0  0  0  0  0  0  0  0  0
  -37.1297   57.8048   65.4465 H   0  0  0  0  0  0  0  0  0  0  0  0
  -40.3646   58.1539   64.9832 C   0  0  0  0  0  0  0  0  0  0  0  0
  -41.3055   58.5860   65.8401 C   0  0  0  0  0  0  0  0  0  0  0  0
  -42.7501   58.1153   65.6836 C   0  0  0  0  0  0  0  0  0  0  0  0
  -43.6969   59.1886   65.1268 C   0  0  0  0  0  0  0  0  0  0  0  0
  -45.1992   58.8609   65.2113 C   0  0  0  0  0  0  0  0  0  0  0  0
  -45.4176   57.4021   65.6799 C   0  0  0  0  0  0  0  0  0  0  0  0
  -46.8531   57.0690   66.1594 C   0  0  0  0  0  0  0  0  0  0  0  0
  -47.9675   57.5312   65.1913 C   0  0  0  0  0  0  0  0  0  0  0  0
  -49.0514   58.3991   65.8666 C   0  0  0  0  0  0  0  0  0  0  0  0
  -50.4201   58.3235   65.1794 C   0  0  0  0  0  0  0  0  0  0  0  0
  -50.8055   59.5236   64.3171 C   0  0  0  0  0  0  0  0  0  0  0  0
  -51.0325   59.1800   62.8317 C   0  0  0  0  0  0  0  0  0  0  0  0
  -50.3932   57.8657   62.3586 C   0  0  0  0  0  0  0  0  0  0  0  0
  -51.0613   57.3593   61.0770 C   0  0  0  0  0  0  0  0  0  0  0  0
  -50.3233   57.6309   59.7782 C   0  0  0  0  0  0  0  0  0  0  0  0
  -39.0671   60.3238   63.1374 C   0  0  0  0  0  0  0  0  0  0  0  0
  -38.5930   61.5829   63.6788 O   0  0  0  0  0  0  0  0  0  0  0  0
  -36.4031   62.3069   61.9884 O   0  0  0  0  0  0  0  0  0  0  0  0
  -35.2762   64.5764   65.3017 O   0  0  0  0  0  0  0  0  0  0  0  0
  -37.1034   62.1728   65.5006 O   0  0  0  0  0  0  0  0  0  0  0  0
  -37.1934   61.7484   64.1188 C   0  0  0  0  0  0  0  0  0  0  0  0
  -36.3443   62.7412   63.3119 C   0  0  0  0  0  0  0  0  0  0  0  0
  -34.8619   62.7836   63.7432 C   0  0  0  0  0  0  0  0  0  0  0  0
  -34.8550   63.2198   65.1823 C   0  0  0  0  0  0  0  0  0  0  0  0
  -35.7455   62.3031   66.0012 C   0  0  0  0  0  0  0  0  0  0  0  0
  -37.3286   62.2740   61.6996 H   0  0  0  0  0  0  0  0  0  0  0  0
  -34.6946   65.1434   64.7716 H   0  0  0  0  0  0  0  0  0  0  0  0
  -34.2609   62.9447   67.7614 O   0  0  0  0  0  0  0  0  0  0  0  0
  -35.6073   62.9148   67.3937 C   0  0  0  0  0  0  0  0  0  0  0  0
  -34.1759   63.3335   68.6459 H   0  0  0  0  0  0  0  0  0  0  0  0
  -34.0216   63.7226   63.0345 O   0  0  0  0  0  0  0  0  0  0  0  0
  -32.1253   64.2015   61.3342 O   0  0  0  0  0  0  0  0  0  0  0  0
  -32.5038   61.9289   62.0966 O   0  0  0  0  0  0  0  0  0  0  0  0
  -31.4350   63.5423   63.5558 O   0  0  0  0  0  0  0  0  0  0  0  0
  -32.4834   63.3576   62.5125 S   0  0  0  0  0  0  0  0  0  0  0  0
  -32.7975   64.0941   60.6432 H   0  0  0  0  0  0  0  0  0  0  0  0
  -31.4148   64.4717   63.8327 H   0  0  0  0  0  0  0  0  0  0  0  0
  2  1  1  0  0  0
  2  4  1  0  0  0
  2  5  1  0  0  0
 41 42  1  0  0  0
 41  1  1  0  0  0
 42 46  1  0  0  0
  1 24  1  0  0  0
 23 24  1  0  0  0
 23 25  1  0  0  0
 24 26  1  0  0  0
  3  4  2  0  0  0
 26 27  2  0  0  0
 27 28  1  0  0  0
 43 47  1  0  0  0
 43 51  1  0  0  0
 28 29  1  0  0  0
 56 48  1  0  0  0
 56 60  1  0  0  0
 29 30  1  0  0  0
 57 60  1  0  0  0
 57 61  1  0  0  0
 30 31  1  0  0  0
 44 49  1  0  0  0
 44 52  1  0  0  0
 31 32  1  0  0  0
 45 46  1  0  0  0
 45 50  1  0  0  0
 32 33  1  0  0  0
 53 54  1  0  0  0
 53 55  1  0  0  0
 33 34  1  0  0  0
 34 35  1  0  0  0
 35 36  1  0  0  0
 58 60  1  0  0  0
 36 37  1  0  0  0
 59 60  1  0  0  0
 59 62  1  0  0  0
 37 38  1  0  0  0
 38 39  1  0  0  0
 39 40  1  0  0  0
  4  6  1  0  0  0
  6  7  1  0  0  0
  7  8  1  0  0  0
  8  9  1  0  0  0
  9 10  1  0  0  0
 10 11  1  0  0  0
 11 12  1  0  0  0
 12 13  1  0  0  0
 13 14  1  0  0  0
 14 15  1  0  0  0
 15 16  1  0  0  0
 16 17  1  0  0  0
 17 18  1  0  0  0
 18 19  1  0  0  0
 19 20  1  0  0  0
 20 21  1  0  0  0
 21 22  1  0  0  0
 46 47  1  0  0  0
 47 48  1  0  0  0
 48 49  1  0  0  0
 49 50  1  0  0  0
 50 54  1  0  0  0
M  CHG 1  58  -1
M  END
> <minimizedAffinity>
-8.85488

> <CNNscore>
0.2315555513

> <CNNaffinity>
7.1088166237

> <CNN_VS>
1.6460859776

> <CNNaffinity_variance>
0.9126918912

$$$$
/media/chris/experiments/cd1a-new-docking/inputs/ligands/1onq_ligand.pdb


 62 62  0  0  0  0  0  0  0  0999 V2000
  -35.8379   57.9330   62.3073 C   0  0  0  0  0  0  0  0  0  0  0  0
  -36.1860   57.1121   63.4501 N   0  0  0  0  0  0  0  0  0  0  0  0
  -37.3157   56.6515   65.3630 O   0  0  0  0  0  0  0  0  0  0  0  0
  -37.0739   57.3771   64.4181 C   0  0  0  0  0  0  0  0  0  0  0  0
  -35.7110   56.2530   63.5244 H   0  0  0  0  0  0  0  0  0  0  0  0
  -37.7926   58.6867   64.2831 C   0  0  0  0  0  0  0  0  0  0  0  0
  -39.0808   58.5600   65.0966 C   0  0  0  0  0  0  0  0  0  0  0  0
  -39.5240   59.9356   65.5891 C   0  0  0  0  0  0  0  0  0  0  0  0
  -41.0064   60.2141   65.5331 C   0  0  0  0  0  0  0  0  0  0  0  0
  -41.7263   58.8706   65.4846 C   0  0  0  0  0  0  0  0  0  0  0  0
  -42.4721   58.5502   66.7869 C   0  0  0  0  0  0  0  0  0  0  0  0
  -44.0025   58.4740   66.6368 C   0  0  0  0  0  0  0  0  0  0  0  0
  -44.4549   58.3197   65.1682 C   0  0  0  0  0  0  0  0  0  0  0  0
  -45.9597   58.5716   65.0372 C   0  0  0  0  0  0  0  0  0  0  0  0
  -46.5870   59.3449   66.1907 C   0  0  0  0  0  0  0  0  0  0  0  0
  -47.9260   58.7613   66.6164 C   0  0  0  0  0  0  0  0  0  0  0  0
  -48.3844   57.5120   65.8607 C   0  0  0  0  0  0  0  0  0  0  0  0
  -49.7836   57.7706   65.3183 C   0  0  0  0  0  0  0  0  0  0  0  0
  -50.4278   59.1243   65.5786 C   0  0  0  0  0  0  0  0  0  0  0  0
  -51.0558   59.6903   64.2949 C   0  0  0  0  0  0  0  0  0  0  0  0
  -50.0411   60.0626   63.1981 C   0  0  0  0  0  0  0  0  0  0  0  0
  -48.8345   60.8338   63.7281 C   0  0  0  0  0  0  0  0  0  0  0  0
  -35.7600   57.4611   60.0342 O   0  0  0  0  0  0  0  0  0  0  0  0
  -36.5768   57.2481   61.1704 C   0  0  0  0  0  0  0  0  0  0  0  0
  -34.8948   57.0458   60.1755 H   0  0  0  0  0  0  0  0  0  0  0  0
  -37.9615   57.8806   61.0120 C   0  0  0  0  0  0  0  0  0  0  0  0
  -38.1458   59.1946   60.7985 C   0  0  0  0  0  0  0  0  0  0  0  0
  -39.5613   59.7497   60.6518 C   0  0  0  0  0  0  0  0  0  0  0  0
  -39.9966   59.9657   59.1951 C   0  0  0  0  0  0  0  0  0  0  0  0
  -41.4560   59.5944   58.8735 C   0  0  0  0  0  0  0  0  0  0  0  0
  -41.6052   59.1911   57.3867 C   0  0  0  0  0  0  0  0  0  0  0  0
  -43.0357   58.7832   56.9522 C   0  0  0  0  0  0  0  0  0  0  0  0
  -43.9774   58.4280   58.1268 C   0  0  0  0  0  0  0  0  0  0  0  0
  -45.4583   58.2919   57.7115 C   0  0  0  0  0  0  0  0  0  0  0  0
  -46.2732   57.3672   58.6238 C   0  0  0  0  0  0  0  0  0  0  0  0
  -47.2573   56.4316   57.9249 C   0  0  0  0  0  0  0  0  0  0  0  0
  -48.7379   56.7735   58.1842 C   0  0  0  0  0  0  0  0  0  0  0  0
  -49.1686   56.7417   59.6584 C   0  0  0  0  0  0  0  0  0  0  0  0
  -50.4551   57.5444   59.8729 C   0  0  0  0  0  0  0  0  0  0  0  0
  -51.1516   57.3592   61.2092 C   0  0  0  0  0  0  0  0  0  0  0  0
  -34.3268   58.1891   62.1072 C   0  0  0  0  0  0  0  0  0  0  0  0
  -33.6790   59.0425   63.0846 O   0  0  0  0  0  0  0  0  0  0  0  0
  -35.2706   60.3937   65.0387 O   0  0  0  0  0  0  0  0  0  0  0  0
  -32.2703   63.2748   64.7274 O   0  0  0  0  0  0  0  0  0  0  0  0
  -32.8421   61.2554   62.5478 O   0  0  0  0  0  0  0  0  0  0  0  0
  -33.9345   60.4962   63.1204 C   0  0  0  0  0  0  0  0  0  0  0  0
  -34.1941   61.1027   64.5070 C   0  0  0  0  0  0  0  0  0  0  0  0
  -34.5708   62.6000   64.4686 C   0  0  0  0  0  0  0  0  0  0  0  0
  -33.3975   63.3132   63.8557 C   0  0  0  0  0  0  0  0  0  0  0  0
  -33.0631   62.6912   62.5120 C   0  0  0  0  0  0  0  0  0  0  0  0
  -35.0516   59.4492   65.0705 H   0  0  0  0  0  0  0  0  0  0  0  0
  -32.5059   63.6765   65.5783 H   0  0  0  0  0  0  0  0  0  0  0  0
  -32.2457   64.8774   61.9958 O   0  0  0  0  0  0  0  0  0  0  0  0
  -31.8671   63.5362   62.0787 C   0  0  0  0  0  0  0  0  0  0  0  0
  -31.4845   65.4118   61.7205 H   0  0  0  0  0  0  0  0  0  0  0  0
  -34.7993   63.2296   65.7498 O   0  0  0  0  0  0  0  0  0  0  0  0
  -37.1661   62.1807   65.8708 O   0  0  0  0  0  0  0  0  0  0  0  0
  -36.7904   64.3964   66.7865 O   0  0  0  0  0  0  0  0  0  0  0  0
  -35.9960   62.4368   67.9711 O   0  0  0  0  0  0  0  0  0  0  0  0
  -36.2037   63.0386   66.6234 S   0  0  0  0  0  0  0  0  0  0  0  0
  -37.3141   62.5574   64.9893 H   0  0  0  0  0  0  0  0  0  0  0  0
  -35.6135   61.5507   67.8740 H   0  0  0  0  0  0  0  0  0  0  0  0
  2  1  1  0  0  0
  2  4  1  0  0  0
  2  5  1  0  0  0
 41 42  1  0  0  0
 41  1  1  0  0  0
 42 46  1  0  0  0
  1 24  1  0  0  0
 23 24  1  0  0  0
 23 25  1  0  0  0
 24 26  1  0  0  0
  3  4  2  0  0  0
 26 27  2  0  0  0
 27 28  1  0  0  0
 43 47  1  0  0  0
 43 51  1  0  0  0
 28 29  1  0  0  0
 56 48  1  0  0  0
 56 60  1  0  0  0
 29 30  1  0  0  0
 57 60  1  0  0  0
 57 61  1  0  0  0
 30 31  1  0  0  0
 44 49  1  0  0  0
 44 52  1  0  0  0
 31 32  1  0  0  0
 45 46  1  0  0  0
 45 50  1  0  0  0
 32 33  1  0  0  0
 53 54  1  0  0  0
 53 55  1  0  0  0
 33 34  1  0  0  0
 34 35  1  0  0  0
 35 36  1  0  0  0
 58 60  1  0  0  0
 36 37  1  0  0  0
 59 60  1  0  0  0
 59 62  1  0  0  0
 37 38  1  0  0  0
 38 39  1  0  0  0
 39 40  1  0  0  0
  4  6  1  0  0  0
  6  7  1  0  0  0
  7  8  1  0  0  0
  8  9  1  0  0  0
  9 10  1  0  0  0
 10 11  1  0  0  0
 11 12  1  0  0  0
 12 13  1  0  0  0
 13 14  1  0  0  0
 14 15  1  0  0  0
 15 16  1  0  0  0
 16 17  1  0  0  0
 17 18  1  0  0  0
 18 19  1  0  0  0
 19 20  1  0  0  0
 20 21  1  0  0  0
 21 22  1  0  0  0
 46 47  1  0  0  0
 47 48  1  0  0  0
 48 49  1  0  0  0
 49 50  1  0  0  0
 50 54  1  0  0  0
M  CHG 1  58  -1
M  END
> <minimizedAffinity>
-8.73472

> <CNNscore>
0.2213085592

> <CNNaffinity>
6.8619279861

> <CNN_VS>
1.5186034441

> <CNNaffinity_variance>
1.2383898497

$$$$
/media/chris/experiments/cd1a-new-docking/inputs/ligands/1onq_ligand.pdb


 62 62  0  0  0  0  0  0  0  0999 V2000
  -38.3014   60.2650   64.8648 C   0  0  0  0  0  0  0  0  0  0  0  0
  -38.0555   60.9909   63.6344 N   0  0  0  0  0  0  0  0  0  0  0  0
  -37.4788   61.1620   61.4469 O   0  0  0  0  0  0  0  0  0  0  0  0
  -37.6827   60.4988   62.4451 C   0  0  0  0  0  0  0  0  0  0  0  0
  -38.1777   61.9668   63.6780 H   0  0  0  0  0  0  0  0  0  0  0  0
  -37.5093   59.0098   62.3970 C   0  0  0  0  0  0  0  0  0  0  0  0
  -38.6613   58.4664   61.5515 C   0  0  0  0  0  0  0  0  0  0  0  0
  -38.1878   58.2217   60.1207 C   0  0  0  0  0  0  0  0  0  0  0  0
  -38.6292   59.2357   59.0934 C   0  0  0  0  0  0  0  0  0  0  0  0
  -39.9235   59.8670   59.5955 C   0  0  0  0  0  0  0  0  0  0  0  0
  -41.0847   59.7061   58.6053 C   0  0  0  0  0  0  0  0  0  0  0  0
  -40.7589   58.8229   57.3870 C   0  0  0  0  0  0  0  0  0  0  0  0
  -41.9046   58.7814   56.3519 C   0  0  0  0  0  0  0  0  0  0  0  0
  -43.2316   59.1885   56.9986 C   0  0  0  0  0  0  0  0  0  0  0  0
  -44.0499   58.0376   57.5713 C   0  0  0  0  0  0  0  0  0  0  0  0
  -45.4256   58.4856   58.0420 C   0  0  0  0  0  0  0  0  0  0  0  0
  -46.3474   57.3825   58.5672 C   0  0  0  0  0  0  0  0  0  0  0  0
  -47.2104   56.8936   57.4117 C   0  0  0  0  0  0  0  0  0  0  0  0
  -48.4582   56.0817   57.7262 C   0  0  0  0  0  0  0  0  0  0  0  0
  -48.4773   55.6521   59.2018 C   0  0  0  0  0  0  0  0  0  0  0  0
  -49.3289   56.5506   60.1175 C   0  0  0  0  0  0  0  0  0  0  0  0
  -50.3029   57.4429   59.3517 C   0  0  0  0  0  0  0  0  0  0  0  0
  -40.0609   61.1579   66.0906 O   0  0  0  0  0  0  0  0  0  0  0  0
  -39.8152   60.3140   64.9810 C   0  0  0  0  0  0  0  0  0  0  0  0
  -39.7058   62.0422   65.9091 H   0  0  0  0  0  0  0  0  0  0  0  0
  -40.3526   58.8982   65.2032 C   0  0  0  0  0  0  0  0  0  0  0  0
  -41.5678   58.6495   65.7206 C   0  0  0  0  0  0  0  0  0  0  0  0
  -42.0318   57.2069   65.9122 C   0  0  0  0  0  0  0  0  0  0  0  0
  -43.4873   57.0794   66.3849 C   0  0  0  0  0  0  0  0  0  0  0  0
  -44.4911   56.5863   65.3263 C   0  0  0  0  0  0  0  0  0  0  0  0
  -45.3747   57.7527   64.8220 C   0  0  0  0  0  0  0  0  0  0  0  0
  -45.6674   58.8602   65.8657 C   0  0  0  0  0  0  0  0  0  0  0  0
  -46.8451   59.7898   65.4895 C   0  0  0  0  0  0  0  0  0  0  0  0
  -48.1477   59.4780   66.2577 C   0  0  0  0  0  0  0  0  0  0  0  0
  -48.7529   58.1106   65.9179 C   0  0  0  0  0  0  0  0  0  0  0  0
  -50.2639   58.0814   65.6974 C   0  0  0  0  0  0  0  0  0  0  0  0
  -50.7706   59.1370   64.6949 C   0  0  0  0  0  0  0  0  0  0  0  0
  -51.0129   58.6216   63.2681 C   0  0  0  0  0  0  0  0  0  0  0  0
  -50.2795   59.4868   62.2390 C   0  0  0  0  0  0  0  0  0  0  0  0
  -49.1248   60.3235   62.7606 C   0  0  0  0  0  0  0  0  0  0  0  0
  -37.4887   60.7389   66.0911 C   0  0  0  0  0  0  0  0  0  0  0  0
  -37.2175   62.1609   66.1787 O   0  0  0  0  0  0  0  0  0  0  0  0
  -35.5918   62.2612   63.8284 O   0  0  0  0  0  0  0  0  0  0  0  0
  -34.4396   65.9421   65.4164 O   0  0  0  0  0  0  0  0  0  0  0  0
  -35.6008   63.7153   67.1040 O   0  0  0  0  0  0  0  0  0  0  0  0
  -35.8375   62.6821   66.1169 C   0  0  0  0  0  0  0  0  0  0  0  0
  -35.3976   63.2717   64.7691 C   0  0  0  0  0  0  0  0  0  0  0  0
  -33.9118   63.6913   64.7307 C   0  0  0  0  0  0  0  0  0  0  0  0
  -33.7470   64.7518   65.7841 C   0  0  0  0  0  0  0  0  0  0  0  0
  -34.2418   64.2294   67.1207 C   0  0  0  0  0  0  0  0  0  0  0  0
  -36.5215   61.9844   63.8383 H   0  0  0  0  0  0  0  0  0  0  0  0
  -34.1083   66.2578   64.5611 H   0  0  0  0  0  0  0  0  0  0  0  0
  -32.8133   66.0710   67.6514 O   0  0  0  0  0  0  0  0  0  0  0  0
  -34.0000   65.4369   68.0238 C   0  0  0  0  0  0  0  0  0  0  0  0
  -32.6621   66.8374   68.2264 H   0  0  0  0  0  0  0  0  0  0  0  0
  -33.4504   64.2791   63.4931 O   0  0  0  0  0  0  0  0  0  0  0  0
  -34.3455   63.4979   61.1898 O   0  0  0  0  0  0  0  0  0  0  0  0
  -33.0163   61.9778   62.5359 O   0  0  0  0  0  0  0  0  0  0  0  0
  -31.9545   63.8136   61.3623 O   0  0  0  0  0  0  0  0  0  0  0  0
  -33.1742   63.3949   62.1097 S   0  0  0  0  0  0  0  0  0  0  0  0
  -35.1503   63.2287   61.6597 H   0  0  0  0  0  0  0  0  0  0  0  0
  -32.0491   64.7368   61.0805 H   0  0  0  0  0  0  0  0  0  0  0  0
  2  1  1  0  0  0
  2  4  1  0  0  0
  2  5  1  0  0  0
 41 42  1  0  0  0
 41  1  1  0  0  0
 42 46  1  0  0  0
  1 24  1  0  0  0
 23 24  1  0  0  0
 23 25  1  0  0  0
 24 26  1  0  0  0
  3  4  2  0  0  0
 26 27  2  0  0  0
 27 28  1  0  0  0
 43 47  1  0  0  0
 43 51  1  0  0  0
 28 29  1  0  0  0
 56 48  1  0  0  0
 56 60  1  0  0  0
 29 30  1  0  0  0
 57 60  1  0  0  0
 57 61  1  0  0  0
 30 31  1  0  0  0
 44 49  1  0  0  0
 44 52  1  0  0  0
 31 32  1  0  0  0
 45 46  1  0  0  0
 45 50  1  0  0  0
 32 33  1  0  0  0
 53 54  1  0  0  0
 53 55  1  0  0  0
 33 34  1  0  0  0
 34 35  1  0  0  0
 35 36  1  0  0  0
 58 60  1  0  0  0
 36 37  1  0  0  0
 59 60  1  0  0  0
 59 62  1  0  0  0
 37 38  1  0  0  0
 38 39  1  0  0  0
 39 40  1  0  0  0
  4  6  1  0  0  0
  6  7  1  0  0  0
  7  8  1  0  0  0
  8  9  1  0  0  0
  9 10  1  0  0  0
 10 11  1  0  0  0
 11 12  1  0  0  0
 12 13  1  0  0  0
 13 14  1  0  0  0
 14 15  1  0  0  0
 15 16  1  0  0  0
 16 17  1  0  0  0
 17 18  1  0  0  0
 18 19  1  0  0  0
 19 20  1  0  0  0
 20 21  1  0  0  0
 21 22  1  0  0  0
 46 47  1  0  0  0
 47 48  1  0  0  0
 48 49  1  0  0  0
 49 50  1  0  0  0
 50 54  1  0  0  0
M  CHG 1  58  -1
M  END
> <minimizedAffinity>
-8.38807

> <CNNscore>
0.2173772603

> <CNNaffinity>
6.8866653442

> <CNN_VS>
1.4970043898

> <CNNaffinity_variance>
0.4432679713

$$$$
/media/chris/experiments/cd1a-new-docking/inputs/ligands/1onq_ligand.pdb


 62 62  0  0  0  0  0  0  0  0999 V2000
  -38.7605   59.4081   60.9041 C   0  0  0  0  0  0  0  0  0  0  0  0
  -38.6953   58.0093   61.2785 N   0  0  0  0  0  0  0  0  0  0  0  0
  -37.6845   55.9842   61.4358 O   0  0  0  0  0  0  0  0  0  0  0  0
  -37.6763   57.1556   61.1106 C   0  0  0  0  0  0  0  0  0  0  0  0
  -39.4998   57.6406   61.7099 H   0  0  0  0  0  0  0  0  0  0  0  0
  -36.4573   57.7378   60.4589 C   0  0  0  0  0  0  0  0  0  0  0  0
  -35.2529   57.0389   61.0899 C   0  0  0  0  0  0  0  0  0  0  0  0
  -34.6822   57.8979   62.2158 C   0  0  0  0  0  0  0  0  0  0  0  0
  -34.9080   57.3883   63.6185 C   0  0  0  0  0  0  0  0  0  0  0  0
  -35.9973   58.2477   64.2514 C   0  0  0  0  0  0  0  0  0  0  0  0
  -37.1855   57.4199   64.7591 C   0  0  0  0  0  0  0  0  0  0  0  0
  -38.3423   58.2594   65.3314 C   0  0  0  0  0  0  0  0  0  0  0  0
  -39.6931   57.9700   64.6407 C   0  0  0  0  0  0  0  0  0  0  0  0
  -40.3042   59.2605   64.0875 C   0  0  0  0  0  0  0  0  0  0  0  0
  -41.5882   59.7117   64.7730 C   0  0  0  0  0  0  0  0  0  0  0  0
  -41.7392   59.1167   66.1651 C   0  0  0  0  0  0  0  0  0  0  0  0
  -43.0523   58.3810   66.4417 C   0  0  0  0  0  0  0  0  0  0  0  0
  -44.1734   59.1239   65.7276 C   0  0  0  0  0  0  0  0  0  0  0  0
  -45.1068   58.3371   64.8194 C   0  0  0  0  0  0  0  0  0  0  0  0
  -45.1898   56.8663   65.2577 C   0  0  0  0  0  0  0  0  0  0  0  0
  -46.4610   56.5063   66.0486 C   0  0  0  0  0  0  0  0  0  0  0  0
  -46.5153   57.1521   67.4312 C   0  0  0  0  0  0  0  0  0  0  0  0
  -38.0900   60.2613   58.8502 O   0  0  0  0  0  0  0  0  0  0  0  0
  -39.0081   59.3389   59.4070 C   0  0  0  0  0  0  0  0  0  0  0  0
  -37.1847   59.9815   59.0577 H   0  0  0  0  0  0  0  0  0  0  0  0
  -40.4605   59.7233   59.1151 C   0  0  0  0  0  0  0  0  0  0  0  0
  -41.1612   59.2107   58.0891 C   0  0  0  0  0  0  0  0  0  0  0  0
  -42.6078   59.6463   57.8636 C   0  0  0  0  0  0  0  0  0  0  0  0
  -43.5355   58.5101   57.4091 C   0  0  0  0  0  0  0  0  0  0  0  0
  -44.5483   58.0163   58.4588 C   0  0  0  0  0  0  0  0  0  0  0  0
  -45.9994   58.2620   57.9800 C   0  0  0  0  0  0  0  0  0  0  0  0
  -46.5741   57.1820   57.0287 C   0  0  0  0  0  0  0  0  0  0  0  0
  -47.8953   56.5443   57.5190 C   0  0  0  0  0  0  0  0  0  0  0  0
  -47.8186   55.9956   58.9602 C   0  0  0  0  0  0  0  0  0  0  0  0
  -49.1012   56.2112   59.7724 C   0  0  0  0  0  0  0  0  0  0  0  0
  -49.8236   57.5377   59.5468 C   0  0  0  0  0  0  0  0  0  0  0  0
  -49.5445   58.5950   60.6333 C   0  0  0  0  0  0  0  0  0  0  0  0
  -48.9946   58.0436   61.9575 C   0  0  0  0  0  0  0  0  0  0  0  0
  -49.9592   58.3253   63.1132 C   0  0  0  0  0  0  0  0  0  0  0  0
  -51.3156   58.8944   62.7371 C   0  0  0  0  0  0  0  0  0  0  0  0
  -37.5760   60.2802   61.3788 C   0  0  0  0  0  0  0  0  0  0  0  0
  -37.8674   61.2702   62.3978 O   0  0  0  0  0  0  0  0  0  0  0  0
  -35.8758   63.2722   61.9476 O   0  0  0  0  0  0  0  0  0  0  0  0
  -36.7255   64.2640   65.9091 O   0  0  0  0  0  0  0  0  0  0  0  0
  -37.2945   61.5315   64.7407 O   0  0  0  0  0  0  0  0  0  0  0  0
  -36.8418   61.6887   63.3739 C   0  0  0  0  0  0  0  0  0  0  0  0
  -36.3452   63.1367   63.2535 C   0  0  0  0  0  0  0  0  0  0  0  0
  -35.1919   63.4796   64.2216 C   0  0  0  0  0  0  0  0  0  0  0  0
  -35.7356   63.2830   65.6098 C   0  0  0  0  0  0  0  0  0  0  0  0
  -36.3045   61.8821   65.7449 C   0  0  0  0  0  0  0  0  0  0  0  0
  -36.5883   63.0604   61.3242 H   0  0  0  0  0  0  0  0  0  0  0  0
  -36.3412   65.1498   65.8166 H   0  0  0  0  0  0  0  0  0  0  0  0
  -35.9399   62.6678   67.9729 O   0  0  0  0  0  0  0  0  0  0  0  0
  -36.8005   61.8970   67.1892 C   0  0  0  0  0  0  0  0  0  0  0  0
  -36.2571   62.6756   68.8895 H   0  0  0  0  0  0  0  0  0  0  0  0
  -34.7036   64.8395   64.1702 O   0  0  0  0  0  0  0  0  0  0  0  0
  -32.4829   65.8782   63.3298 O   0  0  0  0  0  0  0  0  0  0  0  0
  -32.4204   63.9959   64.8603 O   0  0  0  0  0  0  0  0  0  0  0  0
  -33.0047   66.2051   65.6680 O   0  0  0  0  0  0  0  0  0  0  0  0
  -33.1316   65.2589   64.5234 S   0  0  0  0  0  0  0  0  0  0  0  0
  -32.5556   65.2756   62.5732 H   0  0  0  0  0  0  0  0  0  0  0  0
  -33.4658   67.0319   65.4567 H   0  0  0  0  0  0  0  0  0  0  0  0
  2  1  1  0  0  0
  2  4  1  0  0  0
  2  5  1  0  0  0
 41 42  1  0  0  0
 41  1  1  0  0  0
 42 46  1  0  0  0
  1 24  1  0  0  0
 23 24  1  0  0  0
 23 25  1  0  0  0
 24 26  1  0  0  0
  3  4  2  0  0  0
 26 27  2  0  0  0
 27 28  1  0  0  0
 43 47  1  0  0  0
 43 51  1  0  0  0
 28 29  1  0  0  0
 56 48  1  0  0  0
 56 60  1  0  0  0
 29 30  1  0  0  0
 57 60  1  0  0  0
 57 61  1  0  0  0
 30 31  1  0  0  0
 44 49  1  0  0  0
 44 52  1  0  0  0
 31 32  1  0  0  0
 45 46  1  0  0  0
 45 50  1  0  0  0
 32 33  1  0  0  0
 53 54  1  0  0  0
 53 55  1  0  0  0
 33 34  1  0  0  0
 34 35  1  0  0  0
 35 36  1  0  0  0
 58 60  1  0  0  0
 36 37  1  0  0  0
 59 60  1  0  0  0
 59 62  1  0  0  0
 37 38  1  0  0  0
 38 39  1  0  0  0
 39 40  1  0  0  0
  4  6  1  0  0  0
  6  7  1  0  0  0
  7  8  1  0  0  0
  8  9  1  0  0  0
  9 10  1  0  0  0
 10 11  1  0  0  0
 11 12  1  0  0  0
 12 13  1  0  0  0
 13 14  1  0  0  0
 14 15  1  0  0  0
 15 16  1  0  0  0
 16 17  1  0  0  0
 17 18  1  0  0  0
 18 19  1  0  0  0
 19 20  1  0  0  0
 20 21  1  0  0  0
 21 22  1  0  0  0
 46 47  1  0  0  0
 47 48  1  0  0  0
 48 49  1  0  0  0
 49 50  1  0  0  0
 50 54  1  0  0  0
M  CHG 1  58  -1
M  END
> <minimizedAffinity>
-8.43988

> <CNNscore>
0.2143342644

> <CNNaffinity>
7.1138930321

> <CNN_VS>
1.5247510672

> <CNNaffinity_variance>
1.2254512310

$$$$
/media/chris/experiments/cd1a-new-docking/inputs/ligands/1onq_ligand.pdb


 62 62  0  0  0  0  0  0  0  0999 V2000
  -40.3544   59.3109   65.0153 C   0  0  0  0  0  0  0  0  0  0  0  0
  -41.1801   58.8879   66.1291 N   0  0  0  0  0  0  0  0  0  0  0  0
  -43.1548   58.4134   67.1403 O   0  0  0  0  0  0  0  0  0  0  0  0
  -42.5136   58.7628   66.1684 C   0  0  0  0  0  0  0  0  0  0  0  0
  -40.7016   58.6648   66.9600 H   0  0  0  0  0  0  0  0  0  0  0  0
  -43.2237   59.0999   64.8910 C   0  0  0  0  0  0  0  0  0  0  0  0
  -44.7084   59.2139   65.2374 C   0  0  0  0  0  0  0  0  0  0  0  0
  -45.4726   58.0276   64.6543 C   0  0  0  0  0  0  0  0  0  0  0  0
  -46.4310   57.3316   65.5898 C   0  0  0  0  0  0  0  0  0  0  0  0
  -47.8466   57.6885   65.1486 C   0  0  0  0  0  0  0  0  0  0  0  0
  -48.3440   59.0052   65.7599 C   0  0  0  0  0  0  0  0  0  0  0  0
  -48.3848   60.1853   64.7719 C   0  0  0  0  0  0  0  0  0  0  0  0
  -49.0737   59.8270   63.4368 C   0  0  0  0  0  0  0  0  0  0  0  0
  -50.5956   59.7999   63.6046 C   0  0  0  0  0  0  0  0  0  0  0  0
  -51.3345   58.8799   62.6404 C   0  0  0  0  0  0  0  0  0  0  0  0
  -50.4085   57.8647   61.9871 C   0  0  0  0  0  0  0  0  0  0  0  0
  -50.8828   57.2851   60.6524 C   0  0  0  0  0  0  0  0  0  0  0  0
  -49.8053   57.5492   59.6094 C   0  0  0  0  0  0  0  0  0  0  0  0
  -48.5548   56.6823   59.6171 C   0  0  0  0  0  0  0  0  0  0  0  0
  -47.3171   57.4990   59.2129 C   0  0  0  0  0  0  0  0  0  0  0  0
  -46.9830   57.4509   57.7106 C   0  0  0  0  0  0  0  0  0  0  0  0
  -47.8457   56.4609   56.9313 C   0  0  0  0  0  0  0  0  0  0  0  0
  -38.4566   58.0693   65.5182 O   0  0  0  0  0  0  0  0  0  0  0  0
  -39.5899   58.0443   64.6704 C   0  0  0  0  0  0  0  0  0  0  0  0
  -38.7451   58.0500   66.4441 H   0  0  0  0  0  0  0  0  0  0  0  0
  -39.2032   58.0730   63.1898 C   0  0  0  0  0  0  0  0  0  0  0  0
  -38.2393   57.2940   62.6699 C   0  0  0  0  0  0  0  0  0  0  0  0
  -37.9112   57.3821   61.1807 C   0  0  0  0  0  0  0  0  0  0  0  0
  -38.3650   58.6923   60.5206 C   0  0  0  0  0  0  0  0  0  0  0  0
  -37.5968   59.0992   59.2495 C   0  0  0  0  0  0  0  0  0  0  0  0
  -37.7926   58.0490   58.1296 C   0  0  0  0  0  0  0  0  0  0  0  0
  -36.5350   57.2147   57.7777 C   0  0  0  0  0  0  0  0  0  0  0  0
  -36.6346   55.7221   58.1714 C   0  0  0  0  0  0  0  0  0  0  0  0
  -35.7188   55.3324   59.3519 C   0  0  0  0  0  0  0  0  0  0  0  0
  -34.3881   56.0939   59.3789 C   0  0  0  0  0  0  0  0  0  0  0  0
  -33.7079   56.2088   60.7414 C   0  0  0  0  0  0  0  0  0  0  0  0
  -34.1403   57.4449   61.5545 C   0  0  0  0  0  0  0  0  0  0  0  0
  -33.2322   57.7975   62.7424 C   0  0  0  0  0  0  0  0  0  0  0  0
  -32.7125   59.2337   62.6299 C   0  0  0  0  0  0  0  0  0  0  0  0
  -31.4945   59.4438   61.7481 C   0  0  0  0  0  0  0  0  0  0  0  0
  -39.5202   60.5901   65.2532 C   0  0  0  0  0  0  0  0  0  0  0  0
  -38.3574   60.7726   64.4058 O   0  0  0  0  0  0  0  0  0  0  0  0
  -35.8532   60.5677   63.0404 O   0  0  0  0  0  0  0  0  0  0  0  0
  -35.0824   64.1651   65.0060 O   0  0  0  0  0  0  0  0  0  0  0  0
  -37.1455   62.1737   65.9721 O   0  0  0  0  0  0  0  0  0  0  0  0
  -37.0426   61.1272   64.9763 C   0  0  0  0  0  0  0  0  0  0  0  0
  -35.9758   61.5945   63.9757 C   0  0  0  0  0  0  0  0  0  0  0  0
  -34.5905   61.8372   64.6140 C   0  0  0  0  0  0  0  0  0  0  0  0
  -34.7832   62.9224   65.6370 C   0  0  0  0  0  0  0  0  0  0  0  0
  -35.8853   62.5275   66.6032 C   0  0  0  0  0  0  0  0  0  0  0  0
  -36.7155   60.4011   62.6283 H   0  0  0  0  0  0  0  0  0  0  0  0
  -34.3665   64.3976   64.3942 H   0  0  0  0  0  0  0  0  0  0  0  0
  -34.6242   64.1925   67.7657 O   0  0  0  0  0  0  0  0  0  0  0  0
  -35.9241   63.7424   67.5279 C   0  0  0  0  0  0  0  0  0  0  0  0
  -34.6516   64.9639   68.3531 H   0  0  0  0  0  0  0  0  0  0  0  0
  -33.5541   62.3057   63.7215 O   0  0  0  0  0  0  0  0  0  0  0  0
  -35.2374   63.5835   62.2212 O   0  0  0  0  0  0  0  0  0  0  0  0
  -33.0015   63.1295   61.3941 O   0  0  0  0  0  0  0  0  0  0  0  0
  -33.3594   64.8577   63.0553 O   0  0  0  0  0  0  0  0  0  0  0  0
  -33.7940   63.5083   62.5954 S   0  0  0  0  0  0  0  0  0  0  0  0
  -35.5388   62.7126   61.9186 H   0  0  0  0  0  0  0  0  0  0  0  0
  -33.8714   65.1127   63.8387 H   0  0  0  0  0  0  0  0  0  0  0  0
  2  1  1  0  0  0
  2  4  1  0  0  0
  2  5  1  0  0  0
 41 42  1  0  0  0
 41  1  1  0  0  0
 42 46  1  0  0  0
  1 24  1  0  0  0
 23 24  1  0  0  0
 23 25  1  0  0  0
 24 26  1  0  0  0
  3  4  2  0  0  0
 26 27  2  0  0  0
 27 28  1  0  0  0
 43 47  1  0  0  0
 43 51  1  0  0  0
 28 29  1  0  0  0
 56 48  1  0  0  0
 56 60  1  0  0  0
 29 30  1  0  0  0
 57 60  1  0  0  0
 57 61  1  0  0  0
 30 31  1  0  0  0
 44 49  1  0  0  0
 44 52  1  0  0  0
 31 32  1  0  0  0
 45 46  1  0  0  0
 45 50  1  0  0  0
 32 33  1  0  0  0
 53 54  1  0  0  0
 53 55  1  0  0  0
 33 34  1  0  0  0
 34 35  1  0  0  0
 35 36  1  0  0  0
 58 60  1  0  0  0
 36 37  1  0  0  0
 59 60  1  0  0  0
 59 62  1  0  0  0
 37 38  1  0  0  0
 38 39  1  0  0  0
 39 40  1  0  0  0
  4  6  1  0  0  0
  6  7  1  0  0  0
  7  8  1  0  0  0
  8  9  1  0  0  0
  9 10  1  0  0  0
 10 11  1  0  0  0
 11 12  1  0  0  0
 12 13  1  0  0  0
 13 14  1  0  0  0
 14 15  1  0  0  0
 15 16  1  0  0  0
 16 17  1  0  0  0
 17 18  1  0  0  0
 18 19  1  0  0  0
 19 20  1  0  0  0
 20 21  1  0  0  0
 21 22  1  0  0  0
 46 47  1  0  0  0
 47 48  1  0  0  0
 48 49  1  0  0  0
 49 50  1  0  0  0
 50 54  1  0  0  0
M  CHG 1  58  -1
M  END
> <minimizedAffinity>
-10.18229

> <CNNscore>
0.2084314972

> <CNNaffinity>
6.9936280251

> <CNN_VS>
1.4576923847

> <CNNaffinity_variance>
1.2439302206

$$$$
/media/chris/experiments/cd1a-new-docking/inputs/ligands/1onq_ligand.pdb


 62 62  0  0  0  0  0  0  0  0999 V2000
  -39.2503   58.5680   65.3631 C   0  0  0  0  0  0  0  0  0  0  0  0
  -40.3270   59.2889   64.7135 N   0  0  0  0  0  0  0  0  0  0  0  0
  -42.5069   59.7563   64.2926 O   0  0  0  0  0  0  0  0  0  0  0  0
  -41.6470   59.1267   64.8775 C   0  0  0  0  0  0  0  0  0  0  0  0
  -40.0546   59.9842   64.0719 H   0  0  0  0  0  0  0  0  0  0  0  0
  -42.0417   58.0684   65.8643 C   0  0  0  0  0  0  0  0  0  0  0  0
  -43.5106   58.3200   66.2052 C   0  0  0  0  0  0  0  0  0  0  0  0
  -44.2884   57.0068   66.1619 C   0  0  0  0  0  0  0  0  0  0  0  0
  -45.6145   57.0448   65.4421 C   0  0  0  0  0  0  0  0  0  0  0  0
  -46.7136   56.9646   66.4964 C   0  0  0  0  0  0  0  0  0  0  0  0
  -48.1212   56.9490   65.8854 C   0  0  0  0  0  0  0  0  0  0  0  0
  -48.7351   58.3453   65.6758 C   0  0  0  0  0  0  0  0  0  0  0  0
  -50.2345   58.2932   65.3094 C   0  0  0  0  0  0  0  0  0  0  0  0
  -50.6181   59.4885   64.4324 C   0  0  0  0  0  0  0  0  0  0  0  0
  -51.2230   59.1291   63.0808 C   0  0  0  0  0  0  0  0  0  0  0  0
  -50.6317   57.8509   62.5052 C   0  0  0  0  0  0  0  0  0  0  0  0
  -51.0931   57.4732   61.0957 C   0  0  0  0  0  0  0  0  0  0  0  0
  -49.9184   56.8364   60.3653 C   0  0  0  0  0  0  0  0  0  0  0  0
  -49.0769   57.7045   59.4415 C   0  0  0  0  0  0  0  0  0  0  0  0
  -47.6294   57.1922   59.3731 C   0  0  0  0  0  0  0  0  0  0  0  0
  -46.9185   57.4640   58.0345 C   0  0  0  0  0  0  0  0  0  0  0  0
  -47.5359   56.7105   56.8587 C   0  0  0  0  0  0  0  0  0  0  0  0
  -39.2254   60.8344   65.8715 O   0  0  0  0  0  0  0  0  0  0  0  0
  -38.3958   59.6890   65.9294 C   0  0  0  0  0  0  0  0  0  0  0  0
  -40.0101   60.6935   66.4242 H   0  0  0  0  0  0  0  0  0  0  0  0
  -37.1352   59.8462   65.0758 C   0  0  0  0  0  0  0  0  0  0  0  0
  -36.9532   60.8667   64.2204 C   0  0  0  0  0  0  0  0  0  0  0  0
  -35.6661   60.9526   63.4023 C   0  0  0  0  0  0  0  0  0  0  0  0
  -34.5497   60.0230   63.9001 C   0  0  0  0  0  0  0  0  0  0  0  0
  -34.2243   58.8249   62.9891 C   0  0  0  0  0  0  0  0  0  0  0  0
  -32.7160   58.4830   63.0493 C   0  0  0  0  0  0  0  0  0  0  0  0
  -31.8650   59.0360   61.8782 C   0  0  0  0  0  0  0  0  0  0  0  0
  -30.8543   60.1315   62.2918 C   0  0  0  0  0  0  0  0  0  0  0  0
  -31.2658   61.5514   61.8460 C   0  0  0  0  0  0  0  0  0  0  0  0
  -31.5870   62.4957   63.0107 C   0  0  0  0  0  0  0  0  0  0  0  0
  -32.8875   63.2877   62.8938 C   0  0  0  0  0  0  0  0  0  0  0  0
  -33.2244   64.1260   64.1427 C   0  0  0  0  0  0  0  0  0  0  0  0
  -32.8822   63.4651   65.4866 C   0  0  0  0  0  0  0  0  0  0  0  0
  -34.1350   62.8837   66.1483 C   0  0  0  0  0  0  0  0  0  0  0  0
  -35.0177   63.8636   66.9006 C   0  0  0  0  0  0  0  0  0  0  0  0
  -38.5335   57.5132   64.4899 C   0  0  0  0  0  0  0  0  0  0  0  0
  -38.9684   57.4100   63.1102 O   0  0  0  0  0  0  0  0  0  0  0  0
  -36.7164   56.6555   61.5176 O   0  0  0  0  0  0  0  0  0  0  0  0
  -38.8993   58.5127   58.4869 O   0  0  0  0  0  0  0  0  0  0  0  0
  -39.3202   59.1162   61.4219 O   0  0  0  0  0  0  0  0  0  0  0  0
  -38.3567   58.2367   62.0509 C   0  0  0  0  0  0  0  0  0  0  0  0
  -37.6688   57.4729   60.9103 C   0  0  0  0  0  0  0  0  0  0  0  0
  -36.9472   58.3884   59.8972 C   0  0  0  0  0  0  0  0  0  0  0  0
  -38.0073   59.2717   59.2994 C   0  0  0  0  0  0  0  0  0  0  0  0
  -38.7607   59.9898   60.4043 C   0  0  0  0  0  0  0  0  0  0  0  0
  -37.1523   56.0722   62.1585 H   0  0  0  0  0  0  0  0  0  0  0  0
  -38.3977   58.0632   57.7889 H   0  0  0  0  0  0  0  0  0  0  0  0
  -40.9124   60.0343   59.3641 O   0  0  0  0  0  0  0  0  0  0  0  0
  -39.7716   60.8037   59.5994 C   0  0  0  0  0  0  0  0  0  0  0  0
  -41.5527   60.5534   58.8528 H   0  0  0  0  0  0  0  0  0  0  0  0
  -36.3051   57.7229   58.7859 O   0  0  0  0  0  0  0  0  0  0  0  0
  -34.1162   57.2436   60.0881 O   0  0  0  0  0  0  0  0  0  0  0  0
  -34.1844   56.8866   57.6887 O   0  0  0  0  0  0  0  0  0  0  0  0
  -35.2721   55.3212   59.1856 O   0  0  0  0  0  0  0  0  0  0  0  0
  -34.9576   56.7596   58.9538 S   0  0  0  0  0  0  0  0  0  0  0  0
  -33.9009   58.1799   59.9544 H   0  0  0  0  0  0  0  0  0  0  0  0
  -35.7765   55.2292   60.0090 H   0  0  0  0  0  0  0  0  0  0  0  0
  2  1  1  0  0  0
  2  4  1  0  0  0
  2  5  1  0  0  0
 41 42  1  0  0  0
 41  1  1  0  0  0
 42 46  1  0  0  0
  1 24  1  0  0  0
 23 24  1  0  0  0
 23 25  1  0  0  0
 24 26  1  0  0  0
  3  4  2  0  0  0
 26 27  2  0  0  0
 27 28  1  0  0  0
 43 47  1  0  0  0
 43 51  1  0  0  0
 28 29  1  0  0  0
 56 48  1  0  0  0
 56 60  1  0  0  0
 29 30  1  0  0  0
 57 60  1  0  0  0
 57 61  1  0  0  0
 30 31  1  0  0  0
 44 49  1  0  0  0
 44 52  1  0  0  0
 31 32  1  0  0  0
 45 46  1  0  0  0
 45 50  1  0  0  0
 32 33  1  0  0  0
 53 54  1  0  0  0
 53 55  1  0  0  0
 33 34  1  0  0  0
 34 35  1  0  0  0
 35 36  1  0  0  0
 58 60  1  0  0  0
 36 37  1  0  0  0
 59 60  1  0  0  0
 59 62  1  0  0  0
 37 38  1  0  0  0
 38 39  1  0  0  0
 39 40  1  0  0  0
  4  6  1  0  0  0
  6  7  1  0  0  0
  7  8  1  0  0  0
  8  9  1  0  0  0
  9 10  1  0  0  0
 10 11  1  0  0  0
 11 12  1  0  0  0
 12 13  1  0  0  0
 13 14  1  0  0  0
 14 15  1  0  0  0
 15 16  1  0  0  0
 16 17  1  0  0  0
 17 18  1  0  0  0
 18 19  1  0  0  0
 19 20  1  0  0  0
 20 21  1  0  0  0
 21 22  1  0  0  0
 46 47  1  0  0  0
 47 48  1  0  0  0
 48 49  1  0  0  0
 49 50  1  0  0  0
 50 54  1  0  0  0
M  CHG 1  58  -1
M  END
> <minimizedAffinity>
-9.23391

> <CNNscore>
0.1849335879

> <CNNaffinity>
6.9752006531

> <CNN_VS>
1.2899489403

> <CNNaffinity_variance>
1.0577282906

$$$$
