/media/chris/experiments/cd1a-new-docking/inputs/ligands/1onq_ligand.pdb


 62 62  0  0  0  0  0  0  0  0999 V2000
  -34.8556   58.0092   62.5488 C   0  0  0  0  0  0  0  0  0  0  0  0
  -35.8468   57.6213   63.5327 N   0  0  0  0  0  0  0  0  0  0  0  0
  -37.4337   59.2203   63.2639 O   0  0  0  0  0  0  0  0  0  0  0  0
  -37.0121   58.2209   63.8127 C   0  0  0  0  0  0  0  0  0  0  0  0
  -35.6379   56.8172   64.0611 H   0  0  0  0  0  0  0  0  0  0  0  0
  -37.8250   57.5637   64.8883 C   0  0  0  0  0  0  0  0  0  0  0  0
  -38.8551   58.5969   65.3451 C   0  0  0  0  0  0  0  0  0  0  0  0
  -40.2631   58.1172   65.0007 C   0  0  0  0  0  0  0  0  0  0  0  0
  -41.3107   59.1926   64.8447 C   0  0  0  0  0  0  0  0  0  0  0  0
  -41.7355   59.6284   66.2431 C   0  0  0  0  0  0  0  0  0  0  0  0
  -42.8930   58.7886   66.7999 C   0  0  0  0  0  0  0  0  0  0  0  0
  -44.0094   58.4964   65.7806 C   0  0  0  0  0  0  0  0  0  0  0  0
  -44.3773   56.9983   65.7061 C   0  0  0  0  0  0  0  0  0  0  0  0
  -45.8780   56.8225   65.4569 C   0  0  0  0  0  0  0  0  0  0  0  0
  -46.7189   58.0747   65.6735 C   0  0  0  0  0  0  0  0  0  0  0  0
  -48.1794   57.7490   65.9486 C   0  0  0  0  0  0  0  0  0  0  0  0
  -49.1355   58.9429   65.9983 C   0  0  0  0  0  0  0  0  0  0  0  0
  -49.5160   59.3074   64.5697 C   0  0  0  0  0  0  0  0  0  0  0  0
  -50.9377   59.7715   64.2896 C   0  0  0  0  0  0  0  0  0  0  0  0
  -51.4296   59.2474   62.9311 C   0  0  0  0  0  0  0  0  0  0  0  0
  -50.4375   58.3179   62.2080 C   0  0  0  0  0  0  0  0  0  0  0  0
  -51.1035   57.4060   61.1803 C   0  0  0  0  0  0  0  0  0  0  0  0
  -33.1536   56.6594   61.7259 O   0  0  0  0  0  0  0  0  0  0  0  0
  -34.5642   56.6987   61.8380 C   0  0  0  0  0  0  0  0  0  0  0  0
  -32.7588   56.6599   62.6119 H   0  0  0  0  0  0  0  0  0  0  0  0
  -35.2516   56.7000   60.4706 C   0  0  0  0  0  0  0  0  0  0  0  0
  -36.3596   57.4142   60.2090 C   0  0  0  0  0  0  0  0  0  0  0  0
  -36.9872   57.3616   58.8174 C   0  0  0  0  0  0  0  0  0  0  0  0
  -37.9080   58.5504   58.5055 C   0  0  0  0  0  0  0  0  0  0  0  0
  -38.0248   59.6119   59.6150 C   0  0  0  0  0  0  0  0  0  0  0  0
  -39.4896   59.7438   60.0970 C   0  0  0  0  0  0  0  0  0  0  0  0
  -40.4668   60.3820   59.0774 C   0  0  0  0  0  0  0  0  0  0  0  0
  -41.7512   59.5566   58.8289 C   0  0  0  0  0  0  0  0  0  0  0  0
  -41.9744   59.1934   57.3449 C   0  0  0  0  0  0  0  0  0  0  0  0
  -43.3983   58.7180   57.0327 C   0  0  0  0  0  0  0  0  0  0  0  0
  -44.2598   58.3422   58.2364 C   0  0  0  0  0  0  0  0  0  0  0  0
  -45.7102   57.9657   57.8750 C   0  0  0  0  0  0  0  0  0  0  0  0
  -46.4872   57.2241   58.9732 C   0  0  0  0  0  0  0  0  0  0  0  0
  -47.4435   56.1920   58.3688 C   0  0  0  0  0  0  0  0  0  0  0  0
  -48.4955   55.6188   59.3017 C   0  0  0  0  0  0  0  0  0  0  0  0
  -33.6423   58.7927   63.0993 C   0  0  0  0  0  0  0  0  0  0  0  0
  -33.6353   60.2242   62.8667 O   0  0  0  0  0  0  0  0  0  0  0  0
  -32.6365   62.9022   62.9544 O   0  0  0  0  0  0  0  0  0  0  0  0
  -36.3732   63.6845   64.6347 O   0  0  0  0  0  0  0  0  0  0  0  0
  -35.1006   60.9394   64.6630 O   0  0  0  0  0  0  0  0  0  0  0  0
  -33.8513   61.1801   63.9709 C   0  0  0  0  0  0  0  0  0  0  0  0
  -33.8567   62.6667   63.5866 C   0  0  0  0  0  0  0  0  0  0  0  0
  -33.9681   63.6200   64.7965 C   0  0  0  0  0  0  0  0  0  0  0  0
  -35.2780   63.3020   65.4631 C   0  0  0  0  0  0  0  0  0  0  0  0
  -35.3406   61.8215   65.7926 C   0  0  0  0  0  0  0  0  0  0  0  0
  -32.5487   62.3111   62.1903 H   0  0  0  0  0  0  0  0  0  0  0  0
  -36.3135   64.6321   64.4370 H   0  0  0  0  0  0  0  0  0  0  0  0
  -37.6789   61.4595   65.4533 O   0  0  0  0  0  0  0  0  0  0  0  0
  -36.7212   61.7148   66.4365 C   0  0  0  0  0  0  0  0  0  0  0  0
  -38.5548   61.3923   65.8647 H   0  0  0  0  0  0  0  0  0  0  0  0
  -34.0057   65.0323   64.4900 O   0  0  0  0  0  0  0  0  0  0  0  0
  -32.5604   66.9361   63.4880 O   0  0  0  0  0  0  0  0  0  0  0  0
  -31.4942   65.1677   64.7627 O   0  0  0  0  0  0  0  0  0  0  0  0
  -32.7616   66.8942   65.8971 O   0  0  0  0  0  0  0  0  0  0  0  0
  -32.6951   66.0421   64.6761 S   0  0  0  0  0  0  0  0  0  0  0  0
  -32.5156   66.3982   62.6821 H   0  0  0  0  0  0  0  0  0  0  0  0
  -33.5423   67.4680   65.8489 H   0  0  0  0  0  0  0  0  0  0  0  0
  2  1  1  0  0  0
  2  4  1  0  0  0
  2  5  1  0  0  0
 41 42  1  0  0  0
 41  1  1  0  0  0
 42 46  1  0  0  0
  1 24  1  0  0  0
 23 24  1  0  0  0
 23 25  1  0  0  0
 24 26  1  0  0  0
  3  4  2  0  0  0
 26 27  2  0  0  0
 27 28  1  0  0  0
 43 47  1  0  0  0
 43 51  1  0  0  0
 28 29  1  0  0  0
 56 48  1  0  0  0
 56 60  1  0  0  0
 29 30  1  0  0  0
 57 60  1  0  0  0
 57 61  1  0  0  0
 30 31  1  0  0  0
 44 49  1  0  0  0
 44 52  1  0  0  0
 31 32  1  0  0  0
 45 46  1  0  0  0
 45 50  1  0  0  0
 32 33  1  0  0  0
 53 54  1  0  0  0
 53 55  1  0  0  0
 33 34  1  0  0  0
 34 35  1  0  0  0
 35 36  1  0  0  0
 58 60  1  0  0  0
 36 37  1  0  0  0
 59 60  1  0  0  0
 59 62  1  0  0  0
 37 38  1  0  0  0
 38 39  1  0  0  0
 39 40  1  0  0  0
  4  6  1  0  0  0
  6  7  1  0  0  0
  7  8  1  0  0  0
  8  9  1  0  0  0
  9 10  1  0  0  0
 10 11  1  0  0  0
 11 12  1  0  0  0
 12 13  1  0  0  0
 13 14  1  0  0  0
 14 15  1  0  0  0
 15 16  1  0  0  0
 16 17  1  0  0  0
 17 18  1  0  0  0
 18 19  1  0  0  0
 19 20  1  0  0  0
 20 21  1  0  0  0
 21 22  1  0  0  0
 46 47  1  0  0  0
 47 48  1  0  0  0
 48 49  1  0  0  0
 49 50  1  0  0  0
 50 54  1  0  0  0
M  CHG 1  58  -1
M  END
> <minimizedAffinity>
-8.86359

> <CNNscore>
0.5989595652

> <CNNaffinity>
7.4318656921

> <CNN_VS>
4.4513869286

> <CNNaffinity_variance>
0.7778137922

$$$$
/media/chris/experiments/cd1a-new-docking/inputs/ligands/1onq_ligand.pdb


 62 62  0  0  0  0  0  0  0  0999 V2000
  -38.3288   59.0158   64.4535 C   0  0  0  0  0  0  0  0  0  0  0  0
  -38.7758   59.0879   63.0765 N   0  0  0  0  0  0  0  0  0  0  0  0
  -39.6852   61.1643   62.9807 O   0  0  0  0  0  0  0  0  0  0  0  0
  -39.3934   60.1051   62.4603 C   0  0  0  0  0  0  0  0  0  0  0  0
  -38.6042   58.2904   62.5253 H   0  0  0  0  0  0  0  0  0  0  0  0
  -39.7211   59.8709   61.0155 C   0  0  0  0  0  0  0  0  0  0  0  0
  -38.4052   59.9951   60.2472 C   0  0  0  0  0  0  0  0  0  0  0  0
  -38.0575   58.6619   59.5894 C   0  0  0  0  0  0  0  0  0  0  0  0
  -37.0083   58.7108   58.5053 C   0  0  0  0  0  0  0  0  0  0  0  0
  -37.2150   57.4945   57.6088 C   0  0  0  0  0  0  0  0  0  0  0  0
  -36.1496   56.4111   57.8241 C   0  0  0  0  0  0  0  0  0  0  0  0
  -36.5399   55.3369   58.8558 C   0  0  0  0  0  0  0  0  0  0  0  0
  -35.3322   54.8140   59.6641 C   0  0  0  0  0  0  0  0  0  0  0  0
  -34.1062   55.7038   59.4397 C   0  0  0  0  0  0  0  0  0  0  0  0
  -33.5321   56.3406   60.6994 C   0  0  0  0  0  0  0  0  0  0  0  0
  -34.4818   57.3560   61.3173 C   0  0  0  0  0  0  0  0  0  0  0  0
  -33.9044   58.2162   62.4437 C   0  0  0  0  0  0  0  0  0  0  0  0
  -32.3893   58.2414   62.2942 C   0  0  0  0  0  0  0  0  0  0  0  0
  -31.7388   59.4650   61.6658 C   0  0  0  0  0  0  0  0  0  0  0  0
  -30.4284   59.8216   62.3853 C   0  0  0  0  0  0  0  0  0  0  0  0
  -29.7354   61.0915   61.8579 C   0  0  0  0  0  0  0  0  0  0  0  0
  -30.7148   62.1943   61.4629 C   0  0  0  0  0  0  0  0  0  0  0  0
  -38.4983   60.6443   66.1012 O   0  0  0  0  0  0  0  0  0  0  0  0
  -39.2972   59.9451   65.1649 C   0  0  0  0  0  0  0  0  0  0  0  0
  -37.8214   61.1554   65.6306 H   0  0  0  0  0  0  0  0  0  0  0  0
  -40.3893   59.1155   65.8443 C   0  0  0  0  0  0  0  0  0  0  0  0
  -41.6713   59.1225   65.4409 C   0  0  0  0  0  0  0  0  0  0  0  0
  -42.7033   58.2666   66.1728 C   0  0  0  0  0  0  0  0  0  0  0  0
  -44.0030   59.0121   66.5092 C   0  0  0  0  0  0  0  0  0  0  0  0
  -45.1216   58.9104   65.4557 C   0  0  0  0  0  0  0  0  0  0  0  0
  -45.4509   57.4303   65.1454 C   0  0  0  0  0  0  0  0  0  0  0  0
  -46.9098   57.0006   65.4431 C   0  0  0  0  0  0  0  0  0  0  0  0
  -47.8007   58.1321   66.0075 C   0  0  0  0  0  0  0  0  0  0  0  0
  -49.3132   57.8538   65.8703 C   0  0  0  0  0  0  0  0  0  0  0  0
  -50.0224   58.7742   64.8697 C   0  0  0  0  0  0  0  0  0  0  0  0
  -49.1944   59.2246   63.6681 C   0  0  0  0  0  0  0  0  0  0  0  0
  -49.4192   58.3775   62.4002 C   0  0  0  0  0  0  0  0  0  0  0  0
  -50.8694   57.9319   62.1591 C   0  0  0  0  0  0  0  0  0  0  0  0
  -51.0202   57.2695   60.7867 C   0  0  0  0  0  0  0  0  0  0  0  0
  -49.8579   57.4380   59.8243 C   0  0  0  0  0  0  0  0  0  0  0  0
  -36.8209   59.2698   64.6781 C   0  0  0  0  0  0  0  0  0  0  0  0
  -36.2345   60.3777   63.9487 O   0  0  0  0  0  0  0  0  0  0  0  0
  -34.0460   61.7127   62.6816 O   0  0  0  0  0  0  0  0  0  0  0  0
  -35.3306   64.9203   65.0182 O   0  0  0  0  0  0  0  0  0  0  0  0
  -35.9580   62.0387   65.6953 O   0  0  0  0  0  0  0  0  0  0  0  0
  -35.3169   61.3281   64.6081 C   0  0  0  0  0  0  0  0  0  0  0  0
  -34.6938   62.4026   63.7055 C   0  0  0  0  0  0  0  0  0  0  0  0
  -33.6550   63.2909   64.4247 C   0  0  0  0  0  0  0  0  0  0  0  0
  -34.3919   63.9820   65.5385 C   0  0  0  0  0  0  0  0  0  0  0  0
  -35.0848   62.9523   66.4126 C   0  0  0  0  0  0  0  0  0  0  0  0
  -34.6842   61.1483   62.2178 H   0  0  0  0  0  0  0  0  0  0  0  0
  -34.8673   65.5675   64.4640 H   0  0  0  0  0  0  0  0  0  0  0  0
  -37.0407   64.1942   67.0006 O   0  0  0  0  0  0  0  0  0  0  0  0
  -35.7651   63.8453   67.4478 C   0  0  0  0  0  0  0  0  0  0  0  0
  -37.4705   64.7614   67.6598 H   0  0  0  0  0  0  0  0  0  0  0  0
  -33.0563   64.3384   63.6283 O   0  0  0  0  0  0  0  0  0  0  0  0
  -30.9574   64.3627   65.1486 O   0  0  0  0  0  0  0  0  0  0  0  0
  -32.0073   66.4594   64.5236 O   0  0  0  0  0  0  0  0  0  0  0  0
  -30.6738   65.2356   62.9117 O   0  0  0  0  0  0  0  0  0  0  0  0
  -31.6355   65.1012   64.0425 S   0  0  0  0  0  0  0  0  0  0  0  0
  -31.5693   64.2654   65.8950 H   0  0  0  0  0  0  0  0  0  0  0  0
  -30.4259   64.3540   62.5916 H   0  0  0  0  0  0  0  0  0  0  0  0
  2  1  1  0  0  0
  2  4  1  0  0  0
  2  5  1  0  0  0
 41 42  1  0  0  0
 41  1  1  0  0  0
 42 46  1  0  0  0
  1 24  1  0  0  0
 23 24  1  0  0  0
 23 25  1  0  0  0
 24 26  1  0  0  0
  3  4  2  0  0  0
 26 27  2  0  0  0
 27 28  1  0  0  0
 43 47  1  0  0  0
 43 51  1  0  0  0
 28 29  1  0  0  0
 56 48  1  0  0  0
 56 60  1  0  0  0
 29 30  1  0  0  0
 57 60  1  0  0  0
 57 61  1  0  0  0
 30 31  1  0  0  0
 44 49  1  0  0  0
 44 52  1  0  0  0
 31 32  1  0  0  0
 45 46  1  0  0  0
 45 50  1  0  0  0
 32 33  1  0  0  0
 53 54  1  0  0  0
 53 55  1  0  0  0
 33 34  1  0  0  0
 34 35  1  0  0  0
 35 36  1  0  0  0
 58 60  1  0  0  0
 36 37  1  0  0  0
 59 60  1  0  0  0
 59 62  1  0  0  0
 37 38  1  0  0  0
 38 39  1  0  0  0
 39 40  1  0  0  0
  4  6  1  0  0  0
  6  7  1  0  0  0
  7  8  1  0  0  0
  8  9  1  0  0  0
  9 10  1  0  0  0
 10 11  1  0  0  0
 11 12  1  0  0  0
 12 13  1  0  0  0
 13 14  1  0  0  0
 14 15  1  0  0  0
 15 16  1  0  0  0
 16 17  1  0  0  0
 17 18  1  0  0  0
 18 19  1  0  0  0
 19 20  1  0  0  0
 20 21  1  0  0  0
 21 22  1  0  0  0
 46 47  1  0  0  0
 47 48  1  0  0  0
 48 49  1  0  0  0
 49 50  1  0  0  0
 50 54  1  0  0  0
M  CHG 1  58  -1
M  END
> <minimizedAffinity>
-9.35203

> <CNNscore>
0.4650264084

> <CNNaffinity>
7.3025679588

> <CNN_VS>
3.3958868980

> <CNNaffinity_variance>
1.1872158051

$$$$
/media/chris/experiments/cd1a-new-docking/inputs/ligands/1onq_ligand.pdb


 62 62  0  0  0  0  0  0  0  0999 V2000
  -40.0793   59.2527   64.8216 C   0  0  0  0  0  0  0  0  0  0  0  0
  -39.5252   58.4787   63.7284 N   0  0  0  0  0  0  0  0  0  0  0  0
  -37.6865   57.5555   64.6846 O   0  0  0  0  0  0  0  0  0  0  0  0
  -38.4212   57.7191   63.7301 C   0  0  0  0  0  0  0  0  0  0  0  0
  -40.0216   58.5158   62.8790 H   0  0  0  0  0  0  0  0  0  0  0  0
  -38.1176   57.0328   62.4314 C   0  0  0  0  0  0  0  0  0  0  0  0
  -38.6518   57.9427   61.3252 C   0  0  0  0  0  0  0  0  0  0  0  0
  -37.5204   58.8004   60.7636 C   0  0  0  0  0  0  0  0  0  0  0  0
  -37.7872   59.4622   59.4334 C   0  0  0  0  0  0  0  0  0  0  0  0
  -37.6755   58.3900   58.3547 C   0  0  0  0  0  0  0  0  0  0  0  0
  -36.2388   58.2062   57.8477 C   0  0  0  0  0  0  0  0  0  0  0  0
  -35.7948   56.7371   57.7248 C   0  0  0  0  0  0  0  0  0  0  0  0
  -36.5732   55.7938   58.6680 C   0  0  0  0  0  0  0  0  0  0  0  0
  -35.6865   55.3416   59.8318 C   0  0  0  0  0  0  0  0  0  0  0  0
  -34.2018   55.6418   59.6660 C   0  0  0  0  0  0  0  0  0  0  0  0
  -33.6683   56.5431   60.7695 C   0  0  0  0  0  0  0  0  0  0  0  0
  -34.6791   56.9665   61.8378 C   0  0  0  0  0  0  0  0  0  0  0  0
  -34.0668   58.1000   62.6495 C   0  0  0  0  0  0  0  0  0  0  0  0
  -32.5511   58.2233   62.7020 C   0  0  0  0  0  0  0  0  0  0  0  0
  -32.0963   59.6159   62.2378 C   0  0  0  0  0  0  0  0  0  0  0  0
  -30.5700   59.8192   62.2290 C   0  0  0  0  0  0  0  0  0  0  0  0
  -30.1279   61.0405   61.4262 C   0  0  0  0  0  0  0  0  0  0  0  0
  -41.2576   61.1712   64.2500 O   0  0  0  0  0  0  0  0  0  0  0  0
  -41.3861   59.7615   64.2377 C   0  0  0  0  0  0  0  0  0  0  0  0
  -40.5108   61.4326   63.6890 H   0  0  0  0  0  0  0  0  0  0  0  0
  -42.5508   59.2810   65.1068 C   0  0  0  0  0  0  0  0  0  0  0  0
  -42.5389   58.1084   65.7633 C   0  0  0  0  0  0  0  0  0  0  0  0
  -43.7422   57.6992   66.6106 C   0  0  0  0  0  0  0  0  0  0  0  0
  -44.9428   58.6483   66.4845 C   0  0  0  0  0  0  0  0  0  0  0  0
  -46.2358   58.1832   67.1796 C   0  0  0  0  0  0  0  0  0  0  0  0
  -47.0293   57.2132   66.2714 C   0  0  0  0  0  0  0  0  0  0  0  0
  -48.0110   57.8883   65.2804 C   0  0  0  0  0  0  0  0  0  0  0  0
  -49.0903   58.7659   65.9570 C   0  0  0  0  0  0  0  0  0  0  0  0
  -50.4813   58.6529   65.2966 C   0  0  0  0  0  0  0  0  0  0  0  0
  -50.7250   59.6848   64.1888 C   0  0  0  0  0  0  0  0  0  0  0  0
  -51.2939   59.1424   62.8794 C   0  0  0  0  0  0  0  0  0  0  0  0
  -50.4646   57.9987   62.2628 C   0  0  0  0  0  0  0  0  0  0  0  0
  -51.1127   57.2940   61.0615 C   0  0  0  0  0  0  0  0  0  0  0  0
  -50.2853   57.5021   59.7899 C   0  0  0  0  0  0  0  0  0  0  0  0
  -48.7885   57.6739   59.9789 C   0  0  0  0  0  0  0  0  0  0  0  0
  -39.1312   60.3051   65.4398 C   0  0  0  0  0  0  0  0  0  0  0  0
  -38.5192   61.2456   64.5209 O   0  0  0  0  0  0  0  0  0  0  0  0
  -36.6840   61.6960   62.3747 O   0  0  0  0  0  0  0  0  0  0  0  0
  -35.4616   64.8757   64.7817 O   0  0  0  0  0  0  0  0  0  0  0  0
  -36.9027   62.4487   65.8718 O   0  0  0  0  0  0  0  0  0  0  0  0
  -37.1105   61.6598   64.6750 C   0  0  0  0  0  0  0  0  0  0  0  0
  -36.5156   62.4757   63.5183 C   0  0  0  0  0  0  0  0  0  0  0  0
  -35.0099   62.7777   63.6821 C   0  0  0  0  0  0  0  0  0  0  0  0
  -34.8779   63.5853   64.9437 C   0  0  0  0  0  0  0  0  0  0  0  0
  -35.5224   62.8416   66.0995 C   0  0  0  0  0  0  0  0  0  0  0  0
  -37.6257   61.4959   62.2555 H   0  0  0  0  0  0  0  0  0  0  0  0
  -35.0356   65.3323   64.0395 H   0  0  0  0  0  0  0  0  0  0  0  0
  -36.4477   63.9083   68.0281 O   0  0  0  0  0  0  0  0  0  0  0  0
  -35.2914   63.8175   67.2512 C   0  0  0  0  0  0  0  0  0  0  0  0
  -36.2984   64.5286   68.7588 H   0  0  0  0  0  0  0  0  0  0  0  0
  -34.4036   63.5676   62.6340 O   0  0  0  0  0  0  0  0  0  0  0  0
  -32.2584   63.7645   61.1931 O   0  0  0  0  0  0  0  0  0  0  0  0
  -32.0998   62.9396   63.4698 O   0  0  0  0  0  0  0  0  0  0  0  0
  -32.4499   65.3008   63.0502 O   0  0  0  0  0  0  0  0  0  0  0  0
  -32.7781   63.9239   62.5835 S   0  0  0  0  0  0  0  0  0  0  0  0
  -32.4631   62.8724   60.8717 H   0  0  0  0  0  0  0  0  0  0  0  0
  -32.8883   65.9495   62.4775 H   0  0  0  0  0  0  0  0  0  0  0  0
  2  1  1  0  0  0
  2  4  1  0  0  0
  2  5  1  0  0  0
 41 42  1  0  0  0
 41  1  1  0  0  0
 42 46  1  0  0  0
  1 24  1  0  0  0
 23 24  1  0  0  0
 23 25  1  0  0  0
 24 26  1  0  0  0
  3  4  2  0  0  0
 26 27  2  0  0  0
 27 28  1  0  0  0
 43 47  1  0  0  0
 43 51  1  0  0  0
 28 29  1  0  0  0
 56 48  1  0  0  0
 56 60  1  0  0  0
 29 30  1  0  0  0
 57 60  1  0  0  0
 57 61  1  0  0  0
 30 31  1  0  0  0
 44 49  1  0  0  0
 44 52  1  0  0  0
 31 32  1  0  0  0
 45 46  1  0  0  0
 45 50  1  0  0  0
 32 33  1  0  0  0
 53 54  1  0  0  0
 53 55  1  0  0  0
 33 34  1  0  0  0
 34 35  1  0  0  0
 35 36  1  0  0  0
 58 60  1  0  0  0
 36 37  1  0  0  0
 59 60  1  0  0  0
 59 62  1  0  0  0
 37 38  1  0  0  0
 38 39  1  0  0  0
 39 40  1  0  0  0
  4  6  1  0  0  0
  6  7  1  0  0  0
  7  8  1  0  0  0
  8  9  1  0  0  0
  9 10  1  0  0  0
 10 11  1  0  0  0
 11 12  1  0  0  0
 12 13  1  0  0  0
 13 14  1  0  0  0
 14 15  1  0  0  0
 15 16  1  0  0  0
 16 17  1  0  0  0
 17 18  1  0  0  0
 18 19  1  0  0  0
 19 20  1  0  0  0
 20 21  1  0  0  0
 21 22  1  0  0  0
 46 47  1  0  0  0
 47 48  1  0  0  0
 48 49  1  0  0  0
 49 50  1  0  0  0
 50 54  1  0  0  0
M  CHG 1  58  -1
M  END
> <minimizedAffinity>
-10.01024

> <CNNscore>
0.3799750507

> <CNNaffinity>
7.2340230942

> <CNN_VS>
2.7487483025

> <CNNaffinity_variance>
1.0129363537

$$$$
/media/chris/experiments/cd1a-new-docking/inputs/ligands/1onq_ligand.pdb


 62 62  0  0  0  0  0  0  0  0999 V2000
  -37.0809   59.0882   64.5549 C   0  0  0  0  0  0  0  0  0  0  0  0
  -37.5113   58.3801   63.3656 N   0  0  0  0  0  0  0  0  0  0  0  0
  -35.7255   57.0492   62.9332 O   0  0  0  0  0  0  0  0  0  0  0  0
  -36.8405   57.4539   62.6671 C   0  0  0  0  0  0  0  0  0  0  0  0
  -38.4080   58.6080   63.0290 H   0  0  0  0  0  0  0  0  0  0  0  0
  -37.5692   56.8995   61.4791 C   0  0  0  0  0  0  0  0  0  0  0  0
  -36.9027   57.5019   60.2422 C   0  0  0  0  0  0  0  0  0  0  0  0
  -37.9178   58.3231   59.4506 C   0  0  0  0  0  0  0  0  0  0  0  0
  -38.0410   59.7770   59.8373 C   0  0  0  0  0  0  0  0  0  0  0  0
  -39.2607   59.9112   60.7429 C   0  0  0  0  0  0  0  0  0  0  0  0
  -40.4860   60.4714   60.0081 C   0  0  0  0  0  0  0  0  0  0  0  0
  -40.7839   59.7859   58.6619 C   0  0  0  0  0  0  0  0  0  0  0  0
  -42.2722   59.4078   58.4972 C   0  0  0  0  0  0  0  0  0  0  0  0
  -42.5697   59.0033   57.0505 C   0  0  0  0  0  0  0  0  0  0  0  0
  -43.8859   58.2632   56.8453 C   0  0  0  0  0  0  0  0  0  0  0  0
  -44.6571   58.0857   58.1447 C   0  0  0  0  0  0  0  0  0  0  0  0
  -46.1829   58.1016   58.0272 C   0  0  0  0  0  0  0  0  0  0  0  0
  -46.5943   57.0284   57.0284 C   0  0  0  0  0  0  0  0  0  0  0  0
  -47.9070   56.2914   57.2493 C   0  0  0  0  0  0  0  0  0  0  0  0
  -48.2841   56.2744   58.7390 C   0  0  0  0  0  0  0  0  0  0  0  0
  -49.4626   57.1935   59.1100 C   0  0  0  0  0  0  0  0  0  0  0  0
  -49.2649   57.9235   60.4364 C   0  0  0  0  0  0  0  0  0  0  0  0
  -37.5587   61.0721   65.6647 O   0  0  0  0  0  0  0  0  0  0  0  0
  -38.0339   60.2703   64.5993 C   0  0  0  0  0  0  0  0  0  0  0  0
  -36.6571   61.3704   65.4677 H   0  0  0  0  0  0  0  0  0  0  0  0
  -39.4571   59.7651   64.8480 C   0  0  0  0  0  0  0  0  0  0  0  0
  -40.5347   60.2799   64.2316 C   0  0  0  0  0  0  0  0  0  0  0  0
  -41.9234   59.7208   64.5348 C   0  0  0  0  0  0  0  0  0  0  0  0
  -41.9164   58.5329   65.5079 C   0  0  0  0  0  0  0  0  0  0  0  0
  -42.5630   58.7926   66.8812 C   0  0  0  0  0  0  0  0  0  0  0  0
  -44.0961   58.5917   66.8133 C   0  0  0  0  0  0  0  0  0  0  0  0
  -44.5713   57.4255   65.9101 C   0  0  0  0  0  0  0  0  0  0  0  0
  -45.5958   57.8396   64.8277 C   0  0  0  0  0  0  0  0  0  0  0  0
  -46.4025   59.1046   65.1926 C   0  0  0  0  0  0  0  0  0  0  0  0
  -47.8613   59.0641   64.7219 C   0  0  0  0  0  0  0  0  0  0  0  0
  -48.9225   59.1871   65.8133 C   0  0  0  0  0  0  0  0  0  0  0  0
  -50.3181   58.6895   65.3882 C   0  0  0  0  0  0  0  0  0  0  0  0
  -50.4567   58.3181   63.9040 C   0  0  0  0  0  0  0  0  0  0  0  0
  -51.2062   59.4079   63.1322 C   0  0  0  0  0  0  0  0  0  0  0  0
  -51.9336   60.4472   63.9665 C   0  0  0  0  0  0  0  0  0  0  0  0
  -35.5697   59.4032   64.6319 C   0  0  0  0  0  0  0  0  0  0  0  0
  -35.0937   60.5005   63.8118 O   0  0  0  0  0  0  0  0  0  0  0  0
  -33.1099   62.0515   62.4566 O   0  0  0  0  0  0  0  0  0  0  0  0
  -34.8998   65.1949   64.5335 O   0  0  0  0  0  0  0  0  0  0  0  0
  -35.0984   62.3108   65.4269 O   0  0  0  0  0  0  0  0  0  0  0  0
  -34.3402   61.6254   64.4007 C   0  0  0  0  0  0  0  0  0  0  0  0
  -33.8707   62.7107   63.4213 C   0  0  0  0  0  0  0  0  0  0  0  0
  -32.9890   63.7972   64.0752 C   0  0  0  0  0  0  0  0  0  0  0  0
  -33.8396   64.4509   65.1289 C   0  0  0  0  0  0  0  0  0  0  0  0
  -34.3843   63.3971   66.0761 C   0  0  0  0  0  0  0  0  0  0  0  0
  -33.6484   61.3639   62.0344 H   0  0  0  0  0  0  0  0  0  0  0  0
  -34.5299   65.8611   63.9335 H   0  0  0  0  0  0  0  0  0  0  0  0
  -36.1002   63.4414   67.7396 O   0  0  0  0  0  0  0  0  0  0  0  0
  -35.2079   64.2525   67.0364 C   0  0  0  0  0  0  0  0  0  0  0  0
  -36.6221   63.9870   68.3487 H   0  0  0  0  0  0  0  0  0  0  0  0
  -32.5414   64.8602   63.2036 O   0  0  0  0  0  0  0  0  0  0  0  0
  -31.0207   63.9436   61.3157 O   0  0  0  0  0  0  0  0  0  0  0  0
  -30.0719   64.3990   63.5024 O   0  0  0  0  0  0  0  0  0  0  0  0
  -30.6188   66.2256   62.0063 O   0  0  0  0  0  0  0  0  0  0  0  0
  -31.0419   64.8774   62.4803 S   0  0  0  0  0  0  0  0  0  0  0  0
  -31.2938   63.0591   61.6055 H   0  0  0  0  0  0  0  0  0  0  0  0
  -31.2462   66.5454   61.3391 H   0  0  0  0  0  0  0  0  0  0  0  0
  2  1  1  0  0  0
  2  4  1  0  0  0
  2  5  1  0  0  0
 41 42  1  0  0  0
 41  1  1  0  0  0
 42 46  1  0  0  0
  1 24  1  0  0  0
 23 24  1  0  0  0
 23 25  1  0  0  0
 24 26  1  0  0  0
  3  4  2  0  0  0
 26 27  2  0  0  0
 27 28  1  0  0  0
 43 47  1  0  0  0
 43 51  1  0  0  0
 28 29  1  0  0  0
 56 48  1  0  0  0
 56 60  1  0  0  0
 29 30  1  0  0  0
 57 60  1  0  0  0
 57 61  1  0  0  0
 30 31  1  0  0  0
 44 49  1  0  0  0
 44 52  1  0  0  0
 31 32  1  0  0  0
 45 46  1  0  0  0
 45 50  1  0  0  0
 32 33  1  0  0  0
 53 54  1  0  0  0
 53 55  1  0  0  0
 33 34  1  0  0  0
 34 35  1  0  0  0
 35 36  1  0  0  0
 58 60  1  0  0  0
 36 37  1  0  0  0
 59 60  1  0  0  0
 59 62  1  0  0  0
 37 38  1  0  0  0
 38 39  1  0  0  0
 39 40  1  0  0  0
  4  6  1  0  0  0
  6  7  1  0  0  0
  7  8  1  0  0  0
  8  9  1  0  0  0
  9 10  1  0  0  0
 10 11  1  0  0  0
 11 12  1  0  0  0
 12 13  1  0  0  0
 13 14  1  0  0  0
 14 15  1  0  0  0
 15 16  1  0  0  0
 16 17  1  0  0  0
 17 18  1  0  0  0
 18 19  1  0  0  0
 19 20  1  0  0  0
 20 21  1  0  0  0
 21 22  1  0  0  0
 46 47  1  0  0  0
 47 48  1  0  0  0
 48 49  1  0  0  0
 49 50  1  0  0  0
 50 54  1  0  0  0
M  CHG 1  58  -1
M  END
> <minimizedAffinity>
-9.09097

> <CNNscore>
0.3625586331

> <CNNaffinity>
7.0593438148

> <CNN_VS>
2.5594260693

> <CNNaffinity_variance>
0.8109076619

$$$$
/media/chris/experiments/cd1a-new-docking/inputs/ligands/1onq_ligand.pdb


 62 62  0  0  0  0  0  0  0  0999 V2000
  -40.1765   59.3599   64.4814 C   0  0  0  0  0  0  0  0  0  0  0  0
  -39.8820   59.2497   63.0664 N   0  0  0  0  0  0  0  0  0  0  0  0
  -40.6189   61.2428   62.2715 O   0  0  0  0  0  0  0  0  0  0  0  0
  -40.1105   60.1517   62.1021 C   0  0  0  0  0  0  0  0  0  0  0  0
  -39.4619   58.4073   62.7779 H   0  0  0  0  0  0  0  0  0  0  0  0
  -39.6795   59.7375   60.7264 C   0  0  0  0  0  0  0  0  0  0  0  0
  -38.2138   60.1497   60.5890 C   0  0  0  0  0  0  0  0  0  0  0  0
  -37.3203   58.9116   60.6029 C   0  0  0  0  0  0  0  0  0  0  0  0
  -37.7593   57.7669   59.7223 C   0  0  0  0  0  0  0  0  0  0  0  0
  -37.6040   58.2148   58.2728 C   0  0  0  0  0  0  0  0  0  0  0  0
  -36.1573   58.1101   57.7715 C   0  0  0  0  0  0  0  0  0  0  0  0
  -35.5565   56.6955   57.8656 C   0  0  0  0  0  0  0  0  0  0  0  0
  -34.0678   56.7017   58.2767 C   0  0  0  0  0  0  0  0  0  0  0  0
  -33.8499   55.8480   59.5292 C   0  0  0  0  0  0  0  0  0  0  0  0
  -33.9270   56.6068   60.8484 C   0  0  0  0  0  0  0  0  0  0  0  0
  -32.8050   56.2230   61.8017 C   0  0  0  0  0  0  0  0  0  0  0  0
  -32.0725   57.3840   62.4782 C   0  0  0  0  0  0  0  0  0  0  0  0
  -32.9428   58.6280   62.3617 C   0  0  0  0  0  0  0  0  0  0  0  0
  -32.2678   59.9703   62.1212 C   0  0  0  0  0  0  0  0  0  0  0  0
  -30.7954   59.7818   61.7233 C   0  0  0  0  0  0  0  0  0  0  0  0
  -29.7914   60.5352   62.6153 C   0  0  0  0  0  0  0  0  0  0  0  0
  -30.0123   62.0459   62.6306 C   0  0  0  0  0  0  0  0  0  0  0  0
  -41.4099   61.2741   64.9402 O   0  0  0  0  0  0  0  0  0  0  0  0
  -41.5784   59.9450   64.4832 C   0  0  0  0  0  0  0  0  0  0  0  0
  -40.8407   61.7587   64.3222 H   0  0  0  0  0  0  0  0  0  0  0  0
  -42.4697   59.1227   65.4169 C   0  0  0  0  0  0  0  0  0  0  0  0
  -43.7926   58.9795   65.2277 C   0  0  0  0  0  0  0  0  0  0  0  0
  -44.6143   58.1423   66.2060 C   0  0  0  0  0  0  0  0  0  0  0  0
  -46.1166   58.1124   65.8890 C   0  0  0  0  0  0  0  0  0  0  0  0
  -46.6827   59.3806   65.2236 C   0  0  0  0  0  0  0  0  0  0  0  0
  -48.2237   59.2980   65.1059 C   0  0  0  0  0  0  0  0  0  0  0  0
  -48.7601   58.8965   63.7086 C   0  0  0  0  0  0  0  0  0  0  0  0
  -50.2591   58.5155   63.6910 C   0  0  0  0  0  0  0  0  0  0  0  0
  -50.7612   58.0476   62.3079 C   0  0  0  0  0  0  0  0  0  0  0  0
  -49.6586   57.4670   61.4143 C   0  0  0  0  0  0  0  0  0  0  0  0
  -49.5164   58.0951   60.0295 C   0  0  0  0  0  0  0  0  0  0  0  0
  -49.2810   57.0732   58.8999 C   0  0  0  0  0  0  0  0  0  0  0  0
  -48.3953   55.8753   59.2748 C   0  0  0  0  0  0  0  0  0  0  0  0
  -47.6161   55.3656   58.0591 C   0  0  0  0  0  0  0  0  0  0  0  0
  -47.4753   56.3300   56.8947 C   0  0  0  0  0  0  0  0  0  0  0  0
  -39.1106   60.0918   65.3282 C   0  0  0  0  0  0  0  0  0  0  0  0
  -38.2191   60.9867   64.6156 O   0  0  0  0  0  0  0  0  0  0  0  0
  -35.7524   60.7663   63.1860 O   0  0  0  0  0  0  0  0  0  0  0  0
  -34.9020   64.3503   65.1432 O   0  0  0  0  0  0  0  0  0  0  0  0
  -36.9561   62.3723   66.1552 O   0  0  0  0  0  0  0  0  0  0  0  0
  -36.8873   61.3286   65.1534 C   0  0  0  0  0  0  0  0  0  0  0  0
  -35.8425   61.7907   64.1275 C   0  0  0  0  0  0  0  0  0  0  0  0
  -34.4395   62.0199   64.7309 C   0  0  0  0  0  0  0  0  0  0  0  0
  -34.5970   63.1029   65.7622 C   0  0  0  0  0  0  0  0  0  0  0  0
  -35.6773   62.7136   66.7550 C   0  0  0  0  0  0  0  0  0  0  0  0
  -36.6262   60.6081   62.7956 H   0  0  0  0  0  0  0  0  0  0  0  0
  -34.2001   64.5791   64.5141 H   0  0  0  0  0  0  0  0  0  0  0  0
  -34.3834   64.4183   67.8197 O   0  0  0  0  0  0  0  0  0  0  0  0
  -35.6825   63.9254   67.6844 C   0  0  0  0  0  0  0  0  0  0  0  0
  -34.3895   65.1878   68.4104 H   0  0  0  0  0  0  0  0  0  0  0  0
  -33.4224   62.4831   63.8139 O   0  0  0  0  0  0  0  0  0  0  0  0
  -33.0349   63.2358   61.3643 O   0  0  0  0  0  0  0  0  0  0  0  0
  -33.1057   64.8983   63.1307 O   0  0  0  0  0  0  0  0  0  0  0  0
  -35.1513   63.8545   62.3563 O   0  0  0  0  0  0  0  0  0  0  0  0
  -33.7055   63.6283   62.6391 S   0  0  0  0  0  0  0  0  0  0  0  0
  -32.0911   63.0841   61.5289 H   0  0  0  0  0  0  0  0  0  0  0  0
  -35.5506   63.0308   62.0351 H   0  0  0  0  0  0  0  0  0  0  0  0
  2  1  1  0  0  0
  2  4  1  0  0  0
  2  5  1  0  0  0
 41 42  1  0  0  0
 41  1  1  0  0  0
 42 46  1  0  0  0
  1 24  1  0  0  0
 23 24  1  0  0  0
 23 25  1  0  0  0
 24 26  1  0  0  0
  3  4  2  0  0  0
 26 27  2  0  0  0
 27 28  1  0  0  0
 43 47  1  0  0  0
 43 51  1  0  0  0
 28 29  1  0  0  0
 56 48  1  0  0  0
 56 60  1  0  0  0
 29 30  1  0  0  0
 57 60  1  0  0  0
 57 61  1  0  0  0
 30 31  1  0  0  0
 44 49  1  0  0  0
 44 52  1  0  0  0
 31 32  1  0  0  0
 45 46  1  0  0  0
 45 50  1  0  0  0
 32 33  1  0  0  0
 53 54  1  0  0  0
 53 55  1  0  0  0
 33 34  1  0  0  0
 34 35  1  0  0  0
 35 36  1  0  0  0
 58 60  1  0  0  0
 36 37  1  0  0  0
 59 60  1  0  0  0
 59 62  1  0  0  0
 37 38  1  0  0  0
 38 39  1  0  0  0
 39 40  1  0  0  0
  4  6  1  0  0  0
  6  7  1  0  0  0
  7  8  1  0  0  0
  8  9  1  0  0  0
  9 10  1  0  0  0
 10 11  1  0  0  0
 11 12  1  0  0  0
 12 13  1  0  0  0
 13 14  1  0  0  0
 14 15  1  0  0  0
 15 16  1  0  0  0
 16 17  1  0  0  0
 17 18  1  0  0  0
 18 19  1  0  0  0
 19 20  1  0  0  0
 20 21  1  0  0  0
 21 22  1  0  0  0
 46 47  1  0  0  0
 47 48  1  0  0  0
 48 49  1  0  0  0
 49 50  1  0  0  0
 50 54  1  0  0  0
M  CHG 1  58  -1
M  END
> <minimizedAffinity>
-9.26263

> <CNNscore>
0.3511731923

> <CNNaffinity>
7.2139320374

> <CNN_VS>
2.5333395004

> <CNNaffinity_variance>
0.6952029467

$$$$
/media/chris/experiments/cd1a-new-docking/inputs/ligands/1onq_ligand.pdb


 62 62  0  0  0  0  0  0  0  0999 V2000
  -40.2440   58.8111   64.6299 C   0  0  0  0  0  0  0  0  0  0  0  0
  -41.2603   58.2203   65.4780 N   0  0  0  0  0  0  0  0  0  0  0  0
  -43.0912   59.4536   64.9547 O   0  0  0  0  0  0  0  0  0  0  0  0
  -42.5520   58.5619   65.5806 C   0  0  0  0  0  0  0  0  0  0  0  0
  -40.9647   57.4752   66.0497 H   0  0  0  0  0  0  0  0  0  0  0  0
  -43.3525   57.7446   66.5506 C   0  0  0  0  0  0  0  0  0  0  0  0
  -44.2452   56.8293   65.7126 C   0  0  0  0  0  0  0  0  0  0  0  0
  -45.7060   57.2488   65.8590 C   0  0  0  0  0  0  0  0  0  0  0  0
  -46.2769   58.0698   64.7283 C   0  0  0  0  0  0  0  0  0  0  0  0
  -46.6621   59.4316   65.2966 C   0  0  0  0  0  0  0  0  0  0  0  0
  -48.1428   59.7690   65.0758 C   0  0  0  0  0  0  0  0  0  0  0  0
  -49.1166   58.9173   65.9107 C   0  0  0  0  0  0  0  0  0  0  0  0
  -50.3008   58.3734   65.0817 C   0  0  0  0  0  0  0  0  0  0  0  0
  -50.9667   59.5006   64.2873 C   0  0  0  0  0  0  0  0  0  0  0  0
  -51.2488   59.1795   62.8247 C   0  0  0  0  0  0  0  0  0  0  0  0
  -49.9950   59.2507   61.9657 C   0  0  0  0  0  0  0  0  0  0  0  0
  -49.4837   57.9185   61.4127 C   0  0  0  0  0  0  0  0  0  0  0  0
  -48.9218   58.1661   60.0193 C   0  0  0  0  0  0  0  0  0  0  0  0
  -48.2772   57.0054   59.2761 C   0  0  0  0  0  0  0  0  0  0  0  0
  -47.2857   57.5132   58.2173 C   0  0  0  0  0  0  0  0  0  0  0  0
  -47.2407   56.6714   56.9287 C   0  0  0  0  0  0  0  0  0  0  0  0
  -47.5301   55.1908   57.1640 C   0  0  0  0  0  0  0  0  0  0  0  0
  -38.1954   57.8653   65.1817 O   0  0  0  0  0  0  0  0  0  0  0  0
  -39.3203   57.6373   64.3532 C   0  0  0  0  0  0  0  0  0  0  0  0
  -38.4733   57.8667   66.1110 H   0  0  0  0  0  0  0  0  0  0  0  0
  -38.9496   57.6230   62.8684 C   0  0  0  0  0  0  0  0  0  0  0  0
  -37.8244   57.0564   62.4004 C   0  0  0  0  0  0  0  0  0  0  0  0
  -37.5249   57.0846   60.9028 C   0  0  0  0  0  0  0  0  0  0  0  0
  -38.0204   58.3534   60.1936 C   0  0  0  0  0  0  0  0  0  0  0  0
  -37.3117   58.6972   58.8704 C   0  0  0  0  0  0  0  0  0  0  0  0
  -37.4581   57.5407   57.8523 C   0  0  0  0  0  0  0  0  0  0  0  0
  -36.2441   56.5819   57.7609 C   0  0  0  0  0  0  0  0  0  0  0  0
  -34.8718   57.2827   57.8965 C   0  0  0  0  0  0  0  0  0  0  0  0
  -33.7408   56.3409   58.3631 C   0  0  0  0  0  0  0  0  0  0  0  0
  -33.8680   55.9002   59.8263 C   0  0  0  0  0  0  0  0  0  0  0  0
  -33.9980   57.0205   60.8560 C   0  0  0  0  0  0  0  0  0  0  0  0
  -32.9056   57.0011   61.9433 C   0  0  0  0  0  0  0  0  0  0  0  0
  -32.7931   58.2837   62.7814 C   0  0  0  0  0  0  0  0  0  0  0  0
  -34.1777   58.8512   63.1067 C   0  0  0  0  0  0  0  0  0  0  0  0
  -34.8122   58.3815   64.4038 C   0  0  0  0  0  0  0  0  0  0  0  0
  -39.5921   60.1029   65.1732 C   0  0  0  0  0  0  0  0  0  0  0  0
  -38.8541   60.9075   64.2186 O   0  0  0  0  0  0  0  0  0  0  0  0
  -36.8717   61.3519   62.2062 O   0  0  0  0  0  0  0  0  0  0  0  0
  -35.7797   64.4985   64.7172 O   0  0  0  0  0  0  0  0  0  0  0  0
  -37.3197   62.0809   65.6864 O   0  0  0  0  0  0  0  0  0  0  0  0
  -37.4545   61.3036   64.4717 C   0  0  0  0  0  0  0  0  0  0  0  0
  -36.7727   62.1209   63.3650 C   0  0  0  0  0  0  0  0  0  0  0  0
  -35.2783   62.4036   63.6334 C   0  0  0  0  0  0  0  0  0  0  0  0
  -35.2233   63.2000   64.9078 C   0  0  0  0  0  0  0  0  0  0  0  0
  -35.9537   62.4554   66.0108 C   0  0  0  0  0  0  0  0  0  0  0  0
  -37.8053   61.1642   62.0215 H   0  0  0  0  0  0  0  0  0  0  0  0
  -35.2990   64.9555   64.0095 H   0  0  0  0  0  0  0  0  0  0  0  0
  -34.4367   63.5517   67.4977 O   0  0  0  0  0  0  0  0  0  0  0  0
  -35.7906   63.4198   67.1837 C   0  0  0  0  0  0  0  0  0  0  0  0
  -34.3359   64.1645   68.2429 H   0  0  0  0  0  0  0  0  0  0  0  0
  -34.5930   63.1940   62.6357 O   0  0  0  0  0  0  0  0  0  0  0  0
  -32.4835   63.6255   61.1931 O   0  0  0  0  0  0  0  0  0  0  0  0
  -32.3581   62.0898   63.0679 O   0  0  0  0  0  0  0  0  0  0  0  0
  -32.4324   64.4813   63.4538 O   0  0  0  0  0  0  0  0  0  0  0  0
  -32.9385   63.3750   62.5928 S   0  0  0  0  0  0  0  0  0  0  0  0
  -32.8041   62.9141   60.6168 H   0  0  0  0  0  0  0  0  0  0  0  0
  -32.8061   65.3237   63.1508 H   0  0  0  0  0  0  0  0  0  0  0  0
  2  1  1  0  0  0
  2  4  1  0  0  0
  2  5  1  0  0  0
 41 42  1  0  0  0
 41  1  1  0  0  0
 42 46  1  0  0  0
  1 24  1  0  0  0
 23 24  1  0  0  0
 23 25  1  0  0  0
 24 26  1  0  0  0
  3  4  2  0  0  0
 26 27  2  0  0  0
 27 28  1  0  0  0
 43 47  1  0  0  0
 43 51  1  0  0  0
 28 29  1  0  0  0
 56 48  1  0  0  0
 56 60  1  0  0  0
 29 30  1  0  0  0
 57 60  1  0  0  0
 57 61  1  0  0  0
 30 31  1  0  0  0
 44 49  1  0  0  0
 44 52  1  0  0  0
 31 32  1  0  0  0
 45 46  1  0  0  0
 45 50  1  0  0  0
 32 33  1  0  0  0
 53 54  1  0  0  0
 53 55  1  0  0  0
 33 34  1  0  0  0
 34 35  1  0  0  0
 35 36  1  0  0  0
 58 60  1  0  0  0
 36 37  1  0  0  0
 59 60  1  0  0  0
 59 62  1  0  0  0
 37 38  1  0  0  0
 38 39  1  0  0  0
 39 40  1  0  0  0
  4  6  1  0  0  0
  6  7  1  0  0  0
  7  8  1  0  0  0
  8  9  1  0  0  0
  9 10  1  0  0  0
 10 11  1  0  0  0
 11 12  1  0  0  0
 12 13  1  0  0  0
 13 14  1  0  0  0
 14 15  1  0  0  0
 15 16  1  0  0  0
 16 17  1  0  0  0
 17 18  1  0  0  0
 18 19  1  0  0  0
 19 20  1  0  0  0
 20 21  1  0  0  0
 21 22  1  0  0  0
 46 47  1  0  0  0
 47 48  1  0  0  0
 48 49  1  0  0  0
 49 50  1  0  0  0
 50 54  1  0  0  0
M  CHG 1  58  -1
M  END
> <minimizedAffinity>
-10.39368

> <CNNscore>
0.3344505727

> <CNNaffinity>
7.0551061630

> <CNN_VS>
2.3595843315

> <CNNaffinity_variance>
1.5072633028

$$$$
/media/chris/experiments/cd1a-new-docking/inputs/ligands/1onq_ligand.pdb


 62 62  0  0  0  0  0  0  0  0999 V2000
  -34.8442   58.3305   62.4207 C   0  0  0  0  0  0  0  0  0  0  0  0
  -35.8727   57.7830   63.2830 N   0  0  0  0  0  0  0  0  0  0  0  0
  -37.2994   59.5347   63.4916 O   0  0  0  0  0  0  0  0  0  0  0  0
  -36.9772   58.3890   63.7396 C   0  0  0  0  0  0  0  0  0  0  0  0
  -35.7437   56.8497   63.5688 H   0  0  0  0  0  0  0  0  0  0  0  0
  -37.8542   57.5422   64.6133 C   0  0  0  0  0  0  0  0  0  0  0  0
  -38.7141   58.5074   65.4294 C   0  0  0  0  0  0  0  0  0  0  0  0
  -40.1825   58.3549   65.0397 C   0  0  0  0  0  0  0  0  0  0  0  0
  -40.7751   59.4837   64.2317 C   0  0  0  0  0  0  0  0  0  0  0  0
  -42.2327   59.6367   64.6536 C   0  0  0  0  0  0  0  0  0  0  0  0
  -42.5103   59.0583   66.0477 C   0  0  0  0  0  0  0  0  0  0  0  0
  -43.8909   58.3923   66.1923 C   0  0  0  0  0  0  0  0  0  0  0  0
  -45.0358   59.2518   65.6128 C   0  0  0  0  0  0  0  0  0  0  0  0
  -46.1841   58.3638   65.1252 C   0  0  0  0  0  0  0  0  0  0  0  0
  -47.4470   58.4172   65.9763 C   0  0  0  0  0  0  0  0  0  0  0  0
  -48.6047   59.0859   65.2501 C   0  0  0  0  0  0  0  0  0  0  0  0
  -48.2233   60.1113   64.1800 C   0  0  0  0  0  0  0  0  0  0  0  0
  -49.4292   60.3259   63.2754 C   0  0  0  0  0  0  0  0  0  0  0  0
  -50.8028   59.9092   63.7803 C   0  0  0  0  0  0  0  0  0  0  0  0
  -51.4237   58.8409   62.8664 C   0  0  0  0  0  0  0  0  0  0  0  0
  -50.4007   57.9379   62.1529 C   0  0  0  0  0  0  0  0  0  0  0  0
  -50.9257   57.3446   60.8476 C   0  0  0  0  0  0  0  0  0  0  0  0
  -33.0225   57.1783   61.5550 O   0  0  0  0  0  0  0  0  0  0  0  0
  -34.4368   57.1280   61.5867 C   0  0  0  0  0  0  0  0  0  0  0  0
  -32.6758   57.0984   62.4573 H   0  0  0  0  0  0  0  0  0  0  0  0
  -35.0497   57.2490   60.1895 C   0  0  0  0  0  0  0  0  0  0  0  0
  -36.1640   56.5948   59.8199 C   0  0  0  0  0  0  0  0  0  0  0  0
  -36.7132   56.7676   58.4050 C   0  0  0  0  0  0  0  0  0  0  0  0
  -37.6769   57.9535   58.2529 C   0  0  0  0  0  0  0  0  0  0  0  0
  -37.5686   59.0434   59.3353 C   0  0  0  0  0  0  0  0  0  0  0  0
  -38.6254   58.8231   60.4444 C   0  0  0  0  0  0  0  0  0  0  0  0
  -39.7917   59.8434   60.4592 C   0  0  0  0  0  0  0  0  0  0  0  0
  -40.3487   60.1891   59.0582 C   0  0  0  0  0  0  0  0  0  0  0  0
  -41.7247   59.5526   58.7663 C   0  0  0  0  0  0  0  0  0  0  0  0
  -41.9863   59.3025   57.2763 C   0  0  0  0  0  0  0  0  0  0  0  0
  -43.2969   58.5972   56.9337 C   0  0  0  0  0  0  0  0  0  0  0  0
  -44.1908   58.3094   58.1560 C   0  0  0  0  0  0  0  0  0  0  0  0
  -45.6964   58.2289   57.8616 C   0  0  0  0  0  0  0  0  0  0  0  0
  -46.4291   57.4447   58.9540 C   0  0  0  0  0  0  0  0  0  0  0  0
  -47.8301   56.9661   58.6171 C   0  0  0  0  0  0  0  0  0  0  0  0
  -33.7131   59.1004   63.1396 C   0  0  0  0  0  0  0  0  0  0  0  0
  -33.0699   60.1599   62.3866 O   0  0  0  0  0  0  0  0  0  0  0  0
  -35.4752   61.5046   63.1503 O   0  0  0  0  0  0  0  0  0  0  0  0
  -32.9908   63.1986   66.0410 O   0  0  0  0  0  0  0  0  0  0  0  0
  -31.9422   62.0214   63.4584 O   0  0  0  0  0  0  0  0  0  0  0  0
  -33.1600   61.5690   62.8180 C   0  0  0  0  0  0  0  0  0  0  0  0
  -34.3020   61.9073   63.7870 C   0  0  0  0  0  0  0  0  0  0  0  0
  -34.4171   63.4135   64.1087 C   0  0  0  0  0  0  0  0  0  0  0  0
  -33.1184   63.8053   64.7574 C   0  0  0  0  0  0  0  0  0  0  0  0
  -31.9578   63.4182   63.8587 C   0  0  0  0  0  0  0  0  0  0  0  0
  -35.4209   60.5591   62.9402 H   0  0  0  0  0  0  0  0  0  0  0  0
  -33.7412   63.4590   66.5977 H   0  0  0  0  0  0  0  0  0  0  0  0
  -31.1105   65.0321   65.4050 O   0  0  0  0  0  0  0  0  0  0  0  0
  -30.7648   63.8835   64.6908 C   0  0  0  0  0  0  0  0  0  0  0  0
  -30.3512   65.3256   65.9325 H   0  0  0  0  0  0  0  0  0  0  0  0
  -35.4593   63.7857   65.0389 O   0  0  0  0  0  0  0  0  0  0  0  0
  -37.2889   62.0206   65.5429 O   0  0  0  0  0  0  0  0  0  0  0  0
  -36.5862   63.5493   67.2916 O   0  0  0  0  0  0  0  0  0  0  0  0
  -35.1581   61.7026   66.6403 O   0  0  0  0  0  0  0  0  0  0  0  0
  -36.1187   62.7276   66.1424 S   0  0  0  0  0  0  0  0  0  0  0  0
  -37.9264   62.6730   65.2126 H   0  0  0  0  0  0  0  0  0  0  0  0
  -34.8480   61.1620   65.8969 H   0  0  0  0  0  0  0  0  0  0  0  0
  2  1  1  0  0  0
  2  4  1  0  0  0
  2  5  1  0  0  0
 41 42  1  0  0  0
 41  1  1  0  0  0
 42 46  1  0  0  0
  1 24  1  0  0  0
 23 24  1  0  0  0
 23 25  1  0  0  0
 24 26  1  0  0  0
  3  4  2  0  0  0
 26 27  2  0  0  0
 27 28  1  0  0  0
 43 47  1  0  0  0
 43 51  1  0  0  0
 28 29  1  0  0  0
 56 48  1  0  0  0
 56 60  1  0  0  0
 29 30  1  0  0  0
 57 60  1  0  0  0
 57 61  1  0  0  0
 30 31  1  0  0  0
 44 49  1  0  0  0
 44 52  1  0  0  0
 31 32  1  0  0  0
 45 46  1  0  0  0
 45 50  1  0  0  0
 32 33  1  0  0  0
 53 54  1  0  0  0
 53 55  1  0  0  0
 33 34  1  0  0  0
 34 35  1  0  0  0
 35 36  1  0  0  0
 58 60  1  0  0  0
 36 37  1  0  0  0
 59 60  1  0  0  0
 59 62  1  0  0  0
 37 38  1  0  0  0
 38 39  1  0  0  0
 39 40  1  0  0  0
  4  6  1  0  0  0
  6  7  1  0  0  0
  7  8  1  0  0  0
  8  9  1  0  0  0
  9 10  1  0  0  0
 10 11  1  0  0  0
 11 12  1  0  0  0
 12 13  1  0  0  0
 13 14  1  0  0  0
 14 15  1  0  0  0
 15 16  1  0  0  0
 16 17  1  0  0  0
 17 18  1  0  0  0
 18 19  1  0  0  0
 19 20  1  0  0  0
 20 21  1  0  0  0
 21 22  1  0  0  0
 46 47  1  0  0  0
 47 48  1  0  0  0
 48 49  1  0  0  0
 49 50  1  0  0  0
 50 54  1  0  0  0
M  CHG 1  58  -1
M  END
> <minimizedAffinity>
-9.01067

> <CNNscore>
0.3087491989

> <CNNaffinity>
6.9340119362

> <CNN_VS>
2.1408705711

> <CNNaffinity_variance>
1.2164345980

$$$$
/media/chris/experiments/cd1a-new-docking/inputs/ligands/1onq_ligand.pdb


 62 62  0  0  0  0  0  0  0  0999 V2000
  -35.0231   57.5332   63.1096 C   0  0  0  0  0  0  0  0  0  0  0  0
  -35.9626   57.2470   62.0435 N   0  0  0  0  0  0  0  0  0  0  0  0
  -34.5841   56.9153   60.2723 O   0  0  0  0  0  0  0  0  0  0  0  0
  -35.6964   56.9707   60.7595 C   0  0  0  0  0  0  0  0  0  0  0  0
  -36.9147   57.2567   62.2938 H   0  0  0  0  0  0  0  0  0  0  0  0
  -36.8983   56.7094   59.9011 C   0  0  0  0  0  0  0  0  0  0  0  0
  -37.9802   57.6865   60.3615 C   0  0  0  0  0  0  0  0  0  0  0  0
  -38.0111   58.9030   59.4393 C   0  0  0  0  0  0  0  0  0  0  0  0
  -38.5047   60.1897   60.0550 C   0  0  0  0  0  0  0  0  0  0  0  0
  -40.0289   60.1668   60.0107 C   0  0  0  0  0  0  0  0  0  0  0  0
  -40.5763   59.7801   58.6302 C   0  0  0  0  0  0  0  0  0  0  0  0
  -42.0825   59.4609   58.6140 C   0  0  0  0  0  0  0  0  0  0  0  0
  -42.5904   59.0325   57.2199 C   0  0  0  0  0  0  0  0  0  0  0  0
  -43.9309   58.3010   57.3348 C   0  0  0  0  0  0  0  0  0  0  0  0
  -44.4697   58.1609   58.7533 C   0  0  0  0  0  0  0  0  0  0  0  0
  -45.8897   57.6155   58.7803 C   0  0  0  0  0  0  0  0  0  0  0  0
  -46.6568   57.6749   57.4573 C   0  0  0  0  0  0  0  0  0  0  0  0
  -47.8403   56.7213   57.5503 C   0  0  0  0  0  0  0  0  0  0  0  0
  -47.8365   55.6584   58.6391 C   0  0  0  0  0  0  0  0  0  0  0  0
  -48.9243   55.9412   59.6873 C   0  0  0  0  0  0  0  0  0  0  0  0
  -49.7523   57.2119   59.4216 C   0  0  0  0  0  0  0  0  0  0  0  0
  -49.3723   58.3809   60.3273 C   0  0  0  0  0  0  0  0  0  0  0  0
  -35.7660   56.3798   64.9840 O   0  0  0  0  0  0  0  0  0  0  0  0
  -35.9242   57.6247   64.3291 C   0  0  0  0  0  0  0  0  0  0  0  0
  -34.8406   56.2715   65.2534 H   0  0  0  0  0  0  0  0  0  0  0  0
  -37.3674   57.8590   63.8765 C   0  0  0  0  0  0  0  0  0  0  0  0
  -38.4249   57.6978   64.6901 C   0  0  0  0  0  0  0  0  0  0  0  0
  -39.8358   57.9507   64.1623 C   0  0  0  0  0  0  0  0  0  0  0  0
  -40.2170   59.4367   64.0944 C   0  0  0  0  0  0  0  0  0  0  0  0
  -41.4176   59.8571   64.9623 C   0  0  0  0  0  0  0  0  0  0  0  0
  -41.8574   58.6985   65.8896 C   0  0  0  0  0  0  0  0  0  0  0  0
  -43.3318   58.7536   66.3634 C   0  0  0  0  0  0  0  0  0  0  0  0
  -44.3518   59.0168   65.2307 C   0  0  0  0  0  0  0  0  0  0  0  0
  -45.3341   57.8480   65.0002 C   0  0  0  0  0  0  0  0  0  0  0  0
  -46.5954   58.2449   64.2239 C   0  0  0  0  0  0  0  0  0  0  0  0
  -47.7201   58.8715   65.0454 C   0  0  0  0  0  0  0  0  0  0  0  0
  -48.7300   57.8505   65.6050 C   0  0  0  0  0  0  0  0  0  0  0  0
  -50.2085   58.2339   65.4399 C   0  0  0  0  0  0  0  0  0  0  0  0
  -50.5846   58.3498   63.9601 C   0  0  0  0  0  0  0  0  0  0  0  0
  -51.0879   59.7050   63.4955 C   0  0  0  0  0  0  0  0  0  0  0  0
  -34.0675   58.7207   62.8538 C   0  0  0  0  0  0  0  0  0  0  0  0
  -34.6621   60.0434   62.8561 O   0  0  0  0  0  0  0  0  0  0  0  0
  -32.9887   62.3518   62.6370 O   0  0  0  0  0  0  0  0  0  0  0  0
  -35.9604   64.0844   64.9962 O   0  0  0  0  0  0  0  0  0  0  0  0
  -35.4880   61.0980   64.8788 O   0  0  0  0  0  0  0  0  0  0  0  0
  -34.3869   61.0045   63.9426 C   0  0  0  0  0  0  0  0  0  0  0  0
  -34.0732   62.4435   63.5086 C   0  0  0  0  0  0  0  0  0  0  0  0
  -33.6787   63.3722   64.6778 C   0  0  0  0  0  0  0  0  0  0  0  0
  -34.8627   63.4080   65.6041 C   0  0  0  0  0  0  0  0  0  0  0  0
  -35.2500   61.9940   65.9977 C   0  0  0  0  0  0  0  0  0  0  0  0
  -33.2185   61.7712   61.8948 H   0  0  0  0  0  0  0  0  0  0  0  0
  -35.6913   64.9841   64.7533 H   0  0  0  0  0  0  0  0  0  0  0  0
  -36.1857   63.3498   67.7297 O   0  0  0  0  0  0  0  0  0  0  0  0
  -36.4489   62.2527   66.9076 C   0  0  0  0  0  0  0  0  0  0  0  0
  -36.9485   63.5120   68.3066 H   0  0  0  0  0  0  0  0  0  0  0  0
  -33.3994   64.7472   64.3294 O   0  0  0  0  0  0  0  0  0  0  0  0
  -31.1472   64.9306   65.5987 O   0  0  0  0  0  0  0  0  0  0  0  0
  -33.0824   66.1480   66.4121 O   0  0  0  0  0  0  0  0  0  0  0  0
  -31.8952   66.9194   64.4450 O   0  0  0  0  0  0  0  0  0  0  0  0
  -32.3517   65.7126   65.1910 S   0  0  0  0  0  0  0  0  0  0  0  0
  -31.4251   64.1396   66.0866 H   0  0  0  0  0  0  0  0  0  0  0  0
  -31.4175   66.6445   63.6467 H   0  0  0  0  0  0  0  0  0  0  0  0
  2  1  1  0  0  0
  2  4  1  0  0  0
  2  5  1  0  0  0
 41 42  1  0  0  0
 41  1  1  0  0  0
 42 46  1  0  0  0
  1 24  1  0  0  0
 23 24  1  0  0  0
 23 25  1  0  0  0
 24 26  1  0  0  0
  3  4  2  0  0  0
 26 27  2  0  0  0
 27 28  1  0  0  0
 43 47  1  0  0  0
 43 51  1  0  0  0
 28 29  1  0  0  0
 56 48  1  0  0  0
 56 60  1  0  0  0
 29 30  1  0  0  0
 57 60  1  0  0  0
 57 61  1  0  0  0
 30 31  1  0  0  0
 44 49  1  0  0  0
 44 52  1  0  0  0
 31 32  1  0  0  0
 45 46  1  0  0  0
 45 50  1  0  0  0
 32 33  1  0  0  0
 53 54  1  0  0  0
 53 55  1  0  0  0
 33 34  1  0  0  0
 34 35  1  0  0  0
 35 36  1  0  0  0
 58 60  1  0  0  0
 36 37  1  0  0  0
 59 60  1  0  0  0
 59 62  1  0  0  0
 37 38  1  0  0  0
 38 39  1  0  0  0
 39 40  1  0  0  0
  4  6  1  0  0  0
  6  7  1  0  0  0
  7  8  1  0  0  0
  8  9  1  0  0  0
  9 10  1  0  0  0
 10 11  1  0  0  0
 11 12  1  0  0  0
 12 13  1  0  0  0
 13 14  1  0  0  0
 14 15  1  0  0  0
 15 16  1  0  0  0
 16 17  1  0  0  0
 17 18  1  0  0  0
 18 19  1  0  0  0
 19 20  1  0  0  0
 20 21  1  0  0  0
 21 22  1  0  0  0
 46 47  1  0  0  0
 47 48  1  0  0  0
 48 49  1  0  0  0
 49 50  1  0  0  0
 50 54  1  0  0  0
M  CHG 1  58  -1
M  END
> <minimizedAffinity>
-8.99729

> <CNNscore>
0.2991375327

> <CNNaffinity>
6.9311308861

> <CNN_VS>
2.0733613968

> <CNNaffinity_variance>
1.1876561642

$$$$
/media/chris/experiments/cd1a-new-docking/inputs/ligands/1onq_ligand.pdb


 62 62  0  0  0  0  0  0  0  0999 V2000
  -39.9063   59.2028   64.5984 C   0  0  0  0  0  0  0  0  0  0  0  0
  -39.9567   59.3326   63.1556 N   0  0  0  0  0  0  0  0  0  0  0  0
  -40.9731   61.3442   62.8953 O   0  0  0  0  0  0  0  0  0  0  0  0
  -40.4610   60.3429   62.4340 C   0  0  0  0  0  0  0  0  0  0  0  0
  -39.5727   58.5857   62.6420 H   0  0  0  0  0  0  0  0  0  0  0  0
  -40.3529   60.1803   60.9468 C   0  0  0  0  0  0  0  0  0  0  0  0
  -38.8623   60.0520   60.6322 C   0  0  0  0  0  0  0  0  0  0  0  0
  -38.6681   59.2619   59.3402 C   0  0  0  0  0  0  0  0  0  0  0  0
  -37.2753   58.7390   59.0854 C   0  0  0  0  0  0  0  0  0  0  0  0
  -37.3501   57.7900   57.8939 C   0  0  0  0  0  0  0  0  0  0  0  0
  -36.3146   56.6600   57.9698 C   0  0  0  0  0  0  0  0  0  0  0  0
  -34.8549   57.1299   57.8311 C   0  0  0  0  0  0  0  0  0  0  0  0
  -33.8788   56.3263   58.7182 C   0  0  0  0  0  0  0  0  0  0  0  0
  -34.6074   55.7443   59.9329 C   0  0  0  0  0  0  0  0  0  0  0  0
  -33.9958   56.0990   61.2828 C   0  0  0  0  0  0  0  0  0  0  0  0
  -33.3736   57.4874   61.2879 C   0  0  0  0  0  0  0  0  0  0  0  0
  -33.0168   58.0579   62.6624 C   0  0  0  0  0  0  0  0  0  0  0  0
  -34.2789   58.6519   63.2731 C   0  0  0  0  0  0  0  0  0  0  0  0
  -34.9182   57.9440   64.4586 C   0  0  0  0  0  0  0  0  0  0  0  0
  -36.2382   57.2710   64.0507 C   0  0  0  0  0  0  0  0  0  0  0  0
  -36.8644   57.8247   62.7575 C   0  0  0  0  0  0  0  0  0  0  0  0
  -37.7973   56.8335   62.0656 C   0  0  0  0  0  0  0  0  0  0  0  0
  -40.9896   60.7910   65.9022 O   0  0  0  0  0  0  0  0  0  0  0  0
  -41.2708   59.7163   65.0249 C   0  0  0  0  0  0  0  0  0  0  0  0
  -40.5022   61.4798   65.4239 H   0  0  0  0  0  0  0  0  0  0  0  0
  -42.0414   58.5911   65.7196 C   0  0  0  0  0  0  0  0  0  0  0  0
  -43.3662   58.4150   65.5773 C   0  0  0  0  0  0  0  0  0  0  0  0
  -44.0632   57.2674   66.3057 C   0  0  0  0  0  0  0  0  0  0  0  0
  -45.5881   57.2515   66.1249 C   0  0  0  0  0  0  0  0  0  0  0  0
  -46.3934   58.0193   67.1895 C   0  0  0  0  0  0  0  0  0  0  0  0
  -47.5490   58.8149   66.5360 C   0  0  0  0  0  0  0  0  0  0  0  0
  -47.1268   59.7863   65.4048 C   0  0  0  0  0  0  0  0  0  0  0  0
  -48.2351   60.0644   64.3622 C   0  0  0  0  0  0  0  0  0  0  0  0
  -49.2044   58.8796   64.1603 C   0  0  0  0  0  0  0  0  0  0  0  0
  -49.4727   58.5449   62.6882 C   0  0  0  0  0  0  0  0  0  0  0  0
  -50.8550   57.9793   62.3693 C   0  0  0  0  0  0  0  0  0  0  0  0
  -50.9894   57.4248   60.9374 C   0  0  0  0  0  0  0  0  0  0  0  0
  -49.8101   56.5670   60.4542 C   0  0  0  0  0  0  0  0  0  0  0  0
  -49.2360   57.1103   59.1427 C   0  0  0  0  0  0  0  0  0  0  0  0
  -47.7405   57.3721   59.1175 C   0  0  0  0  0  0  0  0  0  0  0  0
  -38.6738   59.8380   65.2813 C   0  0  0  0  0  0  0  0  0  0  0  0
  -38.2325   61.1179   64.7614 O   0  0  0  0  0  0  0  0  0  0  0  0
  -36.1937   61.4900   62.7910 O   0  0  0  0  0  0  0  0  0  0  0  0
  -35.3990   64.9259   65.0185 O   0  0  0  0  0  0  0  0  0  0  0  0
  -36.8351   62.5210   66.1629 O   0  0  0  0  0  0  0  0  0  0  0  0
  -36.8709   61.6235   65.0267 C   0  0  0  0  0  0  0  0  0  0  0  0
  -36.1907   62.3716   63.8712 C   0  0  0  0  0  0  0  0  0  0  0  0
  -34.7286   62.7719   64.1665 C   0  0  0  0  0  0  0  0  0  0  0  0
  -34.7761   63.6892   65.3571 C   0  0  0  0  0  0  0  0  0  0  0  0
  -35.5089   63.0099   66.5000 C   0  0  0  0  0  0  0  0  0  0  0  0
  -37.1057   61.2271   62.5907 H   0  0  0  0  0  0  0  0  0  0  0  0
  -34.9155   65.3419   64.2878 H   0  0  0  0  0  0  0  0  0  0  0  0
  -34.1608   64.6111   67.6544 O   0  0  0  0  0  0  0  0  0  0  0  0
  -35.4540   64.0910   67.5772 C   0  0  0  0  0  0  0  0  0  0  0  0
  -34.1286   65.2973   68.3392 H   0  0  0  0  0  0  0  0  0  0  0  0
  -34.0480   63.5041   63.1221 O   0  0  0  0  0  0  0  0  0  0  0  0
  -32.2919   63.7782   61.2358 O   0  0  0  0  0  0  0  0  0  0  0  0
  -32.6271   61.6002   62.2522 O   0  0  0  0  0  0  0  0  0  0  0  0
  -31.4293   63.3334   63.4503 O   0  0  0  0  0  0  0  0  0  0  0  0
  -32.5605   63.0628   62.5183 S   0  0  0  0  0  0  0  0  0  0  0  0
  -33.0191   63.6135   60.6153 H   0  0  0  0  0  0  0  0  0  0  0  0
  -31.3785   64.2854   63.6294 H   0  0  0  0  0  0  0  0  0  0  0  0
  2  1  1  0  0  0
  2  4  1  0  0  0
  2  5  1  0  0  0
 41 42  1  0  0  0
 41  1  1  0  0  0
 42 46  1  0  0  0
  1 24  1  0  0  0
 23 24  1  0  0  0
 23 25  1  0  0  0
 24 26  1  0  0  0
  3  4  2  0  0  0
 26 27  2  0  0  0
 27 28  1  0  0  0
 43 47  1  0  0  0
 43 51  1  0  0  0
 28 29  1  0  0  0
 56 48  1  0  0  0
 56 60  1  0  0  0
 29 30  1  0  0  0
 57 60  1  0  0  0
 57 61  1  0  0  0
 30 31  1  0  0  0
 44 49  1  0  0  0
 44 52  1  0  0  0
 31 32  1  0  0  0
 45 46  1  0  0  0
 45 50  1  0  0  0
 32 33  1  0  0  0
 53 54  1  0  0  0
 53 55  1  0  0  0
 33 34  1  0  0  0
 34 35  1  0  0  0
 35 36  1  0  0  0
 58 60  1  0  0  0
 36 37  1  0  0  0
 59 60  1  0  0  0
 59 62  1  0  0  0
 37 38  1  0  0  0
 38 39  1  0  0  0
 39 40  1  0  0  0
  4  6  1  0  0  0
  6  7  1  0  0  0
  7  8  1  0  0  0
  8  9  1  0  0  0
  9 10  1  0  0  0
 10 11  1  0  0  0
 11 12  1  0  0  0
 12 13  1  0  0  0
 13 14  1  0  0  0
 14 15  1  0  0  0
 15 16  1  0  0  0
 16 17  1  0  0  0
 17 18  1  0  0  0
 18 19  1  0  0  0
 19 20  1  0  0  0
 20 21  1  0  0  0
 21 22  1  0  0  0
 46 47  1  0  0  0
 47 48  1  0  0  0
 48 49  1  0  0  0
 49 50  1  0  0  0
 50 54  1  0  0  0
M  CHG 1  58  -1
M  END
> <minimizedAffinity>
-9.72618

> <CNNscore>
0.2982183993

> <CNNaffinity>
7.3833990097

> <CNN_VS>
2.2018654346

> <CNNaffinity_variance>
1.3073546886

$$$$
