/media/chris/experiments/cd1a-new-docking/inputs/ligands/1onq_ligand.pdb


 62 62  0  0  0  0  0  0  0  0999 V2000
  -38.5232   59.6003   60.5226 C   0  0  0  0  0  0  0  0  0  0  0  0
  -38.1393   58.9679   59.2761 N   0  0  0  0  0  0  0  0  0  0  0  0
  -37.1486   57.3530   58.0279 O   0  0  0  0  0  0  0  0  0  0  0  0
  -37.4527   57.8301   59.1039 C   0  0  0  0  0  0  0  0  0  0  0  0
  -38.4176   59.4320   58.4537 H   0  0  0  0  0  0  0  0  0  0  0  0
  -37.0446   57.1340   60.3682 C   0  0  0  0  0  0  0  0  0  0  0  0
  -35.5181   57.1946   60.4229 C   0  0  0  0  0  0  0  0  0  0  0  0
  -35.0341   56.8840   61.8372 C   0  0  0  0  0  0  0  0  0  0  0  0
  -34.2287   57.9657   62.5153 C   0  0  0  0  0  0  0  0  0  0  0  0
  -34.9547   58.3422   63.8027 C   0  0  0  0  0  0  0  0  0  0  0  0
  -36.0604   57.3448   64.1733 C   0  0  0  0  0  0  0  0  0  0  0  0
  -37.3772   58.0009   64.6276 C   0  0  0  0  0  0  0  0  0  0  0  0
  -38.5678   57.6592   63.7051 C   0  0  0  0  0  0  0  0  0  0  0  0
  -39.8966   57.9556   64.4062 C   0  0  0  0  0  0  0  0  0  0  0  0
  -39.8645   59.1268   65.3806 C   0  0  0  0  0  0  0  0  0  0  0  0
  -41.2594   59.6145   65.7431 C   0  0  0  0  0  0  0  0  0  0  0  0
  -42.3250   58.5301   65.9185 C   0  0  0  0  0  0  0  0  0  0  0  0
  -43.5479   58.9286   65.1035 C   0  0  0  0  0  0  0  0  0  0  0  0
  -44.8629   59.1673   65.8309 C   0  0  0  0  0  0  0  0  0  0  0  0
  -45.9753   58.2706   65.2645 C   0  0  0  0  0  0  0  0  0  0  0  0
  -45.9748   56.8308   65.8100 C   0  0  0  0  0  0  0  0  0  0  0  0
  -47.3753   56.2905   66.0902 C   0  0  0  0  0  0  0  0  0  0  0  0
  -40.6667   60.1587   61.2220 O   0  0  0  0  0  0  0  0  0  0  0  0
  -39.7816   60.3580   60.1355 C   0  0  0  0  0  0  0  0  0  0  0  0
  -40.2790   60.5341   62.0280 H   0  0  0  0  0  0  0  0  0  0  0  0
  -40.3353   59.7866   58.8282 C   0  0  0  0  0  0  0  0  0  0  0  0
  -41.6438   59.5548   58.6269 C   0  0  0  0  0  0  0  0  0  0  0  0
  -42.1180   58.9814   57.2928 C   0  0  0  0  0  0  0  0  0  0  0  0
  -43.6457   58.9088   57.1553 C   0  0  0  0  0  0  0  0  0  0  0  0
  -44.3872   58.2181   58.3148 C   0  0  0  0  0  0  0  0  0  0  0  0
  -45.8516   57.9069   57.9223 C   0  0  0  0  0  0  0  0  0  0  0  0
  -46.7500   57.3898   59.0744 C   0  0  0  0  0  0  0  0  0  0  0  0
  -47.9607   56.5493   58.6051 C   0  0  0  0  0  0  0  0  0  0  0  0
  -48.9229   56.1605   59.7484 C   0  0  0  0  0  0  0  0  0  0  0  0
  -50.0859   57.1418   59.9377 C   0  0  0  0  0  0  0  0  0  0  0  0
  -49.9321   58.1545   61.0705 C   0  0  0  0  0  0  0  0  0  0  0  0
  -51.1158   58.1740   62.0576 C   0  0  0  0  0  0  0  0  0  0  0  0
  -50.9187   59.0570   63.2992 C   0  0  0  0  0  0  0  0  0  0  0  0
  -50.1194   58.3193   64.3772 C   0  0  0  0  0  0  0  0  0  0  0  0
  -50.1475   58.9229   65.7702 C   0  0  0  0  0  0  0  0  0  0  0  0
  -37.4102   60.4057   61.2309 C   0  0  0  0  0  0  0  0  0  0  0  0
  -37.7981   61.1403   62.4197 O   0  0  0  0  0  0  0  0  0  0  0  0
  -35.8755   63.2087   61.9699 O   0  0  0  0  0  0  0  0  0  0  0  0
  -36.7778   64.1864   65.9231 O   0  0  0  0  0  0  0  0  0  0  0  0
  -37.2457   61.4309   64.7639 O   0  0  0  0  0  0  0  0  0  0  0  0
  -36.7923   61.5983   63.3986 C   0  0  0  0  0  0  0  0  0  0  0  0
  -36.3460   63.0622   63.2741 C   0  0  0  0  0  0  0  0  0  0  0  0
  -35.2098   63.4491   64.2461 C   0  0  0  0  0  0  0  0  0  0  0  0
  -35.7528   63.2393   65.6326 C   0  0  0  0  0  0  0  0  0  0  0  0
  -36.2732   61.8201   65.7711 C   0  0  0  0  0  0  0  0  0  0  0  0
  -36.5771   62.9695   61.3443 H   0  0  0  0  0  0  0  0  0  0  0  0
  -36.4241   65.0848   65.8288 H   0  0  0  0  0  0  0  0  0  0  0  0
  -36.0088   62.7061   67.9754 O   0  0  0  0  0  0  0  0  0  0  0  0
  -36.7762   61.8236   67.2130 C   0  0  0  0  0  0  0  0  0  0  0  0
  -36.3302   62.7066   68.8905 H   0  0  0  0  0  0  0  0  0  0  0  0
  -34.7690   64.8249   64.1910 O   0  0  0  0  0  0  0  0  0  0  0  0
  -32.6800   66.2173   63.5472 O   0  0  0  0  0  0  0  0  0  0  0  0
  -32.3969   64.0731   64.6478 O   0  0  0  0  0  0  0  0  0  0  0  0
  -33.1415   66.0030   65.9110 O   0  0  0  0  0  0  0  0  0  0  0  0
  -33.2276   65.3067   64.5959 S   0  0  0  0  0  0  0  0  0  0  0  0
  -32.7279   65.7804   62.6825 H   0  0  0  0  0  0  0  0  0  0  0  0
  -33.6806   66.8090   65.8859 H   0  0  0  0  0  0  0  0  0  0  0  0
  2  1  1  0  0  0
  2  4  1  0  0  0
  2  5  1  0  0  0
 41 42  1  0  0  0
 41  1  1  0  0  0
 42 46  1  0  0  0
  1 24  1  0  0  0
 23 24  1  0  0  0
 23 25  1  0  0  0
 24 26  1  0  0  0
  3  4  2  0  0  0
 26 27  2  0  0  0
 27 28  1  0  0  0
 43 47  1  0  0  0
 43 51  1  0  0  0
 28 29  1  0  0  0
 56 48  1  0  0  0
 56 60  1  0  0  0
 29 30  1  0  0  0
 57 60  1  0  0  0
 57 61  1  0  0  0
 30 31  1  0  0  0
 44 49  1  0  0  0
 44 52  1  0  0  0
 31 32  1  0  0  0
 45 46  1  0  0  0
 45 50  1  0  0  0
 32 33  1  0  0  0
 53 54  1  0  0  0
 53 55  1  0  0  0
 33 34  1  0  0  0
 34 35  1  0  0  0
 35 36  1  0  0  0
 58 60  1  0  0  0
 36 37  1  0  0  0
 59 60  1  0  0  0
 59 62  1  0  0  0
 37 38  1  0  0  0
 38 39  1  0  0  0
 39 40  1  0  0  0
  4  6  1  0  0  0
  6  7  1  0  0  0
  7  8  1  0  0  0
  8  9  1  0  0  0
  9 10  1  0  0  0
 10 11  1  0  0  0
 11 12  1  0  0  0
 12 13  1  0  0  0
 13 14  1  0  0  0
 14 15  1  0  0  0
 15 16  1  0  0  0
 16 17  1  0  0  0
 17 18  1  0  0  0
 18 19  1  0  0  0
 19 20  1  0  0  0
 20 21  1  0  0  0
 21 22  1  0  0  0
 46 47  1  0  0  0
 47 48  1  0  0  0
 48 49  1  0  0  0
 49 50  1  0  0  0
 50 54  1  0  0  0
M  CHG 1  58  -1
M  END
> <minimizedAffinity>
-9.04379

> <CNNscore>
0.5140508413

> <CNNaffinity>
7.4714126587

> <CNN_VS>
3.8406858444

> <CNNaffinity_variance>
0.8949716687

$$$$
/media/chris/experiments/cd1a-new-docking/inputs/ligands/1onq_ligand.pdb


 62 62  0  0  0  0  0  0  0  0999 V2000
  -40.1650   59.8483   63.5924 C   0  0  0  0  0  0  0  0  0  0  0  0
  -40.5850   60.4612   62.3478 N   0  0  0  0  0  0  0  0  0  0  0  0
  -40.4807   60.8111   60.1086 O   0  0  0  0  0  0  0  0  0  0  0  0
  -40.0935   60.2557   61.1183 C   0  0  0  0  0  0  0  0  0  0  0  0
  -41.3233   61.1092   62.4141 H   0  0  0  0  0  0  0  0  0  0  0  0
  -38.9751   59.2597   61.0369 C   0  0  0  0  0  0  0  0  0  0  0  0
  -38.3007   59.4752   59.6820 C   0  0  0  0  0  0  0  0  0  0  0  0
  -37.3662   58.3080   59.3730 C   0  0  0  0  0  0  0  0  0  0  0  0
  -37.2912   57.8832   57.9265 C   0  0  0  0  0  0  0  0  0  0  0  0
  -36.5361   56.5591   57.8736 C   0  0  0  0  0  0  0  0  0  0  0  0
  -36.6415   55.7638   59.1817 C   0  0  0  0  0  0  0  0  0  0  0  0
  -35.3901   54.9325   59.5186 C   0  0  0  0  0  0  0  0  0  0  0  0
  -34.0752   55.7159   59.3118 C   0  0  0  0  0  0  0  0  0  0  0  0
  -33.9423   56.8320   60.3518 C   0  0  0  0  0  0  0  0  0  0  0  0
  -33.2665   56.4223   61.6547 C   0  0  0  0  0  0  0  0  0  0  0  0
  -32.2442   57.4477   62.1222 C   0  0  0  0  0  0  0  0  0  0  0  0
  -32.5993   58.2162   63.3971 C   0  0  0  0  0  0  0  0  0  0  0  0
  -33.5012   59.3818   63.0144 C   0  0  0  0  0  0  0  0  0  0  0  0
  -35.0045   59.2304   63.1942 C   0  0  0  0  0  0  0  0  0  0  0  0
  -35.3280   58.4149   64.4561 C   0  0  0  0  0  0  0  0  0  0  0  0
  -36.0917   57.1044   64.1913 C   0  0  0  0  0  0  0  0  0  0  0  0
  -36.8096   57.0855   62.8437 C   0  0  0  0  0  0  0  0  0  0  0  0
  -40.5470   60.9497   65.6015 O   0  0  0  0  0  0  0  0  0  0  0  0
  -41.2471   60.2922   64.5617 C   0  0  0  0  0  0  0  0  0  0  0  0
  -40.0789   61.7186   65.2403 H   0  0  0  0  0  0  0  0  0  0  0  0
  -42.0100   59.0651   65.0662 C   0  0  0  0  0  0  0  0  0  0  0  0
  -43.3468   59.0397   65.2030 C   0  0  0  0  0  0  0  0  0  0  0  0
  -44.0349   57.7754   65.7146 C   0  0  0  0  0  0  0  0  0  0  0  0
  -45.4078   57.5141   65.0783 C   0  0  0  0  0  0  0  0  0  0  0  0
  -46.3740   58.7131   65.0620 C   0  0  0  0  0  0  0  0  0  0  0  0
  -47.7936   58.2688   64.6347 C   0  0  0  0  0  0  0  0  0  0  0  0
  -48.9468   58.7855   65.5318 C   0  0  0  0  0  0  0  0  0  0  0  0
  -50.3601   58.4251   65.0167 C   0  0  0  0  0  0  0  0  0  0  0  0
  -51.0778   59.5966   64.3119 C   0  0  0  0  0  0  0  0  0  0  0  0
  -51.1760   59.4352   62.7902 C   0  0  0  0  0  0  0  0  0  0  0  0
  -50.7075   58.0956   62.2256 C   0  0  0  0  0  0  0  0  0  0  0  0
  -49.7343   58.2233   61.0372 C   0  0  0  0  0  0  0  0  0  0  0  0
  -50.1998   57.5549   59.7346 C   0  0  0  0  0  0  0  0  0  0  0  0
  -49.0669   56.7462   59.0963 C   0  0  0  0  0  0  0  0  0  0  0  0
  -47.7330   57.4559   58.9454 C   0  0  0  0  0  0  0  0  0  0  0  0
  -38.7003   60.1176   64.0060 C   0  0  0  0  0  0  0  0  0  0  0  0
  -38.2543   61.4965   63.9511 O   0  0  0  0  0  0  0  0  0  0  0  0
  -36.2575   62.3201   62.0771 O   0  0  0  0  0  0  0  0  0  0  0  0
  -35.2563   64.9965   65.1156 O   0  0  0  0  0  0  0  0  0  0  0  0
  -36.7604   62.4208   65.6242 O   0  0  0  0  0  0  0  0  0  0  0  0
  -36.8658   61.8659   64.2905 C   0  0  0  0  0  0  0  0  0  0  0  0
  -36.1871   62.8759   63.3539 C   0  0  0  0  0  0  0  0  0  0  0  0
  -34.7017   63.1326   63.6899 C   0  0  0  0  0  0  0  0  0  0  0  0
  -34.6771   63.6945   65.0846 C   0  0  0  0  0  0  0  0  0  0  0  0
  -35.4058   62.7560   66.0293 C   0  0  0  0  0  0  0  0  0  0  0  0
  -37.1850   62.1517   61.8485 H   0  0  0  0  0  0  0  0  0  0  0  0
  -34.7762   65.5787   64.5059 H   0  0  0  0  0  0  0  0  0  0  0  0
  -36.5272   63.9747   67.7530 O   0  0  0  0  0  0  0  0  0  0  0  0
  -35.2751   63.5028   67.3550 C   0  0  0  0  0  0  0  0  0  0  0  0
  -36.4416   64.4484   68.5950 H   0  0  0  0  0  0  0  0  0  0  0  0
  -34.0202   64.0970   62.8560 O   0  0  0  0  0  0  0  0  0  0  0  0
  -31.9206   64.4827   61.3862 O   0  0  0  0  0  0  0  0  0  0  0  0
  -31.8070   62.9375   63.2540 O   0  0  0  0  0  0  0  0  0  0  0  0
  -31.8182   65.3288   63.6489 O   0  0  0  0  0  0  0  0  0  0  0  0
  -32.3625   64.2381   62.7911 S   0  0  0  0  0  0  0  0  0  0  0  0
  -32.2661   63.7815   60.8119 H   0  0  0  0  0  0  0  0  0  0  0  0
  -32.1754   66.1810   63.3539 H   0  0  0  0  0  0  0  0  0  0  0  0
  2  1  1  0  0  0
  2  4  1  0  0  0
  2  5  1  0  0  0
 41 42  1  0  0  0
 41  1  1  0  0  0
 42 46  1  0  0  0
  1 24  1  0  0  0
 23 24  1  0  0  0
 23 25  1  0  0  0
 24 26  1  0  0  0
  3  4  2  0  0  0
 26 27  2  0  0  0
 27 28  1  0  0  0
 43 47  1  0  0  0
 43 51  1  0  0  0
 28 29  1  0  0  0
 56 48  1  0  0  0
 56 60  1  0  0  0
 29 30  1  0  0  0
 57 60  1  0  0  0
 57 61  1  0  0  0
 30 31  1  0  0  0
 44 49  1  0  0  0
 44 52  1  0  0  0
 31 32  1  0  0  0
 45 46  1  0  0  0
 45 50  1  0  0  0
 32 33  1  0  0  0
 53 54  1  0  0  0
 53 55  1  0  0  0
 33 34  1  0  0  0
 34 35  1  0  0  0
 35 36  1  0  0  0
 58 60  1  0  0  0
 36 37  1  0  0  0
 59 60  1  0  0  0
 59 62  1  0  0  0
 37 38  1  0  0  0
 38 39  1  0  0  0
 39 40  1  0  0  0
  4  6  1  0  0  0
  6  7  1  0  0  0
  7  8  1  0  0  0
  8  9  1  0  0  0
  9 10  1  0  0  0
 10 11  1  0  0  0
 11 12  1  0  0  0
 12 13  1  0  0  0
 13 14  1  0  0  0
 14 15  1  0  0  0
 15 16  1  0  0  0
 16 17  1  0  0  0
 17 18  1  0  0  0
 18 19  1  0  0  0
 19 20  1  0  0  0
 20 21  1  0  0  0
 21 22  1  0  0  0
 46 47  1  0  0  0
 47 48  1  0  0  0
 48 49  1  0  0  0
 49 50  1  0  0  0
 50 54  1  0  0  0
M  CHG 1  58  -1
M  END
> <minimizedAffinity>
-9.63374

> <CNNscore>
0.3304057419

> <CNNaffinity>
7.3065209389

> <CNN_VS>
2.4141163826

> <CNNaffinity_variance>
0.9238840938

$$$$
/media/chris/experiments/cd1a-new-docking/inputs/ligands/1onq_ligand.pdb


 62 62  0  0  0  0  0  0  0  0999 V2000
  -38.4556   59.6212   60.4001 C   0  0  0  0  0  0  0  0  0  0  0  0
  -38.1002   59.0111   59.1341 N   0  0  0  0  0  0  0  0  0  0  0  0
  -37.0338   57.4919   57.8294 O   0  0  0  0  0  0  0  0  0  0  0  0
  -37.3059   57.9532   58.9208 C   0  0  0  0  0  0  0  0  0  0  0  0
  -38.4909   59.4256   58.3312 H   0  0  0  0  0  0  0  0  0  0  0  0
  -36.7267   57.3311   60.1565 C   0  0  0  0  0  0  0  0  0  0  0  0
  -35.2399   57.1128   59.8757 C   0  0  0  0  0  0  0  0  0  0  0  0
  -34.6840   56.0423   60.8117 C   0  0  0  0  0  0  0  0  0  0  0  0
  -33.4295   56.4082   61.5672 C   0  0  0  0  0  0  0  0  0  0  0  0
  -33.1493   57.8847   61.3075 C   0  0  0  0  0  0  0  0  0  0  0  0
  -33.1034   58.7152   62.5971 C   0  0  0  0  0  0  0  0  0  0  0  0
  -33.4770   57.9304   63.8680 C   0  0  0  0  0  0  0  0  0  0  0  0
  -34.7614   58.4583   64.5439 C   0  0  0  0  0  0  0  0  0  0  0  0
  -35.9955   58.1042   63.7092 C   0  0  0  0  0  0  0  0  0  0  0  0
  -37.2034   57.6347   64.5109 C   0  0  0  0  0  0  0  0  0  0  0  0
  -38.5094   57.8300   63.7551 C   0  0  0  0  0  0  0  0  0  0  0  0
  -39.7871   57.7643   64.5949 C   0  0  0  0  0  0  0  0  0  0  0  0
  -39.9221   59.0744   65.3590 C   0  0  0  0  0  0  0  0  0  0  0  0
  -41.2969   59.7174   65.4671 C   0  0  0  0  0  0  0  0  0  0  0  0
  -41.9684   59.3585   66.8022 C   0  0  0  0  0  0  0  0  0  0  0  0
  -43.4523   58.9645   66.6851 C   0  0  0  0  0  0  0  0  0  0  0  0
  -43.9599   58.9438   65.2451 C   0  0  0  0  0  0  0  0  0  0  0  0
  -40.5886   60.0903   61.1911 O   0  0  0  0  0  0  0  0  0  0  0  0
  -39.7573   60.3317   60.0712 C   0  0  0  0  0  0  0  0  0  0  0  0
  -40.1830   60.4750   61.9838 H   0  0  0  0  0  0  0  0  0  0  0  0
  -40.3417   59.7482   58.7827 C   0  0  0  0  0  0  0  0  0  0  0  0
  -41.6567   59.5331   58.6072 C   0  0  0  0  0  0  0  0  0  0  0  0
  -42.1621   58.9459   57.2907 C   0  0  0  0  0  0  0  0  0  0  0  0
  -43.6921   58.8502   57.1994 C   0  0  0  0  0  0  0  0  0  0  0  0
  -44.3858   58.1289   58.3699 C   0  0  0  0  0  0  0  0  0  0  0  0
  -45.8864   57.9045   58.0647 C   0  0  0  0  0  0  0  0  0  0  0  0
  -46.7128   57.2912   59.2234 C   0  0  0  0  0  0  0  0  0  0  0  0
  -47.6118   56.1053   58.8016 C   0  0  0  0  0  0  0  0  0  0  0  0
  -48.9060   55.9843   59.6352 C   0  0  0  0  0  0  0  0  0  0  0  0
  -49.6555   57.3108   59.8083 C   0  0  0  0  0  0  0  0  0  0  0  0
  -50.8729   57.2787   60.7300 C   0  0  0  0  0  0  0  0  0  0  0  0
  -50.7416   58.1821   61.9719 C   0  0  0  0  0  0  0  0  0  0  0  0
  -49.7057   59.3106   61.8543 C   0  0  0  0  0  0  0  0  0  0  0  0
  -49.6034   60.1013   63.1616 C   0  0  0  0  0  0  0  0  0  0  0  0
  -48.5317   59.6531   64.1396 C   0  0  0  0  0  0  0  0  0  0  0  0
  -37.3457   60.4651   61.0672 C   0  0  0  0  0  0  0  0  0  0  0  0
  -37.7416   61.2745   62.2036 O   0  0  0  0  0  0  0  0  0  0  0  0
  -35.8148   63.3663   61.9047 O   0  0  0  0  0  0  0  0  0  0  0  0
  -36.8187   64.1460   65.8775 O   0  0  0  0  0  0  0  0  0  0  0  0
  -37.2488   61.4502   64.5725 O   0  0  0  0  0  0  0  0  0  0  0  0
  -36.7621   61.6856   63.2288 C   0  0  0  0  0  0  0  0  0  0  0  0
  -36.3174   63.1547   63.1880 C   0  0  0  0  0  0  0  0  0  0  0  0
  -35.2070   63.4954   64.2060 C   0  0  0  0  0  0  0  0  0  0  0  0
  -35.7838   63.2164   65.5664 C   0  0  0  0  0  0  0  0  0  0  0  0
  -36.3031   61.7910   65.6217 C   0  0  0  0  0  0  0  0  0  0  0  0
  -36.4998   63.1570   61.2507 H   0  0  0  0  0  0  0  0  0  0  0  0
  -36.4656   65.0486   65.8364 H   0  0  0  0  0  0  0  0  0  0  0  0
  -36.0396   62.4946   67.8909 O   0  0  0  0  0  0  0  0  0  0  0  0
  -36.8419   61.7224   67.0489 C   0  0  0  0  0  0  0  0  0  0  0  0
  -36.3838   62.4494   68.7966 H   0  0  0  0  0  0  0  0  0  0  0  0
  -34.7693   64.8730   64.2299 O   0  0  0  0  0  0  0  0  0  0  0  0
  -32.3449   64.1290   64.7652 O   0  0  0  0  0  0  0  0  0  0  0  0
  -33.3036   66.0225   65.9420 O   0  0  0  0  0  0  0  0  0  0  0  0
  -32.5925   66.2529   63.6365 O   0  0  0  0  0  0  0  0  0  0  0  0
  -33.2187   65.3316   64.6268 S   0  0  0  0  0  0  0  0  0  0  0  0
  -32.7372   63.5165   65.4071 H   0  0  0  0  0  0  0  0  0  0  0  0
  -32.5332   65.8102   62.7754 H   0  0  0  0  0  0  0  0  0  0  0  0
  2  1  1  0  0  0
  2  4  1  0  0  0
  2  5  1  0  0  0
 41 42  1  0  0  0
 41  1  1  0  0  0
 42 46  1  0  0  0
  1 24  1  0  0  0
 23 24  1  0  0  0
 23 25  1  0  0  0
 24 26  1  0  0  0
  3  4  2  0  0  0
 26 27  2  0  0  0
 27 28  1  0  0  0
 43 47  1  0  0  0
 43 51  1  0  0  0
 28 29  1  0  0  0
 56 48  1  0  0  0
 56 60  1  0  0  0
 29 30  1  0  0  0
 57 60  1  0  0  0
 57 61  1  0  0  0
 30 31  1  0  0  0
 44 49  1  0  0  0
 44 52  1  0  0  0
 31 32  1  0  0  0
 45 46  1  0  0  0
 45 50  1  0  0  0
 32 33  1  0  0  0
 53 54  1  0  0  0
 53 55  1  0  0  0
 33 34  1  0  0  0
 34 35  1  0  0  0
 35 36  1  0  0  0
 58 60  1  0  0  0
 36 37  1  0  0  0
 59 60  1  0  0  0
 59 62  1  0  0  0
 37 38  1  0  0  0
 38 39  1  0  0  0
 39 40  1  0  0  0
  4  6  1  0  0  0
  6  7  1  0  0  0
  7  8  1  0  0  0
  8  9  1  0  0  0
  9 10  1  0  0  0
 10 11  1  0  0  0
 11 12  1  0  0  0
 12 13  1  0  0  0
 13 14  1  0  0  0
 14 15  1  0  0  0
 15 16  1  0  0  0
 16 17  1  0  0  0
 17 18  1  0  0  0
 18 19  1  0  0  0
 19 20  1  0  0  0
 20 21  1  0  0  0
 21 22  1  0  0  0
 46 47  1  0  0  0
 47 48  1  0  0  0
 48 49  1  0  0  0
 49 50  1  0  0  0
 50 54  1  0  0  0
M  CHG 1  58  -1
M  END
> <minimizedAffinity>
-8.92346

> <CNNscore>
0.2725618184

> <CNNaffinity>
7.0141053200

> <CNN_VS>
1.9117772579

> <CNNaffinity_variance>
1.4122391939

$$$$
/media/chris/experiments/cd1a-new-docking/inputs/ligands/1onq_ligand.pdb


 62 62  0  0  0  0  0  0  0  0999 V2000
  -40.1817   60.0814   62.9695 C   0  0  0  0  0  0  0  0  0  0  0  0
  -40.7443   60.2030   61.6391 N   0  0  0  0  0  0  0  0  0  0  0  0
  -40.6229   60.3618   59.3792 O   0  0  0  0  0  0  0  0  0  0  0  0
  -40.0947   60.2462   60.4679 C   0  0  0  0  0  0  0  0  0  0  0  0
  -41.7259   60.2611   61.5899 H   0  0  0  0  0  0  0  0  0  0  0  0
  -38.6010   60.1485   60.5633 C   0  0  0  0  0  0  0  0  0  0  0  0
  -38.2223   58.7665   60.0306 C   0  0  0  0  0  0  0  0  0  0  0  0
  -37.1892   58.1186   60.9492 C   0  0  0  0  0  0  0  0  0  0  0  0
  -37.6186   56.8451   61.6365 C   0  0  0  0  0  0  0  0  0  0  0  0
  -38.4070   57.2369   62.8819 C   0  0  0  0  0  0  0  0  0  0  0  0
  -37.5020   57.6192   64.0607 C   0  0  0  0  0  0  0  0  0  0  0  0
  -36.0694   57.0632   63.9639 C   0  0  0  0  0  0  0  0  0  0  0  0
  -35.0169   58.0026   64.5925 C   0  0  0  0  0  0  0  0  0  0  0  0
  -34.1501   58.6459   63.5063 C   0  0  0  0  0  0  0  0  0  0  0  0
  -32.7288   58.1046   63.4108 C   0  0  0  0  0  0  0  0  0  0  0  0
  -32.5081   57.2812   62.1504 C   0  0  0  0  0  0  0  0  0  0  0  0
  -33.5925   57.3946   61.0764 C   0  0  0  0  0  0  0  0  0  0  0  0
  -34.1081   55.9947   60.7715 C   0  0  0  0  0  0  0  0  0  0  0  0
  -34.2203   55.5594   59.3178 C   0  0  0  0  0  0  0  0  0  0  0  0
  -34.0926   56.7639   58.3717 C   0  0  0  0  0  0  0  0  0  0  0  0
  -35.4318   57.2903   57.8238 C   0  0  0  0  0  0  0  0  0  0  0  0
  -36.5605   56.2646   57.8995 C   0  0  0  0  0  0  0  0  0  0  0  0
  -41.0497   61.3194   64.7328 O   0  0  0  0  0  0  0  0  0  0  0  0
  -41.3985   60.2602   63.8610 C   0  0  0  0  0  0  0  0  0  0  0  0
  -40.8869   62.1237   64.2156 H   0  0  0  0  0  0  0  0  0  0  0  0
  -41.6693   58.9570   64.6164 C   0  0  0  0  0  0  0  0  0  0  0  0
  -42.3315   58.9125   65.7851 C   0  0  0  0  0  0  0  0  0  0  0  0
  -42.5609   57.5708   66.4784 C   0  0  0  0  0  0  0  0  0  0  0  0
  -43.8493   56.8581   66.0424 C   0  0  0  0  0  0  0  0  0  0  0  0
  -45.1508   57.6592   66.2316 C   0  0  0  0  0  0  0  0  0  0  0  0
  -46.3486   56.7107   66.4787 C   0  0  0  0  0  0  0  0  0  0  0  0
  -47.6509   57.0786   65.7235 C   0  0  0  0  0  0  0  0  0  0  0  0
  -47.5976   58.4429   64.9965 C   0  0  0  0  0  0  0  0  0  0  0  0
  -48.5168   58.5190   63.7581 C   0  0  0  0  0  0  0  0  0  0  0  0
  -50.0050   58.6561   64.1009 C   0  0  0  0  0  0  0  0  0  0  0  0
  -50.9582   58.7841   62.9145 C   0  0  0  0  0  0  0  0  0  0  0  0
  -50.7118   57.7491   61.7992 C   0  0  0  0  0  0  0  0  0  0  0  0
  -49.9419   58.2735   60.5775 C   0  0  0  0  0  0  0  0  0  0  0  0
  -50.0438   57.2966   59.4027 C   0  0  0  0  0  0  0  0  0  0  0  0
  -48.7667   57.0460   58.6204 C   0  0  0  0  0  0  0  0  0  0  0  0
  -38.9608   60.9833   63.2609 C   0  0  0  0  0  0  0  0  0  0  0  0
  -38.3476   60.8418   64.5675 O   0  0  0  0  0  0  0  0  0  0  0  0
  -36.2628   61.1487   62.6344 O   0  0  0  0  0  0  0  0  0  0  0  0
  -35.5731   64.6987   64.7130 O   0  0  0  0  0  0  0  0  0  0  0  0
  -37.0067   62.3308   65.9351 O   0  0  0  0  0  0  0  0  0  0  0  0
  -37.0004   61.3794   64.8430 C   0  0  0  0  0  0  0  0  0  0  0  0
  -36.3001   62.0811   63.6704 C   0  0  0  0  0  0  0  0  0  0  0  0
  -34.8518   62.5164   63.9836 C   0  0  0  0  0  0  0  0  0  0  0  0
  -34.9429   63.4890   65.1269 C   0  0  0  0  0  0  0  0  0  0  0  0
  -35.6964   62.8547   66.2820 C   0  0  0  0  0  0  0  0  0  0  0  0
  -37.1656   60.8633   62.4237 H   0  0  0  0  0  0  0  0  0  0  0  0
  -35.0761   65.0863   63.9756 H   0  0  0  0  0  0  0  0  0  0  0  0
  -34.3672   64.3678   67.5694 O   0  0  0  0  0  0  0  0  0  0  0  0
  -35.6844   63.9868   67.3068 C   0  0  0  0  0  0  0  0  0  0  0  0
  -34.3622   65.0868   68.2203 H   0  0  0  0  0  0  0  0  0  0  0  0
  -34.1537   63.2075   62.9229 O   0  0  0  0  0  0  0  0  0  0  0  0
  -32.1150   63.8486   61.4566 O   0  0  0  0  0  0  0  0  0  0  0  0
  -32.4318   61.5363   62.1213 O   0  0  0  0  0  0  0  0  0  0  0  0
  -31.6343   63.1678   63.7263 O   0  0  0  0  0  0  0  0  0  0  0  0
  -32.5473   62.9508   62.5683 S   0  0  0  0  0  0  0  0  0  0  0  0
  -32.6989   63.7212   60.6925 H   0  0  0  0  0  0  0  0  0  0  0  0
  -31.7033   64.0883   64.0245 H   0  0  0  0  0  0  0  0  0  0  0  0
  2  1  1  0  0  0
  2  4  1  0  0  0
  2  5  1  0  0  0
 41 42  1  0  0  0
 41  1  1  0  0  0
 42 46  1  0  0  0
  1 24  1  0  0  0
 23 24  1  0  0  0
 23 25  1  0  0  0
 24 26  1  0  0  0
  3  4  2  0  0  0
 26 27  2  0  0  0
 27 28  1  0  0  0
 43 47  1  0  0  0
 43 51  1  0  0  0
 28 29  1  0  0  0
 56 48  1  0  0  0
 56 60  1  0  0  0
 29 30  1  0  0  0
 57 60  1  0  0  0
 57 61  1  0  0  0
 30 31  1  0  0  0
 44 49  1  0  0  0
 44 52  1  0  0  0
 31 32  1  0  0  0
 45 46  1  0  0  0
 45 50  1  0  0  0
 32 33  1  0  0  0
 53 54  1  0  0  0
 53 55  1  0  0  0
 33 34  1  0  0  0
 34 35  1  0  0  0
 35 36  1  0  0  0
 58 60  1  0  0  0
 36 37  1  0  0  0
 59 60  1  0  0  0
 59 62  1  0  0  0
 37 38  1  0  0  0
 38 39  1  0  0  0
 39 40  1  0  0  0
  4  6  1  0  0  0
  6  7  1  0  0  0
  7  8  1  0  0  0
  8  9  1  0  0  0
  9 10  1  0  0  0
 10 11  1  0  0  0
 11 12  1  0  0  0
 12 13  1  0  0  0
 13 14  1  0  0  0
 14 15  1  0  0  0
 15 16  1  0  0  0
 16 17  1  0  0  0
 17 18  1  0  0  0
 18 19  1  0  0  0
 19 20  1  0  0  0
 20 21  1  0  0  0
 21 22  1  0  0  0
 46 47  1  0  0  0
 47 48  1  0  0  0
 48 49  1  0  0  0
 49 50  1  0  0  0
 50 54  1  0  0  0
M  CHG 1  58  -1
M  END
> <minimizedAffinity>
-9.81614

> <CNNscore>
0.2644017041

> <CNNaffinity>
7.4040474892

> <CNN_VS>
1.9576427937

> <CNNaffinity_variance>
1.0619561672

$$$$
/media/chris/experiments/cd1a-new-docking/inputs/ligands/1onq_ligand.pdb


 62 62  0  0  0  0  0  0  0  0999 V2000
  -39.0050   59.4777   59.7833 C   0  0  0  0  0  0  0  0  0  0  0  0
  -38.5234   58.9111   58.5391 N   0  0  0  0  0  0  0  0  0  0  0  0
  -37.2561   57.4981   57.2961 O   0  0  0  0  0  0  0  0  0  0  0  0
  -37.6318   57.9250   58.3706 C   0  0  0  0  0  0  0  0  0  0  0  0
  -38.8979   59.2989   57.7153 H   0  0  0  0  0  0  0  0  0  0  0  0
  -37.0788   57.3421   59.6370 C   0  0  0  0  0  0  0  0  0  0  0  0
  -36.4291   56.0122   59.2544 C   0  0  0  0  0  0  0  0  0  0  0  0
  -35.2861   55.6944   60.2155 C   0  0  0  0  0  0  0  0  0  0  0  0
  -34.2455   56.7740   60.3886 C   0  0  0  0  0  0  0  0  0  0  0  0
  -33.9916   56.9339   61.8840 C   0  0  0  0  0  0  0  0  0  0  0  0
  -34.3867   58.3213   62.4074 C   0  0  0  0  0  0  0  0  0  0  0  0
  -34.9474   58.3198   63.8414 C   0  0  0  0  0  0  0  0  0  0  0  0
  -35.8655   57.1108   64.1258 C   0  0  0  0  0  0  0  0  0  0  0  0
  -37.2860   57.5775   64.4565 C   0  0  0  0  0  0  0  0  0  0  0  0
  -38.2757   57.5009   63.3003 C   0  0  0  0  0  0  0  0  0  0  0  0
  -39.6201   58.1221   63.6490 C   0  0  0  0  0  0  0  0  0  0  0  0
  -40.1436   57.8410   65.0594 C   0  0  0  0  0  0  0  0  0  0  0  0
  -41.1381   58.9348   65.4244 C   0  0  0  0  0  0  0  0  0  0  0  0
  -42.1919   58.6392   66.4814 C   0  0  0  0  0  0  0  0  0  0  0  0
  -42.8089   57.2477   66.2687 C   0  0  0  0  0  0  0  0  0  0  0  0
  -44.2309   57.2631   65.6784 C   0  0  0  0  0  0  0  0  0  0  0  0
  -44.5703   58.5640   64.9545 C   0  0  0  0  0  0  0  0  0  0  0  0
  -40.6550   60.9455   60.5036 O   0  0  0  0  0  0  0  0  0  0  0  0
  -40.2188   60.2743   59.3362 C   0  0  0  0  0  0  0  0  0  0  0  0
  -39.9549   61.5402   60.8153 H   0  0  0  0  0  0  0  0  0  0  0  0
  -41.2807   59.3166   58.7908 C   0  0  0  0  0  0  0  0  0  0  0  0
  -41.9259   59.5235   57.6301 C   0  0  0  0  0  0  0  0  0  0  0  0
  -42.9748   58.5202   57.1539 C   0  0  0  0  0  0  0  0  0  0  0  0
  -44.4225   58.9830   57.3734 C   0  0  0  0  0  0  0  0  0  0  0  0
  -45.4300   57.8741   57.7293 C   0  0  0  0  0  0  0  0  0  0  0  0
  -45.4891   57.6566   59.2605 C   0  0  0  0  0  0  0  0  0  0  0  0
  -46.8760   57.2470   59.8176 C   0  0  0  0  0  0  0  0  0  0  0  0
  -48.0523   57.5175   58.8503 C   0  0  0  0  0  0  0  0  0  0  0  0
  -49.3346   56.7327   59.2026 C   0  0  0  0  0  0  0  0  0  0  0  0
  -50.4038   57.5790   59.9038 C   0  0  0  0  0  0  0  0  0  0  0  0
  -50.5640   57.3490   61.4051 C   0  0  0  0  0  0  0  0  0  0  0  0
  -50.9609   58.6129   62.1930 C   0  0  0  0  0  0  0  0  0  0  0  0
  -50.5885   58.5994   63.6834 C   0  0  0  0  0  0  0  0  0  0  0  0
  -49.1343   59.0322   63.8906 C   0  0  0  0  0  0  0  0  0  0  0  0
  -48.2240   58.0316   64.5805 C   0  0  0  0  0  0  0  0  0  0  0  0
  -37.9481   60.2257   60.6273 C   0  0  0  0  0  0  0  0  0  0  0  0
  -38.3658   60.6710   61.9428 O   0  0  0  0  0  0  0  0  0  0  0  0
  -38.3237   61.0027   64.7827 O   0  0  0  0  0  0  0  0  0  0  0  0
  -34.3021   61.8717   64.0966 O   0  0  0  0  0  0  0  0  0  0  0  0
  -36.4271   62.1293   61.9581 O   0  0  0  0  0  0  0  0  0  0  0  0
  -37.6202   61.7182   62.6689 C   0  0  0  0  0  0  0  0  0  0  0  0
  -37.1669   61.3614   64.0919 C   0  0  0  0  0  0  0  0  0  0  0  0
  -36.4977   62.5339   64.8421 C   0  0  0  0  0  0  0  0  0  0  0  0
  -35.2811   62.9063   64.0405 C   0  0  0  0  0  0  0  0  0  0  0  0
  -35.6806   63.1951   62.6048 C   0  0  0  0  0  0  0  0  0  0  0  0
  -38.7582   60.2661   64.3251 H   0  0  0  0  0  0  0  0  0  0  0  0
  -34.0618   61.7038   65.0214 H   0  0  0  0  0  0  0  0  0  0  0  0
  -33.5831   64.3113   62.8659 O   0  0  0  0  0  0  0  0  0  0  0  0
  -34.3293   63.5333   61.9789 C   0  0  0  0  0  0  0  0  0  0  0  0
  -32.7255   64.5247   62.4662 H   0  0  0  0  0  0  0  0  0  0  0  0
  -36.0260   62.2455   66.1779 O   0  0  0  0  0  0  0  0  0  0  0  0
  -36.2425   64.0254   68.0494 O   0  0  0  0  0  0  0  0  0  0  0  0
  -34.6902   64.3936   66.2207 O   0  0  0  0  0  0  0  0  0  0  0  0
  -34.1598   62.7998   67.9680 O   0  0  0  0  0  0  0  0  0  0  0  0
  -35.2591   63.3691   67.1378 S   0  0  0  0  0  0  0  0  0  0  0  0
  -36.9669   64.4025   67.5259 H   0  0  0  0  0  0  0  0  0  0  0  0
  -34.5221   62.1304   68.5693 H   0  0  0  0  0  0  0  0  0  0  0  0
  2  1  1  0  0  0
  2  4  1  0  0  0
  2  5  1  0  0  0
 41 42  1  0  0  0
 41  1  1  0  0  0
 42 46  1  0  0  0
  1 24  1  0  0  0
 23 24  1  0  0  0
 23 25  1  0  0  0
 24 26  1  0  0  0
  3  4  2  0  0  0
 26 27  2  0  0  0
 27 28  1  0  0  0
 43 47  1  0  0  0
 43 51  1  0  0  0
 28 29  1  0  0  0
 56 48  1  0  0  0
 56 60  1  0  0  0
 29 30  1  0  0  0
 57 60  1  0  0  0
 57 61  1  0  0  0
 30 31  1  0  0  0
 44 49  1  0  0  0
 44 52  1  0  0  0
 31 32  1  0  0  0
 45 46  1  0  0  0
 45 50  1  0  0  0
 32 33  1  0  0  0
 53 54  1  0  0  0
 53 55  1  0  0  0
 33 34  1  0  0  0
 34 35  1  0  0  0
 35 36  1  0  0  0
 58 60  1  0  0  0
 36 37  1  0  0  0
 59 60  1  0  0  0
 59 62  1  0  0  0
 37 38  1  0  0  0
 38 39  1  0  0  0
 39 40  1  0  0  0
  4  6  1  0  0  0
  6  7  1  0  0  0
  7  8  1  0  0  0
  8  9  1  0  0  0
  9 10  1  0  0  0
 10 11  1  0  0  0
 11 12  1  0  0  0
 12 13  1  0  0  0
 13 14  1  0  0  0
 14 15  1  0  0  0
 15 16  1  0  0  0
 16 17  1  0  0  0
 17 18  1  0  0  0
 18 19  1  0  0  0
 19 20  1  0  0  0
 20 21  1  0  0  0
 21 22  1  0  0  0
 46 47  1  0  0  0
 47 48  1  0  0  0
 48 49  1  0  0  0
 49 50  1  0  0  0
 50 54  1  0  0  0
M  CHG 1  58  -1
M  END
> <minimizedAffinity>
-8.73224

> <CNNscore>
0.2359255701

> <CNNaffinity>
6.8783364296

> <CNN_VS>
1.6227754354

> <CNNaffinity_variance>
1.5396846533

$$$$
/media/chris/experiments/cd1a-new-docking/inputs/ligands/1onq_ligand.pdb


 62 62  0  0  0  0  0  0  0  0999 V2000
  -39.3166   59.6968   63.5419 C   0  0  0  0  0  0  0  0  0  0  0  0
  -39.2748   58.4816   62.7529 N   0  0  0  0  0  0  0  0  0  0  0  0
  -38.4574   56.4412   62.1905 O   0  0  0  0  0  0  0  0  0  0  0  0
  -38.4530   57.4326   62.8941 C   0  0  0  0  0  0  0  0  0  0  0  0
  -39.9318   58.4191   62.0224 H   0  0  0  0  0  0  0  0  0  0  0  0
  -37.4648   57.5433   64.0170 C   0  0  0  0  0  0  0  0  0  0  0  0
  -36.0767   57.4491   63.3835 C   0  0  0  0  0  0  0  0  0  0  0  0
  -35.4506   58.8384   63.2901 C   0  0  0  0  0  0  0  0  0  0  0  0
  -34.0495   58.9727   63.8352 C   0  0  0  0  0  0  0  0  0  0  0  0
  -33.2304   59.7546   62.8135 C   0  0  0  0  0  0  0  0  0  0  0  0
  -32.4470   58.8434   61.8592 C   0  0  0  0  0  0  0  0  0  0  0  0
  -32.1711   57.4341   62.4148 C   0  0  0  0  0  0  0  0  0  0  0  0
  -33.0103   56.3397   61.7195 C   0  0  0  0  0  0  0  0  0  0  0  0
  -33.7756   56.9217   60.5276 C   0  0  0  0  0  0  0  0  0  0  0  0
  -34.0782   55.9313   59.4096 C   0  0  0  0  0  0  0  0  0  0  0  0
  -35.3688   55.1630   59.6526 C   0  0  0  0  0  0  0  0  0  0  0  0
  -36.5178   55.4585   58.6860 C   0  0  0  0  0  0  0  0  0  0  0  0
  -36.1679   56.7156   57.9011 C   0  0  0  0  0  0  0  0  0  0  0  0
  -37.1421   57.8842   57.9236 C   0  0  0  0  0  0  0  0  0  0  0  0
  -37.5852   58.2032   59.3603 C   0  0  0  0  0  0  0  0  0  0  0  0
  -37.9459   59.6801   59.6042 C   0  0  0  0  0  0  0  0  0  0  0  0
  -39.4500   59.9437   59.5970 C   0  0  0  0  0  0  0  0  0  0  0  0
  -40.9041   61.2745   64.1637 O   0  0  0  0  0  0  0  0  0  0  0  0
  -40.8081   59.9441   63.6899 C   0  0  0  0  0  0  0  0  0  0  0  0
  -40.5232   61.8795   63.5081 H   0  0  0  0  0  0  0  0  0  0  0  0
  -41.3933   58.9353   64.6810 C   0  0  0  0  0  0  0  0  0  0  0  0
  -41.9693   59.2977   65.8400 C   0  0  0  0  0  0  0  0  0  0  0  0
  -42.5295   58.2295   66.7772 C   0  0  0  0  0  0  0  0  0  0  0  0
  -43.8906   57.6696   66.3386 C   0  0  0  0  0  0  0  0  0  0  0  0
  -45.1112   58.5469   66.6731 C   0  0  0  0  0  0  0  0  0  0  0  0
  -45.6244   59.2785   65.4095 C   0  0  0  0  0  0  0  0  0  0  0  0
  -47.1653   59.3941   65.2917 C   0  0  0  0  0  0  0  0  0  0  0  0
  -47.8350   58.2092   64.5567 C   0  0  0  0  0  0  0  0  0  0  0  0
  -49.3379   58.4260   64.2767 C   0  0  0  0  0  0  0  0  0  0  0  0
  -49.6619   58.6711   62.7982 C   0  0  0  0  0  0  0  0  0  0  0  0
  -50.9671   58.0645   62.2874 C   0  0  0  0  0  0  0  0  0  0  0  0
  -50.8582   57.4359   60.8843 C   0  0  0  0  0  0  0  0  0  0  0  0
  -49.6710   57.9222   60.0391 C   0  0  0  0  0  0  0  0  0  0  0  0
  -49.1335   56.7986   59.1483 C   0  0  0  0  0  0  0  0  0  0  0  0
  -47.9046   57.1246   58.3181 C   0  0  0  0  0  0  0  0  0  0  0  0
  -38.4619   60.8680   63.0064 C   0  0  0  0  0  0  0  0  0  0  0  0
  -38.1102   61.9027   63.9599 O   0  0  0  0  0  0  0  0  0  0  0  0
  -36.0914   62.6027   62.0595 O   0  0  0  0  0  0  0  0  0  0  0  0
  -34.9156   65.2442   65.0659 O   0  0  0  0  0  0  0  0  0  0  0  0
  -36.5512   62.7575   65.6104 O   0  0  0  0  0  0  0  0  0  0  0  0
  -36.7003   62.1990   64.2824 C   0  0  0  0  0  0  0  0  0  0  0  0
  -35.9778   63.1636   63.3309 C   0  0  0  0  0  0  0  0  0  0  0  0
  -34.4773   63.3421   63.6500 C   0  0  0  0  0  0  0  0  0  0  0  0
  -34.4078   63.9125   65.0397 C   0  0  0  0  0  0  0  0  0  0  0  0
  -35.1764   63.0221   65.9993 C   0  0  0  0  0  0  0  0  0  0  0  0
  -37.0289   62.4830   61.8415 H   0  0  0  0  0  0  0  0  0  0  0  0
  -34.4111   65.7948   64.4467 H   0  0  0  0  0  0  0  0  0  0  0  0
  -36.2398   64.0472   67.8787 O   0  0  0  0  0  0  0  0  0  0  0  0
  -34.9918   63.7707   67.3175 C   0  0  0  0  0  0  0  0  0  0  0  0
  -36.1199   64.5226   68.7156 H   0  0  0  0  0  0  0  0  0  0  0  0
  -33.7533   64.2619   62.8015 O   0  0  0  0  0  0  0  0  0  0  0  0
  -31.5212   63.0128   63.2197 O   0  0  0  0  0  0  0  0  0  0  0  0
  -31.6257   65.4164   63.5370 O   0  0  0  0  0  0  0  0  0  0  0  0
  -31.5868   64.4824   61.3008 O   0  0  0  0  0  0  0  0  0  0  0  0
  -32.0923   64.2860   62.6892 S   0  0  0  0  0  0  0  0  0  0  0  0
  -31.8399   62.8677   64.1244 H   0  0  0  0  0  0  0  0  0  0  0  0
  -31.8866   63.7494   60.7408 H   0  0  0  0  0  0  0  0  0  0  0  0
  2  1  1  0  0  0
  2  4  1  0  0  0
  2  5  1  0  0  0
 41 42  1  0  0  0
 41  1  1  0  0  0
 42 46  1  0  0  0
  1 24  1  0  0  0
 23 24  1  0  0  0
 23 25  1  0  0  0
 24 26  1  0  0  0
  3  4  2  0  0  0
 26 27  2  0  0  0
 27 28  1  0  0  0
 43 47  1  0  0  0
 43 51  1  0  0  0
 28 29  1  0  0  0
 56 48  1  0  0  0
 56 60  1  0  0  0
 29 30  1  0  0  0
 57 60  1  0  0  0
 57 61  1  0  0  0
 30 31  1  0  0  0
 44 49  1  0  0  0
 44 52  1  0  0  0
 31 32  1  0  0  0
 45 46  1  0  0  0
 45 50  1  0  0  0
 32 33  1  0  0  0
 53 54  1  0  0  0
 53 55  1  0  0  0
 33 34  1  0  0  0
 34 35  1  0  0  0
 35 36  1  0  0  0
 58 60  1  0  0  0
 36 37  1  0  0  0
 59 60  1  0  0  0
 59 62  1  0  0  0
 37 38  1  0  0  0
 38 39  1  0  0  0
 39 40  1  0  0  0
  4  6  1  0  0  0
  6  7  1  0  0  0
  7  8  1  0  0  0
  8  9  1  0  0  0
  9 10  1  0  0  0
 10 11  1  0  0  0
 11 12  1  0  0  0
 12 13  1  0  0  0
 13 14  1  0  0  0
 14 15  1  0  0  0
 15 16  1  0  0  0
 16 17  1  0  0  0
 17 18  1  0  0  0
 18 19  1  0  0  0
 19 20  1  0  0  0
 20 21  1  0  0  0
 21 22  1  0  0  0
 46 47  1  0  0  0
 47 48  1  0  0  0
 48 49  1  0  0  0
 49 50  1  0  0  0
 50 54  1  0  0  0
M  CHG 1  58  -1
M  END
> <minimizedAffinity>
-9.35631

> <CNNscore>
0.2344837934

> <CNNaffinity>
7.1555910110

> <CNN_VS>
1.6778701544

> <CNNaffinity_variance>
1.3782697916

$$$$
/media/chris/experiments/cd1a-new-docking/inputs/ligands/1onq_ligand.pdb


 62 62  0  0  0  0  0  0  0  0999 V2000
  -40.3083   58.8156   64.8850 C   0  0  0  0  0  0  0  0  0  0  0  0
  -41.1543   58.2495   65.9170 N   0  0  0  0  0  0  0  0  0  0  0  0
  -43.1442   57.8396   66.9267 O   0  0  0  0  0  0  0  0  0  0  0  0
  -42.4874   58.3272   66.0274 C   0  0  0  0  0  0  0  0  0  0  0  0
  -40.6918   57.7453   66.6249 H   0  0  0  0  0  0  0  0  0  0  0  0
  -43.1742   59.0926   64.9356 C   0  0  0  0  0  0  0  0  0  0  0  0
  -44.6560   59.1438   65.3082 C   0  0  0  0  0  0  0  0  0  0  0  0
  -45.4442   58.1578   64.4494 C   0  0  0  0  0  0  0  0  0  0  0  0
  -46.9450   58.1937   64.6063 C   0  0  0  0  0  0  0  0  0  0  0  0
  -47.3345   59.6178   64.9888 C   0  0  0  0  0  0  0  0  0  0  0  0
  -48.7951   59.9443   64.6501 C   0  0  0  0  0  0  0  0  0  0  0  0
  -49.2303   59.5054   63.2399 C   0  0  0  0  0  0  0  0  0  0  0  0
  -50.6553   58.9104   63.2092 C   0  0  0  0  0  0  0  0  0  0  0  0
  -50.8704   58.0895   61.9345 C   0  0  0  0  0  0  0  0  0  0  0  0
  -49.9396   58.4368   60.7790 C   0  0  0  0  0  0  0  0  0  0  0  0
  -49.9734   57.3896   59.6757 C   0  0  0  0  0  0  0  0  0  0  0  0
  -49.2924   56.0567   59.9945 C   0  0  0  0  0  0  0  0  0  0  0  0
  -48.2381   55.7940   58.9278 C   0  0  0  0  0  0  0  0  0  0  0  0
  -48.3175   56.5650   57.6184 C   0  0  0  0  0  0  0  0  0  0  0  0
  -46.9253   57.0434   57.1766 C   0  0  0  0  0  0  0  0  0  0  0  0
  -46.1701   57.8721   58.2320 C   0  0  0  0  0  0  0  0  0  0  0  0
  -44.7385   58.2109   57.8228 C   0  0  0  0  0  0  0  0  0  0  0  0
  -38.2051   57.9604   65.3757 O   0  0  0  0  0  0  0  0  0  0  0  0
  -39.3456   57.6793   64.5860 C   0  0  0  0  0  0  0  0  0  0  0  0
  -38.4525   57.9575   66.3136 H   0  0  0  0  0  0  0  0  0  0  0  0
  -39.0228   57.6688   63.0900 C   0  0  0  0  0  0  0  0  0  0  0  0
  -37.9517   57.0399   62.5767 C   0  0  0  0  0  0  0  0  0  0  0  0
  -37.6976   57.0768   61.0709 C   0  0  0  0  0  0  0  0  0  0  0  0
  -38.1521   58.3788   60.3954 C   0  0  0  0  0  0  0  0  0  0  0  0
  -37.3176   58.8261   59.1809 C   0  0  0  0  0  0  0  0  0  0  0  0
  -37.4552   57.8147   58.0176 C   0  0  0  0  0  0  0  0  0  0  0  0
  -36.4295   56.6530   58.0259 C   0  0  0  0  0  0  0  0  0  0  0  0
  -34.9562   57.1079   57.9039 C   0  0  0  0  0  0  0  0  0  0  0  0
  -33.9849   56.3001   58.7918 C   0  0  0  0  0  0  0  0  0  0  0  0
  -34.4400   56.1758   60.2508 C   0  0  0  0  0  0  0  0  0  0  0  0
  -33.3642   56.4014   61.3112 C   0  0  0  0  0  0  0  0  0  0  0  0
  -32.8911   57.8643   61.4214 C   0  0  0  0  0  0  0  0  0  0  0  0
  -33.0895   58.5147   62.7990 C   0  0  0  0  0  0  0  0  0  0  0  0
  -34.5772   58.6323   63.1423 C   0  0  0  0  0  0  0  0  0  0  0  0
  -34.9303   58.6458   64.6191 C   0  0  0  0  0  0  0  0  0  0  0  0
  -39.6870   60.1920   65.2143 C   0  0  0  0  0  0  0  0  0  0  0  0
  -38.9128   60.8222   64.1622 O   0  0  0  0  0  0  0  0  0  0  0  0
  -36.9735   61.2416   62.1030 O   0  0  0  0  0  0  0  0  0  0  0  0
  -35.8355   64.4244   64.5468 O   0  0  0  0  0  0  0  0  0  0  0  0
  -37.3506   62.0183   65.5814 O   0  0  0  0  0  0  0  0  0  0  0  0
  -37.5091   61.2239   64.3807 C   0  0  0  0  0  0  0  0  0  0  0  0
  -36.8520   62.0267   63.2487 C   0  0  0  0  0  0  0  0  0  0  0  0
  -35.3528   62.3154   63.4821 C   0  0  0  0  0  0  0  0  0  0  0  0
  -35.2728   63.1297   64.7438 C   0  0  0  0  0  0  0  0  0  0  0  0
  -35.9788   62.3995   65.8720 C   0  0  0  0  0  0  0  0  0  0  0  0
  -37.9104   61.0498   61.9403 H   0  0  0  0  0  0  0  0  0  0  0  0
  -35.3703   64.8724   63.8229 H   0  0  0  0  0  0  0  0  0  0  0  0
  -36.9146   64.2057   67.1273 O   0  0  0  0  0  0  0  0  0  0  0  0
  -35.7931   63.3803   67.0277 C   0  0  0  0  0  0  0  0  0  0  0  0
  -36.7942   64.8275   67.8618 H   0  0  0  0  0  0  0  0  0  0  0  0
  -34.6898   63.0929   62.4594 O   0  0  0  0  0  0  0  0  0  0  0  0
  -32.4882   63.6957   61.2317 O   0  0  0  0  0  0  0  0  0  0  0  0
  -32.3915   62.5865   63.3880 O   0  0  0  0  0  0  0  0  0  0  0  0
  -32.9670   64.9369   63.2508 O   0  0  0  0  0  0  0  0  0  0  0  0
  -33.1126   63.6112   62.5852 S   0  0  0  0  0  0  0  0  0  0  0  0
  -32.5735   62.8403   60.7823 H   0  0  0  0  0  0  0  0  0  0  0  0
  -33.4345   65.6114   62.7337 H   0  0  0  0  0  0  0  0  0  0  0  0
  2  1  1  0  0  0
  2  4  1  0  0  0
  2  5  1  0  0  0
 41 42  1  0  0  0
 41  1  1  0  0  0
 42 46  1  0  0  0
  1 24  1  0  0  0
 23 24  1  0  0  0
 23 25  1  0  0  0
 24 26  1  0  0  0
  3  4  2  0  0  0
 26 27  2  0  0  0
 27 28  1  0  0  0
 43 47  1  0  0  0
 43 51  1  0  0  0
 28 29  1  0  0  0
 56 48  1  0  0  0
 56 60  1  0  0  0
 29 30  1  0  0  0
 57 60  1  0  0  0
 57 61  1  0  0  0
 30 31  1  0  0  0
 44 49  1  0  0  0
 44 52  1  0  0  0
 31 32  1  0  0  0
 45 46  1  0  0  0
 45 50  1  0  0  0
 32 33  1  0  0  0
 53 54  1  0  0  0
 53 55  1  0  0  0
 33 34  1  0  0  0
 34 35  1  0  0  0
 35 36  1  0  0  0
 58 60  1  0  0  0
 36 37  1  0  0  0
 59 60  1  0  0  0
 59 62  1  0  0  0
 37 38  1  0  0  0
 38 39  1  0  0  0
 39 40  1  0  0  0
  4  6  1  0  0  0
  6  7  1  0  0  0
  7  8  1  0  0  0
  8  9  1  0  0  0
  9 10  1  0  0  0
 10 11  1  0  0  0
 11 12  1  0  0  0
 12 13  1  0  0  0
 13 14  1  0  0  0
 14 15  1  0  0  0
 15 16  1  0  0  0
 16 17  1  0  0  0
 17 18  1  0  0  0
 18 19  1  0  0  0
 19 20  1  0  0  0
 20 21  1  0  0  0
 21 22  1  0  0  0
 46 47  1  0  0  0
 47 48  1  0  0  0
 48 49  1  0  0  0
 49 50  1  0  0  0
 50 54  1  0  0  0
M  CHG 1  58  -1
M  END
> <minimizedAffinity>
-10.39925

> <CNNscore>
0.2278577983

> <CNNaffinity>
6.9679994583

> <CNN_VS>
1.5877130032

> <CNNaffinity_variance>
1.8384081125

$$$$
/media/chris/experiments/cd1a-new-docking/inputs/ligands/1onq_ligand.pdb


 62 62  0  0  0  0  0  0  0  0999 V2000
  -37.6530   59.1343   62.4342 C   0  0  0  0  0  0  0  0  0  0  0  0
  -38.8075   59.9965   62.5919 N   0  0  0  0  0  0  0  0  0  0  0  0
  -40.6911   61.0362   61.8719 O   0  0  0  0  0  0  0  0  0  0  0  0
  -39.7477   60.2929   61.6842 C   0  0  0  0  0  0  0  0  0  0  0  0
  -38.9141   60.4167   63.4758 H   0  0  0  0  0  0  0  0  0  0  0  0
  -39.5720   59.6372   60.3468 C   0  0  0  0  0  0  0  0  0  0  0  0
  -40.4930   60.3776   59.3769 C   0  0  0  0  0  0  0  0  0  0  0  0
  -41.5736   59.4316   58.8587 C   0  0  0  0  0  0  0  0  0  0  0  0
  -41.7906   59.4270   57.3650 C   0  0  0  0  0  0  0  0  0  0  0  0
  -43.0734   58.6498   57.0880 C   0  0  0  0  0  0  0  0  0  0  0  0
  -44.0528   58.6820   58.2689 C   0  0  0  0  0  0  0  0  0  0  0  0
  -45.0645   57.5214   58.2828 C   0  0  0  0  0  0  0  0  0  0  0  0
  -46.4813   57.9547   57.8462 C   0  0  0  0  0  0  0  0  0  0  0  0
  -47.0772   56.9418   56.8643 C   0  0  0  0  0  0  0  0  0  0  0  0
  -48.1973   56.0773   57.4301 C   0  0  0  0  0  0  0  0  0  0  0  0
  -47.8748   55.5523   58.8213 C   0  0  0  0  0  0  0  0  0  0  0  0
  -49.0052   55.6379   59.8495 C   0  0  0  0  0  0  0  0  0  0  0  0
  -49.5101   57.0740   59.8830 C   0  0  0  0  0  0  0  0  0  0  0  0
  -50.8596   57.3577   60.5261 C   0  0  0  0  0  0  0  0  0  0  0  0
  -50.7004   57.6750   62.0215 C   0  0  0  0  0  0  0  0  0  0  0  0
  -50.9372   59.1511   62.3899 C   0  0  0  0  0  0  0  0  0  0  0  0
  -49.7311   60.0447   62.1093 C   0  0  0  0  0  0  0  0  0  0  0  0
  -36.8731   57.1702   63.3983 O   0  0  0  0  0  0  0  0  0  0  0  0
  -37.7064   58.2772   63.6872 C   0  0  0  0  0  0  0  0  0  0  0  0
  -35.9681   57.4800   63.2374 H   0  0  0  0  0  0  0  0  0  0  0  0
  -39.1538   57.8560   63.9519 C   0  0  0  0  0  0  0  0  0  0  0  0
  -39.6968   57.8349   65.1811 C   0  0  0  0  0  0  0  0  0  0  0  0
  -41.1500   57.4007   65.3630 C   0  0  0  0  0  0  0  0  0  0  0  0
  -41.9193   58.2251   66.4056 C   0  0  0  0  0  0  0  0  0  0  0  0
  -42.4247   59.5990   65.9279 C   0  0  0  0  0  0  0  0  0  0  0  0
  -43.6276   59.4381   64.9675 C   0  0  0  0  0  0  0  0  0  0  0  0
  -44.7844   58.5538   65.4981 C   0  0  0  0  0  0  0  0  0  0  0  0
  -45.1607   58.8218   66.9743 C   0  0  0  0  0  0  0  0  0  0  0  0
  -46.3372   57.9580   67.4783 C   0  0  0  0  0  0  0  0  0  0  0  0
  -46.3996   56.5657   66.8391 C   0  0  0  0  0  0  0  0  0  0  0  0
  -47.7131   56.2016   66.1499 C   0  0  0  0  0  0  0  0  0  0  0  0
  -48.2802   57.3197   65.2533 C   0  0  0  0  0  0  0  0  0  0  0  0
  -49.6168   57.9176   65.7185 C   0  0  0  0  0  0  0  0  0  0  0  0
  -49.5286   59.4424   65.8278 C   0  0  0  0  0  0  0  0  0  0  0  0
  -48.2428   60.0814   65.3336 C   0  0  0  0  0  0  0  0  0  0  0  0
  -36.3193   59.8557   62.1350 C   0  0  0  0  0  0  0  0  0  0  0  0
  -35.2020   59.5390   63.0037 O   0  0  0  0  0  0  0  0  0  0  0  0
  -33.1715   61.5179   62.6318 O   0  0  0  0  0  0  0  0  0  0  0  0
  -35.7428   63.8396   64.9549 O   0  0  0  0  0  0  0  0  0  0  0  0
  -35.7821   60.8142   64.9843 O   0  0  0  0  0  0  0  0  0  0  0  0
  -34.7389   60.4908   64.0330 C   0  0  0  0  0  0  0  0  0  0  0  0
  -34.2003   61.8335   63.5183 C   0  0  0  0  0  0  0  0  0  0  0  0
  -33.6229   62.7373   64.6296 C   0  0  0  0  0  0  0  0  0  0  0  0
  -34.7577   63.0174   65.5758 C   0  0  0  0  0  0  0  0  0  0  0  0
  -35.3657   61.7099   66.0500 C   0  0  0  0  0  0  0  0  0  0  0  0
  -33.5162   60.9495   61.9255 H   0  0  0  0  0  0  0  0  0  0  0  0
  -35.3334   64.6682   64.6601 H   0  0  0  0  0  0  0  0  0  0  0  0
  -36.0443   63.3472   67.6539 O   0  0  0  0  0  0  0  0  0  0  0  0
  -36.4782   62.2111   66.9684 C   0  0  0  0  0  0  0  0  0  0  0  0
  -36.7524   63.6636   68.2364 H   0  0  0  0  0  0  0  0  0  0  0  0
  -33.1265   64.0268   64.2045 O   0  0  0  0  0  0  0  0  0  0  0  0
  -33.3066   64.9283   66.6278 O   0  0  0  0  0  0  0  0  0  0  0  0
  -33.9806   66.3396   64.7723 O   0  0  0  0  0  0  0  0  0  0  0  0
  -31.6299   65.9560   65.2210 O   0  0  0  0  0  0  0  0  0  0  0  0
  -32.9839   65.3327   65.2274 S   0  0  0  0  0  0  0  0  0  0  0  0
  -34.1860   64.5198   66.6518 H   0  0  0  0  0  0  0  0  0  0  0  0
  -30.9734   65.3060   65.5166 H   0  0  0  0  0  0  0  0  0  0  0  0
  2  1  1  0  0  0
  2  4  1  0  0  0
  2  5  1  0  0  0
 41 42  1  0  0  0
 41  1  1  0  0  0
 42 46  1  0  0  0
  1 24  1  0  0  0
 23 24  1  0  0  0
 23 25  1  0  0  0
 24 26  1  0  0  0
  3  4  2  0  0  0
 26 27  2  0  0  0
 27 28  1  0  0  0
 43 47  1  0  0  0
 43 51  1  0  0  0
 28 29  1  0  0  0
 56 48  1  0  0  0
 56 60  1  0  0  0
 29 30  1  0  0  0
 57 60  1  0  0  0
 57 61  1  0  0  0
 30 31  1  0  0  0
 44 49  1  0  0  0
 44 52  1  0  0  0
 31 32  1  0  0  0
 45 46  1  0  0  0
 45 50  1  0  0  0
 32 33  1  0  0  0
 53 54  1  0  0  0
 53 55  1  0  0  0
 33 34  1  0  0  0
 34 35  1  0  0  0
 35 36  1  0  0  0
 58 60  1  0  0  0
 36 37  1  0  0  0
 59 60  1  0  0  0
 59 62  1  0  0  0
 37 38  1  0  0  0
 38 39  1  0  0  0
 39 40  1  0  0  0
  4  6  1  0  0  0
  6  7  1  0  0  0
  7  8  1  0  0  0
  8  9  1  0  0  0
  9 10  1  0  0  0
 10 11  1  0  0  0
 11 12  1  0  0  0
 12 13  1  0  0  0
 13 14  1  0  0  0
 14 15  1  0  0  0
 15 16  1  0  0  0
 16 17  1  0  0  0
 17 18  1  0  0  0
 18 19  1  0  0  0
 19 20  1  0  0  0
 20 21  1  0  0  0
 21 22  1  0  0  0
 46 47  1  0  0  0
 47 48  1  0  0  0
 48 49  1  0  0  0
 49 50  1  0  0  0
 50 54  1  0  0  0
M  CHG 1  58  -1
M  END
> <minimizedAffinity>
-8.30524

> <CNNscore>
0.2180080116

> <CNNaffinity>
6.8027105331

> <CNN_VS>
1.4830453396

> <CNNaffinity_variance>
0.7920258641

$$$$
/media/chris/experiments/cd1a-new-docking/inputs/ligands/1onq_ligand.pdb


 62 62  0  0  0  0  0  0  0  0999 V2000
  -37.7943   59.8156   61.3655 C   0  0  0  0  0  0  0  0  0  0  0  0
  -37.5600   59.5984   59.9516 N   0  0  0  0  0  0  0  0  0  0  0  0
  -37.0352   58.3366   58.1407 O   0  0  0  0  0  0  0  0  0  0  0  0
  -37.2317   58.4552   59.3345 C   0  0  0  0  0  0  0  0  0  0  0  0
  -37.6535   60.3893   59.3728 H   0  0  0  0  0  0  0  0  0  0  0  0
  -37.1016   57.2606   60.2320 C   0  0  0  0  0  0  0  0  0  0  0  0
  -36.5479   56.1276   59.3678 C   0  0  0  0  0  0  0  0  0  0  0  0
  -35.1953   55.6715   59.9097 C   0  0  0  0  0  0  0  0  0  0  0  0
  -34.1803   56.7600   60.1614 C   0  0  0  0  0  0  0  0  0  0  0  0
  -33.6086   56.5428   61.5586 C   0  0  0  0  0  0  0  0  0  0  0  0
  -33.6226   57.8195   62.4099 C   0  0  0  0  0  0  0  0  0  0  0  0
  -34.4706   57.7157   63.6909 C   0  0  0  0  0  0  0  0  0  0  0  0
  -35.8787   57.1356   63.4334 C   0  0  0  0  0  0  0  0  0  0  0  0
  -36.7139   57.1554   64.7168 C   0  0  0  0  0  0  0  0  0  0  0  0
  -37.7988   58.2245   64.7639 C   0  0  0  0  0  0  0  0  0  0  0  0
  -39.1856   57.6312   64.9636 C   0  0  0  0  0  0  0  0  0  0  0  0
  -40.3619   58.5264   64.5675 C   0  0  0  0  0  0  0  0  0  0  0  0
  -40.6842   59.4371   65.7445 C   0  0  0  0  0  0  0  0  0  0  0  0
  -42.1099   59.4656   66.2755 C   0  0  0  0  0  0  0  0  0  0  0  0
  -43.0946   58.9040   65.2376 C   0  0  0  0  0  0  0  0  0  0  0  0
  -44.5720   58.9497   65.6689 C   0  0  0  0  0  0  0  0  0  0  0  0
  -45.4780   58.0649   64.8156 C   0  0  0  0  0  0  0  0  0  0  0  0
  -39.2646   60.9862   62.7307 O   0  0  0  0  0  0  0  0  0  0  0  0
  -39.0255   60.7053   61.3641 C   0  0  0  0  0  0  0  0  0  0  0  0
  -38.5038   61.4603   63.1012 H   0  0  0  0  0  0  0  0  0  0  0  0
  -40.1921   59.9554   60.7168 C   0  0  0  0  0  0  0  0  0  0  0  0
  -40.6830   60.2704   59.5060 C   0  0  0  0  0  0  0  0  0  0  0  0
  -41.8513   59.4735   58.9284 C   0  0  0  0  0  0  0  0  0  0  0  0
  -41.8903   59.4517   57.3934 C   0  0  0  0  0  0  0  0  0  0  0  0
  -43.0879   58.7130   56.7676 C   0  0  0  0  0  0  0  0  0  0  0  0
  -44.1509   58.3810   57.8424 C   0  0  0  0  0  0  0  0  0  0  0  0
  -45.4138   57.6501   57.3204 C   0  0  0  0  0  0  0  0  0  0  0  0
  -46.7169   58.0285   58.0629 C   0  0  0  0  0  0  0  0  0  0  0  0
  -46.9161   57.2640   59.3896 C   0  0  0  0  0  0  0  0  0  0  0  0
  -48.2059   57.6372   60.1301 C   0  0  0  0  0  0  0  0  0  0  0  0
  -49.4114   56.7349   59.8753 C   0  0  0  0  0  0  0  0  0  0  0  0
  -50.6865   57.1671   60.6258 C   0  0  0  0  0  0  0  0  0  0  0  0
  -50.5800   58.4987   61.3846 C   0  0  0  0  0  0  0  0  0  0  0  0
  -51.0072   58.3343   62.8459 C   0  0  0  0  0  0  0  0  0  0  0  0
  -51.1778   59.6128   63.6473 C   0  0  0  0  0  0  0  0  0  0  0  0
  -36.5735   60.3099   62.1744 C   0  0  0  0  0  0  0  0  0  0  0  0
  -36.8056   61.4091   63.0916 O   0  0  0  0  0  0  0  0  0  0  0  0
  -36.9000   63.5088   65.0305 O   0  0  0  0  0  0  0  0  0  0  0  0
  -32.7466   63.2391   64.7558 O   0  0  0  0  0  0  0  0  0  0  0  0
  -34.6039   62.2823   62.5671 O   0  0  0  0  0  0  0  0  0  0  0  0
  -35.9063   62.5793   63.1269 C   0  0  0  0  0  0  0  0  0  0  0  0
  -35.6458   63.1898   64.5115 C   0  0  0  0  0  0  0  0  0  0  0  0
  -34.7954   64.4785   64.4714 C   0  0  0  0  0  0  0  0  0  0  0  0
  -33.4720   64.0905   63.8721 C   0  0  0  0  0  0  0  0  0  0  0  0
  -33.6938   63.4145   62.5311 C   0  0  0  0  0  0  0  0  0  0  0  0
  -37.4490   62.7098   65.0633 H   0  0  0  0  0  0  0  0  0  0  0  0
  -32.6163   63.6900   65.6048 H   0  0  0  0  0  0  0  0  0  0  0  0
  -31.7449   64.1623   61.3664 O   0  0  0  0  0  0  0  0  0  0  0  0
  -32.2594   63.1000   62.1120 C   0  0  0  0  0  0  0  0  0  0  0  0
  -30.8340   63.9602   61.1015 H   0  0  0  0  0  0  0  0  0  0  0  0
  -34.4959   65.0810   65.7510 O   0  0  0  0  0  0  0  0  0  0  0  0
  -34.0759   65.0627   68.3084 O   0  0  0  0  0  0  0  0  0  0  0  0
  -34.0911   62.9683   67.0827 O   0  0  0  0  0  0  0  0  0  0  0  0
  -36.1712   64.1184   67.5570 O   0  0  0  0  0  0  0  0  0  0  0  0
  -34.7350   64.3044   67.2042 S   0  0  0  0  0  0  0  0  0  0  0  0
  -33.1385   65.1937   68.0961 H   0  0  0  0  0  0  0  0  0  0  0  0
  -36.5990   64.9852   67.6383 H   0  0  0  0  0  0  0  0  0  0  0  0
  2  1  1  0  0  0
  2  4  1  0  0  0
  2  5  1  0  0  0
 41 42  1  0  0  0
 41  1  1  0  0  0
 42 46  1  0  0  0
  1 24  1  0  0  0
 23 24  1  0  0  0
 23 25  1  0  0  0
 24 26  1  0  0  0
  3  4  2  0  0  0
 26 27  2  0  0  0
 27 28  1  0  0  0
 43 47  1  0  0  0
 43 51  1  0  0  0
 28 29  1  0  0  0
 56 48  1  0  0  0
 56 60  1  0  0  0
 29 30  1  0  0  0
 57 60  1  0  0  0
 57 61  1  0  0  0
 30 31  1  0  0  0
 44 49  1  0  0  0
 44 52  1  0  0  0
 31 32  1  0  0  0
 45 46  1  0  0  0
 45 50  1  0  0  0
 32 33  1  0  0  0
 53 54  1  0  0  0
 53 55  1  0  0  0
 33 34  1  0  0  0
 34 35  1  0  0  0
 35 36  1  0  0  0
 58 60  1  0  0  0
 36 37  1  0  0  0
 59 60  1  0  0  0
 59 62  1  0  0  0
 37 38  1  0  0  0
 38 39  1  0  0  0
 39 40  1  0  0  0
  4  6  1  0  0  0
  6  7  1  0  0  0
  7  8  1  0  0  0
  8  9  1  0  0  0
  9 10  1  0  0  0
 10 11  1  0  0  0
 11 12  1  0  0  0
 12 13  1  0  0  0
 13 14  1  0  0  0
 14 15  1  0  0  0
 15 16  1  0  0  0
 16 17  1  0  0  0
 17 18  1  0  0  0
 18 19  1  0  0  0
 19 20  1  0  0  0
 20 21  1  0  0  0
 21 22  1  0  0  0
 46 47  1  0  0  0
 47 48  1  0  0  0
 48 49  1  0  0  0
 49 50  1  0  0  0
 50 54  1  0  0  0
M  CHG 1  58  -1
M  END
> <minimizedAffinity>
-8.75006

> <CNNscore>
0.2137560844

> <CNNaffinity>
6.7075386047

> <CNN_VS>
1.4337772131

> <CNNaffinity_variance>
1.2570850849

$$$$
