/media/chris/experiments/cd1a-new-docking/inputs/ligands/1onq_ligand.pdb


 62 62  0  0  0  0  0  0  0  0999 V2000
  -38.7743   59.8313   60.9896 C   0  0  0  0  0  0  0  0  0  0  0  0
  -37.9086   59.6886   59.8358 N   0  0  0  0  0  0  0  0  0  0  0  0
  -36.5085   58.5455   58.4643 O   0  0  0  0  0  0  0  0  0  0  0  0
  -37.2323   58.6017   59.4395 C   0  0  0  0  0  0  0  0  0  0  0  0
  -37.8045   60.4898   59.2733 H   0  0  0  0  0  0  0  0  0  0  0  0
  -37.4100   57.3895   60.3047 C   0  0  0  0  0  0  0  0  0  0  0  0
  -36.6408   56.2561   59.6259 C   0  0  0  0  0  0  0  0  0  0  0  0
  -35.4387   55.8575   60.4788 C   0  0  0  0  0  0  0  0  0  0  0  0
  -34.0894   56.3106   59.9763 C   0  0  0  0  0  0  0  0  0  0  0  0
  -33.6013   57.4195   60.9026 C   0  0  0  0  0  0  0  0  0  0  0  0
  -34.0558   57.2219   62.3550 C   0  0  0  0  0  0  0  0  0  0  0  0
  -34.4810   58.5194   63.0665 C   0  0  0  0  0  0  0  0  0  0  0  0
  -35.2776   58.2594   64.3639 C   0  0  0  0  0  0  0  0  0  0  0  0
  -36.5856   57.5249   64.0566 C   0  0  0  0  0  0  0  0  0  0  0  0
  -37.8118   58.0580   64.7877 C   0  0  0  0  0  0  0  0  0  0  0  0
  -39.1110   57.5350   64.1932 C   0  0  0  0  0  0  0  0  0  0  0  0
  -40.3289   58.4516   64.3311 C   0  0  0  0  0  0  0  0  0  0  0  0
  -40.3355   59.0251   65.7416 C   0  0  0  0  0  0  0  0  0  0  0  0
  -41.6633   59.4532   66.3486 C   0  0  0  0  0  0  0  0  0  0  0  0
  -42.7661   58.4289   66.0373 C   0  0  0  0  0  0  0  0  0  0  0  0
  -44.1373   59.0472   65.7075 C   0  0  0  0  0  0  0  0  0  0  0  0
  -44.9993   58.1614   64.8110 C   0  0  0  0  0  0  0  0  0  0  0  0
  -41.0273   60.2533   61.3658 O   0  0  0  0  0  0  0  0  0  0  0  0
  -40.0212   60.4604   60.3920 C   0  0  0  0  0  0  0  0  0  0  0  0
  -40.7798   60.7052   62.1876 H   0  0  0  0  0  0  0  0  0  0  0  0
  -40.3512   59.7709   59.0661 C   0  0  0  0  0  0  0  0  0  0  0  0
  -41.5979   59.6979   58.5695 C   0  0  0  0  0  0  0  0  0  0  0  0
  -41.8460   58.9908   57.2384 C   0  0  0  0  0  0  0  0  0  0  0  0
  -43.3214   58.6527   56.9796 C   0  0  0  0  0  0  0  0  0  0  0  0
  -44.1437   58.2629   58.2218 C   0  0  0  0  0  0  0  0  0  0  0  0
  -45.6449   58.1333   57.8682 C   0  0  0  0  0  0  0  0  0  0  0  0
  -46.5374   57.5294   58.9819 C   0  0  0  0  0  0  0  0  0  0  0  0
  -47.8245   56.8472   58.4619 C   0  0  0  0  0  0  0  0  0  0  0  0
  -48.8224   56.4770   59.5805 C   0  0  0  0  0  0  0  0  0  0  0  0
  -50.0891   57.3411   59.5891 C   0  0  0  0  0  0  0  0  0  0  0  0
  -50.9153   57.3086   60.8730 C   0  0  0  0  0  0  0  0  0  0  0  0
  -50.6669   58.5089   61.8077 C   0  0  0  0  0  0  0  0  0  0  0  0
  -50.1339   58.1524   63.2037 C   0  0  0  0  0  0  0  0  0  0  0  0
  -50.7387   59.0664   64.2732 C   0  0  0  0  0  0  0  0  0  0  0  0
  -51.7209   60.1172   63.7865 C   0  0  0  0  0  0  0  0  0  0  0  0
  -38.1461   60.5430   62.2093 C   0  0  0  0  0  0  0  0  0  0  0  0
  -36.9773   61.3618   61.9508 O   0  0  0  0  0  0  0  0  0  0  0  0
  -35.2280   63.6200   61.8181 O   0  0  0  0  0  0  0  0  0  0  0  0
  -36.6084   64.2576   65.7023 O   0  0  0  0  0  0  0  0  0  0  0  0
  -36.6908   61.5508   64.3525 O   0  0  0  0  0  0  0  0  0  0  0  0
  -36.1225   61.8454   63.0533 C   0  0  0  0  0  0  0  0  0  0  0  0
  -35.8094   63.3486   63.0560 C   0  0  0  0  0  0  0  0  0  0  0  0
  -34.8179   63.7737   64.1613 C   0  0  0  0  0  0  0  0  0  0  0  0
  -35.4730   63.4275   65.4697 C   0  0  0  0  0  0  0  0  0  0  0  0
  -35.8652   61.9610   65.4757 C   0  0  0  0  0  0  0  0  0  0  0  0
  -35.8377   63.3590   61.1104 H   0  0  0  0  0  0  0  0  0  0  0  0
  -36.3354   65.1883   65.6945 H   0  0  0  0  0  0  0  0  0  0  0  0
  -35.8200   62.6252   67.7714 O   0  0  0  0  0  0  0  0  0  0  0  0
  -36.5068   61.8269   66.8550 C   0  0  0  0  0  0  0  0  0  0  0  0
  -36.2293   62.5383   68.6465 H   0  0  0  0  0  0  0  0  0  0  0  0
  -34.5086   65.1844   64.2276 O   0  0  0  0  0  0  0  0  0  0  0  0
  -32.4547   66.5876   63.5000 O   0  0  0  0  0  0  0  0  0  0  0  0
  -32.1260   64.5862   64.8325 O   0  0  0  0  0  0  0  0  0  0  0  0
  -32.9875   66.6060   65.8585 O   0  0  0  0  0  0  0  0  0  0  0  0
  -33.0017   65.7711   64.6238 S   0  0  0  0  0  0  0  0  0  0  0  0
  -32.4561   66.0597   62.6863 H   0  0  0  0  0  0  0  0  0  0  0  0
  -33.5563   67.3813   65.7311 H   0  0  0  0  0  0  0  0  0  0  0  0
  2  1  1  0  0  0
  2  4  1  0  0  0
  2  5  1  0  0  0
 41 42  1  0  0  0
 41  1  1  0  0  0
 42 46  1  0  0  0
  1 24  1  0  0  0
 23 24  1  0  0  0
 23 25  1  0  0  0
 24 26  1  0  0  0
  3  4  2  0  0  0
 26 27  2  0  0  0
 27 28  1  0  0  0
 43 47  1  0  0  0
 43 51  1  0  0  0
 28 29  1  0  0  0
 56 48  1  0  0  0
 56 60  1  0  0  0
 29 30  1  0  0  0
 57 60  1  0  0  0
 57 61  1  0  0  0
 30 31  1  0  0  0
 44 49  1  0  0  0
 44 52  1  0  0  0
 31 32  1  0  0  0
 45 46  1  0  0  0
 45 50  1  0  0  0
 32 33  1  0  0  0
 53 54  1  0  0  0
 53 55  1  0  0  0
 33 34  1  0  0  0
 34 35  1  0  0  0
 35 36  1  0  0  0
 58 60  1  0  0  0
 36 37  1  0  0  0
 59 60  1  0  0  0
 59 62  1  0  0  0
 37 38  1  0  0  0
 38 39  1  0  0  0
 39 40  1  0  0  0
  4  6  1  0  0  0
  6  7  1  0  0  0
  7  8  1  0  0  0
  8  9  1  0  0  0
  9 10  1  0  0  0
 10 11  1  0  0  0
 11 12  1  0  0  0
 12 13  1  0  0  0
 13 14  1  0  0  0
 14 15  1  0  0  0
 15 16  1  0  0  0
 16 17  1  0  0  0
 17 18  1  0  0  0
 18 19  1  0  0  0
 19 20  1  0  0  0
 20 21  1  0  0  0
 21 22  1  0  0  0
 46 47  1  0  0  0
 47 48  1  0  0  0
 48 49  1  0  0  0
 49 50  1  0  0  0
 50 54  1  0  0  0
M  CHG 1  58  -1
M  END
> <minimizedAffinity>
-9.26980

> <CNNscore>
0.3935995698

> <CNNaffinity>
7.1739168167

> <CNN_VS>
2.8236505985

> <CNNaffinity_variance>
1.0804927349

$$$$
/media/chris/experiments/cd1a-new-docking/inputs/ligands/1onq_ligand.pdb


 62 62  0  0  0  0  0  0  0  0999 V2000
  -40.1754   59.1893   64.9355 C   0  0  0  0  0  0  0  0  0  0  0  0
  -39.7846   58.4728   63.7376 N   0  0  0  0  0  0  0  0  0  0  0  0
  -38.4639   57.0715   62.5376 O   0  0  0  0  0  0  0  0  0  0  0  0
  -38.7501   57.6367   63.5752 C   0  0  0  0  0  0  0  0  0  0  0  0
  -40.3495   58.6186   62.9446 H   0  0  0  0  0  0  0  0  0  0  0  0
  -37.9063   57.4216   64.7965 C   0  0  0  0  0  0  0  0  0  0  0  0
  -36.4951   57.1092   64.2987 C   0  0  0  0  0  0  0  0  0  0  0  0
  -35.7344   58.4073   64.0385 C   0  0  0  0  0  0  0  0  0  0  0  0
  -34.2347   58.3404   64.1961 C   0  0  0  0  0  0  0  0  0  0  0  0
  -33.6176   59.2104   63.1060 C   0  0  0  0  0  0  0  0  0  0  0  0
  -32.4322   58.5321   62.4062 C   0  0  0  0  0  0  0  0  0  0  0  0
  -32.7349   57.1179   61.8779 C   0  0  0  0  0  0  0  0  0  0  0  0
  -33.7722   57.1139   60.7335 C   0  0  0  0  0  0  0  0  0  0  0  0
  -34.7960   55.9935   60.9366 C   0  0  0  0  0  0  0  0  0  0  0  0
  -35.2168   55.2661   59.6654 C   0  0  0  0  0  0  0  0  0  0  0  0
  -36.5094   55.8198   59.0843 C   0  0  0  0  0  0  0  0  0  0  0  0
  -36.3628   56.7032   57.8431 C   0  0  0  0  0  0  0  0  0  0  0  0
  -36.8802   58.0938   58.1850 C   0  0  0  0  0  0  0  0  0  0  0  0
  -37.6319   58.2911   59.4931 C   0  0  0  0  0  0  0  0  0  0  0  0
  -38.0272   59.7640   59.6835 C   0  0  0  0  0  0  0  0  0  0  0  0
  -39.2951   59.9807   60.5300 C   0  0  0  0  0  0  0  0  0  0  0  0
  -40.5455   60.2336   59.6910 C   0  0  0  0  0  0  0  0  0  0  0  0
  -41.4256   61.1436   64.8211 O   0  0  0  0  0  0  0  0  0  0  0  0
  -41.5314   59.7577   64.5537 C   0  0  0  0  0  0  0  0  0  0  0  0
  -40.7285   61.5276   64.2667 H   0  0  0  0  0  0  0  0  0  0  0  0
  -42.6177   59.0885   65.3988 C   0  0  0  0  0  0  0  0  0  0  0  0
  -43.9138   59.0699   65.0436 C   0  0  0  0  0  0  0  0  0  0  0  0
  -44.9389   58.3815   65.9429 C   0  0  0  0  0  0  0  0  0  0  0  0
  -46.1371   59.2681   66.3118 C   0  0  0  0  0  0  0  0  0  0  0  0
  -47.0641   59.6554   65.1447 C   0  0  0  0  0  0  0  0  0  0  0  0
  -47.6372   58.3932   64.4564 C   0  0  0  0  0  0  0  0  0  0  0  0
  -49.1549   58.1582   64.6628 C   0  0  0  0  0  0  0  0  0  0  0  0
  -50.0539   59.2724   64.0770 C   0  0  0  0  0  0  0  0  0  0  0  0
  -50.9208   58.8051   62.8879 C   0  0  0  0  0  0  0  0  0  0  0  0
  -50.2691   57.7036   62.0435 C   0  0  0  0  0  0  0  0  0  0  0  0
  -50.9896   57.3355   60.7483 C   0  0  0  0  0  0  0  0  0  0  0  0
  -50.1111   57.4558   59.4874 C   0  0  0  0  0  0  0  0  0  0  0  0
  -48.6635   57.9047   59.7384 C   0  0  0  0  0  0  0  0  0  0  0  0
  -47.6742   57.0303   58.9626 C   0  0  0  0  0  0  0  0  0  0  0  0
  -46.7634   57.7479   57.9823 C   0  0  0  0  0  0  0  0  0  0  0  0
  -39.1290   60.1838   65.4876 C   0  0  0  0  0  0  0  0  0  0  0  0
  -38.5116   61.0759   64.5252 O   0  0  0  0  0  0  0  0  0  0  0  0
  -36.6396   61.4135   62.3901 O   0  0  0  0  0  0  0  0  0  0  0  0
  -35.5039   64.7557   64.6125 O   0  0  0  0  0  0  0  0  0  0  0  0
  -36.9370   62.3838   65.8273 O   0  0  0  0  0  0  0  0  0  0  0  0
  -37.1113   61.5179   64.6796 C   0  0  0  0  0  0  0  0  0  0  0  0
  -36.5035   62.2665   63.4847 C   0  0  0  0  0  0  0  0  0  0  0  0
  -35.0051   62.5983   63.6577 C   0  0  0  0  0  0  0  0  0  0  0  0
  -34.9080   63.4861   64.8675 C   0  0  0  0  0  0  0  0  0  0  0  0
  -35.5664   62.8088   66.0559 C   0  0  0  0  0  0  0  0  0  0  0  0
  -37.5761   61.1939   62.2658 H   0  0  0  0  0  0  0  0  0  0  0  0
  -35.0689   65.1699   63.8509 H   0  0  0  0  0  0  0  0  0  0  0  0
  -36.4968   63.8955   67.9707 O   0  0  0  0  0  0  0  0  0  0  0  0
  -35.3702   63.8588   67.1472 C   0  0  0  0  0  0  0  0  0  0  0  0
  -36.3698   64.5631   68.6630 H   0  0  0  0  0  0  0  0  0  0  0  0
  -34.3877   63.3281   62.5732 O   0  0  0  0  0  0  0  0  0  0  0  0
  -32.2641   62.6757   61.2384 O   0  0  0  0  0  0  0  0  0  0  0  0
  -32.1282   62.9479   63.6460 O   0  0  0  0  0  0  0  0  0  0  0  0
  -32.2861   64.8913   62.2063 O   0  0  0  0  0  0  0  0  0  0  0  0
  -32.7392   63.4846   62.3997 S   0  0  0  0  0  0  0  0  0  0  0  0
  -32.5502   61.7551   61.3469 H   0  0  0  0  0  0  0  0  0  0  0  0
  -32.6800   65.2493   61.3954 H   0  0  0  0  0  0  0  0  0  0  0  0
  2  1  1  0  0  0
  2  4  1  0  0  0
  2  5  1  0  0  0
 41 42  1  0  0  0
 41  1  1  0  0  0
 42 46  1  0  0  0
  1 24  1  0  0  0
 23 24  1  0  0  0
 23 25  1  0  0  0
 24 26  1  0  0  0
  3  4  2  0  0  0
 26 27  2  0  0  0
 27 28  1  0  0  0
 43 47  1  0  0  0
 43 51  1  0  0  0
 28 29  1  0  0  0
 56 48  1  0  0  0
 56 60  1  0  0  0
 29 30  1  0  0  0
 57 60  1  0  0  0
 57 61  1  0  0  0
 30 31  1  0  0  0
 44 49  1  0  0  0
 44 52  1  0  0  0
 31 32  1  0  0  0
 45 46  1  0  0  0
 45 50  1  0  0  0
 32 33  1  0  0  0
 53 54  1  0  0  0
 53 55  1  0  0  0
 33 34  1  0  0  0
 34 35  1  0  0  0
 35 36  1  0  0  0
 58 60  1  0  0  0
 36 37  1  0  0  0
 59 60  1  0  0  0
 59 62  1  0  0  0
 37 38  1  0  0  0
 38 39  1  0  0  0
 39 40  1  0  0  0
  4  6  1  0  0  0
  6  7  1  0  0  0
  7  8  1  0  0  0
  8  9  1  0  0  0
  9 10  1  0  0  0
 10 11  1  0  0  0
 11 12  1  0  0  0
 12 13  1  0  0  0
 13 14  1  0  0  0
 14 15  1  0  0  0
 15 16  1  0  0  0
 16 17  1  0  0  0
 17 18  1  0  0  0
 18 19  1  0  0  0
 19 20  1  0  0  0
 20 21  1  0  0  0
 21 22  1  0  0  0
 46 47  1  0  0  0
 47 48  1  0  0  0
 48 49  1  0  0  0
 49 50  1  0  0  0
 50 54  1  0  0  0
M  CHG 1  58  -1
M  END
> <minimizedAffinity>
-10.05270

> <CNNscore>
0.3921675086

> <CNNaffinity>
7.4303903580

> <CNN_VS>
2.9139575958

> <CNNaffinity_variance>
1.3882919550

$$$$
/media/chris/experiments/cd1a-new-docking/inputs/ligands/1onq_ligand.pdb


 62 62  0  0  0  0  0  0  0  0999 V2000
  -40.0748   59.2218   65.2454 C   0  0  0  0  0  0  0  0  0  0  0  0
  -39.6253   58.0314   64.5511 N   0  0  0  0  0  0  0  0  0  0  0  0
  -38.8439   56.8912   62.7519 O   0  0  0  0  0  0  0  0  0  0  0  0
  -39.1987   57.9245   63.2854 C   0  0  0  0  0  0  0  0  0  0  0  0
  -39.6348   57.1978   65.0747 H   0  0  0  0  0  0  0  0  0  0  0  0
  -39.1842   59.2064   62.5069 C   0  0  0  0  0  0  0  0  0  0  0  0
  -38.0207   59.1016   61.5209 C   0  0  0  0  0  0  0  0  0  0  0  0
  -38.3480   59.8718   60.2439 C   0  0  0  0  0  0  0  0  0  0  0  0
  -38.4458   59.0512   58.9808 C   0  0  0  0  0  0  0  0  0  0  0  0
  -37.0539   58.5077   58.6754 C   0  0  0  0  0  0  0  0  0  0  0  0
  -37.0678   57.4123   57.6007 C   0  0  0  0  0  0  0  0  0  0  0  0
  -36.5946   56.0338   58.0971 C   0  0  0  0  0  0  0  0  0  0  0  0
  -36.5919   55.9188   59.6373 C   0  0  0  0  0  0  0  0  0  0  0  0
  -35.2345   55.4184   60.1392 C   0  0  0  0  0  0  0  0  0  0  0  0
  -34.0662   56.3646   59.8904 C   0  0  0  0  0  0  0  0  0  0  0  0
  -33.9280   57.4117   60.9856 C   0  0  0  0  0  0  0  0  0  0  0  0
  -32.8044   57.1792   61.9983 C   0  0  0  0  0  0  0  0  0  0  0  0
  -32.4773   58.5110   62.6601 C   0  0  0  0  0  0  0  0  0  0  0  0
  -33.6247   59.4123   63.0916 C   0  0  0  0  0  0  0  0  0  0  0  0
  -34.2754   58.8936   64.3838 C   0  0  0  0  0  0  0  0  0  0  0  0
  -35.7127   58.3694   64.2092 C   0  0  0  0  0  0  0  0  0  0  0  0
  -35.8199   56.8507   64.3253 C   0  0  0  0  0  0  0  0  0  0  0  0
  -40.9666   61.1990   64.4140 O   0  0  0  0  0  0  0  0  0  0  0  0
  -41.1033   59.7959   64.2863 C   0  0  0  0  0  0  0  0  0  0  0  0
  -40.0715   61.4621   64.1489 H   0  0  0  0  0  0  0  0  0  0  0  0
  -42.4983   59.3132   64.6905 C   0  0  0  0  0  0  0  0  0  0  0  0
  -42.8717   59.1434   65.9704 C   0  0  0  0  0  0  0  0  0  0  0  0
  -44.2834   58.6568   66.2923 C   0  0  0  0  0  0  0  0  0  0  0  0
  -45.3690   59.2551   65.3859 C   0  0  0  0  0  0  0  0  0  0  0  0
  -46.7798   59.3337   65.9982 C   0  0  0  0  0  0  0  0  0  0  0  0
  -47.7597   60.0405   65.0310 C   0  0  0  0  0  0  0  0  0  0  0  0
  -48.5519   59.1004   64.0876 C   0  0  0  0  0  0  0  0  0  0  0  0
  -50.0156   59.5361   63.8420 C   0  0  0  0  0  0  0  0  0  0  0  0
  -50.4681   59.3812   62.3739 C   0  0  0  0  0  0  0  0  0  0  0  0
  -51.1957   58.0622   62.0876 C   0  0  0  0  0  0  0  0  0  0  0  0
  -50.7463   57.3046   60.8401 C   0  0  0  0  0  0  0  0  0  0  0  0
  -49.7378   58.0777   59.9677 C   0  0  0  0  0  0  0  0  0  0  0  0
  -48.2846   57.5871   60.0559 C   0  0  0  0  0  0  0  0  0  0  0  0
  -47.8378   56.9512   58.7364 C   0  0  0  0  0  0  0  0  0  0  0  0
  -47.7422   55.4360   58.7154 C   0  0  0  0  0  0  0  0  0  0  0  0
  -38.9564   60.1743   65.7260 C   0  0  0  0  0  0  0  0  0  0  0  0
  -38.3029   60.9729   64.7070 O   0  0  0  0  0  0  0  0  0  0  0  0
  -36.4014   61.5687   62.6560 O   0  0  0  0  0  0  0  0  0  0  0  0
  -35.6859   64.9286   65.0220 O   0  0  0  0  0  0  0  0  0  0  0  0
  -36.9142   62.3854   66.1077 O   0  0  0  0  0  0  0  0  0  0  0  0
  -36.9604   61.5465   64.9280 C   0  0  0  0  0  0  0  0  0  0  0  0
  -36.3899   62.3927   63.7808 C   0  0  0  0  0  0  0  0  0  0  0  0
  -34.9395   62.8658   64.0207 C   0  0  0  0  0  0  0  0  0  0  0  0
  -34.9744   63.7165   65.2602 C   0  0  0  0  0  0  0  0  0  0  0  0
  -35.6021   62.9365   66.4012 C   0  0  0  0  0  0  0  0  0  0  0  0
  -37.3062   61.2614   62.4895 H   0  0  0  0  0  0  0  0  0  0  0  0
  -35.2686   65.4101   64.2907 H   0  0  0  0  0  0  0  0  0  0  0  0
  -34.2674   64.5062   67.6128 O   0  0  0  0  0  0  0  0  0  0  0  0
  -35.5506   63.9625   67.5311 C   0  0  0  0  0  0  0  0  0  0  0  0
  -34.2373   65.1575   68.3311 H   0  0  0  0  0  0  0  0  0  0  0  0
  -34.3615   63.6905   62.9835 O   0  0  0  0  0  0  0  0  0  0  0  0
  -32.0228   62.6283   63.3284 O   0  0  0  0  0  0  0  0  0  0  0  0
  -32.2548   65.0438   63.3453 O   0  0  0  0  0  0  0  0  0  0  0  0
  -32.3647   63.8231   61.2543 O   0  0  0  0  0  0  0  0  0  0  0  0
  -32.7237   63.7873   62.7005 S   0  0  0  0  0  0  0  0  0  0  0  0
  -32.2448   62.5887   64.2719 H   0  0  0  0  0  0  0  0  0  0  0  0
  -32.6669   63.0070   60.8259 H   0  0  0  0  0  0  0  0  0  0  0  0
  2  1  1  0  0  0
  2  4  1  0  0  0
  2  5  1  0  0  0
 41 42  1  0  0  0
 41  1  1  0  0  0
 42 46  1  0  0  0
  1 24  1  0  0  0
 23 24  1  0  0  0
 23 25  1  0  0  0
 24 26  1  0  0  0
  3  4  2  0  0  0
 26 27  2  0  0  0
 27 28  1  0  0  0
 43 47  1  0  0  0
 43 51  1  0  0  0
 28 29  1  0  0  0
 56 48  1  0  0  0
 56 60  1  0  0  0
 29 30  1  0  0  0
 57 60  1  0  0  0
 57 61  1  0  0  0
 30 31  1  0  0  0
 44 49  1  0  0  0
 44 52  1  0  0  0
 31 32  1  0  0  0
 45 46  1  0  0  0
 45 50  1  0  0  0
 32 33  1  0  0  0
 53 54  1  0  0  0
 53 55  1  0  0  0
 33 34  1  0  0  0
 34 35  1  0  0  0
 35 36  1  0  0  0
 58 60  1  0  0  0
 36 37  1  0  0  0
 59 60  1  0  0  0
 59 62  1  0  0  0
 37 38  1  0  0  0
 38 39  1  0  0  0
 39 40  1  0  0  0
  4  6  1  0  0  0
  6  7  1  0  0  0
  7  8  1  0  0  0
  8  9  1  0  0  0
  9 10  1  0  0  0
 10 11  1  0  0  0
 11 12  1  0  0  0
 12 13  1  0  0  0
 13 14  1  0  0  0
 14 15  1  0  0  0
 15 16  1  0  0  0
 16 17  1  0  0  0
 17 18  1  0  0  0
 18 19  1  0  0  0
 19 20  1  0  0  0
 20 21  1  0  0  0
 21 22  1  0  0  0
 46 47  1  0  0  0
 47 48  1  0  0  0
 48 49  1  0  0  0
 49 50  1  0  0  0
 50 54  1  0  0  0
M  CHG 1  58  -1
M  END
> <minimizedAffinity>
-9.59728

> <CNNscore>
0.3469271064

> <CNNaffinity>
7.3216714859

> <CNN_VS>
2.5400862694

> <CNNaffinity_variance>
1.2116215229

$$$$
/media/chris/experiments/cd1a-new-docking/inputs/ligands/1onq_ligand.pdb


 62 62  0  0  0  0  0  0  0  0999 V2000
  -40.0330   58.9765   64.4266 C   0  0  0  0  0  0  0  0  0  0  0  0
  -40.6710   58.0181   65.3073 N   0  0  0  0  0  0  0  0  0  0  0  0
  -42.4232   57.1684   66.4715 O   0  0  0  0  0  0  0  0  0  0  0  0
  -41.9461   57.9954   65.7188 C   0  0  0  0  0  0  0  0  0  0  0  0
  -40.0961   57.2939   65.6450 H   0  0  0  0  0  0  0  0  0  0  0  0
  -42.8076   59.1022   65.1874 C   0  0  0  0  0  0  0  0  0  0  0  0
  -44.1743   58.9457   65.8540 C   0  0  0  0  0  0  0  0  0  0  0  0
  -45.1425   58.2482   64.9015 C   0  0  0  0  0  0  0  0  0  0  0  0
  -46.0760   57.2395   65.5256 C   0  0  0  0  0  0  0  0  0  0  0  0
  -47.4742   57.5046   64.9772 C   0  0  0  0  0  0  0  0  0  0  0  0
  -48.4811   57.8748   66.0746 C   0  0  0  0  0  0  0  0  0  0  0  0
  -49.1439   59.2516   65.8859 C   0  0  0  0  0  0  0  0  0  0  0  0
  -48.4609   60.1020   64.7924 C   0  0  0  0  0  0  0  0  0  0  0  0
  -49.4306   60.3809   63.6407 C   0  0  0  0  0  0  0  0  0  0  0  0
  -50.7685   59.6573   63.7345 C   0  0  0  0  0  0  0  0  0  0  0  0
  -50.9156   58.5760   62.6743 C   0  0  0  0  0  0  0  0  0  0  0  0
  -49.6133   57.9525   62.1666 C   0  0  0  0  0  0  0  0  0  0  0  0
  -49.5164   58.2070   60.6685 C   0  0  0  0  0  0  0  0  0  0  0  0
  -49.9026   57.0884   59.7122 C   0  0  0  0  0  0  0  0  0  0  0  0
  -48.9887   57.0811   58.4766 C   0  0  0  0  0  0  0  0  0  0  0  0
  -47.4873   56.9529   58.7935 C   0  0  0  0  0  0  0  0  0  0  0  0
  -46.6143   57.9020   57.9758 C   0  0  0  0  0  0  0  0  0  0  0  0
  -37.9366   58.0669   64.0100 O   0  0  0  0  0  0  0  0  0  0  0  0
  -39.2488   58.0847   63.4795 C   0  0  0  0  0  0  0  0  0  0  0  0
  -37.9533   57.6839   64.9010 H   0  0  0  0  0  0  0  0  0  0  0  0
  -39.2929   58.6794   62.0700 C   0  0  0  0  0  0  0  0  0  0  0  0
  -38.3559   58.4282   61.1398 C   0  0  0  0  0  0  0  0  0  0  0  0
  -38.4706   59.0615   59.7545 C   0  0  0  0  0  0  0  0  0  0  0  0
  -37.2295   58.8584   58.8734 C   0  0  0  0  0  0  0  0  0  0  0  0
  -37.0132   57.4277   58.3464 C   0  0  0  0  0  0  0  0  0  0  0  0
  -35.5375   57.2121   57.9325 C   0  0  0  0  0  0  0  0  0  0  0  0
  -34.7206   56.2754   58.8581 C   0  0  0  0  0  0  0  0  0  0  0  0
  -35.4236   55.9334   60.1929 C   0  0  0  0  0  0  0  0  0  0  0  0
  -35.0066   56.8504   61.3631 C   0  0  0  0  0  0  0  0  0  0  0  0
  -33.5336   57.2741   61.3212 C   0  0  0  0  0  0  0  0  0  0  0  0
  -33.0870   58.2577   62.4007 C   0  0  0  0  0  0  0  0  0  0  0  0
  -31.6090   58.6808   62.2891 C   0  0  0  0  0  0  0  0  0  0  0  0
  -31.3754   60.1380   61.8624 C   0  0  0  0  0  0  0  0  0  0  0  0
  -29.8807   60.4324   61.7062 C   0  0  0  0  0  0  0  0  0  0  0  0
  -29.4290   61.8384   62.0595 C   0  0  0  0  0  0  0  0  0  0  0  0
  -39.2519   60.1097   65.1300 C   0  0  0  0  0  0  0  0  0  0  0  0
  -38.5922   61.0730   64.2698 O   0  0  0  0  0  0  0  0  0  0  0  0
  -36.5798   61.5979   62.3071 O   0  0  0  0  0  0  0  0  0  0  0  0
  -35.7203   64.8221   64.8101 O   0  0  0  0  0  0  0  0  0  0  0  0
  -37.1612   62.3387   65.7651 O   0  0  0  0  0  0  0  0  0  0  0  0
  -37.2221   61.5431   64.5565 C   0  0  0  0  0  0  0  0  0  0  0  0
  -36.5526   62.3829   63.4592 C   0  0  0  0  0  0  0  0  0  0  0  0
  -35.0826   62.7447   63.7650 C   0  0  0  0  0  0  0  0  0  0  0  0
  -35.1039   63.5559   65.0309 C   0  0  0  0  0  0  0  0  0  0  0  0
  -35.8256   62.7862   66.1223 C   0  0  0  0  0  0  0  0  0  0  0  0
  -37.4971   61.3607   62.0992 H   0  0  0  0  0  0  0  0  0  0  0  0
  -35.2441   65.2960   64.1105 H   0  0  0  0  0  0  0  0  0  0  0  0
  -34.4199   64.1689   67.4733 O   0  0  0  0  0  0  0  0  0  0  0  0
  -35.7446   63.7696   67.2877 C   0  0  0  0  0  0  0  0  0  0  0  0
  -34.3711   64.7934   68.2140 H   0  0  0  0  0  0  0  0  0  0  0  0
  -34.4111   63.5590   62.7771 O   0  0  0  0  0  0  0  0  0  0  0  0
  -32.0708   62.9747   63.7251 O   0  0  0  0  0  0  0  0  0  0  0  0
  -32.7244   65.3008   63.4996 O   0  0  0  0  0  0  0  0  0  0  0  0
  -32.1171   64.0096   61.5404 O   0  0  0  0  0  0  0  0  0  0  0  0
  -32.7967   63.9563   62.8659 S   0  0  0  0  0  0  0  0  0  0  0  0
  -32.4996   62.9263   64.5939 H   0  0  0  0  0  0  0  0  0  0  0  0
  -32.1595   63.1365   61.1199 H   0  0  0  0  0  0  0  0  0  0  0  0
  2  1  1  0  0  0
  2  4  1  0  0  0
  2  5  1  0  0  0
 41 42  1  0  0  0
 41  1  1  0  0  0
 42 46  1  0  0  0
  1 24  1  0  0  0
 23 24  1  0  0  0
 23 25  1  0  0  0
 24 26  1  0  0  0
  3  4  2  0  0  0
 26 27  2  0  0  0
 27 28  1  0  0  0
 43 47  1  0  0  0
 43 51  1  0  0  0
 28 29  1  0  0  0
 56 48  1  0  0  0
 56 60  1  0  0  0
 29 30  1  0  0  0
 57 60  1  0  0  0
 57 61  1  0  0  0
 30 31  1  0  0  0
 44 49  1  0  0  0
 44 52  1  0  0  0
 31 32  1  0  0  0
 45 46  1  0  0  0
 45 50  1  0  0  0
 32 33  1  0  0  0
 53 54  1  0  0  0
 53 55  1  0  0  0
 33 34  1  0  0  0
 34 35  1  0  0  0
 35 36  1  0  0  0
 58 60  1  0  0  0
 36 37  1  0  0  0
 59 60  1  0  0  0
 59 62  1  0  0  0
 37 38  1  0  0  0
 38 39  1  0  0  0
 39 40  1  0  0  0
  4  6  1  0  0  0
  6  7  1  0  0  0
  7  8  1  0  0  0
  8  9  1  0  0  0
  9 10  1  0  0  0
 10 11  1  0  0  0
 11 12  1  0  0  0
 12 13  1  0  0  0
 13 14  1  0  0  0
 14 15  1  0  0  0
 15 16  1  0  0  0
 16 17  1  0  0  0
 17 18  1  0  0  0
 18 19  1  0  0  0
 19 20  1  0  0  0
 20 21  1  0  0  0
 21 22  1  0  0  0
 46 47  1  0  0  0
 47 48  1  0  0  0
 48 49  1  0  0  0
 49 50  1  0  0  0
 50 54  1  0  0  0
M  CHG 1  58  -1
M  END
> <minimizedAffinity>
-9.76167

> <CNNscore>
0.3144530654

> <CNNaffinity>
6.9837164879

> <CNN_VS>
2.1960511208

> <CNNaffinity_variance>
1.1673036814

$$$$
/media/chris/experiments/cd1a-new-docking/inputs/ligands/1onq_ligand.pdb


 62 62  0  0  0  0  0  0  0  0999 V2000
  -39.0125   59.2524   65.3075 C   0  0  0  0  0  0  0  0  0  0  0  0
  -38.8985   58.1211   64.4085 N   0  0  0  0  0  0  0  0  0  0  0  0
  -38.5597   57.1468   62.3877 O   0  0  0  0  0  0  0  0  0  0  0  0
  -38.6311   58.1327   63.0955 C   0  0  0  0  0  0  0  0  0  0  0  0
  -39.0343   57.2339   64.8129 H   0  0  0  0  0  0  0  0  0  0  0  0
  -38.4196   59.4929   62.4998 C   0  0  0  0  0  0  0  0  0  0  0  0
  -39.4311   59.6296   61.3617 C   0  0  0  0  0  0  0  0  0  0  0  0
  -38.7212   60.0664   60.0825 C   0  0  0  0  0  0  0  0  0  0  0  0
  -38.6756   59.0487   58.9686 C   0  0  0  0  0  0  0  0  0  0  0  0
  -37.3812   58.2566   59.1208 C   0  0  0  0  0  0  0  0  0  0  0  0
  -36.8085   57.7922   57.7749 C   0  0  0  0  0  0  0  0  0  0  0  0
  -36.3244   56.3306   57.7645 C   0  0  0  0  0  0  0  0  0  0  0  0
  -36.5671   55.6082   59.1079 C   0  0  0  0  0  0  0  0  0  0  0  0
  -35.2427   55.1354   59.7139 C   0  0  0  0  0  0  0  0  0  0  0  0
  -34.0084   55.8895   59.2345 C   0  0  0  0  0  0  0  0  0  0  0  0
  -33.7074   57.1091   60.0930 C   0  0  0  0  0  0  0  0  0  0  0  0
  -34.6154   57.3152   61.3077 C   0  0  0  0  0  0  0  0  0  0  0  0
  -33.7344   57.4576   62.5415 C   0  0  0  0  0  0  0  0  0  0  0  0
  -32.2418   57.6821   62.3499 C   0  0  0  0  0  0  0  0  0  0  0  0
  -31.8353   59.0933   62.8031 C   0  0  0  0  0  0  0  0  0  0  0  0
  -31.3860   60.0256   61.6629 C   0  0  0  0  0  0  0  0  0  0  0  0
  -29.9435   60.5049   61.8076 C   0  0  0  0  0  0  0  0  0  0  0  0
  -40.6457   60.7183   66.0688 O   0  0  0  0  0  0  0  0  0  0  0  0
  -40.4743   59.6407   65.1671 C   0  0  0  0  0  0  0  0  0  0  0  0
  -40.0721   61.4548   65.8052 H   0  0  0  0  0  0  0  0  0  0  0  0
  -41.3543   58.4416   65.5276 C   0  0  0  0  0  0  0  0  0  0  0  0
  -42.6426   58.5620   65.8910 C   0  0  0  0  0  0  0  0  0  0  0  0
  -43.4547   57.3154   66.2371 C   0  0  0  0  0  0  0  0  0  0  0  0
  -44.9720   57.5016   66.0912 C   0  0  0  0  0  0  0  0  0  0  0  0
  -45.4865   57.6771   64.6505 C   0  0  0  0  0  0  0  0  0  0  0  0
  -46.8842   58.3419   64.6435 C   0  0  0  0  0  0  0  0  0  0  0  0
  -47.8734   57.8142   65.7133 C   0  0  0  0  0  0  0  0  0  0  0  0
  -49.0889   58.7378   65.9625 C   0  0  0  0  0  0  0  0  0  0  0  0
  -50.3392   58.3470   65.1452 C   0  0  0  0  0  0  0  0  0  0  0  0
  -50.8933   59.4862   64.2812 C   0  0  0  0  0  0  0  0  0  0  0  0
  -51.3249   59.1069   62.8662 C   0  0  0  0  0  0  0  0  0  0  0  0
  -50.5867   57.8805   62.2944 C   0  0  0  0  0  0  0  0  0  0  0  0
  -49.1567   58.1483   61.8010 C   0  0  0  0  0  0  0  0  0  0  0  0
  -49.1006   58.1848   60.2711 C   0  0  0  0  0  0  0  0  0  0  0  0
  -50.2737   57.5596   59.5373 C   0  0  0  0  0  0  0  0  0  0  0  0
  -37.9672   60.3726   65.1038 C   0  0  0  0  0  0  0  0  0  0  0  0
  -36.5766   59.9625   65.0662 O   0  0  0  0  0  0  0  0  0  0  0  0
  -34.6888   60.7164   63.0550 O   0  0  0  0  0  0  0  0  0  0  0  0
  -35.2306   64.5073   64.7085 O   0  0  0  0  0  0  0  0  0  0  0  0
  -35.8164   61.9545   66.2236 O   0  0  0  0  0  0  0  0  0  0  0  0
  -35.4850   60.9407   65.2438 C   0  0  0  0  0  0  0  0  0  0  0  0
  -35.0426   61.6958   63.9821 C   0  0  0  0  0  0  0  0  0  0  0  0
  -33.8223   62.6157   64.2056 C   0  0  0  0  0  0  0  0  0  0  0  0
  -34.2413   63.6271   65.2363 C   0  0  0  0  0  0  0  0  0  0  0  0
  -34.7560   62.9158   66.4747 C   0  0  0  0  0  0  0  0  0  0  0  0
  -35.4447   60.1282   62.9017 H   0  0  0  0  0  0  0  0  0  0  0  0
  -34.8813   64.9504   63.9196 H   0  0  0  0  0  0  0  0  0  0  0  0
  -36.3745   63.8672   67.9541 O   0  0  0  0  0  0  0  0  0  0  0  0
  -35.1289   64.0974   67.3672 C   0  0  0  0  0  0  0  0  0  0  0  0
  -36.6090   64.6190   68.5204 H   0  0  0  0  0  0  0  0  0  0  0  0
  -33.3797   63.3728   63.0563 O   0  0  0  0  0  0  0  0  0  0  0  0
  -32.2545   65.7041   62.9319 O   0  0  0  0  0  0  0  0  0  0  0  0
  -31.2250   63.8164   61.8068 O   0  0  0  0  0  0  0  0  0  0  0  0
  -31.0934   64.0181   64.2186 O   0  0  0  0  0  0  0  0  0  0  0  0
  -31.9609   64.2435   63.0277 S   0  0  0  0  0  0  0  0  0  0  0  0
  -32.8192   65.8706   62.1610 H   0  0  0  0  0  0  0  0  0  0  0  0
  -31.5657   64.2941   65.0196 H   0  0  0  0  0  0  0  0  0  0  0  0
  2  1  1  0  0  0
  2  4  1  0  0  0
  2  5  1  0  0  0
 41 42  1  0  0  0
 41  1  1  0  0  0
 42 46  1  0  0  0
  1 24  1  0  0  0
 23 24  1  0  0  0
 23 25  1  0  0  0
 24 26  1  0  0  0
  3  4  2  0  0  0
 26 27  2  0  0  0
 27 28  1  0  0  0
 43 47  1  0  0  0
 43 51  1  0  0  0
 28 29  1  0  0  0
 56 48  1  0  0  0
 56 60  1  0  0  0
 29 30  1  0  0  0
 57 60  1  0  0  0
 57 61  1  0  0  0
 30 31  1  0  0  0
 44 49  1  0  0  0
 44 52  1  0  0  0
 31 32  1  0  0  0
 45 46  1  0  0  0
 45 50  1  0  0  0
 32 33  1  0  0  0
 53 54  1  0  0  0
 53 55  1  0  0  0
 33 34  1  0  0  0
 34 35  1  0  0  0
 35 36  1  0  0  0
 58 60  1  0  0  0
 36 37  1  0  0  0
 59 60  1  0  0  0
 59 62  1  0  0  0
 37 38  1  0  0  0
 38 39  1  0  0  0
 39 40  1  0  0  0
  4  6  1  0  0  0
  6  7  1  0  0  0
  7  8  1  0  0  0
  8  9  1  0  0  0
  9 10  1  0  0  0
 10 11  1  0  0  0
 11 12  1  0  0  0
 12 13  1  0  0  0
 13 14  1  0  0  0
 14 15  1  0  0  0
 15 16  1  0  0  0
 16 17  1  0  0  0
 17 18  1  0  0  0
 18 19  1  0  0  0
 19 20  1  0  0  0
 20 21  1  0  0  0
 21 22  1  0  0  0
 46 47  1  0  0  0
 47 48  1  0  0  0
 48 49  1  0  0  0
 49 50  1  0  0  0
 50 54  1  0  0  0
M  CHG 1  58  -1
M  END
> <minimizedAffinity>
-9.45395

> <CNNscore>
0.3032037616

> <CNNaffinity>
7.0929288864

> <CNN_VS>
2.1506028175

> <CNNaffinity_variance>
1.1669256687

$$$$
/media/chris/experiments/cd1a-new-docking/inputs/ligands/1onq_ligand.pdb


 62 62  0  0  0  0  0  0  0  0999 V2000
  -38.6711   60.0978   61.5218 C   0  0  0  0  0  0  0  0  0  0  0  0
  -37.9410   59.9390   60.2797 N   0  0  0  0  0  0  0  0  0  0  0  0
  -36.7479   58.7620   58.7503 O   0  0  0  0  0  0  0  0  0  0  0  0
  -37.3599   58.8316   59.7985 C   0  0  0  0  0  0  0  0  0  0  0  0
  -37.8624   60.7450   59.7199 H   0  0  0  0  0  0  0  0  0  0  0  0
  -37.4975   57.6127   60.6617 C   0  0  0  0  0  0  0  0  0  0  0  0
  -36.2457   56.7685   60.4222 C   0  0  0  0  0  0  0  0  0  0  0  0
  -35.1877   57.0944   61.4736 C   0  0  0  0  0  0  0  0  0  0  0  0
  -35.4599   58.3027   62.3364 C   0  0  0  0  0  0  0  0  0  0  0  0
  -35.1190   57.9279   63.7749 C   0  0  0  0  0  0  0  0  0  0  0  0
  -36.1523   56.9823   64.4020 C   0  0  0  0  0  0  0  0  0  0  0  0
  -37.6156   57.4015   64.1699 C   0  0  0  0  0  0  0  0  0  0  0  0
  -38.1595   58.3241   65.2827 C   0  0  0  0  0  0  0  0  0  0  0  0
  -39.6863   58.4153   65.2104 C   0  0  0  0  0  0  0  0  0  0  0  0
  -40.2620   59.8042   65.4590 C   0  0  0  0  0  0  0  0  0  0  0  0
  -41.6940   59.7524   65.9707 C   0  0  0  0  0  0  0  0  0  0  0  0
  -42.4729   58.4729   65.6567 C   0  0  0  0  0  0  0  0  0  0  0  0
  -43.9041   58.6556   66.1434 C   0  0  0  0  0  0  0  0  0  0  0  0
  -45.0326   58.6098   65.1239 C   0  0  0  0  0  0  0  0  0  0  0  0
  -46.1392   59.6141   65.4829 C   0  0  0  0  0  0  0  0  0  0  0  0
  -47.5217   58.9811   65.7258 C   0  0  0  0  0  0  0  0  0  0  0  0
  -47.5624   57.4849   65.4237 C   0  0  0  0  0  0  0  0  0  0  0  0
  -40.9530   60.0645   61.9546 O   0  0  0  0  0  0  0  0  0  0  0  0
  -40.0170   60.6208   61.0501 C   0  0  0  0  0  0  0  0  0  0  0  0
  -40.7622   60.3795   62.8519 H   0  0  0  0  0  0  0  0  0  0  0  0
  -40.2629   60.1621   59.6109 C   0  0  0  0  0  0  0  0  0  0  0  0
  -41.4761   59.8100   59.1521 C   0  0  0  0  0  0  0  0  0  0  0  0
  -41.6396   59.3619   57.7010 C   0  0  0  0  0  0  0  0  0  0  0  0
  -43.1016   59.1854   57.2657 C   0  0  0  0  0  0  0  0  0  0  0  0
  -43.8663   58.0364   57.9486 C   0  0  0  0  0  0  0  0  0  0  0  0
  -45.3907   58.3032   57.9295 C   0  0  0  0  0  0  0  0  0  0  0  0
  -46.2013   57.5906   59.0414 C   0  0  0  0  0  0  0  0  0  0  0  0
  -46.9782   56.3433   58.5584 C   0  0  0  0  0  0  0  0  0  0  0  0
  -48.3506   56.1669   59.2435 C   0  0  0  0  0  0  0  0  0  0  0  0
  -49.3999   57.1921   58.7974 C   0  0  0  0  0  0  0  0  0  0  0  0
  -50.4658   57.5544   59.8294 C   0  0  0  0  0  0  0  0  0  0  0  0
  -50.0625   57.2381   61.2831 C   0  0  0  0  0  0  0  0  0  0  0  0
  -49.5246   58.4311   62.0877 C   0  0  0  0  0  0  0  0  0  0  0  0
  -50.4080   58.7162   63.3057 C   0  0  0  0  0  0  0  0  0  0  0  0
  -51.6086   59.6163   63.0731 C   0  0  0  0  0  0  0  0  0  0  0  0
  -37.9485   60.9118   62.6192 C   0  0  0  0  0  0  0  0  0  0  0  0
  -36.8550   61.7590   62.1838 O   0  0  0  0  0  0  0  0  0  0  0  0
  -34.6412   63.4459   61.5275 O   0  0  0  0  0  0  0  0  0  0  0  0
  -35.1208   64.7251   65.4686 O   0  0  0  0  0  0  0  0  0  0  0  0
  -36.1185   62.0460   64.4774 O   0  0  0  0  0  0  0  0  0  0  0  0
  -35.7280   62.0770   63.0831 C   0  0  0  0  0  0  0  0  0  0  0  0
  -35.0489   63.4360   62.8608 C   0  0  0  0  0  0  0  0  0  0  0  0
  -33.8061   63.6613   63.7497 C   0  0  0  0  0  0  0  0  0  0  0  0
  -34.2907   63.6048   65.1720 C   0  0  0  0  0  0  0  0  0  0  0  0
  -35.0343   62.3030   65.4102 C   0  0  0  0  0  0  0  0  0  0  0  0
  -35.4102   63.3056   60.9532 H   0  0  0  0  0  0  0  0  0  0  0  0
  -34.6267   65.5446   65.3099 H   0  0  0  0  0  0  0  0  0  0  0  0
  -34.3234   62.7978   67.6380 O   0  0  0  0  0  0  0  0  0  0  0  0
  -35.4400   62.4519   66.8748 C   0  0  0  0  0  0  0  0  0  0  0  0
  -34.5837   62.8918   68.5677 H   0  0  0  0  0  0  0  0  0  0  0  0
  -33.1431   64.9374   63.6014 O   0  0  0  0  0  0  0  0  0  0  0  0
  -31.7820   64.5057   61.4385 O   0  0  0  0  0  0  0  0  0  0  0  0
  -30.6678   64.4140   63.5924 O   0  0  0  0  0  0  0  0  0  0  0  0
  -31.2862   66.5506   62.6296 O   0  0  0  0  0  0  0  0  0  0  0  0
  -31.7001   65.1281   62.7930 S   0  0  0  0  0  0  0  0  0  0  0  0
  -32.0506   63.5776   61.5248 H   0  0  0  0  0  0  0  0  0  0  0  0
  -31.9541   67.0239   62.1092 H   0  0  0  0  0  0  0  0  0  0  0  0
  2  1  1  0  0  0
  2  4  1  0  0  0
  2  5  1  0  0  0
 41 42  1  0  0  0
 41  1  1  0  0  0
 42 46  1  0  0  0
  1 24  1  0  0  0
 23 24  1  0  0  0
 23 25  1  0  0  0
 24 26  1  0  0  0
  3  4  2  0  0  0
 26 27  2  0  0  0
 27 28  1  0  0  0
 43 47  1  0  0  0
 43 51  1  0  0  0
 28 29  1  0  0  0
 56 48  1  0  0  0
 56 60  1  0  0  0
 29 30  1  0  0  0
 57 60  1  0  0  0
 57 61  1  0  0  0
 30 31  1  0  0  0
 44 49  1  0  0  0
 44 52  1  0  0  0
 31 32  1  0  0  0
 45 46  1  0  0  0
 45 50  1  0  0  0
 32 33  1  0  0  0
 53 54  1  0  0  0
 53 55  1  0  0  0
 33 34  1  0  0  0
 34 35  1  0  0  0
 35 36  1  0  0  0
 58 60  1  0  0  0
 36 37  1  0  0  0
 59 60  1  0  0  0
 59 62  1  0  0  0
 37 38  1  0  0  0
 38 39  1  0  0  0
 39 40  1  0  0  0
  4  6  1  0  0  0
  6  7  1  0  0  0
  7  8  1  0  0  0
  8  9  1  0  0  0
  9 10  1  0  0  0
 10 11  1  0  0  0
 11 12  1  0  0  0
 12 13  1  0  0  0
 13 14  1  0  0  0
 14 15  1  0  0  0
 15 16  1  0  0  0
 16 17  1  0  0  0
 17 18  1  0  0  0
 18 19  1  0  0  0
 19 20  1  0  0  0
 20 21  1  0  0  0
 21 22  1  0  0  0
 46 47  1  0  0  0
 47 48  1  0  0  0
 48 49  1  0  0  0
 49 50  1  0  0  0
 50 54  1  0  0  0
M  CHG 1  58  -1
M  END
> <minimizedAffinity>
-8.92885

> <CNNscore>
0.3028616607

> <CNNaffinity>
7.0319800377

> <CNN_VS>
2.1297171116

> <CNNaffinity_variance>
0.9758340120

$$$$
/media/chris/experiments/cd1a-new-docking/inputs/ligands/1onq_ligand.pdb


 62 62  0  0  0  0  0  0  0  0999 V2000
  -36.1220   58.0259   62.7114 C   0  0  0  0  0  0  0  0  0  0  0  0
  -36.8036   57.6328   63.9288 N   0  0  0  0  0  0  0  0  0  0  0  0
  -38.3980   57.8336   65.5304 O   0  0  0  0  0  0  0  0  0  0  0  0
  -37.8751   58.2027   64.4968 C   0  0  0  0  0  0  0  0  0  0  0  0
  -36.4332   56.8497   64.3964 H   0  0  0  0  0  0  0  0  0  0  0  0
  -38.4293   59.3891   63.7654 C   0  0  0  0  0  0  0  0  0  0  0  0
  -39.8417   59.0052   63.3240 C   0  0  0  0  0  0  0  0  0  0  0  0
  -40.8144   60.1375   63.6448 C   0  0  0  0  0  0  0  0  0  0  0  0
  -41.9753   59.7808   64.5412 C   0  0  0  0  0  0  0  0  0  0  0  0
  -41.4630   59.7734   65.9776 C   0  0  0  0  0  0  0  0  0  0  0  0
  -42.2563   58.8236   66.8852 C   0  0  0  0  0  0  0  0  0  0  0  0
  -42.6614   57.4987   66.2134 C   0  0  0  0  0  0  0  0  0  0  0  0
  -44.1487   57.1446   66.4328 C   0  0  0  0  0  0  0  0  0  0  0  0
  -44.8295   56.8224   65.0996 C   0  0  0  0  0  0  0  0  0  0  0  0
  -45.7353   57.9206   64.5559 C   0  0  0  0  0  0  0  0  0  0  0  0
  -45.7148   59.1690   65.4254 C   0  0  0  0  0  0  0  0  0  0  0  0
  -47.0632   59.8611   65.6377 C   0  0  0  0  0  0  0  0  0  0  0  0
  -48.0424   59.3226   64.6034 C   0  0  0  0  0  0  0  0  0  0  0  0
  -48.9090   60.3100   63.8360 C   0  0  0  0  0  0  0  0  0  0  0  0
  -49.4974   59.6600   62.5737 C   0  0  0  0  0  0  0  0  0  0  0  0
  -51.0026   59.3464   62.6593 C   0  0  0  0  0  0  0  0  0  0  0  0
  -51.6992   60.0429   63.8259 C   0  0  0  0  0  0  0  0  0  0  0  0
  -35.3965   56.6445   60.9907 O   0  0  0  0  0  0  0  0  0  0  0  0
  -36.5650   56.9592   61.7248 C   0  0  0  0  0  0  0  0  0  0  0  0
  -34.7221   56.2915   61.5919 H   0  0  0  0  0  0  0  0  0  0  0  0
  -37.6727   57.5233   60.8319 C   0  0  0  0  0  0  0  0  0  0  0  0
  -37.5152   58.6245   60.0777 C   0  0  0  0  0  0  0  0  0  0  0  0
  -38.6705   59.1253   59.2129 C   0  0  0  0  0  0  0  0  0  0  0  0
  -39.5873   60.1321   59.9227 C   0  0  0  0  0  0  0  0  0  0  0  0
  -40.8662   60.5225   59.1590 C   0  0  0  0  0  0  0  0  0  0  0  0
  -41.6461   59.2622   58.7130 C   0  0  0  0  0  0  0  0  0  0  0  0
  -42.0048   59.2046   57.2065 C   0  0  0  0  0  0  0  0  0  0  0  0
  -43.4322   58.6848   56.9147 C   0  0  0  0  0  0  0  0  0  0  0  0
  -44.2375   58.3440   58.1873 C   0  0  0  0  0  0  0  0  0  0  0  0
  -45.7126   58.0241   57.9177 C   0  0  0  0  0  0  0  0  0  0  0  0
  -46.4524   57.2814   59.0283 C   0  0  0  0  0  0  0  0  0  0  0  0
  -47.2008   56.0222   58.5483 C   0  0  0  0  0  0  0  0  0  0  0  0
  -48.5387   55.7477   59.2517 C   0  0  0  0  0  0  0  0  0  0  0  0
  -49.0370   56.9928   59.9909 C   0  0  0  0  0  0  0  0  0  0  0  0
  -50.3349   57.6013   59.4898 C   0  0  0  0  0  0  0  0  0  0  0  0
  -34.6013   58.2661   62.8478 C   0  0  0  0  0  0  0  0  0  0  0  0
  -34.1375   59.6233   62.6328 O   0  0  0  0  0  0  0  0  0  0  0  0
  -32.6236   62.0487   62.5882 O   0  0  0  0  0  0  0  0  0  0  0  0
  -35.9009   63.5190   64.7086 O   0  0  0  0  0  0  0  0  0  0  0  0
  -35.2048   60.5767   64.5918 O   0  0  0  0  0  0  0  0  0  0  0  0
  -34.0251   60.5800   63.7517 C   0  0  0  0  0  0  0  0  0  0  0  0
  -33.7812   62.0459   63.3652 C   0  0  0  0  0  0  0  0  0  0  0  0
  -33.5549   62.9773   64.5762 C   0  0  0  0  0  0  0  0  0  0  0  0
  -34.8120   62.9107   65.3987 C   0  0  0  0  0  0  0  0  0  0  0  0
  -35.1273   61.4653   65.7389 C   0  0  0  0  0  0  0  0  0  0  0  0
  -32.7475   61.4680   61.8213 H   0  0  0  0  0  0  0  0  0  0  0  0
  -35.6784   64.4401   64.5016 H   0  0  0  0  0  0  0  0  0  0  0  0
  -36.1688   62.4079   67.6728 O   0  0  0  0  0  0  0  0  0  0  0  0
  -36.4140   61.6202   66.5466 C   0  0  0  0  0  0  0  0  0  0  0  0
  -36.9874   62.5048   68.1842 H   0  0  0  0  0  0  0  0  0  0  0  0
  -33.3478   64.3752   64.2714 O   0  0  0  0  0  0  0  0  0  0  0  0
  -31.2793   64.6999   65.7987 O   0  0  0  0  0  0  0  0  0  0  0  0
  -32.2171   66.6096   64.6315 O   0  0  0  0  0  0  0  0  0  0  0  0
  -30.9125   64.9626   63.4232 O   0  0  0  0  0  0  0  0  0  0  0  0
  -31.9007   65.1597   64.5215 S   0  0  0  0  0  0  0  0  0  0  0  0
  -31.9090   64.8207   66.5265 H   0  0  0  0  0  0  0  0  0  0  0  0
  -30.7005   64.0193   63.3445 H   0  0  0  0  0  0  0  0  0  0  0  0
  2  1  1  0  0  0
  2  4  1  0  0  0
  2  5  1  0  0  0
 41 42  1  0  0  0
 41  1  1  0  0  0
 42 46  1  0  0  0
  1 24  1  0  0  0
 23 24  1  0  0  0
 23 25  1  0  0  0
 24 26  1  0  0  0
  3  4  2  0  0  0
 26 27  2  0  0  0
 27 28  1  0  0  0
 43 47  1  0  0  0
 43 51  1  0  0  0
 28 29  1  0  0  0
 56 48  1  0  0  0
 56 60  1  0  0  0
 29 30  1  0  0  0
 57 60  1  0  0  0
 57 61  1  0  0  0
 30 31  1  0  0  0
 44 49  1  0  0  0
 44 52  1  0  0  0
 31 32  1  0  0  0
 45 46  1  0  0  0
 45 50  1  0  0  0
 32 33  1  0  0  0
 53 54  1  0  0  0
 53 55  1  0  0  0
 33 34  1  0  0  0
 34 35  1  0  0  0
 35 36  1  0  0  0
 58 60  1  0  0  0
 36 37  1  0  0  0
 59 60  1  0  0  0
 59 62  1  0  0  0
 37 38  1  0  0  0
 38 39  1  0  0  0
 39 40  1  0  0  0
  4  6  1  0  0  0
  6  7  1  0  0  0
  7  8  1  0  0  0
  8  9  1  0  0  0
  9 10  1  0  0  0
 10 11  1  0  0  0
 11 12  1  0  0  0
 12 13  1  0  0  0
 13 14  1  0  0  0
 14 15  1  0  0  0
 15 16  1  0  0  0
 16 17  1  0  0  0
 17 18  1  0  0  0
 18 19  1  0  0  0
 19 20  1  0  0  0
 20 21  1  0  0  0
 21 22  1  0  0  0
 46 47  1  0  0  0
 47 48  1  0  0  0
 48 49  1  0  0  0
 49 50  1  0  0  0
 50 54  1  0  0  0
M  CHG 1  58  -1
M  END
> <minimizedAffinity>
-8.92565

> <CNNscore>
0.2710844576

> <CNNaffinity>
7.0184478760

> <CNN_VS>
1.9025921822

> <CNNaffinity_variance>
1.0819342136

$$$$
/media/chris/experiments/cd1a-new-docking/inputs/ligands/1onq_ligand.pdb


 62 62  0  0  0  0  0  0  0  0999 V2000
  -40.2775   58.7806   64.8406 C   0  0  0  0  0  0  0  0  0  0  0  0
  -41.1130   58.1945   65.8699 N   0  0  0  0  0  0  0  0  0  0  0  0
  -43.0904   57.7811   66.9028 O   0  0  0  0  0  0  0  0  0  0  0  0
  -42.4428   58.2874   66.0070 C   0  0  0  0  0  0  0  0  0  0  0  0
  -40.6454   57.6619   66.5531 H   0  0  0  0  0  0  0  0  0  0  0  0
  -43.1377   59.0961   64.9522 C   0  0  0  0  0  0  0  0  0  0  0  0
  -44.5357   58.4971   64.7978 C   0  0  0  0  0  0  0  0  0  0  0  0
  -45.5805   59.4597   65.3572 C   0  0  0  0  0  0  0  0  0  0  0  0
  -46.4343   58.9304   66.4838 C   0  0  0  0  0  0  0  0  0  0  0  0
  -46.7748   57.4792   66.1614 C   0  0  0  0  0  0  0  0  0  0  0  0
  -48.1795   57.3183   65.5647 C   0  0  0  0  0  0  0  0  0  0  0  0
  -49.1195   58.5082   65.8310 C   0  0  0  0  0  0  0  0  0  0  0  0
  -50.5014   58.3432   65.1612 C   0  0  0  0  0  0  0  0  0  0  0  0
  -50.7365   59.4491   64.1285 C   0  0  0  0  0  0  0  0  0  0  0  0
  -51.2851   58.9741   62.7884 C   0  0  0  0  0  0  0  0  0  0  0  0
  -50.2319   58.2609   61.9536 C   0  0  0  0  0  0  0  0  0  0  0  0
  -50.7550   57.2246   60.9561 C   0  0  0  0  0  0  0  0  0  0  0  0
  -50.3111   57.6412   59.5604 C   0  0  0  0  0  0  0  0  0  0  0  0
  -49.1512   56.8998   58.9124 C   0  0  0  0  0  0  0  0  0  0  0  0
  -47.8143   57.5918   59.2221 C   0  0  0  0  0  0  0  0  0  0  0  0
  -46.7840   57.5311   58.0793 C   0  0  0  0  0  0  0  0  0  0  0  0
  -47.2852   56.7701   56.8541 C   0  0  0  0  0  0  0  0  0  0  0  0
  -38.1717   57.8992   65.2699 O   0  0  0  0  0  0  0  0  0  0  0  0
  -39.3297   57.6444   64.4969 C   0  0  0  0  0  0  0  0  0  0  0  0
  -38.4006   57.8768   66.2122 H   0  0  0  0  0  0  0  0  0  0  0  0
  -39.0365   57.6656   62.9949 C   0  0  0  0  0  0  0  0  0  0  0  0
  -37.9407   57.1052   62.4550 C   0  0  0  0  0  0  0  0  0  0  0  0
  -37.7192   57.1697   60.9450 C   0  0  0  0  0  0  0  0  0  0  0  0
  -38.0953   58.5203   60.3186 C   0  0  0  0  0  0  0  0  0  0  0  0
  -37.4230   58.8401   58.9706 C   0  0  0  0  0  0  0  0  0  0  0  0
  -37.6097   57.6718   57.9728 C   0  0  0  0  0  0  0  0  0  0  0  0
  -36.3955   56.7188   57.8349 C   0  0  0  0  0  0  0  0  0  0  0  0
  -35.0251   57.4362   57.8264 C   0  0  0  0  0  0  0  0  0  0  0  0
  -33.8688   56.5651   58.3634 C   0  0  0  0  0  0  0  0  0  0  0  0
  -34.2632   55.6784   59.5504 C   0  0  0  0  0  0  0  0  0  0  0  0
  -33.6827   56.0743   60.9064 C   0  0  0  0  0  0  0  0  0  0  0  0
  -34.1536   57.4528   61.4104 C   0  0  0  0  0  0  0  0  0  0  0  0
  -33.2351   58.1205   62.4450 C   0  0  0  0  0  0  0  0  0  0  0  0
  -34.0274   59.0598   63.3587 C   0  0  0  0  0  0  0  0  0  0  0  0
  -34.7230   58.4185   64.5464 C   0  0  0  0  0  0  0  0  0  0  0  0
  -39.6389   60.1423   65.1969 C   0  0  0  0  0  0  0  0  0  0  0  0
  -38.8760   60.7942   64.1499 O   0  0  0  0  0  0  0  0  0  0  0  0
  -36.9296   61.2153   62.0977 O   0  0  0  0  0  0  0  0  0  0  0  0
  -35.8547   64.4465   64.5065 O   0  0  0  0  0  0  0  0  0  0  0  0
  -37.3407   62.0319   65.5630 O   0  0  0  0  0  0  0  0  0  0  0  0
  -37.4796   61.2196   64.3720 C   0  0  0  0  0  0  0  0  0  0  0  0
  -36.8272   62.0172   63.2337 C   0  0  0  0  0  0  0  0  0  0  0  0
  -35.3340   62.3311   63.4728 C   0  0  0  0  0  0  0  0  0  0  0  0
  -35.2743   63.1628   64.7241 C   0  0  0  0  0  0  0  0  0  0  0  0
  -35.9767   62.4371   65.8574 C   0  0  0  0  0  0  0  0  0  0  0  0
  -37.8625   61.0076   61.9316 H   0  0  0  0  0  0  0  0  0  0  0  0
  -35.3915   64.8918   63.7798 H   0  0  0  0  0  0  0  0  0  0  0  0
  -36.9732   64.2022   67.1241 O   0  0  0  0  0  0  0  0  0  0  0  0
  -35.8130   63.4356   67.0011 C   0  0  0  0  0  0  0  0  0  0  0  0
  -36.8668   64.8356   67.8511 H   0  0  0  0  0  0  0  0  0  0  0  0
  -34.6759   63.1049   62.4441 O   0  0  0  0  0  0  0  0  0  0  0  0
  -32.4962   63.7515   61.2000 O   0  0  0  0  0  0  0  0  0  0  0  0
  -32.3616   62.5755   63.3185 O   0  0  0  0  0  0  0  0  0  0  0  0
  -32.9440   64.9276   63.2646 O   0  0  0  0  0  0  0  0  0  0  0  0
  -33.0979   63.6231   62.5602 S   0  0  0  0  0  0  0  0  0  0  0  0
  -32.5871   62.9103   60.7255 H   0  0  0  0  0  0  0  0  0  0  0  0
  -33.4213   65.6168   62.7767 H   0  0  0  0  0  0  0  0  0  0  0  0
  2  1  1  0  0  0
  2  4  1  0  0  0
  2  5  1  0  0  0
 41 42  1  0  0  0
 41  1  1  0  0  0
 42 46  1  0  0  0
  1 24  1  0  0  0
 23 24  1  0  0  0
 23 25  1  0  0  0
 24 26  1  0  0  0
  3  4  2  0  0  0
 26 27  2  0  0  0
 27 28  1  0  0  0
 43 47  1  0  0  0
 43 51  1  0  0  0
 28 29  1  0  0  0
 56 48  1  0  0  0
 56 60  1  0  0  0
 29 30  1  0  0  0
 57 60  1  0  0  0
 57 61  1  0  0  0
 30 31  1  0  0  0
 44 49  1  0  0  0
 44 52  1  0  0  0
 31 32  1  0  0  0
 45 46  1  0  0  0
 45 50  1  0  0  0
 32 33  1  0  0  0
 53 54  1  0  0  0
 53 55  1  0  0  0
 33 34  1  0  0  0
 34 35  1  0  0  0
 35 36  1  0  0  0
 58 60  1  0  0  0
 36 37  1  0  0  0
 59 60  1  0  0  0
 59 62  1  0  0  0
 37 38  1  0  0  0
 38 39  1  0  0  0
 39 40  1  0  0  0
  4  6  1  0  0  0
  6  7  1  0  0  0
  7  8  1  0  0  0
  8  9  1  0  0  0
  9 10  1  0  0  0
 10 11  1  0  0  0
 11 12  1  0  0  0
 12 13  1  0  0  0
 13 14  1  0  0  0
 14 15  1  0  0  0
 15 16  1  0  0  0
 16 17  1  0  0  0
 17 18  1  0  0  0
 18 19  1  0  0  0
 19 20  1  0  0  0
 20 21  1  0  0  0
 21 22  1  0  0  0
 46 47  1  0  0  0
 47 48  1  0  0  0
 48 49  1  0  0  0
 49 50  1  0  0  0
 50 54  1  0  0  0
M  CHG 1  58  -1
M  END
> <minimizedAffinity>
-10.52779

> <CNNscore>
0.2641410530

> <CNNaffinity>
7.0478181839

> <CNN_VS>
1.8616181612

> <CNNaffinity_variance>
1.4005652666

$$$$
/media/chris/experiments/cd1a-new-docking/inputs/ligands/1onq_ligand.pdb


 62 62  0  0  0  0  0  0  0  0999 V2000
  -37.8011   59.8602   62.3610 C   0  0  0  0  0  0  0  0  0  0  0  0
  -36.6515   59.0585   62.7308 N   0  0  0  0  0  0  0  0  0  0  0  0
  -35.6372   57.2311   63.6137 O   0  0  0  0  0  0  0  0  0  0  0  0
  -36.6385   57.8527   63.3151 C   0  0  0  0  0  0  0  0  0  0  0  0
  -35.7708   59.4484   62.5274 H   0  0  0  0  0  0  0  0  0  0  0  0
  -37.9898   57.2722   63.6098 C   0  0  0  0  0  0  0  0  0  0  0  0
  -38.3100   57.6343   65.0601 C   0  0  0  0  0  0  0  0  0  0  0  0
  -39.6382   58.3842   65.1294 C   0  0  0  0  0  0  0  0  0  0  0  0
  -39.5903   59.7630   65.7419 C   0  0  0  0  0  0  0  0  0  0  0  0
  -41.0134   60.3113   65.7547 C   0  0  0  0  0  0  0  0  0  0  0  0
  -42.0408   59.3064   65.2164 C   0  0  0  0  0  0  0  0  0  0  0  0
  -43.1044   58.8781   66.2440 C   0  0  0  0  0  0  0  0  0  0  0  0
  -43.3363   57.3513   66.2672 C   0  0  0  0  0  0  0  0  0  0  0  0
  -44.7689   57.0161   65.8427 C   0  0  0  0  0  0  0  0  0  0  0  0
  -45.2235   57.6626   64.5397 C   0  0  0  0  0  0  0  0  0  0  0  0
  -46.6595   58.1600   64.6124 C   0  0  0  0  0  0  0  0  0  0  0  0
  -46.9066   59.3661   65.5217 C   0  0  0  0  0  0  0  0  0  0  0  0
  -48.4023   59.4602   65.7913 C   0  0  0  0  0  0  0  0  0  0  0  0
  -49.2420   58.1952   65.6930 C   0  0  0  0  0  0  0  0  0  0  0  0
  -50.3882   58.3730   64.6847 C   0  0  0  0  0  0  0  0  0  0  0  0
  -50.9786   59.7942   64.6330 C   0  0  0  0  0  0  0  0  0  0  0  0
  -51.8652   60.0358   63.4135 C   0  0  0  0  0  0  0  0  0  0  0  0
  -37.3453   60.7338   60.2575 O   0  0  0  0  0  0  0  0  0  0  0  0
  -37.9231   59.5960   60.8701 C   0  0  0  0  0  0  0  0  0  0  0  0
  -36.4126   60.8010   60.5149 H   0  0  0  0  0  0  0  0  0  0  0  0
  -39.3998   59.4311   60.5036 C   0  0  0  0  0  0  0  0  0  0  0  0
  -39.9485   59.9847   59.4086 C   0  0  0  0  0  0  0  0  0  0  0  0
  -41.4321   59.7741   59.1123 C   0  0  0  0  0  0  0  0  0  0  0  0
  -41.7647   59.7158   57.6143 C   0  0  0  0  0  0  0  0  0  0  0  0
  -42.5281   58.4619   57.1494 C   0  0  0  0  0  0  0  0  0  0  0  0
  -44.0508   58.6338   57.3666 C   0  0  0  0  0  0  0  0  0  0  0  0
  -44.5981   58.0611   58.6985 C   0  0  0  0  0  0  0  0  0  0  0  0
  -46.0768   57.6113   58.6345 C   0  0  0  0  0  0  0  0  0  0  0  0
  -46.5417   57.2177   57.2157 C   0  0  0  0  0  0  0  0  0  0  0  0
  -47.8291   56.3851   57.1963 C   0  0  0  0  0  0  0  0  0  0  0  0
  -48.0219   55.4196   58.3637 C   0  0  0  0  0  0  0  0  0  0  0  0
  -48.8965   55.9808   59.5022 C   0  0  0  0  0  0  0  0  0  0  0  0
  -49.7122   57.2326   59.1450 C   0  0  0  0  0  0  0  0  0  0  0  0
  -50.1682   57.9704   60.4071 C   0  0  0  0  0  0  0  0  0  0  0  0
  -51.2156   57.2721   61.2562 C   0  0  0  0  0  0  0  0  0  0  0  0
  -37.7536   61.3387   62.8090 C   0  0  0  0  0  0  0  0  0  0  0  0
  -36.5945   62.1049   62.3936 O   0  0  0  0  0  0  0  0  0  0  0  0
  -33.9642   62.9789   61.6903 O   0  0  0  0  0  0  0  0  0  0  0  0
  -34.5257   65.5608   64.9178 O   0  0  0  0  0  0  0  0  0  0  0  0
  -36.0633   62.9749   64.5951 O   0  0  0  0  0  0  0  0  0  0  0  0
  -35.5285   62.4605   63.3513 C   0  0  0  0  0  0  0  0  0  0  0  0
  -34.5034   63.4962   62.8674 C   0  0  0  0  0  0  0  0  0  0  0  0
  -33.3489   63.7388   63.8642 C   0  0  0  0  0  0  0  0  0  0  0  0
  -33.9836   64.2587   65.1243 C   0  0  0  0  0  0  0  0  0  0  0  0
  -35.0577   63.2943   65.5942 C   0  0  0  0  0  0  0  0  0  0  0  0
  -34.6762   62.8200   61.0510 H   0  0  0  0  0  0  0  0  0  0  0  0
  -33.8237   66.1596   64.6187 H   0  0  0  0  0  0  0  0  0  0  0  0
  -36.9646   63.9956   66.8533 O   0  0  0  0  0  0  0  0  0  0  0  0
  -35.5686   64.0007   66.8480 C   0  0  0  0  0  0  0  0  0  0  0  0
  -37.2866   64.4448   67.6505 H   0  0  0  0  0  0  0  0  0  0  0  0
  -32.3686   64.7261   63.4712 O   0  0  0  0  0  0  0  0  0  0  0  0
  -31.1299   62.9724   62.0196 O   0  0  0  0  0  0  0  0  0  0  0  0
  -29.8801   64.7958   63.0205 O   0  0  0  0  0  0  0  0  0  0  0  0
  -31.3004   65.2016   61.0989 O   0  0  0  0  0  0  0  0  0  0  0  0
  -31.1627   64.4247   62.3635 S   0  0  0  0  0  0  0  0  0  0  0  0
  -31.0404   62.4497   62.8319 H   0  0  0  0  0  0  0  0  0  0  0  0
  -32.1346   64.9657   60.6637 H   0  0  0  0  0  0  0  0  0  0  0  0
  2  1  1  0  0  0
  2  4  1  0  0  0
  2  5  1  0  0  0
 41 42  1  0  0  0
 41  1  1  0  0  0
 42 46  1  0  0  0
  1 24  1  0  0  0
 23 24  1  0  0  0
 23 25  1  0  0  0
 24 26  1  0  0  0
  3  4  2  0  0  0
 26 27  2  0  0  0
 27 28  1  0  0  0
 43 47  1  0  0  0
 43 51  1  0  0  0
 28 29  1  0  0  0
 56 48  1  0  0  0
 56 60  1  0  0  0
 29 30  1  0  0  0
 57 60  1  0  0  0
 57 61  1  0  0  0
 30 31  1  0  0  0
 44 49  1  0  0  0
 44 52  1  0  0  0
 31 32  1  0  0  0
 45 46  1  0  0  0
 45 50  1  0  0  0
 32 33  1  0  0  0
 53 54  1  0  0  0
 53 55  1  0  0  0
 33 34  1  0  0  0
 34 35  1  0  0  0
 35 36  1  0  0  0
 58 60  1  0  0  0
 36 37  1  0  0  0
 59 60  1  0  0  0
 59 62  1  0  0  0
 37 38  1  0  0  0
 38 39  1  0  0  0
 39 40  1  0  0  0
  4  6  1  0  0  0
  6  7  1  0  0  0
  7  8  1  0  0  0
  8  9  1  0  0  0
  9 10  1  0  0  0
 10 11  1  0  0  0
 11 12  1  0  0  0
 12 13  1  0  0  0
 13 14  1  0  0  0
 14 15  1  0  0  0
 15 16  1  0  0  0
 16 17  1  0  0  0
 17 18  1  0  0  0
 18 19  1  0  0  0
 19 20  1  0  0  0
 20 21  1  0  0  0
 21 22  1  0  0  0
 46 47  1  0  0  0
 47 48  1  0  0  0
 48 49  1  0  0  0
 49 50  1  0  0  0
 50 54  1  0  0  0
M  CHG 1  58  -1
M  END
> <minimizedAffinity>
-9.15567

> <CNNscore>
0.2523840368

> <CNNaffinity>
6.9163093567

> <CNN_VS>
1.7455661297

> <CNNaffinity_variance>
0.8817302585

$$$$
