/media/chris/experiments/cd1a-new-docking/inputs/ligands/1onq_ligand.pdb


 62 62  0  0  0  0  0  0  0  0999 V2000
  -39.0439   60.6812   61.6697 C   0  0  0  0  0  0  0  0  0  0  0  0
  -39.9908   59.9140   62.4544 N   0  0  0  0  0  0  0  0  0  0  0  0
  -40.7259   61.4538   63.9498 O   0  0  0  0  0  0  0  0  0  0  0  0
  -40.7326   60.3282   63.4906 C   0  0  0  0  0  0  0  0  0  0  0  0
  -40.1028   58.9712   62.1937 H   0  0  0  0  0  0  0  0  0  0  0  0
  -41.6299   59.2860   64.0895 C   0  0  0  0  0  0  0  0  0  0  0  0
  -41.7723   59.6362   65.5708 C   0  0  0  0  0  0  0  0  0  0  0  0
  -42.9428   58.8671   66.1785 C   0  0  0  0  0  0  0  0  0  0  0  0
  -44.2886   59.0871   65.5314 C   0  0  0  0  0  0  0  0  0  0  0  0
  -45.2702   58.1064   66.1644 C   0  0  0  0  0  0  0  0  0  0  0  0
  -46.3509   57.6327   65.1832 C   0  0  0  0  0  0  0  0  0  0  0  0
  -47.7207   57.3640   65.8329 C   0  0  0  0  0  0  0  0  0  0  0  0
  -48.8934   57.9785   65.0375 C   0  0  0  0  0  0  0  0  0  0  0  0
  -48.4460   58.3588   63.6232 C   0  0  0  0  0  0  0  0  0  0  0  0
  -49.0812   59.6264   63.0648 C   0  0  0  0  0  0  0  0  0  0  0  0
  -50.0264   59.3372   61.9080 C   0  0  0  0  0  0  0  0  0  0  0  0
  -51.1388   58.3241   62.1877 C   0  0  0  0  0  0  0  0  0  0  0  0
  -51.2058   57.3553   61.0147 C   0  0  0  0  0  0  0  0  0  0  0  0
  -50.0872   57.3803   59.9835 C   0  0  0  0  0  0  0  0  0  0  0  0
  -49.2966   56.0624   59.9978 C   0  0  0  0  0  0  0  0  0  0  0  0
  -47.9698   56.1051   59.2174 C   0  0  0  0  0  0  0  0  0  0  0  0
  -47.1991   57.4095   59.4076 C   0  0  0  0  0  0  0  0  0  0  0  0
  -40.5919   59.8732   60.1378 O   0  0  0  0  0  0  0  0  0  0  0  0
  -39.1992   60.0801   60.2833 C   0  0  0  0  0  0  0  0  0  0  0  0
  -41.0527   60.7251   60.1918 H   0  0  0  0  0  0  0  0  0  0  0  0
  -38.4106   58.7705   60.2073 C   0  0  0  0  0  0  0  0  0  0  0  0
  -37.5559   58.4877   59.2094 C   0  0  0  0  0  0  0  0  0  0  0  0
  -36.8063   57.1568   59.2047 C   0  0  0  0  0  0  0  0  0  0  0  0
  -35.5982   57.1270   58.2572 C   0  0  0  0  0  0  0  0  0  0  0  0
  -34.3005   56.5476   58.8499 C   0  0  0  0  0  0  0  0  0  0  0  0
  -34.5805   55.8384   60.1968 C   0  0  0  0  0  0  0  0  0  0  0  0
  -33.6223   56.2152   61.3549 C   0  0  0  0  0  0  0  0  0  0  0  0
  -33.1245   57.6792   61.3143 C   0  0  0  0  0  0  0  0  0  0  0  0
  -33.8751   58.6138   62.2876 C   0  0  0  0  0  0  0  0  0  0  0  0
  -33.8366   58.1454   63.7472 C   0  0  0  0  0  0  0  0  0  0  0  0
  -35.1745   58.1315   64.4834 C   0  0  0  0  0  0  0  0  0  0  0  0
  -36.1972   57.1341   63.9044 C   0  0  0  0  0  0  0  0  0  0  0  0
  -37.6415   57.6510   63.8222 C   0  0  0  0  0  0  0  0  0  0  0  0
  -38.2066   57.9282   65.2182 C   0  0  0  0  0  0  0  0  0  0  0  0
  -38.1509   59.3686   65.6954 C   0  0  0  0  0  0  0  0  0  0  0  0
  -37.6109   60.7576   62.2438 C   0  0  0  0  0  0  0  0  0  0  0  0
  -37.2772   61.9513   62.9970 O   0  0  0  0  0  0  0  0  0  0  0  0
  -35.1767   63.4277   61.7379 O   0  0  0  0  0  0  0  0  0  0  0  0
  -34.4475   64.7083   65.6401 O   0  0  0  0  0  0  0  0  0  0  0  0
  -35.9228   62.1452   65.0003 O   0  0  0  0  0  0  0  0  0  0  0  0
  -35.9239   62.1526   63.5520 C   0  0  0  0  0  0  0  0  0  0  0  0
  -35.2065   63.4436   63.1318 C   0  0  0  0  0  0  0  0  0  0  0  0
  -33.7538   63.5417   63.6469 C   0  0  0  0  0  0  0  0  0  0  0  0
  -33.8375   63.5175   65.1482 C   0  0  0  0  0  0  0  0  0  0  0  0
  -34.6071   62.2897   65.6001 C   0  0  0  0  0  0  0  0  0  0  0  0
  -36.0823   63.3663   61.3959 H   0  0  0  0  0  0  0  0  0  0  0  0
  -33.9405   65.4790   65.3401 H   0  0  0  0  0  0  0  0  0  0  0  0
  -35.8659   62.7782   67.5725 O   0  0  0  0  0  0  0  0  0  0  0  0
  -34.5846   62.4620   67.1173 C   0  0  0  0  0  0  0  0  0  0  0  0
  -35.8489   62.8871   68.5362 H   0  0  0  0  0  0  0  0  0  0  0  0
  -33.0395   64.7508   63.3038 O   0  0  0  0  0  0  0  0  0  0  0  0
  -30.9701   66.1791   62.6752 O   0  0  0  0  0  0  0  0  0  0  0  0
  -31.0884   63.8632   61.9597 O   0  0  0  0  0  0  0  0  0  0  0  0
  -30.6035   64.4015   64.2726 O   0  0  0  0  0  0  0  0  0  0  0  0
  -31.3914   64.8032   63.0728 S   0  0  0  0  0  0  0  0  0  0  0  0
  -31.4733   66.4582   61.8943 H   0  0  0  0  0  0  0  0  0  0  0  0
  -30.7951   65.0095   65.0038 H   0  0  0  0  0  0  0  0  0  0  0  0
  2  1  1  0  0  0
  2  4  1  0  0  0
  2  5  1  0  0  0
 41 42  1  0  0  0
 41  1  1  0  0  0
 42 46  1  0  0  0
  1 24  1  0  0  0
 23 24  1  0  0  0
 23 25  1  0  0  0
 24 26  1  0  0  0
  3  4  2  0  0  0
 26 27  2  0  0  0
 27 28  1  0  0  0
 43 47  1  0  0  0
 43 51  1  0  0  0
 28 29  1  0  0  0
 56 48  1  0  0  0
 56 60  1  0  0  0
 29 30  1  0  0  0
 57 60  1  0  0  0
 57 61  1  0  0  0
 30 31  1  0  0  0
 44 49  1  0  0  0
 44 52  1  0  0  0
 31 32  1  0  0  0
 45 46  1  0  0  0
 45 50  1  0  0  0
 32 33  1  0  0  0
 53 54  1  0  0  0
 53 55  1  0  0  0
 33 34  1  0  0  0
 34 35  1  0  0  0
 35 36  1  0  0  0
 58 60  1  0  0  0
 36 37  1  0  0  0
 59 60  1  0  0  0
 59 62  1  0  0  0
 37 38  1  0  0  0
 38 39  1  0  0  0
 39 40  1  0  0  0
  4  6  1  0  0  0
  6  7  1  0  0  0
  7  8  1  0  0  0
  8  9  1  0  0  0
  9 10  1  0  0  0
 10 11  1  0  0  0
 11 12  1  0  0  0
 12 13  1  0  0  0
 13 14  1  0  0  0
 14 15  1  0  0  0
 15 16  1  0  0  0
 16 17  1  0  0  0
 17 18  1  0  0  0
 18 19  1  0  0  0
 19 20  1  0  0  0
 20 21  1  0  0  0
 21 22  1  0  0  0
 46 47  1  0  0  0
 47 48  1  0  0  0
 48 49  1  0  0  0
 49 50  1  0  0  0
 50 54  1  0  0  0
M  CHG 1  58  -1
M  END
> <minimizedAffinity>
-9.34849

> <CNNscore>
0.4455084205

> <CNNaffinity>
7.3243460655

> <CNN_VS>
3.2630579472

> <CNNaffinity_variance>
1.2380517721

$$$$
/media/chris/experiments/cd1a-new-docking/inputs/ligands/1onq_ligand.pdb


 62 62  0  0  0  0  0  0  0  0999 V2000
  -39.0041   59.5437   65.0912 C   0  0  0  0  0  0  0  0  0  0  0  0
  -40.2349   59.2309   65.7901 N   0  0  0  0  0  0  0  0  0  0  0  0
  -41.0390   61.2945   66.2822 O   0  0  0  0  0  0  0  0  0  0  0  0
  -41.1272   60.0825   66.3136 C   0  0  0  0  0  0  0  0  0  0  0  0
  -40.4408   58.2736   65.8929 H   0  0  0  0  0  0  0  0  0  0  0  0
  -42.3123   59.4398   66.9711 C   0  0  0  0  0  0  0  0  0  0  0  0
  -43.2102   58.9307   65.8434 C   0  0  0  0  0  0  0  0  0  0  0  0
  -44.2713   57.9884   66.4065 C   0  0  0  0  0  0  0  0  0  0  0  0
  -45.6368   58.5889   66.6370 C   0  0  0  0  0  0  0  0  0  0  0  0
  -45.8994   59.5824   65.5101 C   0  0  0  0  0  0  0  0  0  0  0  0
  -47.3438   59.5262   64.9946 C   0  0  0  0  0  0  0  0  0  0  0  0
  -48.4092   59.4658   66.1046 C   0  0  0  0  0  0  0  0  0  0  0  0
  -49.5443   58.4656   65.7936 C   0  0  0  0  0  0  0  0  0  0  0  0
  -49.5902   58.1497   64.2959 C   0  0  0  0  0  0  0  0  0  0  0  0
  -50.7644   58.7635   63.5430 C   0  0  0  0  0  0  0  0  0  0  0  0
  -50.5751   58.7083   62.0343 C   0  0  0  0  0  0  0  0  0  0  0  0
  -51.1276   57.4649   61.3337 C   0  0  0  0  0  0  0  0  0  0  0  0
  -50.0501   56.9252   60.4028 C   0  0  0  0  0  0  0  0  0  0  0  0
  -48.7472   57.6997   60.2690 C   0  0  0  0  0  0  0  0  0  0  0  0
  -47.9610   57.2433   59.0298 C   0  0  0  0  0  0  0  0  0  0  0  0
  -46.4366   57.4344   59.1346 C   0  0  0  0  0  0  0  0  0  0  0  0
  -45.8206   58.0698   57.8902 C   0  0  0  0  0  0  0  0  0  0  0  0
  -39.8732   57.4663   64.5209 O   0  0  0  0  0  0  0  0  0  0  0  0
  -38.8680   58.3804   64.1238 C   0  0  0  0  0  0  0  0  0  0  0  0
  -40.7441   57.8837   64.4294 H   0  0  0  0  0  0  0  0  0  0  0  0
  -37.4643   57.7823   64.2445 C   0  0  0  0  0  0  0  0  0  0  0  0
  -36.5832   57.7725   63.2297 C   0  0  0  0  0  0  0  0  0  0  0  0
  -35.2004   57.1551   63.4295 C   0  0  0  0  0  0  0  0  0  0  0  0
  -34.1150   58.1717   63.8123 C   0  0  0  0  0  0  0  0  0  0  0  0
  -32.7700   58.0190   63.0782 C   0  0  0  0  0  0  0  0  0  0  0  0
  -32.9939   57.7819   61.5652 C   0  0  0  0  0  0  0  0  0  0  0  0
  -33.3550   56.3278   61.1695 C   0  0  0  0  0  0  0  0  0  0  0  0
  -34.0424   56.1989   59.7898 C   0  0  0  0  0  0  0  0  0  0  0  0
  -35.5093   55.7240   59.8727 C   0  0  0  0  0  0  0  0  0  0  0  0
  -36.3560   56.1182   58.6565 C   0  0  0  0  0  0  0  0  0  0  0  0
  -36.2823   57.5839   58.2338 C   0  0  0  0  0  0  0  0  0  0  0  0
  -37.5675   58.3842   58.5234 C   0  0  0  0  0  0  0  0  0  0  0  0
  -38.0278   58.3757   59.9890 C   0  0  0  0  0  0  0  0  0  0  0  0
  -38.3036   59.7973   60.4870 C   0  0  0  0  0  0  0  0  0  0  0  0
  -39.7509   60.1347   60.7986 C   0  0  0  0  0  0  0  0  0  0  0  0
  -37.7867   59.8518   65.9922 C   0  0  0  0  0  0  0  0  0  0  0  0
  -37.7033   61.1954   66.5319 O   0  0  0  0  0  0  0  0  0  0  0  0
  -35.4322   62.5610   67.6062 O   0  0  0  0  0  0  0  0  0  0  0  0
  -34.0283   62.2127   63.6939 O   0  0  0  0  0  0  0  0  0  0  0  0
  -36.9677   62.0938   64.4019 O   0  0  0  0  0  0  0  0  0  0  0  0
  -36.9368   62.2515   65.8412 C   0  0  0  0  0  0  0  0  0  0  0  0
  -35.4549   62.3716   66.2251 C   0  0  0  0  0  0  0  0  0  0  0  0
  -34.7366   63.5660   65.5598 C   0  0  0  0  0  0  0  0  0  0  0  0
  -34.8209   63.3341   64.0764 C   0  0  0  0  0  0  0  0  0  0  0  0
  -36.2696   63.1363   63.6688 C   0  0  0  0  0  0  0  0  0  0  0  0
  -35.8798   61.8188   68.0418 H   0  0  0  0  0  0  0  0  0  0  0  0
  -33.1082   62.3600   63.9634 H   0  0  0  0  0  0  0  0  0  0  0  0
  -35.0787   63.6836   61.6699 O   0  0  0  0  0  0  0  0  0  0  0  0
  -36.1309   62.9110   62.1648 C   0  0  0  0  0  0  0  0  0  0  0  0
  -34.9927   63.5387   60.7147 H   0  0  0  0  0  0  0  0  0  0  0  0
  -33.3309   63.7107   65.8647 O   0  0  0  0  0  0  0  0  0  0  0  0
  -33.3771   66.1765   65.0676 O   0  0  0  0  0  0  0  0  0  0  0  0
  -31.3370   64.8822   64.8385 O   0  0  0  0  0  0  0  0  0  0  0  0
  -32.0232   65.7017   67.0138 O   0  0  0  0  0  0  0  0  0  0  0  0
  -32.5081   65.1505   65.7166 S   0  0  0  0  0  0  0  0  0  0  0  0
  -33.7028   65.8348   64.2202 H   0  0  0  0  0  0  0  0  0  0  0  0
  -32.7808   65.8797   67.5929 H   0  0  0  0  0  0  0  0  0  0  0  0
  2  1  1  0  0  0
  2  4  1  0  0  0
  2  5  1  0  0  0
 41 42  1  0  0  0
 41  1  1  0  0  0
 42 46  1  0  0  0
  1 24  1  0  0  0
 23 24  1  0  0  0
 23 25  1  0  0  0
 24 26  1  0  0  0
  3  4  2  0  0  0
 26 27  2  0  0  0
 27 28  1  0  0  0
 43 47  1  0  0  0
 43 51  1  0  0  0
 28 29  1  0  0  0
 56 48  1  0  0  0
 56 60  1  0  0  0
 29 30  1  0  0  0
 57 60  1  0  0  0
 57 61  1  0  0  0
 30 31  1  0  0  0
 44 49  1  0  0  0
 44 52  1  0  0  0
 31 32  1  0  0  0
 45 46  1  0  0  0
 45 50  1  0  0  0
 32 33  1  0  0  0
 53 54  1  0  0  0
 53 55  1  0  0  0
 33 34  1  0  0  0
 34 35  1  0  0  0
 35 36  1  0  0  0
 58 60  1  0  0  0
 36 37  1  0  0  0
 59 60  1  0  0  0
 59 62  1  0  0  0
 37 38  1  0  0  0
 38 39  1  0  0  0
 39 40  1  0  0  0
  4  6  1  0  0  0
  6  7  1  0  0  0
  7  8  1  0  0  0
  8  9  1  0  0  0
  9 10  1  0  0  0
 10 11  1  0  0  0
 11 12  1  0  0  0
 12 13  1  0  0  0
 13 14  1  0  0  0
 14 15  1  0  0  0
 15 16  1  0  0  0
 16 17  1  0  0  0
 17 18  1  0  0  0
 18 19  1  0  0  0
 19 20  1  0  0  0
 20 21  1  0  0  0
 21 22  1  0  0  0
 46 47  1  0  0  0
 47 48  1  0  0  0
 48 49  1  0  0  0
 49 50  1  0  0  0
 50 54  1  0  0  0
M  CHG 1  58  -1
M  END
> <minimizedAffinity>
-9.81955

> <CNNscore>
0.4370432496

> <CNNaffinity>
7.2877907753

> <CNN_VS>
3.1850798130

> <CNNaffinity_variance>
1.3086036444

$$$$
/media/chris/experiments/cd1a-new-docking/inputs/ligands/1onq_ligand.pdb


 62 62  0  0  0  0  0  0  0  0999 V2000
  -39.9650   59.2269   63.6089 C   0  0  0  0  0  0  0  0  0  0  0  0
  -40.7472   58.8725   64.7767 N   0  0  0  0  0  0  0  0  0  0  0  0
  -42.7133   59.9290   64.3699 O   0  0  0  0  0  0  0  0  0  0  0  0
  -42.0061   59.2280   65.0672 C   0  0  0  0  0  0  0  0  0  0  0  0
  -40.2975   58.2992   65.4389 H   0  0  0  0  0  0  0  0  0  0  0  0
  -42.5396   58.6861   66.3601 C   0  0  0  0  0  0  0  0  0  0  0  0
  -43.4885   57.5451   65.9930 C   0  0  0  0  0  0  0  0  0  0  0  0
  -44.9239   57.9261   66.3470 C   0  0  0  0  0  0  0  0  0  0  0  0
  -45.5173   59.0738   65.5665 C   0  0  0  0  0  0  0  0  0  0  0  0
  -47.0010   59.1476   65.9118 C   0  0  0  0  0  0  0  0  0  0  0  0
  -47.8532   58.1840   65.0750 C   0  0  0  0  0  0  0  0  0  0  0  0
  -49.1496   57.7234   65.7662 C   0  0  0  0  0  0  0  0  0  0  0  0
  -50.3601   58.6228   65.4324 C   0  0  0  0  0  0  0  0  0  0  0  0
  -50.2038   59.2443   64.0417 C   0  0  0  0  0  0  0  0  0  0  0  0
  -50.9294   58.5089   62.9214 C   0  0  0  0  0  0  0  0  0  0  0  0
  -49.9669   57.8265   61.9605 C   0  0  0  0  0  0  0  0  0  0  0  0
  -49.7361   58.5368   60.6247 C   0  0  0  0  0  0  0  0  0  0  0  0
  -49.6840   57.4818   59.5279 C   0  0  0  0  0  0  0  0  0  0  0  0
  -49.2594   56.0677   59.8958 C   0  0  0  0  0  0  0  0  0  0  0  0
  -48.0456   55.6241   59.0640 C   0  0  0  0  0  0  0  0  0  0  0  0
  -47.4167   56.7386   58.2075 C   0  0  0  0  0  0  0  0  0  0  0  0
  -47.6327   56.5430   56.7086 C   0  0  0  0  0  0  0  0  0  0  0  0
  -37.8855   58.5065   64.3521 O   0  0  0  0  0  0  0  0  0  0  0  0
  -38.9588   58.0919   63.5276 C   0  0  0  0  0  0  0  0  0  0  0  0
  -38.2009   58.6157   65.2629 H   0  0  0  0  0  0  0  0  0  0  0  0
  -38.5270   57.9005   62.0718 C   0  0  0  0  0  0  0  0  0  0  0  0
  -37.5599   57.0437   61.7018 C   0  0  0  0  0  0  0  0  0  0  0  0
  -37.1855   56.9106   60.2269 C   0  0  0  0  0  0  0  0  0  0  0  0
  -36.0224   55.9425   59.9656 C   0  0  0  0  0  0  0  0  0  0  0  0
  -34.6120   56.5514   60.0707 C   0  0  0  0  0  0  0  0  0  0  0  0
  -33.9632   56.2025   61.4319 C   0  0  0  0  0  0  0  0  0  0  0  0
  -32.8800   57.1960   61.9229 C   0  0  0  0  0  0  0  0  0  0  0  0
  -33.4452   58.5170   62.4958 C   0  0  0  0  0  0  0  0  0  0  0  0
  -32.4899   59.7192   62.3336 C   0  0  0  0  0  0  0  0  0  0  0  0
  -31.0308   59.3194   62.0831 C   0  0  0  0  0  0  0  0  0  0  0  0
  -30.0501   60.4673   61.8536 C   0  0  0  0  0  0  0  0  0  0  0  0
  -30.3884   61.7470   62.6435 C   0  0  0  0  0  0  0  0  0  0  0  0
  -29.5879   62.9951   62.2419 C   0  0  0  0  0  0  0  0  0  0  0  0
  -30.5133   64.0966   61.7173 C   0  0  0  0  0  0  0  0  0  0  0  0
  -29.8554   65.4174   61.3591 C   0  0  0  0  0  0  0  0  0  0  0  0
  -39.4008   60.6658   63.5973 C   0  0  0  0  0  0  0  0  0  0  0  0
  -38.1104   60.8509   62.9617 O   0  0  0  0  0  0  0  0  0  0  0  0
  -36.1266   62.6543   61.9671 O   0  0  0  0  0  0  0  0  0  0  0  0
  -36.3860   64.2368   65.8177 O   0  0  0  0  0  0  0  0  0  0  0  0
  -37.2115   61.4044   65.1459 O   0  0  0  0  0  0  0  0  0  0  0  0
  -36.9455   61.3431   63.7236 C   0  0  0  0  0  0  0  0  0  0  0  0
  -36.4168   62.7296   63.3288 C   0  0  0  0  0  0  0  0  0  0  0  0
  -35.1292   63.1387   64.0772 C   0  0  0  0  0  0  0  0  0  0  0  0
  -35.4838   63.1691   65.5383 C   0  0  0  0  0  0  0  0  0  0  0  0
  -36.0806   61.8355   65.9500 C   0  0  0  0  0  0  0  0  0  0  0  0
  -36.9253   62.3981   61.4800 H   0  0  0  0  0  0  0  0  0  0  0  0
  -35.9854   65.0779   65.5474 H   0  0  0  0  0  0  0  0  0  0  0  0
  -35.3759   62.8907   67.9757 O   0  0  0  0  0  0  0  0  0  0  0  0
  -36.3724   62.0802   67.4288 C   0  0  0  0  0  0  0  0  0  0  0  0
  -35.5636   63.0447   68.9148 H   0  0  0  0  0  0  0  0  0  0  0  0
  -34.6024   64.4481   63.7642 O   0  0  0  0  0  0  0  0  0  0  0  0
  -33.6505   65.7989   65.7609 O   0  0  0  0  0  0  0  0  0  0  0  0
  -32.6807   66.0803   63.5542 O   0  0  0  0  0  0  0  0  0  0  0  0
  -32.2162   64.0817   64.8442 O   0  0  0  0  0  0  0  0  0  0  0  0
  -33.2580   65.0924   64.5056 S   0  0  0  0  0  0  0  0  0  0  0  0
  -34.3294   66.4619   65.5599 H   0  0  0  0  0  0  0  0  0  0  0  0
  -32.5843   63.4332   65.4646 H   0  0  0  0  0  0  0  0  0  0  0  0
  2  1  1  0  0  0
  2  4  1  0  0  0
  2  5  1  0  0  0
 41 42  1  0  0  0
 41  1  1  0  0  0
 42 46  1  0  0  0
  1 24  1  0  0  0
 23 24  1  0  0  0
 23 25  1  0  0  0
 24 26  1  0  0  0
  3  4  2  0  0  0
 26 27  2  0  0  0
 27 28  1  0  0  0
 43 47  1  0  0  0
 43 51  1  0  0  0
 28 29  1  0  0  0
 56 48  1  0  0  0
 56 60  1  0  0  0
 29 30  1  0  0  0
 57 60  1  0  0  0
 57 61  1  0  0  0
 30 31  1  0  0  0
 44 49  1  0  0  0
 44 52  1  0  0  0
 31 32  1  0  0  0
 45 46  1  0  0  0
 45 50  1  0  0  0
 32 33  1  0  0  0
 53 54  1  0  0  0
 53 55  1  0  0  0
 33 34  1  0  0  0
 34 35  1  0  0  0
 35 36  1  0  0  0
 58 60  1  0  0  0
 36 37  1  0  0  0
 59 60  1  0  0  0
 59 62  1  0  0  0
 37 38  1  0  0  0
 38 39  1  0  0  0
 39 40  1  0  0  0
  4  6  1  0  0  0
  6  7  1  0  0  0
  7  8  1  0  0  0
  8  9  1  0  0  0
  9 10  1  0  0  0
 10 11  1  0  0  0
 11 12  1  0  0  0
 12 13  1  0  0  0
 13 14  1  0  0  0
 14 15  1  0  0  0
 15 16  1  0  0  0
 16 17  1  0  0  0
 17 18  1  0  0  0
 18 19  1  0  0  0
 19 20  1  0  0  0
 20 21  1  0  0  0
 21 22  1  0  0  0
 46 47  1  0  0  0
 47 48  1  0  0  0
 48 49  1  0  0  0
 49 50  1  0  0  0
 50 54  1  0  0  0
M  CHG 1  58  -1
M  END
> <minimizedAffinity>
-9.26661

> <CNNscore>
0.4369247854

> <CNNaffinity>
6.9323682785

> <CNN_VS>
3.0289235115

> <CNNaffinity_variance>
0.5030238032

$$$$
/media/chris/experiments/cd1a-new-docking/inputs/ligands/1onq_ligand.pdb


 62 62  0  0  0  0  0  0  0  0999 V2000
  -40.3384   59.0121   65.0696 C   0  0  0  0  0  0  0  0  0  0  0  0
  -39.7976   58.3510   63.8985 N   0  0  0  0  0  0  0  0  0  0  0  0
  -37.8450   57.5079   64.6886 O   0  0  0  0  0  0  0  0  0  0  0  0
  -38.6451   57.6763   63.7889 C   0  0  0  0  0  0  0  0  0  0  0  0
  -40.3451   58.4044   63.0820 H   0  0  0  0  0  0  0  0  0  0  0  0
  -38.3720   57.0967   62.4327 C   0  0  0  0  0  0  0  0  0  0  0  0
  -37.6179   58.1696   61.6469 C   0  0  0  0  0  0  0  0  0  0  0  0
  -38.5513   58.8259   60.6325 C   0  0  0  0  0  0  0  0  0  0  0  0
  -37.8948   59.3944   59.3978 C   0  0  0  0  0  0  0  0  0  0  0  0
  -37.9697   58.3326   58.3056 C   0  0  0  0  0  0  0  0  0  0  0  0
  -36.5853   57.8566   57.8454 C   0  0  0  0  0  0  0  0  0  0  0  0
  -36.3689   56.3366   57.9604 C   0  0  0  0  0  0  0  0  0  0  0  0
  -36.3231   55.8456   59.4241 C   0  0  0  0  0  0  0  0  0  0  0  0
  -35.0224   55.0854   59.6981 C   0  0  0  0  0  0  0  0  0  0  0  0
  -33.9043   55.9200   60.3108 C   0  0  0  0  0  0  0  0  0  0  0  0
  -34.3804   57.3023   60.7327 C   0  0  0  0  0  0  0  0  0  0  0  0
  -33.9644   57.7566   62.1336 C   0  0  0  0  0  0  0  0  0  0  0  0
  -32.4513   57.6269   62.2460 C   0  0  0  0  0  0  0  0  0  0  0  0
  -31.6467   58.8386   62.6927 C   0  0  0  0  0  0  0  0  0  0  0  0
  -31.6209   59.9160   61.5970 C   0  0  0  0  0  0  0  0  0  0  0  0
  -30.2942   60.6909   61.4944 C   0  0  0  0  0  0  0  0  0  0  0  0
  -29.5048   60.7126   62.8013 C   0  0  0  0  0  0  0  0  0  0  0  0
  -41.7252   60.7036   64.2874 O   0  0  0  0  0  0  0  0  0  0  0  0
  -41.7600   59.3335   64.6413 C   0  0  0  0  0  0  0  0  0  0  0  0
  -41.1109   60.8309   63.5475 H   0  0  0  0  0  0  0  0  0  0  0  0
  -42.7141   59.0631   65.8072 C   0  0  0  0  0  0  0  0  0  0  0  0
  -44.0397   58.9097   65.6475 C   0  0  0  0  0  0  0  0  0  0  0  0
  -44.9260   58.6430   66.8627 C   0  0  0  0  0  0  0  0  0  0  0  0
  -46.4075   58.9780   66.6372 C   0  0  0  0  0  0  0  0  0  0  0  0
  -46.7861   59.3941   65.2038 C   0  0  0  0  0  0  0  0  0  0  0  0
  -48.1937   60.0369   65.1721 C   0  0  0  0  0  0  0  0  0  0  0  0
  -48.9324   59.9457   63.8129 C   0  0  0  0  0  0  0  0  0  0  0  0
  -50.4747   59.9259   63.9302 C   0  0  0  0  0  0  0  0  0  0  0  0
  -51.1732   59.1919   62.7651 C   0  0  0  0  0  0  0  0  0  0  0  0
  -50.3301   58.0694   62.1480 C   0  0  0  0  0  0  0  0  0  0  0  0
  -50.9501   57.3410   60.9575 C   0  0  0  0  0  0  0  0  0  0  0  0
  -50.0639   57.3358   59.6963 C   0  0  0  0  0  0  0  0  0  0  0  0
  -48.8801   56.3573   59.7319 C   0  0  0  0  0  0  0  0  0  0  0  0
  -48.1298   56.3532   58.3971 C   0  0  0  0  0  0  0  0  0  0  0  0
  -47.2884   57.5797   58.0916 C   0  0  0  0  0  0  0  0  0  0  0  0
  -39.4927   60.1808   65.6245 C   0  0  0  0  0  0  0  0  0  0  0  0
  -38.8537   61.0401   64.6463 O   0  0  0  0  0  0  0  0  0  0  0  0
  -37.1051   61.4550   62.4221 O   0  0  0  0  0  0  0  0  0  0  0  0
  -35.5838   64.4839   64.8532 O   0  0  0  0  0  0  0  0  0  0  0  0
  -37.1056   62.1079   65.9460 O   0  0  0  0  0  0  0  0  0  0  0  0
  -37.4176   61.3701   64.7395 C   0  0  0  0  0  0  0  0  0  0  0  0
  -36.8355   62.1876   63.5774 C   0  0  0  0  0  0  0  0  0  0  0  0
  -35.3086   62.3998   63.6719 C   0  0  0  0  0  0  0  0  0  0  0  0
  -35.0677   63.1585   64.9477 C   0  0  0  0  0  0  0  0  0  0  0  0
  -35.6954   62.4159   66.1134 C   0  0  0  0  0  0  0  0  0  0  0  0
  -38.0614   61.3117   62.3459 H   0  0  0  0  0  0  0  0  0  0  0  0
  -35.1700   64.9394   64.1033 H   0  0  0  0  0  0  0  0  0  0  0  0
  -36.5078   63.9844   67.7238 O   0  0  0  0  0  0  0  0  0  0  0  0
  -35.3517   63.3405   67.2791 C   0  0  0  0  0  0  0  0  0  0  0  0
  -36.2868   64.5709   68.4641 H   0  0  0  0  0  0  0  0  0  0  0  0
  -34.7111   63.1874   62.6171 O   0  0  0  0  0  0  0  0  0  0  0  0
  -32.5583   63.6410   61.2470 O   0  0  0  0  0  0  0  0  0  0  0  0
  -32.3826   62.6925   63.4738 O   0  0  0  0  0  0  0  0  0  0  0  0
  -32.9120   65.0402   63.1870 O   0  0  0  0  0  0  0  0  0  0  0  0
  -33.1186   63.6730   62.6305 S   0  0  0  0  0  0  0  0  0  0  0  0
  -32.6839   62.7571   60.8677 H   0  0  0  0  0  0  0  0  0  0  0  0
  -33.3888   65.6863   62.6428 H   0  0  0  0  0  0  0  0  0  0  0  0
  2  1  1  0  0  0
  2  4  1  0  0  0
  2  5  1  0  0  0
 41 42  1  0  0  0
 41  1  1  0  0  0
 42 46  1  0  0  0
  1 24  1  0  0  0
 23 24  1  0  0  0
 23 25  1  0  0  0
 24 26  1  0  0  0
  3  4  2  0  0  0
 26 27  2  0  0  0
 27 28  1  0  0  0
 43 47  1  0  0  0
 43 51  1  0  0  0
 28 29  1  0  0  0
 56 48  1  0  0  0
 56 60  1  0  0  0
 29 30  1  0  0  0
 57 60  1  0  0  0
 57 61  1  0  0  0
 30 31  1  0  0  0
 44 49  1  0  0  0
 44 52  1  0  0  0
 31 32  1  0  0  0
 45 46  1  0  0  0
 45 50  1  0  0  0
 32 33  1  0  0  0
 53 54  1  0  0  0
 53 55  1  0  0  0
 33 34  1  0  0  0
 34 35  1  0  0  0
 35 36  1  0  0  0
 58 60  1  0  0  0
 36 37  1  0  0  0
 59 60  1  0  0  0
 59 62  1  0  0  0
 37 38  1  0  0  0
 38 39  1  0  0  0
 39 40  1  0  0  0
  4  6  1  0  0  0
  6  7  1  0  0  0
  7  8  1  0  0  0
  8  9  1  0  0  0
  9 10  1  0  0  0
 10 11  1  0  0  0
 11 12  1  0  0  0
 12 13  1  0  0  0
 13 14  1  0  0  0
 14 15  1  0  0  0
 15 16  1  0  0  0
 16 17  1  0  0  0
 17 18  1  0  0  0
 18 19  1  0  0  0
 19 20  1  0  0  0
 20 21  1  0  0  0
 21 22  1  0  0  0
 46 47  1  0  0  0
 47 48  1  0  0  0
 48 49  1  0  0  0
 49 50  1  0  0  0
 50 54  1  0  0  0
M  CHG 1  58  -1
M  END
> <minimizedAffinity>
-10.01650

> <CNNscore>
0.3684678972

> <CNNaffinity>
7.1565308571

> <CNN_VS>
2.6369519234

> <CNNaffinity_variance>
0.8200937510

$$$$
/media/chris/experiments/cd1a-new-docking/inputs/ligands/1onq_ligand.pdb


 62 62  0  0  0  0  0  0  0  0999 V2000
  -39.1414   59.3347   64.8856 C   0  0  0  0  0  0  0  0  0  0  0  0
  -40.2839   59.1086   65.7486 N   0  0  0  0  0  0  0  0  0  0  0  0
  -41.0011   61.2232   66.1506 O   0  0  0  0  0  0  0  0  0  0  0  0
  -41.0983   60.0203   66.2973 C   0  0  0  0  0  0  0  0  0  0  0  0
  -40.4868   58.1681   65.9575 H   0  0  0  0  0  0  0  0  0  0  0  0
  -42.2041   59.4612   67.1425 C   0  0  0  0  0  0  0  0  0  0  0  0
  -43.2956   58.9984   66.1773 C   0  0  0  0  0  0  0  0  0  0  0  0
  -43.5647   57.5079   66.3701 C   0  0  0  0  0  0  0  0  0  0  0  0
  -44.5954   56.8959   65.4528 C   0  0  0  0  0  0  0  0  0  0  0  0
  -45.0980   57.9968   64.5246 C   0  0  0  0  0  0  0  0  0  0  0  0
  -46.6040   58.2531   64.6698 C   0  0  0  0  0  0  0  0  0  0  0  0
  -46.9549   59.5530   65.4166 C   0  0  0  0  0  0  0  0  0  0  0  0
  -48.2730   59.4497   66.2151 C   0  0  0  0  0  0  0  0  0  0  0  0
  -48.9269   58.0813   66.0030 C   0  0  0  0  0  0  0  0  0  0  0  0
  -50.3910   58.1244   65.5824 C   0  0  0  0  0  0  0  0  0  0  0  0
  -50.8077   59.4995   65.0817 C   0  0  0  0  0  0  0  0  0  0  0  0
  -51.1713   59.5915   63.5980 C   0  0  0  0  0  0  0  0  0  0  0  0
  -49.8900   59.8198   62.8075 C   0  0  0  0  0  0  0  0  0  0  0  0
  -49.2948   58.6545   62.0310 C   0  0  0  0  0  0  0  0  0  0  0  0
  -50.3520   57.5697   61.7712 C   0  0  0  0  0  0  0  0  0  0  0  0
  -50.0941   56.7139   60.5172 C   0  0  0  0  0  0  0  0  0  0  0  0
  -50.0367   57.5320   59.2291 C   0  0  0  0  0  0  0  0  0  0  0  0
  -37.6653   57.5432   64.9736 O   0  0  0  0  0  0  0  0  0  0  0  0
  -38.8626   57.9466   64.3352 C   0  0  0  0  0  0  0  0  0  0  0  0
  -37.8070   57.5059   65.9325 H   0  0  0  0  0  0  0  0  0  0  0  0
  -38.7068   58.0261   62.8147 C   0  0  0  0  0  0  0  0  0  0  0  0
  -39.0551   59.1090   62.0989 C   0  0  0  0  0  0  0  0  0  0  0  0
  -38.8693   59.1102   60.5828 C   0  0  0  0  0  0  0  0  0  0  0  0
  -37.5051   58.5756   60.1231 C   0  0  0  0  0  0  0  0  0  0  0  0
  -37.3026   58.4881   58.5991 C   0  0  0  0  0  0  0  0  0  0  0  0
  -36.2126   57.4466   58.2488 C   0  0  0  0  0  0  0  0  0  0  0  0
  -36.5943   55.9704   58.5257 C   0  0  0  0  0  0  0  0  0  0  0  0
  -35.6660   55.2548   59.5351 C   0  0  0  0  0  0  0  0  0  0  0  0
  -34.2006   55.7379   59.4764 C   0  0  0  0  0  0  0  0  0  0  0  0
  -33.6447   56.1909   60.8318 C   0  0  0  0  0  0  0  0  0  0  0  0
  -34.5614   57.0787   61.6707 C   0  0  0  0  0  0  0  0  0  0  0  0
  -33.8267   57.8856   62.7593 C   0  0  0  0  0  0  0  0  0  0  0  0
  -32.3153   58.0537   62.5416 C   0  0  0  0  0  0  0  0  0  0  0  0
  -31.9908   59.4441   61.9878 C   0  0  0  0  0  0  0  0  0  0  0  0
  -30.5563   59.9159   62.1458 C   0  0  0  0  0  0  0  0  0  0  0  0
  -37.9546   60.0825   65.5346 C   0  0  0  0  0  0  0  0  0  0  0  0
  -36.6981   60.0564   64.8109 O   0  0  0  0  0  0  0  0  0  0  0  0
  -34.8367   61.0315   62.8715 O   0  0  0  0  0  0  0  0  0  0  0  0
  -35.5316   64.6645   64.7997 O   0  0  0  0  0  0  0  0  0  0  0  0
  -36.0200   61.9848   66.1173 O   0  0  0  0  0  0  0  0  0  0  0  0
  -35.6465   61.0607   65.0666 C   0  0  0  0  0  0  0  0  0  0  0  0
  -35.2311   61.9245   63.8671 C   0  0  0  0  0  0  0  0  0  0  0  0
  -34.0485   62.8721   64.1649 C   0  0  0  0  0  0  0  0  0  0  0  0
  -34.5097   63.7868   65.2659 C   0  0  0  0  0  0  0  0  0  0  0  0
  -34.9990   62.9655   66.4450 C   0  0  0  0  0  0  0  0  0  0  0  0
  -35.5684   60.4272   62.6709 H   0  0  0  0  0  0  0  0  0  0  0  0
  -35.1981   65.1786   64.0477 H   0  0  0  0  0  0  0  0  0  0  0  0
  -36.5461   63.6468   68.1349 O   0  0  0  0  0  0  0  0  0  0  0  0
  -35.4205   64.0618   67.4209 C   0  0  0  0  0  0  0  0  0  0  0  0
  -36.8117   64.3447   68.7540 H   0  0  0  0  0  0  0  0  0  0  0  0
  -33.6333   63.7296   63.0776 O   0  0  0  0  0  0  0  0  0  0  0  0
  -31.1211   63.2468   63.4936 O   0  0  0  0  0  0  0  0  0  0  0  0
  -31.9187   65.5387   63.5117 O   0  0  0  0  0  0  0  0  0  0  0  0
  -31.6732   64.3498   61.4140 O   0  0  0  0  0  0  0  0  0  0  0  0
  -32.0571   64.2142   62.8478 S   0  0  0  0  0  0  0  0  0  0  0  0
  -31.3560   63.1454   64.4292 H   0  0  0  0  0  0  0  0  0  0  0  0
  -31.7605   63.4902   60.9731 H   0  0  0  0  0  0  0  0  0  0  0  0
  2  1  1  0  0  0
  2  4  1  0  0  0
  2  5  1  0  0  0
 41 42  1  0  0  0
 41  1  1  0  0  0
 42 46  1  0  0  0
  1 24  1  0  0  0
 23 24  1  0  0  0
 23 25  1  0  0  0
 24 26  1  0  0  0
  3  4  2  0  0  0
 26 27  2  0  0  0
 27 28  1  0  0  0
 43 47  1  0  0  0
 43 51  1  0  0  0
 28 29  1  0  0  0
 56 48  1  0  0  0
 56 60  1  0  0  0
 29 30  1  0  0  0
 57 60  1  0  0  0
 57 61  1  0  0  0
 30 31  1  0  0  0
 44 49  1  0  0  0
 44 52  1  0  0  0
 31 32  1  0  0  0
 45 46  1  0  0  0
 45 50  1  0  0  0
 32 33  1  0  0  0
 53 54  1  0  0  0
 53 55  1  0  0  0
 33 34  1  0  0  0
 34 35  1  0  0  0
 35 36  1  0  0  0
 58 60  1  0  0  0
 36 37  1  0  0  0
 59 60  1  0  0  0
 59 62  1  0  0  0
 37 38  1  0  0  0
 38 39  1  0  0  0
 39 40  1  0  0  0
  4  6  1  0  0  0
  6  7  1  0  0  0
  7  8  1  0  0  0
  8  9  1  0  0  0
  9 10  1  0  0  0
 10 11  1  0  0  0
 11 12  1  0  0  0
 12 13  1  0  0  0
 13 14  1  0  0  0
 14 15  1  0  0  0
 15 16  1  0  0  0
 16 17  1  0  0  0
 17 18  1  0  0  0
 18 19  1  0  0  0
 19 20  1  0  0  0
 20 21  1  0  0  0
 21 22  1  0  0  0
 46 47  1  0  0  0
 47 48  1  0  0  0
 48 49  1  0  0  0
 49 50  1  0  0  0
 50 54  1  0  0  0
M  CHG 1  58  -1
M  END
> <minimizedAffinity>
-9.69665

> <CNNscore>
0.3172676861

> <CNNaffinity>
7.0140657425

> <CNN_VS>
2.2253363132

> <CNNaffinity_variance>
1.5310293436

$$$$
/media/chris/experiments/cd1a-new-docking/inputs/ligands/1onq_ligand.pdb


 62 62  0  0  0  0  0  0  0  0999 V2000
  -40.1403   58.8243   64.7771 C   0  0  0  0  0  0  0  0  0  0  0  0
  -41.1893   58.2292   65.5812 N   0  0  0  0  0  0  0  0  0  0  0  0
  -43.0144   59.4088   64.9293 O   0  0  0  0  0  0  0  0  0  0  0  0
  -42.4917   58.5435   65.6044 C   0  0  0  0  0  0  0  0  0  0  0  0
  -40.9101   57.5038   66.1855 H   0  0  0  0  0  0  0  0  0  0  0  0
  -43.3274   57.7297   66.5474 C   0  0  0  0  0  0  0  0  0  0  0  0
  -44.3241   56.9552   65.6848 C   0  0  0  0  0  0  0  0  0  0  0  0
  -45.7457   57.1958   66.1870 C   0  0  0  0  0  0  0  0  0  0  0  0
  -46.0973   58.6245   66.5240 C   0  0  0  0  0  0  0  0  0  0  0  0
  -46.7264   59.2492   65.2830 C   0  0  0  0  0  0  0  0  0  0  0  0
  -47.9444   58.4648   64.7769 C   0  0  0  0  0  0  0  0  0  0  0  0
  -49.1155   58.4028   65.7745 C   0  0  0  0  0  0  0  0  0  0  0  0
  -50.4924   58.5724   65.0954 C   0  0  0  0  0  0  0  0  0  0  0  0
  -50.4324   59.6579   64.0170 C   0  0  0  0  0  0  0  0  0  0  0  0
  -51.0295   59.2640   62.6714 C   0  0  0  0  0  0  0  0  0  0  0  0
  -50.6518   57.8473   62.2647 C   0  0  0  0  0  0  0  0  0  0  0  0
  -51.1985   57.3674   60.9182 C   0  0  0  0  0  0  0  0  0  0  0  0
  -50.1293   57.6027   59.8597 C   0  0  0  0  0  0  0  0  0  0  0  0
  -48.6691   57.6120   60.2876 C   0  0  0  0  0  0  0  0  0  0  0  0
  -47.7415   57.3920   59.0821 C   0  0  0  0  0  0  0  0  0  0  0  0
  -48.4196   56.7336   57.8663 C   0  0  0  0  0  0  0  0  0  0  0  0
  -47.4996   56.6126   56.6537 C   0  0  0  0  0  0  0  0  0  0  0  0
  -38.0563   57.8912   65.2038 O   0  0  0  0  0  0  0  0  0  0  0  0
  -39.2422   57.6374   64.4737 C   0  0  0  0  0  0  0  0  0  0  0  0
  -38.2616   57.9280   66.1512 H   0  0  0  0  0  0  0  0  0  0  0  0
  -38.9872   57.5668   62.9662 C   0  0  0  0  0  0  0  0  0  0  0  0
  -37.8556   57.0704   62.4378 C   0  0  0  0  0  0  0  0  0  0  0  0
  -37.6762   57.0353   60.9213 C   0  0  0  0  0  0  0  0  0  0  0  0
  -37.3811   58.4075   60.2982 C   0  0  0  0  0  0  0  0  0  0  0  0
  -37.7907   58.5716   58.8229 C   0  0  0  0  0  0  0  0  0  0  0  0
  -36.5895   58.2985   57.8857 C   0  0  0  0  0  0  0  0  0  0  0  0
  -35.9470   56.8953   58.0251 C   0  0  0  0  0  0  0  0  0  0  0  0
  -34.4095   56.8828   57.8552 C   0  0  0  0  0  0  0  0  0  0  0  0
  -33.6418   56.7650   59.1897 C   0  0  0  0  0  0  0  0  0  0  0  0
  -34.4419   56.0802   60.3043 C   0  0  0  0  0  0  0  0  0  0  0  0
  -33.9418   56.3111   61.7287 C   0  0  0  0  0  0  0  0  0  0  0  0
  -32.8308   57.3741   61.8375 C   0  0  0  0  0  0  0  0  0  0  0  0
  -33.2819   58.7396   62.3777 C   0  0  0  0  0  0  0  0  0  0  0  0
  -34.6612   58.6424   63.0355 C   0  0  0  0  0  0  0  0  0  0  0  0
  -34.6876   58.6542   64.5537 C   0  0  0  0  0  0  0  0  0  0  0  0
  -39.4663   60.0763   65.3830 C   0  0  0  0  0  0  0  0  0  0  0  0
  -38.8083   60.9728   64.4520 O   0  0  0  0  0  0  0  0  0  0  0  0
  -37.0039   61.4362   62.2826 O   0  0  0  0  0  0  0  0  0  0  0  0
  -35.5482   64.4129   64.8162 O   0  0  0  0  0  0  0  0  0  0  0  0
  -37.0950   62.0133   65.8185 O   0  0  0  0  0  0  0  0  0  0  0  0
  -37.3754   61.3014   64.5889 C   0  0  0  0  0  0  0  0  0  0  0  0
  -36.7646   62.1440   63.4598 C   0  0  0  0  0  0  0  0  0  0  0  0
  -35.2408   62.3547   63.5978 C   0  0  0  0  0  0  0  0  0  0  0  0
  -35.0333   63.0860   64.8953 C   0  0  0  0  0  0  0  0  0  0  0  0
  -35.6898   62.3183   66.0284 C   0  0  0  0  0  0  0  0  0  0  0  0
  -37.9578   61.2942   62.1790 H   0  0  0  0  0  0  0  0  0  0  0  0
  -35.1158   64.8845   64.0871 H   0  0  0  0  0  0  0  0  0  0  0  0
  -36.5408   63.8664   67.6386 O   0  0  0  0  0  0  0  0  0  0  0  0
  -35.3769   63.2177   67.2221 C   0  0  0  0  0  0  0  0  0  0  0  0
  -36.3394   64.4368   68.3968 H   0  0  0  0  0  0  0  0  0  0  0  0
  -34.6174   63.1651   62.5757 O   0  0  0  0  0  0  0  0  0  0  0  0
  -32.2214   62.3744   63.1684 O   0  0  0  0  0  0  0  0  0  0  0  0
  -32.7820   64.7292   63.3412 O   0  0  0  0  0  0  0  0  0  0  0  0
  -32.4471   63.7120   61.1669 O   0  0  0  0  0  0  0  0  0  0  0  0
  -32.9853   63.4922   62.5393 S   0  0  0  0  0  0  0  0  0  0  0  0
  -32.5584   62.2165   64.0642 H   0  0  0  0  0  0  0  0  0  0  0  0
  -32.5755   62.9098   60.6368 H   0  0  0  0  0  0  0  0  0  0  0  0
  2  1  1  0  0  0
  2  4  1  0  0  0
  2  5  1  0  0  0
 41 42  1  0  0  0
 41  1  1  0  0  0
 42 46  1  0  0  0
  1 24  1  0  0  0
 23 24  1  0  0  0
 23 25  1  0  0  0
 24 26  1  0  0  0
  3  4  2  0  0  0
 26 27  2  0  0  0
 27 28  1  0  0  0
 43 47  1  0  0  0
 43 51  1  0  0  0
 28 29  1  0  0  0
 56 48  1  0  0  0
 56 60  1  0  0  0
 29 30  1  0  0  0
 57 60  1  0  0  0
 57 61  1  0  0  0
 30 31  1  0  0  0
 44 49  1  0  0  0
 44 52  1  0  0  0
 31 32  1  0  0  0
 45 46  1  0  0  0
 45 50  1  0  0  0
 32 33  1  0  0  0
 53 54  1  0  0  0
 53 55  1  0  0  0
 33 34  1  0  0  0
 34 35  1  0  0  0
 35 36  1  0  0  0
 58 60  1  0  0  0
 36 37  1  0  0  0
 59 60  1  0  0  0
 59 62  1  0  0  0
 37 38  1  0  0  0
 38 39  1  0  0  0
 39 40  1  0  0  0
  4  6  1  0  0  0
  6  7  1  0  0  0
  7  8  1  0  0  0
  8  9  1  0  0  0
  9 10  1  0  0  0
 10 11  1  0  0  0
 11 12  1  0  0  0
 12 13  1  0  0  0
 13 14  1  0  0  0
 14 15  1  0  0  0
 15 16  1  0  0  0
 16 17  1  0  0  0
 17 18  1  0  0  0
 18 19  1  0  0  0
 19 20  1  0  0  0
 20 21  1  0  0  0
 21 22  1  0  0  0
 46 47  1  0  0  0
 47 48  1  0  0  0
 48 49  1  0  0  0
 49 50  1  0  0  0
 50 54  1  0  0  0
M  CHG 1  58  -1
M  END
> <minimizedAffinity>
-10.26683

> <CNNscore>
0.2992153764

> <CNNaffinity>
6.9847841263

> <CNN_VS>
2.0899548531

> <CNNaffinity_variance>
1.4155595303

$$$$
/media/chris/experiments/cd1a-new-docking/inputs/ligands/1onq_ligand.pdb


 62 62  0  0  0  0  0  0  0  0999 V2000
  -39.0757   59.6919   64.4412 C   0  0  0  0  0  0  0  0  0  0  0  0
  -39.2800   60.1392   63.0777 N   0  0  0  0  0  0  0  0  0  0  0  0
  -39.0669   58.2073   61.9073 O   0  0  0  0  0  0  0  0  0  0  0  0
  -39.2633   59.4060   61.9562 C   0  0  0  0  0  0  0  0  0  0  0  0
  -39.4525   61.1014   62.9610 H   0  0  0  0  0  0  0  0  0  0  0  0
  -39.5204   60.1697   60.6911 C   0  0  0  0  0  0  0  0  0  0  0  0
  -39.0511   59.2762   59.5427 C   0  0  0  0  0  0  0  0  0  0  0  0
  -37.5326   59.3569   59.4061 C   0  0  0  0  0  0  0  0  0  0  0  0
  -36.9419   58.7099   58.1769 C   0  0  0  0  0  0  0  0  0  0  0  0
  -37.1846   57.2081   58.2849 C   0  0  0  0  0  0  0  0  0  0  0  0
  -36.0345   56.3779   57.6991 C   0  0  0  0  0  0  0  0  0  0  0  0
  -34.7001   56.5261   58.4528 C   0  0  0  0  0  0  0  0  0  0  0  0
  -34.4908   55.4329   59.5237 C   0  0  0  0  0  0  0  0  0  0  0  0
  -34.3308   56.0602   60.9115 C   0  0  0  0  0  0  0  0  0  0  0  0
  -35.4895   56.9437   61.3574 C   0  0  0  0  0  0  0  0  0  0  0  0
  -35.0153   58.2026   62.0685 C   0  0  0  0  0  0  0  0  0  0  0  0
  -34.3708   57.9955   63.4410 C   0  0  0  0  0  0  0  0  0  0  0  0
  -32.8584   58.0100   63.2634 C   0  0  0  0  0  0  0  0  0  0  0  0
  -32.2712   58.7525   62.0722 C   0  0  0  0  0  0  0  0  0  0  0  0
  -31.5305   60.0206   62.5254 C   0  0  0  0  0  0  0  0  0  0  0  0
  -30.4388   60.5044   61.5532 C   0  0  0  0  0  0  0  0  0  0  0  0
  -30.2957   62.0241   61.5135 C   0  0  0  0  0  0  0  0  0  0  0  0
  -40.1872   60.7991   66.1543 O   0  0  0  0  0  0  0  0  0  0  0  0
  -40.4382   59.9214   65.0725 C   0  0  0  0  0  0  0  0  0  0  0  0
  -39.8249   61.6332   65.8165 H   0  0  0  0  0  0  0  0  0  0  0  0
  -41.0131   58.5816   65.5384 C   0  0  0  0  0  0  0  0  0  0  0  0
  -42.2932   58.4268   65.9178 C   0  0  0  0  0  0  0  0  0  0  0  0
  -42.7912   57.0559   66.3713 C   0  0  0  0  0  0  0  0  0  0  0  0
  -44.1723   56.6807   65.8146 C   0  0  0  0  0  0  0  0  0  0  0  0
  -45.3709   57.0241   66.7182 C   0  0  0  0  0  0  0  0  0  0  0  0
  -46.6515   57.2358   65.8751 C   0  0  0  0  0  0  0  0  0  0  0  0
  -46.5491   58.3258   64.7784 C   0  0  0  0  0  0  0  0  0  0  0  0
  -47.0767   57.8825   63.3935 C   0  0  0  0  0  0  0  0  0  0  0  0
  -48.4447   58.4982   63.0279 C   0  0  0  0  0  0  0  0  0  0  0  0
  -49.2809   57.6276   62.0822 C   0  0  0  0  0  0  0  0  0  0  0  0
  -50.6566   58.1743   61.7069 C   0  0  0  0  0  0  0  0  0  0  0  0
  -50.8916   59.6331   62.1459 C   0  0  0  0  0  0  0  0  0  0  0  0
  -52.0496   59.8412   63.1336 C   0  0  0  0  0  0  0  0  0  0  0  0
  -51.5335   60.3226   64.4926 C   0  0  0  0  0  0  0  0  0  0  0  0
  -50.7239   59.3234   65.2999 C   0  0  0  0  0  0  0  0  0  0  0  0
  -37.8554   60.3032   65.1666 C   0  0  0  0  0  0  0  0  0  0  0  0
  -36.7146   60.6463   64.3395 O   0  0  0  0  0  0  0  0  0  0  0  0
  -34.4792   61.5783   62.8192 O   0  0  0  0  0  0  0  0  0  0  0  0
  -35.0366   65.0290   65.0952 O   0  0  0  0  0  0  0  0  0  0  0  0
  -36.0260   62.3063   65.9690 O   0  0  0  0  0  0  0  0  0  0  0  0
  -35.6056   61.4659   64.8670 C   0  0  0  0  0  0  0  0  0  0  0  0
  -34.9153   62.3971   63.8600 C   0  0  0  0  0  0  0  0  0  0  0  0
  -33.6907   63.1387   64.4394 C   0  0  0  0  0  0  0  0  0  0  0  0
  -34.2059   63.9758   65.5775 C   0  0  0  0  0  0  0  0  0  0  0  0
  -34.9608   63.0987   66.5598 C   0  0  0  0  0  0  0  0  0  0  0  0
  -35.2365   61.1035   62.4423 H   0  0  0  0  0  0  0  0  0  0  0  0
  -34.5353   65.5761   64.4704 H   0  0  0  0  0  0  0  0  0  0  0  0
  -34.2934   64.8735   68.0152 O   0  0  0  0  0  0  0  0  0  0  0  0
  -35.3970   64.1235   67.6045 C   0  0  0  0  0  0  0  0  0  0  0  0
  -34.5731   65.5236   68.6786 H   0  0  0  0  0  0  0  0  0  0  0  0
  -33.0184   64.0510   63.5418 O   0  0  0  0  0  0  0  0  0  0  0  0
  -32.1445   66.2637   64.5702 O   0  0  0  0  0  0  0  0  0  0  0  0
  -30.9273   65.2299   62.7429 O   0  0  0  0  0  0  0  0  0  0  0  0
  -30.8077   64.2898   64.9736 O   0  0  0  0  0  0  0  0  0  0  0  0
  -31.6989   64.9635   63.9870 S   0  0  0  0  0  0  0  0  0  0  0  0
  -32.7268   66.7175   63.9410 H   0  0  0  0  0  0  0  0  0  0  0  0
  -31.3031   64.1122   65.7885 H   0  0  0  0  0  0  0  0  0  0  0  0
  2  1  1  0  0  0
  2  4  1  0  0  0
  2  5  1  0  0  0
 41 42  1  0  0  0
 41  1  1  0  0  0
 42 46  1  0  0  0
  1 24  1  0  0  0
 23 24  1  0  0  0
 23 25  1  0  0  0
 24 26  1  0  0  0
  3  4  2  0  0  0
 26 27  2  0  0  0
 27 28  1  0  0  0
 43 47  1  0  0  0
 43 51  1  0  0  0
 28 29  1  0  0  0
 56 48  1  0  0  0
 56 60  1  0  0  0
 29 30  1  0  0  0
 57 60  1  0  0  0
 57 61  1  0  0  0
 30 31  1  0  0  0
 44 49  1  0  0  0
 44 52  1  0  0  0
 31 32  1  0  0  0
 45 46  1  0  0  0
 45 50  1  0  0  0
 32 33  1  0  0  0
 53 54  1  0  0  0
 53 55  1  0  0  0
 33 34  1  0  0  0
 34 35  1  0  0  0
 35 36  1  0  0  0
 58 60  1  0  0  0
 36 37  1  0  0  0
 59 60  1  0  0  0
 59 62  1  0  0  0
 37 38  1  0  0  0
 38 39  1  0  0  0
 39 40  1  0  0  0
  4  6  1  0  0  0
  6  7  1  0  0  0
  7  8  1  0  0  0
  8  9  1  0  0  0
  9 10  1  0  0  0
 10 11  1  0  0  0
 11 12  1  0  0  0
 12 13  1  0  0  0
 13 14  1  0  0  0
 14 15  1  0  0  0
 15 16  1  0  0  0
 16 17  1  0  0  0
 17 18  1  0  0  0
 18 19  1  0  0  0
 19 20  1  0  0  0
 20 21  1  0  0  0
 21 22  1  0  0  0
 46 47  1  0  0  0
 47 48  1  0  0  0
 48 49  1  0  0  0
 49 50  1  0  0  0
 50 54  1  0  0  0
M  CHG 1  58  -1
M  END
> <minimizedAffinity>
-8.69882

> <CNNscore>
0.2923045158

> <CNNaffinity>
7.1156296730

> <CNN_VS>
2.0799307823

> <CNNaffinity_variance>
0.5852857232

$$$$
/media/chris/experiments/cd1a-new-docking/inputs/ligands/1onq_ligand.pdb


 62 62  0  0  0  0  0  0  0  0999 V2000
  -38.9818   59.1914   64.8430 C   0  0  0  0  0  0  0  0  0  0  0  0
  -40.1487   58.9331   65.6631 N   0  0  0  0  0  0  0  0  0  0  0  0
  -40.9831   61.0201   65.9724 O   0  0  0  0  0  0  0  0  0  0  0  0
  -41.0289   59.8183   66.1500 C   0  0  0  0  0  0  0  0  0  0  0  0
  -40.3153   57.9898   65.8908 H   0  0  0  0  0  0  0  0  0  0  0  0
  -42.1425   59.2288   66.9638 C   0  0  0  0  0  0  0  0  0  0  0  0
  -42.4293   57.8493   66.3705 C   0  0  0  0  0  0  0  0  0  0  0  0
  -43.9102   57.7307   66.0183 C   0  0  0  0  0  0  0  0  0  0  0  0
  -44.6560   59.0309   65.8404 C   0  0  0  0  0  0  0  0  0  0  0  0
  -45.9638   58.7173   65.1213 C   0  0  0  0  0  0  0  0  0  0  0  0
  -47.0249   59.8084   65.3177 C   0  0  0  0  0  0  0  0  0  0  0  0
  -48.0929   59.4688   66.3735 C   0  0  0  0  0  0  0  0  0  0  0  0
  -49.4114   58.9587   65.7514 C   0  0  0  0  0  0  0  0  0  0  0  0
  -49.7944   59.8015   64.5317 C   0  0  0  0  0  0  0  0  0  0  0  0
  -51.2815   59.8157   64.1988 C   0  0  0  0  0  0  0  0  0  0  0  0
  -51.5588   59.3557   62.7751 C   0  0  0  0  0  0  0  0  0  0  0  0
  -50.3971   58.6687   62.0536 C   0  0  0  0  0  0  0  0  0  0  0  0
  -50.9707   57.5760   61.1617 C   0  0  0  0  0  0  0  0  0  0  0  0
  -50.0103   56.6151   60.4763 C   0  0  0  0  0  0  0  0  0  0  0  0
  -49.6756   57.0931   59.0545 C   0  0  0  0  0  0  0  0  0  0  0  0
  -48.1900   56.9639   58.6705 C   0  0  0  0  0  0  0  0  0  0  0  0
  -47.2392   57.4337   59.7691 C   0  0  0  0  0  0  0  0  0  0  0  0
  -37.1869   57.7220   64.9667 O   0  0  0  0  0  0  0  0  0  0  0  0
  -38.5148   57.7918   64.4816 C   0  0  0  0  0  0  0  0  0  0  0  0
  -37.1877   57.8415   65.9294 H   0  0  0  0  0  0  0  0  0  0  0  0
  -38.5844   57.6104   62.9634 C   0  0  0  0  0  0  0  0  0  0  0  0
  -37.5395   57.1947   62.2274 C   0  0  0  0  0  0  0  0  0  0  0  0
  -37.6887   57.0392   60.7152 C   0  0  0  0  0  0  0  0  0  0  0  0
  -37.3906   58.3223   59.9259 C   0  0  0  0  0  0  0  0  0  0  0  0
  -37.1821   58.1397   58.4111 C   0  0  0  0  0  0  0  0  0  0  0  0
  -36.2990   56.9016   58.1235 C   0  0  0  0  0  0  0  0  0  0  0  0
  -34.7964   57.2003   57.8902 C   0  0  0  0  0  0  0  0  0  0  0  0
  -33.8377   56.2985   58.7029 C   0  0  0  0  0  0  0  0  0  0  0  0
  -34.4902   55.6743   59.9553 C   0  0  0  0  0  0  0  0  0  0  0  0
  -33.9336   56.2167   61.2772 C   0  0  0  0  0  0  0  0  0  0  0  0
  -34.0436   57.7260   61.4831 C   0  0  0  0  0  0  0  0  0  0  0  0
  -33.0943   58.2812   62.5631 C   0  0  0  0  0  0  0  0  0  0  0  0
  -31.7300   58.7657   62.0493 C   0  0  0  0  0  0  0  0  0  0  0  0
  -31.6498   60.2949   62.0599 C   0  0  0  0  0  0  0  0  0  0  0  0
  -30.3075   60.9032   61.6943 C   0  0  0  0  0  0  0  0  0  0  0  0
  -37.9317   60.1428   65.4602 C   0  0  0  0  0  0  0  0  0  0  0  0
  -36.7180   60.3530   64.6946 O   0  0  0  0  0  0  0  0  0  0  0  0
  -35.9405   62.0403   66.8684 O   0  0  0  0  0  0  0  0  0  0  0  0
  -32.7149   62.8951   64.3657 O   0  0  0  0  0  0  0  0  0  0  0  0
  -35.3555   61.8330   63.3387 O   0  0  0  0  0  0  0  0  0  0  0  0
  -36.1203   61.6964   64.5609 C   0  0  0  0  0  0  0  0  0  0  0  0
  -35.1881   62.1375   65.6986 C   0  0  0  0  0  0  0  0  0  0  0  0
  -34.6888   63.5926   65.5625 C   0  0  0  0  0  0  0  0  0  0  0  0
  -33.9182   63.6538   64.2726 C   0  0  0  0  0  0  0  0  0  0  0  0
  -34.7856   63.1535   63.1318 C   0  0  0  0  0  0  0  0  0  0  0  0
  -36.2632   61.1313   66.9708 H   0  0  0  0  0  0  0  0  0  0  0  0
  -32.1768   63.2309   65.0996 H   0  0  0  0  0  0  0  0  0  0  0  0
  -33.0008   64.3929   62.1357 O   0  0  0  0  0  0  0  0  0  0  0  0
  -33.8308   63.2863   61.9474 C   0  0  0  0  0  0  0  0  0  0  0  0
  -32.3954   64.4749   61.3823 H   0  0  0  0  0  0  0  0  0  0  0  0
  -33.7847   64.0520   66.5928 O   0  0  0  0  0  0  0  0  0  0  0  0
  -32.7702   66.1591   67.7102 O   0  0  0  0  0  0  0  0  0  0  0  0
  -33.4532   66.2492   65.3832 O   0  0  0  0  0  0  0  0  0  0  0  0
  -31.4213   65.0878   66.0133 O   0  0  0  0  0  0  0  0  0  0  0  0
  -32.8193   65.3983   66.4265 S   0  0  0  0  0  0  0  0  0  0  0  0
  -33.6729   66.3703   67.9954 H   0  0  0  0  0  0  0  0  0  0  0  0
  -31.0002   64.5330   66.6884 H   0  0  0  0  0  0  0  0  0  0  0  0
  2  1  1  0  0  0
  2  4  1  0  0  0
  2  5  1  0  0  0
 41 42  1  0  0  0
 41  1  1  0  0  0
 42 46  1  0  0  0
  1 24  1  0  0  0
 23 24  1  0  0  0
 23 25  1  0  0  0
 24 26  1  0  0  0
  3  4  2  0  0  0
 26 27  2  0  0  0
 27 28  1  0  0  0
 43 47  1  0  0  0
 43 51  1  0  0  0
 28 29  1  0  0  0
 56 48  1  0  0  0
 56 60  1  0  0  0
 29 30  1  0  0  0
 57 60  1  0  0  0
 57 61  1  0  0  0
 30 31  1  0  0  0
 44 49  1  0  0  0
 44 52  1  0  0  0
 31 32  1  0  0  0
 45 46  1  0  0  0
 45 50  1  0  0  0
 32 33  1  0  0  0
 53 54  1  0  0  0
 53 55  1  0  0  0
 33 34  1  0  0  0
 34 35  1  0  0  0
 35 36  1  0  0  0
 58 60  1  0  0  0
 36 37  1  0  0  0
 59 60  1  0  0  0
 59 62  1  0  0  0
 37 38  1  0  0  0
 38 39  1  0  0  0
 39 40  1  0  0  0
  4  6  1  0  0  0
  6  7  1  0  0  0
  7  8  1  0  0  0
  8  9  1  0  0  0
  9 10  1  0  0  0
 10 11  1  0  0  0
 11 12  1  0  0  0
 12 13  1  0  0  0
 13 14  1  0  0  0
 14 15  1  0  0  0
 15 16  1  0  0  0
 16 17  1  0  0  0
 17 18  1  0  0  0
 18 19  1  0  0  0
 19 20  1  0  0  0
 20 21  1  0  0  0
 21 22  1  0  0  0
 46 47  1  0  0  0
 47 48  1  0  0  0
 48 49  1  0  0  0
 49 50  1  0  0  0
 50 54  1  0  0  0
M  CHG 1  58  -1
M  END
> <minimizedAffinity>
-10.07972

> <CNNscore>
0.2465143502

> <CNNaffinity>
6.7276544571

> <CNN_VS>
1.6584633589

> <CNNaffinity_variance>
1.0596526861

$$$$
/media/chris/experiments/cd1a-new-docking/inputs/ligands/1onq_ligand.pdb


 62 62  0  0  0  0  0  0  0  0999 V2000
  -36.3847   60.3519   63.7441 C   0  0  0  0  0  0  0  0  0  0  0  0
  -37.6819   60.0785   64.3305 N   0  0  0  0  0  0  0  0  0  0  0  0
  -37.5440   61.1667   66.3165 O   0  0  0  0  0  0  0  0  0  0  0  0
  -38.1538   60.4826   65.5177 C   0  0  0  0  0  0  0  0  0  0  0  0
  -38.2921   59.5273   63.7891 H   0  0  0  0  0  0  0  0  0  0  0  0
  -39.5503   60.0362   65.8343 C   0  0  0  0  0  0  0  0  0  0  0  0
  -39.7058   58.6397   65.2318 C   0  0  0  0  0  0  0  0  0  0  0  0
  -41.1404   58.1500   65.4136 C   0  0  0  0  0  0  0  0  0  0  0  0
  -42.2258   59.1686   65.1629 C   0  0  0  0  0  0  0  0  0  0  0  0
  -43.3555   58.8903   66.1490 C   0  0  0  0  0  0  0  0  0  0  0  0
  -44.2550   57.7280   65.7076 C   0  0  0  0  0  0  0  0  0  0  0  0
  -45.5358   58.1637   64.9724 C   0  0  0  0  0  0  0  0  0  0  0  0
  -46.0360   59.5572   65.4123 C   0  0  0  0  0  0  0  0  0  0  0  0
  -47.5586   59.5578   65.5750 C   0  0  0  0  0  0  0  0  0  0  0  0
  -48.3407   59.1658   64.3272 C   0  0  0  0  0  0  0  0  0  0  0  0
  -48.9869   60.3656   63.6502 C   0  0  0  0  0  0  0  0  0  0  0  0
  -49.7109   60.0827   62.3319 C   0  0  0  0  0  0  0  0  0  0  0  0
  -50.9618   59.2711   62.6409 C   0  0  0  0  0  0  0  0  0  0  0  0
  -51.1253   57.9064   61.9881 C   0  0  0  0  0  0  0  0  0  0  0  0
  -49.8957   57.5535   61.1363 C   0  0  0  0  0  0  0  0  0  0  0  0
  -50.1687   57.4744   59.6229 C   0  0  0  0  0  0  0  0  0  0  0  0
  -49.0511   56.7859   58.8428 C   0  0  0  0  0  0  0  0  0  0  0  0
  -34.7021   60.5516   65.3331 O   0  0  0  0  0  0  0  0  0  0  0  0
  -35.4439   59.5650   64.6402 C   0  0  0  0  0  0  0  0  0  0  0  0
  -35.3044   61.0937   65.8663 H   0  0  0  0  0  0  0  0  0  0  0  0
  -34.5499   58.6719   63.7767 C   0  0  0  0  0  0  0  0  0  0  0  0
  -33.4807   59.1354   63.1070 C   0  0  0  0  0  0  0  0  0  0  0  0
  -32.6381   58.1795   62.2649 C   0  0  0  0  0  0  0  0  0  0  0  0
  -33.3851   57.5889   61.0601 C   0  0  0  0  0  0  0  0  0  0  0  0
  -33.6643   56.0760   61.1254 C   0  0  0  0  0  0  0  0  0  0  0  0
  -34.1535   55.5481   59.7551 C   0  0  0  0  0  0  0  0  0  0  0  0
  -33.7653   56.4190   58.5335 C   0  0  0  0  0  0  0  0  0  0  0  0
  -34.9623   57.1202   57.8494 C   0  0  0  0  0  0  0  0  0  0  0  0
  -36.3287   56.4931   58.2013 C   0  0  0  0  0  0  0  0  0  0  0  0
  -37.2879   57.4586   58.9079 C   0  0  0  0  0  0  0  0  0  0  0  0
  -37.2204   57.4757   60.4334 C   0  0  0  0  0  0  0  0  0  0  0  0
  -38.2766   58.3815   61.0967 C   0  0  0  0  0  0  0  0  0  0  0  0
  -38.5093   59.7322   60.4029 C   0  0  0  0  0  0  0  0  0  0  0  0
  -39.9460   60.2185   60.6139 C   0  0  0  0  0  0  0  0  0  0  0  0
  -40.4356   60.2748   62.0501 C   0  0  0  0  0  0  0  0  0  0  0  0
  -36.0558   61.8458   63.5228 C   0  0  0  0  0  0  0  0  0  0  0  0
  -34.8097   62.1412   62.8421 O   0  0  0  0  0  0  0  0  0  0  0  0
  -32.7288   63.5387   61.4659 O   0  0  0  0  0  0  0  0  0  0  0  0
  -33.5182   66.4674   64.3292 O   0  0  0  0  0  0  0  0  0  0  0  0
  -34.2174   63.5503   64.7260 O   0  0  0  0  0  0  0  0  0  0  0  0
  -33.7625   62.9606   63.4839 C   0  0  0  0  0  0  0  0  0  0  0  0
  -33.1997   64.1165   62.6443 C   0  0  0  0  0  0  0  0  0  0  0  0
  -32.0283   64.8617   63.3209 C   0  0  0  0  0  0  0  0  0  0  0  0
  -32.5759   65.4326   64.5998 C   0  0  0  0  0  0  0  0  0  0  0  0
  -33.2089   64.3277   65.4260 C   0  0  0  0  0  0  0  0  0  0  0  0
  -33.4524   63.0653   61.0263 H   0  0  0  0  0  0  0  0  0  0  0  0
  -33.0935   67.1616   63.8013 H   0  0  0  0  0  0  0  0  0  0  0  0
  -32.6651   65.9047   67.1380 O   0  0  0  0  0  0  0  0  0  0  0  0
  -33.6988   65.1065   66.6448 C   0  0  0  0  0  0  0  0  0  0  0  0
  -32.9788   66.3982   67.9119 H   0  0  0  0  0  0  0  0  0  0  0  0
  -31.4776   65.9781   62.5858 O   0  0  0  0  0  0  0  0  0  0  0  0
  -30.4231   65.4567   60.2764 O   0  0  0  0  0  0  0  0  0  0  0  0
  -29.2439   64.8246   62.3010 O   0  0  0  0  0  0  0  0  0  0  0  0
  -29.3161   67.1455   61.6063 O   0  0  0  0  0  0  0  0  0  0  0  0
  -30.0905   65.8737   61.6708 S   0  0  0  0  0  0  0  0  0  0  0  0
  -30.9283   64.6290   60.2983 H   0  0  0  0  0  0  0  0  0  0  0  0
  -29.8610   67.8355   61.1964 H   0  0  0  0  0  0  0  0  0  0  0  0
  2  1  1  0  0  0
  2  4  1  0  0  0
  2  5  1  0  0  0
 41 42  1  0  0  0
 41  1  1  0  0  0
 42 46  1  0  0  0
  1 24  1  0  0  0
 23 24  1  0  0  0
 23 25  1  0  0  0
 24 26  1  0  0  0
  3  4  2  0  0  0
 26 27  2  0  0  0
 27 28  1  0  0  0
 43 47  1  0  0  0
 43 51  1  0  0  0
 28 29  1  0  0  0
 56 48  1  0  0  0
 56 60  1  0  0  0
 29 30  1  0  0  0
 57 60  1  0  0  0
 57 61  1  0  0  0
 30 31  1  0  0  0
 44 49  1  0  0  0
 44 52  1  0  0  0
 31 32  1  0  0  0
 45 46  1  0  0  0
 45 50  1  0  0  0
 32 33  1  0  0  0
 53 54  1  0  0  0
 53 55  1  0  0  0
 33 34  1  0  0  0
 34 35  1  0  0  0
 35 36  1  0  0  0
 58 60  1  0  0  0
 36 37  1  0  0  0
 59 60  1  0  0  0
 59 62  1  0  0  0
 37 38  1  0  0  0
 38 39  1  0  0  0
 39 40  1  0  0  0
  4  6  1  0  0  0
  6  7  1  0  0  0
  7  8  1  0  0  0
  8  9  1  0  0  0
  9 10  1  0  0  0
 10 11  1  0  0  0
 11 12  1  0  0  0
 12 13  1  0  0  0
 13 14  1  0  0  0
 14 15  1  0  0  0
 15 16  1  0  0  0
 16 17  1  0  0  0
 17 18  1  0  0  0
 18 19  1  0  0  0
 19 20  1  0  0  0
 20 21  1  0  0  0
 21 22  1  0  0  0
 46 47  1  0  0  0
 47 48  1  0  0  0
 48 49  1  0  0  0
 49 50  1  0  0  0
 50 54  1  0  0  0
M  CHG 1  58  -1
M  END
> <minimizedAffinity>
-9.47269

> <CNNscore>
0.2393609136

> <CNNaffinity>
6.6808800697

> <CNN_VS>
1.5991415977

> <CNNaffinity_variance>
1.1826263666

$$$$
