/media/chris/experiments/cd1a-new-docking/inputs/ligands/1onq_ligand.pdb


 62 62  0  0  0  0  0  0  0  0999 V2000
  -38.1928   60.2483   65.0551 C   0  0  0  0  0  0  0  0  0  0  0  0
  -39.3778   59.8064   65.7634 N   0  0  0  0  0  0  0  0  0  0  0  0
  -41.0152   60.9946   64.7364 O   0  0  0  0  0  0  0  0  0  0  0  0
  -40.6474   60.1882   65.5686 C   0  0  0  0  0  0  0  0  0  0  0  0
  -39.2317   59.1433   66.4762 H   0  0  0  0  0  0  0  0  0  0  0  0
  -41.6549   59.5348   66.4673 C   0  0  0  0  0  0  0  0  0  0  0  0
  -42.6871   58.8745   65.5533 C   0  0  0  0  0  0  0  0  0  0  0  0
  -43.1236   57.5349   66.1417 C   0  0  0  0  0  0  0  0  0  0  0  0
  -44.5682   57.1542   65.9248 C   0  0  0  0  0  0  0  0  0  0  0  0
  -45.2365   58.2958   65.1657 C   0  0  0  0  0  0  0  0  0  0  0  0
  -46.3806   58.9441   65.9567 C   0  0  0  0  0  0  0  0  0  0  0  0
  -47.3367   59.7961   65.1020 C   0  0  0  0  0  0  0  0  0  0  0  0
  -48.6158   59.0341   64.6914 C   0  0  0  0  0  0  0  0  0  0  0  0
  -48.4538   58.4181   63.2988 C   0  0  0  0  0  0  0  0  0  0  0  0
  -49.5118   58.8323   62.2834 C   0  0  0  0  0  0  0  0  0  0  0  0
  -50.4108   57.6726   61.8807 C   0  0  0  0  0  0  0  0  0  0  0  0
  -50.2999   57.2114   60.4256 C   0  0  0  0  0  0  0  0  0  0  0  0
  -49.1592   57.9773   59.7695 C   0  0  0  0  0  0  0  0  0  0  0  0
  -47.8976   57.2187   59.3848 C   0  0  0  0  0  0  0  0  0  0  0  0
  -48.2108   55.7425   59.0936 C   0  0  0  0  0  0  0  0  0  0  0  0
  -47.8620   55.2854   57.6652 C   0  0  0  0  0  0  0  0  0  0  0  0
  -47.2215   56.3834   56.8191 C   0  0  0  0  0  0  0  0  0  0  0  0
  -38.0520   57.9533   65.3860 O   0  0  0  0  0  0  0  0  0  0  0  0
  -37.6576   58.9544   64.4661 C   0  0  0  0  0  0  0  0  0  0  0  0
  -39.0202   57.9268   65.4396 H   0  0  0  0  0  0  0  0  0  0  0  0
  -36.1358   59.0489   64.3339 C   0  0  0  0  0  0  0  0  0  0  0  0
  -35.4991   58.9963   63.1515 C   0  0  0  0  0  0  0  0  0  0  0  0
  -33.9757   59.0968   63.1031 C   0  0  0  0  0  0  0  0  0  0  0  0
  -33.2561   57.7679   63.3753 C   0  0  0  0  0  0  0  0  0  0  0  0
  -32.5651   57.1228   62.1596 C   0  0  0  0  0  0  0  0  0  0  0  0
  -33.5041   57.1247   60.9292 C   0  0  0  0  0  0  0  0  0  0  0  0
  -34.6474   56.0793   60.9679 C   0  0  0  0  0  0  0  0  0  0  0  0
  -34.9646   55.4366   59.5970 C   0  0  0  0  0  0  0  0  0  0  0  0
  -35.0428   56.4563   58.4402 C   0  0  0  0  0  0  0  0  0  0  0  0
  -36.4402   56.5829   57.8217 C   0  0  0  0  0  0  0  0  0  0  0  0
  -37.0879   57.9636   57.9034 C   0  0  0  0  0  0  0  0  0  0  0  0
  -37.3299   58.4571   59.3435 C   0  0  0  0  0  0  0  0  0  0  0  0
  -38.4850   59.4566   59.5078 C   0  0  0  0  0  0  0  0  0  0  0  0
  -38.5444   59.9980   60.9390 C   0  0  0  0  0  0  0  0  0  0  0  0
  -39.9288   60.1767   61.5363 C   0  0  0  0  0  0  0  0  0  0  0  0
  -37.2048   61.1042   65.8798 C   0  0  0  0  0  0  0  0  0  0  0  0
  -36.8779   62.4122   65.3454 O   0  0  0  0  0  0  0  0  0  0  0  0
  -35.2791   62.3559   62.9752 O   0  0  0  0  0  0  0  0  0  0  0  0
  -33.9530   66.0409   64.4110 O   0  0  0  0  0  0  0  0  0  0  0  0
  -35.1858   63.9296   66.1939 O   0  0  0  0  0  0  0  0  0  0  0  0
  -35.4781   62.8716   65.2489 C   0  0  0  0  0  0  0  0  0  0  0  0
  -35.0308   63.3916   63.8752 C   0  0  0  0  0  0  0  0  0  0  0  0
  -33.5291   63.7458   63.8047 C   0  0  0  0  0  0  0  0  0  0  0  0
  -33.3066   64.8366   64.8158 C   0  0  0  0  0  0  0  0  0  0  0  0
  -33.8063   64.3857   66.1764 C   0  0  0  0  0  0  0  0  0  0  0  0
  -36.2193   62.1195   63.0058 H   0  0  0  0  0  0  0  0  0  0  0  0
  -33.6195   66.3103   63.5410 H   0  0  0  0  0  0  0  0  0  0  0  0
  -33.8956   65.3782   68.3491 O   0  0  0  0  0  0  0  0  0  0  0  0
  -33.5026   65.6146   67.0306 C   0  0  0  0  0  0  0  0  0  0  0  0
  -33.7017   66.1600   68.8895 H   0  0  0  0  0  0  0  0  0  0  0  0
  -33.0589   64.2671   62.5410 O   0  0  0  0  0  0  0  0  0  0  0  0
  -31.3785   62.7652   61.2614 O   0  0  0  0  0  0  0  0  0  0  0  0
  -30.6273   64.0234   63.1958 O   0  0  0  0  0  0  0  0  0  0  0  0
  -31.0328   65.1522   61.0898 O   0  0  0  0  0  0  0  0  0  0  0  0
  -31.5008   64.0617   61.9916 S   0  0  0  0  0  0  0  0  0  0  0  0
  -31.6791   62.0422   61.8337 H   0  0  0  0  0  0  0  0  0  0  0  0
  -31.5971   65.1843   60.3014 H   0  0  0  0  0  0  0  0  0  0  0  0
  2  1  1  0  0  0
  2  4  1  0  0  0
  2  5  1  0  0  0
 41 42  1  0  0  0
 41  1  1  0  0  0
 42 46  1  0  0  0
  1 24  1  0  0  0
 23 24  1  0  0  0
 23 25  1  0  0  0
 24 26  1  0  0  0
  3  4  2  0  0  0
 26 27  2  0  0  0
 27 28  1  0  0  0
 43 47  1  0  0  0
 43 51  1  0  0  0
 28 29  1  0  0  0
 56 48  1  0  0  0
 56 60  1  0  0  0
 29 30  1  0  0  0
 57 60  1  0  0  0
 57 61  1  0  0  0
 30 31  1  0  0  0
 44 49  1  0  0  0
 44 52  1  0  0  0
 31 32  1  0  0  0
 45 46  1  0  0  0
 45 50  1  0  0  0
 32 33  1  0  0  0
 53 54  1  0  0  0
 53 55  1  0  0  0
 33 34  1  0  0  0
 34 35  1  0  0  0
 35 36  1  0  0  0
 58 60  1  0  0  0
 36 37  1  0  0  0
 59 60  1  0  0  0
 59 62  1  0  0  0
 37 38  1  0  0  0
 38 39  1  0  0  0
 39 40  1  0  0  0
  4  6  1  0  0  0
  6  7  1  0  0  0
  7  8  1  0  0  0
  8  9  1  0  0  0
  9 10  1  0  0  0
 10 11  1  0  0  0
 11 12  1  0  0  0
 12 13  1  0  0  0
 13 14  1  0  0  0
 14 15  1  0  0  0
 15 16  1  0  0  0
 16 17  1  0  0  0
 17 18  1  0  0  0
 18 19  1  0  0  0
 19 20  1  0  0  0
 20 21  1  0  0  0
 21 22  1  0  0  0
 46 47  1  0  0  0
 47 48  1  0  0  0
 48 49  1  0  0  0
 49 50  1  0  0  0
 50 54  1  0  0  0
M  CHG 1  58  -1
M  END
> <minimizedAffinity>
-9.60316

> <CNNscore>
0.4273265302

> <CNNaffinity>
7.2927498817

> <CNN_VS>
3.1163854599

> <CNNaffinity_variance>
1.4313259125

$$$$
/media/chris/experiments/cd1a-new-docking/inputs/ligands/1onq_ligand.pdb


 62 62  0  0  0  0  0  0  0  0999 V2000
  -34.1176   58.0927   62.1974 C   0  0  0  0  0  0  0  0  0  0  0  0
  -35.0412   58.3146   63.2922 N   0  0  0  0  0  0  0  0  0  0  0  0
  -36.3105   60.0219   62.5039 O   0  0  0  0  0  0  0  0  0  0  0  0
  -36.0275   59.2183   63.3711 C   0  0  0  0  0  0  0  0  0  0  0  0
  -34.9301   57.7284   64.0753 H   0  0  0  0  0  0  0  0  0  0  0  0
  -36.8186   59.1894   64.6451 C   0  0  0  0  0  0  0  0  0  0  0  0
  -37.4824   57.8139   64.7118 C   0  0  0  0  0  0  0  0  0  0  0  0
  -38.7706   57.8163   63.8924 C   0  0  0  0  0  0  0  0  0  0  0  0
  -40.0523   57.6418   64.6707 C   0  0  0  0  0  0  0  0  0  0  0  0
  -40.7128   59.0118   64.7836 C   0  0  0  0  0  0  0  0  0  0  0  0
  -42.0518   58.9645   65.5318 C   0  0  0  0  0  0  0  0  0  0  0  0
  -42.2704   57.6825   66.3561 C   0  0  0  0  0  0  0  0  0  0  0  0
  -43.5308   56.9000   65.9265 C   0  0  0  0  0  0  0  0  0  0  0  0
  -44.7923   57.5505   66.5014 C   0  0  0  0  0  0  0  0  0  0  0  0
  -45.8827   57.8553   65.4815 C   0  0  0  0  0  0  0  0  0  0  0  0
  -46.0507   59.3490   65.2449 C   0  0  0  0  0  0  0  0  0  0  0  0
  -47.4843   59.8811   65.3061 C   0  0  0  0  0  0  0  0  0  0  0  0
  -48.3675   58.7999   65.9139 C   0  0  0  0  0  0  0  0  0  0  0  0
  -49.5343   58.2662   65.0961 C   0  0  0  0  0  0  0  0  0  0  0  0
  -50.7931   59.1213   65.3111 C   0  0  0  0  0  0  0  0  0  0  0  0
  -51.2282   59.9379   64.0803 C   0  0  0  0  0  0  0  0  0  0  0  0
  -51.3366   59.1011   62.8077 C   0  0  0  0  0  0  0  0  0  0  0  0
  -33.5247   56.0757   61.2095 O   0  0  0  0  0  0  0  0  0  0  0  0
  -34.6700   56.8356   61.5479 C   0  0  0  0  0  0  0  0  0  0  0  0
  -33.0343   55.8533   62.0164 H   0  0  0  0  0  0  0  0  0  0  0  0
  -35.4914   57.2207   60.3152 C   0  0  0  0  0  0  0  0  0  0  0  0
  -36.8347   57.2634   60.3149 C   0  0  0  0  0  0  0  0  0  0  0  0
  -37.5825   57.6569   59.0424 C   0  0  0  0  0  0  0  0  0  0  0  0
  -38.0888   59.1066   59.0420 C   0  0  0  0  0  0  0  0  0  0  0  0
  -39.1602   59.4387   60.0971 C   0  0  0  0  0  0  0  0  0  0  0  0
  -40.2239   60.4010   59.5157 C   0  0  0  0  0  0  0  0  0  0  0  0
  -41.5470   59.7312   59.0662 C   0  0  0  0  0  0  0  0  0  0  0  0
  -41.5866   59.3497   57.5676 C   0  0  0  0  0  0  0  0  0  0  0  0
  -43.0032   59.0147   57.0529 C   0  0  0  0  0  0  0  0  0  0  0  0
  -43.8909   58.3218   58.0937 C   0  0  0  0  0  0  0  0  0  0  0  0
  -45.3780   58.2353   57.7569 C   0  0  0  0  0  0  0  0  0  0  0  0
  -46.2297   57.5642   58.8524 C   0  0  0  0  0  0  0  0  0  0  0  0
  -47.6695   57.2187   58.4427 C   0  0  0  0  0  0  0  0  0  0  0  0
  -48.5834   57.1287   59.6681 C   0  0  0  0  0  0  0  0  0  0  0  0
  -50.0401   57.4986   59.4525 C   0  0  0  0  0  0  0  0  0  0  0  0
  -32.6204   58.0833   62.5810 C   0  0  0  0  0  0  0  0  0  0  0  0
  -31.7789   59.0708   61.9328 O   0  0  0  0  0  0  0  0  0  0  0  0
  -29.8928   61.0467   61.0870 O   0  0  0  0  0  0  0  0  0  0  0  0
  -33.2372   63.5366   61.2084 O   0  0  0  0  0  0  0  0  0  0  0  0
  -33.0522   60.9555   62.7766 O   0  0  0  0  0  0  0  0  0  0  0  0
  -31.7399   60.4700   62.4025 C   0  0  0  0  0  0  0  0  0  0  0  0
  -31.1705   61.4986   61.4150 C   0  0  0  0  0  0  0  0  0  0  0  0
  -31.0457   62.9210   62.0039 C   0  0  0  0  0  0  0  0  0  0  0  0
  -32.4396   63.3463   62.3744 C   0  0  0  0  0  0  0  0  0  0  0  0
  -33.0647   62.3132   63.2943 C   0  0  0  0  0  0  0  0  0  0  0  0
  -29.9516   60.1529   60.7149 H   0  0  0  0  0  0  0  0  0  0  0  0
  -32.8202   64.1993   60.6359 H   0  0  0  0  0  0  0  0  0  0  0  0
  -34.3467   64.3117   63.5694 O   0  0  0  0  0  0  0  0  0  0  0  0
  -34.4456   62.9197   63.5335 C   0  0  0  0  0  0  0  0  0  0  0  0
  -35.2250   64.6944   63.7214 H   0  0  0  0  0  0  0  0  0  0  0  0
  -30.5404   63.9365   61.1076 O   0  0  0  0  0  0  0  0  0  0  0  0
  -29.0845   65.9848   60.4739 O   0  0  0  0  0  0  0  0  0  0  0  0
  -28.6688   64.8207   62.5623 O   0  0  0  0  0  0  0  0  0  0  0  0
  -30.5943   66.2759   62.3400 O   0  0  0  0  0  0  0  0  0  0  0  0
  -29.7281   65.2927   61.6297 S   0  0  0  0  0  0  0  0  0  0  0  0
  -28.5156   65.3594   59.9985 H   0  0  0  0  0  0  0  0  0  0  0  0
  -31.2882   66.5891   61.7389 H   0  0  0  0  0  0  0  0  0  0  0  0
  2  1  1  0  0  0
  2  4  1  0  0  0
  2  5  1  0  0  0
 41 42  1  0  0  0
 41  1  1  0  0  0
 42 46  1  0  0  0
  1 24  1  0  0  0
 23 24  1  0  0  0
 23 25  1  0  0  0
 24 26  1  0  0  0
  3  4  2  0  0  0
 26 27  2  0  0  0
 27 28  1  0  0  0
 43 47  1  0  0  0
 43 51  1  0  0  0
 28 29  1  0  0  0
 56 48  1  0  0  0
 56 60  1  0  0  0
 29 30  1  0  0  0
 57 60  1  0  0  0
 57 61  1  0  0  0
 30 31  1  0  0  0
 44 49  1  0  0  0
 44 52  1  0  0  0
 31 32  1  0  0  0
 45 46  1  0  0  0
 45 50  1  0  0  0
 32 33  1  0  0  0
 53 54  1  0  0  0
 53 55  1  0  0  0
 33 34  1  0  0  0
 34 35  1  0  0  0
 35 36  1  0  0  0
 58 60  1  0  0  0
 36 37  1  0  0  0
 59 60  1  0  0  0
 59 62  1  0  0  0
 37 38  1  0  0  0
 38 39  1  0  0  0
 39 40  1  0  0  0
  4  6  1  0  0  0
  6  7  1  0  0  0
  7  8  1  0  0  0
  8  9  1  0  0  0
  9 10  1  0  0  0
 10 11  1  0  0  0
 11 12  1  0  0  0
 12 13  1  0  0  0
 13 14  1  0  0  0
 14 15  1  0  0  0
 15 16  1  0  0  0
 16 17  1  0  0  0
 17 18  1  0  0  0
 18 19  1  0  0  0
 19 20  1  0  0  0
 20 21  1  0  0  0
 21 22  1  0  0  0
 46 47  1  0  0  0
 47 48  1  0  0  0
 48 49  1  0  0  0
 49 50  1  0  0  0
 50 54  1  0  0  0
M  CHG 1  58  -1
M  END
> <minimizedAffinity>
-8.95246

> <CNNscore>
0.4250946641

> <CNNaffinity>
6.8094549179

> <CNN_VS>
2.8946628571

> <CNNaffinity_variance>
0.8664487600

$$$$
/media/chris/experiments/cd1a-new-docking/inputs/ligands/1onq_ligand.pdb


 62 62  0  0  0  0  0  0  0  0999 V2000
  -38.5022   59.1395   64.9619 C   0  0  0  0  0  0  0  0  0  0  0  0
  -38.1286   59.3685   63.5802 N   0  0  0  0  0  0  0  0  0  0  0  0
  -39.7061   60.8511   62.9013 O   0  0  0  0  0  0  0  0  0  0  0  0
  -38.7238   60.1683   62.6849 C   0  0  0  0  0  0  0  0  0  0  0  0
  -37.3394   58.8749   63.2597 H   0  0  0  0  0  0  0  0  0  0  0  0
  -38.0850   60.1931   61.3280 C   0  0  0  0  0  0  0  0  0  0  0  0
  -38.7805   59.1111   60.5018 C   0  0  0  0  0  0  0  0  0  0  0  0
  -38.1487   59.0277   59.1144 C   0  0  0  0  0  0  0  0  0  0  0  0
  -37.1552   57.9108   58.9039 C   0  0  0  0  0  0  0  0  0  0  0  0
  -37.2328   56.9904   60.1175 C   0  0  0  0  0  0  0  0  0  0  0  0
  -36.2488   55.8158   60.0346 C   0  0  0  0  0  0  0  0  0  0  0  0
  -35.0611   56.0520   59.0836 C   0  0  0  0  0  0  0  0  0  0  0  0
  -33.8995   56.8190   59.7526 C   0  0  0  0  0  0  0  0  0  0  0  0
  -33.7904   56.4486   61.2345 C   0  0  0  0  0  0  0  0  0  0  0  0
  -34.0859   57.5843   62.2065 C   0  0  0  0  0  0  0  0  0  0  0  0
  -32.8235   58.1305   62.8571 C   0  0  0  0  0  0  0  0  0  0  0  0
  -32.3818   59.5229   62.4006 C   0  0  0  0  0  0  0  0  0  0  0  0
  -30.9160   59.4479   61.9952 C   0  0  0  0  0  0  0  0  0  0  0  0
  -30.1849   60.7396   61.6603 C   0  0  0  0  0  0  0  0  0  0  0  0
  -31.1367   61.9443   61.7309 C   0  0  0  0  0  0  0  0  0  0  0  0
  -30.5405   63.1901   62.4118 C   0  0  0  0  0  0  0  0  0  0  0  0
  -30.4984   63.0842   63.9345 C   0  0  0  0  0  0  0  0  0  0  0  0
  -39.4664   57.6072   63.5065 O   0  0  0  0  0  0  0  0  0  0  0  0
  -39.5675   58.0632   64.8427 C   0  0  0  0  0  0  0  0  0  0  0  0
  -38.5849   57.2299   63.3595 H   0  0  0  0  0  0  0  0  0  0  0  0
  -40.9393   58.6723   65.1419 C   0  0  0  0  0  0  0  0  0  0  0  0
  -41.8259   58.1042   65.9771 C   0  0  0  0  0  0  0  0  0  0  0  0
  -43.1762   58.7747   66.2231 C   0  0  0  0  0  0  0  0  0  0  0  0
  -44.0908   58.8016   64.9898 C   0  0  0  0  0  0  0  0  0  0  0  0
  -45.2982   57.8468   65.0344 C   0  0  0  0  0  0  0  0  0  0  0  0
  -46.6256   58.6417   65.0765 C   0  0  0  0  0  0  0  0  0  0  0  0
  -47.6209   58.3283   63.9308 C   0  0  0  0  0  0  0  0  0  0  0  0
  -49.0697   58.7961   64.2048 C   0  0  0  0  0  0  0  0  0  0  0  0
  -49.6458   59.7033   63.0960 C   0  0  0  0  0  0  0  0  0  0  0  0
  -50.9675   59.1958   62.5072 C   0  0  0  0  0  0  0  0  0  0  0  0
  -50.9315   57.8054   61.8765 C   0  0  0  0  0  0  0  0  0  0  0  0
  -50.2657   57.7656   60.4868 C   0  0  0  0  0  0  0  0  0  0  0  0
  -48.7941   57.3250   60.4782 C   0  0  0  0  0  0  0  0  0  0  0  0
  -48.1956   57.4340   59.0728 C   0  0  0  0  0  0  0  0  0  0  0  0
  -46.6800   57.4264   58.9820 C   0  0  0  0  0  0  0  0  0  0  0  0
  -38.8713   60.4042   65.7701 C   0  0  0  0  0  0  0  0  0  0  0  0
  -37.7977   61.0342   66.5142 O   0  0  0  0  0  0  0  0  0  0  0  0
  -35.7650   62.5059   67.8852 O   0  0  0  0  0  0  0  0  0  0  0  0
  -33.9312   62.4499   64.1390 O   0  0  0  0  0  0  0  0  0  0  0  0
  -36.9114   62.0856   64.5156 O   0  0  0  0  0  0  0  0  0  0  0  0
  -37.0455   62.1750   65.9549 C   0  0  0  0  0  0  0  0  0  0  0  0
  -35.6265   62.3826   66.5032 C   0  0  0  0  0  0  0  0  0  0  0  0
  -34.9353   63.6566   65.9695 C   0  0  0  0  0  0  0  0  0  0  0  0
  -34.8437   63.4915   64.4776 C   0  0  0  0  0  0  0  0  0  0  0  0
  -36.2216   63.2100   63.9062 C   0  0  0  0  0  0  0  0  0  0  0  0
  -36.1981   61.7132   68.2387 H   0  0  0  0  0  0  0  0  0  0  0  0
  -33.0590   62.6497   64.5134 H   0  0  0  0  0  0  0  0  0  0  0  0
  -34.8544   63.9200   62.0786 O   0  0  0  0  0  0  0  0  0  0  0  0
  -35.9070   63.0685   62.4185 C   0  0  0  0  0  0  0  0  0  0  0  0
  -34.6566   63.8283   61.1334 H   0  0  0  0  0  0  0  0  0  0  0  0
  -33.5852   63.8871   66.4320 O   0  0  0  0  0  0  0  0  0  0  0  0
  -33.0732   66.0469   67.7698 O   0  0  0  0  0  0  0  0  0  0  0  0
  -33.5501   66.1944   65.3949 O   0  0  0  0  0  0  0  0  0  0  0  0
  -31.4062   65.3607   66.1585 O   0  0  0  0  0  0  0  0  0  0  0  0
  -32.8686   65.3898   66.4450 S   0  0  0  0  0  0  0  0  0  0  0  0
  -34.0211   66.0751   67.9738 H   0  0  0  0  0  0  0  0  0  0  0  0
  -30.9538   64.8378   66.8387 H   0  0  0  0  0  0  0  0  0  0  0  0
  2  1  1  0  0  0
  2  4  1  0  0  0
  2  5  1  0  0  0
 41 42  1  0  0  0
 41  1  1  0  0  0
 42 46  1  0  0  0
  1 24  1  0  0  0
 23 24  1  0  0  0
 23 25  1  0  0  0
 24 26  1  0  0  0
  3  4  2  0  0  0
 26 27  2  0  0  0
 27 28  1  0  0  0
 43 47  1  0  0  0
 43 51  1  0  0  0
 28 29  1  0  0  0
 56 48  1  0  0  0
 56 60  1  0  0  0
 29 30  1  0  0  0
 57 60  1  0  0  0
 57 61  1  0  0  0
 30 31  1  0  0  0
 44 49  1  0  0  0
 44 52  1  0  0  0
 31 32  1  0  0  0
 45 46  1  0  0  0
 45 50  1  0  0  0
 32 33  1  0  0  0
 53 54  1  0  0  0
 53 55  1  0  0  0
 33 34  1  0  0  0
 34 35  1  0  0  0
 35 36  1  0  0  0
 58 60  1  0  0  0
 36 37  1  0  0  0
 59 60  1  0  0  0
 59 62  1  0  0  0
 37 38  1  0  0  0
 38 39  1  0  0  0
 39 40  1  0  0  0
  4  6  1  0  0  0
  6  7  1  0  0  0
  7  8  1  0  0  0
  8  9  1  0  0  0
  9 10  1  0  0  0
 10 11  1  0  0  0
 11 12  1  0  0  0
 12 13  1  0  0  0
 13 14  1  0  0  0
 14 15  1  0  0  0
 15 16  1  0  0  0
 16 17  1  0  0  0
 17 18  1  0  0  0
 18 19  1  0  0  0
 19 20  1  0  0  0
 20 21  1  0  0  0
 21 22  1  0  0  0
 46 47  1  0  0  0
 47 48  1  0  0  0
 48 49  1  0  0  0
 49 50  1  0  0  0
 50 54  1  0  0  0
M  CHG 1  58  -1
M  END
> <minimizedAffinity>
-9.45729

> <CNNscore>
0.4013572335

> <CNNaffinity>
7.0657968521

> <CNN_VS>
2.8359086514

> <CNNaffinity_variance>
0.9772602320

$$$$
/media/chris/experiments/cd1a-new-docking/inputs/ligands/1onq_ligand.pdb


 62 62  0  0  0  0  0  0  0  0999 V2000
  -38.0959   60.4650   65.1406 C   0  0  0  0  0  0  0  0  0  0  0  0
  -39.2714   59.9612   65.8229 N   0  0  0  0  0  0  0  0  0  0  0  0
  -40.9483   61.0342   64.7348 O   0  0  0  0  0  0  0  0  0  0  0  0
  -40.5558   60.2626   65.5882 C   0  0  0  0  0  0  0  0  0  0  0  0
  -39.1055   59.3174   66.5490 H   0  0  0  0  0  0  0  0  0  0  0  0
  -41.5467   59.5608   66.4688 C   0  0  0  0  0  0  0  0  0  0  0  0
  -41.7690   58.1784   65.8550 C   0  0  0  0  0  0  0  0  0  0  0  0
  -43.1273   57.6293   66.2848 C   0  0  0  0  0  0  0  0  0  0  0  0
  -44.3194   58.5103   65.9997 C   0  0  0  0  0  0  0  0  0  0  0  0
  -45.0075   57.9651   64.7525 C   0  0  0  0  0  0  0  0  0  0  0  0
  -46.4738   58.4047   64.6444 C   0  0  0  0  0  0  0  0  0  0  0  0
  -46.8350   59.6211   65.5164 C   0  0  0  0  0  0  0  0  0  0  0  0
  -48.1960   59.4656   66.2299 C   0  0  0  0  0  0  0  0  0  0  0  0
  -48.8674   58.1483   65.8309 C   0  0  0  0  0  0  0  0  0  0  0  0
  -50.3644   58.2429   65.5628 C   0  0  0  0  0  0  0  0  0  0  0  0
  -50.7133   59.3997   64.6379 C   0  0  0  0  0  0  0  0  0  0  0  0
  -51.0566   59.0247   63.1943 C   0  0  0  0  0  0  0  0  0  0  0  0
  -49.8489   59.3380   62.3214 C   0  0  0  0  0  0  0  0  0  0  0  0
  -49.8125   58.7894   60.9027 C   0  0  0  0  0  0  0  0  0  0  0  0
  -50.3609   57.3545   60.8538 C   0  0  0  0  0  0  0  0  0  0  0  0
  -49.5051   56.3713   60.0339 C   0  0  0  0  0  0  0  0  0  0  0  0
  -48.1520   56.9466   59.6222 C   0  0  0  0  0  0  0  0  0  0  0  0
  -36.1465   59.4530   64.3847 O   0  0  0  0  0  0  0  0  0  0  0  0
  -37.5394   59.2179   64.4754 C   0  0  0  0  0  0  0  0  0  0  0  0
  -35.7772   59.5558   65.2758 H   0  0  0  0  0  0  0  0  0  0  0  0
  -38.1861   59.0460   63.0989 C   0  0  0  0  0  0  0  0  0  0  0  0
  -38.5071   60.0829   62.3065 C   0  0  0  0  0  0  0  0  0  0  0  0
  -39.1515   59.8284   60.9452 C   0  0  0  0  0  0  0  0  0  0  0  0
  -38.1419   59.6758   59.7982 C   0  0  0  0  0  0  0  0  0  0  0  0
  -37.7332   58.2306   59.4580 C   0  0  0  0  0  0  0  0  0  0  0  0
  -36.9244   58.1845   58.1391 C   0  0  0  0  0  0  0  0  0  0  0  0
  -36.1946   56.8470   57.8569 C   0  0  0  0  0  0  0  0  0  0  0  0
  -36.5295   55.7186   58.8606 C   0  0  0  0  0  0  0  0  0  0  0  0
  -35.3031   55.2082   59.6477 C   0  0  0  0  0  0  0  0  0  0  0  0
  -34.1058   56.1656   59.6148 C   0  0  0  0  0  0  0  0  0  0  0  0
  -33.9966   57.1445   60.7819 C   0  0  0  0  0  0  0  0  0  0  0  0
  -32.9773   56.7232   61.8588 C   0  0  0  0  0  0  0  0  0  0  0  0
  -32.6354   57.8042   62.8954 C   0  0  0  0  0  0  0  0  0  0  0  0
  -32.6373   59.1969   62.2586 C   0  0  0  0  0  0  0  0  0  0  0  0
  -31.2798   59.8402   62.0378 C   0  0  0  0  0  0  0  0  0  0  0  0
  -37.1213   61.2880   66.0133 C   0  0  0  0  0  0  0  0  0  0  0  0
  -36.7262   62.5845   65.4974 O   0  0  0  0  0  0  0  0  0  0  0  0
  -35.0117   61.8678   63.3239 O   0  0  0  0  0  0  0  0  0  0  0  0
  -33.5885   65.7531   63.8511 O   0  0  0  0  0  0  0  0  0  0  0  0
  -35.0102   64.2133   66.0337 O   0  0  0  0  0  0  0  0  0  0  0  0
  -35.3030   62.9578   65.3738 C   0  0  0  0  0  0  0  0  0  0  0  0
  -34.7614   63.0916   63.9434 C   0  0  0  0  0  0  0  0  0  0  0  0
  -33.2430   63.3668   63.8781 C   0  0  0  0  0  0  0  0  0  0  0  0
  -33.0215   64.6733   64.5890 C   0  0  0  0  0  0  0  0  0  0  0  0
  -33.6115   64.6045   65.9860 C   0  0  0  0  0  0  0  0  0  0  0  0
  -35.9624   61.6779   63.3554 H   0  0  0  0  0  0  0  0  0  0  0  0
  -33.1982   65.7784   62.9635 H   0  0  0  0  0  0  0  0  0  0  0  0
  -32.9683   65.9264   67.8707 O   0  0  0  0  0  0  0  0  0  0  0  0
  -33.2944   66.0013   66.5155 C   0  0  0  0  0  0  0  0  0  0  0  0
  -32.7674   66.8147   68.2045 H   0  0  0  0  0  0  0  0  0  0  0  0
  -32.6840   63.5295   62.5548 O   0  0  0  0  0  0  0  0  0  0  0  0
  -30.2679   63.5945   63.4902 O   0  0  0  0  0  0  0  0  0  0  0  0
  -31.0277   65.3635   62.0129 O   0  0  0  0  0  0  0  0  0  0  0  0
  -30.4912   63.1754   61.1194 O   0  0  0  0  0  0  0  0  0  0  0  0
  -31.0847   63.9004   62.2785 S   0  0  0  0  0  0  0  0  0  0  0  0
  -30.6398   64.0586   64.2564 H   0  0  0  0  0  0  0  0  0  0  0  0
  -30.5243   62.2200   61.2842 H   0  0  0  0  0  0  0  0  0  0  0  0
  2  1  1  0  0  0
  2  4  1  0  0  0
  2  5  1  0  0  0
 41 42  1  0  0  0
 41  1  1  0  0  0
 42 46  1  0  0  0
  1 24  1  0  0  0
 23 24  1  0  0  0
 23 25  1  0  0  0
 24 26  1  0  0  0
  3  4  2  0  0  0
 26 27  2  0  0  0
 27 28  1  0  0  0
 43 47  1  0  0  0
 43 51  1  0  0  0
 28 29  1  0  0  0
 56 48  1  0  0  0
 56 60  1  0  0  0
 29 30  1  0  0  0
 57 60  1  0  0  0
 57 61  1  0  0  0
 30 31  1  0  0  0
 44 49  1  0  0  0
 44 52  1  0  0  0
 31 32  1  0  0  0
 45 46  1  0  0  0
 45 50  1  0  0  0
 32 33  1  0  0  0
 53 54  1  0  0  0
 53 55  1  0  0  0
 33 34  1  0  0  0
 34 35  1  0  0  0
 35 36  1  0  0  0
 58 60  1  0  0  0
 36 37  1  0  0  0
 59 60  1  0  0  0
 59 62  1  0  0  0
 37 38  1  0  0  0
 38 39  1  0  0  0
 39 40  1  0  0  0
  4  6  1  0  0  0
  6  7  1  0  0  0
  7  8  1  0  0  0
  8  9  1  0  0  0
  9 10  1  0  0  0
 10 11  1  0  0  0
 11 12  1  0  0  0
 12 13  1  0  0  0
 13 14  1  0  0  0
 14 15  1  0  0  0
 15 16  1  0  0  0
 16 17  1  0  0  0
 17 18  1  0  0  0
 18 19  1  0  0  0
 19 20  1  0  0  0
 20 21  1  0  0  0
 21 22  1  0  0  0
 46 47  1  0  0  0
 47 48  1  0  0  0
 48 49  1  0  0  0
 49 50  1  0  0  0
 50 54  1  0  0  0
M  CHG 1  58  -1
M  END
> <minimizedAffinity>
-9.65815

> <CNNscore>
0.4003728032

> <CNNaffinity>
7.0284767151

> <CNN_VS>
2.8140108585

> <CNNaffinity_variance>
1.2440065145

$$$$
/media/chris/experiments/cd1a-new-docking/inputs/ligands/1onq_ligand.pdb


 62 62  0  0  0  0  0  0  0  0999 V2000
  -39.0177   59.3003   64.7750 C   0  0  0  0  0  0  0  0  0  0  0  0
  -39.1250   58.9424   63.3745 N   0  0  0  0  0  0  0  0  0  0  0  0
  -38.5716   60.8864   62.3440 O   0  0  0  0  0  0  0  0  0  0  0  0
  -38.9063   59.7184   62.3042 C   0  0  0  0  0  0  0  0  0  0  0  0
  -39.3917   58.0137   63.1862 H   0  0  0  0  0  0  0  0  0  0  0  0
  -39.0951   59.0436   60.9779 C   0  0  0  0  0  0  0  0  0  0  0  0
  -37.7088   58.5883   60.5223 C   0  0  0  0  0  0  0  0  0  0  0  0
  -37.5904   58.7157   59.0054 C   0  0  0  0  0  0  0  0  0  0  0  0
  -36.8910   57.5810   58.2969 C   0  0  0  0  0  0  0  0  0  0  0  0
  -36.6763   56.4652   59.3142 C   0  0  0  0  0  0  0  0  0  0  0  0
  -35.3492   55.7227   59.1084 C   0  0  0  0  0  0  0  0  0  0  0  0
  -34.4200   55.7365   60.3360 C   0  0  0  0  0  0  0  0  0  0  0  0
  -34.2104   57.1532   60.9145 C   0  0  0  0  0  0  0  0  0  0  0  0
  -34.7766   57.2459   62.3344 C   0  0  0  0  0  0  0  0  0  0  0  0
  -33.8934   57.9827   63.3339 C   0  0  0  0  0  0  0  0  0  0  0  0
  -32.5418   58.3570   62.7438 C   0  0  0  0  0  0  0  0  0  0  0  0
  -32.3432   59.8367   62.4069 C   0  0  0  0  0  0  0  0  0  0  0  0
  -30.9638   60.0016   61.7834 C   0  0  0  0  0  0  0  0  0  0  0  0
  -29.8638   60.6533   62.6083 C   0  0  0  0  0  0  0  0  0  0  0  0
  -29.4544   62.0071   62.0069 C   0  0  0  0  0  0  0  0  0  0  0  0
  -30.0201   63.2325   62.7483 C   0  0  0  0  0  0  0  0  0  0  0  0
  -30.4917   64.3412   61.8104 C   0  0  0  0  0  0  0  0  0  0  0  0
  -39.9988   60.8693   66.1791 O   0  0  0  0  0  0  0  0  0  0  0  0
  -40.2681   60.1328   65.0007 C   0  0  0  0  0  0  0  0  0  0  0  0
  -39.2306   61.4435   66.0331 H   0  0  0  0  0  0  0  0  0  0  0  0
  -41.4731   59.2035   65.1642 C   0  0  0  0  0  0  0  0  0  0  0  0
  -41.4985   58.1852   66.0410 C   0  0  0  0  0  0  0  0  0  0  0  0
  -42.7399   57.3013   66.1439 C   0  0  0  0  0  0  0  0  0  0  0  0
  -43.9676   57.8663   65.4146 C   0  0  0  0  0  0  0  0  0  0  0  0
  -45.1863   56.9282   65.3359 C   0  0  0  0  0  0  0  0  0  0  0  0
  -46.1534   57.1840   66.5169 C   0  0  0  0  0  0  0  0  0  0  0  0
  -46.5719   58.6619   66.7213 C   0  0  0  0  0  0  0  0  0  0  0  0
  -48.0497   58.9560   66.3714 C   0  0  0  0  0  0  0  0  0  0  0  0
  -48.8281   57.7142   65.8855 C   0  0  0  0  0  0  0  0  0  0  0  0
  -50.3260   57.9668   65.6764 C   0  0  0  0  0  0  0  0  0  0  0  0
  -50.7306   59.4130   65.3982 C   0  0  0  0  0  0  0  0  0  0  0  0
  -50.4377   59.8788   63.9583 C   0  0  0  0  0  0  0  0  0  0  0  0
  -51.4760   59.4543   62.9087 C   0  0  0  0  0  0  0  0  0  0  0  0
  -51.0233   58.1941   62.1657 C   0  0  0  0  0  0  0  0  0  0  0  0
  -49.8931   58.3686   61.1670 C   0  0  0  0  0  0  0  0  0  0  0  0
  -37.6712   59.9289   65.2002 C   0  0  0  0  0  0  0  0  0  0  0  0
  -37.7403   61.1964   65.9016 O   0  0  0  0  0  0  0  0  0  0  0  0
  -36.1057   62.7579   67.6528 O   0  0  0  0  0  0  0  0  0  0  0  0
  -33.4660   62.6606   64.4246 O   0  0  0  0  0  0  0  0  0  0  0  0
  -36.4449   62.2224   64.1254 O   0  0  0  0  0  0  0  0  0  0  0  0
  -36.9054   62.3436   65.4932 C   0  0  0  0  0  0  0  0  0  0  0  0
  -35.6534   62.6044   66.3429 C   0  0  0  0  0  0  0  0  0  0  0  0
  -34.8866   63.8837   65.9415 C   0  0  0  0  0  0  0  0  0  0  0  0
  -34.4539   63.6843   64.5151 C   0  0  0  0  0  0  0  0  0  0  0  0
  -35.6589   63.3502   63.6546 C   0  0  0  0  0  0  0  0  0  0  0  0
  -36.5907   61.9625   67.9227 H   0  0  0  0  0  0  0  0  0  0  0  0
  -32.7065   62.8940   64.9811 H   0  0  0  0  0  0  0  0  0  0  0  0
  -33.9256   64.0512   62.1653 O   0  0  0  0  0  0  0  0  0  0  0  0
  -35.0108   63.1809   62.2822 C   0  0  0  0  0  0  0  0  0  0  0  0
  -33.5158   63.9417   61.2930 H   0  0  0  0  0  0  0  0  0  0  0  0
  -33.6827   64.1633   66.6914 O   0  0  0  0  0  0  0  0  0  0  0  0
  -32.1999   66.1211   67.5190 O   0  0  0  0  0  0  0  0  0  0  0  0
  -33.3591   66.3119   65.3955 O   0  0  0  0  0  0  0  0  0  0  0  0
  -31.3953   64.9049   65.5903 O   0  0  0  0  0  0  0  0  0  0  0  0
  -32.6207   65.3817   66.2922 S   0  0  0  0  0  0  0  0  0  0  0  0
  -32.9857   66.4398   67.9899 H   0  0  0  0  0  0  0  0  0  0  0  0
  -30.9074   64.2974   66.1681 H   0  0  0  0  0  0  0  0  0  0  0  0
  2  1  1  0  0  0
  2  4  1  0  0  0
  2  5  1  0  0  0
 41 42  1  0  0  0
 41  1  1  0  0  0
 42 46  1  0  0  0
  1 24  1  0  0  0
 23 24  1  0  0  0
 23 25  1  0  0  0
 24 26  1  0  0  0
  3  4  2  0  0  0
 26 27  2  0  0  0
 27 28  1  0  0  0
 43 47  1  0  0  0
 43 51  1  0  0  0
 28 29  1  0  0  0
 56 48  1  0  0  0
 56 60  1  0  0  0
 29 30  1  0  0  0
 57 60  1  0  0  0
 57 61  1  0  0  0
 30 31  1  0  0  0
 44 49  1  0  0  0
 44 52  1  0  0  0
 31 32  1  0  0  0
 45 46  1  0  0  0
 45 50  1  0  0  0
 32 33  1  0  0  0
 53 54  1  0  0  0
 53 55  1  0  0  0
 33 34  1  0  0  0
 34 35  1  0  0  0
 35 36  1  0  0  0
 58 60  1  0  0  0
 36 37  1  0  0  0
 59 60  1  0  0  0
 59 62  1  0  0  0
 37 38  1  0  0  0
 38 39  1  0  0  0
 39 40  1  0  0  0
  4  6  1  0  0  0
  6  7  1  0  0  0
  7  8  1  0  0  0
  8  9  1  0  0  0
  9 10  1  0  0  0
 10 11  1  0  0  0
 11 12  1  0  0  0
 12 13  1  0  0  0
 13 14  1  0  0  0
 14 15  1  0  0  0
 15 16  1  0  0  0
 16 17  1  0  0  0
 17 18  1  0  0  0
 18 19  1  0  0  0
 19 20  1  0  0  0
 20 21  1  0  0  0
 21 22  1  0  0  0
 46 47  1  0  0  0
 47 48  1  0  0  0
 48 49  1  0  0  0
 49 50  1  0  0  0
 50 54  1  0  0  0
M  CHG 1  58  -1
M  END
> <minimizedAffinity>
-9.24387

> <CNNscore>
0.3888186812

> <CNNaffinity>
7.0313844681

> <CNN_VS>
2.7339336872

> <CNNaffinity_variance>
0.9452551603

$$$$
/media/chris/experiments/cd1a-new-docking/inputs/ligands/1onq_ligand.pdb


 62 62  0  0  0  0  0  0  0  0999 V2000
  -40.1602   58.8682   64.9546 C   0  0  0  0  0  0  0  0  0  0  0  0
  -39.6286   58.2553   63.7534 N   0  0  0  0  0  0  0  0  0  0  0  0
  -37.6099   57.4984   64.4602 O   0  0  0  0  0  0  0  0  0  0  0  0
  -38.4485   57.6414   63.5917 C   0  0  0  0  0  0  0  0  0  0  0  0
  -40.2064   58.2950   62.9574 H   0  0  0  0  0  0  0  0  0  0  0  0
  -38.1947   57.0996   62.2163 C   0  0  0  0  0  0  0  0  0  0  0  0
  -38.4350   58.2549   61.2444 C   0  0  0  0  0  0  0  0  0  0  0  0
  -37.3403   58.2775   60.1803 C   0  0  0  0  0  0  0  0  0  0  0  0
  -37.8081   58.3893   58.7495 C   0  0  0  0  0  0  0  0  0  0  0  0
  -36.5818   58.2578   57.8522 C   0  0  0  0  0  0  0  0  0  0  0  0
  -35.9314   56.8705   57.9368 C   0  0  0  0  0  0  0  0  0  0  0  0
  -34.3924   56.8903   57.8947 C   0  0  0  0  0  0  0  0  0  0  0  0
  -33.7497   56.0918   59.0500 C   0  0  0  0  0  0  0  0  0  0  0  0
  -34.8248   55.5581   60.0011 C   0  0  0  0  0  0  0  0  0  0  0  0
  -34.7267   56.0650   61.4347 C   0  0  0  0  0  0  0  0  0  0  0  0
  -33.8014   57.2664   61.5602 C   0  0  0  0  0  0  0  0  0  0  0  0
  -34.1926   58.3079   62.6112 C   0  0  0  0  0  0  0  0  0  0  0  0
  -33.0800   59.3444   62.6910 C   0  0  0  0  0  0  0  0  0  0  0  0
  -31.7194   59.0005   62.1032 C   0  0  0  0  0  0  0  0  0  0  0  0
  -31.0186   60.2584   61.5660 C   0  0  0  0  0  0  0  0  0  0  0  0
  -29.6026   60.4886   62.1254 C   0  0  0  0  0  0  0  0  0  0  0  0
  -29.2095   61.9628   62.1864 C   0  0  0  0  0  0  0  0  0  0  0  0
  -41.4000   60.6642   64.1587 O   0  0  0  0  0  0  0  0  0  0  0  0
  -41.5486   59.3030   64.5177 C   0  0  0  0  0  0  0  0  0  0  0  0
  -40.7738   60.7376   63.4216 H   0  0  0  0  0  0  0  0  0  0  0  0
  -42.5272   59.1165   65.6796 C   0  0  0  0  0  0  0  0  0  0  0  0
  -43.8370   58.8739   65.5015 C   0  0  0  0  0  0  0  0  0  0  0  0
  -44.7498   58.7004   66.7139 C   0  0  0  0  0  0  0  0  0  0  0  0
  -46.2257   58.4760   66.3539 C   0  0  0  0  0  0  0  0  0  0  0  0
  -46.6072   58.7704   64.8912 C   0  0  0  0  0  0  0  0  0  0  0  0
  -47.8568   59.6810   64.8222 C   0  0  0  0  0  0  0  0  0  0  0  0
  -49.0333   59.2606   65.7390 C   0  0  0  0  0  0  0  0  0  0  0  0
  -50.2334   58.6405   64.9853 C   0  0  0  0  0  0  0  0  0  0  0  0
  -51.1904   59.6895   64.3788 C   0  0  0  0  0  0  0  0  0  0  0  0
  -51.3839   59.5467   62.8644 C   0  0  0  0  0  0  0  0  0  0  0  0
  -51.0315   58.1856   62.2679 C   0  0  0  0  0  0  0  0  0  0  0  0
  -49.9007   58.2347   61.2216 C   0  0  0  0  0  0  0  0  0  0  0  0
  -50.0876   57.3069   60.0115 C   0  0  0  0  0  0  0  0  0  0  0  0
  -48.7553   57.0573   59.2989 C   0  0  0  0  0  0  0  0  0  0  0  0
  -48.3058   55.6108   59.1951 C   0  0  0  0  0  0  0  0  0  0  0  0
  -39.2619   59.9438   65.6066 C   0  0  0  0  0  0  0  0  0  0  0  0
  -38.6990   60.9432   64.7191 O   0  0  0  0  0  0  0  0  0  0  0  0
  -36.8139   61.2211   62.5869 O   0  0  0  0  0  0  0  0  0  0  0  0
  -35.7167   64.6447   64.7022 O   0  0  0  0  0  0  0  0  0  0  0  0
  -37.1427   62.3055   65.9870 O   0  0  0  0  0  0  0  0  0  0  0  0
  -37.3029   61.3999   64.8681 C   0  0  0  0  0  0  0  0  0  0  0  0
  -36.6915   62.1116   63.6528 C   0  0  0  0  0  0  0  0  0  0  0  0
  -35.1965   62.4596   63.8248 C   0  0  0  0  0  0  0  0  0  0  0  0
  -35.1142   63.3886   65.0045 C   0  0  0  0  0  0  0  0  0  0  0  0
  -35.7767   62.7476   66.2105 C   0  0  0  0  0  0  0  0  0  0  0  0
  -37.7480   60.9907   62.4637 H   0  0  0  0  0  0  0  0  0  0  0  0
  -35.2790   65.0358   63.9300 H   0  0  0  0  0  0  0  0  0  0  0  0
  -34.2457   64.1795   67.3591 O   0  0  0  0  0  0  0  0  0  0  0  0
  -35.5954   63.8354   67.2668 C   0  0  0  0  0  0  0  0  0  0  0  0
  -34.1333   64.8705   68.0305 H   0  0  0  0  0  0  0  0  0  0  0  0
  -34.5762   63.1564   62.7205 O   0  0  0  0  0  0  0  0  0  0  0  0
  -32.3989   63.6681   61.4110 O   0  0  0  0  0  0  0  0  0  0  0  0
  -32.2602   62.8497   63.6914 O   0  0  0  0  0  0  0  0  0  0  0  0
  -32.9143   65.1425   63.2567 O   0  0  0  0  0  0  0  0  0  0  0  0
  -33.0170   63.7382   62.7682 S   0  0  0  0  0  0  0  0  0  0  0  0
  -32.4565   62.7596   61.0761 H   0  0  0  0  0  0  0  0  0  0  0  0
  -33.4053   65.7291   62.6602 H   0  0  0  0  0  0  0  0  0  0  0  0
  2  1  1  0  0  0
  2  4  1  0  0  0
  2  5  1  0  0  0
 41 42  1  0  0  0
 41  1  1  0  0  0
 42 46  1  0  0  0
  1 24  1  0  0  0
 23 24  1  0  0  0
 23 25  1  0  0  0
 24 26  1  0  0  0
  3  4  2  0  0  0
 26 27  2  0  0  0
 27 28  1  0  0  0
 43 47  1  0  0  0
 43 51  1  0  0  0
 28 29  1  0  0  0
 56 48  1  0  0  0
 56 60  1  0  0  0
 29 30  1  0  0  0
 57 60  1  0  0  0
 57 61  1  0  0  0
 30 31  1  0  0  0
 44 49  1  0  0  0
 44 52  1  0  0  0
 31 32  1  0  0  0
 45 46  1  0  0  0
 45 50  1  0  0  0
 32 33  1  0  0  0
 53 54  1  0  0  0
 53 55  1  0  0  0
 33 34  1  0  0  0
 34 35  1  0  0  0
 35 36  1  0  0  0
 58 60  1  0  0  0
 36 37  1  0  0  0
 59 60  1  0  0  0
 59 62  1  0  0  0
 37 38  1  0  0  0
 38 39  1  0  0  0
 39 40  1  0  0  0
  4  6  1  0  0  0
  6  7  1  0  0  0
  7  8  1  0  0  0
  8  9  1  0  0  0
  9 10  1  0  0  0
 10 11  1  0  0  0
 11 12  1  0  0  0
 12 13  1  0  0  0
 13 14  1  0  0  0
 14 15  1  0  0  0
 15 16  1  0  0  0
 16 17  1  0  0  0
 17 18  1  0  0  0
 18 19  1  0  0  0
 19 20  1  0  0  0
 20 21  1  0  0  0
 21 22  1  0  0  0
 46 47  1  0  0  0
 47 48  1  0  0  0
 48 49  1  0  0  0
 49 50  1  0  0  0
 50 54  1  0  0  0
M  CHG 1  58  -1
M  END
> <minimizedAffinity>
-9.97404

> <CNNscore>
0.3814549744

> <CNNaffinity>
7.0524148941

> <CNN_VS>
2.6901786327

> <CNNaffinity_variance>
0.9868048429

$$$$
/media/chris/experiments/cd1a-new-docking/inputs/ligands/1onq_ligand.pdb


 62 62  0  0  0  0  0  0  0  0999 V2000
  -39.6246   59.1113   62.4422 C   0  0  0  0  0  0  0  0  0  0  0  0
  -40.0608   58.8418   63.7980 N   0  0  0  0  0  0  0  0  0  0  0  0
  -41.8409   60.2325   64.0093 O   0  0  0  0  0  0  0  0  0  0  0  0
  -41.0879   59.3913   64.4602 C   0  0  0  0  0  0  0  0  0  0  0  0
  -39.5373   58.1716   64.2939 H   0  0  0  0  0  0  0  0  0  0  0  0
  -41.2859   58.8897   65.8599 C   0  0  0  0  0  0  0  0  0  0  0  0
  -42.6813   59.3427   66.2893 C   0  0  0  0  0  0  0  0  0  0  0  0
  -43.6840   58.2100   66.0826 C   0  0  0  0  0  0  0  0  0  0  0  0
  -44.7143   58.4252   65.0005 C   0  0  0  0  0  0  0  0  0  0  0  0
  -46.0863   58.4375   65.6667 C   0  0  0  0  0  0  0  0  0  0  0  0
  -47.2328   58.5989   64.6596 C   0  0  0  0  0  0  0  0  0  0  0  0
  -48.5849   58.9711   65.2952 C   0  0  0  0  0  0  0  0  0  0  0  0
  -49.7787   58.2480   64.6339 C   0  0  0  0  0  0  0  0  0  0  0  0
  -49.6223   58.2298   63.1106 C   0  0  0  0  0  0  0  0  0  0  0  0
  -50.9151   58.4222   62.3273 C   0  0  0  0  0  0  0  0  0  0  0  0
  -51.0393   57.4437   61.1687 C   0  0  0  0  0  0  0  0  0  0  0  0
  -50.0805   57.6662   59.9967 C   0  0  0  0  0  0  0  0  0  0  0  0
  -49.2488   56.4036   59.8162 C   0  0  0  0  0  0  0  0  0  0  0  0
  -47.7795   56.5448   59.4469 C   0  0  0  0  0  0  0  0  0  0  0  0
  -47.6090   57.4170   58.1931 C   0  0  0  0  0  0  0  0  0  0  0  0
  -47.6925   56.6461   56.8627 C   0  0  0  0  0  0  0  0  0  0  0  0
  -47.4129   55.1524   57.0116 C   0  0  0  0  0  0  0  0  0  0  0  0
  -37.9637   57.7958   63.3944 O   0  0  0  0  0  0  0  0  0  0  0  0
  -38.6572   57.9715   62.1730 C   0  0  0  0  0  0  0  0  0  0  0  0
  -38.5927   57.5498   64.0908 H   0  0  0  0  0  0  0  0  0  0  0  0
  -37.7193   58.3623   61.0284 C   0  0  0  0  0  0  0  0  0  0  0  0
  -38.0052   58.1297   59.7360 C   0  0  0  0  0  0  0  0  0  0  0  0
  -37.0155   58.5494   58.6509 C   0  0  0  0  0  0  0  0  0  0  0  0
  -36.0227   57.4469   58.2548 C   0  0  0  0  0  0  0  0  0  0  0  0
  -36.5175   56.0020   58.4522 C   0  0  0  0  0  0  0  0  0  0  0  0
  -35.6337   55.2544   59.4796 C   0  0  0  0  0  0  0  0  0  0  0  0
  -34.3576   56.0102   59.9286 C   0  0  0  0  0  0  0  0  0  0  0  0
  -34.2442   56.2087   61.4585 C   0  0  0  0  0  0  0  0  0  0  0  0
  -32.8998   56.8241   61.9034 C   0  0  0  0  0  0  0  0  0  0  0  0
  -32.7665   58.3170   61.5796 C   0  0  0  0  0  0  0  0  0  0  0  0
  -31.7221   59.0878   62.3842 C   0  0  0  0  0  0  0  0  0  0  0  0
  -30.8711   60.0564   61.5394 C   0  0  0  0  0  0  0  0  0  0  0  0
  -29.5599   60.5173   62.1939 C   0  0  0  0  0  0  0  0  0  0  0  0
  -29.3855   62.0335   62.0676 C   0  0  0  0  0  0  0  0  0  0  0  0
  -30.6548   62.8461   61.8839 C   0  0  0  0  0  0  0  0  0  0  0  0
  -39.1086   60.5447   62.1815 C   0  0  0  0  0  0  0  0  0  0  0  0
  -38.4561   61.2108   63.2923 O   0  0  0  0  0  0  0  0  0  0  0  0
  -36.8547   63.5400   63.7254 O   0  0  0  0  0  0  0  0  0  0  0  0
  -34.7310   60.9732   66.2355 O   0  0  0  0  0  0  0  0  0  0  0  0
  -36.4754   59.9845   63.9694 O   0  0  0  0  0  0  0  0  0  0  0  0
  -36.9852   61.2238   63.4199 C   0  0  0  0  0  0  0  0  0  0  0  0
  -36.3917   62.3479   64.2810 C   0  0  0  0  0  0  0  0  0  0  0  0
  -34.8475   62.3802   64.2806 C   0  0  0  0  0  0  0  0  0  0  0  0
  -34.3993   61.0634   64.8521 C   0  0  0  0  0  0  0  0  0  0  0  0
  -35.0271   59.9237   64.0702 C   0  0  0  0  0  0  0  0  0  0  0  0
  -37.8247   63.5377   63.7173 H   0  0  0  0  0  0  0  0  0  0  0  0
  -34.3205   61.7096   66.7152 H   0  0  0  0  0  0  0  0  0  0  0  0
  -35.2715   57.5972   64.5611 O   0  0  0  0  0  0  0  0  0  0  0  0
  -34.4632   58.7091   64.8042 C   0  0  0  0  0  0  0  0  0  0  0  0
  -34.9113   56.8272   65.0283 H   0  0  0  0  0  0  0  0  0  0  0  0
  -34.2341   63.4027   65.0981 O   0  0  0  0  0  0  0  0  0  0  0  0
  -32.1135   64.8923   65.0755 O   0  0  0  0  0  0  0  0  0  0  0  0
  -34.2994   65.9178   64.8318 O   0  0  0  0  0  0  0  0  0  0  0  0
  -33.3123   64.6980   62.9847 O   0  0  0  0  0  0  0  0  0  0  0  0
  -33.4679   64.7390   64.4664 S   0  0  0  0  0  0  0  0  0  0  0  0
  -32.1947   64.9210   66.0416 H   0  0  0  0  0  0  0  0  0  0  0  0
  -32.7710   63.9320   62.7374 H   0  0  0  0  0  0  0  0  0  0  0  0
  2  1  1  0  0  0
  2  4  1  0  0  0
  2  5  1  0  0  0
 41 42  1  0  0  0
 41  1  1  0  0  0
 42 46  1  0  0  0
  1 24  1  0  0  0
 23 24  1  0  0  0
 23 25  1  0  0  0
 24 26  1  0  0  0
  3  4  2  0  0  0
 26 27  2  0  0  0
 27 28  1  0  0  0
 43 47  1  0  0  0
 43 51  1  0  0  0
 28 29  1  0  0  0
 56 48  1  0  0  0
 56 60  1  0  0  0
 29 30  1  0  0  0
 57 60  1  0  0  0
 57 61  1  0  0  0
 30 31  1  0  0  0
 44 49  1  0  0  0
 44 52  1  0  0  0
 31 32  1  0  0  0
 45 46  1  0  0  0
 45 50  1  0  0  0
 32 33  1  0  0  0
 53 54  1  0  0  0
 53 55  1  0  0  0
 33 34  1  0  0  0
 34 35  1  0  0  0
 35 36  1  0  0  0
 58 60  1  0  0  0
 36 37  1  0  0  0
 59 60  1  0  0  0
 59 62  1  0  0  0
 37 38  1  0  0  0
 38 39  1  0  0  0
 39 40  1  0  0  0
  4  6  1  0  0  0
  6  7  1  0  0  0
  7  8  1  0  0  0
  8  9  1  0  0  0
  9 10  1  0  0  0
 10 11  1  0  0  0
 11 12  1  0  0  0
 12 13  1  0  0  0
 13 14  1  0  0  0
 14 15  1  0  0  0
 15 16  1  0  0  0
 16 17  1  0  0  0
 17 18  1  0  0  0
 18 19  1  0  0  0
 19 20  1  0  0  0
 20 21  1  0  0  0
 21 22  1  0  0  0
 46 47  1  0  0  0
 47 48  1  0  0  0
 48 49  1  0  0  0
 49 50  1  0  0  0
 50 54  1  0  0  0
M  CHG 1  58  -1
M  END
> <minimizedAffinity>
-9.24962

> <CNNscore>
0.3771727979

> <CNNaffinity>
6.9031548500

> <CNN_VS>
2.6036822796

> <CNNaffinity_variance>
1.1571854353

$$$$
/media/chris/experiments/cd1a-new-docking/inputs/ligands/1onq_ligand.pdb


 62 62  0  0  0  0  0  0  0  0999 V2000
  -38.5988   60.2625   62.7484 C   0  0  0  0  0  0  0  0  0  0  0  0
  -39.9596   60.1360   63.2312 N   0  0  0  0  0  0  0  0  0  0  0  0
  -39.6558   59.1613   65.2573 O   0  0  0  0  0  0  0  0  0  0  0  0
  -40.3791   59.6202   64.3946 C   0  0  0  0  0  0  0  0  0  0  0  0
  -40.6632   60.4708   62.6296 H   0  0  0  0  0  0  0  0  0  0  0  0
  -41.8643   59.6416   64.6032 C   0  0  0  0  0  0  0  0  0  0  0  0
  -42.1270   58.9160   65.9228 C   0  0  0  0  0  0  0  0  0  0  0  0
  -43.4831   58.2164   65.8723 C   0  0  0  0  0  0  0  0  0  0  0  0
  -44.6914   59.1169   65.7845 C   0  0  0  0  0  0  0  0  0  0  0  0
  -45.6332   58.7366   66.9222 C   0  0  0  0  0  0  0  0  0  0  0  0
  -47.1120   58.9103   66.5509 C   0  0  0  0  0  0  0  0  0  0  0  0
  -47.6490   57.8443   65.5784 C   0  0  0  0  0  0  0  0  0  0  0  0
  -47.9626   58.4133   64.1772 C   0  0  0  0  0  0  0  0  0  0  0  0
  -48.2686   59.9115   64.2588 C   0  0  0  0  0  0  0  0  0  0  0  0
  -49.7349   60.2813   64.0714 C   0  0  0  0  0  0  0  0  0  0  0  0
  -50.6274   59.0557   63.9424 C   0  0  0  0  0  0  0  0  0  0  0  0
  -51.2916   58.8497   62.5791 C   0  0  0  0  0  0  0  0  0  0  0  0
  -50.6619   57.6286   61.9228 C   0  0  0  0  0  0  0  0  0  0  0  0
  -50.9228   57.3791   60.4447 C   0  0  0  0  0  0  0  0  0  0  0  0
  -49.6731   57.6896   59.6056 C   0  0  0  0  0  0  0  0  0  0  0  0
  -48.3452   57.5971   60.3796 C   0  0  0  0  0  0  0  0  0  0  0  0
  -47.1591   57.2089   59.4998 C   0  0  0  0  0  0  0  0  0  0  0  0
  -36.8071   58.8976   63.3169 O   0  0  0  0  0  0  0  0  0  0  0  0
  -38.1076   58.8251   62.7626 C   0  0  0  0  0  0  0  0  0  0  0  0
  -36.8598   59.2472   64.2203 H   0  0  0  0  0  0  0  0  0  0  0  0
  -38.0954   58.2794   61.3327 C   0  0  0  0  0  0  0  0  0  0  0  0
  -37.9080   59.0583   60.2536 C   0  0  0  0  0  0  0  0  0  0  0  0
  -37.9103   58.4372   58.8581 C   0  0  0  0  0  0  0  0  0  0  0  0
  -36.5540   58.5124   58.1420 C   0  0  0  0  0  0  0  0  0  0  0  0
  -35.8401   57.1656   57.9233 C   0  0  0  0  0  0  0  0  0  0  0  0
  -36.5847   56.0239   58.6565 C   0  0  0  0  0  0  0  0  0  0  0  0
  -35.8204   55.3938   59.8482 C   0  0  0  0  0  0  0  0  0  0  0  0
  -34.9741   56.4012   60.6617 C   0  0  0  0  0  0  0  0  0  0  0  0
  -33.4865   56.0046   60.7794 C   0  0  0  0  0  0  0  0  0  0  0  0
  -32.7477   56.7099   61.9231 C   0  0  0  0  0  0  0  0  0  0  0  0
  -33.5571   57.7361   62.7132 C   0  0  0  0  0  0  0  0  0  0  0  0
  -33.1108   59.1940   62.4863 C   0  0  0  0  0  0  0  0  0  0  0  0
  -31.7581   59.3620   61.7779 C   0  0  0  0  0  0  0  0  0  0  0  0
  -31.1090   60.7003   62.1423 C   0  0  0  0  0  0  0  0  0  0  0  0
  -29.6210   60.8259   61.8676 C   0  0  0  0  0  0  0  0  0  0  0  0
  -37.7271   61.3081   63.4804 C   0  0  0  0  0  0  0  0  0  0  0  0
  -36.4963   61.7014   62.8217 O   0  0  0  0  0  0  0  0  0  0  0  0
  -34.3158   63.2342   61.7859 O   0  0  0  0  0  0  0  0  0  0  0  0
  -34.5796   65.1384   65.4878 O   0  0  0  0  0  0  0  0  0  0  0  0
  -35.6372   62.3462   64.9969 O   0  0  0  0  0  0  0  0  0  0  0  0
  -35.3218   62.1472   63.5974 C   0  0  0  0  0  0  0  0  0  0  0  0
  -34.6515   63.4444   63.1229 C   0  0  0  0  0  0  0  0  0  0  0  0
  -33.3621   63.7958   63.8972 C   0  0  0  0  0  0  0  0  0  0  0  0
  -33.7700   63.9753   65.3335 C   0  0  0  0  0  0  0  0  0  0  0  0
  -34.5038   62.7378   65.8177 C   0  0  0  0  0  0  0  0  0  0  0  0
  -35.1149   63.0120   61.2830 H   0  0  0  0  0  0  0  0  0  0  0  0
  -34.0922   65.9157   65.1729 H   0  0  0  0  0  0  0  0  0  0  0  0
  -36.1809   63.4632   67.3586 O   0  0  0  0  0  0  0  0  0  0  0  0
  -34.8300   63.1260   67.2581 C   0  0  0  0  0  0  0  0  0  0  0  0
  -36.3855   63.7093   68.2743 H   0  0  0  0  0  0  0  0  0  0  0  0
  -32.7040   65.0233   63.5099 O   0  0  0  0  0  0  0  0  0  0  0  0
  -31.5134   64.3508   61.3083 O   0  0  0  0  0  0  0  0  0  0  0  0
  -30.2689   64.3475   63.3916 O   0  0  0  0  0  0  0  0  0  0  0  0
  -30.8244   66.4424   62.3067 O   0  0  0  0  0  0  0  0  0  0  0  0
  -31.3081   65.0642   62.6036 S   0  0  0  0  0  0  0  0  0  0  0  0
  -31.8288   63.4501   61.4817 H   0  0  0  0  0  0  0  0  0  0  0  0
  -31.4963   66.9172   61.7927 H   0  0  0  0  0  0  0  0  0  0  0  0
  2  1  1  0  0  0
  2  4  1  0  0  0
  2  5  1  0  0  0
 41 42  1  0  0  0
 41  1  1  0  0  0
 42 46  1  0  0  0
  1 24  1  0  0  0
 23 24  1  0  0  0
 23 25  1  0  0  0
 24 26  1  0  0  0
  3  4  2  0  0  0
 26 27  2  0  0  0
 27 28  1  0  0  0
 43 47  1  0  0  0
 43 51  1  0  0  0
 28 29  1  0  0  0
 56 48  1  0  0  0
 56 60  1  0  0  0
 29 30  1  0  0  0
 57 60  1  0  0  0
 57 61  1  0  0  0
 30 31  1  0  0  0
 44 49  1  0  0  0
 44 52  1  0  0  0
 31 32  1  0  0  0
 45 46  1  0  0  0
 45 50  1  0  0  0
 32 33  1  0  0  0
 53 54  1  0  0  0
 53 55  1  0  0  0
 33 34  1  0  0  0
 34 35  1  0  0  0
 35 36  1  0  0  0
 58 60  1  0  0  0
 36 37  1  0  0  0
 59 60  1  0  0  0
 59 62  1  0  0  0
 37 38  1  0  0  0
 38 39  1  0  0  0
 39 40  1  0  0  0
  4  6  1  0  0  0
  6  7  1  0  0  0
  7  8  1  0  0  0
  8  9  1  0  0  0
  9 10  1  0  0  0
 10 11  1  0  0  0
 11 12  1  0  0  0
 12 13  1  0  0  0
 13 14  1  0  0  0
 14 15  1  0  0  0
 15 16  1  0  0  0
 16 17  1  0  0  0
 17 18  1  0  0  0
 18 19  1  0  0  0
 19 20  1  0  0  0
 20 21  1  0  0  0
 21 22  1  0  0  0
 46 47  1  0  0  0
 47 48  1  0  0  0
 48 49  1  0  0  0
 49 50  1  0  0  0
 50 54  1  0  0  0
M  CHG 1  58  -1
M  END
> <minimizedAffinity>
-9.36622

> <CNNscore>
0.3631984293

> <CNNaffinity>
6.9058313370

> <CNN_VS>
2.5081870556

> <CNNaffinity_variance>
0.8177340627

$$$$
/media/chris/experiments/cd1a-new-docking/inputs/ligands/1onq_ligand.pdb


 62 62  0  0  0  0  0  0  0  0999 V2000
  -39.9771   58.8696   64.8405 C   0  0  0  0  0  0  0  0  0  0  0  0
  -41.0647   58.3355   65.6360 N   0  0  0  0  0  0  0  0  0  0  0  0
  -42.8484   59.4862   64.8349 O   0  0  0  0  0  0  0  0  0  0  0  0
  -42.3635   58.6612   65.5847 C   0  0  0  0  0  0  0  0  0  0  0  0
  -40.8186   57.6478   66.2960 H   0  0  0  0  0  0  0  0  0  0  0  0
  -43.2461   57.9160   66.5414 C   0  0  0  0  0  0  0  0  0  0  0  0
  -43.9739   56.8516   65.7202 C   0  0  0  0  0  0  0  0  0  0  0  0
  -45.4840   57.0420   65.8409 C   0  0  0  0  0  0  0  0  0  0  0  0
  -46.1350   57.8796   64.7671 C   0  0  0  0  0  0  0  0  0  0  0  0
  -46.6079   59.1758   65.4171 C   0  0  0  0  0  0  0  0  0  0  0  0
  -48.1200   59.3939   65.2731 C   0  0  0  0  0  0  0  0  0  0  0  0
  -48.9750   58.1768   65.6712 C   0  0  0  0  0  0  0  0  0  0  0  0
  -50.4603   58.3316   65.2769 C   0  0  0  0  0  0  0  0  0  0  0  0
  -50.6406   59.4950   64.2975 C   0  0  0  0  0  0  0  0  0  0  0  0
  -51.2098   59.1106   62.9373 C   0  0  0  0  0  0  0  0  0  0  0  0
  -50.3573   58.0685   62.2283 C   0  0  0  0  0  0  0  0  0  0  0  0
  -51.0198   57.3467   61.0526 C   0  0  0  0  0  0  0  0  0  0  0  0
  -49.9312   56.9459   60.0661 C   0  0  0  0  0  0  0  0  0  0  0  0
  -48.7721   57.9031   59.8306 C   0  0  0  0  0  0  0  0  0  0  0  0
  -47.4923   57.1364   59.4612 C   0  0  0  0  0  0  0  0  0  0  0  0
  -46.8425   57.5788   58.1372 C   0  0  0  0  0  0  0  0  0  0  0  0
  -47.3330   56.7848   56.9287 C   0  0  0  0  0  0  0  0  0  0  0  0
  -37.9275   57.8363   65.1975 O   0  0  0  0  0  0  0  0  0  0  0  0
  -39.1568   57.6302   64.5266 C   0  0  0  0  0  0  0  0  0  0  0  0
  -38.0875   57.9047   66.1518 H   0  0  0  0  0  0  0  0  0  0  0  0
  -38.9745   57.5132   63.0115 C   0  0  0  0  0  0  0  0  0  0  0  0
  -37.8178   57.1359   62.4406 C   0  0  0  0  0  0  0  0  0  0  0  0
  -37.7153   57.0441   60.9193 C   0  0  0  0  0  0  0  0  0  0  0  0
  -37.7274   58.4071   60.2121 C   0  0  0  0  0  0  0  0  0  0  0  0
  -37.4018   58.3801   58.7072 C   0  0  0  0  0  0  0  0  0  0  0  0
  -36.5310   57.1497   58.3557 C   0  0  0  0  0  0  0  0  0  0  0  0
  -35.0931   57.4720   57.8763 C   0  0  0  0  0  0  0  0  0  0  0  0
  -33.9884   56.6682   58.6017 C   0  0  0  0  0  0  0  0  0  0  0  0
  -34.5366   55.5482   59.5122 C   0  0  0  0  0  0  0  0  0  0  0  0
  -34.3457   55.8200   61.0092 C   0  0  0  0  0  0  0  0  0  0  0  0
  -33.4953   57.0368   61.3675 C   0  0  0  0  0  0  0  0  0  0  0  0
  -34.2414   58.0990   62.1987 C   0  0  0  0  0  0  0  0  0  0  0  0
  -33.3682   59.2445   62.7330 C   0  0  0  0  0  0  0  0  0  0  0  0
  -31.8836   58.9692   62.4779 C   0  0  0  0  0  0  0  0  0  0  0  0
  -31.1339   60.0098   61.6651 C   0  0  0  0  0  0  0  0  0  0  0  0
  -39.2251   60.0690   65.4609 C   0  0  0  0  0  0  0  0  0  0  0  0
  -38.6255   61.0084   64.5330 O   0  0  0  0  0  0  0  0  0  0  0  0
  -36.7604   61.2848   62.3829 O   0  0  0  0  0  0  0  0  0  0  0  0
  -35.5581   64.6397   64.5505 O   0  0  0  0  0  0  0  0  0  0  0  0
  -37.0225   62.3092   65.8074 O   0  0  0  0  0  0  0  0  0  0  0  0
  -37.2173   61.4297   64.6732 C   0  0  0  0  0  0  0  0  0  0  0  0
  -36.6043   62.1511   63.4644 C   0  0  0  0  0  0  0  0  0  0  0  0
  -35.0997   62.4610   63.6243 C   0  0  0  0  0  0  0  0  0  0  0  0
  -34.9814   63.3644   64.8207 C   0  0  0  0  0  0  0  0  0  0  0  0
  -35.6439   62.7151   66.0222 C   0  0  0  0  0  0  0  0  0  0  0  0
  -37.7011   61.0786   62.2671 H   0  0  0  0  0  0  0  0  0  0  0  0
  -35.1208   65.0358   63.7806 H   0  0  0  0  0  0  0  0  0  0  0  0
  -36.5347   63.8261   67.9420 O   0  0  0  0  0  0  0  0  0  0  0  0
  -35.4246   63.7774   67.0972 C   0  0  0  0  0  0  0  0  0  0  0  0
  -36.3930   64.5015   68.6237 H   0  0  0  0  0  0  0  0  0  0  0  0
  -34.4767   63.1650   62.5259 O   0  0  0  0  0  0  0  0  0  0  0  0
  -32.3132   63.6735   61.1929 O   0  0  0  0  0  0  0  0  0  0  0  0
  -32.1508   62.7652   63.4374 O   0  0  0  0  0  0  0  0  0  0  0  0
  -32.7557   65.0883   63.1031 O   0  0  0  0  0  0  0  0  0  0  0  0
  -32.9029   63.7066   62.5640 S   0  0  0  0  0  0  0  0  0  0  0  0
  -32.3999   62.7802   60.8250 H   0  0  0  0  0  0  0  0  0  0  0  0
  -33.2433   65.7090   62.5393 H   0  0  0  0  0  0  0  0  0  0  0  0
  2  1  1  0  0  0
  2  4  1  0  0  0
  2  5  1  0  0  0
 41 42  1  0  0  0
 41  1  1  0  0  0
 42 46  1  0  0  0
  1 24  1  0  0  0
 23 24  1  0  0  0
 23 25  1  0  0  0
 24 26  1  0  0  0
  3  4  2  0  0  0
 26 27  2  0  0  0
 27 28  1  0  0  0
 43 47  1  0  0  0
 43 51  1  0  0  0
 28 29  1  0  0  0
 56 48  1  0  0  0
 56 60  1  0  0  0
 29 30  1  0  0  0
 57 60  1  0  0  0
 57 61  1  0  0  0
 30 31  1  0  0  0
 44 49  1  0  0  0
 44 52  1  0  0  0
 31 32  1  0  0  0
 45 46  1  0  0  0
 45 50  1  0  0  0
 32 33  1  0  0  0
 53 54  1  0  0  0
 53 55  1  0  0  0
 33 34  1  0  0  0
 34 35  1  0  0  0
 35 36  1  0  0  0
 58 60  1  0  0  0
 36 37  1  0  0  0
 59 60  1  0  0  0
 59 62  1  0  0  0
 37 38  1  0  0  0
 38 39  1  0  0  0
 39 40  1  0  0  0
  4  6  1  0  0  0
  6  7  1  0  0  0
  7  8  1  0  0  0
  8  9  1  0  0  0
  9 10  1  0  0  0
 10 11  1  0  0  0
 11 12  1  0  0  0
 12 13  1  0  0  0
 13 14  1  0  0  0
 14 15  1  0  0  0
 15 16  1  0  0  0
 16 17  1  0  0  0
 17 18  1  0  0  0
 18 19  1  0  0  0
 19 20  1  0  0  0
 20 21  1  0  0  0
 21 22  1  0  0  0
 46 47  1  0  0  0
 47 48  1  0  0  0
 48 49  1  0  0  0
 49 50  1  0  0  0
 50 54  1  0  0  0
M  CHG 1  58  -1
M  END
> <minimizedAffinity>
-10.50115

> <CNNscore>
0.3460280001

> <CNNaffinity>
7.0456190109

> <CNN_VS>
2.4379813671

> <CNNaffinity_variance>
1.2302484512

$$$$
