/media/chris/experiments/cd1a-new-docking/inputs/ligands/1onq_ligand.pdb


 62 62  0  0  0  0  0  0  0  0999 V2000
  -38.6429   59.3603   64.6062 C   0  0  0  0  0  0  0  0  0  0  0  0
  -39.7201   59.2647   65.5714 N   0  0  0  0  0  0  0  0  0  0  0  0
  -41.1010   60.9385   64.9091 O   0  0  0  0  0  0  0  0  0  0  0  0
  -40.8230   60.0209   65.6565 C   0  0  0  0  0  0  0  0  0  0  0  0
  -39.6302   58.5560   66.2488 H   0  0  0  0  0  0  0  0  0  0  0  0
  -41.7584   59.6612   66.7726 C   0  0  0  0  0  0  0  0  0  0  0  0
  -42.3412   58.2914   66.4250 C   0  0  0  0  0  0  0  0  0  0  0  0
  -43.8576   58.3918   66.2779 C   0  0  0  0  0  0  0  0  0  0  0  0
  -44.6257   57.1014   66.4303 C   0  0  0  0  0  0  0  0  0  0  0  0
  -45.7547   57.1131   65.4051 C   0  0  0  0  0  0  0  0  0  0  0  0
  -46.9845   56.3205   65.8681 C   0  0  0  0  0  0  0  0  0  0  0  0
  -48.2485   57.1760   66.0704 C   0  0  0  0  0  0  0  0  0  0  0  0
  -48.0184   58.6707   65.7568 C   0  0  0  0  0  0  0  0  0  0  0  0
  -49.3550   59.4033   65.6087 C   0  0  0  0  0  0  0  0  0  0  0  0
  -50.4450   58.6175   64.8900 C   0  0  0  0  0  0  0  0  0  0  0  0
  -51.1753   59.4588   63.8537 C   0  0  0  0  0  0  0  0  0  0  0  0
  -50.6265   59.3909   62.4267 C   0  0  0  0  0  0  0  0  0  0  0  0
  -50.3027   57.9371   62.1102 C   0  0  0  0  0  0  0  0  0  0  0  0
  -50.9973   57.2757   60.9289 C   0  0  0  0  0  0  0  0  0  0  0  0
  -50.2640   57.5878   59.6148 C   0  0  0  0  0  0  0  0  0  0  0  0
  -49.0372   56.6984   59.3412 C   0  0  0  0  0  0  0  0  0  0  0  0
  -47.7332   57.4852   59.2321 C   0  0  0  0  0  0  0  0  0  0  0  0
  -37.6469   57.5740   63.5048 O   0  0  0  0  0  0  0  0  0  0  0  0
  -38.9132   58.1788   63.6905 C   0  0  0  0  0  0  0  0  0  0  0  0
  -37.3057   57.2693   64.3602 H   0  0  0  0  0  0  0  0  0  0  0  0
  -39.5097   58.6835   62.3744 C   0  0  0  0  0  0  0  0  0  0  0  0
  -39.5104   59.9801   62.0208 C   0  0  0  0  0  0  0  0  0  0  0  0
  -40.1268   60.4046   60.6893 C   0  0  0  0  0  0  0  0  0  0  0  0
  -39.4608   59.7630   59.4632 C   0  0  0  0  0  0  0  0  0  0  0  0
  -37.9291   59.6217   59.5344 C   0  0  0  0  0  0  0  0  0  0  0  0
  -37.5010   58.1543   59.2919 C   0  0  0  0  0  0  0  0  0  0  0  0
  -36.8837   57.8662   57.9000 C   0  0  0  0  0  0  0  0  0  0  0  0
  -36.1964   56.4852   57.7853 C   0  0  0  0  0  0  0  0  0  0  0  0
  -36.4833   55.5515   58.9812 C   0  0  0  0  0  0  0  0  0  0  0  0
  -35.2205   55.0700   59.7057 C   0  0  0  0  0  0  0  0  0  0  0  0
  -33.9814   55.9493   59.5513 C   0  0  0  0  0  0  0  0  0  0  0  0
  -33.8672   57.0619   60.6121 C   0  0  0  0  0  0  0  0  0  0  0  0
  -33.0013   56.7162   61.8329 C   0  0  0  0  0  0  0  0  0  0  0  0
  -32.7143   57.9632   62.6742 C   0  0  0  0  0  0  0  0  0  0  0  0
  -31.6510   58.9072   62.1413 C   0  0  0  0  0  0  0  0  0  0  0  0
  -37.2219   59.4732   65.2035 C   0  0  0  0  0  0  0  0  0  0  0  0
  -36.2110   60.0826   64.3608 O   0  0  0  0  0  0  0  0  0  0  0  0
  -34.0553   61.2752   62.9089 O   0  0  0  0  0  0  0  0  0  0  0  0
  -35.3150   64.7202   64.8949 O   0  0  0  0  0  0  0  0  0  0  0  0
  -35.9116   61.9306   65.9038 O   0  0  0  0  0  0  0  0  0  0  0  0
  -35.2870   61.1048   64.8912 C   0  0  0  0  0  0  0  0  0  0  0  0
  -34.6878   62.0734   63.8613 C   0  0  0  0  0  0  0  0  0  0  0  0
  -33.6410   63.0410   64.4556 C   0  0  0  0  0  0  0  0  0  0  0  0
  -34.3609   63.8501   65.4989 C   0  0  0  0  0  0  0  0  0  0  0  0
  -35.0307   62.9226   66.4965 C   0  0  0  0  0  0  0  0  0  0  0  0
  -34.6988   60.6597   62.5241 H   0  0  0  0  0  0  0  0  0  0  0  0
  -34.8664   65.3029   64.2623 H   0  0  0  0  0  0  0  0  0  0  0  0
  -37.0078   64.1594   67.0207 O   0  0  0  0  0  0  0  0  0  0  0  0
  -35.6966   63.9238   67.4379 C   0  0  0  0  0  0  0  0  0  0  0  0
  -37.4285   64.7955   67.6201 H   0  0  0  0  0  0  0  0  0  0  0  0
  -33.0640   63.9946   63.5349 O   0  0  0  0  0  0  0  0  0  0  0  0
  -31.7293   64.6967   61.4271 O   0  0  0  0  0  0  0  0  0  0  0  0
  -33.7683   63.4046   61.1776 O   0  0  0  0  0  0  0  0  0  0  0  0
  -31.7366   62.3378   61.9578 O   0  0  0  0  0  0  0  0  0  0  0  0
  -32.5456   63.5887   62.0057 S   0  0  0  0  0  0  0  0  0  0  0  0
  -32.2405   65.5208   61.4499 H   0  0  0  0  0  0  0  0  0  0  0  0
  -30.9369   62.4491   62.4954 H   0  0  0  0  0  0  0  0  0  0  0  0
  2  1  1  0  0  0
  2  4  1  0  0  0
  2  5  1  0  0  0
 41 42  1  0  0  0
 41  1  1  0  0  0
 42 46  1  0  0  0
  1 24  1  0  0  0
 23 24  1  0  0  0
 23 25  1  0  0  0
 24 26  1  0  0  0
  3  4  2  0  0  0
 26 27  2  0  0  0
 27 28  1  0  0  0
 43 47  1  0  0  0
 43 51  1  0  0  0
 28 29  1  0  0  0
 56 48  1  0  0  0
 56 60  1  0  0  0
 29 30  1  0  0  0
 57 60  1  0  0  0
 57 61  1  0  0  0
 30 31  1  0  0  0
 44 49  1  0  0  0
 44 52  1  0  0  0
 31 32  1  0  0  0
 45 46  1  0  0  0
 45 50  1  0  0  0
 32 33  1  0  0  0
 53 54  1  0  0  0
 53 55  1  0  0  0
 33 34  1  0  0  0
 34 35  1  0  0  0
 35 36  1  0  0  0
 58 60  1  0  0  0
 36 37  1  0  0  0
 59 60  1  0  0  0
 59 62  1  0  0  0
 37 38  1  0  0  0
 38 39  1  0  0  0
 39 40  1  0  0  0
  4  6  1  0  0  0
  6  7  1  0  0  0
  7  8  1  0  0  0
  8  9  1  0  0  0
  9 10  1  0  0  0
 10 11  1  0  0  0
 11 12  1  0  0  0
 12 13  1  0  0  0
 13 14  1  0  0  0
 14 15  1  0  0  0
 15 16  1  0  0  0
 16 17  1  0  0  0
 17 18  1  0  0  0
 18 19  1  0  0  0
 19 20  1  0  0  0
 20 21  1  0  0  0
 21 22  1  0  0  0
 46 47  1  0  0  0
 47 48  1  0  0  0
 48 49  1  0  0  0
 49 50  1  0  0  0
 50 54  1  0  0  0
M  CHG 1  58  -1
M  END
> <minimizedAffinity>
-9.84367

> <CNNscore>
0.5957319736

> <CNNaffinity>
7.4841375351

> <CNN_VS>
4.4585399628

> <CNNaffinity_variance>
0.9732328653

$$$$
/media/chris/experiments/cd1a-new-docking/inputs/ligands/1onq_ligand.pdb


 62 62  0  0  0  0  0  0  0  0999 V2000
  -38.0613   59.7996   59.6400 C   0  0  0  0  0  0  0  0  0  0  0  0
  -39.4419   59.4657   59.3510 N   0  0  0  0  0  0  0  0  0  0  0  0
  -40.5342   61.3352   60.0287 O   0  0  0  0  0  0  0  0  0  0  0  0
  -40.5333   60.2163   59.5535 C   0  0  0  0  0  0  0  0  0  0  0  0
  -39.5970   58.5770   58.9570 H   0  0  0  0  0  0  0  0  0  0  0  0
  -41.8283   59.5840   59.1374 C   0  0  0  0  0  0  0  0  0  0  0  0
  -41.7849   59.4702   57.6135 C   0  0  0  0  0  0  0  0  0  0  0  0
  -43.0635   58.8099   57.1032 C   0  0  0  0  0  0  0  0  0  0  0  0
  -44.0359   58.3430   58.1590 C   0  0  0  0  0  0  0  0  0  0  0  0
  -45.3726   58.0835   57.4722 C   0  0  0  0  0  0  0  0  0  0  0  0
  -46.4604   57.6167   58.4488 C   0  0  0  0  0  0  0  0  0  0  0  0
  -47.0599   56.2383   58.1155 C   0  0  0  0  0  0  0  0  0  0  0  0
  -48.3428   55.9313   58.9188 C   0  0  0  0  0  0  0  0  0  0  0  0
  -48.6123   57.0331   59.9476 C   0  0  0  0  0  0  0  0  0  0  0  0
  -49.9221   57.7881   59.7559 C   0  0  0  0  0  0  0  0  0  0  0  0
  -50.9879   57.3574   60.7528 C   0  0  0  0  0  0  0  0  0  0  0  0
  -50.7871   57.8283   62.1950 C   0  0  0  0  0  0  0  0  0  0  0  0
  -50.1971   59.2317   62.1594 C   0  0  0  0  0  0  0  0  0  0  0  0
  -49.9711   59.9614   63.4753 C   0  0  0  0  0  0  0  0  0  0  0  0
  -50.8699   59.3892   64.5829 C   0  0  0  0  0  0  0  0  0  0  0  0
  -50.1183   58.6028   65.6726 C   0  0  0  0  0  0  0  0  0  0  0  0
  -48.6626   58.3139   65.3135 C   0  0  0  0  0  0  0  0  0  0  0  0
  -38.2545   58.1747   57.9912 O   0  0  0  0  0  0  0  0  0  0  0  0
  -37.2956   58.7409   58.8651 C   0  0  0  0  0  0  0  0  0  0  0  0
  -38.5888   58.8593   57.3908 H   0  0  0  0  0  0  0  0  0  0  0  0
  -36.7263   57.7099   59.8425 C   0  0  0  0  0  0  0  0  0  0  0  0
  -35.4905   57.1949   59.7255 C   0  0  0  0  0  0  0  0  0  0  0  0
  -34.9951   56.1684   60.7424 C   0  0  0  0  0  0  0  0  0  0  0  0
  -34.0708   56.7558   61.8188 C   0  0  0  0  0  0  0  0  0  0  0  0
  -34.7275   57.7564   62.7877 C   0  0  0  0  0  0  0  0  0  0  0  0
  -35.9910   57.1429   63.4378 C   0  0  0  0  0  0  0  0  0  0  0  0
  -36.6448   57.9997   64.5513 C   0  0  0  0  0  0  0  0  0  0  0  0
  -38.0607   57.5313   64.9620 C   0  0  0  0  0  0  0  0  0  0  0  0
  -39.1238   57.7410   63.8620 C   0  0  0  0  0  0  0  0  0  0  0  0
  -39.9490   59.0216   64.0366 C   0  0  0  0  0  0  0  0  0  0  0  0
  -40.6874   59.1685   65.3654 C   0  0  0  0  0  0  0  0  0  0  0  0
  -42.1642   58.7298   65.3127 C   0  0  0  0  0  0  0  0  0  0  0  0
  -42.5022   57.4697   66.1237 C   0  0  0  0  0  0  0  0  0  0  0  0
  -44.0109   57.2070   66.1281 C   0  0  0  0  0  0  0  0  0  0  0  0
  -44.9004   58.3722   65.7323 C   0  0  0  0  0  0  0  0  0  0  0  0
  -37.7145   59.9596   61.1376 C   0  0  0  0  0  0  0  0  0  0  0  0
  -37.5481   61.3161   61.6231 O   0  0  0  0  0  0  0  0  0  0  0  0
  -35.5878   63.3979   61.6501 O   0  0  0  0  0  0  0  0  0  0  0  0
  -36.8692   63.8375   65.5951 O   0  0  0  0  0  0  0  0  0  0  0  0
  -37.2260   61.2743   64.0272 O   0  0  0  0  0  0  0  0  0  0  0  0
  -36.6417   61.6206   62.7481 C   0  0  0  0  0  0  0  0  0  0  0  0
  -36.1833   63.0810   62.8703 C   0  0  0  0  0  0  0  0  0  0  0  0
  -35.1465   63.3141   63.9910 C   0  0  0  0  0  0  0  0  0  0  0  0
  -35.8222   62.9241   65.2766 C   0  0  0  0  0  0  0  0  0  0  0  0
  -36.3557   61.5072   65.1674 C   0  0  0  0  0  0  0  0  0  0  0  0
  -36.2256   63.2573   60.9329 H   0  0  0  0  0  0  0  0  0  0  0  0
  -36.5069   64.7350   65.6600 H   0  0  0  0  0  0  0  0  0  0  0  0
  -36.2569   62.0119   67.5016 O   0  0  0  0  0  0  0  0  0  0  0  0
  -36.9966   61.3203   66.5408 C   0  0  0  0  0  0  0  0  0  0  0  0
  -36.6659   61.8917   68.3729 H   0  0  0  0  0  0  0  0  0  0  0  0
  -34.7005   64.6776   64.1690 O   0  0  0  0  0  0  0  0  0  0  0  0
  -32.4618   65.1411   62.9482 O   0  0  0  0  0  0  0  0  0  0  0  0
  -32.4401   64.0453   65.1133 O   0  0  0  0  0  0  0  0  0  0  0  0
  -32.8767   66.4241   64.9551 O   0  0  0  0  0  0  0  0  0  0  0  0
  -33.0963   65.1039   64.2990 S   0  0  0  0  0  0  0  0  0  0  0  0
  -32.5948   64.2886   62.5050 H   0  0  0  0  0  0  0  0  0  0  0  0
  -33.3015   67.1207   64.4305 H   0  0  0  0  0  0  0  0  0  0  0  0
  2  1  1  0  0  0
  2  4  1  0  0  0
  2  5  1  0  0  0
 41 42  1  0  0  0
 41  1  1  0  0  0
 42 46  1  0  0  0
  1 24  1  0  0  0
 23 24  1  0  0  0
 23 25  1  0  0  0
 24 26  1  0  0  0
  3  4  2  0  0  0
 26 27  2  0  0  0
 27 28  1  0  0  0
 43 47  1  0  0  0
 43 51  1  0  0  0
 28 29  1  0  0  0
 56 48  1  0  0  0
 56 60  1  0  0  0
 29 30  1  0  0  0
 57 60  1  0  0  0
 57 61  1  0  0  0
 30 31  1  0  0  0
 44 49  1  0  0  0
 44 52  1  0  0  0
 31 32  1  0  0  0
 45 46  1  0  0  0
 45 50  1  0  0  0
 32 33  1  0  0  0
 53 54  1  0  0  0
 53 55  1  0  0  0
 33 34  1  0  0  0
 34 35  1  0  0  0
 35 36  1  0  0  0
 58 60  1  0  0  0
 36 37  1  0  0  0
 59 60  1  0  0  0
 59 62  1  0  0  0
 37 38  1  0  0  0
 38 39  1  0  0  0
 39 40  1  0  0  0
  4  6  1  0  0  0
  6  7  1  0  0  0
  7  8  1  0  0  0
  8  9  1  0  0  0
  9 10  1  0  0  0
 10 11  1  0  0  0
 11 12  1  0  0  0
 12 13  1  0  0  0
 13 14  1  0  0  0
 14 15  1  0  0  0
 15 16  1  0  0  0
 16 17  1  0  0  0
 17 18  1  0  0  0
 18 19  1  0  0  0
 19 20  1  0  0  0
 20 21  1  0  0  0
 21 22  1  0  0  0
 46 47  1  0  0  0
 47 48  1  0  0  0
 48 49  1  0  0  0
 49 50  1  0  0  0
 50 54  1  0  0  0
M  CHG 1  58  -1
M  END
> <minimizedAffinity>
-9.00361

> <CNNscore>
0.5028295517

> <CNNaffinity>
7.3870024681

> <CNN_VS>
3.7144031525

> <CNNaffinity_variance>
0.9222234488

$$$$
/media/chris/experiments/cd1a-new-docking/inputs/ligands/1onq_ligand.pdb


 62 62  0  0  0  0  0  0  0  0999 V2000
  -38.9756   59.3609   63.3795 C   0  0  0  0  0  0  0  0  0  0  0  0
  -40.2872   59.1750   63.9681 N   0  0  0  0  0  0  0  0  0  0  0  0
  -41.1096   61.2895   63.9727 O   0  0  0  0  0  0  0  0  0  0  0  0
  -41.2217   60.1033   64.2141 C   0  0  0  0  0  0  0  0  0  0  0  0
  -40.5204   58.2518   64.2181 H   0  0  0  0  0  0  0  0  0  0  0  0
  -42.4885   59.5857   64.8282 C   0  0  0  0  0  0  0  0  0  0  0  0
  -42.0954   58.3792   65.6806 C   0  0  0  0  0  0  0  0  0  0  0  0
  -43.3434   57.7344   66.2789 C   0  0  0  0  0  0  0  0  0  0  0  0
  -44.4256   58.6823   66.7358 C   0  0  0  0  0  0  0  0  0  0  0  0
  -45.7653   58.0939   66.3060 C   0  0  0  0  0  0  0  0  0  0  0  0
  -45.8238   57.7873   64.8035 C   0  0  0  0  0  0  0  0  0  0  0  0
  -47.0917   58.3066   64.1013 C   0  0  0  0  0  0  0  0  0  0  0  0
  -48.3665   58.1285   64.9550 C   0  0  0  0  0  0  0  0  0  0  0  0
  -49.6212   58.3151   64.0971 C   0  0  0  0  0  0  0  0  0  0  0  0
  -49.4566   57.9527   62.6262 C   0  0  0  0  0  0  0  0  0  0  0  0
  -50.7848   57.9345   61.8839 C   0  0  0  0  0  0  0  0  0  0  0  0
  -50.7407   57.4230   60.4422 C   0  0  0  0  0  0  0  0  0  0  0  0
  -49.6899   56.3240   60.3592 C   0  0  0  0  0  0  0  0  0  0  0  0
  -48.7455   56.3065   59.1664 C   0  0  0  0  0  0  0  0  0  0  0  0
  -47.8553   57.5592   59.1514 C   0  0  0  0  0  0  0  0  0  0  0  0
  -46.9225   57.6652   57.9309 C   0  0  0  0  0  0  0  0  0  0  0  0
  -47.3202   56.7383   56.7845 C   0  0  0  0  0  0  0  0  0  0  0  0
  -37.6111   57.5411   63.8506 O   0  0  0  0  0  0  0  0  0  0  0  0
  -38.6094   57.9549   62.9363 C   0  0  0  0  0  0  0  0  0  0  0  0
  -37.9795   57.5289   64.7479 H   0  0  0  0  0  0  0  0  0  0  0  0
  -38.0915   57.9958   61.4967 C   0  0  0  0  0  0  0  0  0  0  0  0
  -38.3002   59.0372   60.6732 C   0  0  0  0  0  0  0  0  0  0  0  0
  -37.7510   59.0016   59.2483 C   0  0  0  0  0  0  0  0  0  0  0  0
  -37.6464   57.5879   58.6576 C   0  0  0  0  0  0  0  0  0  0  0  0
  -36.4818   57.3601   57.6763 C   0  0  0  0  0  0  0  0  0  0  0  0
  -35.1236   57.6519   58.3585 C   0  0  0  0  0  0  0  0  0  0  0  0
  -34.1552   56.4453   58.4480 C   0  0  0  0  0  0  0  0  0  0  0  0
  -33.9294   55.9196   59.8852 C   0  0  0  0  0  0  0  0  0  0  0  0
  -34.9789   56.4240   60.8992 C   0  0  0  0  0  0  0  0  0  0  0  0
  -34.4128   57.3940   61.9431 C   0  0  0  0  0  0  0  0  0  0  0  0
  -32.9025   57.3372   62.1630 C   0  0  0  0  0  0  0  0  0  0  0  0
  -32.1281   58.4868   61.4887 C   0  0  0  0  0  0  0  0  0  0  0  0
  -32.1041   59.8080   62.2719 C   0  0  0  0  0  0  0  0  0  0  0  0
  -30.9280   60.6856   61.8339 C   0  0  0  0  0  0  0  0  0  0  0  0
  -31.1898   62.1797   61.7637 C   0  0  0  0  0  0  0  0  0  0  0  0
  -37.9495   60.1071   64.2622 C   0  0  0  0  0  0  0  0  0  0  0  0
  -37.1849   61.1586   63.6196 O   0  0  0  0  0  0  0  0  0  0  0  0
  -34.8588   62.1984   62.3215 O   0  0  0  0  0  0  0  0  0  0  0  0
  -35.2637   65.2221   65.1662 O   0  0  0  0  0  0  0  0  0  0  0  0
  -36.4386   62.4573   65.5279 O   0  0  0  0  0  0  0  0  0  0  0  0
  -36.0420   61.7992   64.3003 C   0  0  0  0  0  0  0  0  0  0  0  0
  -35.2709   62.8471   63.4849 C   0  0  0  0  0  0  0  0  0  0  0  0
  -34.0187   63.3945   64.2044 C   0  0  0  0  0  0  0  0  0  0  0  0
  -34.5110   64.0491   65.4656 C   0  0  0  0  0  0  0  0  0  0  0  0
  -35.3427   63.0628   66.2654 C   0  0  0  0  0  0  0  0  0  0  0  0
  -35.6336   61.8473   61.8553 H   0  0  0  0  0  0  0  0  0  0  0  0
  -34.7142   65.8374   64.6558 H   0  0  0  0  0  0  0  0  0  0  0  0
  -34.6363   64.6342   67.9222 O   0  0  0  0  0  0  0  0  0  0  0  0
  -35.7425   63.9132   67.4692 C   0  0  0  0  0  0  0  0  0  0  0  0
  -34.8927   65.1733   68.6868 H   0  0  0  0  0  0  0  0  0  0  0  0
  -33.2695   64.4057   63.4929 O   0  0  0  0  0  0  0  0  0  0  0  0
  -32.2709   66.3427   64.8959 O   0  0  0  0  0  0  0  0  0  0  0  0
  -31.0791   65.5441   62.9386 O   0  0  0  0  0  0  0  0  0  0  0  0
  -31.0882   64.2355   64.9786 O   0  0  0  0  0  0  0  0  0  0  0  0
  -31.9020   65.1299   64.1073 S   0  0  0  0  0  0  0  0  0  0  0  0
  -32.8021   66.9379   64.3440 H   0  0  0  0  0  0  0  0  0  0  0  0
  -31.6173   63.9605   65.7437 H   0  0  0  0  0  0  0  0  0  0  0  0
  2  1  1  0  0  0
  2  4  1  0  0  0
  2  5  1  0  0  0
 41 42  1  0  0  0
 41  1  1  0  0  0
 42 46  1  0  0  0
  1 24  1  0  0  0
 23 24  1  0  0  0
 23 25  1  0  0  0
 24 26  1  0  0  0
  3  4  2  0  0  0
 26 27  2  0  0  0
 27 28  1  0  0  0
 43 47  1  0  0  0
 43 51  1  0  0  0
 28 29  1  0  0  0
 56 48  1  0  0  0
 56 60  1  0  0  0
 29 30  1  0  0  0
 57 60  1  0  0  0
 57 61  1  0  0  0
 30 31  1  0  0  0
 44 49  1  0  0  0
 44 52  1  0  0  0
 31 32  1  0  0  0
 45 46  1  0  0  0
 45 50  1  0  0  0
 32 33  1  0  0  0
 53 54  1  0  0  0
 53 55  1  0  0  0
 33 34  1  0  0  0
 34 35  1  0  0  0
 35 36  1  0  0  0
 58 60  1  0  0  0
 36 37  1  0  0  0
 59 60  1  0  0  0
 59 62  1  0  0  0
 37 38  1  0  0  0
 38 39  1  0  0  0
 39 40  1  0  0  0
  4  6  1  0  0  0
  6  7  1  0  0  0
  7  8  1  0  0  0
  8  9  1  0  0  0
  9 10  1  0  0  0
 10 11  1  0  0  0
 11 12  1  0  0  0
 12 13  1  0  0  0
 13 14  1  0  0  0
 14 15  1  0  0  0
 15 16  1  0  0  0
 16 17  1  0  0  0
 17 18  1  0  0  0
 18 19  1  0  0  0
 19 20  1  0  0  0
 20 21  1  0  0  0
 21 22  1  0  0  0
 46 47  1  0  0  0
 47 48  1  0  0  0
 48 49  1  0  0  0
 49 50  1  0  0  0
 50 54  1  0  0  0
M  CHG 1  58  -1
M  END
> <minimizedAffinity>
-9.21105

> <CNNscore>
0.4998506606

> <CNNaffinity>
7.2627730370

> <CNN_VS>
3.6303019524

> <CNNaffinity_variance>
0.7243006825

$$$$
/media/chris/experiments/cd1a-new-docking/inputs/ligands/1onq_ligand.pdb


 62 62  0  0  0  0  0  0  0  0999 V2000
  -39.7829   59.0547   64.6001 C   0  0  0  0  0  0  0  0  0  0  0  0
  -40.8084   58.3271   65.3214 N   0  0  0  0  0  0  0  0  0  0  0  0
  -41.9663   60.0032   66.3201 O   0  0  0  0  0  0  0  0  0  0  0  0
  -41.7839   58.8225   66.0950 C   0  0  0  0  0  0  0  0  0  0  0  0
  -40.7853   57.3470   65.2316 H   0  0  0  0  0  0  0  0  0  0  0  0
  -42.6992   57.7999   66.7003 C   0  0  0  0  0  0  0  0  0  0  0  0
  -44.1248   58.2887   66.4439 C   0  0  0  0  0  0  0  0  0  0  0  0
  -44.5263   57.9921   65.0010 C   0  0  0  0  0  0  0  0  0  0  0  0
  -46.0075   57.9966   64.7103 C   0  0  0  0  0  0  0  0  0  0  0  0
  -46.7217   57.4634   65.9477 C   0  0  0  0  0  0  0  0  0  0  0  0
  -48.2279   57.2706   65.7261 C   0  0  0  0  0  0  0  0  0  0  0  0
  -49.0551   58.5636   65.8458 C   0  0  0  0  0  0  0  0  0  0  0  0
  -50.4270   58.4659   65.1431 C   0  0  0  0  0  0  0  0  0  0  0  0
  -50.5454   59.5222   64.0407 C   0  0  0  0  0  0  0  0  0  0  0  0
  -51.1776   59.0324   62.7435 C   0  0  0  0  0  0  0  0  0  0  0  0
  -50.1592   58.3954   61.8095 C   0  0  0  0  0  0  0  0  0  0  0  0
  -50.6896   57.2928   60.8901 C   0  0  0  0  0  0  0  0  0  0  0  0
  -50.0723   57.4852   59.5115 C   0  0  0  0  0  0  0  0  0  0  0  0
  -48.9148   56.5878   59.0990 C   0  0  0  0  0  0  0  0  0  0  0  0
  -47.5751   57.3328   59.2094 C   0  0  0  0  0  0  0  0  0  0  0  0
  -46.8786   57.5974   57.8619 C   0  0  0  0  0  0  0  0  0  0  0  0
  -47.4185   56.7350   56.7234 C   0  0  0  0  0  0  0  0  0  0  0  0
  -39.6083   56.7529   64.3413 O   0  0  0  0  0  0  0  0  0  0  0  0
  -39.0984   57.9583   63.8021 C   0  0  0  0  0  0  0  0  0  0  0  0
  -40.5687   56.7201   64.2085 H   0  0  0  0  0  0  0  0  0  0  0  0
  -37.5826   58.0734   63.9793 C   0  0  0  0  0  0  0  0  0  0  0  0
  -36.7053   57.3410   63.2719 C   0  0  0  0  0  0  0  0  0  0  0  0
  -35.2061   57.5137   63.5080 C   0  0  0  0  0  0  0  0  0  0  0  0
  -34.5223   58.4509   62.5018 C   0  0  0  0  0  0  0  0  0  0  0  0
  -33.3755   57.8284   61.6841 C   0  0  0  0  0  0  0  0  0  0  0  0
  -33.6824   56.3499   61.3447 C   0  0  0  0  0  0  0  0  0  0  0  0
  -34.0693   56.0760   59.8693 C   0  0  0  0  0  0  0  0  0  0  0  0
  -35.3307   55.1973   59.6979 C   0  0  0  0  0  0  0  0  0  0  0  0
  -36.6059   56.0044   59.3713 C   0  0  0  0  0  0  0  0  0  0  0  0
  -36.4998   56.8335   58.0858 C   0  0  0  0  0  0  0  0  0  0  0  0
  -36.7084   58.3387   58.2386 C   0  0  0  0  0  0  0  0  0  0  0  0
  -38.0616   58.7223   58.8691 C   0  0  0  0  0  0  0  0  0  0  0  0
  -38.0106   59.0788   60.3625 C   0  0  0  0  0  0  0  0  0  0  0  0
  -39.0790   60.1171   60.7168 C   0  0  0  0  0  0  0  0  0  0  0  0
  -40.2532   60.2310   59.7607 C   0  0  0  0  0  0  0  0  0  0  0  0
  -38.8777   59.9617   65.4643 C   0  0  0  0  0  0  0  0  0  0  0  0
  -38.3931   61.1776   64.8398 O   0  0  0  0  0  0  0  0  0  0  0  0
  -36.4800   61.3439   62.7209 O   0  0  0  0  0  0  0  0  0  0  0  0
  -35.3276   64.8091   64.7367 O   0  0  0  0  0  0  0  0  0  0  0  0
  -36.8197   62.5454   66.0803 O   0  0  0  0  0  0  0  0  0  0  0  0
  -36.9886   61.6077   64.9896 C   0  0  0  0  0  0  0  0  0  0  0  0
  -36.3485   62.2657   63.7587 C   0  0  0  0  0  0  0  0  0  0  0  0
  -34.8480   62.5856   63.9361 C   0  0  0  0  0  0  0  0  0  0  0  0
  -34.7569   63.5504   65.0860 C   0  0  0  0  0  0  0  0  0  0  0  0
  -35.4463   62.9639   66.3046 C   0  0  0  0  0  0  0  0  0  0  0  0
  -37.4179   61.1307   62.5948 H   0  0  0  0  0  0  0  0  0  0  0  0
  -34.8731   65.1651   63.9572 H   0  0  0  0  0  0  0  0  0  0  0  0
  -33.9867   64.6495   67.1658 O   0  0  0  0  0  0  0  0  0  0  0  0
  -35.2515   64.0812   67.3273 C   0  0  0  0  0  0  0  0  0  0  0  0
  -33.8654   65.3587   67.8164 H   0  0  0  0  0  0  0  0  0  0  0  0
  -34.2006   63.2321   62.8169 O   0  0  0  0  0  0  0  0  0  0  0  0
  -32.2361   63.8027   61.2255 O   0  0  0  0  0  0  0  0  0  0  0  0
  -32.4018   61.5741   62.1715 O   0  0  0  0  0  0  0  0  0  0  0  0
  -31.6660   63.4302   63.5455 O   0  0  0  0  0  0  0  0  0  0  0  0
  -32.5902   63.0239   62.4490 S   0  0  0  0  0  0  0  0  0  0  0  0
  -32.8284   63.5513   60.4996 H   0  0  0  0  0  0  0  0  0  0  0  0
  -31.7822   64.3748   63.7330 H   0  0  0  0  0  0  0  0  0  0  0  0
  2  1  1  0  0  0
  2  4  1  0  0  0
  2  5  1  0  0  0
 41 42  1  0  0  0
 41  1  1  0  0  0
 42 46  1  0  0  0
  1 24  1  0  0  0
 23 24  1  0  0  0
 23 25  1  0  0  0
 24 26  1  0  0  0
  3  4  2  0  0  0
 26 27  2  0  0  0
 27 28  1  0  0  0
 43 47  1  0  0  0
 43 51  1  0  0  0
 28 29  1  0  0  0
 56 48  1  0  0  0
 56 60  1  0  0  0
 29 30  1  0  0  0
 57 60  1  0  0  0
 57 61  1  0  0  0
 30 31  1  0  0  0
 44 49  1  0  0  0
 44 52  1  0  0  0
 31 32  1  0  0  0
 45 46  1  0  0  0
 45 50  1  0  0  0
 32 33  1  0  0  0
 53 54  1  0  0  0
 53 55  1  0  0  0
 33 34  1  0  0  0
 34 35  1  0  0  0
 35 36  1  0  0  0
 58 60  1  0  0  0
 36 37  1  0  0  0
 59 60  1  0  0  0
 59 62  1  0  0  0
 37 38  1  0  0  0
 38 39  1  0  0  0
 39 40  1  0  0  0
  4  6  1  0  0  0
  6  7  1  0  0  0
  7  8  1  0  0  0
  8  9  1  0  0  0
  9 10  1  0  0  0
 10 11  1  0  0  0
 11 12  1  0  0  0
 12 13  1  0  0  0
 13 14  1  0  0  0
 14 15  1  0  0  0
 15 16  1  0  0  0
 16 17  1  0  0  0
 17 18  1  0  0  0
 18 19  1  0  0  0
 19 20  1  0  0  0
 20 21  1  0  0  0
 21 22  1  0  0  0
 46 47  1  0  0  0
 47 48  1  0  0  0
 48 49  1  0  0  0
 49 50  1  0  0  0
 50 54  1  0  0  0
M  CHG 1  58  -1
M  END
> <minimizedAffinity>
-9.85693

> <CNNscore>
0.4810981750

> <CNNaffinity>
7.4999666214

> <CNN_VS>
3.6082203388

> <CNNaffinity_variance>
0.9580397606

$$$$
/media/chris/experiments/cd1a-new-docking/inputs/ligands/1onq_ligand.pdb


 62 62  0  0  0  0  0  0  0  0999 V2000
  -38.2363   59.1239   64.3016 C   0  0  0  0  0  0  0  0  0  0  0  0
  -39.3865   58.9721   65.1706 N   0  0  0  0  0  0  0  0  0  0  0  0
  -40.4821   60.9335   64.8549 O   0  0  0  0  0  0  0  0  0  0  0  0
  -40.3840   59.8418   65.3806 C   0  0  0  0  0  0  0  0  0  0  0  0
  -39.4416   58.1246   65.6685 H   0  0  0  0  0  0  0  0  0  0  0  0
  -41.4400   59.3813   66.3411 C   0  0  0  0  0  0  0  0  0  0  0  0
  -42.7225   59.2118   65.5266 C   0  0  0  0  0  0  0  0  0  0  0  0
  -43.8465   58.6997   66.4240 C   0  0  0  0  0  0  0  0  0  0  0  0
  -44.6127   57.5046   65.9109 C   0  0  0  0  0  0  0  0  0  0  0  0
  -45.7113   58.0226   64.9887 C   0  0  0  0  0  0  0  0  0  0  0  0
  -46.8307   58.7471   65.7484 C   0  0  0  0  0  0  0  0  0  0  0  0
  -48.0185   59.1749   64.8672 C   0  0  0  0  0  0  0  0  0  0  0  0
  -49.3648   58.5917   65.3497 C   0  0  0  0  0  0  0  0  0  0  0  0
  -50.4027   58.6266   64.2243 C   0  0  0  0  0  0  0  0  0  0  0  0
  -49.8715   58.2549   62.8453 C   0  0  0  0  0  0  0  0  0  0  0  0
  -50.9892   57.9496   61.8591 C   0  0  0  0  0  0  0  0  0  0  0  0
  -50.5858   57.1619   60.6104 C   0  0  0  0  0  0  0  0  0  0  0  0
  -49.0972   57.3769   60.3727 C   0  0  0  0  0  0  0  0  0  0  0  0
  -48.3973   56.5314   59.3190 C   0  0  0  0  0  0  0  0  0  0  0  0
  -47.5608   57.4103   58.3755 C   0  0  0  0  0  0  0  0  0  0  0  0
  -47.2053   56.7466   57.0323 C   0  0  0  0  0  0  0  0  0  0  0  0
  -47.4967   55.2480   57.0033 C   0  0  0  0  0  0  0  0  0  0  0  0
  -37.0919   57.6005   62.9729 O   0  0  0  0  0  0  0  0  0  0  0  0
  -38.4113   57.9796   63.3180 C   0  0  0  0  0  0  0  0  0  0  0  0
  -36.6246   57.2969   63.7670 H   0  0  0  0  0  0  0  0  0  0  0  0
  -39.2061   58.4703   62.1056 C   0  0  0  0  0  0  0  0  0  0  0  0
  -39.3630   59.7723   61.8115 C   0  0  0  0  0  0  0  0  0  0  0  0
  -40.1724   60.1820   60.5826 C   0  0  0  0  0  0  0  0  0  0  0  0
  -39.4864   59.8531   59.2486 C   0  0  0  0  0  0  0  0  0  0  0  0
  -38.0077   59.4346   59.3448 C   0  0  0  0  0  0  0  0  0  0  0  0
  -37.6910   58.3012   58.3397 C   0  0  0  0  0  0  0  0  0  0  0  0
  -36.2261   58.2529   57.8365 C   0  0  0  0  0  0  0  0  0  0  0  0
  -35.5957   56.8405   57.8562 C   0  0  0  0  0  0  0  0  0  0  0  0
  -36.3865   55.8231   58.7069 C   0  0  0  0  0  0  0  0  0  0  0  0
  -35.5230   55.0607   59.7190 C   0  0  0  0  0  0  0  0  0  0  0  0
  -34.1893   55.7081   60.0859 C   0  0  0  0  0  0  0  0  0  0  0  0
  -34.1534   56.3059   61.5063 C   0  0  0  0  0  0  0  0  0  0  0  0
  -33.7917   57.7970   61.5801 C   0  0  0  0  0  0  0  0  0  0  0  0
  -32.4774   58.0071   62.3375 C   0  0  0  0  0  0  0  0  0  0  0  0
  -31.6295   59.1897   61.9034 C   0  0  0  0  0  0  0  0  0  0  0  0
  -36.8705   59.2299   65.0174 C   0  0  0  0  0  0  0  0  0  0  0  0
  -35.7317   59.5834   64.1919 O   0  0  0  0  0  0  0  0  0  0  0  0
  -36.6148   61.8588   65.6818 O   0  0  0  0  0  0  0  0  0  0  0  0
  -32.7924   63.2708   64.7905 O   0  0  0  0  0  0  0  0  0  0  0  0
  -34.1762   61.1316   63.1582 O   0  0  0  0  0  0  0  0  0  0  0  0
  -35.4378   60.9906   63.8553 C   0  0  0  0  0  0  0  0  0  0  0  0
  -35.3841   61.9707   65.0362 C   0  0  0  0  0  0  0  0  0  0  0  0
  -35.1911   63.4431   64.6119 C   0  0  0  0  0  0  0  0  0  0  0  0
  -33.8730   63.5034   63.8904 C   0  0  0  0  0  0  0  0  0  0  0  0
  -33.8604   62.4924   62.7581 C   0  0  0  0  0  0  0  0  0  0  0  0
  -36.7535   60.9387   65.9560 H   0  0  0  0  0  0  0  0  0  0  0  0
  -32.8195   63.9267   65.5047 H   0  0  0  0  0  0  0  0  0  0  0  0
  -32.3814   63.9802   61.6126 O   0  0  0  0  0  0  0  0  0  0  0  0
  -32.4638   62.7069   62.1789 C   0  0  0  0  0  0  0  0  0  0  0  0
  -31.4936   64.1140   61.2454 H   0  0  0  0  0  0  0  0  0  0  0  0
  -35.1055   64.4067   65.6861 O   0  0  0  0  0  0  0  0  0  0  0  0
  -34.1604   62.7631   67.4533 O   0  0  0  0  0  0  0  0  0  0  0  0
  -36.4001   63.6567   67.7264 O   0  0  0  0  0  0  0  0  0  0  0  0
  -34.4684   65.0515   68.1706 O   0  0  0  0  0  0  0  0  0  0  0  0
  -35.0135   63.9778   67.2923 S   0  0  0  0  0  0  0  0  0  0  0  0
  -34.5005   62.0521   66.8879 H   0  0  0  0  0  0  0  0  0  0  0  0
  -33.5639   65.2672   67.8945 H   0  0  0  0  0  0  0  0  0  0  0  0
  2  1  1  0  0  0
  2  4  1  0  0  0
  2  5  1  0  0  0
 41 42  1  0  0  0
 41  1  1  0  0  0
 42 46  1  0  0  0
  1 24  1  0  0  0
 23 24  1  0  0  0
 23 25  1  0  0  0
 24 26  1  0  0  0
  3  4  2  0  0  0
 26 27  2  0  0  0
 27 28  1  0  0  0
 43 47  1  0  0  0
 43 51  1  0  0  0
 28 29  1  0  0  0
 56 48  1  0  0  0
 56 60  1  0  0  0
 29 30  1  0  0  0
 57 60  1  0  0  0
 57 61  1  0  0  0
 30 31  1  0  0  0
 44 49  1  0  0  0
 44 52  1  0  0  0
 31 32  1  0  0  0
 45 46  1  0  0  0
 45 50  1  0  0  0
 32 33  1  0  0  0
 53 54  1  0  0  0
 53 55  1  0  0  0
 33 34  1  0  0  0
 34 35  1  0  0  0
 35 36  1  0  0  0
 58 60  1  0  0  0
 36 37  1  0  0  0
 59 60  1  0  0  0
 59 62  1  0  0  0
 37 38  1  0  0  0
 38 39  1  0  0  0
 39 40  1  0  0  0
  4  6  1  0  0  0
  6  7  1  0  0  0
  7  8  1  0  0  0
  8  9  1  0  0  0
  9 10  1  0  0  0
 10 11  1  0  0  0
 11 12  1  0  0  0
 12 13  1  0  0  0
 13 14  1  0  0  0
 14 15  1  0  0  0
 15 16  1  0  0  0
 16 17  1  0  0  0
 17 18  1  0  0  0
 18 19  1  0  0  0
 19 20  1  0  0  0
 20 21  1  0  0  0
 21 22  1  0  0  0
 46 47  1  0  0  0
 47 48  1  0  0  0
 48 49  1  0  0  0
 49 50  1  0  0  0
 50 54  1  0  0  0
M  CHG 1  58  -1
M  END
> <minimizedAffinity>
-9.66118

> <CNNscore>
0.4112565815

> <CNNaffinity>
7.3192548752

> <CNN_VS>
3.0100917816

> <CNNaffinity_variance>
1.0444638729

$$$$
/media/chris/experiments/cd1a-new-docking/inputs/ligands/1onq_ligand.pdb


 62 62  0  0  0  0  0  0  0  0999 V2000
  -40.1692   59.1115   65.1038 C   0  0  0  0  0  0  0  0  0  0  0  0
  -39.7271   58.3454   63.9554 N   0  0  0  0  0  0  0  0  0  0  0  0
  -37.7320   57.5325   64.6667 O   0  0  0  0  0  0  0  0  0  0  0  0
  -38.5953   57.6414   63.8178 C   0  0  0  0  0  0  0  0  0  0  0  0
  -40.3338   58.3419   63.1802 H   0  0  0  0  0  0  0  0  0  0  0  0
  -38.4329   56.9466   62.4984 C   0  0  0  0  0  0  0  0  0  0  0  0
  -37.0374   57.3062   61.9882 C   0  0  0  0  0  0  0  0  0  0  0  0
  -37.1183   58.5101   61.0527 C   0  0  0  0  0  0  0  0  0  0  0  0
  -38.4970   58.8738   60.5574 C   0  0  0  0  0  0  0  0  0  0  0  0
  -38.3707   59.2662   59.0891 C   0  0  0  0  0  0  0  0  0  0  0  0
  -37.1247   58.6696   58.4209 C   0  0  0  0  0  0  0  0  0  0  0  0
  -37.3816   57.3523   57.6664 C   0  0  0  0  0  0  0  0  0  0  0  0
  -36.2453   56.3227   57.8520 C   0  0  0  0  0  0  0  0  0  0  0  0
  -34.8809   57.0180   57.8497 C   0  0  0  0  0  0  0  0  0  0  0  0
  -33.7925   56.3052   58.6430 C   0  0  0  0  0  0  0  0  0  0  0  0
  -34.3271   55.6785   59.9223 C   0  0  0  0  0  0  0  0  0  0  0  0
  -33.6302   56.1000   61.2181 C   0  0  0  0  0  0  0  0  0  0  0  0
  -33.4273   57.6087   61.1800 C   0  0  0  0  0  0  0  0  0  0  0  0
  -32.4658   58.2406   62.1756 C   0  0  0  0  0  0  0  0  0  0  0  0
  -33.1136   59.4447   62.8774 C   0  0  0  0  0  0  0  0  0  0  0  0
  -34.4256   59.1230   63.6164 C   0  0  0  0  0  0  0  0  0  0  0  0
  -34.2529   58.0990   64.7358 C   0  0  0  0  0  0  0  0  0  0  0  0
  -41.4187   60.9865   64.5388 O   0  0  0  0  0  0  0  0  0  0  0  0
  -41.5482   59.5835   64.6757 C   0  0  0  0  0  0  0  0  0  0  0  0
  -40.7636   61.1852   63.8516 H   0  0  0  0  0  0  0  0  0  0  0  0
  -42.5706   59.2007   65.7483 C   0  0  0  0  0  0  0  0  0  0  0  0
  -43.8260   58.8178   65.4592 C   0  0  0  0  0  0  0  0  0  0  0  0
  -44.7882   58.4520   66.5877 C   0  0  0  0  0  0  0  0  0  0  0  0
  -46.2152   58.9817   66.3841 C   0  0  0  0  0  0  0  0  0  0  0  0
  -46.4268   59.8664   65.1417 C   0  0  0  0  0  0  0  0  0  0  0  0
  -47.9355   60.0779   64.8684 C   0  0  0  0  0  0  0  0  0  0  0  0
  -48.6897   58.8382   64.3244 C   0  0  0  0  0  0  0  0  0  0  0  0
  -50.1758   58.7649   64.7475 C   0  0  0  0  0  0  0  0  0  0  0  0
  -51.1474   59.3341   63.6910 C   0  0  0  0  0  0  0  0  0  0  0  0
  -50.6586   59.1651   62.2476 C   0  0  0  0  0  0  0  0  0  0  0  0
  -50.9270   57.8070   61.6025 C   0  0  0  0  0  0  0  0  0  0  0  0
  -49.6672   57.1236   61.0351 C   0  0  0  0  0  0  0  0  0  0  0  0
  -48.8870   57.9457   59.9982 C   0  0  0  0  0  0  0  0  0  0  0  0
  -47.5943   57.2328   59.5910 C   0  0  0  0  0  0  0  0  0  0  0  0
  -46.9236   57.7244   58.3204 C   0  0  0  0  0  0  0  0  0  0  0  0
  -39.1828   60.1914   65.6034 C   0  0  0  0  0  0  0  0  0  0  0  0
  -38.5391   61.0014   64.5871 O   0  0  0  0  0  0  0  0  0  0  0  0
  -36.7687   61.6434   62.4352 O   0  0  0  0  0  0  0  0  0  0  0  0
  -35.5836   64.6997   65.0146 O   0  0  0  0  0  0  0  0  0  0  0  0
  -36.9272   62.1653   65.9774 O   0  0  0  0  0  0  0  0  0  0  0  0
  -37.1398   61.4481   64.7373 C   0  0  0  0  0  0  0  0  0  0  0  0
  -36.5964   62.3537   63.6226 C   0  0  0  0  0  0  0  0  0  0  0  0
  -35.0967   62.6907   63.7729 C   0  0  0  0  0  0  0  0  0  0  0  0
  -34.9588   63.4202   65.0807 C   0  0  0  0  0  0  0  0  0  0  0  0
  -35.5541   62.5853   66.2000 C   0  0  0  0  0  0  0  0  0  0  0  0
  -37.7066   61.4226   62.3237 H   0  0  0  0  0  0  0  0  0  0  0  0
  -35.1888   65.2155   64.2941 H   0  0  0  0  0  0  0  0  0  0  0  0
  -36.5344   64.0705   67.7957 O   0  0  0  0  0  0  0  0  0  0  0  0
  -35.3247   63.4926   67.4067 C   0  0  0  0  0  0  0  0  0  0  0  0
  -36.3861   64.6463   68.5621 H   0  0  0  0  0  0  0  0  0  0  0  0
  -34.5386   63.5638   62.7650 O   0  0  0  0  0  0  0  0  0  0  0  0
  -32.4863   63.7023   61.1881 O   0  0  0  0  0  0  0  0  0  0  0  0
  -32.2123   62.8293   63.4358 O   0  0  0  0  0  0  0  0  0  0  0  0
  -32.4926   65.2101   63.0783 O   0  0  0  0  0  0  0  0  0  0  0  0
  -32.9066   63.8562   62.6124 S   0  0  0  0  0  0  0  0  0  0  0  0
  -32.7480   62.8252   60.8669 H   0  0  0  0  0  0  0  0  0  0  0  0
  -32.9408   65.8862   62.5465 H   0  0  0  0  0  0  0  0  0  0  0  0
  2  1  1  0  0  0
  2  4  1  0  0  0
  2  5  1  0  0  0
 41 42  1  0  0  0
 41  1  1  0  0  0
 42 46  1  0  0  0
  1 24  1  0  0  0
 23 24  1  0  0  0
 23 25  1  0  0  0
 24 26  1  0  0  0
  3  4  2  0  0  0
 26 27  2  0  0  0
 27 28  1  0  0  0
 43 47  1  0  0  0
 43 51  1  0  0  0
 28 29  1  0  0  0
 56 48  1  0  0  0
 56 60  1  0  0  0
 29 30  1  0  0  0
 57 60  1  0  0  0
 57 61  1  0  0  0
 30 31  1  0  0  0
 44 49  1  0  0  0
 44 52  1  0  0  0
 31 32  1  0  0  0
 45 46  1  0  0  0
 45 50  1  0  0  0
 32 33  1  0  0  0
 53 54  1  0  0  0
 53 55  1  0  0  0
 33 34  1  0  0  0
 34 35  1  0  0  0
 35 36  1  0  0  0
 58 60  1  0  0  0
 36 37  1  0  0  0
 59 60  1  0  0  0
 59 62  1  0  0  0
 37 38  1  0  0  0
 38 39  1  0  0  0
 39 40  1  0  0  0
  4  6  1  0  0  0
  6  7  1  0  0  0
  7  8  1  0  0  0
  8  9  1  0  0  0
  9 10  1  0  0  0
 10 11  1  0  0  0
 11 12  1  0  0  0
 12 13  1  0  0  0
 13 14  1  0  0  0
 14 15  1  0  0  0
 15 16  1  0  0  0
 16 17  1  0  0  0
 17 18  1  0  0  0
 18 19  1  0  0  0
 19 20  1  0  0  0
 20 21  1  0  0  0
 21 22  1  0  0  0
 46 47  1  0  0  0
 47 48  1  0  0  0
 48 49  1  0  0  0
 49 50  1  0  0  0
 50 54  1  0  0  0
M  CHG 1  58  -1
M  END
> <minimizedAffinity>
-9.76652

> <CNNscore>
0.3092996180

> <CNNaffinity>
7.2088408470

> <CNN_VS>
2.2296917439

> <CNNaffinity_variance>
1.1682831049

$$$$
/media/chris/experiments/cd1a-new-docking/inputs/ligands/1onq_ligand.pdb


 62 62  0  0  0  0  0  0  0  0999 V2000
  -40.1592   58.9441   64.8122 C   0  0  0  0  0  0  0  0  0  0  0  0
  -41.1662   58.3925   65.6969 N   0  0  0  0  0  0  0  0  0  0  0  0
  -43.0535   59.4174   64.9654 O   0  0  0  0  0  0  0  0  0  0  0  0
  -42.4808   58.6512   65.7157 C   0  0  0  0  0  0  0  0  0  0  0  0
  -40.8442   57.7476   66.3674 H   0  0  0  0  0  0  0  0  0  0  0  0
  -43.2626   57.9062   66.7567 C   0  0  0  0  0  0  0  0  0  0  0  0
  -44.1629   56.9266   66.0039 C   0  0  0  0  0  0  0  0  0  0  0  0
  -45.6148   57.1136   66.4376 C   0  0  0  0  0  0  0  0  0  0  0  0
  -46.0192   58.5185   66.8133 C   0  0  0  0  0  0  0  0  0  0  0  0
  -46.6022   59.1789   65.5684 C   0  0  0  0  0  0  0  0  0  0  0  0
  -48.1268   59.3377   65.6401 C   0  0  0  0  0  0  0  0  0  0  0  0
  -48.9049   58.0114   65.5617 C   0  0  0  0  0  0  0  0  0  0  0  0
  -50.4344   58.2157   65.4949 C   0  0  0  0  0  0  0  0  0  0  0  0
  -50.7840   59.3734   64.5555 C   0  0  0  0  0  0  0  0  0  0  0  0
  -51.0931   58.9680   63.1195 C   0  0  0  0  0  0  0  0  0  0  0  0
  -49.9729   59.3423   62.1601 C   0  0  0  0  0  0  0  0  0  0  0  0
  -48.9505   58.2435   61.8609 C   0  0  0  0  0  0  0  0  0  0  0  0
  -49.5658   57.2832   60.8518 C   0  0  0  0  0  0  0  0  0  0  0  0
  -49.0912   57.3405   59.4073 C   0  0  0  0  0  0  0  0  0  0  0  0
  -47.5581   57.2649   59.3288 C   0  0  0  0  0  0  0  0  0  0  0  0
  -46.9667   57.6869   57.9712 C   0  0  0  0  0  0  0  0  0  0  0  0
  -47.3510   56.7507   56.8278 C   0  0  0  0  0  0  0  0  0  0  0  0
  -38.1914   57.8109   65.3019 O   0  0  0  0  0  0  0  0  0  0  0  0
  -39.3253   57.7245   64.4589 C   0  0  0  0  0  0  0  0  0  0  0  0
  -38.4742   57.7716   66.2290 H   0  0  0  0  0  0  0  0  0  0  0  0
  -38.9475   57.7808   62.9768 C   0  0  0  0  0  0  0  0  0  0  0  0
  -38.0190   56.9794   62.4272 C   0  0  0  0  0  0  0  0  0  0  0  0
  -37.6975   57.0977   60.9387 C   0  0  0  0  0  0  0  0  0  0  0  0
  -37.3932   58.5315   60.4805 C   0  0  0  0  0  0  0  0  0  0  0  0
  -38.1223   58.9926   59.2050 C   0  0  0  0  0  0  0  0  0  0  0  0
  -37.6485   58.1788   57.9768 C   0  0  0  0  0  0  0  0  0  0  0  0
  -36.1123   58.0952   57.7907 C   0  0  0  0  0  0  0  0  0  0  0  0
  -35.5429   56.6587   57.8611 C   0  0  0  0  0  0  0  0  0  0  0  0
  -34.0330   56.6080   58.1806 C   0  0  0  0  0  0  0  0  0  0  0  0
  -33.6845   55.7145   59.3770 C   0  0  0  0  0  0  0  0  0  0  0  0
  -34.3273   56.0953   60.7091 C   0  0  0  0  0  0  0  0  0  0  0  0
  -33.3341   56.6570   61.7455 C   0  0  0  0  0  0  0  0  0  0  0  0
  -33.3473   58.1848   61.9041 C   0  0  0  0  0  0  0  0  0  0  0  0
  -34.4421   58.6270   62.8793 C   0  0  0  0  0  0  0  0  0  0  0  0
  -34.7726   57.6634   64.0054 C   0  0  0  0  0  0  0  0  0  0  0  0
  -39.4018   60.1781   65.3529 C   0  0  0  0  0  0  0  0  0  0  0  0
  -38.6979   60.9862   64.3757 O   0  0  0  0  0  0  0  0  0  0  0  0
  -36.6916   61.1950   62.3488 O   0  0  0  0  0  0  0  0  0  0  0  0
  -35.6308   64.6160   64.4866 O   0  0  0  0  0  0  0  0  0  0  0  0
  -37.1817   62.3261   65.7140 O   0  0  0  0  0  0  0  0  0  0  0  0
  -37.3016   61.4116   64.5974 C   0  0  0  0  0  0  0  0  0  0  0  0
  -36.6069   62.0947   63.4106 C   0  0  0  0  0  0  0  0  0  0  0  0
  -35.1158   62.4093   63.6619 C   0  0  0  0  0  0  0  0  0  0  0  0
  -35.0764   63.3497   64.8347 C   0  0  0  0  0  0  0  0  0  0  0  0
  -35.8198   62.7385   66.0085 C   0  0  0  0  0  0  0  0  0  0  0  0
  -37.6229   60.9854   62.1763 H   0  0  0  0  0  0  0  0  0  0  0  0
  -35.1417   64.9878   63.7359 H   0  0  0  0  0  0  0  0  0  0  0  0
  -36.4708   63.5343   68.1664 O   0  0  0  0  0  0  0  0  0  0  0  0
  -35.6711   63.8339   67.0621 C   0  0  0  0  0  0  0  0  0  0  0  0
  -36.3746   64.2314   68.8340 H   0  0  0  0  0  0  0  0  0  0  0  0
  -34.4188   63.0785   62.5866 O   0  0  0  0  0  0  0  0  0  0  0  0
  -32.3580   63.8125   61.1966 O   0  0  0  0  0  0  0  0  0  0  0  0
  -32.4279   61.5805   62.1466 O   0  0  0  0  0  0  0  0  0  0  0  0
  -31.9983   63.4970   63.5667 O   0  0  0  0  0  0  0  0  0  0  0  0
  -32.7673   63.0093   62.3867 S   0  0  0  0  0  0  0  0  0  0  0  0
  -32.8492   63.5088   60.4173 H   0  0  0  0  0  0  0  0  0  0  0  0
  -32.2136   64.4286   63.7305 H   0  0  0  0  0  0  0  0  0  0  0  0
  2  1  1  0  0  0
  2  4  1  0  0  0
  2  5  1  0  0  0
 41 42  1  0  0  0
 41  1  1  0  0  0
 42 46  1  0  0  0
  1 24  1  0  0  0
 23 24  1  0  0  0
 23 25  1  0  0  0
 24 26  1  0  0  0
  3  4  2  0  0  0
 26 27  2  0  0  0
 27 28  1  0  0  0
 43 47  1  0  0  0
 43 51  1  0  0  0
 28 29  1  0  0  0
 56 48  1  0  0  0
 56 60  1  0  0  0
 29 30  1  0  0  0
 57 60  1  0  0  0
 57 61  1  0  0  0
 30 31  1  0  0  0
 44 49  1  0  0  0
 44 52  1  0  0  0
 31 32  1  0  0  0
 45 46  1  0  0  0
 45 50  1  0  0  0
 32 33  1  0  0  0
 53 54  1  0  0  0
 53 55  1  0  0  0
 33 34  1  0  0  0
 34 35  1  0  0  0
 35 36  1  0  0  0
 58 60  1  0  0  0
 36 37  1  0  0  0
 59 60  1  0  0  0
 59 62  1  0  0  0
 37 38  1  0  0  0
 38 39  1  0  0  0
 39 40  1  0  0  0
  4  6  1  0  0  0
  6  7  1  0  0  0
  7  8  1  0  0  0
  8  9  1  0  0  0
  9 10  1  0  0  0
 10 11  1  0  0  0
 11 12  1  0  0  0
 12 13  1  0  0  0
 13 14  1  0  0  0
 14 15  1  0  0  0
 15 16  1  0  0  0
 16 17  1  0  0  0
 17 18  1  0  0  0
 18 19  1  0  0  0
 19 20  1  0  0  0
 20 21  1  0  0  0
 21 22  1  0  0  0
 46 47  1  0  0  0
 47 48  1  0  0  0
 48 49  1  0  0  0
 49 50  1  0  0  0
 50 54  1  0  0  0
M  CHG 1  58  -1
M  END
> <minimizedAffinity>
-10.27790

> <CNNscore>
0.3052518666

> <CNNaffinity>
7.1004781723

> <CNN_VS>
2.1674342155

> <CNNaffinity_variance>
1.2404923439

$$$$
/media/chris/experiments/cd1a-new-docking/inputs/ligands/1onq_ligand.pdb


 62 62  0  0  0  0  0  0  0  0999 V2000
  -40.1197   59.3197   64.4259 C   0  0  0  0  0  0  0  0  0  0  0  0
  -40.1290   59.3308   62.9764 N   0  0  0  0  0  0  0  0  0  0  0  0
  -40.6846   61.4830   62.5217 O   0  0  0  0  0  0  0  0  0  0  0  0
  -40.3970   60.3586   62.1596 C   0  0  0  0  0  0  0  0  0  0  0  0
  -39.9114   58.4769   62.5376 H   0  0  0  0  0  0  0  0  0  0  0  0
  -40.3145   60.0473   60.6946 C   0  0  0  0  0  0  0  0  0  0  0  0
  -38.8289   60.0505   60.3341 C   0  0  0  0  0  0  0  0  0  0  0  0
  -38.5812   59.1384   59.1349 C   0  0  0  0  0  0  0  0  0  0  0  0
  -37.1415   58.7748   58.8643 C   0  0  0  0  0  0  0  0  0  0  0  0
  -37.1356   57.6549   57.8292 C   0  0  0  0  0  0  0  0  0  0  0  0
  -36.2064   56.4960   58.2145 C   0  0  0  0  0  0  0  0  0  0  0  0
  -34.7071   56.8083   58.0558 C   0  0  0  0  0  0  0  0  0  0  0  0
  -33.8183   55.9902   59.0182 C   0  0  0  0  0  0  0  0  0  0  0  0
  -34.4319   55.9540   60.4207 C   0  0  0  0  0  0  0  0  0  0  0  0
  -33.5251   56.4626   61.5348 C   0  0  0  0  0  0  0  0  0  0  0  0
  -33.2164   57.9461   61.3960 C   0  0  0  0  0  0  0  0  0  0  0  0
  -33.1641   58.7454   62.7000 C   0  0  0  0  0  0  0  0  0  0  0  0
  -33.8028   57.9061   63.7984 C   0  0  0  0  0  0  0  0  0  0  0  0
  -35.1364   58.3553   64.3771 C   0  0  0  0  0  0  0  0  0  0  0  0
  -36.2810   57.4568   63.8824 C   0  0  0  0  0  0  0  0  0  0  0  0
  -36.8050   57.8059   62.4772 C   0  0  0  0  0  0  0  0  0  0  0  0
  -37.8623   56.8294   61.9671 C   0  0  0  0  0  0  0  0  0  0  0  0
  -41.0386   60.8426   65.9199 O   0  0  0  0  0  0  0  0  0  0  0  0
  -41.3822   60.0908   64.7709 C   0  0  0  0  0  0  0  0  0  0  0  0
  -40.3168   61.4532   65.7028 H   0  0  0  0  0  0  0  0  0  0  0  0
  -42.5195   59.1042   65.0461 C   0  0  0  0  0  0  0  0  0  0  0  0
  -43.1979   59.0744   66.2059 C   0  0  0  0  0  0  0  0  0  0  0  0
  -44.3206   58.0578   66.4040 C   0  0  0  0  0  0  0  0  0  0  0  0
  -45.7207   58.6843   66.4776 C   0  0  0  0  0  0  0  0  0  0  0  0
  -46.4512   58.8438   65.1315 C   0  0  0  0  0  0  0  0  0  0  0  0
  -47.2773   60.1523   65.1064 C   0  0  0  0  0  0  0  0  0  0  0  0
  -48.6140   60.0763   64.3259 C   0  0  0  0  0  0  0  0  0  0  0  0
  -48.9181   58.6839   63.7247 C   0  0  0  0  0  0  0  0  0  0  0  0
  -50.4270   58.3911   63.5775 C   0  0  0  0  0  0  0  0  0  0  0  0
  -50.9153   58.3800   62.1240 C   0  0  0  0  0  0  0  0  0  0  0  0
  -49.8325   58.2668   61.0529 C   0  0  0  0  0  0  0  0  0  0  0  0
  -50.2879   57.5302   59.7778 C   0  0  0  0  0  0  0  0  0  0  0  0
  -49.1559   56.9458   58.9195 C   0  0  0  0  0  0  0  0  0  0  0  0
  -47.7894   57.4442   59.3984 C   0  0  0  0  0  0  0  0  0  0  0  0
  -46.8192   57.8944   58.3205 C   0  0  0  0  0  0  0  0  0  0  0  0
  -38.8058   59.7949   65.0868 C   0  0  0  0  0  0  0  0  0  0  0  0
  -38.3881   61.1529   64.7958 O   0  0  0  0  0  0  0  0  0  0  0  0
  -36.5539   61.2550   62.6044 O   0  0  0  0  0  0  0  0  0  0  0  0
  -35.2516   64.7152   64.5357 O   0  0  0  0  0  0  0  0  0  0  0  0
  -36.7396   62.4990   65.9603 O   0  0  0  0  0  0  0  0  0  0  0  0
  -36.9700   61.5537   64.8876 C   0  0  0  0  0  0  0  0  0  0  0  0
  -36.3633   62.1846   63.6259 C   0  0  0  0  0  0  0  0  0  0  0  0
  -34.8506   62.4734   63.7429 C   0  0  0  0  0  0  0  0  0  0  0  0
  -34.6951   63.4481   64.8774 C   0  0  0  0  0  0  0  0  0  0  0  0
  -35.3501   62.8897   66.1278 C   0  0  0  0  0  0  0  0  0  0  0  0
  -37.5002   61.0610   62.5162 H   0  0  0  0  0  0  0  0  0  0  0  0
  -34.8195   65.0530   63.7355 H   0  0  0  0  0  0  0  0  0  0  0  0
  -33.7936   64.4978   66.9672 O   0  0  0  0  0  0  0  0  0  0  0  0
  -35.0926   64.0132   67.1296 C   0  0  0  0  0  0  0  0  0  0  0  0
  -33.6325   65.2111   67.6045 H   0  0  0  0  0  0  0  0  0  0  0  0
  -34.2325   63.0938   62.5927 O   0  0  0  0  0  0  0  0  0  0  0  0
  -31.8988   61.9932   62.3473 O   0  0  0  0  0  0  0  0  0  0  0  0
  -32.1404   64.0013   63.6884 O   0  0  0  0  0  0  0  0  0  0  0  0
  -32.1943   64.1371   61.2691 O   0  0  0  0  0  0  0  0  0  0  0  0
  -32.5885   63.3135   62.4472 S   0  0  0  0  0  0  0  0  0  0  0  0
  -32.1438   61.4423   63.1072 H   0  0  0  0  0  0  0  0  0  0  0  0
  -32.4828   63.6957   60.4549 H   0  0  0  0  0  0  0  0  0  0  0  0
  2  1  1  0  0  0
  2  4  1  0  0  0
  2  5  1  0  0  0
 41 42  1  0  0  0
 41  1  1  0  0  0
 42 46  1  0  0  0
  1 24  1  0  0  0
 23 24  1  0  0  0
 23 25  1  0  0  0
 24 26  1  0  0  0
  3  4  2  0  0  0
 26 27  2  0  0  0
 27 28  1  0  0  0
 43 47  1  0  0  0
 43 51  1  0  0  0
 28 29  1  0  0  0
 56 48  1  0  0  0
 56 60  1  0  0  0
 29 30  1  0  0  0
 57 60  1  0  0  0
 57 61  1  0  0  0
 30 31  1  0  0  0
 44 49  1  0  0  0
 44 52  1  0  0  0
 31 32  1  0  0  0
 45 46  1  0  0  0
 45 50  1  0  0  0
 32 33  1  0  0  0
 53 54  1  0  0  0
 53 55  1  0  0  0
 33 34  1  0  0  0
 34 35  1  0  0  0
 35 36  1  0  0  0
 58 60  1  0  0  0
 36 37  1  0  0  0
 59 60  1  0  0  0
 59 62  1  0  0  0
 37 38  1  0  0  0
 38 39  1  0  0  0
 39 40  1  0  0  0
  4  6  1  0  0  0
  6  7  1  0  0  0
  7  8  1  0  0  0
  8  9  1  0  0  0
  9 10  1  0  0  0
 10 11  1  0  0  0
 11 12  1  0  0  0
 12 13  1  0  0  0
 13 14  1  0  0  0
 14 15  1  0  0  0
 15 16  1  0  0  0
 16 17  1  0  0  0
 17 18  1  0  0  0
 18 19  1  0  0  0
 19 20  1  0  0  0
 20 21  1  0  0  0
 21 22  1  0  0  0
 46 47  1  0  0  0
 47 48  1  0  0  0
 48 49  1  0  0  0
 49 50  1  0  0  0
 50 54  1  0  0  0
M  CHG 1  58  -1
M  END
> <minimizedAffinity>
-9.59900

> <CNNscore>
0.2885921597

> <CNNaffinity>
7.3146409988

> <CNN_VS>
2.1109480858

> <CNNaffinity_variance>
1.3866047859

$$$$
/media/chris/experiments/cd1a-new-docking/inputs/ligands/1onq_ligand.pdb


 62 62  0  0  0  0  0  0  0  0999 V2000
  -38.1564   59.1832   59.4173 C   0  0  0  0  0  0  0  0  0  0  0  0
  -39.2133   59.0103   58.4404 N   0  0  0  0  0  0  0  0  0  0  0  0
  -40.9146   60.1905   59.3678 O   0  0  0  0  0  0  0  0  0  0  0  0
  -40.4601   59.4998   58.4766 C   0  0  0  0  0  0  0  0  0  0  0  0
  -38.9868   58.4655   57.6524 H   0  0  0  0  0  0  0  0  0  0  0  0
  -41.3187   59.1457   57.2987 C   0  0  0  0  0  0  0  0  0  0  0  0
  -42.7529   59.5096   57.6830 C   0  0  0  0  0  0  0  0  0  0  0  0
  -43.6954   58.3626   57.3262 C   0  0  0  0  0  0  0  0  0  0  0  0
  -44.6962   57.9722   58.3866 C   0  0  0  0  0  0  0  0  0  0  0  0
  -46.0856   58.3086   57.8553 C   0  0  0  0  0  0  0  0  0  0  0  0
  -46.9405   57.0604   57.5983 C   0  0  0  0  0  0  0  0  0  0  0  0
  -47.7775   56.6074   58.8086 C   0  0  0  0  0  0  0  0  0  0  0  0
  -48.1558   57.7740   59.7475 C   0  0  0  0  0  0  0  0  0  0  0  0
  -49.5104   57.5143   60.4128 C   0  0  0  0  0  0  0  0  0  0  0  0
  -50.0136   58.6376   61.3111 C   0  0  0  0  0  0  0  0  0  0  0  0
  -50.5370   58.1210   62.6432 C   0  0  0  0  0  0  0  0  0  0  0  0
  -50.7995   59.1794   63.7170 C   0  0  0  0  0  0  0  0  0  0  0  0
  -50.4543   58.5777   65.0725 C   0  0  0  0  0  0  0  0  0  0  0  0
  -49.0750   57.9662   65.2691 C   0  0  0  0  0  0  0  0  0  0  0  0
  -48.0969   58.9941   65.8596 C   0  0  0  0  0  0  0  0  0  0  0  0
  -46.6123   58.6982   65.5776 C   0  0  0  0  0  0  0  0  0  0  0  0
  -45.7277   58.8126   66.8169 C   0  0  0  0  0  0  0  0  0  0  0  0
  -38.3019   57.6167   61.1263 O   0  0  0  0  0  0  0  0  0  0  0  0
  -37.8230   57.7518   59.8011 C   0  0  0  0  0  0  0  0  0  0  0  0
  -39.2617   57.7567   61.1391 H   0  0  0  0  0  0  0  0  0  0  0  0
  -36.3097   57.5420   59.7106 C   0  0  0  0  0  0  0  0  0  0  0  0
  -35.6899   57.1606   58.5806 C   0  0  0  0  0  0  0  0  0  0  0  0
  -34.1742   56.9715   58.5715 C   0  0  0  0  0  0  0  0  0  0  0  0
  -33.6971   55.7365   59.3496 C   0  0  0  0  0  0  0  0  0  0  0  0
  -33.5911   55.9103   60.8759 C   0  0  0  0  0  0  0  0  0  0  0  0
  -32.8523   57.2236   61.2292 C   0  0  0  0  0  0  0  0  0  0  0  0
  -33.6323   58.1942   62.1517 C   0  0  0  0  0  0  0  0  0  0  0  0
  -32.7547   59.2839   62.8113 C   0  0  0  0  0  0  0  0  0  0  0  0
  -31.6929   59.8801   61.8619 C   0  0  0  0  0  0  0  0  0  0  0  0
  -31.0619   61.1786   62.3785 C   0  0  0  0  0  0  0  0  0  0  0  0
  -31.7038   62.4765   61.8929 C   0  0  0  0  0  0  0  0  0  0  0  0
  -31.4076   63.6950   62.7894 C   0  0  0  0  0  0  0  0  0  0  0  0
  -31.1183   63.3692   64.2624 C   0  0  0  0  0  0  0  0  0  0  0  0
  -31.6701   64.4596   65.1853 C   0  0  0  0  0  0  0  0  0  0  0  0
  -32.6335   65.4515   64.5579 C   0  0  0  0  0  0  0  0  0  0  0  0
  -38.4698   60.1631   60.5707 C   0  0  0  0  0  0  0  0  0  0  0  0
  -37.3320   60.7014   61.2912 O   0  0  0  0  0  0  0  0  0  0  0  0
  -36.5214   62.6019   63.2680 O   0  0  0  0  0  0  0  0  0  0  0  0
  -39.2749   60.5391   65.6264 O   0  0  0  0  0  0  0  0  0  0  0  0
  -37.9660   59.3231   63.1843 O   0  0  0  0  0  0  0  0  0  0  0  0
  -37.1242   60.4076   62.7231 C   0  0  0  0  0  0  0  0  0  0  0  0
  -37.3616   61.5738   63.6935 C   0  0  0  0  0  0  0  0  0  0  0  0
  -37.0150   61.2400   65.1610 C   0  0  0  0  0  0  0  0  0  0  0  0
  -37.9186   60.1057   65.5589 C   0  0  0  0  0  0  0  0  0  0  0  0
  -37.7660   58.9585   64.5766 C   0  0  0  0  0  0  0  0  0  0  0  0
  -36.7251   62.8254   62.3464 H   0  0  0  0  0  0  0  0  0  0  0  0
  -39.3494   61.2710   66.2585 H   0  0  0  0  0  0  0  0  0  0  0  0
  -39.9865   58.0768   64.5038 O   0  0  0  0  0  0  0  0  0  0  0  0
  -38.7539   57.9422   65.1452 C   0  0  0  0  0  0  0  0  0  0  0  0
  -40.6121   57.4304   64.8667 H   0  0  0  0  0  0  0  0  0  0  0  0
  -37.2461   62.2942   66.1229 O   0  0  0  0  0  0  0  0  0  0  0  0
  -36.5592   64.7056   65.4666 O   0  0  0  0  0  0  0  0  0  0  0  0
  -34.8420   63.0696   65.9805 O   0  0  0  0  0  0  0  0  0  0  0  0
  -36.1544   64.0600   67.7613 O   0  0  0  0  0  0  0  0  0  0  0  0
  -36.1944   63.5636   66.3565 S   0  0  0  0  0  0  0  0  0  0  0  0
  -36.5903   64.4010   64.5462 H   0  0  0  0  0  0  0  0  0  0  0  0
  -37.0327   64.3843   68.0149 H   0  0  0  0  0  0  0  0  0  0  0  0
  2  1  1  0  0  0
  2  4  1  0  0  0
  2  5  1  0  0  0
 41 42  1  0  0  0
 41  1  1  0  0  0
 42 46  1  0  0  0
  1 24  1  0  0  0
 23 24  1  0  0  0
 23 25  1  0  0  0
 24 26  1  0  0  0
  3  4  2  0  0  0
 26 27  2  0  0  0
 27 28  1  0  0  0
 43 47  1  0  0  0
 43 51  1  0  0  0
 28 29  1  0  0  0
 56 48  1  0  0  0
 56 60  1  0  0  0
 29 30  1  0  0  0
 57 60  1  0  0  0
 57 61  1  0  0  0
 30 31  1  0  0  0
 44 49  1  0  0  0
 44 52  1  0  0  0
 31 32  1  0  0  0
 45 46  1  0  0  0
 45 50  1  0  0  0
 32 33  1  0  0  0
 53 54  1  0  0  0
 53 55  1  0  0  0
 33 34  1  0  0  0
 34 35  1  0  0  0
 35 36  1  0  0  0
 58 60  1  0  0  0
 36 37  1  0  0  0
 59 60  1  0  0  0
 59 62  1  0  0  0
 37 38  1  0  0  0
 38 39  1  0  0  0
 39 40  1  0  0  0
  4  6  1  0  0  0
  6  7  1  0  0  0
  7  8  1  0  0  0
  8  9  1  0  0  0
  9 10  1  0  0  0
 10 11  1  0  0  0
 11 12  1  0  0  0
 12 13  1  0  0  0
 13 14  1  0  0  0
 14 15  1  0  0  0
 15 16  1  0  0  0
 16 17  1  0  0  0
 17 18  1  0  0  0
 18 19  1  0  0  0
 19 20  1  0  0  0
 20 21  1  0  0  0
 21 22  1  0  0  0
 46 47  1  0  0  0
 47 48  1  0  0  0
 48 49  1  0  0  0
 49 50  1  0  0  0
 50 54  1  0  0  0
M  CHG 1  58  -1
M  END
> <minimizedAffinity>
-8.54743

> <CNNscore>
0.2755479217

> <CNNaffinity>
6.4589447975

> <CNN_VS>
1.7797487974

> <CNNaffinity_variance>
0.7225621343

$$$$
