/media/chris/experiments/cd1a-new-docking/inputs/ligands/1onq_ligand.pdb


 62 62  0  0  0  0  0  0  0  0999 V2000
  -38.0387   59.3961   62.4005 C   0  0  0  0  0  0  0  0  0  0  0  0
  -39.1440   59.6778   61.5060 N   0  0  0  0  0  0  0  0  0  0  0  0
  -40.0770   60.0643   59.4743 O   0  0  0  0  0  0  0  0  0  0  0  0
  -39.1141   59.8149   60.1733 C   0  0  0  0  0  0  0  0  0  0  0  0
  -40.0263   59.7814   61.9303 H   0  0  0  0  0  0  0  0  0  0  0  0
  -37.7627   59.6459   59.5450 C   0  0  0  0  0  0  0  0  0  0  0  0
  -37.8304   58.3679   58.7088 C   0  0  0  0  0  0  0  0  0  0  0  0
  -36.5428   58.2013   57.9056 C   0  0  0  0  0  0  0  0  0  0  0  0
  -36.0194   56.7913   57.7758 C   0  0  0  0  0  0  0  0  0  0  0  0
  -34.5117   56.8369   58.0007 C   0  0  0  0  0  0  0  0  0  0  0  0
  -34.0678   56.0084   59.2137 C   0  0  0  0  0  0  0  0  0  0  0  0
  -35.1269   55.8983   60.3258 C   0  0  0  0  0  0  0  0  0  0  0  0
  -34.9977   57.0100   61.3901 C   0  0  0  0  0  0  0  0  0  0  0  0
  -33.5457   57.1437   61.8578 C   0  0  0  0  0  0  0  0  0  0  0  0
  -33.3388   58.0441   63.0697 C   0  0  0  0  0  0  0  0  0  0  0  0
  -32.7438   59.3925   62.6923 C   0  0  0  0  0  0  0  0  0  0  0  0
  -31.6463   59.3670   61.6260 C   0  0  0  0  0  0  0  0  0  0  0  0
  -30.5002   60.2497   62.1016 C   0  0  0  0  0  0  0  0  0  0  0  0
  -30.3449   61.6349   61.4915 C   0  0  0  0  0  0  0  0  0  0  0  0
  -30.6300   62.7292   62.5323 C   0  0  0  0  0  0  0  0  0  0  0  0
  -29.6501   63.9163   62.4956 C   0  0  0  0  0  0  0  0  0  0  0  0
  -29.8949   64.8656   61.3249 C   0  0  0  0  0  0  0  0  0  0  0  0
  -38.5751   57.1360   62.3910 O   0  0  0  0  0  0  0  0  0  0  0  0
  -38.5823   58.2606   63.2507 C   0  0  0  0  0  0  0  0  0  0  0  0
  -37.6651   56.9467   62.1139 H   0  0  0  0  0  0  0  0  0  0  0  0
  -39.9935   58.6140   63.7263 C   0  0  0  0  0  0  0  0  0  0  0  0
  -40.3664   58.5587   65.0163 C   0  0  0  0  0  0  0  0  0  0  0  0
  -41.7954   58.9266   65.4111 C   0  0  0  0  0  0  0  0  0  0  0  0
  -42.5035   57.8547   66.2522 C   0  0  0  0  0  0  0  0  0  0  0  0
  -43.9643   57.5604   65.8641 C   0  0  0  0  0  0  0  0  0  0  0  0
  -44.9199   58.6048   66.4899 C   0  0  0  0  0  0  0  0  0  0  0  0
  -45.9422   59.2364   65.5113 C   0  0  0  0  0  0  0  0  0  0  0  0
  -46.9831   58.2385   64.9515 C   0  0  0  0  0  0  0  0  0  0  0  0
  -47.9868   57.7340   66.0109 C   0  0  0  0  0  0  0  0  0  0  0  0
  -49.4512   57.8188   65.5642 C   0  0  0  0  0  0  0  0  0  0  0  0
  -50.0559   59.2201   65.5078 C   0  0  0  0  0  0  0  0  0  0  0  0
  -50.1313   59.8125   64.0868 C   0  0  0  0  0  0  0  0  0  0  0  0
  -51.3822   59.4274   63.2824 C   0  0  0  0  0  0  0  0  0  0  0  0
  -51.0571   58.3523   62.2414 C   0  0  0  0  0  0  0  0  0  0  0  0
  -49.5950   58.2018   61.8602 C   0  0  0  0  0  0  0  0  0  0  0  0
  -37.4608   60.6180   63.1500 C   0  0  0  0  0  0  0  0  0  0  0  0
  -36.0517   60.8953   62.9481 O   0  0  0  0  0  0  0  0  0  0  0  0
  -34.0856   62.8185   62.1651 O   0  0  0  0  0  0  0  0  0  0  0  0
  -35.8940   65.1064   65.1473 O   0  0  0  0  0  0  0  0  0  0  0  0
  -36.0657   62.0867   65.0612 O   0  0  0  0  0  0  0  0  0  0  0  0
  -35.3054   61.7763   63.8683 C   0  0  0  0  0  0  0  0  0  0  0  0
  -34.8484   63.1239   63.2916 C   0  0  0  0  0  0  0  0  0  0  0  0
  -33.9734   63.9489   64.2607 C   0  0  0  0  0  0  0  0  0  0  0  0
  -34.8256   64.2196   65.4697 C   0  0  0  0  0  0  0  0  0  0  0  0
  -35.3582   62.9114   66.0262 C   0  0  0  0  0  0  0  0  0  0  0  0
  -34.6200   62.2994   61.5438 H   0  0  0  0  0  0  0  0  0  0  0  0
  -35.5318   65.9341   64.7942 H   0  0  0  0  0  0  0  0  0  0  0  0
  -36.3174   62.3778   68.1496 O   0  0  0  0  0  0  0  0  0  0  0  0
  -36.1854   63.4035   67.2117 C   0  0  0  0  0  0  0  0  0  0  0  0
  -36.8430   62.6929   68.9014 H   0  0  0  0  0  0  0  0  0  0  0  0
  -33.5377   65.2404   63.7789 O   0  0  0  0  0  0  0  0  0  0  0  0
  -31.6087   66.9533   63.5299 O   0  0  0  0  0  0  0  0  0  0  0  0
  -31.4335   65.1851   65.1828 O   0  0  0  0  0  0  0  0  0  0  0  0
  -32.8981   67.0768   65.5715 O   0  0  0  0  0  0  0  0  0  0  0  0
  -32.3645   66.1484   64.5347 S   0  0  0  0  0  0  0  0  0  0  0  0
  -31.2532   66.3649   62.8456 H   0  0  0  0  0  0  0  0  0  0  0  0
  -33.5064   67.7087   65.1574 H   0  0  0  0  0  0  0  0  0  0  0  0
  2  1  1  0  0  0
  2  4  1  0  0  0
  2  5  1  0  0  0
 41 42  1  0  0  0
 41  1  1  0  0  0
 42 46  1  0  0  0
  1 24  1  0  0  0
 23 24  1  0  0  0
 23 25  1  0  0  0
 24 26  1  0  0  0
  3  4  2  0  0  0
 26 27  2  0  0  0
 27 28  1  0  0  0
 43 47  1  0  0  0
 43 51  1  0  0  0
 28 29  1  0  0  0
 56 48  1  0  0  0
 56 60  1  0  0  0
 29 30  1  0  0  0
 57 60  1  0  0  0
 57 61  1  0  0  0
 30 31  1  0  0  0
 44 49  1  0  0  0
 44 52  1  0  0  0
 31 32  1  0  0  0
 45 46  1  0  0  0
 45 50  1  0  0  0
 32 33  1  0  0  0
 53 54  1  0  0  0
 53 55  1  0  0  0
 33 34  1  0  0  0
 34 35  1  0  0  0
 35 36  1  0  0  0
 58 60  1  0  0  0
 36 37  1  0  0  0
 59 60  1  0  0  0
 59 62  1  0  0  0
 37 38  1  0  0  0
 38 39  1  0  0  0
 39 40  1  0  0  0
  4  6  1  0  0  0
  6  7  1  0  0  0
  7  8  1  0  0  0
  8  9  1  0  0  0
  9 10  1  0  0  0
 10 11  1  0  0  0
 11 12  1  0  0  0
 12 13  1  0  0  0
 13 14  1  0  0  0
 14 15  1  0  0  0
 15 16  1  0  0  0
 16 17  1  0  0  0
 17 18  1  0  0  0
 18 19  1  0  0  0
 19 20  1  0  0  0
 20 21  1  0  0  0
 21 22  1  0  0  0
 46 47  1  0  0  0
 47 48  1  0  0  0
 48 49  1  0  0  0
 49 50  1  0  0  0
 50 54  1  0  0  0
M  CHG 1  58  -1
M  END
> <minimizedAffinity>
-9.42849

> <CNNscore>
0.6470567584

> <CNNaffinity>
7.2565741539

> <CNN_VS>
4.6954154968

> <CNNaffinity_variance>
1.1120026112

$$$$
/media/chris/experiments/cd1a-new-docking/inputs/ligands/1onq_ligand.pdb


 62 62  0  0  0  0  0  0  0  0999 V2000
  -38.3314   59.8140   60.9812 C   0  0  0  0  0  0  0  0  0  0  0  0
  -38.3816   58.4730   61.5291 N   0  0  0  0  0  0  0  0  0  0  0  0
  -38.9709   56.9218   63.0765 O   0  0  0  0  0  0  0  0  0  0  0  0
  -38.9727   58.0640   62.6601 C   0  0  0  0  0  0  0  0  0  0  0  0
  -37.9247   57.7759   61.0051 H   0  0  0  0  0  0  0  0  0  0  0  0
  -39.6700   59.1389   63.4399 C   0  0  0  0  0  0  0  0  0  0  0  0
  -40.1728   58.4840   64.7265 C   0  0  0  0  0  0  0  0  0  0  0  0
  -41.2698   59.3408   65.3536 C   0  0  0  0  0  0  0  0  0  0  0  0
  -42.4969   58.6026   65.8311 C   0  0  0  0  0  0  0  0  0  0  0  0
  -43.6866   59.1188   65.0286 C   0  0  0  0  0  0  0  0  0  0  0  0
  -45.0265   58.5664   65.5330 C   0  0  0  0  0  0  0  0  0  0  0  0
  -45.9633   58.0650   64.4187 C   0  0  0  0  0  0  0  0  0  0  0  0
  -47.4121   57.8444   64.9063 C   0  0  0  0  0  0  0  0  0  0  0  0
  -48.3314   58.9538   64.3875 C   0  0  0  0  0  0  0  0  0  0  0  0
  -48.7895   58.7890   62.9435 C   0  0  0  0  0  0  0  0  0  0  0  0
  -50.1681   58.1531   62.8442 C   0  0  0  0  0  0  0  0  0  0  0  0
  -50.5604   57.6130   61.4670 C   0  0  0  0  0  0  0  0  0  0  0  0
  -49.6096   58.2049   60.4353 C   0  0  0  0  0  0  0  0  0  0  0  0
  -49.0522   57.2951   59.3506 C   0  0  0  0  0  0  0  0  0  0  0  0
  -47.5159   57.3350   59.3354 C   0  0  0  0  0  0  0  0  0  0  0  0
  -46.8996   57.6795   57.9670 C   0  0  0  0  0  0  0  0  0  0  0  0
  -47.3782   56.7652   56.8415 C   0  0  0  0  0  0  0  0  0  0  0  0
  -39.8133   59.4813   59.2235 O   0  0  0  0  0  0  0  0  0  0  0  0
  -38.4247   59.5642   59.4857 C   0  0  0  0  0  0  0  0  0  0  0  0
  -40.2366   60.3231   59.4539 H   0  0  0  0  0  0  0  0  0  0  0  0
  -37.6944   58.2637   59.1425 C   0  0  0  0  0  0  0  0  0  0  0  0
  -36.8834   58.1387   58.0781 C   0  0  0  0  0  0  0  0  0  0  0  0
  -36.1907   56.8054   57.8025 C   0  0  0  0  0  0  0  0  0  0  0  0
  -34.6578   56.8938   57.7823 C   0  0  0  0  0  0  0  0  0  0  0  0
  -33.9426   56.3561   59.0355 C   0  0  0  0  0  0  0  0  0  0  0  0
  -34.9368   55.6101   59.9576 C   0  0  0  0  0  0  0  0  0  0  0  0
  -35.4061   56.4030   61.2038 C   0  0  0  0  0  0  0  0  0  0  0  0
  -34.4927   57.5939   61.5778 C   0  0  0  0  0  0  0  0  0  0  0  0
  -33.1792   57.1710   62.2707 C   0  0  0  0  0  0  0  0  0  0  0  0
  -32.1063   58.2664   62.2817 C   0  0  0  0  0  0  0  0  0  0  0  0
  -32.6123   59.7007   62.4198 C   0  0  0  0  0  0  0  0  0  0  0  0
  -31.5505   60.7722   62.1029 C   0  0  0  0  0  0  0  0  0  0  0  0
  -30.1184   60.2438   61.9298 C   0  0  0  0  0  0  0  0  0  0  0  0
  -29.0901   61.3520   62.1739 C   0  0  0  0  0  0  0  0  0  0  0  0
  -29.5984   62.7792   62.0714 C   0  0  0  0  0  0  0  0  0  0  0  0
  -37.1575   60.6907   61.4733 C   0  0  0  0  0  0  0  0  0  0  0  0
  -37.4871   61.7517   62.4054 O   0  0  0  0  0  0  0  0  0  0  0  0
  -35.6542   63.9466   62.3973 O   0  0  0  0  0  0  0  0  0  0  0  0
  -36.8775   64.3038   66.3690 O   0  0  0  0  0  0  0  0  0  0  0  0
  -37.1134   61.7260   64.8022 O   0  0  0  0  0  0  0  0  0  0  0  0
  -36.5773   62.1082   63.5123 C   0  0  0  0  0  0  0  0  0  0  0  0
  -36.2043   63.5931   63.6287 C   0  0  0  0  0  0  0  0  0  0  0  0
  -35.1603   63.8861   64.7285 C   0  0  0  0  0  0  0  0  0  0  0  0
  -35.7848   63.4549   66.0267 C   0  0  0  0  0  0  0  0  0  0  0  0
  -36.2350   62.0087   65.9249 C   0  0  0  0  0  0  0  0  0  0  0  0
  -36.2972   63.7691   61.6930 H   0  0  0  0  0  0  0  0  0  0  0  0
  -36.5679   65.2212   66.4286 H   0  0  0  0  0  0  0  0  0  0  0  0
  -36.1276   62.5275   68.2557 O   0  0  0  0  0  0  0  0  0  0  0  0
  -36.8351   61.7823   67.3107 C   0  0  0  0  0  0  0  0  0  0  0  0
  -36.5107   62.3819   69.1349 H   0  0  0  0  0  0  0  0  0  0  0  0
  -34.7927   65.2736   64.9007 O   0  0  0  0  0  0  0  0  0  0  0  0
  -32.7198   65.7788   63.4294 O   0  0  0  0  0  0  0  0  0  0  0  0
  -32.4125   64.8785   65.6619 O   0  0  0  0  0  0  0  0  0  0  0  0
  -33.0396   67.2001   65.3592 O   0  0  0  0  0  0  0  0  0  0  0  0
  -33.2200   65.8163   64.8355 S   0  0  0  0  0  0  0  0  0  0  0  0
  -32.8293   64.8842   63.0710 H   0  0  0  0  0  0  0  0  0  0  0  0
  -33.5629   67.8184   64.8258 H   0  0  0  0  0  0  0  0  0  0  0  0
  2  1  1  0  0  0
  2  4  1  0  0  0
  2  5  1  0  0  0
 41 42  1  0  0  0
 41  1  1  0  0  0
 42 46  1  0  0  0
  1 24  1  0  0  0
 23 24  1  0  0  0
 23 25  1  0  0  0
 24 26  1  0  0  0
  3  4  2  0  0  0
 26 27  2  0  0  0
 27 28  1  0  0  0
 43 47  1  0  0  0
 43 51  1  0  0  0
 28 29  1  0  0  0
 56 48  1  0  0  0
 56 60  1  0  0  0
 29 30  1  0  0  0
 57 60  1  0  0  0
 57 61  1  0  0  0
 30 31  1  0  0  0
 44 49  1  0  0  0
 44 52  1  0  0  0
 31 32  1  0  0  0
 45 46  1  0  0  0
 45 50  1  0  0  0
 32 33  1  0  0  0
 53 54  1  0  0  0
 53 55  1  0  0  0
 33 34  1  0  0  0
 34 35  1  0  0  0
 35 36  1  0  0  0
 58 60  1  0  0  0
 36 37  1  0  0  0
 59 60  1  0  0  0
 59 62  1  0  0  0
 37 38  1  0  0  0
 38 39  1  0  0  0
 39 40  1  0  0  0
  4  6  1  0  0  0
  6  7  1  0  0  0
  7  8  1  0  0  0
  8  9  1  0  0  0
  9 10  1  0  0  0
 10 11  1  0  0  0
 11 12  1  0  0  0
 12 13  1  0  0  0
 13 14  1  0  0  0
 14 15  1  0  0  0
 15 16  1  0  0  0
 16 17  1  0  0  0
 17 18  1  0  0  0
 18 19  1  0  0  0
 19 20  1  0  0  0
 20 21  1  0  0  0
 21 22  1  0  0  0
 46 47  1  0  0  0
 47 48  1  0  0  0
 48 49  1  0  0  0
 49 50  1  0  0  0
 50 54  1  0  0  0
M  CHG 1  58  -1
M  END
> <minimizedAffinity>
-9.59961

> <CNNscore>
0.3962815404

> <CNNaffinity>
7.1787629128

> <CNN_VS>
2.8448112011

> <CNNaffinity_variance>
1.0657989979

$$$$
/media/chris/experiments/cd1a-new-docking/inputs/ligands/1onq_ligand.pdb


 62 62  0  0  0  0  0  0  0  0999 V2000
  -37.9408   59.1591   62.0691 C   0  0  0  0  0  0  0  0  0  0  0  0
  -37.4587   59.3759   60.7194 N   0  0  0  0  0  0  0  0  0  0  0  0
  -36.7086   58.7003   58.6876 O   0  0  0  0  0  0  0  0  0  0  0  0
  -37.1201   58.4565   59.8052 C   0  0  0  0  0  0  0  0  0  0  0  0
  -37.3688   60.3156   60.4396 H   0  0  0  0  0  0  0  0  0  0  0  0
  -37.2715   57.0314   60.2477 C   0  0  0  0  0  0  0  0  0  0  0  0
  -36.6851   56.1666   59.1318 C   0  0  0  0  0  0  0  0  0  0  0  0
  -35.7230   55.1375   59.7204 C   0  0  0  0  0  0  0  0  0  0  0  0
  -34.2738   55.2805   59.3229 C   0  0  0  0  0  0  0  0  0  0  0  0
  -33.7580   56.5845   59.9225 C   0  0  0  0  0  0  0  0  0  0  0  0
  -33.4842   56.4770   61.4286 C   0  0  0  0  0  0  0  0  0  0  0  0
  -34.2813   57.4746   62.2888 C   0  0  0  0  0  0  0  0  0  0  0  0
  -33.3842   58.5330   62.9673 C   0  0  0  0  0  0  0  0  0  0  0  0
  -31.9826   58.5285   62.3503 C   0  0  0  0  0  0  0  0  0  0  0  0
  -31.5024   59.8782   61.8305 C   0  0  0  0  0  0  0  0  0  0  0  0
  -30.2186   60.3341   62.5079 C   0  0  0  0  0  0  0  0  0  0  0  0
  -29.4673   61.4774   61.8219 C   0  0  0  0  0  0  0  0  0  0  0  0
  -30.4023   62.6761   61.7343 C   0  0  0  0  0  0  0  0  0  0  0  0
  -30.0780   63.9155   62.5550 C   0  0  0  0  0  0  0  0  0  0  0  0
  -29.3823   64.9801   61.6919 C   0  0  0  0  0  0  0  0  0  0  0  0
  -30.3402   65.9691   61.0027 C   0  0  0  0  0  0  0  0  0  0  0  0
  -29.8366   66.4504   59.6439 C   0  0  0  0  0  0  0  0  0  0  0  0
  -39.2890   61.0160   61.7082 O   0  0  0  0  0  0  0  0  0  0  0  0
  -39.3823   59.6310   61.9854 C   0  0  0  0  0  0  0  0  0  0  0  0
  -38.8396   61.1461   60.8585 H   0  0  0  0  0  0  0  0  0  0  0  0
  -40.0840   59.3555   63.3174 C   0  0  0  0  0  0  0  0  0  0  0  0
  -41.1499   60.0556   63.7417 C   0  0  0  0  0  0  0  0  0  0  0  0
  -41.7942   59.7198   65.0853 C   0  0  0  0  0  0  0  0  0  0  0  0
  -41.3929   58.3457   65.6412 C   0  0  0  0  0  0  0  0  0  0  0  0
  -42.3288   57.7622   66.7158 C   0  0  0  0  0  0  0  0  0  0  0  0
  -43.4819   56.9619   66.0638 C   0  0  0  0  0  0  0  0  0  0  0  0
  -44.9096   57.4176   66.4585 C   0  0  0  0  0  0  0  0  0  0  0  0
  -46.0419   56.6491   65.7374 C   0  0  0  0  0  0  0  0  0  0  0  0
  -47.4468   56.9412   66.3075 C   0  0  0  0  0  0  0  0  0  0  0  0
  -48.3065   57.8339   65.4045 C   0  0  0  0  0  0  0  0  0  0  0  0
  -47.7795   58.0636   63.9896 C   0  0  0  0  0  0  0  0  0  0  0  0
  -48.8483   58.5620   62.9969 C   0  0  0  0  0  0  0  0  0  0  0  0
  -50.3008   58.2481   63.3864 C   0  0  0  0  0  0  0  0  0  0  0  0
  -51.2820   59.1236   62.6018 C   0  0  0  0  0  0  0  0  0  0  0  0
  -52.0374   60.1722   63.3988 C   0  0  0  0  0  0  0  0  0  0  0  0
  -37.0693   59.7649   63.1927 C   0  0  0  0  0  0  0  0  0  0  0  0
  -36.1955   60.8595   62.8164 O   0  0  0  0  0  0  0  0  0  0  0  0
  -33.9684   62.5700   62.2764 O   0  0  0  0  0  0  0  0  0  0  0  0
  -35.7443   64.9386   65.2149 O   0  0  0  0  0  0  0  0  0  0  0  0
  -36.2471   61.9645   64.9755 O   0  0  0  0  0  0  0  0  0  0  0  0
  -35.4321   61.6131   63.8311 C   0  0  0  0  0  0  0  0  0  0  0  0
  -34.7810   62.9193   63.3543 C   0  0  0  0  0  0  0  0  0  0  0  0
  -33.9005   63.6004   64.4249 C   0  0  0  0  0  0  0  0  0  0  0  0
  -34.8123   63.9225   65.5765 C   0  0  0  0  0  0  0  0  0  0  0  0
  -35.5321   62.6649   66.0291 C   0  0  0  0  0  0  0  0  0  0  0  0
  -34.5055   62.1400   61.5926 H   0  0  0  0  0  0  0  0  0  0  0  0
  -35.2638   65.7314   64.9295 H   0  0  0  0  0  0  0  0  0  0  0  0
  -36.3865   62.2980   68.2311 O   0  0  0  0  0  0  0  0  0  0  0  0
  -36.3923   63.2047   67.1695 C   0  0  0  0  0  0  0  0  0  0  0  0
  -36.9335   62.6432   68.9540 H   0  0  0  0  0  0  0  0  0  0  0  0
  -33.2845   64.8499   64.0384 O   0  0  0  0  0  0  0  0  0  0  0  0
  -33.1607   66.3492   66.1488 O   0  0  0  0  0  0  0  0  0  0  0  0
  -31.7453   66.8477   64.2417 O   0  0  0  0  0  0  0  0  0  0  0  0
  -31.2236   64.9765   65.6912 O   0  0  0  0  0  0  0  0  0  0  0  0
  -32.3299   65.7521   65.0617 S   0  0  0  0  0  0  0  0  0  0  0  0
  -33.8875   66.8588   65.7576 H   0  0  0  0  0  0  0  0  0  0  0  0
  -31.5959   64.2597   66.2281 H   0  0  0  0  0  0  0  0  0  0  0  0
  2  1  1  0  0  0
  2  4  1  0  0  0
  2  5  1  0  0  0
 41 42  1  0  0  0
 41  1  1  0  0  0
 42 46  1  0  0  0
  1 24  1  0  0  0
 23 24  1  0  0  0
 23 25  1  0  0  0
 24 26  1  0  0  0
  3  4  2  0  0  0
 26 27  2  0  0  0
 27 28  1  0  0  0
 43 47  1  0  0  0
 43 51  1  0  0  0
 28 29  1  0  0  0
 56 48  1  0  0  0
 56 60  1  0  0  0
 29 30  1  0  0  0
 57 60  1  0  0  0
 57 61  1  0  0  0
 30 31  1  0  0  0
 44 49  1  0  0  0
 44 52  1  0  0  0
 31 32  1  0  0  0
 45 46  1  0  0  0
 45 50  1  0  0  0
 32 33  1  0  0  0
 53 54  1  0  0  0
 53 55  1  0  0  0
 33 34  1  0  0  0
 34 35  1  0  0  0
 35 36  1  0  0  0
 58 60  1  0  0  0
 36 37  1  0  0  0
 59 60  1  0  0  0
 59 62  1  0  0  0
 37 38  1  0  0  0
 38 39  1  0  0  0
 39 40  1  0  0  0
  4  6  1  0  0  0
  6  7  1  0  0  0
  7  8  1  0  0  0
  8  9  1  0  0  0
  9 10  1  0  0  0
 10 11  1  0  0  0
 11 12  1  0  0  0
 12 13  1  0  0  0
 13 14  1  0  0  0
 14 15  1  0  0  0
 15 16  1  0  0  0
 16 17  1  0  0  0
 17 18  1  0  0  0
 18 19  1  0  0  0
 19 20  1  0  0  0
 20 21  1  0  0  0
 21 22  1  0  0  0
 46 47  1  0  0  0
 47 48  1  0  0  0
 48 49  1  0  0  0
 49 50  1  0  0  0
 50 54  1  0  0  0
M  CHG 1  58  -1
M  END
> <minimizedAffinity>
-9.04417

> <CNNscore>
0.3313479424

> <CNNaffinity>
6.9639272690

> <CNN_VS>
2.3074829578

> <CNNaffinity_variance>
0.9985610843

$$$$
/media/chris/experiments/cd1a-new-docking/inputs/ligands/1onq_ligand.pdb


 62 62  0  0  0  0  0  0  0  0999 V2000
  -38.2417   60.2219   61.8151 C   0  0  0  0  0  0  0  0  0  0  0  0
  -37.5720   59.6978   60.6413 N   0  0  0  0  0  0  0  0  0  0  0  0
  -36.5426   58.0768   59.4328 O   0  0  0  0  0  0  0  0  0  0  0  0
  -37.1095   58.4564   60.4389 C   0  0  0  0  0  0  0  0  0  0  0  0
  -37.4404   60.3328   59.9005 H   0  0  0  0  0  0  0  0  0  0  0  0
  -37.3265   57.5020   61.5755 C   0  0  0  0  0  0  0  0  0  0  0  0
  -35.9772   57.3511   62.2781 C   0  0  0  0  0  0  0  0  0  0  0  0
  -36.1909   57.0827   63.7658 C   0  0  0  0  0  0  0  0  0  0  0  0
  -36.8075   58.2079   64.5611 C   0  0  0  0  0  0  0  0  0  0  0  0
  -38.1440   57.7112   65.1023 C   0  0  0  0  0  0  0  0  0  0  0  0
  -39.1763   58.8362   65.2564 C   0  0  0  0  0  0  0  0  0  0  0  0
  -40.6368   58.3515   65.3066 C   0  0  0  0  0  0  0  0  0  0  0  0
  -41.6007   59.4090   65.8878 C   0  0  0  0  0  0  0  0  0  0  0  0
  -42.8963   58.7511   66.3713 C   0  0  0  0  0  0  0  0  0  0  0  0
  -42.9053   57.2282   66.3173 C   0  0  0  0  0  0  0  0  0  0  0  0
  -44.1707   56.6808   65.6739 C   0  0  0  0  0  0  0  0  0  0  0  0
  -45.4265   57.5427   65.8234 C   0  0  0  0  0  0  0  0  0  0  0  0
  -45.8872   57.9574   64.4325 C   0  0  0  0  0  0  0  0  0  0  0  0
  -47.3481   58.3312   64.2294 C   0  0  0  0  0  0  0  0  0  0  0  0
  -47.7445   59.5104   65.1319 C   0  0  0  0  0  0  0  0  0  0  0  0
  -48.9678   59.2450   66.0286 C   0  0  0  0  0  0  0  0  0  0  0  0
  -49.5521   57.8451   65.8546 C   0  0  0  0  0  0  0  0  0  0  0  0
  -40.5227   60.3039   62.2468 O   0  0  0  0  0  0  0  0  0  0  0  0
  -39.5803   60.6748   61.2578 C   0  0  0  0  0  0  0  0  0  0  0  0
  -40.3241   60.7704   63.0737 H   0  0  0  0  0  0  0  0  0  0  0  0
  -39.8379   59.9714   59.9231 C   0  0  0  0  0  0  0  0  0  0  0  0
  -41.0207   60.0192   59.2868 C   0  0  0  0  0  0  0  0  0  0  0  0
  -41.1989   59.2889   57.9571 C   0  0  0  0  0  0  0  0  0  0  0  0
  -42.4966   59.6486   57.2193 C   0  0  0  0  0  0  0  0  0  0  0  0
  -43.4791   58.4847   56.9926 C   0  0  0  0  0  0  0  0  0  0  0  0
  -44.3176   58.2181   58.2659 C   0  0  0  0  0  0  0  0  0  0  0  0
  -45.8205   57.9303   58.0203 C   0  0  0  0  0  0  0  0  0  0  0  0
  -46.5482   57.2906   59.2260 C   0  0  0  0  0  0  0  0  0  0  0  0
  -47.6622   56.3011   58.8210 C   0  0  0  0  0  0  0  0  0  0  0  0
  -49.0544   56.9384   58.7385 C   0  0  0  0  0  0  0  0  0  0  0  0
  -49.9125   56.8425   59.9983 C   0  0  0  0  0  0  0  0  0  0  0  0
  -49.7415   58.0315   60.9641 C   0  0  0  0  0  0  0  0  0  0  0  0
  -50.8212   58.1534   62.0502 C   0  0  0  0  0  0  0  0  0  0  0  0
  -50.7002   59.4837   62.7990 C   0  0  0  0  0  0  0  0  0  0  0  0
  -51.9904   60.0734   63.3405 C   0  0  0  0  0  0  0  0  0  0  0  0
  -37.4373   61.2568   62.6340 C   0  0  0  0  0  0  0  0  0  0  0  0
  -36.0157   61.0074   62.7762 O   0  0  0  0  0  0  0  0  0  0  0  0
  -33.8447   62.7025   62.0078 O   0  0  0  0  0  0  0  0  0  0  0  0
  -35.4234   65.1855   64.9644 O   0  0  0  0  0  0  0  0  0  0  0  0
  -35.9212   62.2020   64.8856 O   0  0  0  0  0  0  0  0  0  0  0  0
  -35.1873   61.8060   63.7015 C   0  0  0  0  0  0  0  0  0  0  0  0
  -34.5809   63.0936   63.1255 C   0  0  0  0  0  0  0  0  0  0  0  0
  -33.6312   63.8226   64.1011 C   0  0  0  0  0  0  0  0  0  0  0  0
  -34.4609   64.1892   65.3005 C   0  0  0  0  0  0  0  0  0  0  0  0
  -35.1380   62.9489   65.8553 C   0  0  0  0  0  0  0  0  0  0  0  0
  -34.4261   62.2420   61.3826 H   0  0  0  0  0  0  0  0  0  0  0  0
  -34.9698   65.9675   64.6127 H   0  0  0  0  0  0  0  0  0  0  0  0
  -36.2100   62.5220   67.9486 O   0  0  0  0  0  0  0  0  0  0  0  0
  -35.9185   63.5327   67.0308 C   0  0  0  0  0  0  0  0  0  0  0  0
  -36.7057   62.8954   68.6941 H   0  0  0  0  0  0  0  0  0  0  0  0
  -33.0529   65.0572   63.6200 O   0  0  0  0  0  0  0  0  0  0  0  0
  -31.7485   64.4696   61.4590 O   0  0  0  0  0  0  0  0  0  0  0  0
  -30.6170   64.3735   63.6036 O   0  0  0  0  0  0  0  0  0  0  0  0
  -31.1070   66.5144   62.5785 O   0  0  0  0  0  0  0  0  0  0  0  0
  -31.6103   65.1277   62.7917 S   0  0  0  0  0  0  0  0  0  0  0  0
  -32.0757   63.5642   61.5778 H   0  0  0  0  0  0  0  0  0  0  0  0
  -31.7489   67.0135   62.0496 H   0  0  0  0  0  0  0  0  0  0  0  0
  2  1  1  0  0  0
  2  4  1  0  0  0
  2  5  1  0  0  0
 41 42  1  0  0  0
 41  1  1  0  0  0
 42 46  1  0  0  0
  1 24  1  0  0  0
 23 24  1  0  0  0
 23 25  1  0  0  0
 24 26  1  0  0  0
  3  4  2  0  0  0
 26 27  2  0  0  0
 27 28  1  0  0  0
 43 47  1  0  0  0
 43 51  1  0  0  0
 28 29  1  0  0  0
 56 48  1  0  0  0
 56 60  1  0  0  0
 29 30  1  0  0  0
 57 60  1  0  0  0
 57 61  1  0  0  0
 30 31  1  0  0  0
 44 49  1  0  0  0
 44 52  1  0  0  0
 31 32  1  0  0  0
 45 46  1  0  0  0
 45 50  1  0  0  0
 32 33  1  0  0  0
 53 54  1  0  0  0
 53 55  1  0  0  0
 33 34  1  0  0  0
 34 35  1  0  0  0
 35 36  1  0  0  0
 58 60  1  0  0  0
 36 37  1  0  0  0
 59 60  1  0  0  0
 59 62  1  0  0  0
 37 38  1  0  0  0
 38 39  1  0  0  0
 39 40  1  0  0  0
  4  6  1  0  0  0
  6  7  1  0  0  0
  7  8  1  0  0  0
  8  9  1  0  0  0
  9 10  1  0  0  0
 10 11  1  0  0  0
 11 12  1  0  0  0
 12 13  1  0  0  0
 13 14  1  0  0  0
 14 15  1  0  0  0
 15 16  1  0  0  0
 16 17  1  0  0  0
 17 18  1  0  0  0
 18 19  1  0  0  0
 19 20  1  0  0  0
 20 21  1  0  0  0
 21 22  1  0  0  0
 46 47  1  0  0  0
 47 48  1  0  0  0
 48 49  1  0  0  0
 49 50  1  0  0  0
 50 54  1  0  0  0
M  CHG 1  58  -1
M  END
> <minimizedAffinity>
-9.46083

> <CNNscore>
0.3308701217

> <CNNaffinity>
7.0539255142

> <CNN_VS>
2.3339331150

> <CNNaffinity_variance>
1.0851538181

$$$$
/media/chris/experiments/cd1a-new-docking/inputs/ligands/1onq_ligand.pdb


 62 62  0  0  0  0  0  0  0  0999 V2000
  -38.1349   60.0045   62.0039 C   0  0  0  0  0  0  0  0  0  0  0  0
  -38.5124   58.7285   62.5788 N   0  0  0  0  0  0  0  0  0  0  0  0
  -39.6814   57.3935   63.9926 O   0  0  0  0  0  0  0  0  0  0  0  0
  -39.4148   58.4900   63.5403 C   0  0  0  0  0  0  0  0  0  0  0  0
  -38.0481   57.9389   62.2179 H   0  0  0  0  0  0  0  0  0  0  0  0
  -40.1168   59.7044   64.0714 C   0  0  0  0  0  0  0  0  0  0  0  0
  -40.4501   59.4075   65.5335 C   0  0  0  0  0  0  0  0  0  0  0  0
  -41.9575   59.5055   65.7551 C   0  0  0  0  0  0  0  0  0  0  0  0
  -42.4583   59.0724   67.1117 C   0  0  0  0  0  0  0  0  0  0  0  0
  -43.8687   58.5221   66.9282 C   0  0  0  0  0  0  0  0  0  0  0  0
  -43.8860   57.1575   66.2264 C   0  0  0  0  0  0  0  0  0  0  0  0
  -44.9930   57.0055   65.1671 C   0  0  0  0  0  0  0  0  0  0  0  0
  -45.6657   58.3477   64.8048 C   0  0  0  0  0  0  0  0  0  0  0  0
  -47.1611   58.1485   64.5417 C   0  0  0  0  0  0  0  0  0  0  0  0
  -48.0871   58.9753   65.4255 C   0  0  0  0  0  0  0  0  0  0  0  0
  -49.4429   58.3128   65.6200 C   0  0  0  0  0  0  0  0  0  0  0  0
  -50.6640   59.1719   65.2839 C   0  0  0  0  0  0  0  0  0  0  0  0
  -50.5125   59.6758   63.8550 C   0  0  0  0  0  0  0  0  0  0  0  0
  -51.2589   58.9527   62.7436 C   0  0  0  0  0  0  0  0  0  0  0  0
  -50.3829   57.8576   62.1150 C   0  0  0  0  0  0  0  0  0  0  0  0
  -50.9714   57.2211   60.8424 C   0  0  0  0  0  0  0  0  0  0  0  0
  -50.2572   57.6547   59.5643 C   0  0  0  0  0  0  0  0  0  0  0  0
  -39.9078   59.9436   60.5042 O   0  0  0  0  0  0  0  0  0  0  0  0
  -38.4974   59.8279   60.5393 C   0  0  0  0  0  0  0  0  0  0  0  0
  -40.1676   60.8252   60.8141 H   0  0  0  0  0  0  0  0  0  0  0  0
  -38.0193   58.4549   60.0608 C   0  0  0  0  0  0  0  0  0  0  0  0
  -37.2839   58.2826   58.9491 C   0  0  0  0  0  0  0  0  0  0  0  0
  -36.8460   56.8784   58.5373 C   0  0  0  0  0  0  0  0  0  0  0  0
  -35.4948   56.8372   57.8088 C   0  0  0  0  0  0  0  0  0  0  0  0
  -34.2488   56.8801   58.7125 C   0  0  0  0  0  0  0  0  0  0  0  0
  -34.2559   55.7002   59.7141 C   0  0  0  0  0  0  0  0  0  0  0  0
  -34.1085   56.0969   61.2050 C   0  0  0  0  0  0  0  0  0  0  0  0
  -35.1833   57.0903   61.7053 C   0  0  0  0  0  0  0  0  0  0  0  0
  -34.9964   57.5120   63.1789 C   0  0  0  0  0  0  0  0  0  0  0  0
  -33.5772   57.9893   63.5095 C   0  0  0  0  0  0  0  0  0  0  0  0
  -33.1038   59.2445   62.7796 C   0  0  0  0  0  0  0  0  0  0  0  0
  -31.7951   59.0522   61.9882 C   0  0  0  0  0  0  0  0  0  0  0  0
  -31.0198   60.3425   61.6815 C   0  0  0  0  0  0  0  0  0  0  0  0
  -29.8772   60.5481   62.6801 C   0  0  0  0  0  0  0  0  0  0  0  0
  -28.5241   60.9091   62.0931 C   0  0  0  0  0  0  0  0  0  0  0  0
  -36.6970   60.4767   62.3178 C   0  0  0  0  0  0  0  0  0  0  0  0
  -36.5201   61.8946   62.5658 O   0  0  0  0  0  0  0  0  0  0  0  0
  -34.0889   63.1660   61.7595 O   0  0  0  0  0  0  0  0  0  0  0  0
  -34.8582   65.5705   65.0799 O   0  0  0  0  0  0  0  0  0  0  0  0
  -36.0098   62.7906   64.7617 O   0  0  0  0  0  0  0  0  0  0  0  0
  -35.4701   62.3866   63.4799 C   0  0  0  0  0  0  0  0  0  0  0  0
  -34.6367   63.5733   62.9752 C   0  0  0  0  0  0  0  0  0  0  0  0
  -33.4806   63.9663   63.9208 C   0  0  0  0  0  0  0  0  0  0  0  0
  -34.1189   64.3604   65.2242 C   0  0  0  0  0  0  0  0  0  0  0  0
  -35.0120   63.2371   65.7192 C   0  0  0  0  0  0  0  0  0  0  0  0
  -34.8018   62.9148   61.1515 H   0  0  0  0  0  0  0  0  0  0  0  0
  -34.2693   66.2734   64.7632 H   0  0  0  0  0  0  0  0  0  0  0  0
  -36.9026   64.1637   66.8508 O   0  0  0  0  0  0  0  0  0  0  0  0
  -35.5560   63.8343   67.0151 C   0  0  0  0  0  0  0  0  0  0  0  0
  -37.2456   64.5427   67.6751 H   0  0  0  0  0  0  0  0  0  0  0  0
  -32.6795   65.0966   63.5078 O   0  0  0  0  0  0  0  0  0  0  0  0
  -30.1865   64.3883   63.4877 O   0  0  0  0  0  0  0  0  0  0  0  0
  -30.8928   66.3190   62.1983 O   0  0  0  0  0  0  0  0  0  0  0  0
  -31.4072   64.0808   61.4234 O   0  0  0  0  0  0  0  0  0  0  0  0
  -31.2730   64.9464   62.6294 S   0  0  0  0  0  0  0  0  0  0  0  0
  -30.0843   64.9396   64.2792 H   0  0  0  0  0  0  0  0  0  0  0  0
  -31.6551   63.1835   61.6954 H   0  0  0  0  0  0  0  0  0  0  0  0
  2  1  1  0  0  0
  2  4  1  0  0  0
  2  5  1  0  0  0
 41 42  1  0  0  0
 41  1  1  0  0  0
 42 46  1  0  0  0
  1 24  1  0  0  0
 23 24  1  0  0  0
 23 25  1  0  0  0
 24 26  1  0  0  0
  3  4  2  0  0  0
 26 27  2  0  0  0
 27 28  1  0  0  0
 43 47  1  0  0  0
 43 51  1  0  0  0
 28 29  1  0  0  0
 56 48  1  0  0  0
 56 60  1  0  0  0
 29 30  1  0  0  0
 57 60  1  0  0  0
 57 61  1  0  0  0
 30 31  1  0  0  0
 44 49  1  0  0  0
 44 52  1  0  0  0
 31 32  1  0  0  0
 45 46  1  0  0  0
 45 50  1  0  0  0
 32 33  1  0  0  0
 53 54  1  0  0  0
 53 55  1  0  0  0
 33 34  1  0  0  0
 34 35  1  0  0  0
 35 36  1  0  0  0
 58 60  1  0  0  0
 36 37  1  0  0  0
 59 60  1  0  0  0
 59 62  1  0  0  0
 37 38  1  0  0  0
 38 39  1  0  0  0
 39 40  1  0  0  0
  4  6  1  0  0  0
  6  7  1  0  0  0
  7  8  1  0  0  0
  8  9  1  0  0  0
  9 10  1  0  0  0
 10 11  1  0  0  0
 11 12  1  0  0  0
 12 13  1  0  0  0
 13 14  1  0  0  0
 14 15  1  0  0  0
 15 16  1  0  0  0
 16 17  1  0  0  0
 17 18  1  0  0  0
 18 19  1  0  0  0
 19 20  1  0  0  0
 20 21  1  0  0  0
 21 22  1  0  0  0
 46 47  1  0  0  0
 47 48  1  0  0  0
 48 49  1  0  0  0
 49 50  1  0  0  0
 50 54  1  0  0  0
M  CHG 1  58  -1
M  END
> <minimizedAffinity>
-9.57895

> <CNNscore>
0.3193758130

> <CNNaffinity>
6.8831453323

> <CNN_VS>
2.1983101368

> <CNNaffinity_variance>
1.5263427496

$$$$
/media/chris/experiments/cd1a-new-docking/inputs/ligands/1onq_ligand.pdb


 62 62  0  0  0  0  0  0  0  0999 V2000
  -38.7408   59.6470   63.3281 C   0  0  0  0  0  0  0  0  0  0  0  0
  -39.1368   60.3716   64.5194 N   0  0  0  0  0  0  0  0  0  0  0  0
  -40.6042   61.0017   66.1310 O   0  0  0  0  0  0  0  0  0  0  0  0
  -40.3262   60.3601   65.1366 C   0  0  0  0  0  0  0  0  0  0  0  0
  -38.4459   60.9435   64.9256 H   0  0  0  0  0  0  0  0  0  0  0  0
  -41.3626   59.4771   64.5072 C   0  0  0  0  0  0  0  0  0  0  0  0
  -41.8615   58.5417   65.6086 C   0  0  0  0  0  0  0  0  0  0  0  0
  -43.3327   58.2042   65.3794 C   0  0  0  0  0  0  0  0  0  0  0  0
  -44.3204   58.8863   66.2949 C   0  0  0  0  0  0  0  0  0  0  0  0
  -45.4628   59.4109   65.4314 C   0  0  0  0  0  0  0  0  0  0  0  0
  -46.8437   59.0121   65.9689 C   0  0  0  0  0  0  0  0  0  0  0  0
  -47.5202   57.8704   65.1882 C   0  0  0  0  0  0  0  0  0  0  0  0
  -47.8705   58.2615   63.7357 C   0  0  0  0  0  0  0  0  0  0  0  0
  -49.1265   59.1368   63.7001 C   0  0  0  0  0  0  0  0  0  0  0  0
  -50.4243   58.3912   63.4137 C   0  0  0  0  0  0  0  0  0  0  0  0
  -50.8843   58.5649   61.9739 C   0  0  0  0  0  0  0  0  0  0  0  0
  -50.9966   57.2828   61.1459 C   0  0  0  0  0  0  0  0  0  0  0  0
  -50.1707   57.4607   59.8790 C   0  0  0  0  0  0  0  0  0  0  0  0
  -48.7130   57.8762   60.0110 C   0  0  0  0  0  0  0  0  0  0  0  0
  -47.7956   56.9178   59.2352 C   0  0  0  0  0  0  0  0  0  0  0  0
  -48.1903   56.7087   57.7617 C   0  0  0  0  0  0  0  0  0  0  0  0
  -47.7380   55.3626   57.2003 C   0  0  0  0  0  0  0  0  0  0  0  0
  -37.0930   58.9726   64.8199 O   0  0  0  0  0  0  0  0  0  0  0  0
  -38.0253   58.4353   63.9003 C   0  0  0  0  0  0  0  0  0  0  0  0
  -37.5668   59.4486   65.5197 H   0  0  0  0  0  0  0  0  0  0  0  0
  -37.3406   57.6686   62.7663 C   0  0  0  0  0  0  0  0  0  0  0  0
  -38.0074   57.1780   61.7075 C   0  0  0  0  0  0  0  0  0  0  0  0
  -37.2513   56.4224   60.6164 C   0  0  0  0  0  0  0  0  0  0  0  0
  -37.0388   57.2348   59.3307 C   0  0  0  0  0  0  0  0  0  0  0  0
  -36.3060   56.5013   58.1922 C   0  0  0  0  0  0  0  0  0  0  0  0
  -34.7823   56.7638   58.2612 C   0  0  0  0  0  0  0  0  0  0  0  0
  -33.9626   55.7037   59.0397 C   0  0  0  0  0  0  0  0  0  0  0  0
  -33.6663   56.0860   60.5090 C   0  0  0  0  0  0  0  0  0  0  0  0
  -33.6321   57.6098   60.7558 C   0  0  0  0  0  0  0  0  0  0  0  0
  -33.8681   58.0040   62.2187 C   0  0  0  0  0  0  0  0  0  0  0  0
  -32.6161   58.2373   63.0617 C   0  0  0  0  0  0  0  0  0  0  0  0
  -31.4748   58.9446   62.3047 C   0  0  0  0  0  0  0  0  0  0  0  0
  -31.6337   60.4650   62.1523 C   0  0  0  0  0  0  0  0  0  0  0  0
  -30.3966   61.0842   61.4958 C   0  0  0  0  0  0  0  0  0  0  0  0
  -29.0522   60.6853   62.0782 C   0  0  0  0  0  0  0  0  0  0  0  0
  -37.9792   60.4745   62.2678 C   0  0  0  0  0  0  0  0  0  0  0  0
  -37.5844   61.8157   62.6533 O   0  0  0  0  0  0  0  0  0  0  0  0
  -35.4621   63.4690   61.6841 O   0  0  0  0  0  0  0  0  0  0  0  0
  -35.2131   64.5975   65.6920 O   0  0  0  0  0  0  0  0  0  0  0  0
  -36.4549   61.9887   64.7932 O   0  0  0  0  0  0  0  0  0  0  0  0
  -36.3094   62.0665   63.3544 C   0  0  0  0  0  0  0  0  0  0  0  0
  -35.6341   63.4151   63.0667 C   0  0  0  0  0  0  0  0  0  0  0  0
  -34.2501   63.5708   63.7341 C   0  0  0  0  0  0  0  0  0  0  0  0
  -34.4841   63.4688   65.2161 C   0  0  0  0  0  0  0  0  0  0  0  0
  -35.2183   62.1784   65.5326 C   0  0  0  0  0  0  0  0  0  0  0  0
  -36.3228   63.3727   61.2471 H   0  0  0  0  0  0  0  0  0  0  0  0
  -34.7268   65.4095   65.4795 H   0  0  0  0  0  0  0  0  0  0  0  0
  -34.1549   62.7078   67.6068 O   0  0  0  0  0  0  0  0  0  0  0  0
  -35.3606   62.2777   67.0497 C   0  0  0  0  0  0  0  0  0  0  0  0
  -34.2479   62.7700   68.5703 H   0  0  0  0  0  0  0  0  0  0  0  0
  -33.5805   64.8339   63.5190 O   0  0  0  0  0  0  0  0  0  0  0  0
  -31.5871   66.3899   62.9516 O   0  0  0  0  0  0  0  0  0  0  0  0
  -31.8467   64.2933   61.7575 O   0  0  0  0  0  0  0  0  0  0  0  0
  -31.0434   64.3027   64.0442 O   0  0  0  0  0  0  0  0  0  0  0  0
  -31.9780   64.9553   63.0838 S   0  0  0  0  0  0  0  0  0  0  0  0
  -32.1855   66.8321   62.3292 H   0  0  0  0  0  0  0  0  0  0  0  0
  -31.1225   64.7284   64.9121 H   0  0  0  0  0  0  0  0  0  0  0  0
  2  1  1  0  0  0
  2  4  1  0  0  0
  2  5  1  0  0  0
 41 42  1  0  0  0
 41  1  1  0  0  0
 42 46  1  0  0  0
  1 24  1  0  0  0
 23 24  1  0  0  0
 23 25  1  0  0  0
 24 26  1  0  0  0
  3  4  2  0  0  0
 26 27  2  0  0  0
 27 28  1  0  0  0
 43 47  1  0  0  0
 43 51  1  0  0  0
 28 29  1  0  0  0
 56 48  1  0  0  0
 56 60  1  0  0  0
 29 30  1  0  0  0
 57 60  1  0  0  0
 57 61  1  0  0  0
 30 31  1  0  0  0
 44 49  1  0  0  0
 44 52  1  0  0  0
 31 32  1  0  0  0
 45 46  1  0  0  0
 45 50  1  0  0  0
 32 33  1  0  0  0
 53 54  1  0  0  0
 53 55  1  0  0  0
 33 34  1  0  0  0
 34 35  1  0  0  0
 35 36  1  0  0  0
 58 60  1  0  0  0
 36 37  1  0  0  0
 59 60  1  0  0  0
 59 62  1  0  0  0
 37 38  1  0  0  0
 38 39  1  0  0  0
 39 40  1  0  0  0
  4  6  1  0  0  0
  6  7  1  0  0  0
  7  8  1  0  0  0
  8  9  1  0  0  0
  9 10  1  0  0  0
 10 11  1  0  0  0
 11 12  1  0  0  0
 12 13  1  0  0  0
 13 14  1  0  0  0
 14 15  1  0  0  0
 15 16  1  0  0  0
 16 17  1  0  0  0
 17 18  1  0  0  0
 18 19  1  0  0  0
 19 20  1  0  0  0
 20 21  1  0  0  0
 21 22  1  0  0  0
 46 47  1  0  0  0
 47 48  1  0  0  0
 48 49  1  0  0  0
 49 50  1  0  0  0
 50 54  1  0  0  0
M  CHG 1  58  -1
M  END
> <minimizedAffinity>
-9.71822

> <CNNscore>
0.3142800331

> <CNNaffinity>
6.9898338318

> <CNN_VS>
2.1967651844

> <CNNaffinity_variance>
0.9279348254

$$$$
/media/chris/experiments/cd1a-new-docking/inputs/ligands/1onq_ligand.pdb


 62 62  0  0  0  0  0  0  0  0999 V2000
  -37.0217   59.5377   63.6987 C   0  0  0  0  0  0  0  0  0  0  0  0
  -37.6577   59.7672   64.9808 N   0  0  0  0  0  0  0  0  0  0  0  0
  -39.3524   60.4540   66.3239 O   0  0  0  0  0  0  0  0  0  0  0  0
  -38.8754   60.2728   65.2206 C   0  0  0  0  0  0  0  0  0  0  0  0
  -37.1295   59.5209   65.7743 H   0  0  0  0  0  0  0  0  0  0  0  0
  -39.6674   60.6343   63.9992 C   0  0  0  0  0  0  0  0  0  0  0  0
  -41.1147   60.2350   64.2874 C   0  0  0  0  0  0  0  0  0  0  0  0
  -41.1781   58.7667   64.7010 C   0  0  0  0  0  0  0  0  0  0  0  0
  -42.3119   58.3851   65.6216 C   0  0  0  0  0  0  0  0  0  0  0  0
  -43.5406   59.1808   65.1937 C   0  0  0  0  0  0  0  0  0  0  0  0
  -44.8384   58.3683   65.2964 C   0  0  0  0  0  0  0  0  0  0  0  0
  -46.1193   59.2226   65.3146 C   0  0  0  0  0  0  0  0  0  0  0  0
  -46.8988   59.1076   66.6429 C   0  0  0  0  0  0  0  0  0  0  0  0
  -48.4084   59.1324   66.3870 C   0  0  0  0  0  0  0  0  0  0  0  0
  -48.9241   58.0358   65.4630 C   0  0  0  0  0  0  0  0  0  0  0  0
  -50.3468   58.2990   64.9924 C   0  0  0  0  0  0  0  0  0  0  0  0
  -50.4870   59.0217   63.6507 C   0  0  0  0  0  0  0  0  0  0  0  0
  -49.1484   58.9480   62.9285 C   0  0  0  0  0  0  0  0  0  0  0  0
  -49.0098   58.0032   61.7440 C   0  0  0  0  0  0  0  0  0  0  0  0
  -49.9437   58.4192   60.5965 C   0  0  0  0  0  0  0  0  0  0  0  0
  -50.0031   57.4193   59.4270 C   0  0  0  0  0  0  0  0  0  0  0  0
  -48.6300   57.0811   58.8511 C   0  0  0  0  0  0  0  0  0  0  0  0
  -36.7105   57.2359   63.6690 O   0  0  0  0  0  0  0  0  0  0  0  0
  -37.6376   58.2220   63.2545 C   0  0  0  0  0  0  0  0  0  0  0  0
  -36.6226   57.2604   64.6346 H   0  0  0  0  0  0  0  0  0  0  0  0
  -37.8234   58.2367   61.7353 C   0  0  0  0  0  0  0  0  0  0  0  0
  -37.9335   59.3706   61.0223 C   0  0  0  0  0  0  0  0  0  0  0  0
  -38.1181   59.3014   59.5076 C   0  0  0  0  0  0  0  0  0  0  0  0
  -37.7602   57.9375   58.8994 C   0  0  0  0  0  0  0  0  0  0  0  0
  -36.6496   57.9542   57.8328 C   0  0  0  0  0  0  0  0  0  0  0  0
  -35.9069   56.5969   57.7921 C   0  0  0  0  0  0  0  0  0  0  0  0
  -36.2909   55.5985   58.9135 C   0  0  0  0  0  0  0  0  0  0  0  0
  -35.1784   55.3657   59.9626 C   0  0  0  0  0  0  0  0  0  0  0  0
  -33.9300   56.2479   59.7451 C   0  0  0  0  0  0  0  0  0  0  0  0
  -33.8348   57.4330   60.7135 C   0  0  0  0  0  0  0  0  0  0  0  0
  -33.4493   57.0953   62.1521 C   0  0  0  0  0  0  0  0  0  0  0  0
  -32.4030   58.0500   62.7603 C   0  0  0  0  0  0  0  0  0  0  0  0
  -31.9789   59.2178   61.8568 C   0  0  0  0  0  0  0  0  0  0  0  0
  -30.6180   59.7762   62.2824 C   0  0  0  0  0  0  0  0  0  0  0  0
  -30.0797   60.9380   61.4662 C   0  0  0  0  0  0  0  0  0  0  0  0
  -35.4786   59.6253   63.6959 C   0  0  0  0  0  0  0  0  0  0  0  0
  -34.8972   60.8014   63.0779 O   0  0  0  0  0  0  0  0  0  0  0  0
  -32.9595   62.6376   62.0527 O   0  0  0  0  0  0  0  0  0  0  0  0
  -34.7987   65.2590   64.7256 O   0  0  0  0  0  0  0  0  0  0  0  0
  -34.9270   62.2506   65.0231 O   0  0  0  0  0  0  0  0  0  0  0  0
  -34.1631   61.8024   63.8773 C   0  0  0  0  0  0  0  0  0  0  0  0
  -33.7259   63.0725   63.1333 C   0  0  0  0  0  0  0  0  0  0  0  0
  -32.8623   64.0259   63.9880 C   0  0  0  0  0  0  0  0  0  0  0  0
  -33.7175   64.4354   65.1551 C   0  0  0  0  0  0  0  0  0  0  0  0
  -34.2309   63.2009   65.8741 C   0  0  0  0  0  0  0  0  0  0  0  0
  -33.4867   62.0365   61.5035 H   0  0  0  0  0  0  0  0  0  0  0  0
  -34.4486   66.0404   64.2696 H   0  0  0  0  0  0  0  0  0  0  0  0
  -34.2722   64.7077   67.7291 O   0  0  0  0  0  0  0  0  0  0  0  0
  -35.0642   63.8274   66.9898 C   0  0  0  0  0  0  0  0  0  0  0  0
  -34.8038   65.1043   68.4370 H   0  0  0  0  0  0  0  0  0  0  0  0
  -32.4454   65.2520   63.3454 O   0  0  0  0  0  0  0  0  0  0  0  0
  -29.9604   64.6210   62.9672 O   0  0  0  0  0  0  0  0  0  0  0  0
  -30.7620   66.8012   62.2649 O   0  0  0  0  0  0  0  0  0  0  0  0
  -31.3310   64.8228   60.9856 O   0  0  0  0  0  0  0  0  0  0  0  0
  -31.1081   65.3569   62.3592 S   0  0  0  0  0  0  0  0  0  0  0  0
  -29.8000   64.9556   63.8634 H   0  0  0  0  0  0  0  0  0  0  0  0
  -31.5573   63.8811   61.0377 H   0  0  0  0  0  0  0  0  0  0  0  0
  2  1  1  0  0  0
  2  4  1  0  0  0
  2  5  1  0  0  0
 41 42  1  0  0  0
 41  1  1  0  0  0
 42 46  1  0  0  0
  1 24  1  0  0  0
 23 24  1  0  0  0
 23 25  1  0  0  0
 24 26  1  0  0  0
  3  4  2  0  0  0
 26 27  2  0  0  0
 27 28  1  0  0  0
 43 47  1  0  0  0
 43 51  1  0  0  0
 28 29  1  0  0  0
 56 48  1  0  0  0
 56 60  1  0  0  0
 29 30  1  0  0  0
 57 60  1  0  0  0
 57 61  1  0  0  0
 30 31  1  0  0  0
 44 49  1  0  0  0
 44 52  1  0  0  0
 31 32  1  0  0  0
 45 46  1  0  0  0
 45 50  1  0  0  0
 32 33  1  0  0  0
 53 54  1  0  0  0
 53 55  1  0  0  0
 33 34  1  0  0  0
 34 35  1  0  0  0
 35 36  1  0  0  0
 58 60  1  0  0  0
 36 37  1  0  0  0
 59 60  1  0  0  0
 59 62  1  0  0  0
 37 38  1  0  0  0
 38 39  1  0  0  0
 39 40  1  0  0  0
  4  6  1  0  0  0
  6  7  1  0  0  0
  7  8  1  0  0  0
  8  9  1  0  0  0
  9 10  1  0  0  0
 10 11  1  0  0  0
 11 12  1  0  0  0
 12 13  1  0  0  0
 13 14  1  0  0  0
 14 15  1  0  0  0
 15 16  1  0  0  0
 16 17  1  0  0  0
 17 18  1  0  0  0
 18 19  1  0  0  0
 19 20  1  0  0  0
 20 21  1  0  0  0
 21 22  1  0  0  0
 46 47  1  0  0  0
 47 48  1  0  0  0
 48 49  1  0  0  0
 49 50  1  0  0  0
 50 54  1  0  0  0
M  CHG 1  58  -1
M  END
> <minimizedAffinity>
-9.37484

> <CNNscore>
0.2955276966

> <CNNaffinity>
6.9055757523

> <CNN_VS>
2.0407888889

> <CNNaffinity_variance>
1.2020075321

$$$$
/media/chris/experiments/cd1a-new-docking/inputs/ligands/1onq_ligand.pdb


 62 62  0  0  0  0  0  0  0  0999 V2000
  -38.7765   59.7551   60.7593 C   0  0  0  0  0  0  0  0  0  0  0  0
  -37.8605   59.6163   59.6444 N   0  0  0  0  0  0  0  0  0  0  0  0
  -36.3923   58.4814   58.3391 O   0  0  0  0  0  0  0  0  0  0  0  0
  -37.1579   58.5343   59.2819 C   0  0  0  0  0  0  0  0  0  0  0  0
  -37.7395   60.4166   59.0839 H   0  0  0  0  0  0  0  0  0  0  0  0
  -37.3619   57.3235   60.1433 C   0  0  0  0  0  0  0  0  0  0  0  0
  -36.0362   56.5622   60.1416 C   0  0  0  0  0  0  0  0  0  0  0  0
  -35.3616   56.6866   61.5055 C   0  0  0  0  0  0  0  0  0  0  0  0
  -35.1064   58.0920   61.9938 C   0  0  0  0  0  0  0  0  0  0  0  0
  -34.8958   58.0243   63.5028 C   0  0  0  0  0  0  0  0  0  0  0  0
  -35.9162   57.1176   64.2038 C   0  0  0  0  0  0  0  0  0  0  0  0
  -37.1641   57.8543   64.7240 C   0  0  0  0  0  0  0  0  0  0  0  0
  -38.4325   57.5422   63.8999 C   0  0  0  0  0  0  0  0  0  0  0  0
  -39.6935   57.8221   64.7226 C   0  0  0  0  0  0  0  0  0  0  0  0
  -39.7585   59.2086   65.3516 C   0  0  0  0  0  0  0  0  0  0  0  0
  -40.9144   60.0354   64.8083 C   0  0  0  0  0  0  0  0  0  0  0  0
  -42.2949   59.3770   64.8639 C   0  0  0  0  0  0  0  0  0  0  0  0
  -42.6967   59.2370   66.3260 C   0  0  0  0  0  0  0  0  0  0  0  0
  -44.1382   58.8783   66.6551 C   0  0  0  0  0  0  0  0  0  0  0  0
  -45.0783   59.2669   65.5030 C   0  0  0  0  0  0  0  0  0  0  0  0
  -45.8490   58.0874   64.8822 C   0  0  0  0  0  0  0  0  0  0  0  0
  -45.2316   56.7276   65.2008 C   0  0  0  0  0  0  0  0  0  0  0  0
  -40.9501   60.4818   61.1372 O   0  0  0  0  0  0  0  0  0  0  0  0
  -39.9532   60.4827   60.1322 C   0  0  0  0  0  0  0  0  0  0  0  0
  -40.6270   60.9652   61.9135 H   0  0  0  0  0  0  0  0  0  0  0  0
  -40.4010   59.7333   58.8750 C   0  0  0  0  0  0  0  0  0  0  0  0
  -41.6855   59.6561   58.4875 C   0  0  0  0  0  0  0  0  0  0  0  0
  -42.0523   58.8877   57.2194 C   0  0  0  0  0  0  0  0  0  0  0  0
  -43.5625   58.6825   57.0315 C   0  0  0  0  0  0  0  0  0  0  0  0
  -44.3256   58.1774   58.2699 C   0  0  0  0  0  0  0  0  0  0  0  0
  -45.8407   58.0666   57.9740 C   0  0  0  0  0  0  0  0  0  0  0  0
  -46.6387   57.1546   58.9399 C   0  0  0  0  0  0  0  0  0  0  0  0
  -47.9132   57.8099   59.5220 C   0  0  0  0  0  0  0  0  0  0  0  0
  -49.0566   56.8071   59.7886 C   0  0  0  0  0  0  0  0  0  0  0  0
  -50.4275   57.4685   59.9745 C   0  0  0  0  0  0  0  0  0  0  0  0
  -50.9763   57.4872   61.3996 C   0  0  0  0  0  0  0  0  0  0  0  0
  -50.1175   58.2977   62.3904 C   0  0  0  0  0  0  0  0  0  0  0  0
  -50.8943   58.9689   63.5333 C   0  0  0  0  0  0  0  0  0  0  0  0
  -50.4889   58.3862   64.8902 C   0  0  0  0  0  0  0  0  0  0  0  0
  -49.3927   59.1217   65.6404 C   0  0  0  0  0  0  0  0  0  0  0  0
  -38.1747   60.3714   62.0426 C   0  0  0  0  0  0  0  0  0  0  0  0
  -37.1050   61.3336   61.8596 O   0  0  0  0  0  0  0  0  0  0  0  0
  -35.2889   63.5420   61.8202 O   0  0  0  0  0  0  0  0  0  0  0  0
  -36.7413   64.1305   65.6858 O   0  0  0  0  0  0  0  0  0  0  0  0
  -36.8699   61.4590   64.2708 O   0  0  0  0  0  0  0  0  0  0  0  0
  -36.2628   61.7665   62.9924 C   0  0  0  0  0  0  0  0  0  0  0  0
  -35.9067   63.2594   63.0377 C   0  0  0  0  0  0  0  0  0  0  0  0
  -34.9297   63.6299   64.1750 C   0  0  0  0  0  0  0  0  0  0  0  0
  -35.6252   63.2731   65.4597 C   0  0  0  0  0  0  0  0  0  0  0  0
  -36.0595   61.8190   65.4221 C   0  0  0  0  0  0  0  0  0  0  0  0
  -35.8890   63.3151   61.0927 H   0  0  0  0  0  0  0  0  0  0  0  0
  -36.4415   65.0529   65.7060 H   0  0  0  0  0  0  0  0  0  0  0  0
  -36.0600   62.4432   67.7295 O   0  0  0  0  0  0  0  0  0  0  0  0
  -36.7370   61.6722   66.7827 C   0  0  0  0  0  0  0  0  0  0  0  0
  -36.4923   62.3482   68.5926 H   0  0  0  0  0  0  0  0  0  0  0  0
  -34.5816   65.0290   64.2817 O   0  0  0  0  0  0  0  0  0  0  0  0
  -33.0879   67.0469   64.9249 O   0  0  0  0  0  0  0  0  0  0  0  0
  -32.1260   65.1898   63.6941 O   0  0  0  0  0  0  0  0  0  0  0  0
  -32.6212   64.9613   66.0557 O   0  0  0  0  0  0  0  0  0  0  0  0
  -33.0823   65.5619   64.7718 S   0  0  0  0  0  0  0  0  0  0  0  0
  -33.3860   67.4561   64.0975 H   0  0  0  0  0  0  0  0  0  0  0  0
  -33.2393   65.1991   66.7643 H   0  0  0  0  0  0  0  0  0  0  0  0
  2  1  1  0  0  0
  2  4  1  0  0  0
  2  5  1  0  0  0
 41 42  1  0  0  0
 41  1  1  0  0  0
 42 46  1  0  0  0
  1 24  1  0  0  0
 23 24  1  0  0  0
 23 25  1  0  0  0
 24 26  1  0  0  0
  3  4  2  0  0  0
 26 27  2  0  0  0
 27 28  1  0  0  0
 43 47  1  0  0  0
 43 51  1  0  0  0
 28 29  1  0  0  0
 56 48  1  0  0  0
 56 60  1  0  0  0
 29 30  1  0  0  0
 57 60  1  0  0  0
 57 61  1  0  0  0
 30 31  1  0  0  0
 44 49  1  0  0  0
 44 52  1  0  0  0
 31 32  1  0  0  0
 45 46  1  0  0  0
 45 50  1  0  0  0
 32 33  1  0  0  0
 53 54  1  0  0  0
 53 55  1  0  0  0
 33 34  1  0  0  0
 34 35  1  0  0  0
 35 36  1  0  0  0
 58 60  1  0  0  0
 36 37  1  0  0  0
 59 60  1  0  0  0
 59 62  1  0  0  0
 37 38  1  0  0  0
 38 39  1  0  0  0
 39 40  1  0  0  0
  4  6  1  0  0  0
  6  7  1  0  0  0
  7  8  1  0  0  0
  8  9  1  0  0  0
  9 10  1  0  0  0
 10 11  1  0  0  0
 11 12  1  0  0  0
 12 13  1  0  0  0
 13 14  1  0  0  0
 14 15  1  0  0  0
 15 16  1  0  0  0
 16 17  1  0  0  0
 17 18  1  0  0  0
 18 19  1  0  0  0
 19 20  1  0  0  0
 20 21  1  0  0  0
 21 22  1  0  0  0
 46 47  1  0  0  0
 47 48  1  0  0  0
 48 49  1  0  0  0
 49 50  1  0  0  0
 50 54  1  0  0  0
M  CHG 1  58  -1
M  END
> <minimizedAffinity>
-9.22383

> <CNNscore>
0.2917009294

> <CNNaffinity>
7.1931824684

> <CNN_VS>
2.0982580185

> <CNNaffinity_variance>
1.3205344677

$$$$
/media/chris/experiments/cd1a-new-docking/inputs/ligands/1onq_ligand.pdb


 62 62  0  0  0  0  0  0  0  0999 V2000
  -38.5025   59.8926   62.6365 C   0  0  0  0  0  0  0  0  0  0  0  0
  -39.0693   60.4355   61.4179 N   0  0  0  0  0  0  0  0  0  0  0  0
  -39.4962   60.4355   59.1896 O   0  0  0  0  0  0  0  0  0  0  0  0
  -39.0090   59.9259   60.1799 C   0  0  0  0  0  0  0  0  0  0  0  0
  -39.5596   61.2841   61.5113 H   0  0  0  0  0  0  0  0  0  0  0  0
  -38.2649   58.6292   60.0597 C   0  0  0  0  0  0  0  0  0  0  0  0
  -37.3830   58.7493   58.8167 C   0  0  0  0  0  0  0  0  0  0  0  0
  -37.4825   57.4751   57.9815 C   0  0  0  0  0  0  0  0  0  0  0  0
  -36.2254   56.6450   57.8853 C   0  0  0  0  0  0  0  0  0  0  0  0
  -35.0483   57.6052   57.7508 C   0  0  0  0  0  0  0  0  0  0  0  0
  -33.7045   56.9473   58.0919 C   0  0  0  0  0  0  0  0  0  0  0  0
  -33.8191   55.7108   59.0021 C   0  0  0  0  0  0  0  0  0  0  0  0
  -33.5979   56.0412   60.4945 C   0  0  0  0  0  0  0  0  0  0  0  0
  -34.9234   55.9957   61.2599 C   0  0  0  0  0  0  0  0  0  0  0  0
  -35.3546   57.3182   61.8823 C   0  0  0  0  0  0  0  0  0  0  0  0
  -35.3007   57.2856   63.4024 C   0  0  0  0  0  0  0  0  0  0  0  0
  -34.1812   58.1023   64.0519 C   0  0  0  0  0  0  0  0  0  0  0  0
  -33.5226   58.9500   62.9719 C   0  0  0  0  0  0  0  0  0  0  0  0
  -32.0745   58.6644   62.6025 C   0  0  0  0  0  0  0  0  0  0  0  0
  -31.5609   59.6780   61.5676 C   0  0  0  0  0  0  0  0  0  0  0  0
  -30.7373   60.8354   62.1616 C   0  0  0  0  0  0  0  0  0  0  0  0
  -29.2297   60.6046   62.0868 C   0  0  0  0  0  0  0  0  0  0  0  0
  -38.7344   61.0060   64.6620 O   0  0  0  0  0  0  0  0  0  0  0  0
  -39.5071   60.3257   63.6904 C   0  0  0  0  0  0  0  0  0  0  0  0
  -38.3134   61.7799   64.2562 H   0  0  0  0  0  0  0  0  0  0  0  0
  -40.2010   59.0897   64.2676 C   0  0  0  0  0  0  0  0  0  0  0  0
  -41.1806   59.1617   65.1849 C   0  0  0  0  0  0  0  0  0  0  0  0
  -41.8233   57.8806   65.7131 C   0  0  0  0  0  0  0  0  0  0  0  0
  -43.2627   58.0681   66.2143 C   0  0  0  0  0  0  0  0  0  0  0  0
  -44.3022   57.0896   65.6371 C   0  0  0  0  0  0  0  0  0  0  0  0
  -45.7378   57.6319   65.8382 C   0  0  0  0  0  0  0  0  0  0  0  0
  -45.8344   59.1439   66.1642 C   0  0  0  0  0  0  0  0  0  0  0  0
  -47.2703   59.7154   66.0993 C   0  0  0  0  0  0  0  0  0  0  0  0
  -48.3527   58.6403   65.8616 C   0  0  0  0  0  0  0  0  0  0  0  0
  -49.6604   59.1970   65.2860 C   0  0  0  0  0  0  0  0  0  0  0  0
  -50.4624   58.2463   64.3997 C   0  0  0  0  0  0  0  0  0  0  0  0
  -50.8402   58.8386   63.0277 C   0  0  0  0  0  0  0  0  0  0  0  0
  -49.6599   59.0989   62.0795 C   0  0  0  0  0  0  0  0  0  0  0  0
  -49.8522   58.3668   60.7483 C   0  0  0  0  0  0  0  0  0  0  0  0
  -50.9036   57.2715   60.7259 C   0  0  0  0  0  0  0  0  0  0  0  0
  -37.0198   60.2442   62.8954 C   0  0  0  0  0  0  0  0  0  0  0  0
  -36.6587   61.6452   62.7943 O   0  0  0  0  0  0  0  0  0  0  0  0
  -34.3600   63.0651   61.8577 O   0  0  0  0  0  0  0  0  0  0  0  0
  -35.1535   65.4809   65.1643 O   0  0  0  0  0  0  0  0  0  0  0  0
  -36.1190   62.6213   64.9485 O   0  0  0  0  0  0  0  0  0  0  0  0
  -35.6077   62.2285   63.6517 C   0  0  0  0  0  0  0  0  0  0  0  0
  -34.8825   63.4593   63.0889 C   0  0  0  0  0  0  0  0  0  0  0  0
  -33.7174   63.9519   63.9750 C   0  0  0  0  0  0  0  0  0  0  0  0
  -34.3253   64.3284   65.2979 C   0  0  0  0  0  0  0  0  0  0  0  0
  -35.1149   63.1566   65.8525 C   0  0  0  0  0  0  0  0  0  0  0  0
  -35.0789   62.7520   61.2867 H   0  0  0  0  0  0  0  0  0  0  0  0
  -34.6298   66.2160   64.8091 H   0  0  0  0  0  0  0  0  0  0  0  0
  -36.9780   64.1194   66.9995 O   0  0  0  0  0  0  0  0  0  0  0  0
  -35.6435   63.7420   67.1601 C   0  0  0  0  0  0  0  0  0  0  0  0
  -37.3112   64.4909   67.8313 H   0  0  0  0  0  0  0  0  0  0  0  0
  -33.0164   65.1261   63.5061 O   0  0  0  0  0  0  0  0  0  0  0  0
  -30.5353   64.3781   63.5465 O   0  0  0  0  0  0  0  0  0  0  0  0
  -31.1382   66.4677   62.4698 O   0  0  0  0  0  0  0  0  0  0  0  0
  -31.6297   64.3538   61.3906 O   0  0  0  0  0  0  0  0  0  0  0  0
  -31.5602   65.0596   62.7016 S   0  0  0  0  0  0  0  0  0  0  0  0
  -30.4759   64.8244   64.4057 H   0  0  0  0  0  0  0  0  0  0  0  0
  -31.9042   63.4345   61.5325 H   0  0  0  0  0  0  0  0  0  0  0  0
  2  1  1  0  0  0
  2  4  1  0  0  0
  2  5  1  0  0  0
 41 42  1  0  0  0
 41  1  1  0  0  0
 42 46  1  0  0  0
  1 24  1  0  0  0
 23 24  1  0  0  0
 23 25  1  0  0  0
 24 26  1  0  0  0
  3  4  2  0  0  0
 26 27  2  0  0  0
 27 28  1  0  0  0
 43 47  1  0  0  0
 43 51  1  0  0  0
 28 29  1  0  0  0
 56 48  1  0  0  0
 56 60  1  0  0  0
 29 30  1  0  0  0
 57 60  1  0  0  0
 57 61  1  0  0  0
 30 31  1  0  0  0
 44 49  1  0  0  0
 44 52  1  0  0  0
 31 32  1  0  0  0
 45 46  1  0  0  0
 45 50  1  0  0  0
 32 33  1  0  0  0
 53 54  1  0  0  0
 53 55  1  0  0  0
 33 34  1  0  0  0
 34 35  1  0  0  0
 35 36  1  0  0  0
 58 60  1  0  0  0
 36 37  1  0  0  0
 59 60  1  0  0  0
 59 62  1  0  0  0
 37 38  1  0  0  0
 38 39  1  0  0  0
 39 40  1  0  0  0
  4  6  1  0  0  0
  6  7  1  0  0  0
  7  8  1  0  0  0
  8  9  1  0  0  0
  9 10  1  0  0  0
 10 11  1  0  0  0
 11 12  1  0  0  0
 12 13  1  0  0  0
 13 14  1  0  0  0
 14 15  1  0  0  0
 15 16  1  0  0  0
 16 17  1  0  0  0
 17 18  1  0  0  0
 18 19  1  0  0  0
 19 20  1  0  0  0
 20 21  1  0  0  0
 21 22  1  0  0  0
 46 47  1  0  0  0
 47 48  1  0  0  0
 48 49  1  0  0  0
 49 50  1  0  0  0
 50 54  1  0  0  0
M  CHG 1  58  -1
M  END
> <minimizedAffinity>
-9.59296

> <CNNscore>
0.2810402215

> <CNNaffinity>
7.0251312256

> <CNN_VS>
1.9743444920

> <CNNaffinity_variance>
1.4078700542

$$$$
