/media/chris/experiments/cd1a-new-docking/inputs/ligands/1onq_ligand.pdb


 62 62  0  0  0  0  0  0  0  0999 V2000
  -39.4115   59.2797   63.0618 C   0  0  0  0  0  0  0  0  0  0  0  0
  -39.9469   59.3734   64.4055 N   0  0  0  0  0  0  0  0  0  0  0  0
  -41.9694   60.3361   64.0447 O   0  0  0  0  0  0  0  0  0  0  0  0
  -41.1305   59.8699   64.7907 C   0  0  0  0  0  0  0  0  0  0  0  0
  -39.3691   59.0295   65.1247 H   0  0  0  0  0  0  0  0  0  0  0  0
  -41.3950   59.8156   66.2662 C   0  0  0  0  0  0  0  0  0  0  0  0
  -42.2661   58.5822   66.5050 C   0  0  0  0  0  0  0  0  0  0  0  0
  -43.6884   59.0090   66.8596 C   0  0  0  0  0  0  0  0  0  0  0  0
  -44.6951   58.9611   65.7359 C   0  0  0  0  0  0  0  0  0  0  0  0
  -46.0809   58.8502   66.3632 C   0  0  0  0  0  0  0  0  0  0  0  0
  -47.1441   59.6489   65.5974 C   0  0  0  0  0  0  0  0  0  0  0  0
  -48.5810   59.4424   66.1103 C   0  0  0  0  0  0  0  0  0  0  0  0
  -49.2036   58.1119   65.6330 C   0  0  0  0  0  0  0  0  0  0  0  0
  -50.2508   58.3655   64.5449 C   0  0  0  0  0  0  0  0  0  0  0  0
  -49.7242   59.0513   63.2902 C   0  0  0  0  0  0  0  0  0  0  0  0
  -50.6699   58.8979   62.1083 C   0  0  0  0  0  0  0  0  0  0  0  0
  -50.8471   57.4759   61.5707 C   0  0  0  0  0  0  0  0  0  0  0  0
  -50.4098   57.4609   60.1121 C   0  0  0  0  0  0  0  0  0  0  0  0
  -49.3044   56.5034   59.6920 C   0  0  0  0  0  0  0  0  0  0  0  0
  -48.3261   57.1847   58.7221 C   0  0  0  0  0  0  0  0  0  0  0  0
  -48.3108   56.5847   57.3042 C   0  0  0  0  0  0  0  0  0  0  0  0
  -47.6804   55.1953   57.2430 C   0  0  0  0  0  0  0  0  0  0  0  0
  -39.5276   57.1835   64.0557 O   0  0  0  0  0  0  0  0  0  0  0  0
  -38.8358   57.8743   63.0321 C   0  0  0  0  0  0  0  0  0  0  0  0
  -40.4755   57.1663   63.8506 H   0  0  0  0  0  0  0  0  0  0  0  0
  -37.3294   57.9378   63.2955 C   0  0  0  0  0  0  0  0  0  0  0  0
  -36.7428   57.3282   64.3397 C   0  0  0  0  0  0  0  0  0  0  0  0
  -35.2318   57.4400   64.5346 C   0  0  0  0  0  0  0  0  0  0  0  0
  -34.7063   58.8827   64.5052 C   0  0  0  0  0  0  0  0  0  0  0  0
  -34.0012   59.3088   63.2042 C   0  0  0  0  0  0  0  0  0  0  0  0
  -32.7468   58.4388   62.9491 C   0  0  0  0  0  0  0  0  0  0  0  0
  -32.8374   57.4890   61.7280 C   0  0  0  0  0  0  0  0  0  0  0  0
  -34.2638   57.3354   61.1494 C   0  0  0  0  0  0  0  0  0  0  0  0
  -34.4872   56.0022   60.4033 C   0  0  0  0  0  0  0  0  0  0  0  0
  -33.7684   55.9229   59.0512 C   0  0  0  0  0  0  0  0  0  0  0  0
  -34.3777   56.7453   57.9178 C   0  0  0  0  0  0  0  0  0  0  0  0
  -35.9182   56.7112   57.8779 C   0  0  0  0  0  0  0  0  0  0  0  0
  -36.6052   58.0842   57.9331 C   0  0  0  0  0  0  0  0  0  0  0  0
  -37.2787   58.3079   59.2902 C   0  0  0  0  0  0  0  0  0  0  0  0
  -38.5127   59.1926   59.2938 C   0  0  0  0  0  0  0  0  0  0  0  0
  -38.4714   60.4311   62.6380 C   0  0  0  0  0  0  0  0  0  0  0  0
  -38.2717   61.4939   63.6044 O   0  0  0  0  0  0  0  0  0  0  0  0
  -36.1518   62.4191   61.9229 O   0  0  0  0  0  0  0  0  0  0  0  0
  -35.4262   64.9809   65.1338 O   0  0  0  0  0  0  0  0  0  0  0  0
  -36.9237   62.3675   65.4224 O   0  0  0  0  0  0  0  0  0  0  0  0
  -36.9188   61.8667   64.0635 C   0  0  0  0  0  0  0  0  0  0  0  0
  -36.1871   62.9228   63.2226 C   0  0  0  0  0  0  0  0  0  0  0  0
  -34.7357   63.1843   63.6811 C   0  0  0  0  0  0  0  0  0  0  0  0
  -34.8258   63.6886   65.0950 C   0  0  0  0  0  0  0  0  0  0  0  0
  -35.6091   62.7030   65.9430 C   0  0  0  0  0  0  0  0  0  0  0  0
  -37.0565   62.2485   61.6175 H   0  0  0  0  0  0  0  0  0  0  0  0
  -34.9106   65.5936   64.5862 H   0  0  0  0  0  0  0  0  0  0  0  0
  -36.3506   62.6602   68.2150 O   0  0  0  0  0  0  0  0  0  0  0  0
  -35.5912   63.3962   67.3036 C   0  0  0  0  0  0  0  0  0  0  0  0
  -36.3376   63.1025   69.0782 H   0  0  0  0  0  0  0  0  0  0  0  0
  -34.0082   64.1908   62.9410 O   0  0  0  0  0  0  0  0  0  0  0  0
  -31.9101   64.3037   61.4237 O   0  0  0  0  0  0  0  0  0  0  0  0
  -31.8554   62.9610   63.4443 O   0  0  0  0  0  0  0  0  0  0  0  0
  -31.7335   65.3777   63.5828 O   0  0  0  0  0  0  0  0  0  0  0  0
  -32.3463   64.2337   62.8497 S   0  0  0  0  0  0  0  0  0  0  0  0
  -32.2999   63.5655   60.9297 H   0  0  0  0  0  0  0  0  0  0  0  0
  -32.0484   66.2121   63.2013 H   0  0  0  0  0  0  0  0  0  0  0  0
  2  1  1  0  0  0
  2  4  1  0  0  0
  2  5  1  0  0  0
 41 42  1  0  0  0
 41  1  1  0  0  0
 42 46  1  0  0  0
  1 24  1  0  0  0
 23 24  1  0  0  0
 23 25  1  0  0  0
 24 26  1  0  0  0
  3  4  2  0  0  0
 26 27  2  0  0  0
 27 28  1  0  0  0
 43 47  1  0  0  0
 43 51  1  0  0  0
 28 29  1  0  0  0
 56 48  1  0  0  0
 56 60  1  0  0  0
 29 30  1  0  0  0
 57 60  1  0  0  0
 57 61  1  0  0  0
 30 31  1  0  0  0
 44 49  1  0  0  0
 44 52  1  0  0  0
 31 32  1  0  0  0
 45 46  1  0  0  0
 45 50  1  0  0  0
 32 33  1  0  0  0
 53 54  1  0  0  0
 53 55  1  0  0  0
 33 34  1  0  0  0
 34 35  1  0  0  0
 35 36  1  0  0  0
 58 60  1  0  0  0
 36 37  1  0  0  0
 59 60  1  0  0  0
 59 62  1  0  0  0
 37 38  1  0  0  0
 38 39  1  0  0  0
 39 40  1  0  0  0
  4  6  1  0  0  0
  6  7  1  0  0  0
  7  8  1  0  0  0
  8  9  1  0  0  0
  9 10  1  0  0  0
 10 11  1  0  0  0
 11 12  1  0  0  0
 12 13  1  0  0  0
 13 14  1  0  0  0
 14 15  1  0  0  0
 15 16  1  0  0  0
 16 17  1  0  0  0
 17 18  1  0  0  0
 18 19  1  0  0  0
 19 20  1  0  0  0
 20 21  1  0  0  0
 21 22  1  0  0  0
 46 47  1  0  0  0
 47 48  1  0  0  0
 48 49  1  0  0  0
 49 50  1  0  0  0
 50 54  1  0  0  0
M  CHG 1  58  -1
M  END
> <minimizedAffinity>
-9.81004

> <CNNscore>
0.4003830850

> <CNNaffinity>
7.2742080688

> <CNN_VS>
2.9124698639

> <CNNaffinity_variance>
1.0441379547

$$$$
/media/chris/experiments/cd1a-new-docking/inputs/ligands/1onq_ligand.pdb


 62 62  0  0  0  0  0  0  0  0999 V2000
  -40.2024   59.1824   64.9193 C   0  0  0  0  0  0  0  0  0  0  0  0
  -39.7017   58.4629   63.7649 N   0  0  0  0  0  0  0  0  0  0  0  0
  -37.8067   57.5180   64.5796 O   0  0  0  0  0  0  0  0  0  0  0  0
  -38.5931   57.7155   63.6739 C   0  0  0  0  0  0  0  0  0  0  0  0
  -40.2433   58.5320   62.9457 H   0  0  0  0  0  0  0  0  0  0  0  0
  -38.3543   57.0899   62.3317 C   0  0  0  0  0  0  0  0  0  0  0  0
  -37.6690   58.1537   61.4738 C   0  0  0  0  0  0  0  0  0  0  0  0
  -38.7180   59.0249   60.7870 C   0  0  0  0  0  0  0  0  0  0  0  0
  -38.4300   59.4052   59.3549 C   0  0  0  0  0  0  0  0  0  0  0  0
  -37.1619   58.6724   58.9296 C   0  0  0  0  0  0  0  0  0  0  0  0
  -37.4199   57.6251   57.8381 C   0  0  0  0  0  0  0  0  0  0  0  0
  -36.3171   56.5580   57.7125 C   0  0  0  0  0  0  0  0  0  0  0  0
  -34.8995   57.1309   57.9313 C   0  0  0  0  0  0  0  0  0  0  0  0
  -34.0053   56.1055   58.6342 C   0  0  0  0  0  0  0  0  0  0  0  0
  -34.6286   55.4331   59.8514 C   0  0  0  0  0  0  0  0  0  0  0  0
  -34.4430   56.2511   61.1208 C   0  0  0  0  0  0  0  0  0  0  0  0
  -32.9985   56.4506   61.5855 C   0  0  0  0  0  0  0  0  0  0  0  0
  -32.6513   57.9260   61.4395 C   0  0  0  0  0  0  0  0  0  0  0  0
  -32.3857   58.7407   62.6968 C   0  0  0  0  0  0  0  0  0  0  0  0
  -33.5985   59.6154   63.0516 C   0  0  0  0  0  0  0  0  0  0  0  0
  -34.7587   58.8568   63.7220 C   0  0  0  0  0  0  0  0  0  0  0  0
  -34.3087   57.9598   64.8729 C   0  0  0  0  0  0  0  0  0  0  0  0
  -41.5128   61.0292   64.4017 O   0  0  0  0  0  0  0  0  0  0  0  0
  -41.5850   59.6169   64.4644 C   0  0  0  0  0  0  0  0  0  0  0  0
  -40.8434   61.2901   63.7498 H   0  0  0  0  0  0  0  0  0  0  0  0
  -42.6264   59.1372   65.4782 C   0  0  0  0  0  0  0  0  0  0  0  0
  -43.9477   59.1529   65.2332 C   0  0  0  0  0  0  0  0  0  0  0  0
  -44.9244   58.6576   66.2982 C   0  0  0  0  0  0  0  0  0  0  0  0
  -46.3531   59.1950   66.1294 C   0  0  0  0  0  0  0  0  0  0  0  0
  -47.1936   58.5195   65.0300 C   0  0  0  0  0  0  0  0  0  0  0  0
  -48.2611   57.5862   65.6503 C   0  0  0  0  0  0  0  0  0  0  0  0
  -49.7272   58.0646   65.4983 C   0  0  0  0  0  0  0  0  0  0  0  0
  -49.8693   59.5250   65.0086 C   0  0  0  0  0  0  0  0  0  0  0  0
  -50.7041   59.6648   63.7171 C   0  0  0  0  0  0  0  0  0  0  0  0
  -50.8622   58.3532   62.9387 C   0  0  0  0  0  0  0  0  0  0  0  0
  -50.0140   58.2156   61.6762 C   0  0  0  0  0  0  0  0  0  0  0  0
  -50.5589   57.1876   60.6651 C   0  0  0  0  0  0  0  0  0  0  0  0
  -49.4973   56.3025   59.9946 C   0  0  0  0  0  0  0  0  0  0  0  0
  -48.7119   57.0884   58.9408 C   0  0  0  0  0  0  0  0  0  0  0  0
  -47.2451   57.3410   59.2413 C   0  0  0  0  0  0  0  0  0  0  0  0
  -39.2694   60.2825   65.4743 C   0  0  0  0  0  0  0  0  0  0  0  0
  -38.6150   61.1311   64.4970 O   0  0  0  0  0  0  0  0  0  0  0  0
  -36.7556   61.5061   62.3571 O   0  0  0  0  0  0  0  0  0  0  0  0
  -35.5116   64.7260   64.6989 O   0  0  0  0  0  0  0  0  0  0  0  0
  -36.9943   62.3449   65.8334 O   0  0  0  0  0  0  0  0  0  0  0  0
  -37.2022   61.5305   64.6539 C   0  0  0  0  0  0  0  0  0  0  0  0
  -36.5866   62.3107   63.4833 C   0  0  0  0  0  0  0  0  0  0  0  0
  -35.0785   62.5967   63.6533 C   0  0  0  0  0  0  0  0  0  0  0  0
  -34.9465   63.4324   64.8966 C   0  0  0  0  0  0  0  0  0  0  0  0
  -35.6108   62.7250   66.0639 C   0  0  0  0  0  0  0  0  0  0  0  0
  -37.6987   61.3157   62.2343 H   0  0  0  0  0  0  0  0  0  0  0  0
  -35.0734   65.1593   63.9497 H   0  0  0  0  0  0  0  0  0  0  0  0
  -36.5336   63.8378   67.9675 O   0  0  0  0  0  0  0  0  0  0  0  0
  -35.3768   63.7249   67.1941 C   0  0  0  0  0  0  0  0  0  0  0  0
  -36.3824   64.4733   68.6845 H   0  0  0  0  0  0  0  0  0  0  0  0
  -34.4528   63.3534   62.5922 O   0  0  0  0  0  0  0  0  0  0  0  0
  -32.0575   62.6740   63.3116 O   0  0  0  0  0  0  0  0  0  0  0  0
  -32.6673   65.0219   63.2468 O   0  0  0  0  0  0  0  0  0  0  0  0
  -32.2593   63.8110   61.1873 O   0  0  0  0  0  0  0  0  0  0  0  0
  -32.8269   63.7105   62.5618 S   0  0  0  0  0  0  0  0  0  0  0  0
  -32.4133   62.5943   64.2104 H   0  0  0  0  0  0  0  0  0  0  0  0
  -32.3592   62.9597   60.7332 H   0  0  0  0  0  0  0  0  0  0  0  0
  2  1  1  0  0  0
  2  4  1  0  0  0
  2  5  1  0  0  0
 41 42  1  0  0  0
 41  1  1  0  0  0
 42 46  1  0  0  0
  1 24  1  0  0  0
 23 24  1  0  0  0
 23 25  1  0  0  0
 24 26  1  0  0  0
  3  4  2  0  0  0
 26 27  2  0  0  0
 27 28  1  0  0  0
 43 47  1  0  0  0
 43 51  1  0  0  0
 28 29  1  0  0  0
 56 48  1  0  0  0
 56 60  1  0  0  0
 29 30  1  0  0  0
 57 60  1  0  0  0
 57 61  1  0  0  0
 30 31  1  0  0  0
 44 49  1  0  0  0
 44 52  1  0  0  0
 31 32  1  0  0  0
 45 46  1  0  0  0
 45 50  1  0  0  0
 32 33  1  0  0  0
 53 54  1  0  0  0
 53 55  1  0  0  0
 33 34  1  0  0  0
 34 35  1  0  0  0
 35 36  1  0  0  0
 58 60  1  0  0  0
 36 37  1  0  0  0
 59 60  1  0  0  0
 59 62  1  0  0  0
 37 38  1  0  0  0
 38 39  1  0  0  0
 39 40  1  0  0  0
  4  6  1  0  0  0
  6  7  1  0  0  0
  7  8  1  0  0  0
  8  9  1  0  0  0
  9 10  1  0  0  0
 10 11  1  0  0  0
 11 12  1  0  0  0
 12 13  1  0  0  0
 13 14  1  0  0  0
 14 15  1  0  0  0
 15 16  1  0  0  0
 16 17  1  0  0  0
 17 18  1  0  0  0
 18 19  1  0  0  0
 19 20  1  0  0  0
 20 21  1  0  0  0
 21 22  1  0  0  0
 46 47  1  0  0  0
 47 48  1  0  0  0
 48 49  1  0  0  0
 49 50  1  0  0  0
 50 54  1  0  0  0
M  CHG 1  58  -1
M  END
> <minimizedAffinity>
-9.80243

> <CNNscore>
0.3434555531

> <CNNaffinity>
7.2327270508

> <CNN_VS>
2.4841203690

> <CNNaffinity_variance>
1.3329868317

$$$$
/media/chris/experiments/cd1a-new-docking/inputs/ligands/1onq_ligand.pdb


 62 62  0  0  0  0  0  0  0  0999 V2000
  -38.0651   59.5264   60.0320 C   0  0  0  0  0  0  0  0  0  0  0  0
  -39.1414   59.5709   59.0621 N   0  0  0  0  0  0  0  0  0  0  0  0
  -40.9011   60.2261   60.3355 O   0  0  0  0  0  0  0  0  0  0  0  0
  -40.4241   59.9009   59.2657 C   0  0  0  0  0  0  0  0  0  0  0  0
  -38.9000   59.3284   58.1389 H   0  0  0  0  0  0  0  0  0  0  0  0
  -41.2951   59.8573   58.0453 C   0  0  0  0  0  0  0  0  0  0  0  0
  -42.5559   59.0882   58.4401 C   0  0  0  0  0  0  0  0  0  0  0  0
  -43.3457   58.7050   57.1909 C   0  0  0  0  0  0  0  0  0  0  0  0
  -44.7897   58.3238   57.4100 C   0  0  0  0  0  0  0  0  0  0  0  0
  -44.9294   57.8595   58.8561 C   0  0  0  0  0  0  0  0  0  0  0  0
  -46.3715   57.4829   59.2213 C   0  0  0  0  0  0  0  0  0  0  0  0
  -47.3256   57.3921   58.0164 C   0  0  0  0  0  0  0  0  0  0  0  0
  -48.7273   56.8677   58.3985 C   0  0  0  0  0  0  0  0  0  0  0  0
  -49.2235   57.5391   59.6822 C   0  0  0  0  0  0  0  0  0  0  0  0
  -50.1577   56.6894   60.5350 C   0  0  0  0  0  0  0  0  0  0  0  0
  -51.0777   57.5359   61.4021 C   0  0  0  0  0  0  0  0  0  0  0  0
  -50.5050   58.8707   61.8843 C   0  0  0  0  0  0  0  0  0  0  0  0
  -51.1621   59.2180   63.2133 C   0  0  0  0  0  0  0  0  0  0  0  0
  -50.2731   59.4826   64.4194 C   0  0  0  0  0  0  0  0  0  0  0  0
  -49.8481   58.1660   65.0887 C   0  0  0  0  0  0  0  0  0  0  0  0
  -48.3515   57.8322   64.9483 C   0  0  0  0  0  0  0  0  0  0  0  0
  -47.8764   56.7635   65.9300 C   0  0  0  0  0  0  0  0  0  0  0  0
  -38.6393   58.0818   61.7580 O   0  0  0  0  0  0  0  0  0  0  0  0
  -38.0679   58.0698   60.4630 C   0  0  0  0  0  0  0  0  0  0  0  0
  -39.5461   58.4227   61.7082 H   0  0  0  0  0  0  0  0  0  0  0  0
  -36.6318   57.5407   60.4712 C   0  0  0  0  0  0  0  0  0  0  0  0
  -36.3205   56.2644   60.1883 C   0  0  0  0  0  0  0  0  0  0  0  0
  -34.8615   55.8129   60.2187 C   0  0  0  0  0  0  0  0  0  0  0  0
  -33.8679   56.9417   60.5299 C   0  0  0  0  0  0  0  0  0  0  0  0
  -33.2439   56.9113   61.9374 C   0  0  0  0  0  0  0  0  0  0  0  0
  -33.8194   58.0467   62.8179 C   0  0  0  0  0  0  0  0  0  0  0  0
  -34.7391   57.5843   63.9762 C   0  0  0  0  0  0  0  0  0  0  0  0
  -36.0217   58.4326   64.1440 C   0  0  0  0  0  0  0  0  0  0  0  0
  -37.2132   57.6421   64.7267 C   0  0  0  0  0  0  0  0  0  0  0  0
  -38.2376   58.5182   65.4575 C   0  0  0  0  0  0  0  0  0  0  0  0
  -39.7022   58.2842   65.0934 C   0  0  0  0  0  0  0  0  0  0  0  0
  -40.6267   59.4727   65.4233 C   0  0  0  0  0  0  0  0  0  0  0  0
  -41.7929   59.6859   64.4463 C   0  0  0  0  0  0  0  0  0  0  0  0
  -43.1257   59.2849   65.0852 C   0  0  0  0  0  0  0  0  0  0  0  0
  -43.0496   58.6416   66.4584 C   0  0  0  0  0  0  0  0  0  0  0  0
  -38.1343   60.5889   61.1524 C   0  0  0  0  0  0  0  0  0  0  0  0
  -36.9874   60.6749   62.0358 O   0  0  0  0  0  0  0  0  0  0  0  0
  -37.8244   61.8225   64.5177 O   0  0  0  0  0  0  0  0  0  0  0  0
  -33.8135   62.9438   64.7513 O   0  0  0  0  0  0  0  0  0  0  0  0
  -35.1908   62.3022   62.1346 O   0  0  0  0  0  0  0  0  0  0  0  0
  -36.5309   61.9721   62.5735 C   0  0  0  0  0  0  0  0  0  0  0  0
  -36.5232   62.1044   64.1033 C   0  0  0  0  0  0  0  0  0  0  0  0
  -36.1508   63.5178   64.6018 C   0  0  0  0  0  0  0  0  0  0  0  0
  -34.7593   63.7878   64.0994 C   0  0  0  0  0  0  0  0  0  0  0  0
  -34.7099   63.5940   62.5947 C   0  0  0  0  0  0  0  0  0  0  0  0
  -38.0761   60.9367   64.2129 H   0  0  0  0  0  0  0  0  0  0  0  0
  -33.8621   63.0836   65.7100 H   0  0  0  0  0  0  0  0  0  0  0  0
  -32.8614   65.0614   62.9733 O   0  0  0  0  0  0  0  0  0  0  0  0
  -33.2429   63.8993   62.3002 C   0  0  0  0  0  0  0  0  0  0  0  0
  -31.9294   65.2531   62.7847 H   0  0  0  0  0  0  0  0  0  0  0  0
  -36.1010   63.6919   66.0361 O   0  0  0  0  0  0  0  0  0  0  0  0
  -34.1784   62.8659   67.5653 O   0  0  0  0  0  0  0  0  0  0  0  0
  -35.4765   61.2543   66.2980 O   0  0  0  0  0  0  0  0  0  0  0  0
  -36.4239   62.3059   68.2654 O   0  0  0  0  0  0  0  0  0  0  0  0
  -35.5466   62.5187   67.0794 S   0  0  0  0  0  0  0  0  0  0  0  0
  -33.5920   63.0084   66.8059 H   0  0  0  0  0  0  0  0  0  0  0  0
  -36.4752   63.1260   68.7809 H   0  0  0  0  0  0  0  0  0  0  0  0
  2  1  1  0  0  0
  2  4  1  0  0  0
  2  5  1  0  0  0
 41 42  1  0  0  0
 41  1  1  0  0  0
 42 46  1  0  0  0
  1 24  1  0  0  0
 23 24  1  0  0  0
 23 25  1  0  0  0
 24 26  1  0  0  0
  3  4  2  0  0  0
 26 27  2  0  0  0
 27 28  1  0  0  0
 43 47  1  0  0  0
 43 51  1  0  0  0
 28 29  1  0  0  0
 56 48  1  0  0  0
 56 60  1  0  0  0
 29 30  1  0  0  0
 57 60  1  0  0  0
 57 61  1  0  0  0
 30 31  1  0  0  0
 44 49  1  0  0  0
 44 52  1  0  0  0
 31 32  1  0  0  0
 45 46  1  0  0  0
 45 50  1  0  0  0
 32 33  1  0  0  0
 53 54  1  0  0  0
 53 55  1  0  0  0
 33 34  1  0  0  0
 34 35  1  0  0  0
 35 36  1  0  0  0
 58 60  1  0  0  0
 36 37  1  0  0  0
 59 60  1  0  0  0
 59 62  1  0  0  0
 37 38  1  0  0  0
 38 39  1  0  0  0
 39 40  1  0  0  0
  4  6  1  0  0  0
  6  7  1  0  0  0
  7  8  1  0  0  0
  8  9  1  0  0  0
  9 10  1  0  0  0
 10 11  1  0  0  0
 11 12  1  0  0  0
 12 13  1  0  0  0
 13 14  1  0  0  0
 14 15  1  0  0  0
 15 16  1  0  0  0
 16 17  1  0  0  0
 17 18  1  0  0  0
 18 19  1  0  0  0
 19 20  1  0  0  0
 20 21  1  0  0  0
 21 22  1  0  0  0
 46 47  1  0  0  0
 47 48  1  0  0  0
 48 49  1  0  0  0
 49 50  1  0  0  0
 50 54  1  0  0  0
M  CHG 1  58  -1
M  END
> <minimizedAffinity>
-8.79946

> <CNNscore>
0.2999041677

> <CNNaffinity>
6.7599191666

> <CNN_VS>
2.0273280144

> <CNNaffinity_variance>
1.2457488775

$$$$
/media/chris/experiments/cd1a-new-docking/inputs/ligands/1onq_ligand.pdb


 62 62  0  0  0  0  0  0  0  0999 V2000
  -39.9694   59.1524   64.4897 C   0  0  0  0  0  0  0  0  0  0  0  0
  -39.5565   58.9177   63.1202 N   0  0  0  0  0  0  0  0  0  0  0  0
  -40.2551   60.8107   62.0828 O   0  0  0  0  0  0  0  0  0  0  0  0
  -39.7176   59.7206   62.0594 C   0  0  0  0  0  0  0  0  0  0  0  0
  -39.1012   58.0620   62.9479 H   0  0  0  0  0  0  0  0  0  0  0  0
  -39.1675   59.1900   60.7688 C   0  0  0  0  0  0  0  0  0  0  0  0
  -38.3019   57.9829   61.1306 C   0  0  0  0  0  0  0  0  0  0  0  0
  -37.1075   57.8951   60.1836 C   0  0  0  0  0  0  0  0  0  0  0  0
  -37.2599   58.5980   58.8565 C   0  0  0  0  0  0  0  0  0  0  0  0
  -37.2500   57.5314   57.7664 C   0  0  0  0  0  0  0  0  0  0  0  0
  -36.1469   56.4845   57.9711 C   0  0  0  0  0  0  0  0  0  0  0  0
  -34.7177   57.0289   57.7934 C   0  0  0  0  0  0  0  0  0  0  0  0
  -33.7068   56.3929   58.7727 C   0  0  0  0  0  0  0  0  0  0  0  0
  -34.4362   55.6238   59.8779 C   0  0  0  0  0  0  0  0  0  0  0  0
  -34.1547   56.1087   61.2948 C   0  0  0  0  0  0  0  0  0  0  0  0
  -32.6646   56.2209   61.5811 C   0  0  0  0  0  0  0  0  0  0  0  0
  -32.2475   57.3403   62.5379 C   0  0  0  0  0  0  0  0  0  0  0  0
  -32.8912   58.6361   62.0634 C   0  0  0  0  0  0  0  0  0  0  0  0
  -33.7497   59.4247   63.0412 C   0  0  0  0  0  0  0  0  0  0  0  0
  -34.2791   58.5178   64.1635 C   0  0  0  0  0  0  0  0  0  0  0  0
  -35.8143   58.4535   64.2619 C   0  0  0  0  0  0  0  0  0  0  0  0
  -36.3632   57.0293   64.2180 C   0  0  0  0  0  0  0  0  0  0  0  0
  -41.2481   61.0739   64.7512 O   0  0  0  0  0  0  0  0  0  0  0  0
  -41.3639   59.7305   64.3206 C   0  0  0  0  0  0  0  0  0  0  0  0
  -40.6157   61.5419   64.1838 H   0  0  0  0  0  0  0  0  0  0  0  0
  -42.3505   58.9333   65.1772 C   0  0  0  0  0  0  0  0  0  0  0  0
  -43.6820   59.1011   65.1073 C   0  0  0  0  0  0  0  0  0  0  0  0
  -44.6013   58.2667   65.9973 C   0  0  0  0  0  0  0  0  0  0  0  0
  -45.8802   58.9988   66.4296 C   0  0  0  0  0  0  0  0  0  0  0  0
  -46.7776   59.5049   65.2851 C   0  0  0  0  0  0  0  0  0  0  0  0
  -47.6550   58.3583   64.7273 C   0  0  0  0  0  0  0  0  0  0  0  0
  -48.7638   57.8488   65.6825 C   0  0  0  0  0  0  0  0  0  0  0  0
  -50.1991   58.2237   65.2440 C   0  0  0  0  0  0  0  0  0  0  0  0
  -50.2532   59.0144   63.9189 C   0  0  0  0  0  0  0  0  0  0  0  0
  -50.7666   58.1933   62.7300 C   0  0  0  0  0  0  0  0  0  0  0  0
  -50.1856   58.5537   61.3644 C   0  0  0  0  0  0  0  0  0  0  0  0
  -50.3908   57.4672   60.2904 C   0  0  0  0  0  0  0  0  0  0  0  0
  -49.1734   56.5679   60.0278 C   0  0  0  0  0  0  0  0  0  0  0  0
  -47.9164   57.4047   59.7727 C   0  0  0  0  0  0  0  0  0  0  0  0
  -47.2280   57.1983   58.4351 C   0  0  0  0  0  0  0  0  0  0  0  0
  -38.9761   59.9605   65.3553 C   0  0  0  0  0  0  0  0  0  0  0  0
  -38.5091   61.2176   64.8031 O   0  0  0  0  0  0  0  0  0  0  0  0
  -36.7020   61.4169   62.5958 O   0  0  0  0  0  0  0  0  0  0  0  0
  -35.3736   64.7875   64.6630 O   0  0  0  0  0  0  0  0  0  0  0  0
  -36.8455   62.5103   66.0059 O   0  0  0  0  0  0  0  0  0  0  0  0
  -37.0897   61.6138   64.8950 C   0  0  0  0  0  0  0  0  0  0  0  0
  -36.4981   62.3001   63.6554 C   0  0  0  0  0  0  0  0  0  0  0  0
  -34.9840   62.5832   63.7663 C   0  0  0  0  0  0  0  0  0  0  0  0
  -34.8138   63.5064   64.9411 C   0  0  0  0  0  0  0  0  0  0  0  0
  -35.4536   62.8929   66.1734 C   0  0  0  0  0  0  0  0  0  0  0  0
  -37.6494   61.2271   62.5108 H   0  0  0  0  0  0  0  0  0  0  0  0
  -34.9513   65.1605   63.8734 H   0  0  0  0  0  0  0  0  0  0  0  0
  -33.8707   64.4296   67.0935 O   0  0  0  0  0  0  0  0  0  0  0  0
  -35.1830   63.9707   67.2209 C   0  0  0  0  0  0  0  0  0  0  0  0
  -33.7014   65.1140   67.7598 H   0  0  0  0  0  0  0  0  0  0  0  0
  -34.3797   63.2541   62.6372 O   0  0  0  0  0  0  0  0  0  0  0  0
  -31.9515   62.5282   63.1796 O   0  0  0  0  0  0  0  0  0  0  0  0
  -32.5619   64.8721   63.3290 O   0  0  0  0  0  0  0  0  0  0  0  0
  -32.2596   63.8266   61.1633 O   0  0  0  0  0  0  0  0  0  0  0  0
  -32.7570   63.6176   62.5527 S   0  0  0  0  0  0  0  0  0  0  0  0
  -32.2615   62.3775   64.0863 H   0  0  0  0  0  0  0  0  0  0  0  0
  -32.3831   63.0130   60.6498 H   0  0  0  0  0  0  0  0  0  0  0  0
  2  1  1  0  0  0
  2  4  1  0  0  0
  2  5  1  0  0  0
 41 42  1  0  0  0
 41  1  1  0  0  0
 42 46  1  0  0  0
  1 24  1  0  0  0
 23 24  1  0  0  0
 23 25  1  0  0  0
 24 26  1  0  0  0
  3  4  2  0  0  0
 26 27  2  0  0  0
 27 28  1  0  0  0
 43 47  1  0  0  0
 43 51  1  0  0  0
 28 29  1  0  0  0
 56 48  1  0  0  0
 56 60  1  0  0  0
 29 30  1  0  0  0
 57 60  1  0  0  0
 57 61  1  0  0  0
 30 31  1  0  0  0
 44 49  1  0  0  0
 44 52  1  0  0  0
 31 32  1  0  0  0
 45 46  1  0  0  0
 45 50  1  0  0  0
 32 33  1  0  0  0
 53 54  1  0  0  0
 53 55  1  0  0  0
 33 34  1  0  0  0
 34 35  1  0  0  0
 35 36  1  0  0  0
 58 60  1  0  0  0
 36 37  1  0  0  0
 59 60  1  0  0  0
 59 62  1  0  0  0
 37 38  1  0  0  0
 38 39  1  0  0  0
 39 40  1  0  0  0
  4  6  1  0  0  0
  6  7  1  0  0  0
  7  8  1  0  0  0
  8  9  1  0  0  0
  9 10  1  0  0  0
 10 11  1  0  0  0
 11 12  1  0  0  0
 12 13  1  0  0  0
 13 14  1  0  0  0
 14 15  1  0  0  0
 15 16  1  0  0  0
 16 17  1  0  0  0
 17 18  1  0  0  0
 18 19  1  0  0  0
 19 20  1  0  0  0
 20 21  1  0  0  0
 21 22  1  0  0  0
 46 47  1  0  0  0
 47 48  1  0  0  0
 48 49  1  0  0  0
 49 50  1  0  0  0
 50 54  1  0  0  0
M  CHG 1  58  -1
M  END
> <minimizedAffinity>
-9.58292

> <CNNscore>
0.2955334783

> <CNNaffinity>
7.1959600449

> <CNN_VS>
2.1266469955

> <CNNaffinity_variance>
1.1769425869

$$$$
/media/chris/experiments/cd1a-new-docking/inputs/ligands/1onq_ligand.pdb


 62 62  0  0  0  0  0  0  0  0999 V2000
  -40.2598   58.8030   64.6806 C   0  0  0  0  0  0  0  0  0  0  0  0
  -41.2870   58.2059   65.5109 N   0  0  0  0  0  0  0  0  0  0  0  0
  -43.1284   59.3885   64.9123 O   0  0  0  0  0  0  0  0  0  0  0  0
  -42.5882   58.5207   65.5703 C   0  0  0  0  0  0  0  0  0  0  0  0
  -40.9920   57.4785   66.1052 H   0  0  0  0  0  0  0  0  0  0  0  0
  -43.3984   57.7043   66.5330 C   0  0  0  0  0  0  0  0  0  0  0  0
  -44.0842   56.6156   65.7075 C   0  0  0  0  0  0  0  0  0  0  0  0
  -45.5816   56.8985   65.6125 C   0  0  0  0  0  0  0  0  0  0  0  0
  -46.3023   57.1039   66.9228 C   0  0  0  0  0  0  0  0  0  0  0  0
  -46.8184   58.5389   66.9449 C   0  0  0  0  0  0  0  0  0  0  0  0
  -46.7601   59.2113   65.5667 C   0  0  0  0  0  0  0  0  0  0  0  0
  -48.1312   59.6446   65.0163 C   0  0  0  0  0  0  0  0  0  0  0  0
  -49.3092   59.1610   65.8903 C   0  0  0  0  0  0  0  0  0  0  0  0
  -50.4334   58.5967   65.0169 C   0  0  0  0  0  0  0  0  0  0  0  0
  -51.0422   59.5858   64.0305 C   0  0  0  0  0  0  0  0  0  0  0  0
  -51.1465   59.0103   62.6260 C   0  0  0  0  0  0  0  0  0  0  0  0
  -50.0327   59.4063   61.6539 C   0  0  0  0  0  0  0  0  0  0  0  0
  -49.4860   58.1371   61.0143 C   0  0  0  0  0  0  0  0  0  0  0  0
  -50.0489   57.6966   59.6710 C   0  0  0  0  0  0  0  0  0  0  0  0
  -49.0051   56.9004   58.8719 C   0  0  0  0  0  0  0  0  0  0  0  0
  -47.5430   57.2394   59.2157 C   0  0  0  0  0  0  0  0  0  0  0  0
  -46.7728   57.8475   58.0459 C   0  0  0  0  0  0  0  0  0  0  0  0
  -38.2507   57.8123   65.2949 O   0  0  0  0  0  0  0  0  0  0  0  0
  -39.3350   57.6303   64.4034 C   0  0  0  0  0  0  0  0  0  0  0  0
  -38.5746   57.7804   66.2087 H   0  0  0  0  0  0  0  0  0  0  0  0
  -38.8908   57.6700   62.9393 C   0  0  0  0  0  0  0  0  0  0  0  0
  -37.8474   56.9637   62.4717 C   0  0  0  0  0  0  0  0  0  0  0  0
  -37.4658   57.0580   60.9956 C   0  0  0  0  0  0  0  0  0  0  0  0
  -38.0855   58.2606   60.2689 C   0  0  0  0  0  0  0  0  0  0  0  0
  -37.3559   58.7157   58.9915 C   0  0  0  0  0  0  0  0  0  0  0  0
  -37.5301   57.6750   57.8592 C   0  0  0  0  0  0  0  0  0  0  0  0
  -36.3163   56.7400   57.6273 C   0  0  0  0  0  0  0  0  0  0  0  0
  -34.9480   57.3876   57.9453 C   0  0  0  0  0  0  0  0  0  0  0  0
  -33.9524   56.4243   58.6271 C   0  0  0  0  0  0  0  0  0  0  0  0
  -34.5686   55.6037   59.7665 C   0  0  0  0  0  0  0  0  0  0  0  0
  -33.9820   55.8390   61.1567 C   0  0  0  0  0  0  0  0  0  0  0  0
  -33.3169   57.2188   61.3300 C   0  0  0  0  0  0  0  0  0  0  0  0
  -34.1419   58.2492   62.1158 C   0  0  0  0  0  0  0  0  0  0  0  0
  -33.7526   58.2514   63.5969 C   0  0  0  0  0  0  0  0  0  0  0  0
  -34.8732   58.5069   64.5891 C   0  0  0  0  0  0  0  0  0  0  0  0
  -39.6121   60.0883   65.2440 C   0  0  0  0  0  0  0  0  0  0  0  0
  -38.8288   60.8802   64.3153 O   0  0  0  0  0  0  0  0  0  0  0  0
  -36.7390   61.1227   62.3785 O   0  0  0  0  0  0  0  0  0  0  0  0
  -35.6496   64.3893   64.7327 O   0  0  0  0  0  0  0  0  0  0  0  0
  -37.3225   62.0950   65.7784 O   0  0  0  0  0  0  0  0  0  0  0  0
  -37.4288   61.2443   64.6112 C   0  0  0  0  0  0  0  0  0  0  0  0
  -36.6659   61.9629   63.4889 C   0  0  0  0  0  0  0  0  0  0  0  0
  -35.1763   62.2114   63.8120 C   0  0  0  0  0  0  0  0  0  0  0  0
  -35.1515   63.0880   65.0336 C   0  0  0  0  0  0  0  0  0  0  0  0
  -35.9601   62.4433   66.1449 C   0  0  0  0  0  0  0  0  0  0  0  0
  -37.6692   60.9552   62.1605 H   0  0  0  0  0  0  0  0  0  0  0  0
  -35.1195   64.7819   64.0215 H   0  0  0  0  0  0  0  0  0  0  0  0
  -34.4637   63.7385   67.4854 O   0  0  0  0  0  0  0  0  0  0  0  0
  -35.8164   63.4769   67.2598 C   0  0  0  0  0  0  0  0  0  0  0  0
  -34.3751   64.3952   68.1938 H   0  0  0  0  0  0  0  0  0  0  0  0
  -34.4159   62.9103   62.8004 O   0  0  0  0  0  0  0  0  0  0  0  0
  -32.0571   62.9838   63.8716 O   0  0  0  0  0  0  0  0  0  0  0  0
  -32.3529   63.7152   61.5768 O   0  0  0  0  0  0  0  0  0  0  0  0
  -32.3901   61.3530   62.1179 O   0  0  0  0  0  0  0  0  0  0  0  0
  -32.7759   62.7124   62.5917 S   0  0  0  0  0  0  0  0  0  0  0  0
  -32.2961   63.8661   64.1961 H   0  0  0  0  0  0  0  0  0  0  0  0
  -32.6623   60.6925   62.7741 H   0  0  0  0  0  0  0  0  0  0  0  0
  2  1  1  0  0  0
  2  4  1  0  0  0
  2  5  1  0  0  0
 41 42  1  0  0  0
 41  1  1  0  0  0
 42 46  1  0  0  0
  1 24  1  0  0  0
 23 24  1  0  0  0
 23 25  1  0  0  0
 24 26  1  0  0  0
  3  4  2  0  0  0
 26 27  2  0  0  0
 27 28  1  0  0  0
 43 47  1  0  0  0
 43 51  1  0  0  0
 28 29  1  0  0  0
 56 48  1  0  0  0
 56 60  1  0  0  0
 29 30  1  0  0  0
 57 60  1  0  0  0
 57 61  1  0  0  0
 30 31  1  0  0  0
 44 49  1  0  0  0
 44 52  1  0  0  0
 31 32  1  0  0  0
 45 46  1  0  0  0
 45 50  1  0  0  0
 32 33  1  0  0  0
 53 54  1  0  0  0
 53 55  1  0  0  0
 33 34  1  0  0  0
 34 35  1  0  0  0
 35 36  1  0  0  0
 58 60  1  0  0  0
 36 37  1  0  0  0
 59 60  1  0  0  0
 59 62  1  0  0  0
 37 38  1  0  0  0
 38 39  1  0  0  0
 39 40  1  0  0  0
  4  6  1  0  0  0
  6  7  1  0  0  0
  7  8  1  0  0  0
  8  9  1  0  0  0
  9 10  1  0  0  0
 10 11  1  0  0  0
 11 12  1  0  0  0
 12 13  1  0  0  0
 13 14  1  0  0  0
 14 15  1  0  0  0
 15 16  1  0  0  0
 16 17  1  0  0  0
 17 18  1  0  0  0
 18 19  1  0  0  0
 19 20  1  0  0  0
 20 21  1  0  0  0
 21 22  1  0  0  0
 46 47  1  0  0  0
 47 48  1  0  0  0
 48 49  1  0  0  0
 49 50  1  0  0  0
 50 54  1  0  0  0
M  CHG 1  58  -1
M  END
> <minimizedAffinity>
-10.18124

> <CNNscore>
0.2659349740

> <CNNaffinity>
7.0101571083

> <CNN_VS>
1.8642458916

> <CNNaffinity_variance>
1.5261904001

$$$$
/media/chris/experiments/cd1a-new-docking/inputs/ligands/1onq_ligand.pdb


 62 62  0  0  0  0  0  0  0  0999 V2000
  -40.5231   59.7562   65.6347 C   0  0  0  0  0  0  0  0  0  0  0  0
  -41.3616   58.5808   65.7632 N   0  0  0  0  0  0  0  0  0  0  0  0
  -42.6271   59.0963   67.5744 O   0  0  0  0  0  0  0  0  0  0  0  0
  -42.3108   58.3389   66.6777 C   0  0  0  0  0  0  0  0  0  0  0  0
  -41.2155   57.8720   65.0957 H   0  0  0  0  0  0  0  0  0  0  0  0
  -43.0128   57.0211   66.5347 C   0  0  0  0  0  0  0  0  0  0  0  0
  -44.0257   57.1904   65.4023 C   0  0  0  0  0  0  0  0  0  0  0  0
  -45.4211   57.4147   65.9799 C   0  0  0  0  0  0  0  0  0  0  0  0
  -46.4123   58.1016   65.0721 C   0  0  0  0  0  0  0  0  0  0  0  0
  -46.7766   59.4364   65.7137 C   0  0  0  0  0  0  0  0  0  0  0  0
  -48.2009   59.4510   66.2845 C   0  0  0  0  0  0  0  0  0  0  0  0
  -49.0809   58.2769   65.8179 C   0  0  0  0  0  0  0  0  0  0  0  0
  -50.5335   58.7012   65.5086 C   0  0  0  0  0  0  0  0  0  0  0  0
  -50.6925   59.0398   64.0236 C   0  0  0  0  0  0  0  0  0  0  0  0
  -49.8967   58.1553   63.0716 C   0  0  0  0  0  0  0  0  0  0  0  0
  -50.1433   58.5094   61.6126 C   0  0  0  0  0  0  0  0  0  0  0  0
  -50.7160   57.3915   60.7381 C   0  0  0  0  0  0  0  0  0  0  0  0
  -49.8799   57.3051   59.4684 C   0  0  0  0  0  0  0  0  0  0  0  0
  -48.6585   56.3978   59.4597 C   0  0  0  0  0  0  0  0  0  0  0  0
  -47.3620   57.2214   59.4091 C   0  0  0  0  0  0  0  0  0  0  0  0
  -46.9881   57.7383   58.0077 C   0  0  0  0  0  0  0  0  0  0  0  0
  -47.2917   56.7384   56.8943 C   0  0  0  0  0  0  0  0  0  0  0  0
  -42.6020   60.3818   64.8086 O   0  0  0  0  0  0  0  0  0  0  0  0
  -41.2218   60.5430   64.5391 C   0  0  0  0  0  0  0  0  0  0  0  0
  -42.8074   60.7568   65.6794 H   0  0  0  0  0  0  0  0  0  0  0  0
  -40.8299   59.9703   63.1750 C   0  0  0  0  0  0  0  0  0  0  0  0
  -40.7025   60.7280   62.0724 C   0  0  0  0  0  0  0  0  0  0  0  0
  -40.3085   60.0805   60.7461 C   0  0  0  0  0  0  0  0  0  0  0  0
  -38.9465   59.3719   60.7808 C   0  0  0  0  0  0  0  0  0  0  0  0
  -38.1942   59.3079   59.4386 C   0  0  0  0  0  0  0  0  0  0  0  0
  -37.1534   58.1624   59.4465 C   0  0  0  0  0  0  0  0  0  0  0  0
  -36.9240   57.4674   58.0806 C   0  0  0  0  0  0  0  0  0  0  0  0
  -36.4421   56.0014   58.1888 C   0  0  0  0  0  0  0  0  0  0  0  0
  -35.9353   55.6204   59.5967 C   0  0  0  0  0  0  0  0  0  0  0  0
  -34.4248   55.8092   59.7816 C   0  0  0  0  0  0  0  0  0  0  0  0
  -33.9625   56.1855   61.1876 C   0  0  0  0  0  0  0  0  0  0  0  0
  -34.6229   57.4630   61.7426 C   0  0  0  0  0  0  0  0  0  0  0  0
  -33.8049   58.2150   62.8035 C   0  0  0  0  0  0  0  0  0  0  0  0
  -34.4348   58.0657   64.1913 C   0  0  0  0  0  0  0  0  0  0  0  0
  -35.8008   57.4049   64.2451 C   0  0  0  0  0  0  0  0  0  0  0  0
  -39.0141   59.4800   65.4456 C   0  0  0  0  0  0  0  0  0  0  0  0
  -38.3453   60.2252   64.3965 O   0  0  0  0  0  0  0  0  0  0  0  0
  -36.3550   60.7073   62.4005 O   0  0  0  0  0  0  0  0  0  0  0  0
  -35.9024   64.3023   64.4669 O   0  0  0  0  0  0  0  0  0  0  0  0
  -37.0925   61.8217   65.7260 O   0  0  0  0  0  0  0  0  0  0  0  0
  -37.0402   60.8745   64.6316 C   0  0  0  0  0  0  0  0  0  0  0  0
  -36.4384   61.6330   63.4399 C   0  0  0  0  0  0  0  0  0  0  0  0
  -35.0228   62.1888   63.7091 C   0  0  0  0  0  0  0  0  0  0  0  0
  -35.1598   63.1499   64.8575 C   0  0  0  0  0  0  0  0  0  0  0  0
  -35.8208   62.4540   66.0336 C   0  0  0  0  0  0  0  0  0  0  0  0
  -37.2367   60.3468   62.2171 H   0  0  0  0  0  0  0  0  0  0  0  0
  -35.4631   64.7305   63.7154 H   0  0  0  0  0  0  0  0  0  0  0  0
  -37.0960   64.2482   66.9655 O   0  0  0  0  0  0  0  0  0  0  0  0
  -35.8723   63.5830   67.0608 C   0  0  0  0  0  0  0  0  0  0  0  0
  -37.1262   64.9646   67.6189 H   0  0  0  0  0  0  0  0  0  0  0  0
  -34.4189   62.9365   62.6292 O   0  0  0  0  0  0  0  0  0  0  0  0
  -32.2786   63.7359   61.4056 O   0  0  0  0  0  0  0  0  0  0  0  0
  -32.1044   62.8130   63.6432 O   0  0  0  0  0  0  0  0  0  0  0  0
  -32.9803   65.0484   63.3111 O   0  0  0  0  0  0  0  0  0  0  0  0
  -32.9287   63.6694   62.7479 S   0  0  0  0  0  0  0  0  0  0  0  0
  -32.2360   62.8457   61.0225 H   0  0  0  0  0  0  0  0  0  0  0  0
  -33.5161   65.6139   62.7332 H   0  0  0  0  0  0  0  0  0  0  0  0
  2  1  1  0  0  0
  2  4  1  0  0  0
  2  5  1  0  0  0
 41 42  1  0  0  0
 41  1  1  0  0  0
 42 46  1  0  0  0
  1 24  1  0  0  0
 23 24  1  0  0  0
 23 25  1  0  0  0
 24 26  1  0  0  0
  3  4  2  0  0  0
 26 27  2  0  0  0
 27 28  1  0  0  0
 43 47  1  0  0  0
 43 51  1  0  0  0
 28 29  1  0  0  0
 56 48  1  0  0  0
 56 60  1  0  0  0
 29 30  1  0  0  0
 57 60  1  0  0  0
 57 61  1  0  0  0
 30 31  1  0  0  0
 44 49  1  0  0  0
 44 52  1  0  0  0
 31 32  1  0  0  0
 45 46  1  0  0  0
 45 50  1  0  0  0
 32 33  1  0  0  0
 53 54  1  0  0  0
 53 55  1  0  0  0
 33 34  1  0  0  0
 34 35  1  0  0  0
 35 36  1  0  0  0
 58 60  1  0  0  0
 36 37  1  0  0  0
 59 60  1  0  0  0
 59 62  1  0  0  0
 37 38  1  0  0  0
 38 39  1  0  0  0
 39 40  1  0  0  0
  4  6  1  0  0  0
  6  7  1  0  0  0
  7  8  1  0  0  0
  8  9  1  0  0  0
  9 10  1  0  0  0
 10 11  1  0  0  0
 11 12  1  0  0  0
 12 13  1  0  0  0
 13 14  1  0  0  0
 14 15  1  0  0  0
 15 16  1  0  0  0
 16 17  1  0  0  0
 17 18  1  0  0  0
 18 19  1  0  0  0
 19 20  1  0  0  0
 20 21  1  0  0  0
 21 22  1  0  0  0
 46 47  1  0  0  0
 47 48  1  0  0  0
 48 49  1  0  0  0
 49 50  1  0  0  0
 50 54  1  0  0  0
M  CHG 1  58  -1
M  END
> <minimizedAffinity>
-10.01529

> <CNNscore>
0.2536616325

> <CNNaffinity>
7.3052229881

> <CNN_VS>
1.8530547619

> <CNNaffinity_variance>
1.3251653910

$$$$
/media/chris/experiments/cd1a-new-docking/inputs/ligands/1onq_ligand.pdb


 62 62  0  0  0  0  0  0  0  0999 V2000
  -39.8653   59.3947   64.9324 C   0  0  0  0  0  0  0  0  0  0  0  0
  -39.8509   59.8701   63.5631 N   0  0  0  0  0  0  0  0  0  0  0  0
  -39.1614   58.0299   62.4291 O   0  0  0  0  0  0  0  0  0  0  0  0
  -39.5170   59.1920   62.4565 C   0  0  0  0  0  0  0  0  0  0  0  0
  -40.1197   60.8077   63.4295 H   0  0  0  0  0  0  0  0  0  0  0  0
  -39.6143   59.9705   61.1781 C   0  0  0  0  0  0  0  0  0  0  0  0
  -38.1888   60.1026   60.6418 C   0  0  0  0  0  0  0  0  0  0  0  0
  -38.0812   59.4298   59.2754 C   0  0  0  0  0  0  0  0  0  0  0  0
  -37.6824   57.9740   59.2823 C   0  0  0  0  0  0  0  0  0  0  0  0
  -37.3556   57.5790   57.8460 C   0  0  0  0  0  0  0  0  0  0  0  0
  -36.1143   56.6824   57.7452 C   0  0  0  0  0  0  0  0  0  0  0  0
  -34.7780   57.4462   57.7832 C   0  0  0  0  0  0  0  0  0  0  0  0
  -33.5789   56.5409   58.1410 C   0  0  0  0  0  0  0  0  0  0  0  0
  -33.9155   55.6469   59.3378 C   0  0  0  0  0  0  0  0  0  0  0  0
  -33.8216   56.3276   60.6980 C   0  0  0  0  0  0  0  0  0  0  0  0
  -35.1419   56.2922   61.4534 C   0  0  0  0  0  0  0  0  0  0  0  0
  -35.6913   57.6462   61.9083 C   0  0  0  0  0  0  0  0  0  0  0  0
  -35.7530   57.6477   63.4299 C   0  0  0  0  0  0  0  0  0  0  0  0
  -34.5084   58.0449   64.2098 C   0  0  0  0  0  0  0  0  0  0  0  0
  -33.7302   59.1499   63.4780 C   0  0  0  0  0  0  0  0  0  0  0  0
  -32.3295   58.7313   62.9944 C   0  0  0  0  0  0  0  0  0  0  0  0
  -31.9553   59.3272   61.6393 C   0  0  0  0  0  0  0  0  0  0  0  0
  -40.9233   60.8985   66.3520 O   0  0  0  0  0  0  0  0  0  0  0  0
  -41.2207   59.8650   65.4317 C   0  0  0  0  0  0  0  0  0  0  0  0
  -40.4626   61.6180   65.8925 H   0  0  0  0  0  0  0  0  0  0  0  0
  -41.9506   58.6946   66.0949 C   0  0  0  0  0  0  0  0  0  0  0  0
  -43.1643   58.2719   65.7021 C   0  0  0  0  0  0  0  0  0  0  0  0
  -43.8280   57.0960   66.4165 C   0  0  0  0  0  0  0  0  0  0  0  0
  -45.3598   57.1887   66.4752 C   0  0  0  0  0  0  0  0  0  0  0  0
  -45.9284   58.5475   66.9245 C   0  0  0  0  0  0  0  0  0  0  0  0
  -46.5637   59.2990   65.7298 C   0  0  0  0  0  0  0  0  0  0  0  0
  -48.0982   59.4978   65.8136 C   0  0  0  0  0  0  0  0  0  0  0  0
  -48.9046   58.1797   65.8875 C   0  0  0  0  0  0  0  0  0  0  0  0
  -50.3887   58.3408   65.4928 C   0  0  0  0  0  0  0  0  0  0  0  0
  -50.6527   59.5211   64.5503 C   0  0  0  0  0  0  0  0  0  0  0  0
  -51.1778   59.1663   63.1609 C   0  0  0  0  0  0  0  0  0  0  0  0
  -50.2807   58.1814   62.3854 C   0  0  0  0  0  0  0  0  0  0  0  0
  -50.9467   57.4977   61.1817 C   0  0  0  0  0  0  0  0  0  0  0  0
  -49.9422   56.6319   60.4160 C   0  0  0  0  0  0  0  0  0  0  0  0
  -49.4888   57.1581   59.0657 C   0  0  0  0  0  0  0  0  0  0  0  0
  -38.6334   59.7784   65.7833 C   0  0  0  0  0  0  0  0  0  0  0  0
  -38.2829   61.1853   65.8188 O   0  0  0  0  0  0  0  0  0  0  0  0
  -36.7349   61.0321   63.4193 O   0  0  0  0  0  0  0  0  0  0  0  0
  -35.3493   64.7533   64.6970 O   0  0  0  0  0  0  0  0  0  0  0  0
  -36.5611   62.7165   66.5780 O   0  0  0  0  0  0  0  0  0  0  0  0
  -36.8817   61.6288   65.6771 C   0  0  0  0  0  0  0  0  0  0  0  0
  -36.4593   62.0964   64.2769 C   0  0  0  0  0  0  0  0  0  0  0  0
  -34.9568   62.4347   64.1629 C   0  0  0  0  0  0  0  0  0  0  0  0
  -34.7041   63.5582   65.1300 C   0  0  0  0  0  0  0  0  0  0  0  0
  -35.1785   63.1595   66.5158 C   0  0  0  0  0  0  0  0  0  0  0  0
  -37.6762   60.8052   63.4776 H   0  0  0  0  0  0  0  0  0  0  0  0
  -35.0320   64.9892   63.8111 H   0  0  0  0  0  0  0  0  0  0  0  0
  -33.6684   64.9847   66.8349 O   0  0  0  0  0  0  0  0  0  0  0  0
  -34.8470   64.4147   67.3199 C   0  0  0  0  0  0  0  0  0  0  0  0
  -33.4601   65.7817   67.3471 H   0  0  0  0  0  0  0  0  0  0  0  0
  -34.5092   62.9074   62.8720 O   0  0  0  0  0  0  0  0  0  0  0  0
  -32.5970   63.2227   61.1512 O   0  0  0  0  0  0  0  0  0  0  0  0
  -32.0604   62.6225   63.4404 O   0  0  0  0  0  0  0  0  0  0  0  0
  -32.7506   64.8827   62.9024 O   0  0  0  0  0  0  0  0  0  0  0  0
  -32.9590   63.4419   62.5828 S   0  0  0  0  0  0  0  0  0  0  0  0
  -32.7265   62.2885   60.9242 H   0  0  0  0  0  0  0  0  0  0  0  0
  -33.3330   65.4245   62.3474 H   0  0  0  0  0  0  0  0  0  0  0  0
  2  1  1  0  0  0
  2  4  1  0  0  0
  2  5  1  0  0  0
 41 42  1  0  0  0
 41  1  1  0  0  0
 42 46  1  0  0  0
  1 24  1  0  0  0
 23 24  1  0  0  0
 23 25  1  0  0  0
 24 26  1  0  0  0
  3  4  2  0  0  0
 26 27  2  0  0  0
 27 28  1  0  0  0
 43 47  1  0  0  0
 43 51  1  0  0  0
 28 29  1  0  0  0
 56 48  1  0  0  0
 56 60  1  0  0  0
 29 30  1  0  0  0
 57 60  1  0  0  0
 57 61  1  0  0  0
 30 31  1  0  0  0
 44 49  1  0  0  0
 44 52  1  0  0  0
 31 32  1  0  0  0
 45 46  1  0  0  0
 45 50  1  0  0  0
 32 33  1  0  0  0
 53 54  1  0  0  0
 53 55  1  0  0  0
 33 34  1  0  0  0
 34 35  1  0  0  0
 35 36  1  0  0  0
 58 60  1  0  0  0
 36 37  1  0  0  0
 59 60  1  0  0  0
 59 62  1  0  0  0
 37 38  1  0  0  0
 38 39  1  0  0  0
 39 40  1  0  0  0
  4  6  1  0  0  0
  6  7  1  0  0  0
  7  8  1  0  0  0
  8  9  1  0  0  0
  9 10  1  0  0  0
 10 11  1  0  0  0
 11 12  1  0  0  0
 12 13  1  0  0  0
 13 14  1  0  0  0
 14 15  1  0  0  0
 15 16  1  0  0  0
 16 17  1  0  0  0
 17 18  1  0  0  0
 18 19  1  0  0  0
 19 20  1  0  0  0
 20 21  1  0  0  0
 21 22  1  0  0  0
 46 47  1  0  0  0
 47 48  1  0  0  0
 48 49  1  0  0  0
 49 50  1  0  0  0
 50 54  1  0  0  0
M  CHG 1  58  -1
M  END
> <minimizedAffinity>
-9.61034

> <CNNscore>
0.2518916726

> <CNNaffinity>
7.0835599899

> <CNN_VS>
1.7842897177

> <CNNaffinity_variance>
1.2309777737

$$$$
/media/chris/experiments/cd1a-new-docking/inputs/ligands/1onq_ligand.pdb


 62 62  0  0  0  0  0  0  0  0999 V2000
  -35.3076   57.5035   62.6981 C   0  0  0  0  0  0  0  0  0  0  0  0
  -36.3915   57.7211   61.7607 N   0  0  0  0  0  0  0  0  0  0  0  0
  -35.3999   57.2595   59.7729 O   0  0  0  0  0  0  0  0  0  0  0  0
  -36.3691   57.5917   60.4270 C   0  0  0  0  0  0  0  0  0  0  0  0
  -37.2511   57.9984   62.1524 H   0  0  0  0  0  0  0  0  0  0  0  0
  -37.6683   57.8832   59.7363 C   0  0  0  0  0  0  0  0  0  0  0  0
  -37.9890   59.3511   60.0183 C   0  0  0  0  0  0  0  0  0  0  0  0
  -39.1359   59.4509   61.0212 C   0  0  0  0  0  0  0  0  0  0  0  0
  -40.3069   60.3085   60.6067 C   0  0  0  0  0  0  0  0  0  0  0  0
  -40.4741   60.1619   59.0979 C   0  0  0  0  0  0  0  0  0  0  0  0
  -41.8007   59.4949   58.7103 C   0  0  0  0  0  0  0  0  0  0  0  0
  -42.0166   59.3519   57.1926 C   0  0  0  0  0  0  0  0  0  0  0  0
  -43.2520   58.4946   56.8400 C   0  0  0  0  0  0  0  0  0  0  0  0
  -44.1485   58.3088   58.0675 C   0  0  0  0  0  0  0  0  0  0  0  0
  -45.6441   58.2864   57.7764 C   0  0  0  0  0  0  0  0  0  0  0  0
  -46.4279   57.5316   58.8399 C   0  0  0  0  0  0  0  0  0  0  0  0
  -47.7531   56.9152   58.3860 C   0  0  0  0  0  0  0  0  0  0  0  0
  -48.6588   56.7849   59.6032 C   0  0  0  0  0  0  0  0  0  0  0  0
  -50.0544   57.3878   59.5416 C   0  0  0  0  0  0  0  0  0  0  0  0
  -50.7901   57.2092   60.8792 C   0  0  0  0  0  0  0  0  0  0  0  0
  -50.6912   58.4173   61.8286 C   0  0  0  0  0  0  0  0  0  0  0  0
  -49.8240   59.5478   61.2794 C   0  0  0  0  0  0  0  0  0  0  0  0
  -35.5727   56.4223   64.7369 O   0  0  0  0  0  0  0  0  0  0  0  0
  -36.0128   57.5741   64.0417 C   0  0  0  0  0  0  0  0  0  0  0  0
  -34.6108   56.4643   64.8559 H   0  0  0  0  0  0  0  0  0  0  0  0
  -37.5272   57.5704   63.8201 C   0  0  0  0  0  0  0  0  0  0  0  0
  -38.3828   58.2510   64.6016 C   0  0  0  0  0  0  0  0  0  0  0  0
  -39.8824   58.1958   64.3155 C   0  0  0  0  0  0  0  0  0  0  0  0
  -40.5953   59.5469   64.4725 C   0  0  0  0  0  0  0  0  0  0  0  0
  -42.0104   59.4874   65.0770 C   0  0  0  0  0  0  0  0  0  0  0  0
  -42.0282   58.6035   66.3474 C   0  0  0  0  0  0  0  0  0  0  0  0
  -42.8708   57.3073   66.2399 C   0  0  0  0  0  0  0  0  0  0  0  0
  -44.3556   57.5454   65.8773 C   0  0  0  0  0  0  0  0  0  0  0  0
  -45.0645   58.5534   66.8076 C   0  0  0  0  0  0  0  0  0  0  0  0
  -46.3639   58.0190   67.4219 C   0  0  0  0  0  0  0  0  0  0  0  0
  -46.8674   56.6859   66.8727 C   0  0  0  0  0  0  0  0  0  0  0  0
  -48.0599   56.8181   65.9049 C   0  0  0  0  0  0  0  0  0  0  0  0
  -48.7017   58.2124   65.8432 C   0  0  0  0  0  0  0  0  0  0  0  0
  -48.3138   58.9397   64.5526 C   0  0  0  0  0  0  0  0  0  0  0  0
  -48.0734   60.4346   64.6662 C   0  0  0  0  0  0  0  0  0  0  0  0
  -34.0706   58.4104   62.5076 C   0  0  0  0  0  0  0  0  0  0  0  0
  -33.8304   59.4039   63.5365 O   0  0  0  0  0  0  0  0  0  0  0  0
  -35.9284   60.7200   64.9661 O   0  0  0  0  0  0  0  0  0  0  0  0
  -33.2451   63.9132   64.9214 O   0  0  0  0  0  0  0  0  0  0  0  0
  -33.1336   61.6449   62.9220 O   0  0  0  0  0  0  0  0  0  0  0  0
  -34.2371   60.8111   63.3516 C   0  0  0  0  0  0  0  0  0  0  0  0
  -34.8437   61.5061   64.5792 C   0  0  0  0  0  0  0  0  0  0  0  0
  -35.3572   62.9342   64.2929 C   0  0  0  0  0  0  0  0  0  0  0  0
  -34.1617   63.7291   63.8454 C   0  0  0  0  0  0  0  0  0  0  0  0
  -33.4898   63.0321   62.6762 C   0  0  0  0  0  0  0  0  0  0  0  0
  -35.6243   59.8175   65.1504 H   0  0  0  0  0  0  0  0  0  0  0  0
  -33.6945   64.3593   65.6563 H   0  0  0  0  0  0  0  0  0  0  0  0
  -31.4633   63.3931   61.4611 O   0  0  0  0  0  0  0  0  0  0  0  0
  -32.3237   63.9766   62.3929 C   0  0  0  0  0  0  0  0  0  0  0  0
  -30.7237   63.9948   61.2828 H   0  0  0  0  0  0  0  0  0  0  0  0
  -35.9138   63.6462   65.4213 O   0  0  0  0  0  0  0  0  0  0  0  0
  -34.4341   62.6252   67.2882 O   0  0  0  0  0  0  0  0  0  0  0  0
  -36.7507   61.9322   67.0834 O   0  0  0  0  0  0  0  0  0  0  0  0
  -36.2053   64.1045   68.0097 O   0  0  0  0  0  0  0  0  0  0  0  0
  -35.8206   63.0900   66.9879 S   0  0  0  0  0  0  0  0  0  0  0  0
  -34.1658   61.9630   66.6322 H   0  0  0  0  0  0  0  0  0  0  0  0
  -35.6036   64.8633   67.9544 H   0  0  0  0  0  0  0  0  0  0  0  0
  2  1  1  0  0  0
  2  4  1  0  0  0
  2  5  1  0  0  0
 41 42  1  0  0  0
 41  1  1  0  0  0
 42 46  1  0  0  0
  1 24  1  0  0  0
 23 24  1  0  0  0
 23 25  1  0  0  0
 24 26  1  0  0  0
  3  4  2  0  0  0
 26 27  2  0  0  0
 27 28  1  0  0  0
 43 47  1  0  0  0
 43 51  1  0  0  0
 28 29  1  0  0  0
 56 48  1  0  0  0
 56 60  1  0  0  0
 29 30  1  0  0  0
 57 60  1  0  0  0
 57 61  1  0  0  0
 30 31  1  0  0  0
 44 49  1  0  0  0
 44 52  1  0  0  0
 31 32  1  0  0  0
 45 46  1  0  0  0
 45 50  1  0  0  0
 32 33  1  0  0  0
 53 54  1  0  0  0
 53 55  1  0  0  0
 33 34  1  0  0  0
 34 35  1  0  0  0
 35 36  1  0  0  0
 58 60  1  0  0  0
 36 37  1  0  0  0
 59 60  1  0  0  0
 59 62  1  0  0  0
 37 38  1  0  0  0
 38 39  1  0  0  0
 39 40  1  0  0  0
  4  6  1  0  0  0
  6  7  1  0  0  0
  7  8  1  0  0  0
  8  9  1  0  0  0
  9 10  1  0  0  0
 10 11  1  0  0  0
 11 12  1  0  0  0
 12 13  1  0  0  0
 13 14  1  0  0  0
 14 15  1  0  0  0
 15 16  1  0  0  0
 16 17  1  0  0  0
 17 18  1  0  0  0
 18 19  1  0  0  0
 19 20  1  0  0  0
 20 21  1  0  0  0
 21 22  1  0  0  0
 46 47  1  0  0  0
 47 48  1  0  0  0
 48 49  1  0  0  0
 49 50  1  0  0  0
 50 54  1  0  0  0
M  CHG 1  58  -1
M  END
> <minimizedAffinity>
-9.19380

> <CNNscore>
0.2448420972

> <CNNaffinity>
6.9203553200

> <CNN_VS>
1.6943943501

> <CNNaffinity_variance>
1.5210781097

$$$$
/media/chris/experiments/cd1a-new-docking/inputs/ligands/1onq_ligand.pdb


 62 62  0  0  0  0  0  0  0  0999 V2000
  -39.9297   59.2024   64.8233 C   0  0  0  0  0  0  0  0  0  0  0  0
  -40.0128   59.2886   63.3787 N   0  0  0  0  0  0  0  0  0  0  0  0
  -41.0222   61.2985   63.0803 O   0  0  0  0  0  0  0  0  0  0  0  0
  -40.5272   60.2800   62.6383 C   0  0  0  0  0  0  0  0  0  0  0  0
  -39.6458   58.5236   62.8794 H   0  0  0  0  0  0  0  0  0  0  0  0
  -40.4548   60.0714   61.1547 C   0  0  0  0  0  0  0  0  0  0  0  0
  -38.9696   60.0007   60.7991 C   0  0  0  0  0  0  0  0  0  0  0  0
  -38.8021   59.5916   59.3377 C   0  0  0  0  0  0  0  0  0  0  0  0
  -37.7073   58.5932   59.0496 C   0  0  0  0  0  0  0  0  0  0  0  0
  -37.0382   58.2476   60.3758 C   0  0  0  0  0  0  0  0  0  0  0  0
  -37.5637   56.9395   60.9821 C   0  0  0  0  0  0  0  0  0  0  0  0
  -37.6038   56.9273   62.5212 C   0  0  0  0  0  0  0  0  0  0  0  0
  -36.6867   57.9968   63.1542 C   0  0  0  0  0  0  0  0  0  0  0  0
  -35.8027   57.3761   64.2397 C   0  0  0  0  0  0  0  0  0  0  0  0
  -34.5628   58.1844   64.6020 C   0  0  0  0  0  0  0  0  0  0  0  0
  -33.9855   58.9241   63.4043 C   0  0  0  0  0  0  0  0  0  0  0  0
  -32.8501   58.2160   62.6616 C   0  0  0  0  0  0  0  0  0  0  0  0
  -33.4118   57.6460   61.3661 C   0  0  0  0  0  0  0  0  0  0  0  0
  -33.5633   56.1374   61.2384 C   0  0  0  0  0  0  0  0  0  0  0  0
  -34.3042   55.7668   59.9438 C   0  0  0  0  0  0  0  0  0  0  0  0
  -33.4804   55.9636   58.6579 C   0  0  0  0  0  0  0  0  0  0  0  0
  -33.9924   57.1040   57.7811 C   0  0  0  0  0  0  0  0  0  0  0  0
  -40.9981   60.7716   66.1618 O   0  0  0  0  0  0  0  0  0  0  0  0
  -41.2893   59.7165   65.2643 C   0  0  0  0  0  0  0  0  0  0  0  0
  -40.5075   61.4666   65.6956 H   0  0  0  0  0  0  0  0  0  0  0  0
  -42.0654   58.5830   65.9391 C   0  0  0  0  0  0  0  0  0  0  0  0
  -43.2788   58.1796   65.5258 C   0  0  0  0  0  0  0  0  0  0  0  0
  -43.9901   57.0404   66.2537 C   0  0  0  0  0  0  0  0  0  0  0  0
  -45.5192   57.0736   66.1159 C   0  0  0  0  0  0  0  0  0  0  0  0
  -46.0643   57.9008   64.9370 C   0  0  0  0  0  0  0  0  0  0  0  0
  -46.7469   59.1945   65.4429 C   0  0  0  0  0  0  0  0  0  0  0  0
  -48.0368   58.9803   66.2746 C   0  0  0  0  0  0  0  0  0  0  0  0
  -49.0005   57.9221   65.6875 C   0  0  0  0  0  0  0  0  0  0  0  0
  -50.4477   58.4325   65.5161 C   0  0  0  0  0  0  0  0  0  0  0  0
  -50.7304   59.0359   64.1351 C   0  0  0  0  0  0  0  0  0  0  0  0
  -50.2300   58.2328   62.9364 C   0  0  0  0  0  0  0  0  0  0  0  0
  -49.6535   59.0991   61.7992 C   0  0  0  0  0  0  0  0  0  0  0  0
  -49.6815   58.4535   60.4056 C   0  0  0  0  0  0  0  0  0  0  0  0
  -48.5883   57.3896   60.2704 C   0  0  0  0  0  0  0  0  0  0  0  0
  -47.6130   57.5662   59.1201 C   0  0  0  0  0  0  0  0  0  0  0  0
  -38.6886   59.8686   65.4595 C   0  0  0  0  0  0  0  0  0  0  0  0
  -38.2697   61.1353   64.8909 O   0  0  0  0  0  0  0  0  0  0  0  0
  -36.3305   61.4465   62.8124 O   0  0  0  0  0  0  0  0  0  0  0  0
  -35.4098   64.9321   64.9106 O   0  0  0  0  0  0  0  0  0  0  0  0
  -36.7977   62.5647   66.1853 O   0  0  0  0  0  0  0  0  0  0  0  0
  -36.8943   61.6395   65.0752 C   0  0  0  0  0  0  0  0  0  0  0  0
  -36.2694   62.3547   63.8686 C   0  0  0  0  0  0  0  0  0  0  0  0
  -34.7926   62.7538   64.0804 C   0  0  0  0  0  0  0  0  0  0  0  0
  -34.7763   63.7007   65.2486 C   0  0  0  0  0  0  0  0  0  0  0  0
  -35.4540   63.0542   66.4433 C   0  0  0  0  0  0  0  0  0  0  0  0
  -37.2526   61.1840   62.6646 H   0  0  0  0  0  0  0  0  0  0  0  0
  -34.9617   65.3270   64.1462 H   0  0  0  0  0  0  0  0  0  0  0  0
  -34.0116   64.5783   67.5881 O   0  0  0  0  0  0  0  0  0  0  0  0
  -35.3404   64.1615   67.4889 C   0  0  0  0  0  0  0  0  0  0  0  0
  -33.9422   65.2814   68.2527 H   0  0  0  0  0  0  0  0  0  0  0  0
  -34.1619   63.4558   62.9853 O   0  0  0  0  0  0  0  0  0  0  0  0
  -32.4446   61.7587   62.0430 O   0  0  0  0  0  0  0  0  0  0  0  0
  -31.7349   63.3872   63.6962 O   0  0  0  0  0  0  0  0  0  0  0  0
  -32.1321   64.0698   61.4048 O   0  0  0  0  0  0  0  0  0  0  0  0
  -32.5945   63.1717   62.5008 S   0  0  0  0  0  0  0  0  0  0  0  0
  -32.7413   61.1583   62.7446 H   0  0  0  0  0  0  0  0  0  0  0  0
  -32.6875   63.9358   60.6209 H   0  0  0  0  0  0  0  0  0  0  0  0
  2  1  1  0  0  0
  2  4  1  0  0  0
  2  5  1  0  0  0
 41 42  1  0  0  0
 41  1  1  0  0  0
 42 46  1  0  0  0
  1 24  1  0  0  0
 23 24  1  0  0  0
 23 25  1  0  0  0
 24 26  1  0  0  0
  3  4  2  0  0  0
 26 27  2  0  0  0
 27 28  1  0  0  0
 43 47  1  0  0  0
 43 51  1  0  0  0
 28 29  1  0  0  0
 56 48  1  0  0  0
 56 60  1  0  0  0
 29 30  1  0  0  0
 57 60  1  0  0  0
 57 61  1  0  0  0
 30 31  1  0  0  0
 44 49  1  0  0  0
 44 52  1  0  0  0
 31 32  1  0  0  0
 45 46  1  0  0  0
 45 50  1  0  0  0
 32 33  1  0  0  0
 53 54  1  0  0  0
 53 55  1  0  0  0
 33 34  1  0  0  0
 34 35  1  0  0  0
 35 36  1  0  0  0
 58 60  1  0  0  0
 36 37  1  0  0  0
 59 60  1  0  0  0
 59 62  1  0  0  0
 37 38  1  0  0  0
 38 39  1  0  0  0
 39 40  1  0  0  0
  4  6  1  0  0  0
  6  7  1  0  0  0
  7  8  1  0  0  0
  8  9  1  0  0  0
  9 10  1  0  0  0
 10 11  1  0  0  0
 11 12  1  0  0  0
 12 13  1  0  0  0
 13 14  1  0  0  0
 14 15  1  0  0  0
 15 16  1  0  0  0
 16 17  1  0  0  0
 17 18  1  0  0  0
 18 19  1  0  0  0
 19 20  1  0  0  0
 20 21  1  0  0  0
 21 22  1  0  0  0
 46 47  1  0  0  0
 47 48  1  0  0  0
 48 49  1  0  0  0
 49 50  1  0  0  0
 50 54  1  0  0  0
M  CHG 1  58  -1
M  END
> <minimizedAffinity>
-9.65172

> <CNNscore>
0.2382994741

> <CNNaffinity>
7.2286977768

> <CNN_VS>
1.7225948572

> <CNNaffinity_variance>
1.6271816492

$$$$
