/media/chris/experiments/cd1a-new-docking/inputs/ligands/1onq_ligand.pdb


 62 62  0  0  0  0  0  0  0  0999 V2000
  -37.3044   57.7837   64.1674 C   0  0  0  0  0  0  0  0  0  0  0  0
  -36.6536   57.7079   62.8744 N   0  0  0  0  0  0  0  0  0  0  0  0
  -34.4613   57.6149   63.4510 O   0  0  0  0  0  0  0  0  0  0  0  0
  -35.3416   57.6322   62.6128 C   0  0  0  0  0  0  0  0  0  0  0  0
  -37.2497   57.7126   62.0909 H   0  0  0  0  0  0  0  0  0  0  0  0
  -34.9848   57.5573   61.1578 C   0  0  0  0  0  0  0  0  0  0  0  0
  -34.5097   56.1271   60.9012 C   0  0  0  0  0  0  0  0  0  0  0  0
  -35.1218   55.5987   59.6061 C   0  0  0  0  0  0  0  0  0  0  0  0
  -36.5443   56.0182   59.3252 C   0  0  0  0  0  0  0  0  0  0  0  0
  -36.5368   56.8429   58.0424 C   0  0  0  0  0  0  0  0  0  0  0  0
  -37.1457   58.2388   58.2314 C   0  0  0  0  0  0  0  0  0  0  0  0
  -37.9727   58.3986   59.5202 C   0  0  0  0  0  0  0  0  0  0  0  0
  -38.3994   59.8597   59.7824 C   0  0  0  0  0  0  0  0  0  0  0  0
  -39.9223   59.9635   59.9065 C   0  0  0  0  0  0  0  0  0  0  0  0
  -40.6660   60.1417   58.5886 C   0  0  0  0  0  0  0  0  0  0  0  0
  -41.9787   59.3731   58.5579 C   0  0  0  0  0  0  0  0  0  0  0  0
  -42.5157   59.0173   57.1696 C   0  0  0  0  0  0  0  0  0  0  0  0
  -43.8986   58.4024   57.3376 C   0  0  0  0  0  0  0  0  0  0  0  0
  -44.4512   58.2236   58.7440 C   0  0  0  0  0  0  0  0  0  0  0  0
  -45.6829   57.3044   58.7381 C   0  0  0  0  0  0  0  0  0  0  0  0
  -46.9055   57.8797   57.9998 C   0  0  0  0  0  0  0  0  0  0  0  0
  -48.2367   57.3691   58.5466 C   0  0  0  0  0  0  0  0  0  0  0  0
  -38.7932   57.3603   62.4353 O   0  0  0  0  0  0  0  0  0  0  0  0
  -38.7246   57.3486   63.8491 C   0  0  0  0  0  0  0  0  0  0  0  0
  -38.1549   56.7246   62.0754 H   0  0  0  0  0  0  0  0  0  0  0  0
  -39.7104   58.3334   64.4824 C   0  0  0  0  0  0  0  0  0  0  0  0
  -40.7642   57.9422   65.2191 C   0  0  0  0  0  0  0  0  0  0  0  0
  -41.7038   58.9876   65.8170 C   0  0  0  0  0  0  0  0  0  0  0  0
  -42.8991   58.3892   66.5730 C   0  0  0  0  0  0  0  0  0  0  0  0
  -43.2798   56.9485   66.1847 C   0  0  0  0  0  0  0  0  0  0  0  0
  -44.7209   56.8936   65.6232 C   0  0  0  0  0  0  0  0  0  0  0  0
  -45.1584   58.1319   64.8006 C   0  0  0  0  0  0  0  0  0  0  0  0
  -46.6309   58.0910   64.3287 C   0  0  0  0  0  0  0  0  0  0  0  0
  -47.6237   58.6848   65.3514 C   0  0  0  0  0  0  0  0  0  0  0  0
  -48.7217   57.7067   65.7861 C   0  0  0  0  0  0  0  0  0  0  0  0
  -50.1531   58.1028   65.4300 C   0  0  0  0  0  0  0  0  0  0  0  0
  -50.2485   59.2666   64.4238 C   0  0  0  0  0  0  0  0  0  0  0  0
  -51.1307   58.9990   63.1949 C   0  0  0  0  0  0  0  0  0  0  0  0
  -50.3172   58.3685   62.0609 C   0  0  0  0  0  0  0  0  0  0  0  0
  -51.0550   57.3910   61.1633 C   0  0  0  0  0  0  0  0  0  0  0  0
  -37.1338   59.1222   64.9211 C   0  0  0  0  0  0  0  0  0  0  0  0
  -36.4876   60.1978   64.1938 O   0  0  0  0  0  0  0  0  0  0  0  0
  -33.9207   60.7774   63.0747 O   0  0  0  0  0  0  0  0  0  0  0  0
  -34.6585   64.5591   64.6727 O   0  0  0  0  0  0  0  0  0  0  0  0
  -36.0191   62.0531   65.6851 O   0  0  0  0  0  0  0  0  0  0  0  0
  -35.4492   61.0344   64.8276 C   0  0  0  0  0  0  0  0  0  0  0  0
  -34.4951   61.7660   63.8727 C   0  0  0  0  0  0  0  0  0  0  0  0
  -33.3607   62.5282   64.5923 C   0  0  0  0  0  0  0  0  0  0  0  0
  -34.0308   63.5536   65.4647 C   0  0  0  0  0  0  0  0  0  0  0  0
  -35.0386   62.8746   66.3745 C   0  0  0  0  0  0  0  0  0  0  0  0
  -34.6196   60.2872   62.6140 H   0  0  0  0  0  0  0  0  0  0  0  0
  -33.9978   64.9790   64.1001 H   0  0  0  0  0  0  0  0  0  0  0  0
  -36.9406   64.2534   66.8156 O   0  0  0  0  0  0  0  0  0  0  0  0
  -35.5975   64.0673   67.1473 C   0  0  0  0  0  0  0  0  0  0  0  0
  -37.2932   65.0113   67.3077 H   0  0  0  0  0  0  0  0  0  0  0  0
  -32.4482   63.2588   63.7417 O   0  0  0  0  0  0  0  0  0  0  0  0
  -34.0724   63.5296   61.7404 O   0  0  0  0  0  0  0  0  0  0  0  0
  -32.1325   62.0882   61.5211 O   0  0  0  0  0  0  0  0  0  0  0  0
  -31.8724   64.4975   61.4772 O   0  0  0  0  0  0  0  0  0  0  0  0
  -32.6300   63.3700   62.0906 S   0  0  0  0  0  0  0  0  0  0  0  0
  -34.5824   62.8033   62.1318 H   0  0  0  0  0  0  0  0  0  0  0  0
  -32.1906   65.3377   61.8430 H   0  0  0  0  0  0  0  0  0  0  0  0
  2  1  1  0  0  0
  2  4  1  0  0  0
  2  5  1  0  0  0
 41 42  1  0  0  0
 41  1  1  0  0  0
 42 46  1  0  0  0
  1 24  1  0  0  0
 23 24  1  0  0  0
 23 25  1  0  0  0
 24 26  1  0  0  0
  3  4  2  0  0  0
 26 27  2  0  0  0
 27 28  1  0  0  0
 43 47  1  0  0  0
 43 51  1  0  0  0
 28 29  1  0  0  0
 56 48  1  0  0  0
 56 60  1  0  0  0
 29 30  1  0  0  0
 57 60  1  0  0  0
 57 61  1  0  0  0
 30 31  1  0  0  0
 44 49  1  0  0  0
 44 52  1  0  0  0
 31 32  1  0  0  0
 45 46  1  0  0  0
 45 50  1  0  0  0
 32 33  1  0  0  0
 53 54  1  0  0  0
 53 55  1  0  0  0
 33 34  1  0  0  0
 34 35  1  0  0  0
 35 36  1  0  0  0
 58 60  1  0  0  0
 36 37  1  0  0  0
 59 60  1  0  0  0
 59 62  1  0  0  0
 37 38  1  0  0  0
 38 39  1  0  0  0
 39 40  1  0  0  0
  4  6  1  0  0  0
  6  7  1  0  0  0
  7  8  1  0  0  0
  8  9  1  0  0  0
  9 10  1  0  0  0
 10 11  1  0  0  0
 11 12  1  0  0  0
 12 13  1  0  0  0
 13 14  1  0  0  0
 14 15  1  0  0  0
 15 16  1  0  0  0
 16 17  1  0  0  0
 17 18  1  0  0  0
 18 19  1  0  0  0
 19 20  1  0  0  0
 20 21  1  0  0  0
 21 22  1  0  0  0
 46 47  1  0  0  0
 47 48  1  0  0  0
 48 49  1  0  0  0
 49 50  1  0  0  0
 50 54  1  0  0  0
M  CHG 1  58  -1
M  END
> <minimizedAffinity>
-9.07972

> <CNNscore>
0.4011914432

> <CNNaffinity>
7.1420593262

> <CNN_VS>
2.8653330803

> <CNNaffinity_variance>
1.0320117474

$$$$
/media/chris/experiments/cd1a-new-docking/inputs/ligands/1onq_ligand.pdb


 62 62  0  0  0  0  0  0  0  0999 V2000
  -35.8811   58.1648   64.1144 C   0  0  0  0  0  0  0  0  0  0  0  0
  -35.2994   57.8431   62.8262 N   0  0  0  0  0  0  0  0  0  0  0  0
  -33.1076   58.3234   63.1616 O   0  0  0  0  0  0  0  0  0  0  0  0
  -34.0163   57.9381   62.4520 C   0  0  0  0  0  0  0  0  0  0  0  0
  -35.9250   57.5138   62.1410 H   0  0  0  0  0  0  0  0  0  0  0  0
  -33.7307   57.5169   61.0410 C   0  0  0  0  0  0  0  0  0  0  0  0
  -34.2631   56.0909   60.8982 C   0  0  0  0  0  0  0  0  0  0  0  0
  -34.7149   55.8444   59.4608 C   0  0  0  0  0  0  0  0  0  0  0  0
  -36.2043   55.7312   59.2437 C   0  0  0  0  0  0  0  0  0  0  0  0
  -36.5283   56.4013   57.9126 C   0  0  0  0  0  0  0  0  0  0  0  0
  -36.8825   57.8864   58.0671 C   0  0  0  0  0  0  0  0  0  0  0  0
  -37.5231   58.2461   59.4203 C   0  0  0  0  0  0  0  0  0  0  0  0
  -38.1247   59.6685   59.4405 C   0  0  0  0  0  0  0  0  0  0  0  0
  -39.5281   59.6525   60.0532 C   0  0  0  0  0  0  0  0  0  0  0  0
  -40.5862   60.4111   59.2613 C   0  0  0  0  0  0  0  0  0  0  0  0
  -41.7305   59.5118   58.8178 C   0  0  0  0  0  0  0  0  0  0  0  0
  -41.9920   59.4524   57.3110 C   0  0  0  0  0  0  0  0  0  0  0  0
  -43.2332   58.6020   57.0767 C   0  0  0  0  0  0  0  0  0  0  0  0
  -44.0851   58.2096   58.2748 C   0  0  0  0  0  0  0  0  0  0  0  0
  -45.5769   58.1896   57.9059 C   0  0  0  0  0  0  0  0  0  0  0  0
  -46.4413   57.2722   58.7902 C   0  0  0  0  0  0  0  0  0  0  0  0
  -47.9355   57.3821   58.4954 C   0  0  0  0  0  0  0  0  0  0  0  0
  -37.4612   57.1294   62.7628 O   0  0  0  0  0  0  0  0  0  0  0  0
  -37.1421   57.3180   64.1289 C   0  0  0  0  0  0  0  0  0  0  0  0
  -36.7382   56.6538   62.3246 H   0  0  0  0  0  0  0  0  0  0  0  0
  -38.2459   58.0653   64.8811 C   0  0  0  0  0  0  0  0  0  0  0  0
  -39.5303   58.0653   64.4855 C   0  0  0  0  0  0  0  0  0  0  0  0
  -40.5738   58.8374   65.2906 C   0  0  0  0  0  0  0  0  0  0  0  0
  -41.7406   57.9718   65.7880 C   0  0  0  0  0  0  0  0  0  0  0  0
  -42.9750   58.7424   66.2914 C   0  0  0  0  0  0  0  0  0  0  0  0
  -43.9814   58.9799   65.1398 C   0  0  0  0  0  0  0  0  0  0  0  0
  -45.1466   57.9614   65.0585 C   0  0  0  0  0  0  0  0  0  0  0  0
  -46.3902   58.3539   65.8903 C   0  0  0  0  0  0  0  0  0  0  0  0
  -47.4535   57.2376   65.9757 C   0  0  0  0  0  0  0  0  0  0  0  0
  -48.8874   57.7315   65.7488 C   0  0  0  0  0  0  0  0  0  0  0  0
  -49.1305   58.5195   64.4634 C   0  0  0  0  0  0  0  0  0  0  0  0
  -50.6068   58.5562   64.0215 C   0  0  0  0  0  0  0  0  0  0  0  0
  -50.8782   59.3021   62.7062 C   0  0  0  0  0  0  0  0  0  0  0  0
  -50.1782   58.6152   61.5301 C   0  0  0  0  0  0  0  0  0  0  0  0
  -50.7728   57.2970   61.0669 C   0  0  0  0  0  0  0  0  0  0  0  0
  -36.0459   59.6724   64.4125 C   0  0  0  0  0  0  0  0  0  0  0  0
  -36.1553   60.5520   63.2646 O   0  0  0  0  0  0  0  0  0  0  0  0
  -36.7786   62.8184   64.8931 O   0  0  0  0  0  0  0  0  0  0  0  0
  -32.6275   63.2046   65.0293 O   0  0  0  0  0  0  0  0  0  0  0  0
  -34.0675   61.7081   62.8287 O   0  0  0  0  0  0  0  0  0  0  0  0
  -35.4531   61.8503   63.2255 C   0  0  0  0  0  0  0  0  0  0  0  0
  -35.4414   62.6517   64.5351 C   0  0  0  0  0  0  0  0  0  0  0  0
  -34.7972   64.0491   64.4015 C   0  0  0  0  0  0  0  0  0  0  0  0
  -33.3726   63.8167   63.9795 C   0  0  0  0  0  0  0  0  0  0  0  0
  -33.3412   62.9624   62.7251 C   0  0  0  0  0  0  0  0  0  0  0  0
  -37.2003   61.9494   64.9818 H   0  0  0  0  0  0  0  0  0  0  0  0
  -32.6609   63.7660   65.8196 H   0  0  0  0  0  0  0  0  0  0  0  0
  -31.5398   61.5570   62.0229 O   0  0  0  0  0  0  0  0  0  0  0  0
  -31.8386   62.8412   62.4813 C   0  0  0  0  0  0  0  0  0  0  0  0
  -30.5850   61.4826   61.8689 H   0  0  0  0  0  0  0  0  0  0  0  0
  -34.7343   64.8370   65.6120 O   0  0  0  0  0  0  0  0  0  0  0  0
  -34.1903   62.8899   67.2336 O   0  0  0  0  0  0  0  0  0  0  0  0
  -36.3761   63.9409   67.3157 O   0  0  0  0  0  0  0  0  0  0  0  0
  -34.4410   65.0789   68.2292 O   0  0  0  0  0  0  0  0  0  0  0  0
  -34.9199   64.1885   67.1341 S   0  0  0  0  0  0  0  0  0  0  0  0
  -34.4894   62.2960   66.5274 H   0  0  0  0  0  0  0  0  0  0  0  0
  -33.4918   65.2457   68.1186 H   0  0  0  0  0  0  0  0  0  0  0  0
  2  1  1  0  0  0
  2  4  1  0  0  0
  2  5  1  0  0  0
 41 42  1  0  0  0
 41  1  1  0  0  0
 42 46  1  0  0  0
  1 24  1  0  0  0
 23 24  1  0  0  0
 23 25  1  0  0  0
 24 26  1  0  0  0
  3  4  2  0  0  0
 26 27  2  0  0  0
 27 28  1  0  0  0
 43 47  1  0  0  0
 43 51  1  0  0  0
 28 29  1  0  0  0
 56 48  1  0  0  0
 56 60  1  0  0  0
 29 30  1  0  0  0
 57 60  1  0  0  0
 57 61  1  0  0  0
 30 31  1  0  0  0
 44 49  1  0  0  0
 44 52  1  0  0  0
 31 32  1  0  0  0
 45 46  1  0  0  0
 45 50  1  0  0  0
 32 33  1  0  0  0
 53 54  1  0  0  0
 53 55  1  0  0  0
 33 34  1  0  0  0
 34 35  1  0  0  0
 35 36  1  0  0  0
 58 60  1  0  0  0
 36 37  1  0  0  0
 59 60  1  0  0  0
 59 62  1  0  0  0
 37 38  1  0  0  0
 38 39  1  0  0  0
 39 40  1  0  0  0
  4  6  1  0  0  0
  6  7  1  0  0  0
  7  8  1  0  0  0
  8  9  1  0  0  0
  9 10  1  0  0  0
 10 11  1  0  0  0
 11 12  1  0  0  0
 12 13  1  0  0  0
 13 14  1  0  0  0
 14 15  1  0  0  0
 15 16  1  0  0  0
 16 17  1  0  0  0
 17 18  1  0  0  0
 18 19  1  0  0  0
 19 20  1  0  0  0
 20 21  1  0  0  0
 21 22  1  0  0  0
 46 47  1  0  0  0
 47 48  1  0  0  0
 48 49  1  0  0  0
 49 50  1  0  0  0
 50 54  1  0  0  0
M  CHG 1  58  -1
M  END
> <minimizedAffinity>
-9.21802

> <CNNscore>
0.3806193471

> <CNNaffinity>
6.9925041199

> <CNN_VS>
2.6614823341

> <CNNaffinity_variance>
1.1623961926

$$$$
/media/chris/experiments/cd1a-new-docking/inputs/ligands/1onq_ligand.pdb


 62 62  0  0  0  0  0  0  0  0999 V2000
  -39.9621   59.4480   64.7193 C   0  0  0  0  0  0  0  0  0  0  0  0
  -40.0465   59.4637   63.2724 N   0  0  0  0  0  0  0  0  0  0  0  0
  -41.0042   61.4816   62.8744 O   0  0  0  0  0  0  0  0  0  0  0  0
  -40.5368   60.4297   62.4836 C   0  0  0  0  0  0  0  0  0  0  0  0
  -39.7006   58.6653   62.8118 H   0  0  0  0  0  0  0  0  0  0  0  0
  -40.4735   60.1450   61.0123 C   0  0  0  0  0  0  0  0  0  0  0  0
  -38.9905   60.0629   60.6502 C   0  0  0  0  0  0  0  0  0  0  0  0
  -38.8194   59.3515   59.3101 C   0  0  0  0  0  0  0  0  0  0  0  0
  -37.4041   58.9976   58.9228 C   0  0  0  0  0  0  0  0  0  0  0  0
  -37.4689   57.7911   57.9923 C   0  0  0  0  0  0  0  0  0  0  0  0
  -36.4609   56.6970   58.3689 C   0  0  0  0  0  0  0  0  0  0  0  0
  -35.0059   57.0170   57.9800 C   0  0  0  0  0  0  0  0  0  0  0  0
  -33.9738   56.3449   58.9120 C   0  0  0  0  0  0  0  0  0  0  0  0
  -34.6543   55.8115   60.1759 C   0  0  0  0  0  0  0  0  0  0  0  0
  -34.0186   56.2563   61.4874 C   0  0  0  0  0  0  0  0  0  0  0  0
  -33.2660   57.5712   61.3474 C   0  0  0  0  0  0  0  0  0  0  0  0
  -33.4354   58.5671   62.4971 C   0  0  0  0  0  0  0  0  0  0  0  0
  -33.8686   57.7945   63.7357 C   0  0  0  0  0  0  0  0  0  0  0  0
  -35.1336   58.2293   64.4610 C   0  0  0  0  0  0  0  0  0  0  0  0
  -36.3453   57.4074   63.9939 C   0  0  0  0  0  0  0  0  0  0  0  0
  -37.0207   57.9357   62.7150 C   0  0  0  0  0  0  0  0  0  0  0  0
  -37.7545   56.8525   61.9278 C   0  0  0  0  0  0  0  0  0  0  0  0
  -40.8721   61.0871   66.0910 O   0  0  0  0  0  0  0  0  0  0  0  0
  -41.2603   60.1192   65.1339 C   0  0  0  0  0  0  0  0  0  0  0  0
  -40.2750   61.7298   65.6770 H   0  0  0  0  0  0  0  0  0  0  0  0
  -42.2066   59.0713   65.7246 C   0  0  0  0  0  0  0  0  0  0  0  0
  -43.4824   58.9299   65.3263 C   0  0  0  0  0  0  0  0  0  0  0  0
  -44.3645   57.8596   65.9663 C   0  0  0  0  0  0  0  0  0  0  0  0
  -45.8002   58.3251   66.2497 C   0  0  0  0  0  0  0  0  0  0  0  0
  -46.4986   59.0712   65.0979 C   0  0  0  0  0  0  0  0  0  0  0  0
  -47.6504   58.2203   64.5108 C   0  0  0  0  0  0  0  0  0  0  0  0
  -48.8773   59.0232   64.0092 C   0  0  0  0  0  0  0  0  0  0  0  0
  -49.9953   58.1512   63.3908 C   0  0  0  0  0  0  0  0  0  0  0  0
  -50.5058   58.6748   62.0310 C   0  0  0  0  0  0  0  0  0  0  0  0
  -50.8598   57.5641   61.0348 C   0  0  0  0  0  0  0  0  0  0  0  0
  -49.7025   56.6790   60.5771 C   0  0  0  0  0  0  0  0  0  0  0  0
  -49.0264   57.1557   59.2765 C   0  0  0  0  0  0  0  0  0  0  0  0
  -47.5081   57.3711   59.3687 C   0  0  0  0  0  0  0  0  0  0  0  0
  -46.9180   57.7190   57.9991 C   0  0  0  0  0  0  0  0  0  0  0  0
  -47.2467   56.7688   56.8611 C   0  0  0  0  0  0  0  0  0  0  0  0
  -38.6561   60.0197   65.3162 C   0  0  0  0  0  0  0  0  0  0  0  0
  -38.2153   61.3021   64.8019 O   0  0  0  0  0  0  0  0  0  0  0  0
  -36.2450   61.6529   62.7593 O   0  0  0  0  0  0  0  0  0  0  0  0
  -35.3046   65.0560   64.9805 O   0  0  0  0  0  0  0  0  0  0  0  0
  -36.7411   62.6685   66.1604 O   0  0  0  0  0  0  0  0  0  0  0  0
  -36.8357   61.7809   65.0198 C   0  0  0  0  0  0  0  0  0  0  0  0
  -36.1855   62.5257   63.8451 C   0  0  0  0  0  0  0  0  0  0  0  0
  -34.7062   62.8971   64.0883 C   0  0  0  0  0  0  0  0  0  0  0  0
  -34.6925   63.8056   65.2867 C   0  0  0  0  0  0  0  0  0  0  0  0
  -35.3945   63.1307   66.4511 C   0  0  0  0  0  0  0  0  0  0  0  0
  -37.1684   61.4081   62.5914 H   0  0  0  0  0  0  0  0  0  0  0  0
  -34.8413   65.4690   64.2351 H   0  0  0  0  0  0  0  0  0  0  0  0
  -33.9664   64.6718   67.5908 O   0  0  0  0  0  0  0  0  0  0  0  0
  -35.2796   64.2020   67.5333 C   0  0  0  0  0  0  0  0  0  0  0  0
  -33.8961   65.3520   68.2787 H   0  0  0  0  0  0  0  0  0  0  0  0
  -34.0517   63.6251   63.0246 O   0  0  0  0  0  0  0  0  0  0  0  0
  -32.4623   61.8559   61.9947 O   0  0  0  0  0  0  0  0  0  0  0  0
  -31.6091   63.4130   63.6490 O   0  0  0  0  0  0  0  0  0  0  0  0
  -32.0466   64.1583   61.3846 O   0  0  0  0  0  0  0  0  0  0  0  0
  -32.5195   63.2662   62.4810 S   0  0  0  0  0  0  0  0  0  0  0  0
  -32.7671   61.2594   62.6962 H   0  0  0  0  0  0  0  0  0  0  0  0
  -32.6348   64.0689   60.6185 H   0  0  0  0  0  0  0  0  0  0  0  0
  2  1  1  0  0  0
  2  4  1  0  0  0
  2  5  1  0  0  0
 41 42  1  0  0  0
 41  1  1  0  0  0
 42 46  1  0  0  0
  1 24  1  0  0  0
 23 24  1  0  0  0
 23 25  1  0  0  0
 24 26  1  0  0  0
  3  4  2  0  0  0
 26 27  2  0  0  0
 27 28  1  0  0  0
 43 47  1  0  0  0
 43 51  1  0  0  0
 28 29  1  0  0  0
 56 48  1  0  0  0
 56 60  1  0  0  0
 29 30  1  0  0  0
 57 60  1  0  0  0
 57 61  1  0  0  0
 30 31  1  0  0  0
 44 49  1  0  0  0
 44 52  1  0  0  0
 31 32  1  0  0  0
 45 46  1  0  0  0
 45 50  1  0  0  0
 32 33  1  0  0  0
 53 54  1  0  0  0
 53 55  1  0  0  0
 33 34  1  0  0  0
 34 35  1  0  0  0
 35 36  1  0  0  0
 58 60  1  0  0  0
 36 37  1  0  0  0
 59 60  1  0  0  0
 59 62  1  0  0  0
 37 38  1  0  0  0
 38 39  1  0  0  0
 39 40  1  0  0  0
  4  6  1  0  0  0
  6  7  1  0  0  0
  7  8  1  0  0  0
  8  9  1  0  0  0
  9 10  1  0  0  0
 10 11  1  0  0  0
 11 12  1  0  0  0
 12 13  1  0  0  0
 13 14  1  0  0  0
 14 15  1  0  0  0
 15 16  1  0  0  0
 16 17  1  0  0  0
 17 18  1  0  0  0
 18 19  1  0  0  0
 19 20  1  0  0  0
 20 21  1  0  0  0
 21 22  1  0  0  0
 46 47  1  0  0  0
 47 48  1  0  0  0
 48 49  1  0  0  0
 49 50  1  0  0  0
 50 54  1  0  0  0
M  CHG 1  58  -1
M  END
> <minimizedAffinity>
-9.64218

> <CNNscore>
0.3799682260

> <CNNaffinity>
7.4715104103

> <CNN_VS>
2.8389365673

> <CNNaffinity_variance>
1.1994688511

$$$$
/media/chris/experiments/cd1a-new-docking/inputs/ligands/1onq_ligand.pdb


 62 62  0  0  0  0  0  0  0  0999 V2000
  -38.3250   60.1767   65.1202 C   0  0  0  0  0  0  0  0  0  0  0  0
  -39.5491   59.7285   65.7542 N   0  0  0  0  0  0  0  0  0  0  0  0
  -41.1152   60.9978   64.7132 O   0  0  0  0  0  0  0  0  0  0  0  0
  -40.8009   60.1463   65.5219 C   0  0  0  0  0  0  0  0  0  0  0  0
  -39.4482   59.0304   66.4410 H   0  0  0  0  0  0  0  0  0  0  0  0
  -41.8603   59.4742   66.3439 C   0  0  0  0  0  0  0  0  0  0  0  0
  -42.1157   58.1144   65.6937 C   0  0  0  0  0  0  0  0  0  0  0  0
  -43.0450   57.2818   66.5737 C   0  0  0  0  0  0  0  0  0  0  0  0
  -44.4459   57.0761   66.0508 C   0  0  0  0  0  0  0  0  0  0  0  0
  -45.3224   58.1791   66.6347 C   0  0  0  0  0  0  0  0  0  0  0  0
  -45.9635   59.0612   65.5550 C   0  0  0  0  0  0  0  0  0  0  0  0
  -46.8954   58.3040   64.5912 C   0  0  0  0  0  0  0  0  0  0  0  0
  -48.1294   57.7018   65.2986 C   0  0  0  0  0  0  0  0  0  0  0  0
  -48.9066   58.7886   66.0470 C   0  0  0  0  0  0  0  0  0  0  0  0
  -50.3381   59.0019   65.5702 C   0  0  0  0  0  0  0  0  0  0  0  0
  -50.5932   58.3719   64.2090 C   0  0  0  0  0  0  0  0  0  0  0  0
  -50.8515   59.3455   63.0567 C   0  0  0  0  0  0  0  0  0  0  0  0
  -49.5985   59.4042   62.1935 C   0  0  0  0  0  0  0  0  0  0  0  0
  -49.7529   59.3644   60.6803 C   0  0  0  0  0  0  0  0  0  0  0  0
  -49.9919   57.9277   60.1896 C   0  0  0  0  0  0  0  0  0  0  0  0
  -48.7361   57.0368   60.1858 C   0  0  0  0  0  0  0  0  0  0  0  0
  -47.6507   57.5269   59.2302 C   0  0  0  0  0  0  0  0  0  0  0  0
  -38.1531   57.8676   65.3067 O   0  0  0  0  0  0  0  0  0  0  0  0
  -37.8385   58.9218   64.4159 C   0  0  0  0  0  0  0  0  0  0  0  0
  -39.1134   57.8319   65.4390 H   0  0  0  0  0  0  0  0  0  0  0  0
  -36.3331   59.0335   64.1633 C   0  0  0  0  0  0  0  0  0  0  0  0
  -35.4926   57.9910   64.2769 C   0  0  0  0  0  0  0  0  0  0  0  0
  -34.0013   58.1841   64.0088 C   0  0  0  0  0  0  0  0  0  0  0  0
  -33.6542   58.3588   62.5231 C   0  0  0  0  0  0  0  0  0  0  0  0
  -32.9781   57.1502   61.8499 C   0  0  0  0  0  0  0  0  0  0  0  0
  -34.0109   56.0352   61.5582 C   0  0  0  0  0  0  0  0  0  0  0  0
  -34.7775   56.1769   60.2189 C   0  0  0  0  0  0  0  0  0  0  0  0
  -33.9372   56.7805   59.0689 C   0  0  0  0  0  0  0  0  0  0  0  0
  -34.7699   57.1435   57.8204 C   0  0  0  0  0  0  0  0  0  0  0  0
  -36.1778   56.5360   57.8187 C   0  0  0  0  0  0  0  0  0  0  0  0
  -37.3377   57.5294   57.8019 C   0  0  0  0  0  0  0  0  0  0  0  0
  -37.2422   58.6215   58.8855 C   0  0  0  0  0  0  0  0  0  0  0  0
  -37.9258   58.2826   60.2188 C   0  0  0  0  0  0  0  0  0  0  0  0
  -38.6505   59.5041   60.7912 C   0  0  0  0  0  0  0  0  0  0  0  0
  -39.7997   60.0555   59.9659 C   0  0  0  0  0  0  0  0  0  0  0  0
  -37.3186   60.8941   66.0483 C   0  0  0  0  0  0  0  0  0  0  0  0
  -36.9653   62.2550   65.6926 O   0  0  0  0  0  0  0  0  0  0  0  0
  -34.9935   62.1480   63.6243 O   0  0  0  0  0  0  0  0  0  0  0  0
  -33.9824   65.9106   65.1143 O   0  0  0  0  0  0  0  0  0  0  0  0
  -35.4619   63.8387   66.7496 O   0  0  0  0  0  0  0  0  0  0  0  0
  -35.5762   62.7411   65.8115 C   0  0  0  0  0  0  0  0  0  0  0  0
  -34.9147   63.2207   64.5117 C   0  0  0  0  0  0  0  0  0  0  0  0
  -33.4278   63.6049   64.6773 C   0  0  0  0  0  0  0  0  0  0  0  0
  -33.3938   64.7361   65.6675 C   0  0  0  0  0  0  0  0  0  0  0  0
  -34.1059   64.3239   66.9432 C   0  0  0  0  0  0  0  0  0  0  0  0
  -35.9219   61.8924   63.5079 H   0  0  0  0  0  0  0  0  0  0  0  0
  -33.5130   66.1556   64.3016 H   0  0  0  0  0  0  0  0  0  0  0  0
  -32.6606   66.0711   67.6994 O   0  0  0  0  0  0  0  0  0  0  0  0
  -33.9678   65.5892   67.7870 C   0  0  0  0  0  0  0  0  0  0  0  0
  -32.5755   66.8745   68.2361 H   0  0  0  0  0  0  0  0  0  0  0  0
  -32.7620   64.0903   63.4894 O   0  0  0  0  0  0  0  0  0  0  0  0
  -31.3893   63.6167   61.3428 O   0  0  0  0  0  0  0  0  0  0  0  0
  -33.8103   63.4658   61.2731 O   0  0  0  0  0  0  0  0  0  0  0  0
  -32.5103   61.7213   62.3412 O   0  0  0  0  0  0  0  0  0  0  0  0
  -32.6035   63.1889   62.0987 S   0  0  0  0  0  0  0  0  0  0  0  0
  -31.4322   64.5711   61.1754 H   0  0  0  0  0  0  0  0  0  0  0  0
  -31.7256   61.5316   62.8791 H   0  0  0  0  0  0  0  0  0  0  0  0
  2  1  1  0  0  0
  2  4  1  0  0  0
  2  5  1  0  0  0
 41 42  1  0  0  0
 41  1  1  0  0  0
 42 46  1  0  0  0
  1 24  1  0  0  0
 23 24  1  0  0  0
 23 25  1  0  0  0
 24 26  1  0  0  0
  3  4  2  0  0  0
 26 27  2  0  0  0
 27 28  1  0  0  0
 43 47  1  0  0  0
 43 51  1  0  0  0
 28 29  1  0  0  0
 56 48  1  0  0  0
 56 60  1  0  0  0
 29 30  1  0  0  0
 57 60  1  0  0  0
 57 61  1  0  0  0
 30 31  1  0  0  0
 44 49  1  0  0  0
 44 52  1  0  0  0
 31 32  1  0  0  0
 45 46  1  0  0  0
 45 50  1  0  0  0
 32 33  1  0  0  0
 53 54  1  0  0  0
 53 55  1  0  0  0
 33 34  1  0  0  0
 34 35  1  0  0  0
 35 36  1  0  0  0
 58 60  1  0  0  0
 36 37  1  0  0  0
 59 60  1  0  0  0
 59 62  1  0  0  0
 37 38  1  0  0  0
 38 39  1  0  0  0
 39 40  1  0  0  0
  4  6  1  0  0  0
  6  7  1  0  0  0
  7  8  1  0  0  0
  8  9  1  0  0  0
  9 10  1  0  0  0
 10 11  1  0  0  0
 11 12  1  0  0  0
 12 13  1  0  0  0
 13 14  1  0  0  0
 14 15  1  0  0  0
 15 16  1  0  0  0
 16 17  1  0  0  0
 17 18  1  0  0  0
 18 19  1  0  0  0
 19 20  1  0  0  0
 20 21  1  0  0  0
 21 22  1  0  0  0
 46 47  1  0  0  0
 47 48  1  0  0  0
 48 49  1  0  0  0
 49 50  1  0  0  0
 50 54  1  0  0  0
M  CHG 1  58  -1
M  END
> <minimizedAffinity>
-9.45189

> <CNNscore>
0.3116085529

> <CNNaffinity>
7.0154786110

> <CNN_VS>
2.1860830784

> <CNNaffinity_variance>
1.3611376286

$$$$
/media/chris/experiments/cd1a-new-docking/inputs/ligands/1onq_ligand.pdb


 62 62  0  0  0  0  0  0  0  0999 V2000
  -40.1547   59.0693   65.1572 C   0  0  0  0  0  0  0  0  0  0  0  0
  -39.7192   58.3402   63.9824 N   0  0  0  0  0  0  0  0  0  0  0  0
  -37.7780   57.4070   64.6954 O   0  0  0  0  0  0  0  0  0  0  0  0
  -38.6158   57.5944   63.8348 C   0  0  0  0  0  0  0  0  0  0  0  0
  -40.3073   58.4005   63.1952 H   0  0  0  0  0  0  0  0  0  0  0  0
  -38.4528   56.9570   62.4868 C   0  0  0  0  0  0  0  0  0  0  0  0
  -37.0576   57.3394   61.9925 C   0  0  0  0  0  0  0  0  0  0  0  0
  -37.1503   58.5257   61.0357 C   0  0  0  0  0  0  0  0  0  0  0  0
  -38.5417   58.9286   60.6115 C   0  0  0  0  0  0  0  0  0  0  0  0
  -38.4998   59.2255   59.1162 C   0  0  0  0  0  0  0  0  0  0  0  0
  -37.2207   58.7080   58.4445 C   0  0  0  0  0  0  0  0  0  0  0  0
  -37.3985   57.3812   57.6838 C   0  0  0  0  0  0  0  0  0  0  0  0
  -36.2334   56.3945   57.9173 C   0  0  0  0  0  0  0  0  0  0  0  0
  -34.8862   57.1147   57.8096 C   0  0  0  0  0  0  0  0  0  0  0  0
  -33.7364   56.4463   58.5535 C   0  0  0  0  0  0  0  0  0  0  0  0
  -34.2153   55.6386   59.7507 C   0  0  0  0  0  0  0  0  0  0  0  0
  -33.6457   56.0513   61.1098 C   0  0  0  0  0  0  0  0  0  0  0  0
  -33.6623   57.5718   61.1908 C   0  0  0  0  0  0  0  0  0  0  0  0
  -32.4254   58.2879   61.7127 C   0  0  0  0  0  0  0  0  0  0  0  0
  -32.7734   59.1829   62.9126 C   0  0  0  0  0  0  0  0  0  0  0  0
  -34.2228   59.0445   63.4135 C   0  0  0  0  0  0  0  0  0  0  0  0
  -34.3443   58.2147   64.6894 C   0  0  0  0  0  0  0  0  0  0  0  0
  -41.4892   60.9052   64.6626 O   0  0  0  0  0  0  0  0  0  0  0  0
  -41.5625   59.4963   64.7786 C   0  0  0  0  0  0  0  0  0  0  0  0
  -40.8629   61.1395   63.9598 H   0  0  0  0  0  0  0  0  0  0  0  0
  -42.5371   59.0579   65.8742 C   0  0  0  0  0  0  0  0  0  0  0  0
  -43.8720   59.1401   65.7420 C   0  0  0  0  0  0  0  0  0  0  0  0
  -44.7786   58.6825   66.8830 C   0  0  0  0  0  0  0  0  0  0  0  0
  -46.2764   58.7430   66.5495 C   0  0  0  0  0  0  0  0  0  0  0  0
  -46.6212   58.8939   65.0564 C   0  0  0  0  0  0  0  0  0  0  0  0
  -47.9771   59.6180   64.8762 C   0  0  0  0  0  0  0  0  0  0  0  0
  -49.1079   59.1520   65.8280 C   0  0  0  0  0  0  0  0  0  0  0  0
  -50.4335   58.8005   65.1124 C   0  0  0  0  0  0  0  0  0  0  0  0
  -50.9251   59.9011   64.1476 C   0  0  0  0  0  0  0  0  0  0  0  0
  -51.1777   59.4031   62.7195 C   0  0  0  0  0  0  0  0  0  0  0  0
  -50.7527   57.9661   62.4246 C   0  0  0  0  0  0  0  0  0  0  0  0
  -49.5770   57.8519   61.4343 C   0  0  0  0  0  0  0  0  0  0  0  0
  -49.8554   57.0064   60.1822 C   0  0  0  0  0  0  0  0  0  0  0  0
  -48.6344   56.9733   59.2585 C   0  0  0  0  0  0  0  0  0  0  0  0
  -48.0699   55.6014   58.9345 C   0  0  0  0  0  0  0  0  0  0  0  0
  -39.1944   60.1768   65.6472 C   0  0  0  0  0  0  0  0  0  0  0  0
  -38.5585   60.9831   64.6232 O   0  0  0  0  0  0  0  0  0  0  0  0
  -36.7718   61.4388   62.4375 O   0  0  0  0  0  0  0  0  0  0  0  0
  -35.5140   64.6288   64.8127 O   0  0  0  0  0  0  0  0  0  0  0  0
  -36.9196   62.1966   65.9373 O   0  0  0  0  0  0  0  0  0  0  0  0
  -37.1488   61.4046   64.7465 C   0  0  0  0  0  0  0  0  0  0  0  0
  -36.5830   62.2213   63.5760 C   0  0  0  0  0  0  0  0  0  0  0  0
  -35.0755   62.5311   63.7070 C   0  0  0  0  0  0  0  0  0  0  0  0
  -34.9206   63.3415   64.9643 C   0  0  0  0  0  0  0  0  0  0  0  0
  -35.5367   62.5968   66.1348 C   0  0  0  0  0  0  0  0  0  0  0  0
  -37.7148   61.2339   62.3387 H   0  0  0  0  0  0  0  0  0  0  0  0
  -35.1064   65.0862   64.0607 H   0  0  0  0  0  0  0  0  0  0  0  0
  -36.5053   63.9864   67.8212 O   0  0  0  0  0  0  0  0  0  0  0  0
  -35.2860   63.5758   67.2797 C   0  0  0  0  0  0  0  0  0  0  0  0
  -36.3434   64.6081   68.5480 H   0  0  0  0  0  0  0  0  0  0  0  0
  -34.4957   63.3222   62.6450 O   0  0  0  0  0  0  0  0  0  0  0  0
  -32.0703   62.6092   63.2157 O   0  0  0  0  0  0  0  0  0  0  0  0
  -32.6786   64.9571   63.2978 O   0  0  0  0  0  0  0  0  0  0  0  0
  -32.3701   63.8514   61.1631 O   0  0  0  0  0  0  0  0  0  0  0  0
  -32.8726   63.6816   62.5560 S   0  0  0  0  0  0  0  0  0  0  0  0
  -32.3836   62.4842   64.1251 H   0  0  0  0  0  0  0  0  0  0  0  0
  -32.4927   63.0239   60.6720 H   0  0  0  0  0  0  0  0  0  0  0  0
  2  1  1  0  0  0
  2  4  1  0  0  0
  2  5  1  0  0  0
 41 42  1  0  0  0
 41  1  1  0  0  0
 42 46  1  0  0  0
  1 24  1  0  0  0
 23 24  1  0  0  0
 23 25  1  0  0  0
 24 26  1  0  0  0
  3  4  2  0  0  0
 26 27  2  0  0  0
 27 28  1  0  0  0
 43 47  1  0  0  0
 43 51  1  0  0  0
 28 29  1  0  0  0
 56 48  1  0  0  0
 56 60  1  0  0  0
 29 30  1  0  0  0
 57 60  1  0  0  0
 57 61  1  0  0  0
 30 31  1  0  0  0
 44 49  1  0  0  0
 44 52  1  0  0  0
 31 32  1  0  0  0
 45 46  1  0  0  0
 45 50  1  0  0  0
 32 33  1  0  0  0
 53 54  1  0  0  0
 53 55  1  0  0  0
 33 34  1  0  0  0
 34 35  1  0  0  0
 35 36  1  0  0  0
 58 60  1  0  0  0
 36 37  1  0  0  0
 59 60  1  0  0  0
 59 62  1  0  0  0
 37 38  1  0  0  0
 38 39  1  0  0  0
 39 40  1  0  0  0
  4  6  1  0  0  0
  6  7  1  0  0  0
  7  8  1  0  0  0
  8  9  1  0  0  0
  9 10  1  0  0  0
 10 11  1  0  0  0
 11 12  1  0  0  0
 12 13  1  0  0  0
 13 14  1  0  0  0
 14 15  1  0  0  0
 15 16  1  0  0  0
 16 17  1  0  0  0
 17 18  1  0  0  0
 18 19  1  0  0  0
 19 20  1  0  0  0
 20 21  1  0  0  0
 21 22  1  0  0  0
 46 47  1  0  0  0
 47 48  1  0  0  0
 48 49  1  0  0  0
 49 50  1  0  0  0
 50 54  1  0  0  0
M  CHG 1  58  -1
M  END
> <minimizedAffinity>
-9.71538

> <CNNscore>
0.2977741659

> <CNNaffinity>
7.1360831261

> <CNN_VS>
2.1249411106

> <CNNaffinity_variance>
1.1509300470

$$$$
/media/chris/experiments/cd1a-new-docking/inputs/ligands/1onq_ligand.pdb


 62 62  0  0  0  0  0  0  0  0999 V2000
  -39.8860   59.1623   64.7163 C   0  0  0  0  0  0  0  0  0  0  0  0
  -39.8672   59.2369   63.2688 N   0  0  0  0  0  0  0  0  0  0  0  0
  -40.9060   61.2165   62.8819 O   0  0  0  0  0  0  0  0  0  0  0  0
  -40.3532   60.2091   62.4851 C   0  0  0  0  0  0  0  0  0  0  0  0
  -39.4448   58.4791   62.8036 H   0  0  0  0  0  0  0  0  0  0  0  0
  -40.1687   59.9930   61.0123 C   0  0  0  0  0  0  0  0  0  0  0  0
  -38.6718   59.7756   60.7904 C   0  0  0  0  0  0  0  0  0  0  0  0
  -38.4172   59.3284   59.3529 C   0  0  0  0  0  0  0  0  0  0  0  0
  -37.7269   57.9966   59.1849 C   0  0  0  0  0  0  0  0  0  0  0  0
  -36.7753   58.1171   57.9993 C   0  0  0  0  0  0  0  0  0  0  0  0
  -35.9137   56.8629   57.8007 C   0  0  0  0  0  0  0  0  0  0  0  0
  -34.3972   57.1205   57.8686 C   0  0  0  0  0  0  0  0  0  0  0  0
  -33.6444   56.0579   58.6992 C   0  0  0  0  0  0  0  0  0  0  0  0
  -34.5466   55.4955   59.8016 C   0  0  0  0  0  0  0  0  0  0  0  0
  -34.3559   56.1265   61.1754 C   0  0  0  0  0  0  0  0  0  0  0  0
  -35.3929   57.2012   61.4662 C   0  0  0  0  0  0  0  0  0  0  0  0
  -36.0817   57.1175   62.8303 C   0  0  0  0  0  0  0  0  0  0  0  0
  -35.7892   58.4039   63.5907 C   0  0  0  0  0  0  0  0  0  0  0  0
  -34.3912   58.6174   64.1521 C   0  0  0  0  0  0  0  0  0  0  0  0
  -33.5601   59.5222   63.2287 C   0  0  0  0  0  0  0  0  0  0  0  0
  -32.3331   58.8375   62.5992 C   0  0  0  0  0  0  0  0  0  0  0  0
  -31.5267   59.7612   61.6892 C   0  0  0  0  0  0  0  0  0  0  0  0
  -41.0159   60.7446   65.9873 O   0  0  0  0  0  0  0  0  0  0  0  0
  -41.2627   59.7059   65.0578 C   0  0  0  0  0  0  0  0  0  0  0  0
  -40.4742   61.4315   65.5682 H   0  0  0  0  0  0  0  0  0  0  0  0
  -42.1155   58.5856   65.6580 C   0  0  0  0  0  0  0  0  0  0  0  0
  -43.4018   58.3859   65.3238 C   0  0  0  0  0  0  0  0  0  0  0  0
  -44.1866   57.2452   65.9688 C   0  0  0  0  0  0  0  0  0  0  0  0
  -45.7107   57.4050   65.8694 C   0  0  0  0  0  0  0  0  0  0  0  0
  -46.2042   58.7445   65.2919 C   0  0  0  0  0  0  0  0  0  0  0  0
  -47.4176   58.5256   64.3566 C   0  0  0  0  0  0  0  0  0  0  0  0
  -48.6362   57.8229   65.0068 C   0  0  0  0  0  0  0  0  0  0  0  0
  -50.0021   58.2549   64.4234 C   0  0  0  0  0  0  0  0  0  0  0  0
  -49.9004   58.8956   63.0223 C   0  0  0  0  0  0  0  0  0  0  0  0
  -50.2200   57.9285   61.8760 C   0  0  0  0  0  0  0  0  0  0  0  0
  -49.5099   58.1994   60.5514 C   0  0  0  0  0  0  0  0  0  0  0  0
  -48.1244   57.5335   60.4364 C   0  0  0  0  0  0  0  0  0  0  0  0
  -47.9588   56.5665   59.2543 C   0  0  0  0  0  0  0  0  0  0  0  0
  -47.5240   57.3131   57.9900 C   0  0  0  0  0  0  0  0  0  0  0  0
  -47.5700   56.5266   56.6919 C   0  0  0  0  0  0  0  0  0  0  0  0
  -38.6792   59.8107   65.4320 C   0  0  0  0  0  0  0  0  0  0  0  0
  -38.3399   61.1635   65.0342 O   0  0  0  0  0  0  0  0  0  0  0  0
  -36.5450   61.6033   62.8519 O   0  0  0  0  0  0  0  0  0  0  0  0
  -35.5146   64.9861   65.0642 O   0  0  0  0  0  0  0  0  0  0  0  0
  -36.7967   62.5406   66.3020 O   0  0  0  0  0  0  0  0  0  0  0  0
  -36.9593   61.6729   65.1538 C   0  0  0  0  0  0  0  0  0  0  0  0
  -36.4213   62.4564   63.9479 C   0  0  0  0  0  0  0  0  0  0  0  0
  -34.9368   62.8606   64.0828 C   0  0  0  0  0  0  0  0  0  0  0  0
  -34.8507   63.7460   65.2953 C   0  0  0  0  0  0  0  0  0  0  0  0
  -35.4428   63.0313   66.4964 C   0  0  0  0  0  0  0  0  0  0  0  0
  -37.4727   61.3384   62.7515 H   0  0  0  0  0  0  0  0  0  0  0  0
  -35.1212   65.4249   64.2938 H   0  0  0  0  0  0  0  0  0  0  0  0
  -33.9752   64.6059   67.5357 O   0  0  0  0  0  0  0  0  0  0  0  0
  -35.2689   64.0843   67.5887 C   0  0  0  0  0  0  0  0  0  0  0  0
  -33.8673   65.2743   68.2303 H   0  0  0  0  0  0  0  0  0  0  0  0
  -34.3854   63.6252   62.9868 O   0  0  0  0  0  0  0  0  0  0  0  0
  -31.9928   62.7715   63.5001 O   0  0  0  0  0  0  0  0  0  0  0  0
  -32.3822   65.1514   63.2294 O   0  0  0  0  0  0  0  0  0  0  0  0
  -32.3545   63.6926   61.2940 O   0  0  0  0  0  0  0  0  0  0  0  0
  -32.7502   63.7998   62.7270 S   0  0  0  0  0  0  0  0  0  0  0  0
  -32.2377   62.8261   64.4370 H   0  0  0  0  0  0  0  0  0  0  0  0
  -32.5909   62.8138   60.9581 H   0  0  0  0  0  0  0  0  0  0  0  0
  2  1  1  0  0  0
  2  4  1  0  0  0
  2  5  1  0  0  0
 41 42  1  0  0  0
 41  1  1  0  0  0
 42 46  1  0  0  0
  1 24  1  0  0  0
 23 24  1  0  0  0
 23 25  1  0  0  0
 24 26  1  0  0  0
  3  4  2  0  0  0
 26 27  2  0  0  0
 27 28  1  0  0  0
 43 47  1  0  0  0
 43 51  1  0  0  0
 28 29  1  0  0  0
 56 48  1  0  0  0
 56 60  1  0  0  0
 29 30  1  0  0  0
 57 60  1  0  0  0
 57 61  1  0  0  0
 30 31  1  0  0  0
 44 49  1  0  0  0
 44 52  1  0  0  0
 31 32  1  0  0  0
 45 46  1  0  0  0
 45 50  1  0  0  0
 32 33  1  0  0  0
 53 54  1  0  0  0
 53 55  1  0  0  0
 33 34  1  0  0  0
 34 35  1  0  0  0
 35 36  1  0  0  0
 58 60  1  0  0  0
 36 37  1  0  0  0
 59 60  1  0  0  0
 59 62  1  0  0  0
 37 38  1  0  0  0
 38 39  1  0  0  0
 39 40  1  0  0  0
  4  6  1  0  0  0
  6  7  1  0  0  0
  7  8  1  0  0  0
  8  9  1  0  0  0
  9 10  1  0  0  0
 10 11  1  0  0  0
 11 12  1  0  0  0
 12 13  1  0  0  0
 13 14  1  0  0  0
 14 15  1  0  0  0
 15 16  1  0  0  0
 16 17  1  0  0  0
 17 18  1  0  0  0
 18 19  1  0  0  0
 19 20  1  0  0  0
 20 21  1  0  0  0
 21 22  1  0  0  0
 46 47  1  0  0  0
 47 48  1  0  0  0
 48 49  1  0  0  0
 49 50  1  0  0  0
 50 54  1  0  0  0
M  CHG 1  58  -1
M  END
> <minimizedAffinity>
-9.32098

> <CNNscore>
0.2797228396

> <CNNaffinity>
7.2702574730

> <CNN_VS>
2.0336570740

> <CNNaffinity_variance>
1.4713026285

$$$$
/media/chris/experiments/cd1a-new-docking/inputs/ligands/1onq_ligand.pdb


 62 62  0  0  0  0  0  0  0  0999 V2000
  -39.4468   59.2735   64.2743 C   0  0  0  0  0  0  0  0  0  0  0  0
  -38.4322   60.0687   64.9371 N   0  0  0  0  0  0  0  0  0  0  0  0
  -37.4562   61.1425   63.1930 O   0  0  0  0  0  0  0  0  0  0  0  0
  -37.5478   60.9088   64.3825 C   0  0  0  0  0  0  0  0  0  0  0  0
  -38.3873   59.9806   65.9166 H   0  0  0  0  0  0  0  0  0  0  0  0
  -36.6275   61.5945   65.3482 C   0  0  0  0  0  0  0  0  0  0  0  0
  -36.1200   62.8530   64.6441 C   0  0  0  0  0  0  0  0  0  0  0  0
  -35.6759   63.8856   65.6774 C   0  0  0  0  0  0  0  0  0  0  0  0
  -34.2909   63.7000   66.2479 C   0  0  0  0  0  0  0  0  0  0  0  0
  -33.6323   65.0739   66.3153 C   0  0  0  0  0  0  0  0  0  0  0  0
  -32.2829   65.1211   65.5861 C   0  0  0  0  0  0  0  0  0  0  0  0
  -32.1181   64.0508   64.4915 C   0  0  0  0  0  0  0  0  0  0  0  0
  -32.4851   64.5701   63.0840 C   0  0  0  0  0  0  0  0  0  0  0  0
  -32.7877   63.4029   62.1398 C   0  0  0  0  0  0  0  0  0  0  0  0
  -32.4348   62.0244   62.6848 C   0  0  0  0  0  0  0  0  0  0  0  0
  -31.2941   61.3742   61.9159 C   0  0  0  0  0  0  0  0  0  0  0  0
  -30.9279   59.9490   62.3363 C   0  0  0  0  0  0  0  0  0  0  0  0
  -32.0162   59.0102   61.8334 C   0  0  0  0  0  0  0  0  0  0  0  0
  -32.8143   58.2077   62.8505 C   0  0  0  0  0  0  0  0  0  0  0  0
  -34.1714   58.8718   63.1320 C   0  0  0  0  0  0  0  0  0  0  0  0
  -34.7820   58.5214   64.5014 C   0  0  0  0  0  0  0  0  0  0  0  0
  -35.6111   57.2393   64.4829 C   0  0  0  0  0  0  0  0  0  0  0  0
  -40.2644   60.4341   66.1129 O   0  0  0  0  0  0  0  0  0  0  0  0
  -40.7162   59.6846   65.0003 C   0  0  0  0  0  0  0  0  0  0  0  0
  -39.7829   61.2166   65.8016 H   0  0  0  0  0  0  0  0  0  0  0  0
  -41.4867   58.4317   65.4235 C   0  0  0  0  0  0  0  0  0  0  0  0
  -42.7436   58.4707   65.8976 C   0  0  0  0  0  0  0  0  0  0  0  0
  -43.4449   57.1749   66.3001 C   0  0  0  0  0  0  0  0  0  0  0  0
  -44.7980   56.9590   65.6067 C   0  0  0  0  0  0  0  0  0  0  0  0
  -45.2843   58.1188   64.7183 C   0  0  0  0  0  0  0  0  0  0  0  0
  -46.5766   58.7468   65.2935 C   0  0  0  0  0  0  0  0  0  0  0  0
  -47.8740   57.9370   65.0434 C   0  0  0  0  0  0  0  0  0  0  0  0
  -48.4174   58.0413   63.5989 C   0  0  0  0  0  0  0  0  0  0  0  0
  -49.9346   58.3189   63.5285 C   0  0  0  0  0  0  0  0  0  0  0  0
  -50.4782   58.4210   62.0983 C   0  0  0  0  0  0  0  0  0  0  0  0
  -50.0398   57.3214   61.1334 C   0  0  0  0  0  0  0  0  0  0  0  0
  -49.4791   57.8479   59.7976 C   0  0  0  0  0  0  0  0  0  0  0  0
  -47.9465   57.8749   59.6959 C   0  0  0  0  0  0  0  0  0  0  0  0
  -47.4740   57.2999   58.3575 C   0  0  0  0  0  0  0  0  0  0  0  0
  -48.4997   56.5129   57.5611 C   0  0  0  0  0  0  0  0  0  0  0  0
  -39.1512   57.7592   64.1827 C   0  0  0  0  0  0  0  0  0  0  0  0
  -38.8347   57.2390   62.8664 O   0  0  0  0  0  0  0  0  0  0  0  0
  -36.5638   56.6142   61.2446 O   0  0  0  0  0  0  0  0  0  0  0  0
  -38.8574   58.4114   58.2599 O   0  0  0  0  0  0  0  0  0  0  0  0
  -39.2805   58.9515   61.2069 O   0  0  0  0  0  0  0  0  0  0  0  0
  -38.2714   58.1089   61.8148 C   0  0  0  0  0  0  0  0  0  0  0  0
  -37.5587   57.3949   60.6573 C   0  0  0  0  0  0  0  0  0  0  0  0
  -36.8894   58.3580   59.6523 C   0  0  0  0  0  0  0  0  0  0  0  0
  -37.9948   59.1994   59.0765 C   0  0  0  0  0  0  0  0  0  0  0  0
  -38.7714   59.8651   60.1981 C   0  0  0  0  0  0  0  0  0  0  0  0
  -36.9664   56.0019   61.8802 H   0  0  0  0  0  0  0  0  0  0  0  0
  -38.3415   57.9961   57.5512 H   0  0  0  0  0  0  0  0  0  0  0  0
  -40.9486   59.8375   59.2121 O   0  0  0  0  0  0  0  0  0  0  0  0
  -39.8260   60.6424   59.4136 C   0  0  0  0  0  0  0  0  0  0  0  0
  -41.6169   60.3334   58.7137 H   0  0  0  0  0  0  0  0  0  0  0  0
  -36.2266   57.7396   58.5261 O   0  0  0  0  0  0  0  0  0  0  0  0
  -35.3264   55.3430   58.9295 O   0  0  0  0  0  0  0  0  0  0  0  0
  -34.1367   57.2414   59.8621 O   0  0  0  0  0  0  0  0  0  0  0  0
  -33.9985   56.7614   57.4904 O   0  0  0  0  0  0  0  0  0  0  0  0
  -34.8962   56.7507   58.6801 S   0  0  0  0  0  0  0  0  0  0  0  0
  -35.9126   55.3160   59.7018 H   0  0  0  0  0  0  0  0  0  0  0  0
  -34.4859   56.4426   56.7147 H   0  0  0  0  0  0  0  0  0  0  0  0
  2  1  1  0  0  0
  2  4  1  0  0  0
  2  5  1  0  0  0
 41 42  1  0  0  0
 41  1  1  0  0  0
 42 46  1  0  0  0
  1 24  1  0  0  0
 23 24  1  0  0  0
 23 25  1  0  0  0
 24 26  1  0  0  0
  3  4  2  0  0  0
 26 27  2  0  0  0
 27 28  1  0  0  0
 43 47  1  0  0  0
 43 51  1  0  0  0
 28 29  1  0  0  0
 56 48  1  0  0  0
 56 60  1  0  0  0
 29 30  1  0  0  0
 57 60  1  0  0  0
 57 61  1  0  0  0
 30 31  1  0  0  0
 44 49  1  0  0  0
 44 52  1  0  0  0
 31 32  1  0  0  0
 45 46  1  0  0  0
 45 50  1  0  0  0
 32 33  1  0  0  0
 53 54  1  0  0  0
 53 55  1  0  0  0
 33 34  1  0  0  0
 34 35  1  0  0  0
 35 36  1  0  0  0
 58 60  1  0  0  0
 36 37  1  0  0  0
 59 60  1  0  0  0
 59 62  1  0  0  0
 37 38  1  0  0  0
 38 39  1  0  0  0
 39 40  1  0  0  0
  4  6  1  0  0  0
  6  7  1  0  0  0
  7  8  1  0  0  0
  8  9  1  0  0  0
  9 10  1  0  0  0
 10 11  1  0  0  0
 11 12  1  0  0  0
 12 13  1  0  0  0
 13 14  1  0  0  0
 14 15  1  0  0  0
 15 16  1  0  0  0
 16 17  1  0  0  0
 17 18  1  0  0  0
 18 19  1  0  0  0
 19 20  1  0  0  0
 20 21  1  0  0  0
 21 22  1  0  0  0
 46 47  1  0  0  0
 47 48  1  0  0  0
 48 49  1  0  0  0
 49 50  1  0  0  0
 50 54  1  0  0  0
M  CHG 1  58  -1
M  END
> <minimizedAffinity>
-8.88074

> <CNNscore>
0.2765106857

> <CNNaffinity>
6.9855904579

> <CNN_VS>
1.9315904379

> <CNNaffinity_variance>
1.3497259617

$$$$
/media/chris/experiments/cd1a-new-docking/inputs/ligands/1onq_ligand.pdb


 62 62  0  0  0  0  0  0  0  0999 V2000
  -40.2325   58.8716   64.7538 C   0  0  0  0  0  0  0  0  0  0  0  0
  -41.2605   58.2562   65.5696 N   0  0  0  0  0  0  0  0  0  0  0  0
  -43.0979   59.4629   65.0080 O   0  0  0  0  0  0  0  0  0  0  0  0
  -42.5601   58.5749   65.6405 C   0  0  0  0  0  0  0  0  0  0  0  0
  -40.9675   57.5114   66.1428 H   0  0  0  0  0  0  0  0  0  0  0  0
  -43.3720   57.7357   66.5821 C   0  0  0  0  0  0  0  0  0  0  0  0
  -44.2544   56.8396   65.7129 C   0  0  0  0  0  0  0  0  0  0  0  0
  -45.7262   57.1705   65.9488 C   0  0  0  0  0  0  0  0  0  0  0  0
  -46.0089   58.4832   66.6381 C   0  0  0  0  0  0  0  0  0  0  0  0
  -46.7093   59.3905   65.6322 C   0  0  0  0  0  0  0  0  0  0  0  0
  -47.9143   58.7156   64.9634 C   0  0  0  0  0  0  0  0  0  0  0  0
  -49.1346   58.5427   65.8862 C   0  0  0  0  0  0  0  0  0  0  0  0
  -50.4535   58.3457   65.1069 C   0  0  0  0  0  0  0  0  0  0  0  0
  -50.7739   59.5847   64.2659 C   0  0  0  0  0  0  0  0  0  0  0  0
  -51.1771   59.2991   62.8244 C   0  0  0  0  0  0  0  0  0  0  0  0
  -50.7824   57.8981   62.3813 C   0  0  0  0  0  0  0  0  0  0  0  0
  -49.6758   57.8145   61.3273 C   0  0  0  0  0  0  0  0  0  0  0  0
  -50.3169   57.4648   59.9911 C   0  0  0  0  0  0  0  0  0  0  0  0
  -49.4127   57.1607   58.8058 C   0  0  0  0  0  0  0  0  0  0  0  0
  -47.9900   57.6883   59.0500 C   0  0  0  0  0  0  0  0  0  0  0  0
  -46.9199   57.0960   58.1147 C   0  0  0  0  0  0  0  0  0  0  0  0
  -47.4881   56.5892   56.7911 C   0  0  0  0  0  0  0  0  0  0  0  0
  -38.2536   57.8114   65.3503 O   0  0  0  0  0  0  0  0  0  0  0  0
  -39.3222   57.6997   64.4288 C   0  0  0  0  0  0  0  0  0  0  0  0
  -38.5968   57.7339   66.2543 H   0  0  0  0  0  0  0  0  0  0  0  0
  -38.8472   57.8139   62.9783 C   0  0  0  0  0  0  0  0  0  0  0  0
  -38.1380   56.8526   62.3626 C   0  0  0  0  0  0  0  0  0  0  0  0
  -37.6996   57.0423   60.9118 C   0  0  0  0  0  0  0  0  0  0  0  0
  -37.3821   58.4990   60.5437 C   0  0  0  0  0  0  0  0  0  0  0  0
  -37.9298   58.9782   59.1867 C   0  0  0  0  0  0  0  0  0  0  0  0
  -36.9489   58.6250   58.0428 C   0  0  0  0  0  0  0  0  0  0  0  0
  -37.1038   57.1996   57.4547 C   0  0  0  0  0  0  0  0  0  0  0  0
  -36.0012   56.2088   57.8965 C   0  0  0  0  0  0  0  0  0  0  0  0
  -34.5845   56.8227   57.8997 C   0  0  0  0  0  0  0  0  0  0  0  0
  -33.6807   56.2853   59.0158 C   0  0  0  0  0  0  0  0  0  0  0  0
  -34.3543   56.0363   60.3636 C   0  0  0  0  0  0  0  0  0  0  0  0
  -33.5401   56.5381   61.5724 C   0  0  0  0  0  0  0  0  0  0  0  0
  -33.9325   57.9285   62.0946 C   0  0  0  0  0  0  0  0  0  0  0  0
  -34.8808   57.8186   63.2921 C   0  0  0  0  0  0  0  0  0  0  0  0
  -34.2977   58.1695   64.6495 C   0  0  0  0  0  0  0  0  0  0  0  0
  -39.5672   60.1291   65.3580 C   0  0  0  0  0  0  0  0  0  0  0  0
  -38.8400   60.9829   64.4385 O   0  0  0  0  0  0  0  0  0  0  0  0
  -36.8352   61.2948   62.4234 O   0  0  0  0  0  0  0  0  0  0  0  0
  -35.6681   64.5026   64.8207 O   0  0  0  0  0  0  0  0  0  0  0  0
  -37.2810   62.1677   65.8707 O   0  0  0  0  0  0  0  0  0  0  0  0
  -37.4311   61.3489   64.6855 C   0  0  0  0  0  0  0  0  0  0  0  0
  -36.7208   62.1042   63.5530 C   0  0  0  0  0  0  0  0  0  0  0  0
  -35.2203   62.3548   63.8201 C   0  0  0  0  0  0  0  0  0  0  0  0
  -35.1497   63.1972   65.0638 C   0  0  0  0  0  0  0  0  0  0  0  0
  -35.9067   62.5159   66.1895 C   0  0  0  0  0  0  0  0  0  0  0  0
  -37.7727   61.1264   62.2399 H   0  0  0  0  0  0  0  0  0  0  0  0
  -35.1709   64.9188   64.0993 H   0  0  0  0  0  0  0  0  0  0  0  0
  -34.3622   63.7664   67.5177 O   0  0  0  0  0  0  0  0  0  0  0  0
  -35.7226   63.5191   67.3260 C   0  0  0  0  0  0  0  0  0  0  0  0
  -34.2480   64.4037   68.2400 H   0  0  0  0  0  0  0  0  0  0  0  0
  -34.5076   63.0872   62.7976 O   0  0  0  0  0  0  0  0  0  0  0  0
  -32.6043   61.4210   62.2338 O   0  0  0  0  0  0  0  0  0  0  0  0
  -32.1509   63.3076   63.6912 O   0  0  0  0  0  0  0  0  0  0  0  0
  -32.3974   63.6431   61.3035 O   0  0  0  0  0  0  0  0  0  0  0  0
  -32.8890   62.8662   62.4767 S   0  0  0  0  0  0  0  0  0  0  0  0
  -32.9179   60.8984   62.9883 H   0  0  0  0  0  0  0  0  0  0  0  0
  -32.8735   63.3615   60.5067 H   0  0  0  0  0  0  0  0  0  0  0  0
  2  1  1  0  0  0
  2  4  1  0  0  0
  2  5  1  0  0  0
 41 42  1  0  0  0
 41  1  1  0  0  0
 42 46  1  0  0  0
  1 24  1  0  0  0
 23 24  1  0  0  0
 23 25  1  0  0  0
 24 26  1  0  0  0
  3  4  2  0  0  0
 26 27  2  0  0  0
 27 28  1  0  0  0
 43 47  1  0  0  0
 43 51  1  0  0  0
 28 29  1  0  0  0
 56 48  1  0  0  0
 56 60  1  0  0  0
 29 30  1  0  0  0
 57 60  1  0  0  0
 57 61  1  0  0  0
 30 31  1  0  0  0
 44 49  1  0  0  0
 44 52  1  0  0  0
 31 32  1  0  0  0
 45 46  1  0  0  0
 45 50  1  0  0  0
 32 33  1  0  0  0
 53 54  1  0  0  0
 53 55  1  0  0  0
 33 34  1  0  0  0
 34 35  1  0  0  0
 35 36  1  0  0  0
 58 60  1  0  0  0
 36 37  1  0  0  0
 59 60  1  0  0  0
 59 62  1  0  0  0
 37 38  1  0  0  0
 38 39  1  0  0  0
 39 40  1  0  0  0
  4  6  1  0  0  0
  6  7  1  0  0  0
  7  8  1  0  0  0
  8  9  1  0  0  0
  9 10  1  0  0  0
 10 11  1  0  0  0
 11 12  1  0  0  0
 12 13  1  0  0  0
 13 14  1  0  0  0
 14 15  1  0  0  0
 15 16  1  0  0  0
 16 17  1  0  0  0
 17 18  1  0  0  0
 18 19  1  0  0  0
 19 20  1  0  0  0
 20 21  1  0  0  0
 21 22  1  0  0  0
 46 47  1  0  0  0
 47 48  1  0  0  0
 48 49  1  0  0  0
 49 50  1  0  0  0
 50 54  1  0  0  0
M  CHG 1  58  -1
M  END
> <minimizedAffinity>
-10.31127

> <CNNscore>
0.2676599920

> <CNNaffinity>
7.0582609177

> <CNN_VS>
1.8892140388

> <CNNaffinity_variance>
1.2642372847

$$$$
/media/chris/experiments/cd1a-new-docking/inputs/ligands/1onq_ligand.pdb


 62 62  0  0  0  0  0  0  0  0999 V2000
  -38.5670   59.7731   64.1973 C   0  0  0  0  0  0  0  0  0  0  0  0
  -39.6245   59.5635   65.1662 N   0  0  0  0  0  0  0  0  0  0  0  0
  -41.1755   61.0850   64.5129 O   0  0  0  0  0  0  0  0  0  0  0  0
  -40.8001   60.2000   65.2570 C   0  0  0  0  0  0  0  0  0  0  0  0
  -39.4583   58.8667   65.8416 H   0  0  0  0  0  0  0  0  0  0  0  0
  -41.6883   59.7423   66.3757 C   0  0  0  0  0  0  0  0  0  0  0  0
  -42.3580   58.4537   65.8979 C   0  0  0  0  0  0  0  0  0  0  0  0
  -43.8763   58.5980   65.9681 C   0  0  0  0  0  0  0  0  0  0  0  0
  -44.6785   57.4338   65.4393 C   0  0  0  0  0  0  0  0  0  0  0  0
  -45.7935   58.0008   64.5669 C   0  0  0  0  0  0  0  0  0  0  0  0
  -46.5722   59.1281   65.2582 C   0  0  0  0  0  0  0  0  0  0  0  0
  -47.7597   58.6453   66.1111 C   0  0  0  0  0  0  0  0  0  0  0  0
  -48.6665   57.6423   65.3646 C   0  0  0  0  0  0  0  0  0  0  0  0
  -49.6848   58.3813   64.4916 C   0  0  0  0  0  0  0  0  0  0  0  0
  -49.5491   58.1354   62.9939 C   0  0  0  0  0  0  0  0  0  0  0  0
  -50.8735   58.2902   62.2610 C   0  0  0  0  0  0  0  0  0  0  0  0
  -51.1212   57.3133   61.1092 C   0  0  0  0  0  0  0  0  0  0  0  0
  -49.7722   56.8101   60.6137 C   0  0  0  0  0  0  0  0  0  0  0  0
  -49.1619   57.4557   59.3784 C   0  0  0  0  0  0  0  0  0  0  0  0
  -47.6374   57.2631   59.3536 C   0  0  0  0  0  0  0  0  0  0  0  0
  -46.9675   57.6411   58.0197 C   0  0  0  0  0  0  0  0  0  0  0  0
  -47.3338   56.7024   56.8725 C   0  0  0  0  0  0  0  0  0  0  0  0
  -38.6806   57.5899   64.9825 O   0  0  0  0  0  0  0  0  0  0  0  0
  -37.8869   58.4156   64.1507 C   0  0  0  0  0  0  0  0  0  0  0  0
  -39.5782   57.5324   64.6191 H   0  0  0  0  0  0  0  0  0  0  0  0
  -36.4532   58.5488   64.6696 C   0  0  0  0  0  0  0  0  0  0  0  0
  -35.3814   58.1321   63.9741 C   0  0  0  0  0  0  0  0  0  0  0  0
  -33.9815   58.2996   64.5618 C   0  0  0  0  0  0  0  0  0  0  0  0
  -32.8544   57.8475   63.6218 C   0  0  0  0  0  0  0  0  0  0  0  0
  -33.1933   57.8614   62.1198 C   0  0  0  0  0  0  0  0  0  0  0  0
  -32.7795   56.5284   61.4510 C   0  0  0  0  0  0  0  0  0  0  0  0
  -33.9160   55.7785   60.7110 C   0  0  0  0  0  0  0  0  0  0  0  0
  -33.8069   55.8261   59.1688 C   0  0  0  0  0  0  0  0  0  0  0  0
  -34.5018   57.0523   58.5381 C   0  0  0  0  0  0  0  0  0  0  0  0
  -35.7914   56.7106   57.7822 C   0  0  0  0  0  0  0  0  0  0  0  0
  -37.0529   56.5777   58.6327 C   0  0  0  0  0  0  0  0  0  0  0  0
  -36.8616   56.9918   60.1051 C   0  0  0  0  0  0  0  0  0  0  0  0
  -38.0471   57.7391   60.7345 C   0  0  0  0  0  0  0  0  0  0  0  0
  -37.9881   59.2349   60.4118 C   0  0  0  0  0  0  0  0  0  0  0  0
  -39.3159   59.9705   60.3744 C   0  0  0  0  0  0  0  0  0  0  0  0
  -37.6637   61.0010   64.4529 C   0  0  0  0  0  0  0  0  0  0  0  0
  -37.2033   61.7220   63.2818 O   0  0  0  0  0  0  0  0  0  0  0  0
  -36.8461   63.9335   65.0592 O   0  0  0  0  0  0  0  0  0  0  0  0
  -32.9419   62.4772   65.2479 O   0  0  0  0  0  0  0  0  0  0  0  0
  -34.8071   61.8850   62.9399 O   0  0  0  0  0  0  0  0  0  0  0  0
  -36.0092   62.5886   63.3370 C   0  0  0  0  0  0  0  0  0  0  0  0
  -35.6996   63.2264   64.6989 C   0  0  0  0  0  0  0  0  0  0  0  0
  -34.5116   64.2129   64.6663 C   0  0  0  0  0  0  0  0  0  0  0  0
  -33.3124   63.4128   64.2382 C   0  0  0  0  0  0  0  0  0  0  0  0
  -33.6078   62.7055   62.9279 C   0  0  0  0  0  0  0  0  0  0  0  0
  -37.6041   63.3288   65.0848 H   0  0  0  0  0  0  0  0  0  0  0  0
  -32.7581   62.9496   66.0748 H   0  0  0  0  0  0  0  0  0  0  0  0
  -31.2260   62.8510   62.7883 O   0  0  0  0  0  0  0  0  0  0  0  0
  -32.2966   61.9610   62.6858 C   0  0  0  0  0  0  0  0  0  0  0  0
  -30.3946   62.3757   62.6342 H   0  0  0  0  0  0  0  0  0  0  0  0
  -34.1583   64.8223   65.9287 O   0  0  0  0  0  0  0  0  0  0  0  0
  -32.7908   66.4155   67.4481 O   0  0  0  0  0  0  0  0  0  0  0  0
  -32.5385   66.5499   65.0382 O   0  0  0  0  0  0  0  0  0  0  0  0
  -31.5377   64.7171   66.2686 O   0  0  0  0  0  0  0  0  0  0  0  0
  -32.7202   65.6206   66.1864 S   0  0  0  0  0  0  0  0  0  0  0  0
  -33.5559   67.0107   67.4129 H   0  0  0  0  0  0  0  0  0  0  0  0
  -31.6478   64.1075   67.0151 H   0  0  0  0  0  0  0  0  0  0  0  0
  2  1  1  0  0  0
  2  4  1  0  0  0
  2  5  1  0  0  0
 41 42  1  0  0  0
 41  1  1  0  0  0
 42 46  1  0  0  0
  1 24  1  0  0  0
 23 24  1  0  0  0
 23 25  1  0  0  0
 24 26  1  0  0  0
  3  4  2  0  0  0
 26 27  2  0  0  0
 27 28  1  0  0  0
 43 47  1  0  0  0
 43 51  1  0  0  0
 28 29  1  0  0  0
 56 48  1  0  0  0
 56 60  1  0  0  0
 29 30  1  0  0  0
 57 60  1  0  0  0
 57 61  1  0  0  0
 30 31  1  0  0  0
 44 49  1  0  0  0
 44 52  1  0  0  0
 31 32  1  0  0  0
 45 46  1  0  0  0
 45 50  1  0  0  0
 32 33  1  0  0  0
 53 54  1  0  0  0
 53 55  1  0  0  0
 33 34  1  0  0  0
 34 35  1  0  0  0
 35 36  1  0  0  0
 58 60  1  0  0  0
 36 37  1  0  0  0
 59 60  1  0  0  0
 59 62  1  0  0  0
 37 38  1  0  0  0
 38 39  1  0  0  0
 39 40  1  0  0  0
  4  6  1  0  0  0
  6  7  1  0  0  0
  7  8  1  0  0  0
  8  9  1  0  0  0
  9 10  1  0  0  0
 10 11  1  0  0  0
 11 12  1  0  0  0
 12 13  1  0  0  0
 13 14  1  0  0  0
 14 15  1  0  0  0
 15 16  1  0  0  0
 16 17  1  0  0  0
 17 18  1  0  0  0
 18 19  1  0  0  0
 19 20  1  0  0  0
 20 21  1  0  0  0
 21 22  1  0  0  0
 46 47  1  0  0  0
 47 48  1  0  0  0
 48 49  1  0  0  0
 49 50  1  0  0  0
 50 54  1  0  0  0
M  CHG 1  58  -1
M  END
> <minimizedAffinity>
-9.31177

> <CNNscore>
0.2617399991

> <CNNaffinity>
6.9219803810

> <CNN_VS>
1.8117591143

> <CNNaffinity_variance>
1.3344533443

$$$$
