/media/chris/experiments/cd1a-new-docking/inputs/ligands/1onq_ligand.pdb


 62 62  0  0  0  0  0  0  0  0999 V2000
  -36.3244   58.4320   63.5166 C   0  0  0  0  0  0  0  0  0  0  0  0
  -35.5516   57.4365   62.8004 N   0  0  0  0  0  0  0  0  0  0  0  0
  -33.6082   58.5385   62.4047 O   0  0  0  0  0  0  0  0  0  0  0  0
  -34.3074   57.5479   62.3156 C   0  0  0  0  0  0  0  0  0  0  0  0
  -35.9962   56.5708   62.6518 H   0  0  0  0  0  0  0  0  0  0  0  0
  -33.7801   56.3252   61.6252 C   0  0  0  0  0  0  0  0  0  0  0  0
  -33.9738   56.5563   60.1265 C   0  0  0  0  0  0  0  0  0  0  0  0
  -34.9641   55.5385   59.5655 C   0  0  0  0  0  0  0  0  0  0  0  0
  -36.4256   55.8410   59.7911 C   0  0  0  0  0  0  0  0  0  0  0  0
  -36.8089   56.9848   58.8579 C   0  0  0  0  0  0  0  0  0  0  0  0
  -37.1676   58.2715   59.6132 C   0  0  0  0  0  0  0  0  0  0  0  0
  -38.3301   59.0664   58.9912 C   0  0  0  0  0  0  0  0  0  0  0  0
  -39.3094   59.6238   60.0476 C   0  0  0  0  0  0  0  0  0  0  0  0
  -40.4627   60.3723   59.3731 C   0  0  0  0  0  0  0  0  0  0  0  0
  -41.6164   59.4931   58.9058 C   0  0  0  0  0  0  0  0  0  0  0  0
  -41.6935   59.4000   57.3890 C   0  0  0  0  0  0  0  0  0  0  0  0
  -42.9391   58.7159   56.8211 C   0  0  0  0  0  0  0  0  0  0  0  0
  -43.9247   58.4994   57.9616 C   0  0  0  0  0  0  0  0  0  0  0  0
  -45.3704   58.1673   57.6228 C   0  0  0  0  0  0  0  0  0  0  0  0
  -46.0914   57.5527   58.8331 C   0  0  0  0  0  0  0  0  0  0  0  0
  -47.4299   56.8686   58.4992 C   0  0  0  0  0  0  0  0  0  0  0  0
  -48.3037   56.6196   59.7263 C   0  0  0  0  0  0  0  0  0  0  0  0
  -38.1284   57.1568   62.7989 O   0  0  0  0  0  0  0  0  0  0  0  0
  -37.5306   57.6383   63.9882 C   0  0  0  0  0  0  0  0  0  0  0  0
  -37.5031   56.5794   62.3335 H   0  0  0  0  0  0  0  0  0  0  0  0
  -38.4680   58.5590   64.7730 C   0  0  0  0  0  0  0  0  0  0  0  0
  -39.7671   58.2803   64.9757 C   0  0  0  0  0  0  0  0  0  0  0  0
  -40.6382   59.2518   65.7698 C   0  0  0  0  0  0  0  0  0  0  0  0
  -42.1405   59.1181   65.4810 C   0  0  0  0  0  0  0  0  0  0  0  0
  -42.9297   58.2250   66.4562 C   0  0  0  0  0  0  0  0  0  0  0  0
  -44.3967   58.7038   66.5749 C   0  0  0  0  0  0  0  0  0  0  0  0
  -45.1588   58.8408   65.2326 C   0  0  0  0  0  0  0  0  0  0  0  0
  -46.5453   59.5153   65.3574 C   0  0  0  0  0  0  0  0  0  0  0  0
  -47.7072   58.5121   65.5249 C   0  0  0  0  0  0  0  0  0  0  0  0
  -48.9695   59.1262   66.1418 C   0  0  0  0  0  0  0  0  0  0  0  0
  -50.3007   58.5726   65.6378 C   0  0  0  0  0  0  0  0  0  0  0  0
  -50.9586   59.4294   64.5382 C   0  0  0  0  0  0  0  0  0  0  0  0
  -50.7485   58.9258   63.1022 C   0  0  0  0  0  0  0  0  0  0  0  0
  -49.6579   59.7317   62.3908 C   0  0  0  0  0  0  0  0  0  0  0  0
  -49.6735   59.6959   60.8728 C   0  0  0  0  0  0  0  0  0  0  0  0
  -36.6053   59.7401   62.7426 C   0  0  0  0  0  0  0  0  0  0  0  0
  -36.7658   60.9421   63.5379 O   0  0  0  0  0  0  0  0  0  0  0  0
  -34.0060   61.1805   62.8284 O   0  0  0  0  0  0  0  0  0  0  0  0
  -34.2642   64.6710   65.0973 O   0  0  0  0  0  0  0  0  0  0  0  0
  -36.1826   62.3539   65.4226 O   0  0  0  0  0  0  0  0  0  0  0  0
  -35.6922   61.4165   64.4334 C   0  0  0  0  0  0  0  0  0  0  0  0
  -34.4979   62.1009   63.7530 C   0  0  0  0  0  0  0  0  0  0  0  0
  -33.3563   62.4682   64.7262 C   0  0  0  0  0  0  0  0  0  0  0  0
  -33.9450   63.4298   65.7212 C   0  0  0  0  0  0  0  0  0  0  0  0
  -35.1757   62.8153   66.3632 C   0  0  0  0  0  0  0  0  0  0  0  0
  -34.7106   60.9377   62.2076 H   0  0  0  0  0  0  0  0  0  0  0  0
  -33.4651   65.0454   64.6944 H   0  0  0  0  0  0  0  0  0  0  0  0
  -34.4885   64.5129   67.8993 O   0  0  0  0  0  0  0  0  0  0  0  0
  -35.6122   63.9332   67.3075 C   0  0  0  0  0  0  0  0  0  0  0  0
  -34.7684   65.2225   68.4985 H   0  0  0  0  0  0  0  0  0  0  0  0
  -32.2172   63.1407   64.1429 O   0  0  0  0  0  0  0  0  0  0  0  0
  -31.6784   62.7821   61.6333 O   0  0  0  0  0  0  0  0  0  0  0  0
  -31.3260   64.9649   62.6334 O   0  0  0  0  0  0  0  0  0  0  0  0
  -33.5712   64.2009   62.1336 O   0  0  0  0  0  0  0  0  0  0  0  0
  -32.2220   63.7772   62.6045 S   0  0  0  0  0  0  0  0  0  0  0  0
  -30.7988   62.4940   61.9237 H   0  0  0  0  0  0  0  0  0  0  0  0
  -34.1623   63.4321   62.1117 H   0  0  0  0  0  0  0  0  0  0  0  0
  2  1  1  0  0  0
  2  4  1  0  0  0
  2  5  1  0  0  0
 41 42  1  0  0  0
 41  1  1  0  0  0
 42 46  1  0  0  0
  1 24  1  0  0  0
 23 24  1  0  0  0
 23 25  1  0  0  0
 24 26  1  0  0  0
  3  4  2  0  0  0
 26 27  2  0  0  0
 27 28  1  0  0  0
 43 47  1  0  0  0
 43 51  1  0  0  0
 28 29  1  0  0  0
 56 48  1  0  0  0
 56 60  1  0  0  0
 29 30  1  0  0  0
 57 60  1  0  0  0
 57 61  1  0  0  0
 30 31  1  0  0  0
 44 49  1  0  0  0
 44 52  1  0  0  0
 31 32  1  0  0  0
 45 46  1  0  0  0
 45 50  1  0  0  0
 32 33  1  0  0  0
 53 54  1  0  0  0
 53 55  1  0  0  0
 33 34  1  0  0  0
 34 35  1  0  0  0
 35 36  1  0  0  0
 58 60  1  0  0  0
 36 37  1  0  0  0
 59 60  1  0  0  0
 59 62  1  0  0  0
 37 38  1  0  0  0
 38 39  1  0  0  0
 39 40  1  0  0  0
  4  6  1  0  0  0
  6  7  1  0  0  0
  7  8  1  0  0  0
  8  9  1  0  0  0
  9 10  1  0  0  0
 10 11  1  0  0  0
 11 12  1  0  0  0
 12 13  1  0  0  0
 13 14  1  0  0  0
 14 15  1  0  0  0
 15 16  1  0  0  0
 16 17  1  0  0  0
 17 18  1  0  0  0
 18 19  1  0  0  0
 19 20  1  0  0  0
 20 21  1  0  0  0
 21 22  1  0  0  0
 46 47  1  0  0  0
 47 48  1  0  0  0
 48 49  1  0  0  0
 49 50  1  0  0  0
 50 54  1  0  0  0
M  CHG 1  58  -1
M  END
> <minimizedAffinity>
-8.75627

> <CNNscore>
0.4570621550

> <CNNaffinity>
7.1652326584

> <CNN_VS>
3.2749567032

> <CNNaffinity_variance>
0.9637912512

$$$$
/media/chris/experiments/cd1a-new-docking/inputs/ligands/1onq_ligand.pdb


 62 62  0  0  0  0  0  0  0  0999 V2000
  -39.9334   58.9361   64.6597 C   0  0  0  0  0  0  0  0  0  0  0  0
  -40.8618   58.1356   65.4332 N   0  0  0  0  0  0  0  0  0  0  0  0
  -42.7503   59.3906   65.3550 O   0  0  0  0  0  0  0  0  0  0  0  0
  -42.1444   58.4005   65.7165 C   0  0  0  0  0  0  0  0  0  0  0  0
  -40.5057   57.2923   65.7954 H   0  0  0  0  0  0  0  0  0  0  0  0
  -42.8439   57.3597   66.5395 C   0  0  0  0  0  0  0  0  0  0  0  0
  -43.9939   56.8306   65.6824 C   0  0  0  0  0  0  0  0  0  0  0  0
  -45.3196   57.4043   66.1768 C   0  0  0  0  0  0  0  0  0  0  0  0
  -46.2368   57.9640   65.1166 C   0  0  0  0  0  0  0  0  0  0  0  0
  -46.6694   59.3548   65.5688 C   0  0  0  0  0  0  0  0  0  0  0  0
  -48.1837   59.4610   65.7931 C   0  0  0  0  0  0  0  0  0  0  0  0
  -48.9363   58.1235   65.6704 C   0  0  0  0  0  0  0  0  0  0  0  0
  -50.4440   58.3064   65.3893 C   0  0  0  0  0  0  0  0  0  0  0  0
  -50.6804   59.5120   64.4751 C   0  0  0  0  0  0  0  0  0  0  0  0
  -51.1764   59.1720   63.0748 C   0  0  0  0  0  0  0  0  0  0  0  0
  -50.0366   58.8372   62.1242 C   0  0  0  0  0  0  0  0  0  0  0  0
  -50.3722   57.8670   60.9893 C   0  0  0  0  0  0  0  0  0  0  0  0
  -49.1375   57.7168   60.1109 C   0  0  0  0  0  0  0  0  0  0  0  0
  -49.1564   56.6800   58.9973 C   0  0  0  0  0  0  0  0  0  0  0  0
  -47.7878   56.5938   58.3032 C   0  0  0  0  0  0  0  0  0  0  0  0
  -46.9542   57.8866   58.3724 C   0  0  0  0  0  0  0  0  0  0  0  0
  -45.5418   57.6667   58.9091 C   0  0  0  0  0  0  0  0  0  0  0  0
  -37.8586   57.9066   64.4840 O   0  0  0  0  0  0  0  0  0  0  0  0
  -39.1462   57.8849   63.8964 C   0  0  0  0  0  0  0  0  0  0  0  0
  -37.9267   57.6654   65.4211 H   0  0  0  0  0  0  0  0  0  0  0  0
  -39.1091   58.2575   62.4124 C   0  0  0  0  0  0  0  0  0  0  0  0
  -39.5625   59.4317   61.9411 C   0  0  0  0  0  0  0  0  0  0  0  0
  -39.4915   59.7286   60.4445 C   0  0  0  0  0  0  0  0  0  0  0  0
  -38.0818   59.5947   59.8503 C   0  0  0  0  0  0  0  0  0  0  0  0
  -37.6972   58.1874   59.3574 C   0  0  0  0  0  0  0  0  0  0  0  0
  -36.6359   58.2698   58.2340 C   0  0  0  0  0  0  0  0  0  0  0  0
  -35.8844   56.9479   57.9353 C   0  0  0  0  0  0  0  0  0  0  0  0
  -36.5164   55.6978   58.5916 C   0  0  0  0  0  0  0  0  0  0  0  0
  -35.5368   54.9082   59.4866 C   0  0  0  0  0  0  0  0  0  0  0  0
  -34.1785   55.5953   59.6718 C   0  0  0  0  0  0  0  0  0  0  0  0
  -33.8432   56.0479   61.0914 C   0  0  0  0  0  0  0  0  0  0  0  0
  -34.0075   57.5634   61.3205 C   0  0  0  0  0  0  0  0  0  0  0  0
  -35.1514   57.9625   62.2650 C   0  0  0  0  0  0  0  0  0  0  0  0
  -34.6496   58.8904   63.3750 C   0  0  0  0  0  0  0  0  0  0  0  0
  -34.2947   58.2320   64.6965 C   0  0  0  0  0  0  0  0  0  0  0  0
  -39.1189   59.9743   65.4643 C   0  0  0  0  0  0  0  0  0  0  0  0
  -38.6033   61.1093   64.7231 O   0  0  0  0  0  0  0  0  0  0  0  0
  -36.7610   61.4167   62.5578 O   0  0  0  0  0  0  0  0  0  0  0  0
  -35.5467   64.7494   64.7525 O   0  0  0  0  0  0  0  0  0  0  0  0
  -36.9914   62.3998   65.9965 O   0  0  0  0  0  0  0  0  0  0  0  0
  -37.1952   61.5332   64.8541 C   0  0  0  0  0  0  0  0  0  0  0  0
  -36.5965   62.2706   63.6476 C   0  0  0  0  0  0  0  0  0  0  0  0
  -35.0913   62.5832   63.7960 C   0  0  0  0  0  0  0  0  0  0  0  0
  -34.9634   63.4728   65.0017 C   0  0  0  0  0  0  0  0  0  0  0  0
  -35.6119   62.8074   66.2021 C   0  0  0  0  0  0  0  0  0  0  0  0
  -37.7022   61.2090   62.4490 H   0  0  0  0  0  0  0  0  0  0  0  0
  -35.1183   65.1560   63.9829 H   0  0  0  0  0  0  0  0  0  0  0  0
  -34.0476   64.2588   67.2791 O   0  0  0  0  0  0  0  0  0  0  0  0
  -35.3847   63.8576   67.2873 C   0  0  0  0  0  0  0  0  0  0  0  0
  -33.9058   64.9257   67.9691 H   0  0  0  0  0  0  0  0  0  0  0  0
  -34.4816   63.3020   62.6998 O   0  0  0  0  0  0  0  0  0  0  0  0
  -32.0671   62.5405   63.2546 O   0  0  0  0  0  0  0  0  0  0  0  0
  -32.6441   64.8930   63.4018 O   0  0  0  0  0  0  0  0  0  0  0  0
  -32.3458   63.8441   61.2373 O   0  0  0  0  0  0  0  0  0  0  0  0
  -32.8535   63.6418   62.6240 S   0  0  0  0  0  0  0  0  0  0  0  0
  -32.3841   62.3941   64.1596 H   0  0  0  0  0  0  0  0  0  0  0  0
  -32.4785   63.0325   60.7228 H   0  0  0  0  0  0  0  0  0  0  0  0
  2  1  1  0  0  0
  2  4  1  0  0  0
  2  5  1  0  0  0
 41 42  1  0  0  0
 41  1  1  0  0  0
 42 46  1  0  0  0
  1 24  1  0  0  0
 23 24  1  0  0  0
 23 25  1  0  0  0
 24 26  1  0  0  0
  3  4  2  0  0  0
 26 27  2  0  0  0
 27 28  1  0  0  0
 43 47  1  0  0  0
 43 51  1  0  0  0
 28 29  1  0  0  0
 56 48  1  0  0  0
 56 60  1  0  0  0
 29 30  1  0  0  0
 57 60  1  0  0  0
 57 61  1  0  0  0
 30 31  1  0  0  0
 44 49  1  0  0  0
 44 52  1  0  0  0
 31 32  1  0  0  0
 45 46  1  0  0  0
 45 50  1  0  0  0
 32 33  1  0  0  0
 53 54  1  0  0  0
 53 55  1  0  0  0
 33 34  1  0  0  0
 34 35  1  0  0  0
 35 36  1  0  0  0
 58 60  1  0  0  0
 36 37  1  0  0  0
 59 60  1  0  0  0
 59 62  1  0  0  0
 37 38  1  0  0  0
 38 39  1  0  0  0
 39 40  1  0  0  0
  4  6  1  0  0  0
  6  7  1  0  0  0
  7  8  1  0  0  0
  8  9  1  0  0  0
  9 10  1  0  0  0
 10 11  1  0  0  0
 11 12  1  0  0  0
 12 13  1  0  0  0
 13 14  1  0  0  0
 14 15  1  0  0  0
 15 16  1  0  0  0
 16 17  1  0  0  0
 17 18  1  0  0  0
 18 19  1  0  0  0
 19 20  1  0  0  0
 20 21  1  0  0  0
 21 22  1  0  0  0
 46 47  1  0  0  0
 47 48  1  0  0  0
 48 49  1  0  0  0
 49 50  1  0  0  0
 50 54  1  0  0  0
M  CHG 1  58  -1
M  END
> <minimizedAffinity>
-9.83590

> <CNNscore>
0.4296734035

> <CNNaffinity>
7.3943357468

> <CNN_VS>
3.1771492958

> <CNNaffinity_variance>
1.4235144854

$$$$
/media/chris/experiments/cd1a-new-docking/inputs/ligands/1onq_ligand.pdb


 62 62  0  0  0  0  0  0  0  0999 V2000
  -38.0697   59.5719   59.6086 C   0  0  0  0  0  0  0  0  0  0  0  0
  -39.4651   59.2884   59.3370 N   0  0  0  0  0  0  0  0  0  0  0  0
  -40.4067   61.3467   59.4927 O   0  0  0  0  0  0  0  0  0  0  0  0
  -40.4909   60.1496   59.2985 C   0  0  0  0  0  0  0  0  0  0  0  0
  -39.6865   58.3459   59.1587 H   0  0  0  0  0  0  0  0  0  0  0  0
  -41.8237   59.5399   58.9791 C   0  0  0  0  0  0  0  0  0  0  0  0
  -41.8692   59.3690   57.4606 C   0  0  0  0  0  0  0  0  0  0  0  0
  -43.1769   58.6960   57.0504 C   0  0  0  0  0  0  0  0  0  0  0  0
  -44.0990   58.2964   58.1767 C   0  0  0  0  0  0  0  0  0  0  0  0
  -45.4958   58.1234   57.5892 C   0  0  0  0  0  0  0  0  0  0  0  0
  -46.4239   57.3058   58.4975 C   0  0  0  0  0  0  0  0  0  0  0  0
  -47.8403   57.8910   58.6449 C   0  0  0  0  0  0  0  0  0  0  0  0
  -48.9034   56.8173   58.9649 C   0  0  0  0  0  0  0  0  0  0  0  0
  -50.0662   57.4267   59.7533 C   0  0  0  0  0  0  0  0  0  0  0  0
  -49.6668   58.1613   61.0274 C   0  0  0  0  0  0  0  0  0  0  0  0
  -50.7932   58.1982   62.0496 C   0  0  0  0  0  0  0  0  0  0  0  0
  -50.3682   58.3587   63.5110 C   0  0  0  0  0  0  0  0  0  0  0  0
  -48.8670   58.6117   63.5448 C   0  0  0  0  0  0  0  0  0  0  0  0
  -48.3315   59.7010   64.4624 C   0  0  0  0  0  0  0  0  0  0  0  0
  -47.1474   59.1852   65.2955 C   0  0  0  0  0  0  0  0  0  0  0  0
  -46.9694   57.6559   65.2735 C   0  0  0  0  0  0  0  0  0  0  0  0
  -45.7835   57.1737   66.1056 C   0  0  0  0  0  0  0  0  0  0  0  0
  -38.3387   58.1186   57.8166 O   0  0  0  0  0  0  0  0  0  0  0  0
  -37.3499   58.5685   58.7240 C   0  0  0  0  0  0  0  0  0  0  0  0
  -38.6586   58.8675   57.2895 H   0  0  0  0  0  0  0  0  0  0  0  0
  -36.8013   57.4316   59.5894 C   0  0  0  0  0  0  0  0  0  0  0  0
  -35.5093   57.0615   59.5786 C   0  0  0  0  0  0  0  0  0  0  0  0
  -35.0394   55.9150   60.4719 C   0  0  0  0  0  0  0  0  0  0  0  0
  -33.8189   56.2612   61.3372 C   0  0  0  0  0  0  0  0  0  0  0  0
  -33.1216   57.5931   61.0036 C   0  0  0  0  0  0  0  0  0  0  0  0
  -33.2541   58.5918   62.1786 C   0  0  0  0  0  0  0  0  0  0  0  0
  -33.6560   57.9650   63.5376 C   0  0  0  0  0  0  0  0  0  0  0  0
  -35.0518   58.3964   64.0460 C   0  0  0  0  0  0  0  0  0  0  0  0
  -35.9774   57.2094   64.3906 C   0  0  0  0  0  0  0  0  0  0  0  0
  -37.4362   57.4206   63.9680 C   0  0  0  0  0  0  0  0  0  0  0  0
  -38.4403   57.6253   65.1003 C   0  0  0  0  0  0  0  0  0  0  0  0
  -39.8868   57.8562   64.6201 C   0  0  0  0  0  0  0  0  0  0  0  0
  -40.6975   58.8663   65.4460 C   0  0  0  0  0  0  0  0  0  0  0  0
  -42.0428   58.2730   65.8741 C   0  0  0  0  0  0  0  0  0  0  0  0
  -42.6615   58.8447   67.1375 C   0  0  0  0  0  0  0  0  0  0  0  0
  -37.6745   59.5992   61.1026 C   0  0  0  0  0  0  0  0  0  0  0  0
  -38.3575   60.5697   61.9362 O   0  0  0  0  0  0  0  0  0  0  0  0
  -38.2763   60.9255   64.7724 O   0  0  0  0  0  0  0  0  0  0  0  0
  -34.2754   61.8329   64.0184 O   0  0  0  0  0  0  0  0  0  0  0  0
  -36.4351   62.0493   61.9102 O   0  0  0  0  0  0  0  0  0  0  0  0
  -37.6128   61.6310   62.6423 C   0  0  0  0  0  0  0  0  0  0  0  0
  -37.1341   61.2911   64.0611 C   0  0  0  0  0  0  0  0  0  0  0  0
  -36.4668   62.4771   64.7916 C   0  0  0  0  0  0  0  0  0  0  0  0
  -35.2666   62.8562   63.9686 C   0  0  0  0  0  0  0  0  0  0  0  0
  -35.6908   63.1286   62.5368 C   0  0  0  0  0  0  0  0  0  0  0  0
  -38.7095   60.1804   64.3274 H   0  0  0  0  0  0  0  0  0  0  0  0
  -34.0193   61.6754   64.9407 H   0  0  0  0  0  0  0  0  0  0  0  0
  -33.6343   64.3322   62.7244 O   0  0  0  0  0  0  0  0  0  0  0  0
  -34.3530   63.4764   61.8878 C   0  0  0  0  0  0  0  0  0  0  0  0
  -32.7851   64.5517   62.3100 H   0  0  0  0  0  0  0  0  0  0  0  0
  -35.9718   62.2051   66.1224 O   0  0  0  0  0  0  0  0  0  0  0  0
  -36.3868   63.8601   68.0733 O   0  0  0  0  0  0  0  0  0  0  0  0
  -34.9329   64.5088   66.2418 O   0  0  0  0  0  0  0  0  0  0  0  0
  -34.1616   62.9284   67.9097 O   0  0  0  0  0  0  0  0  0  0  0  0
  -35.3427   63.3799   67.1204 S   0  0  0  0  0  0  0  0  0  0  0  0
  -37.1649   64.1585   67.5768 H   0  0  0  0  0  0  0  0  0  0  0  0
  -34.4199   62.1920   68.4857 H   0  0  0  0  0  0  0  0  0  0  0  0
  2  1  1  0  0  0
  2  4  1  0  0  0
  2  5  1  0  0  0
 41 42  1  0  0  0
 41  1  1  0  0  0
 42 46  1  0  0  0
  1 24  1  0  0  0
 23 24  1  0  0  0
 23 25  1  0  0  0
 24 26  1  0  0  0
  3  4  2  0  0  0
 26 27  2  0  0  0
 27 28  1  0  0  0
 43 47  1  0  0  0
 43 51  1  0  0  0
 28 29  1  0  0  0
 56 48  1  0  0  0
 56 60  1  0  0  0
 29 30  1  0  0  0
 57 60  1  0  0  0
 57 61  1  0  0  0
 30 31  1  0  0  0
 44 49  1  0  0  0
 44 52  1  0  0  0
 31 32  1  0  0  0
 45 46  1  0  0  0
 45 50  1  0  0  0
 32 33  1  0  0  0
 53 54  1  0  0  0
 53 55  1  0  0  0
 33 34  1  0  0  0
 34 35  1  0  0  0
 35 36  1  0  0  0
 58 60  1  0  0  0
 36 37  1  0  0  0
 59 60  1  0  0  0
 59 62  1  0  0  0
 37 38  1  0  0  0
 38 39  1  0  0  0
 39 40  1  0  0  0
  4  6  1  0  0  0
  6  7  1  0  0  0
  7  8  1  0  0  0
  8  9  1  0  0  0
  9 10  1  0  0  0
 10 11  1  0  0  0
 11 12  1  0  0  0
 12 13  1  0  0  0
 13 14  1  0  0  0
 14 15  1  0  0  0
 15 16  1  0  0  0
 16 17  1  0  0  0
 17 18  1  0  0  0
 18 19  1  0  0  0
 19 20  1  0  0  0
 20 21  1  0  0  0
 21 22  1  0  0  0
 46 47  1  0  0  0
 47 48  1  0  0  0
 48 49  1  0  0  0
 49 50  1  0  0  0
 50 54  1  0  0  0
M  CHG 1  58  -1
M  END
> <minimizedAffinity>
-8.67389

> <CNNscore>
0.4062260985

> <CNNaffinity>
7.1939787865

> <CNN_VS>
2.9223818779

> <CNNaffinity_variance>
1.1772569418

$$$$
/media/chris/experiments/cd1a-new-docking/inputs/ligands/1onq_ligand.pdb


 62 62  0  0  0  0  0  0  0  0999 V2000
  -39.3161   58.9193   63.7178 C   0  0  0  0  0  0  0  0  0  0  0  0
  -40.0687   58.8992   64.9565 N   0  0  0  0  0  0  0  0  0  0  0  0
  -42.0773   59.7290   64.3049 O   0  0  0  0  0  0  0  0  0  0  0  0
  -41.3356   59.2854   65.1599 C   0  0  0  0  0  0  0  0  0  0  0  0
  -39.5895   58.5596   65.7465 H   0  0  0  0  0  0  0  0  0  0  0  0
  -41.8313   59.1307   66.5671 C   0  0  0  0  0  0  0  0  0  0  0  0
  -43.3071   58.7449   66.4667 C   0  0  0  0  0  0  0  0  0  0  0  0
  -43.4374   57.2510   66.1796 C   0  0  0  0  0  0  0  0  0  0  0  0
  -44.7252   56.8107   65.5268 C   0  0  0  0  0  0  0  0  0  0  0  0
  -45.1537   57.9126   64.5634 C   0  0  0  0  0  0  0  0  0  0  0  0
  -46.6704   58.1460   64.5663 C   0  0  0  0  0  0  0  0  0  0  0  0
  -47.1620   59.0928   65.6764 C   0  0  0  0  0  0  0  0  0  0  0  0
  -48.0675   60.2246   65.1428 C   0  0  0  0  0  0  0  0  0  0  0  0
  -48.8505   59.7554   63.9132 C   0  0  0  0  0  0  0  0  0  0  0  0
  -50.1828   59.0805   64.2159 C   0  0  0  0  0  0  0  0  0  0  0  0
  -50.7532   58.3594   63.0036 C   0  0  0  0  0  0  0  0  0  0  0  0
  -50.0470   58.6236   61.6719 C   0  0  0  0  0  0  0  0  0  0  0  0
  -50.1684   57.3724   60.8125 C   0  0  0  0  0  0  0  0  0  0  0  0
  -50.1526   57.5232   59.2985 C   0  0  0  0  0  0  0  0  0  0  0  0
  -48.9100   56.8520   58.6921 C   0  0  0  0  0  0  0  0  0  0  0  0
  -47.5715   57.4823   59.1190 C   0  0  0  0  0  0  0  0  0  0  0  0
  -46.6962   57.8983   57.9391 C   0  0  0  0  0  0  0  0  0  0  0  0
  -38.2754   57.6529   65.3638 O   0  0  0  0  0  0  0  0  0  0  0  0
  -38.2424   57.8737   63.9660 C   0  0  0  0  0  0  0  0  0  0  0  0
  -39.1472   57.3107   65.6165 H   0  0  0  0  0  0  0  0  0  0  0  0
  -36.8893   58.4160   63.4996 C   0  0  0  0  0  0  0  0  0  0  0  0
  -35.8001   58.4407   64.2866 C   0  0  0  0  0  0  0  0  0  0  0  0
  -34.4848   58.9994   63.7470 C   0  0  0  0  0  0  0  0  0  0  0  0
  -33.3512   57.9656   63.6801 C   0  0  0  0  0  0  0  0  0  0  0  0
  -32.5283   57.9623   62.3785 C   0  0  0  0  0  0  0  0  0  0  0  0
  -33.4182   57.5939   61.1670 C   0  0  0  0  0  0  0  0  0  0  0  0
  -34.3588   56.3811   61.3813 C   0  0  0  0  0  0  0  0  0  0  0  0
  -34.7049   55.6110   60.0851 C   0  0  0  0  0  0  0  0  0  0  0  0
  -33.9714   56.1445   58.8354 C   0  0  0  0  0  0  0  0  0  0  0  0
  -34.8854   56.8848   57.8516 C   0  0  0  0  0  0  0  0  0  0  0  0
  -36.3663   56.5149   57.9028 C   0  0  0  0  0  0  0  0  0  0  0  0
  -37.3168   57.7262   57.8291 C   0  0  0  0  0  0  0  0  0  0  0  0
  -37.1383   58.7673   58.9445 C   0  0  0  0  0  0  0  0  0  0  0  0
  -38.3194   58.7376   59.9188 C   0  0  0  0  0  0  0  0  0  0  0  0
  -39.3660   59.8239   59.7444 C   0  0  0  0  0  0  0  0  0  0  0  0
  -38.8413   60.3137   63.2499 C   0  0  0  0  0  0  0  0  0  0  0  0
  -38.5668   61.2875   64.2890 O   0  0  0  0  0  0  0  0  0  0  0  0
  -36.4692   61.7105   62.3921 O   0  0  0  0  0  0  0  0  0  0  0  0
  -35.5207   64.8792   64.9333 O   0  0  0  0  0  0  0  0  0  0  0  0
  -37.1191   62.4728   65.8332 O   0  0  0  0  0  0  0  0  0  0  0  0
  -37.1838   61.6842   64.6200 C   0  0  0  0  0  0  0  0  0  0  0  0
  -36.4370   62.4902   63.5475 C   0  0  0  0  0  0  0  0  0  0  0  0
  -34.9603   62.7736   63.9004 C   0  0  0  0  0  0  0  0  0  0  0  0
  -34.9786   63.5820   65.1683 C   0  0  0  0  0  0  0  0  0  0  0  0
  -35.7738   62.8488   66.2335 C   0  0  0  0  0  0  0  0  0  0  0  0
  -37.3906   61.5221   62.1547 H   0  0  0  0  0  0  0  0  0  0  0  0
  -34.9984   65.3291   64.2507 H   0  0  0  0  0  0  0  0  0  0  0  0
  -34.3468   64.1995   67.5946 O   0  0  0  0  0  0  0  0  0  0  0  0
  -35.6779   63.8239   67.4048 C   0  0  0  0  0  0  0  0  0  0  0  0
  -34.2885   64.8188   68.3390 H   0  0  0  0  0  0  0  0  0  0  0  0
  -34.2163   63.5537   62.9372 O   0  0  0  0  0  0  0  0  0  0  0  0
  -32.1943   64.1283   61.4210 O   0  0  0  0  0  0  0  0  0  0  0  0
  -32.5669   61.8282   62.0989 O   0  0  0  0  0  0  0  0  0  0  0  0
  -31.6808   63.4369   63.6804 O   0  0  0  0  0  0  0  0  0  0  0  0
  -32.6277   63.2465   62.5450 S   0  0  0  0  0  0  0  0  0  0  0  0
  -32.8000   64.0179   60.6715 H   0  0  0  0  0  0  0  0  0  0  0  0
  -31.7140   64.3596   63.9778 H   0  0  0  0  0  0  0  0  0  0  0  0
  2  1  1  0  0  0
  2  4  1  0  0  0
  2  5  1  0  0  0
 41 42  1  0  0  0
 41  1  1  0  0  0
 42 46  1  0  0  0
  1 24  1  0  0  0
 23 24  1  0  0  0
 23 25  1  0  0  0
 24 26  1  0  0  0
  3  4  2  0  0  0
 26 27  2  0  0  0
 27 28  1  0  0  0
 43 47  1  0  0  0
 43 51  1  0  0  0
 28 29  1  0  0  0
 56 48  1  0  0  0
 56 60  1  0  0  0
 29 30  1  0  0  0
 57 60  1  0  0  0
 57 61  1  0  0  0
 30 31  1  0  0  0
 44 49  1  0  0  0
 44 52  1  0  0  0
 31 32  1  0  0  0
 45 46  1  0  0  0
 45 50  1  0  0  0
 32 33  1  0  0  0
 53 54  1  0  0  0
 53 55  1  0  0  0
 33 34  1  0  0  0
 34 35  1  0  0  0
 35 36  1  0  0  0
 58 60  1  0  0  0
 36 37  1  0  0  0
 59 60  1  0  0  0
 59 62  1  0  0  0
 37 38  1  0  0  0
 38 39  1  0  0  0
 39 40  1  0  0  0
  4  6  1  0  0  0
  6  7  1  0  0  0
  7  8  1  0  0  0
  8  9  1  0  0  0
  9 10  1  0  0  0
 10 11  1  0  0  0
 11 12  1  0  0  0
 12 13  1  0  0  0
 13 14  1  0  0  0
 14 15  1  0  0  0
 15 16  1  0  0  0
 16 17  1  0  0  0
 17 18  1  0  0  0
 18 19  1  0  0  0
 19 20  1  0  0  0
 20 21  1  0  0  0
 21 22  1  0  0  0
 46 47  1  0  0  0
 47 48  1  0  0  0
 48 49  1  0  0  0
 49 50  1  0  0  0
 50 54  1  0  0  0
M  CHG 1  58  -1
M  END
> <minimizedAffinity>
-9.86733

> <CNNscore>
0.3760610223

> <CNNaffinity>
7.3285126686

> <CNN_VS>
2.7559678555

> <CNNaffinity_variance>
1.5124530792

$$$$
/media/chris/experiments/cd1a-new-docking/inputs/ligands/1onq_ligand.pdb


 62 62  0  0  0  0  0  0  0  0999 V2000
  -40.2940   58.8846   64.5922 C   0  0  0  0  0  0  0  0  0  0  0  0
  -41.2882   58.2820   65.4581 N   0  0  0  0  0  0  0  0  0  0  0  0
  -43.1513   59.4680   64.9390 O   0  0  0  0  0  0  0  0  0  0  0  0
  -42.5860   58.5962   65.5701 C   0  0  0  0  0  0  0  0  0  0  0  0
  -40.9703   57.5509   66.0357 H   0  0  0  0  0  0  0  0  0  0  0  0
  -43.3583   57.7736   66.5584 C   0  0  0  0  0  0  0  0  0  0  0  0
  -43.9593   56.6066   65.7750 C   0  0  0  0  0  0  0  0  0  0  0  0
  -45.3868   56.9433   65.3507 C   0  0  0  0  0  0  0  0  0  0  0  0
  -46.4338   56.8804   66.4362 C   0  0  0  0  0  0  0  0  0  0  0  0
  -47.8006   56.9419   65.7622 C   0  0  0  0  0  0  0  0  0  0  0  0
  -48.3955   58.3564   65.7559 C   0  0  0  0  0  0  0  0  0  0  0  0
  -48.0344   59.1884   64.5119 C   0  0  0  0  0  0  0  0  0  0  0  0
  -49.2684   59.8287   63.8389 C   0  0  0  0  0  0  0  0  0  0  0  0
  -50.4891   58.9129   63.9666 C   0  0  0  0  0  0  0  0  0  0  0  0
  -51.0511   58.3996   62.6464 C   0  0  0  0  0  0  0  0  0  0  0  0
  -49.9669   58.1928   61.5990 C   0  0  0  0  0  0  0  0  0  0  0  0
  -50.2523   57.1262   60.5393 C   0  0  0  0  0  0  0  0  0  0  0  0
  -48.9310   56.7325   59.8928 C   0  0  0  0  0  0  0  0  0  0  0  0
  -48.2077   57.7560   59.0300 C   0  0  0  0  0  0  0  0  0  0  0  0
  -46.9114   57.1683   58.4499 C   0  0  0  0  0  0  0  0  0  0  0  0
  -47.0600   56.5588   57.0437 C   0  0  0  0  0  0  0  0  0  0  0  0
  -47.7255   55.1846   57.0481 C   0  0  0  0  0  0  0  0  0  0  0  0
  -38.3038   57.9125   65.2923 O   0  0  0  0  0  0  0  0  0  0  0  0
  -39.3348   57.7342   64.3389 C   0  0  0  0  0  0  0  0  0  0  0  0
  -38.6762   57.8533   66.1861 H   0  0  0  0  0  0  0  0  0  0  0  0
  -38.8126   57.8165   62.9026 C   0  0  0  0  0  0  0  0  0  0  0  0
  -38.0539   56.8583   62.3436 C   0  0  0  0  0  0  0  0  0  0  0  0
  -37.5706   57.0149   60.9031 C   0  0  0  0  0  0  0  0  0  0  0  0
  -37.9974   58.3347   60.2442 C   0  0  0  0  0  0  0  0  0  0  0  0
  -37.2380   58.7143   58.9595 C   0  0  0  0  0  0  0  0  0  0  0  0
  -37.3991   57.6157   57.8813 C   0  0  0  0  0  0  0  0  0  0  0  0
  -36.2179   56.6187   57.7707 C   0  0  0  0  0  0  0  0  0  0  0  0
  -34.8218   57.2833   57.8151 C   0  0  0  0  0  0  0  0  0  0  0  0
  -33.7712   56.4617   58.5933 C   0  0  0  0  0  0  0  0  0  0  0  0
  -34.3669   55.5989   59.7123 C   0  0  0  0  0  0  0  0  0  0  0  0
  -34.1272   56.0900   61.1384 C   0  0  0  0  0  0  0  0  0  0  0  0
  -33.8094   57.5951   61.2369 C   0  0  0  0  0  0  0  0  0  0  0  0
  -32.8581   57.9902   62.3765 C   0  0  0  0  0  0  0  0  0  0  0  0
  -33.5891   58.0083   63.7220 C   0  0  0  0  0  0  0  0  0  0  0  0
  -35.0052   58.5564   63.7137 C   0  0  0  0  0  0  0  0  0  0  0  0
  -39.6812   60.2085   65.1027 C   0  0  0  0  0  0  0  0  0  0  0  0
  -38.9036   60.9737   64.1472 O   0  0  0  0  0  0  0  0  0  0  0  0
  -36.8807   61.2410   62.1437 O   0  0  0  0  0  0  0  0  0  0  0  0
  -35.6485   64.4135   64.5552 O   0  0  0  0  0  0  0  0  0  0  0  0
  -37.3239   62.1165   65.5907 O   0  0  0  0  0  0  0  0  0  0  0  0
  -37.4876   61.3045   64.4027 C   0  0  0  0  0  0  0  0  0  0  0  0
  -36.7527   62.0447   63.2759 C   0  0  0  0  0  0  0  0  0  0  0  0
  -35.2481   62.2577   63.5518 C   0  0  0  0  0  0  0  0  0  0  0  0
  -35.1635   63.0953   64.7979 C   0  0  0  0  0  0  0  0  0  0  0  0
  -35.9432   62.4301   65.9177 C   0  0  0  0  0  0  0  0  0  0  0  0
  -37.8210   61.0962   61.9548 H   0  0  0  0  0  0  0  0  0  0  0  0
  -35.1372   64.8191   63.8375 H   0  0  0  0  0  0  0  0  0  0  0  0
  -36.2690   62.9007   68.2384 O   0  0  0  0  0  0  0  0  0  0  0  0
  -35.7408   63.4258   67.0577 C   0  0  0  0  0  0  0  0  0  0  0  0
  -36.1392   63.5348   68.9609 H   0  0  0  0  0  0  0  0  0  0  0  0
  -34.5120   62.9748   62.5350 O   0  0  0  0  0  0  0  0  0  0  0  0
  -32.4020   63.7639   61.2532 O   0  0  0  0  0  0  0  0  0  0  0  0
  -32.4670   61.5259   62.1893 O   0  0  0  0  0  0  0  0  0  0  0  0
  -32.1541   63.4443   63.6371 O   0  0  0  0  0  0  0  0  0  0  0  0
  -32.8514   62.9451   62.4179 S   0  0  0  0  0  0  0  0  0  0  0  0
  -32.8463   63.4530   60.4489 H   0  0  0  0  0  0  0  0  0  0  0  0
  -32.3992   64.3696   63.7937 H   0  0  0  0  0  0  0  0  0  0  0  0
  2  1  1  0  0  0
  2  4  1  0  0  0
  2  5  1  0  0  0
 41 42  1  0  0  0
 41  1  1  0  0  0
 42 46  1  0  0  0
  1 24  1  0  0  0
 23 24  1  0  0  0
 23 25  1  0  0  0
 24 26  1  0  0  0
  3  4  2  0  0  0
 26 27  2  0  0  0
 27 28  1  0  0  0
 43 47  1  0  0  0
 43 51  1  0  0  0
 28 29  1  0  0  0
 56 48  1  0  0  0
 56 60  1  0  0  0
 29 30  1  0  0  0
 57 60  1  0  0  0
 57 61  1  0  0  0
 30 31  1  0  0  0
 44 49  1  0  0  0
 44 52  1  0  0  0
 31 32  1  0  0  0
 45 46  1  0  0  0
 45 50  1  0  0  0
 32 33  1  0  0  0
 53 54  1  0  0  0
 53 55  1  0  0  0
 33 34  1  0  0  0
 34 35  1  0  0  0
 35 36  1  0  0  0
 58 60  1  0  0  0
 36 37  1  0  0  0
 59 60  1  0  0  0
 59 62  1  0  0  0
 37 38  1  0  0  0
 38 39  1  0  0  0
 39 40  1  0  0  0
  4  6  1  0  0  0
  6  7  1  0  0  0
  7  8  1  0  0  0
  8  9  1  0  0  0
  9 10  1  0  0  0
 10 11  1  0  0  0
 11 12  1  0  0  0
 12 13  1  0  0  0
 13 14  1  0  0  0
 14 15  1  0  0  0
 15 16  1  0  0  0
 16 17  1  0  0  0
 17 18  1  0  0  0
 18 19  1  0  0  0
 19 20  1  0  0  0
 20 21  1  0  0  0
 21 22  1  0  0  0
 46 47  1  0  0  0
 47 48  1  0  0  0
 48 49  1  0  0  0
 49 50  1  0  0  0
 50 54  1  0  0  0
M  CHG 1  58  -1
M  END
> <minimizedAffinity>
-10.28578

> <CNNscore>
0.3666198850

> <CNNaffinity>
7.1903495789

> <CNN_VS>
2.6361250877

> <CNNaffinity_variance>
1.2516702414

$$$$
/media/chris/experiments/cd1a-new-docking/inputs/ligands/1onq_ligand.pdb


 62 62  0  0  0  0  0  0  0  0999 V2000
  -38.6694   59.1992   64.1581 C   0  0  0  0  0  0  0  0  0  0  0  0
  -39.8062   58.8573   64.9898 N   0  0  0  0  0  0  0  0  0  0  0  0
  -41.5283   59.7954   63.8489 O   0  0  0  0  0  0  0  0  0  0  0  0
  -41.0961   59.1616   64.7920 C   0  0  0  0  0  0  0  0  0  0  0  0
  -39.6057   58.3367   65.8010 H   0  0  0  0  0  0  0  0  0  0  0  0
  -42.0399   58.6507   65.8399 C   0  0  0  0  0  0  0  0  0  0  0  0
  -43.3832   59.3339   65.5834 C   0  0  0  0  0  0  0  0  0  0  0  0
  -44.4121   58.3046   65.1220 C   0  0  0  0  0  0  0  0  0  0  0  0
  -45.7955   58.4395   65.7108 C   0  0  0  0  0  0  0  0  0  0  0  0
  -46.4148   57.0465   65.7563 C   0  0  0  0  0  0  0  0  0  0  0  0
  -47.8893   57.0668   66.1807 C   0  0  0  0  0  0  0  0  0  0  0  0
  -48.6642   58.3128   65.7146 C   0  0  0  0  0  0  0  0  0  0  0  0
  -50.1202   57.9969   65.3071 C   0  0  0  0  0  0  0  0  0  0  0  0
  -50.6542   59.0606   64.3435 C   0  0  0  0  0  0  0  0  0  0  0  0
  -50.7841   58.6102   62.8935 C   0  0  0  0  0  0  0  0  0  0  0  0
  -50.0418   59.5295   61.9348 C   0  0  0  0  0  0  0  0  0  0  0  0
  -49.5262   58.8817   60.6478 C   0  0  0  0  0  0  0  0  0  0  0  0
  -50.2378   57.5474   60.4686 C   0  0  0  0  0  0  0  0  0  0  0  0
  -49.4300   56.3478   59.9955 C   0  0  0  0  0  0  0  0  0  0  0  0
  -48.2228   56.7946   59.1557 C   0  0  0  0  0  0  0  0  0  0  0  0
  -48.3496   56.5019   57.6493 C   0  0  0  0  0  0  0  0  0  0  0  0
  -47.6921   55.1887   57.2316 C   0  0  0  0  0  0  0  0  0  0  0  0
  -37.3486   57.3473   63.6871 O   0  0  0  0  0  0  0  0  0  0  0  0
  -38.5392   57.9819   63.2588 C   0  0  0  0  0  0  0  0  0  0  0  0
  -37.4421   57.0761   64.6138 H   0  0  0  0  0  0  0  0  0  0  0  0
  -38.4578   58.4360   61.7995 C   0  0  0  0  0  0  0  0  0  0  0  0
  -38.5140   59.7272   61.4306 C   0  0  0  0  0  0  0  0  0  0  0  0
  -38.4267   60.0998   59.9519 C   0  0  0  0  0  0  0  0  0  0  0  0
  -38.4058   58.8901   59.0061 C   0  0  0  0  0  0  0  0  0  0  0  0
  -37.0285   58.5242   58.4225 C   0  0  0  0  0  0  0  0  0  0  0  0
  -37.1098   57.2136   57.6032 C   0  0  0  0  0  0  0  0  0  0  0  0
  -35.9111   56.2475   57.7799 C   0  0  0  0  0  0  0  0  0  0  0  0
  -34.5484   56.9559   57.9648 C   0  0  0  0  0  0  0  0  0  0  0  0
  -33.7940   56.5204   59.2397 C   0  0  0  0  0  0  0  0  0  0  0  0
  -34.6876   55.8414   60.2847 C   0  0  0  0  0  0  0  0  0  0  0  0
  -34.5389   56.3395   61.7207 C   0  0  0  0  0  0  0  0  0  0  0  0
  -34.4344   57.8726   61.8437 C   0  0  0  0  0  0  0  0  0  0  0  0
  -33.2474   58.3834   62.6743 C   0  0  0  0  0  0  0  0  0  0  0  0
  -31.9995   58.5536   61.8033 C   0  0  0  0  0  0  0  0  0  0  0  0
  -31.0424   59.6623   62.2041 C   0  0  0  0  0  0  0  0  0  0  0  0
  -37.4003   59.6484   64.9173 C   0  0  0  0  0  0  0  0  0  0  0  0
  -36.2294   59.9343   64.1106 O   0  0  0  0  0  0  0  0  0  0  0  0
  -36.9323   62.2214   65.6765 O   0  0  0  0  0  0  0  0  0  0  0  0
  -32.9975   63.3385   64.8591 O   0  0  0  0  0  0  0  0  0  0  0  0
  -34.5407   61.3822   63.1425 O   0  0  0  0  0  0  0  0  0  0  0  0
  -35.8159   61.3228   63.8268 C   0  0  0  0  0  0  0  0  0  0  0  0
  -35.6909   62.2525   65.0425 C   0  0  0  0  0  0  0  0  0  0  0  0
  -35.3715   63.7177   64.6728 C   0  0  0  0  0  0  0  0  0  0  0  0
  -34.0467   63.6928   63.9617 C   0  0  0  0  0  0  0  0  0  0  0  0
  -34.1088   62.7251   62.7938 C   0  0  0  0  0  0  0  0  0  0  0  0
  -37.1499   61.3072   65.9165 H   0  0  0  0  0  0  0  0  0  0  0  0
  -32.9759   63.9687   65.5963 H   0  0  0  0  0  0  0  0  0  0  0  0
  -32.6477   63.8715   61.2890 O   0  0  0  0  0  0  0  0  0  0  0  0
  -32.6941   62.8420   62.2308 C   0  0  0  0  0  0  0  0  0  0  0  0
  -31.7483   63.9438   60.9330 H   0  0  0  0  0  0  0  0  0  0  0  0
  -35.2153   64.6320   65.7816 O   0  0  0  0  0  0  0  0  0  0  0  0
  -34.2794   65.1395   68.1447 O   0  0  0  0  0  0  0  0  0  0  0  0
  -34.2927   62.8545   67.3276 O   0  0  0  0  0  0  0  0  0  0  0  0
  -36.3544   63.9015   68.0540 O   0  0  0  0  0  0  0  0  0  0  0  0
  -35.0547   64.1322   67.3616 S   0  0  0  0  0  0  0  0  0  0  0  0
  -33.4286   65.3030   67.7084 H   0  0  0  0  0  0  0  0  0  0  0  0
  -36.8581   64.7300   68.0807 H   0  0  0  0  0  0  0  0  0  0  0  0
  2  1  1  0  0  0
  2  4  1  0  0  0
  2  5  1  0  0  0
 41 42  1  0  0  0
 41  1  1  0  0  0
 42 46  1  0  0  0
  1 24  1  0  0  0
 23 24  1  0  0  0
 23 25  1  0  0  0
 24 26  1  0  0  0
  3  4  2  0  0  0
 26 27  2  0  0  0
 27 28  1  0  0  0
 43 47  1  0  0  0
 43 51  1  0  0  0
 28 29  1  0  0  0
 56 48  1  0  0  0
 56 60  1  0  0  0
 29 30  1  0  0  0
 57 60  1  0  0  0
 57 61  1  0  0  0
 30 31  1  0  0  0
 44 49  1  0  0  0
 44 52  1  0  0  0
 31 32  1  0  0  0
 45 46  1  0  0  0
 45 50  1  0  0  0
 32 33  1  0  0  0
 53 54  1  0  0  0
 53 55  1  0  0  0
 33 34  1  0  0  0
 34 35  1  0  0  0
 35 36  1  0  0  0
 58 60  1  0  0  0
 36 37  1  0  0  0
 59 60  1  0  0  0
 59 62  1  0  0  0
 37 38  1  0  0  0
 38 39  1  0  0  0
 39 40  1  0  0  0
  4  6  1  0  0  0
  6  7  1  0  0  0
  7  8  1  0  0  0
  8  9  1  0  0  0
  9 10  1  0  0  0
 10 11  1  0  0  0
 11 12  1  0  0  0
 12 13  1  0  0  0
 13 14  1  0  0  0
 14 15  1  0  0  0
 15 16  1  0  0  0
 16 17  1  0  0  0
 17 18  1  0  0  0
 18 19  1  0  0  0
 19 20  1  0  0  0
 20 21  1  0  0  0
 21 22  1  0  0  0
 46 47  1  0  0  0
 47 48  1  0  0  0
 48 49  1  0  0  0
 49 50  1  0  0  0
 50 54  1  0  0  0
M  CHG 1  58  -1
M  END
> <minimizedAffinity>
-9.50797

> <CNNscore>
0.3526631296

> <CNNaffinity>
7.0565147400

> <CNN_VS>
2.4885725975

> <CNNaffinity_variance>
0.8095394373

$$$$
/media/chris/experiments/cd1a-new-docking/inputs/ligands/1onq_ligand.pdb


 62 62  0  0  0  0  0  0  0  0999 V2000
  -38.1032   59.7948   59.5487 C   0  0  0  0  0  0  0  0  0  0  0  0
  -39.4920   59.4777   59.2807 N   0  0  0  0  0  0  0  0  0  0  0  0
  -40.5640   61.2916   60.1220 O   0  0  0  0  0  0  0  0  0  0  0  0
  -40.5772   60.2088   59.5696 C   0  0  0  0  0  0  0  0  0  0  0  0
  -39.6587   58.6183   58.8304 H   0  0  0  0  0  0  0  0  0  0  0  0
  -41.8841   59.6031   59.1512 C   0  0  0  0  0  0  0  0  0  0  0  0
  -41.8094   59.4158   57.6358 C   0  0  0  0  0  0  0  0  0  0  0  0
  -43.0592   58.6945   57.1372 C   0  0  0  0  0  0  0  0  0  0  0  0
  -44.0658   58.3048   58.1924 C   0  0  0  0  0  0  0  0  0  0  0  0
  -45.4470   58.3388   57.5467 C   0  0  0  0  0  0  0  0  0  0  0  0
  -46.4940   57.5500   58.3444 C   0  0  0  0  0  0  0  0  0  0  0  0
  -47.4877   56.7590   57.4741 C   0  0  0  0  0  0  0  0  0  0  0  0
  -48.9219   56.7614   58.0472 C   0  0  0  0  0  0  0  0  0  0  0  0
  -48.9033   56.4687   59.5503 C   0  0  0  0  0  0  0  0  0  0  0  0
  -49.8499   57.3224   60.3853 C   0  0  0  0  0  0  0  0  0  0  0  0
  -49.2933   58.7141   60.6470 C   0  0  0  0  0  0  0  0  0  0  0  0
  -50.0159   59.5357   61.7170 C   0  0  0  0  0  0  0  0  0  0  0  0
  -50.7902   58.5765   62.6109 C   0  0  0  0  0  0  0  0  0  0  0  0
  -50.3923   58.4622   64.0751 C   0  0  0  0  0  0  0  0  0  0  0  0
  -48.9453   57.9633   64.2142 C   0  0  0  0  0  0  0  0  0  0  0  0
  -48.3769   58.0431   65.6431 C   0  0  0  0  0  0  0  0  0  0  0  0
  -48.4004   59.4547   66.2246 C   0  0  0  0  0  0  0  0  0  0  0  0
  -38.3228   58.2105   57.8641 O   0  0  0  0  0  0  0  0  0  0  0  0
  -37.3624   58.7214   58.7699 C   0  0  0  0  0  0  0  0  0  0  0  0
  -38.6162   58.9192   57.2703 H   0  0  0  0  0  0  0  0  0  0  0  0
  -36.8564   57.6502   59.7388 C   0  0  0  0  0  0  0  0  0  0  0  0
  -35.5590   57.3174   59.8493 C   0  0  0  0  0  0  0  0  0  0  0  0
  -35.1333   56.2359   60.8404 C   0  0  0  0  0  0  0  0  0  0  0  0
  -34.6084   56.7868   62.1743 C   0  0  0  0  0  0  0  0  0  0  0  0
  -35.4835   57.8645   62.8407 C   0  0  0  0  0  0  0  0  0  0  0  0
  -35.8204   57.4736   64.2999 C   0  0  0  0  0  0  0  0  0  0  0  0
  -37.3178   57.5793   64.6843 C   0  0  0  0  0  0  0  0  0  0  0  0
  -38.2849   57.5565   63.4772 C   0  0  0  0  0  0  0  0  0  0  0  0
  -39.5770   58.3704   63.7057 C   0  0  0  0  0  0  0  0  0  0  0  0
  -40.3178   58.0038   64.9973 C   0  0  0  0  0  0  0  0  0  0  0  0
  -41.1312   59.1223   65.6453 C   0  0  0  0  0  0  0  0  0  0  0  0
  -42.4107   58.6358   66.3540 C   0  0  0  0  0  0  0  0  0  0  0  0
  -42.7196   57.1396   66.1932 C   0  0  0  0  0  0  0  0  0  0  0  0
  -44.1582   56.9232   65.7153 C   0  0  0  0  0  0  0  0  0  0  0  0
  -44.8072   58.0826   64.9802 C   0  0  0  0  0  0  0  0  0  0  0  0
  -37.7338   59.9590   61.0405 C   0  0  0  0  0  0  0  0  0  0  0  0
  -37.5022   61.3130   61.5057 O   0  0  0  0  0  0  0  0  0  0  0  0
  -35.6192   63.4634   61.5900 O   0  0  0  0  0  0  0  0  0  0  0  0
  -36.7955   63.6434   65.5879 O   0  0  0  0  0  0  0  0  0  0  0  0
  -37.1060   61.1555   63.8939 O   0  0  0  0  0  0  0  0  0  0  0  0
  -36.5738   61.5914   62.6194 C   0  0  0  0  0  0  0  0  0  0  0  0
  -36.1654   63.0595   62.8077 C   0  0  0  0  0  0  0  0  0  0  0  0
  -35.1043   63.2719   63.9096 C   0  0  0  0  0  0  0  0  0  0  0  0
  -35.7260   62.7887   65.1908 C   0  0  0  0  0  0  0  0  0  0  0  0
  -36.2106   61.3604   65.0198 C   0  0  0  0  0  0  0  0  0  0  0  0
  -36.2729   63.3370   60.8847 H   0  0  0  0  0  0  0  0  0  0  0  0
  -36.4641   64.5493   65.6911 H   0  0  0  0  0  0  0  0  0  0  0  0
  -38.1872   60.9349   66.2947 O   0  0  0  0  0  0  0  0  0  0  0  0
  -36.8023   61.0765   66.3987 C   0  0  0  0  0  0  0  0  0  0  0  0
  -38.5606   60.7547   67.1717 H   0  0  0  0  0  0  0  0  0  0  0  0
  -34.7031   64.6401   64.1486 O   0  0  0  0  0  0  0  0  0  0  0  0
  -32.3197   63.8953   64.8431 O   0  0  0  0  0  0  0  0  0  0  0  0
  -33.1782   66.0310   65.6118 O   0  0  0  0  0  0  0  0  0  0  0  0
  -32.4587   65.7623   63.3130 O   0  0  0  0  0  0  0  0  0  0  0  0
  -33.1305   65.0891   64.4607 S   0  0  0  0  0  0  0  0  0  0  0  0
  -32.7423   63.4433   65.5901 H   0  0  0  0  0  0  0  0  0  0  0  0
  -32.4233   65.1549   62.5575 H   0  0  0  0  0  0  0  0  0  0  0  0
  2  1  1  0  0  0
  2  4  1  0  0  0
  2  5  1  0  0  0
 41 42  1  0  0  0
 41  1  1  0  0  0
 42 46  1  0  0  0
  1 24  1  0  0  0
 23 24  1  0  0  0
 23 25  1  0  0  0
 24 26  1  0  0  0
  3  4  2  0  0  0
 26 27  2  0  0  0
 27 28  1  0  0  0
 43 47  1  0  0  0
 43 51  1  0  0  0
 28 29  1  0  0  0
 56 48  1  0  0  0
 56 60  1  0  0  0
 29 30  1  0  0  0
 57 60  1  0  0  0
 57 61  1  0  0  0
 30 31  1  0  0  0
 44 49  1  0  0  0
 44 52  1  0  0  0
 31 32  1  0  0  0
 45 46  1  0  0  0
 45 50  1  0  0  0
 32 33  1  0  0  0
 53 54  1  0  0  0
 53 55  1  0  0  0
 33 34  1  0  0  0
 34 35  1  0  0  0
 35 36  1  0  0  0
 58 60  1  0  0  0
 36 37  1  0  0  0
 59 60  1  0  0  0
 59 62  1  0  0  0
 37 38  1  0  0  0
 38 39  1  0  0  0
 39 40  1  0  0  0
  4  6  1  0  0  0
  6  7  1  0  0  0
  7  8  1  0  0  0
  8  9  1  0  0  0
  9 10  1  0  0  0
 10 11  1  0  0  0
 11 12  1  0  0  0
 12 13  1  0  0  0
 13 14  1  0  0  0
 14 15  1  0  0  0
 15 16  1  0  0  0
 16 17  1  0  0  0
 17 18  1  0  0  0
 18 19  1  0  0  0
 19 20  1  0  0  0
 20 21  1  0  0  0
 21 22  1  0  0  0
 46 47  1  0  0  0
 47 48  1  0  0  0
 48 49  1  0  0  0
 49 50  1  0  0  0
 50 54  1  0  0  0
M  CHG 1  58  -1
M  END
> <minimizedAffinity>
-8.97275

> <CNNscore>
0.3057786226

> <CNNaffinity>
7.2333755493

> <CNN_VS>
2.2118115425

> <CNNaffinity_variance>
1.2958865166

$$$$
/media/chris/experiments/cd1a-new-docking/inputs/ligands/1onq_ligand.pdb


 62 62  0  0  0  0  0  0  0  0999 V2000
  -39.9606   58.9968   64.4798 C   0  0  0  0  0  0  0  0  0  0  0  0
  -39.9836   59.1516   63.0388 N   0  0  0  0  0  0  0  0  0  0  0  0
  -40.7955   61.2566   62.8004 O   0  0  0  0  0  0  0  0  0  0  0  0
  -40.3791   60.2166   62.3283 C   0  0  0  0  0  0  0  0  0  0  0  0
  -39.6695   58.3780   62.5172 H   0  0  0  0  0  0  0  0  0  0  0  0
  -40.2726   60.0655   60.8398 C   0  0  0  0  0  0  0  0  0  0  0  0
  -38.7898   59.8594   60.5302 C   0  0  0  0  0  0  0  0  0  0  0  0
  -38.6231   59.3213   59.1111 C   0  0  0  0  0  0  0  0  0  0  0  0
  -37.2905   58.6871   58.7944 C   0  0  0  0  0  0  0  0  0  0  0  0
  -37.5558   57.4766   57.9054 C   0  0  0  0  0  0  0  0  0  0  0  0
  -36.3560   56.5229   57.8286 C   0  0  0  0  0  0  0  0  0  0  0  0
  -34.9954   57.1971   58.0827 C   0  0  0  0  0  0  0  0  0  0  0  0
  -33.9451   56.2279   58.6684 C   0  0  0  0  0  0  0  0  0  0  0  0
  -34.0951   56.1238   60.1889 C   0  0  0  0  0  0  0  0  0  0  0  0
  -33.7248   57.3841   60.9613 C   0  0  0  0  0  0  0  0  0  0  0  0
  -32.6922   57.1140   62.0458 C   0  0  0  0  0  0  0  0  0  0  0  0
  -32.7563   58.0233   63.2750 C   0  0  0  0  0  0  0  0  0  0  0  0
  -34.1437   58.6483   63.3325 C   0  0  0  0  0  0  0  0  0  0  0  0
  -35.1141   58.1725   64.4036 C   0  0  0  0  0  0  0  0  0  0  0  0
  -36.1789   57.2395   63.8053 C   0  0  0  0  0  0  0  0  0  0  0  0
  -36.7829   57.7292   62.4763 C   0  0  0  0  0  0  0  0  0  0  0  0
  -37.6889   56.6977   61.8080 C   0  0  0  0  0  0  0  0  0  0  0  0
  -41.0301   60.5946   65.7833 O   0  0  0  0  0  0  0  0  0  0  0  0
  -41.3204   59.5338   64.8921 C   0  0  0  0  0  0  0  0  0  0  0  0
  -40.5223   61.2778   65.3182 H   0  0  0  0  0  0  0  0  0  0  0  0
  -42.1231   58.4182   65.5655 C   0  0  0  0  0  0  0  0  0  0  0  0
  -43.4592   58.3138   65.4635 C   0  0  0  0  0  0  0  0  0  0  0  0
  -44.1884   57.1707   66.1668 C   0  0  0  0  0  0  0  0  0  0  0  0
  -45.7006   57.3946   66.3130 C   0  0  0  0  0  0  0  0  0  0  0  0
  -46.1208   58.7733   66.8552 C   0  0  0  0  0  0  0  0  0  0  0  0
  -47.4672   59.2198   66.2362 C   0  0  0  0  0  0  0  0  0  0  0  0
  -47.6371   58.9096   64.7275 C   0  0  0  0  0  0  0  0  0  0  0  0
  -48.8402   57.9937   64.4007 C   0  0  0  0  0  0  0  0  0  0  0  0
  -50.1490   58.7668   64.1292 C   0  0  0  0  0  0  0  0  0  0  0  0
  -50.8454   58.3634   62.8240 C   0  0  0  0  0  0  0  0  0  0  0  0
  -49.9463   58.2308   61.5966 C   0  0  0  0  0  0  0  0  0  0  0  0
  -50.5189   57.3141   60.4974 C   0  0  0  0  0  0  0  0  0  0  0  0
  -49.6697   57.2128   59.2213 C   0  0  0  0  0  0  0  0  0  0  0  0
  -48.2156   57.6068   59.4956 C   0  0  0  0  0  0  0  0  0  0  0  0
  -47.2676   57.5575   58.3105 C   0  0  0  0  0  0  0  0  0  0  0  0
  -38.7260   59.5927   65.1938 C   0  0  0  0  0  0  0  0  0  0  0  0
  -38.3727   60.9561   64.8480 O   0  0  0  0  0  0  0  0  0  0  0  0
  -36.6015   61.2259   62.6192 O   0  0  0  0  0  0  0  0  0  0  0  0
  -35.4292   64.6825   64.6382 O   0  0  0  0  0  0  0  0  0  0  0  0
  -36.7662   62.3460   66.0197 O   0  0  0  0  0  0  0  0  0  0  0  0
  -36.9751   61.4264   64.9204 C   0  0  0  0  0  0  0  0  0  0  0  0
  -36.4330   62.1295   63.6676 C   0  0  0  0  0  0  0  0  0  0  0  0
  -34.9345   62.4922   63.7592 C   0  0  0  0  0  0  0  0  0  0  0  0
  -34.8005   63.4353   64.9228 C   0  0  0  0  0  0  0  0  0  0  0  0
  -35.3946   62.8023   66.1681 C   0  0  0  0  0  0  0  0  0  0  0  0
  -37.5386   60.9863   62.5465 H   0  0  0  0  0  0  0  0  0  0  0  0
  -35.0349   65.0687   63.8403 H   0  0  0  0  0  0  0  0  0  0  0  0
  -36.3039   64.0313   68.0055 O   0  0  0  0  0  0  0  0  0  0  0  0
  -35.1696   63.9035   67.2019 C   0  0  0  0  0  0  0  0  0  0  0  0
  -36.1585   64.7313   68.6612 H   0  0  0  0  0  0  0  0  0  0  0  0
  -34.3778   63.1817   62.6170 O   0  0  0  0  0  0  0  0  0  0  0  0
  -32.3112   63.7922   61.1768 O   0  0  0  0  0  0  0  0  0  0  0  0
  -31.9919   62.8486   63.3897 O   0  0  0  0  0  0  0  0  0  0  0  0
  -32.6948   65.1544   63.1373 O   0  0  0  0  0  0  0  0  0  0  0  0
  -32.8239   63.7784   62.5789 S   0  0  0  0  0  0  0  0  0  0  0  0
  -32.3875   62.9033   60.7960 H   0  0  0  0  0  0  0  0  0  0  0  0
  -33.2345   65.7676   62.6143 H   0  0  0  0  0  0  0  0  0  0  0  0
  2  1  1  0  0  0
  2  4  1  0  0  0
  2  5  1  0  0  0
 41 42  1  0  0  0
 41  1  1  0  0  0
 42 46  1  0  0  0
  1 24  1  0  0  0
 23 24  1  0  0  0
 23 25  1  0  0  0
 24 26  1  0  0  0
  3  4  2  0  0  0
 26 27  2  0  0  0
 27 28  1  0  0  0
 43 47  1  0  0  0
 43 51  1  0  0  0
 28 29  1  0  0  0
 56 48  1  0  0  0
 56 60  1  0  0  0
 29 30  1  0  0  0
 57 60  1  0  0  0
 57 61  1  0  0  0
 30 31  1  0  0  0
 44 49  1  0  0  0
 44 52  1  0  0  0
 31 32  1  0  0  0
 45 46  1  0  0  0
 45 50  1  0  0  0
 32 33  1  0  0  0
 53 54  1  0  0  0
 53 55  1  0  0  0
 33 34  1  0  0  0
 34 35  1  0  0  0
 35 36  1  0  0  0
 58 60  1  0  0  0
 36 37  1  0  0  0
 59 60  1  0  0  0
 59 62  1  0  0  0
 37 38  1  0  0  0
 38 39  1  0  0  0
 39 40  1  0  0  0
  4  6  1  0  0  0
  6  7  1  0  0  0
  7  8  1  0  0  0
  8  9  1  0  0  0
  9 10  1  0  0  0
 10 11  1  0  0  0
 11 12  1  0  0  0
 12 13  1  0  0  0
 13 14  1  0  0  0
 14 15  1  0  0  0
 15 16  1  0  0  0
 16 17  1  0  0  0
 17 18  1  0  0  0
 18 19  1  0  0  0
 19 20  1  0  0  0
 20 21  1  0  0  0
 21 22  1  0  0  0
 46 47  1  0  0  0
 47 48  1  0  0  0
 48 49  1  0  0  0
 49 50  1  0  0  0
 50 54  1  0  0  0
M  CHG 1  58  -1
M  END
> <minimizedAffinity>
-9.79657

> <CNNscore>
0.3001249135

> <CNNaffinity>
7.4172697067

> <CNN_VS>
2.2261073589

> <CNNaffinity_variance>
1.1487871408

$$$$
/media/chris/experiments/cd1a-new-docking/inputs/ligands/1onq_ligand.pdb


 62 62  0  0  0  0  0  0  0  0999 V2000
  -38.2201   60.0563   61.8126 C   0  0  0  0  0  0  0  0  0  0  0  0
  -37.6991   59.2371   60.7363 N   0  0  0  0  0  0  0  0  0  0  0  0
  -38.2646   57.1470   61.4139 O   0  0  0  0  0  0  0  0  0  0  0  0
  -37.7521   57.9039   60.6124 C   0  0  0  0  0  0  0  0  0  0  0  0
  -37.2505   59.7203   60.0052 H   0  0  0  0  0  0  0  0  0  0  0  0
  -37.1230   57.3536   59.3669 C   0  0  0  0  0  0  0  0  0  0  0  0
  -35.6163   57.3161   59.6227 C   0  0  0  0  0  0  0  0  0  0  0  0
  -35.3172   56.4627   60.8529 C   0  0  0  0  0  0  0  0  0  0  0  0
  -34.1850   56.9382   61.7307 C   0  0  0  0  0  0  0  0  0  0  0  0
  -34.7780   57.8671   62.7850 C   0  0  0  0  0  0  0  0  0  0  0  0
  -35.8219   57.1712   63.6686 C   0  0  0  0  0  0  0  0  0  0  0  0
  -36.6162   58.1252   64.5794 C   0  0  0  0  0  0  0  0  0  0  0  0
  -38.0314   57.6016   64.9087 C   0  0  0  0  0  0  0  0  0  0  0  0
  -38.9964   58.7666   65.1467 C   0  0  0  0  0  0  0  0  0  0  0  0
  -40.4735   58.4198   65.0053 C   0  0  0  0  0  0  0  0  0  0  0  0
  -41.3618   59.3234   65.8476 C   0  0  0  0  0  0  0  0  0  0  0  0
  -42.8590   59.0073   65.8201 C   0  0  0  0  0  0  0  0  0  0  0  0
  -43.0663   57.6320   66.4401 C   0  0  0  0  0  0  0  0  0  0  0  0
  -44.0168   56.6599   65.7570 C   0  0  0  0  0  0  0  0  0  0  0  0
  -45.0233   57.4079   64.8683 C   0  0  0  0  0  0  0  0  0  0  0  0
  -46.4395   57.5201   65.4623 C   0  0  0  0  0  0  0  0  0  0  0  0
  -46.6051   56.7610   66.7767 C   0  0  0  0  0  0  0  0  0  0  0  0
  -40.4408   60.6651   62.1186 O   0  0  0  0  0  0  0  0  0  0  0  0
  -39.4038   60.7483   61.1587 C   0  0  0  0  0  0  0  0  0  0  0  0
  -40.1747   61.1362   62.9237 H   0  0  0  0  0  0  0  0  0  0  0  0
  -39.7610   60.0224   59.8595 C   0  0  0  0  0  0  0  0  0  0  0  0
  -40.9888   60.0595   59.3142 C   0  0  0  0  0  0  0  0  0  0  0  0
  -41.2664   59.3068   58.0143 C   0  0  0  0  0  0  0  0  0  0  0  0
  -42.6659   59.5608   57.4356 C   0  0  0  0  0  0  0  0  0  0  0  0
  -43.4974   58.3023   57.1256 C   0  0  0  0  0  0  0  0  0  0  0  0
  -44.5491   58.0523   58.2331 C   0  0  0  0  0  0  0  0  0  0  0  0
  -46.0221   58.2850   57.8116 C   0  0  0  0  0  0  0  0  0  0  0  0
  -46.8234   56.9849   57.5653 C   0  0  0  0  0  0  0  0  0  0  0  0
  -48.2487   57.0162   58.1585 C   0  0  0  0  0  0  0  0  0  0  0  0
  -48.3202   56.5546   59.6190 C   0  0  0  0  0  0  0  0  0  0  0  0
  -49.7120   56.5277   60.2472 C   0  0  0  0  0  0  0  0  0  0  0  0
  -50.2152   57.9084   60.7127 C   0  0  0  0  0  0  0  0  0  0  0  0
  -50.6577   57.9828   62.1819 C   0  0  0  0  0  0  0  0  0  0  0  0
  -49.4587   58.2108   63.1066 C   0  0  0  0  0  0  0  0  0  0  0  0
  -49.0875   59.6563   63.3871 C   0  0  0  0  0  0  0  0  0  0  0  0
  -37.1857   60.9587   62.5230 C   0  0  0  0  0  0  0  0  0  0  0  0
  -36.9764   62.2764   61.9546 O   0  0  0  0  0  0  0  0  0  0  0  0
  -37.0058   63.5638   64.5078 O   0  0  0  0  0  0  0  0  0  0  0  0
  -32.9403   62.6338   64.4398 O   0  0  0  0  0  0  0  0  0  0  0  0
  -34.6190   62.8488   61.9316 O   0  0  0  0  0  0  0  0  0  0  0  0
  -35.9237   63.1740   62.4701 C   0  0  0  0  0  0  0  0  0  0  0  0
  -35.7571   63.2135   63.9960 C   0  0  0  0  0  0  0  0  0  0  0  0
  -34.7248   64.2551   64.4806 C   0  0  0  0  0  0  0  0  0  0  0  0
  -33.4080   63.8558   63.8741 C   0  0  0  0  0  0  0  0  0  0  0  0
  -33.5522   63.7337   62.3679 C   0  0  0  0  0  0  0  0  0  0  0  0
  -37.6683   62.9194   64.2132 H   0  0  0  0  0  0  0  0  0  0  0  0
  -32.8554   62.7341   65.4009 H   0  0  0  0  0  0  0  0  0  0  0  0
  -32.0747   61.9307   61.8393 O   0  0  0  0  0  0  0  0  0  0  0  0
  -32.1391   63.3197   61.9630 C   0  0  0  0  0  0  0  0  0  0  0  0
  -31.1763   61.6703   61.5821 H   0  0  0  0  0  0  0  0  0  0  0  0
  -34.5074   64.3160   65.9086 O   0  0  0  0  0  0  0  0  0  0  0  0
  -34.0766   62.8315   67.9890 O   0  0  0  0  0  0  0  0  0  0  0  0
  -35.4367   61.9774   66.1697 O   0  0  0  0  0  0  0  0  0  0  0  0
  -36.3378   63.6344   67.6918 O   0  0  0  0  0  0  0  0  0  0  0  0
  -35.1111   63.1870   66.9730 S   0  0  0  0  0  0  0  0  0  0  0  0
  -33.2692   62.5374   67.5390 H   0  0  0  0  0  0  0  0  0  0  0  0
  -36.1345   64.4232   68.2184 H   0  0  0  0  0  0  0  0  0  0  0  0
  2  1  1  0  0  0
  2  4  1  0  0  0
  2  5  1  0  0  0
 41 42  1  0  0  0
 41  1  1  0  0  0
 42 46  1  0  0  0
  1 24  1  0  0  0
 23 24  1  0  0  0
 23 25  1  0  0  0
 24 26  1  0  0  0
  3  4  2  0  0  0
 26 27  2  0  0  0
 27 28  1  0  0  0
 43 47  1  0  0  0
 43 51  1  0  0  0
 28 29  1  0  0  0
 56 48  1  0  0  0
 56 60  1  0  0  0
 29 30  1  0  0  0
 57 60  1  0  0  0
 57 61  1  0  0  0
 30 31  1  0  0  0
 44 49  1  0  0  0
 44 52  1  0  0  0
 31 32  1  0  0  0
 45 46  1  0  0  0
 45 50  1  0  0  0
 32 33  1  0  0  0
 53 54  1  0  0  0
 53 55  1  0  0  0
 33 34  1  0  0  0
 34 35  1  0  0  0
 35 36  1  0  0  0
 58 60  1  0  0  0
 36 37  1  0  0  0
 59 60  1  0  0  0
 59 62  1  0  0  0
 37 38  1  0  0  0
 38 39  1  0  0  0
 39 40  1  0  0  0
  4  6  1  0  0  0
  6  7  1  0  0  0
  7  8  1  0  0  0
  8  9  1  0  0  0
  9 10  1  0  0  0
 10 11  1  0  0  0
 11 12  1  0  0  0
 12 13  1  0  0  0
 13 14  1  0  0  0
 14 15  1  0  0  0
 15 16  1  0  0  0
 16 17  1  0  0  0
 17 18  1  0  0  0
 18 19  1  0  0  0
 19 20  1  0  0  0
 20 21  1  0  0  0
 21 22  1  0  0  0
 46 47  1  0  0  0
 47 48  1  0  0  0
 48 49  1  0  0  0
 49 50  1  0  0  0
 50 54  1  0  0  0
M  CHG 1  58  -1
M  END
> <minimizedAffinity>
-8.76434

> <CNNscore>
0.2935225666

> <CNNaffinity>
6.9621977806

> <CNN_VS>
2.0435621738

> <CNNaffinity_variance>
1.1542255878

$$$$
