/media/chris/experiments/cd1a-new-docking/inputs/ligands/1onq_ligand.pdb


 62 62  0  0  0  0  0  0  0  0999 V2000
  -34.8320   57.6711   62.5332 C   0  0  0  0  0  0  0  0  0  0  0  0
  -35.5627   57.1907   63.6892 N   0  0  0  0  0  0  0  0  0  0  0  0
  -37.3481   57.1138   65.0872 O   0  0  0  0  0  0  0  0  0  0  0  0
  -36.7891   57.5446   64.0973 C   0  0  0  0  0  0  0  0  0  0  0  0
  -35.1005   56.5211   64.2436 H   0  0  0  0  0  0  0  0  0  0  0  0
  -37.4797   58.5595   63.2354 C   0  0  0  0  0  0  0  0  0  0  0  0
  -38.8859   58.0200   62.9730 C   0  0  0  0  0  0  0  0  0  0  0  0
  -39.9245   59.0905   63.2994 C   0  0  0  0  0  0  0  0  0  0  0  0
  -39.4872   60.1673   64.2627 C   0  0  0  0  0  0  0  0  0  0  0  0
  -39.8115   59.6839   65.6723 C   0  0  0  0  0  0  0  0  0  0  0  0
  -41.2421   60.0327   66.1044 C   0  0  0  0  0  0  0  0  0  0  0  0
  -42.1746   58.8157   66.2451 C   0  0  0  0  0  0  0  0  0  0  0  0
  -43.3840   58.8718   65.2861 C   0  0  0  0  0  0  0  0  0  0  0  0
  -44.6949   58.9465   66.0742 C   0  0  0  0  0  0  0  0  0  0  0  0
  -45.9495   59.1107   65.2249 C   0  0  0  0  0  0  0  0  0  0  0  0
  -46.7894   57.8426   65.1848 C   0  0  0  0  0  0  0  0  0  0  0  0
  -48.2463   58.0161   64.7493 C   0  0  0  0  0  0  0  0  0  0  0  0
  -48.5172   59.5044   64.5766 C   0  0  0  0  0  0  0  0  0  0  0  0
  -49.7883   59.9361   63.8603 C   0  0  0  0  0  0  0  0  0  0  0  0
  -50.7370   58.7441   63.6573 C   0  0  0  0  0  0  0  0  0  0  0  0
  -51.0062   58.3860   62.1840 C   0  0  0  0  0  0  0  0  0  0  0  0
  -49.9164   57.5132   61.5657 C   0  0  0  0  0  0  0  0  0  0  0  0
  -33.3008   56.2192   61.5620 O   0  0  0  0  0  0  0  0  0  0  0  0
  -34.6968   56.4193   61.6834 C   0  0  0  0  0  0  0  0  0  0  0  0
  -32.9170   56.0755   62.4412 H   0  0  0  0  0  0  0  0  0  0  0  0
  -35.3661   56.6527   60.3270 C   0  0  0  0  0  0  0  0  0  0  0  0
  -36.6348   57.0777   60.2003 C   0  0  0  0  0  0  0  0  0  0  0  0
  -37.2316   57.2860   58.8097 C   0  0  0  0  0  0  0  0  0  0  0  0
  -37.6409   58.7374   58.5199 C   0  0  0  0  0  0  0  0  0  0  0  0
  -38.0623   59.5685   59.7458 C   0  0  0  0  0  0  0  0  0  0  0  0
  -39.4796   60.1582   59.5488 C   0  0  0  0  0  0  0  0  0  0  0  0
  -40.3476   59.4507   58.4776 C   0  0  0  0  0  0  0  0  0  0  0  0
  -41.8706   59.6409   58.6695 C   0  0  0  0  0  0  0  0  0  0  0  0
  -42.7217   58.9365   57.5909 C   0  0  0  0  0  0  0  0  0  0  0  0
  -43.9924   58.2769   58.1400 C   0  0  0  0  0  0  0  0  0  0  0  0
  -45.2786   58.5467   57.3619 C   0  0  0  0  0  0  0  0  0  0  0  0
  -46.3113   57.4052   57.4448 C   0  0  0  0  0  0  0  0  0  0  0  0
  -46.6273   56.9097   58.8641 C   0  0  0  0  0  0  0  0  0  0  0  0
  -47.5065   55.6565   58.8260 C   0  0  0  0  0  0  0  0  0  0  0  0
  -47.9260   55.1676   57.4510 C   0  0  0  0  0  0  0  0  0  0  0  0
  -33.5341   58.4512   62.8431 C   0  0  0  0  0  0  0  0  0  0  0  0
  -33.5598   59.8788   62.5896 O   0  0  0  0  0  0  0  0  0  0  0  0
  -32.3596   62.4730   62.6745 O   0  0  0  0  0  0  0  0  0  0  0  0
  -36.0260   63.5397   64.3535 O   0  0  0  0  0  0  0  0  0  0  0  0
  -34.9664   60.7057   64.3850 O   0  0  0  0  0  0  0  0  0  0  0  0
  -33.7023   60.8497   63.6928 C   0  0  0  0  0  0  0  0  0  0  0  0
  -33.5943   62.3318   63.3068 C   0  0  0  0  0  0  0  0  0  0  0  0
  -33.6327   63.2923   64.5157 C   0  0  0  0  0  0  0  0  0  0  0  0
  -34.9631   63.0758   65.1825 C   0  0  0  0  0  0  0  0  0  0  0  0
  -35.1385   61.6047   65.5135 C   0  0  0  0  0  0  0  0  0  0  0  0
  -32.3172   61.8762   61.9111 H   0  0  0  0  0  0  0  0  0  0  0  0
  -35.8941   64.4800   64.1548 H   0  0  0  0  0  0  0  0  0  0  0  0
  -36.4258   62.0411   67.4797 O   0  0  0  0  0  0  0  0  0  0  0  0
  -36.5233   61.6043   66.1574 C   0  0  0  0  0  0  0  0  0  0  0  0
  -37.3065   62.0399   67.8863 H   0  0  0  0  0  0  0  0  0  0  0  0
  -33.5626   64.7030   64.2076 O   0  0  0  0  0  0  0  0  0  0  0  0
  -32.0188   66.5474   63.2422 O   0  0  0  0  0  0  0  0  0  0  0  0
  -31.0403   64.6521   64.3995 O   0  0  0  0  0  0  0  0  0  0  0  0
  -32.1471   66.4068   65.6526 O   0  0  0  0  0  0  0  0  0  0  0  0
  -32.1789   65.6103   64.3932 S   0  0  0  0  0  0  0  0  0  0  0  0
  -32.0371   66.0460   62.4120 H   0  0  0  0  0  0  0  0  0  0  0  0
  -32.8866   67.0347   65.6568 H   0  0  0  0  0  0  0  0  0  0  0  0
  2  1  1  0  0  0
  2  4  1  0  0  0
  2  5  1  0  0  0
 41 42  1  0  0  0
 41  1  1  0  0  0
 42 46  1  0  0  0
  1 24  1  0  0  0
 23 24  1  0  0  0
 23 25  1  0  0  0
 24 26  1  0  0  0
  3  4  2  0  0  0
 26 27  2  0  0  0
 27 28  1  0  0  0
 43 47  1  0  0  0
 43 51  1  0  0  0
 28 29  1  0  0  0
 56 48  1  0  0  0
 56 60  1  0  0  0
 29 30  1  0  0  0
 57 60  1  0  0  0
 57 61  1  0  0  0
 30 31  1  0  0  0
 44 49  1  0  0  0
 44 52  1  0  0  0
 31 32  1  0  0  0
 45 46  1  0  0  0
 45 50  1  0  0  0
 32 33  1  0  0  0
 53 54  1  0  0  0
 53 55  1  0  0  0
 33 34  1  0  0  0
 34 35  1  0  0  0
 35 36  1  0  0  0
 58 60  1  0  0  0
 36 37  1  0  0  0
 59 60  1  0  0  0
 59 62  1  0  0  0
 37 38  1  0  0  0
 38 39  1  0  0  0
 39 40  1  0  0  0
  4  6  1  0  0  0
  6  7  1  0  0  0
  7  8  1  0  0  0
  8  9  1  0  0  0
  9 10  1  0  0  0
 10 11  1  0  0  0
 11 12  1  0  0  0
 12 13  1  0  0  0
 13 14  1  0  0  0
 14 15  1  0  0  0
 15 16  1  0  0  0
 16 17  1  0  0  0
 17 18  1  0  0  0
 18 19  1  0  0  0
 19 20  1  0  0  0
 20 21  1  0  0  0
 21 22  1  0  0  0
 46 47  1  0  0  0
 47 48  1  0  0  0
 48 49  1  0  0  0
 49 50  1  0  0  0
 50 54  1  0  0  0
M  CHG 1  58  -1
M  END
> <minimizedAffinity>
-8.04887

> <CNNscore>
0.5190658569

> <CNNaffinity>
7.2784471512

> <CNN_VS>
3.7779934406

> <CNNaffinity_variance>
0.8989664316

$$$$
/media/chris/experiments/cd1a-new-docking/inputs/ligands/1onq_ligand.pdb


 62 62  0  0  0  0  0  0  0  0999 V2000
  -38.7563   59.7980   60.9391 C   0  0  0  0  0  0  0  0  0  0  0  0
  -37.8994   59.7252   59.7722 N   0  0  0  0  0  0  0  0  0  0  0  0
  -36.5377   58.6584   58.3041 O   0  0  0  0  0  0  0  0  0  0  0  0
  -37.2559   58.6556   59.2850 C   0  0  0  0  0  0  0  0  0  0  0  0
  -37.7748   60.5663   59.2759 H   0  0  0  0  0  0  0  0  0  0  0  0
  -37.4647   57.3825   60.0502 C   0  0  0  0  0  0  0  0  0  0  0  0
  -36.6508   56.3064   59.3313 C   0  0  0  0  0  0  0  0  0  0  0  0
  -35.4907   55.8530   60.2143 C   0  0  0  0  0  0  0  0  0  0  0  0
  -34.1155   56.3050   59.7866 C   0  0  0  0  0  0  0  0  0  0  0  0
  -33.5475   57.1735   60.9042 C   0  0  0  0  0  0  0  0  0  0  0  0
  -34.3503   57.0630   62.2074 C   0  0  0  0  0  0  0  0  0  0  0  0
  -34.8652   58.4091   62.7489 C   0  0  0  0  0  0  0  0  0  0  0  0
  -35.3797   58.3145   64.2021 C   0  0  0  0  0  0  0  0  0  0  0  0
  -36.3546   57.1434   64.3545 C   0  0  0  0  0  0  0  0  0  0  0  0
  -37.8298   57.5241   64.3241 C   0  0  0  0  0  0  0  0  0  0  0  0
  -38.1482   58.6761   65.2656 C   0  0  0  0  0  0  0  0  0  0  0  0
  -39.6207   59.0838   65.3534 C   0  0  0  0  0  0  0  0  0  0  0  0
  -40.4725   57.8446   65.1138 C   0  0  0  0  0  0  0  0  0  0  0  0
  -41.8442   57.7649   65.7673 C   0  0  0  0  0  0  0  0  0  0  0  0
  -42.3987   59.1691   66.0552 C   0  0  0  0  0  0  0  0  0  0  0  0
  -43.7314   59.4858   65.3519 C   0  0  0  0  0  0  0  0  0  0  0  0
  -44.7166   58.3193   65.3708 C   0  0  0  0  0  0  0  0  0  0  0  0
  -41.0137   60.1513   61.3577 O   0  0  0  0  0  0  0  0  0  0  0  0
  -40.0258   60.4167   60.3794 C   0  0  0  0  0  0  0  0  0  0  0  0
  -40.7663   60.5804   62.1918 H   0  0  0  0  0  0  0  0  0  0  0  0
  -40.3567   59.7657   59.0343 C   0  0  0  0  0  0  0  0  0  0  0  0
  -41.6106   59.6551   58.5635 C   0  0  0  0  0  0  0  0  0  0  0  0
  -41.8589   58.9905   57.2107 C   0  0  0  0  0  0  0  0  0  0  0  0
  -43.3352   58.6670   56.9387 C   0  0  0  0  0  0  0  0  0  0  0  0
  -44.1721   58.2842   58.1733 C   0  0  0  0  0  0  0  0  0  0  0  0
  -45.6572   58.0800   57.7884 C   0  0  0  0  0  0  0  0  0  0  0  0
  -46.5504   57.4699   58.8981 C   0  0  0  0  0  0  0  0  0  0  0  0
  -47.9415   57.0045   58.4072 C   0  0  0  0  0  0  0  0  0  0  0  0
  -48.8987   56.6061   59.5513 C   0  0  0  0  0  0  0  0  0  0  0  0
  -50.0763   57.5707   59.7357 C   0  0  0  0  0  0  0  0  0  0  0  0
  -51.0448   57.2389   60.8689 C   0  0  0  0  0  0  0  0  0  0  0  0
  -50.9883   58.2275   62.0502 C   0  0  0  0  0  0  0  0  0  0  0  0
  -49.6213   58.3449   62.7412 C   0  0  0  0  0  0  0  0  0  0  0  0
  -49.6450   59.4246   63.8269 C   0  0  0  0  0  0  0  0  0  0  0  0
  -50.9247   59.5409   64.6357 C   0  0  0  0  0  0  0  0  0  0  0  0
  -38.1343   60.4769   62.1805 C   0  0  0  0  0  0  0  0  0  0  0  0
  -37.0869   61.4485   61.9313 O   0  0  0  0  0  0  0  0  0  0  0  0
  -35.1798   63.5691   61.7221 O   0  0  0  0  0  0  0  0  0  0  0  0
  -36.4522   64.3938   65.6080 O   0  0  0  0  0  0  0  0  0  0  0  0
  -36.7518   61.6705   64.3239 O   0  0  0  0  0  0  0  0  0  0  0  0
  -36.1828   61.8932   63.0107 C   0  0  0  0  0  0  0  0  0  0  0  0
  -35.7610   63.3690   62.9736 C   0  0  0  0  0  0  0  0  0  0  0  0
  -34.7248   63.7455   64.0553 C   0  0  0  0  0  0  0  0  0  0  0  0
  -35.3840   63.4778   65.3802 C   0  0  0  0  0  0  0  0  0  0  0  0
  -35.8819   62.0445   65.4260 C   0  0  0  0  0  0  0  0  0  0  0  0
  -35.8174   63.3373   61.0288 H   0  0  0  0  0  0  0  0  0  0  0  0
  -36.1122   65.3018   65.5744 H   0  0  0  0  0  0  0  0  0  0  0  0
  -35.6086   62.4840   67.7597 O   0  0  0  0  0  0  0  0  0  0  0  0
  -36.5110   61.9890   66.8165 C   0  0  0  0  0  0  0  0  0  0  0  0
  -36.0105   62.4476   68.6418 H   0  0  0  0  0  0  0  0  0  0  0  0
  -34.3126   65.1308   64.0842 O   0  0  0  0  0  0  0  0  0  0  0  0
  -31.9754   64.4554   64.9776 O   0  0  0  0  0  0  0  0  0  0  0  0
  -33.1284   66.3533   65.9560 O   0  0  0  0  0  0  0  0  0  0  0  0
  -32.1007   66.5461   63.7695 O   0  0  0  0  0  0  0  0  0  0  0  0
  -32.8436   65.6340   64.6848 S   0  0  0  0  0  0  0  0  0  0  0  0
  -32.4431   63.8492   65.5732 H   0  0  0  0  0  0  0  0  0  0  0  0
  -31.9108   66.0848   62.9375 H   0  0  0  0  0  0  0  0  0  0  0  0
  2  1  1  0  0  0
  2  4  1  0  0  0
  2  5  1  0  0  0
 41 42  1  0  0  0
 41  1  1  0  0  0
 42 46  1  0  0  0
  1 24  1  0  0  0
 23 24  1  0  0  0
 23 25  1  0  0  0
 24 26  1  0  0  0
  3  4  2  0  0  0
 26 27  2  0  0  0
 27 28  1  0  0  0
 43 47  1  0  0  0
 43 51  1  0  0  0
 28 29  1  0  0  0
 56 48  1  0  0  0
 56 60  1  0  0  0
 29 30  1  0  0  0
 57 60  1  0  0  0
 57 61  1  0  0  0
 30 31  1  0  0  0
 44 49  1  0  0  0
 44 52  1  0  0  0
 31 32  1  0  0  0
 45 46  1  0  0  0
 45 50  1  0  0  0
 32 33  1  0  0  0
 53 54  1  0  0  0
 53 55  1  0  0  0
 33 34  1  0  0  0
 34 35  1  0  0  0
 35 36  1  0  0  0
 58 60  1  0  0  0
 36 37  1  0  0  0
 59 60  1  0  0  0
 59 62  1  0  0  0
 37 38  1  0  0  0
 38 39  1  0  0  0
 39 40  1  0  0  0
  4  6  1  0  0  0
  6  7  1  0  0  0
  7  8  1  0  0  0
  8  9  1  0  0  0
  9 10  1  0  0  0
 10 11  1  0  0  0
 11 12  1  0  0  0
 12 13  1  0  0  0
 13 14  1  0  0  0
 14 15  1  0  0  0
 15 16  1  0  0  0
 16 17  1  0  0  0
 17 18  1  0  0  0
 18 19  1  0  0  0
 19 20  1  0  0  0
 20 21  1  0  0  0
 21 22  1  0  0  0
 46 47  1  0  0  0
 47 48  1  0  0  0
 48 49  1  0  0  0
 49 50  1  0  0  0
 50 54  1  0  0  0
M  CHG 1  58  -1
M  END
> <minimizedAffinity>
-9.09763

> <CNNscore>
0.3569785357

> <CNNaffinity>
7.1266632080

> <CNN_VS>
2.5440657139

> <CNNaffinity_variance>
1.0728275776

$$$$
/media/chris/experiments/cd1a-new-docking/inputs/ligands/1onq_ligand.pdb


 62 62  0  0  0  0  0  0  0  0999 V2000
  -40.1836   60.2904   62.9883 C   0  0  0  0  0  0  0  0  0  0  0  0
  -40.6960   60.3911   61.6361 N   0  0  0  0  0  0  0  0  0  0  0  0
  -40.5437   60.2232   59.3786 O   0  0  0  0  0  0  0  0  0  0  0  0
  -40.0635   60.1070   60.4893 C   0  0  0  0  0  0  0  0  0  0  0  0
  -41.6242   60.7076   61.5493 H   0  0  0  0  0  0  0  0  0  0  0  0
  -38.6535   59.6189   60.6429 C   0  0  0  0  0  0  0  0  0  0  0  0
  -38.1148   59.3991   59.2291 C   0  0  0  0  0  0  0  0  0  0  0  0
  -37.2379   58.1498   59.1935 C   0  0  0  0  0  0  0  0  0  0  0  0
  -36.6725   57.7743   57.8452 C   0  0  0  0  0  0  0  0  0  0  0  0
  -36.4435   56.2665   57.8453 C   0  0  0  0  0  0  0  0  0  0  0  0
  -36.4725   55.6622   59.2556 C   0  0  0  0  0  0  0  0  0  0  0  0
  -35.1739   54.9416   59.6615 C   0  0  0  0  0  0  0  0  0  0  0  0
  -33.9311   55.8554   59.5852 C   0  0  0  0  0  0  0  0  0  0  0  0
  -33.9533   56.8923   60.7120 C   0  0  0  0  0  0  0  0  0  0  0  0
  -32.9679   56.6342   61.8455 C   0  0  0  0  0  0  0  0  0  0  0  0
  -32.6777   57.8894   62.6549 C   0  0  0  0  0  0  0  0  0  0  0  0
  -33.8410   58.8716   62.8105 C   0  0  0  0  0  0  0  0  0  0  0  0
  -34.4363   58.6878   64.1998 C   0  0  0  0  0  0  0  0  0  0  0  0
  -35.6122   57.7374   64.3696 C   0  0  0  0  0  0  0  0  0  0  0  0
  -36.4943   57.7236   63.1110 C   0  0  0  0  0  0  0  0  0  0  0  0
  -37.9851   57.4465   63.3792 C   0  0  0  0  0  0  0  0  0  0  0  0
  -38.3661   57.5662   64.8530 C   0  0  0  0  0  0  0  0  0  0  0  0
  -41.0116   61.4649   64.8133 O   0  0  0  0  0  0  0  0  0  0  0  0
  -41.4239   60.5327   63.8311 C   0  0  0  0  0  0  0  0  0  0  0  0
  -40.7292   62.2862   64.3812 H   0  0  0  0  0  0  0  0  0  0  0  0
  -41.8837   59.2099   64.4485 C   0  0  0  0  0  0  0  0  0  0  0  0
  -41.8729   58.9771   65.7721 C   0  0  0  0  0  0  0  0  0  0  0  0
  -42.3472   57.6287   66.3108 C   0  0  0  0  0  0  0  0  0  0  0  0
  -43.7976   57.2866   65.9401 C   0  0  0  0  0  0  0  0  0  0  0  0
  -44.8574   58.3150   66.3766 C   0  0  0  0  0  0  0  0  0  0  0  0
  -45.8955   58.5450   65.2519 C   0  0  0  0  0  0  0  0  0  0  0  0
  -46.9677   59.6231   65.5515 C   0  0  0  0  0  0  0  0  0  0  0  0
  -48.4055   59.2142   65.1540 C   0  0  0  0  0  0  0  0  0  0  0  0
  -48.9514   59.9850   63.9326 C   0  0  0  0  0  0  0  0  0  0  0  0
  -50.4811   60.0860   63.8991 C   0  0  0  0  0  0  0  0  0  0  0  0
  -51.1778   59.3478   62.7580 C   0  0  0  0  0  0  0  0  0  0  0  0
  -50.4880   58.0306   62.3515 C   0  0  0  0  0  0  0  0  0  0  0  0
  -50.9965   57.4010   61.0457 C   0  0  0  0  0  0  0  0  0  0  0  0
  -49.8818   56.6242   60.3393 C   0  0  0  0  0  0  0  0  0  0  0  0
  -48.6437   57.4165   59.9582 C   0  0  0  0  0  0  0  0  0  0  0  0
  -38.9451   61.1618   63.2974 C   0  0  0  0  0  0  0  0  0  0  0  0
  -38.2317   60.8622   64.5240 O   0  0  0  0  0  0  0  0  0  0  0  0
  -36.2338   61.4425   62.5620 O   0  0  0  0  0  0  0  0  0  0  0  0
  -35.6690   64.8477   64.9040 O   0  0  0  0  0  0  0  0  0  0  0  0
  -36.9283   62.3110   65.9691 O   0  0  0  0  0  0  0  0  0  0  0  0
  -36.9072   61.4523   64.8029 C   0  0  0  0  0  0  0  0  0  0  0  0
  -36.2868   62.2849   63.6718 C   0  0  0  0  0  0  0  0  0  0  0  0
  -34.8545   62.7760   63.9767 C   0  0  0  0  0  0  0  0  0  0  0  0
  -34.9598   63.6467   65.1983 C   0  0  0  0  0  0  0  0  0  0  0  0
  -35.6378   62.8795   66.3191 C   0  0  0  0  0  0  0  0  0  0  0  0
  -37.1263   61.1236   62.3553 H   0  0  0  0  0  0  0  0  0  0  0  0
  -35.2194   65.3211   64.1865 H   0  0  0  0  0  0  0  0  0  0  0  0
  -34.3586   64.4038   67.6436 O   0  0  0  0  0  0  0  0  0  0  0  0
  -35.6527   63.9245   67.4327 C   0  0  0  0  0  0  0  0  0  0  0  0
  -34.3708   65.0672   68.3512 H   0  0  0  0  0  0  0  0  0  0  0  0
  -34.2320   63.5890   62.9563 O   0  0  0  0  0  0  0  0  0  0  0  0
  -32.1978   64.1010   61.4342 O   0  0  0  0  0  0  0  0  0  0  0  0
  -31.9528   62.5376   63.2739 O   0  0  0  0  0  0  0  0  0  0  0  0
  -32.0727   64.9194   63.7059 O   0  0  0  0  0  0  0  0  0  0  0  0
  -32.5861   63.8148   62.8469 S   0  0  0  0  0  0  0  0  0  0  0  0
  -32.5240   63.3914   60.8590 H   0  0  0  0  0  0  0  0  0  0  0  0
  -32.4807   65.7566   63.4342 H   0  0  0  0  0  0  0  0  0  0  0  0
  2  1  1  0  0  0
  2  4  1  0  0  0
  2  5  1  0  0  0
 41 42  1  0  0  0
 41  1  1  0  0  0
 42 46  1  0  0  0
  1 24  1  0  0  0
 23 24  1  0  0  0
 23 25  1  0  0  0
 24 26  1  0  0  0
  3  4  2  0  0  0
 26 27  2  0  0  0
 27 28  1  0  0  0
 43 47  1  0  0  0
 43 51  1  0  0  0
 28 29  1  0  0  0
 56 48  1  0  0  0
 56 60  1  0  0  0
 29 30  1  0  0  0
 57 60  1  0  0  0
 57 61  1  0  0  0
 30 31  1  0  0  0
 44 49  1  0  0  0
 44 52  1  0  0  0
 31 32  1  0  0  0
 45 46  1  0  0  0
 45 50  1  0  0  0
 32 33  1  0  0  0
 53 54  1  0  0  0
 53 55  1  0  0  0
 33 34  1  0  0  0
 34 35  1  0  0  0
 35 36  1  0  0  0
 58 60  1  0  0  0
 36 37  1  0  0  0
 59 60  1  0  0  0
 59 62  1  0  0  0
 37 38  1  0  0  0
 38 39  1  0  0  0
 39 40  1  0  0  0
  4  6  1  0  0  0
  6  7  1  0  0  0
  7  8  1  0  0  0
  8  9  1  0  0  0
  9 10  1  0  0  0
 10 11  1  0  0  0
 11 12  1  0  0  0
 12 13  1  0  0  0
 13 14  1  0  0  0
 14 15  1  0  0  0
 15 16  1  0  0  0
 16 17  1  0  0  0
 17 18  1  0  0  0
 18 19  1  0  0  0
 19 20  1  0  0  0
 20 21  1  0  0  0
 21 22  1  0  0  0
 46 47  1  0  0  0
 47 48  1  0  0  0
 48 49  1  0  0  0
 49 50  1  0  0  0
 50 54  1  0  0  0
M  CHG 1  58  -1
M  END
> <minimizedAffinity>
-9.59880

> <CNNscore>
0.3232750893

> <CNNaffinity>
7.4282593727

> <CNN_VS>
2.4013712406

> <CNNaffinity_variance>
1.3138087988

$$$$
/media/chris/experiments/cd1a-new-docking/inputs/ligands/1onq_ligand.pdb


 62 62  0  0  0  0  0  0  0  0999 V2000
  -40.1018   58.9420   64.9348 C   0  0  0  0  0  0  0  0  0  0  0  0
  -39.7329   58.3528   63.6628 N   0  0  0  0  0  0  0  0  0  0  0  0
  -38.3670   57.1935   62.2707 O   0  0  0  0  0  0  0  0  0  0  0  0
  -38.6284   57.6550   63.3646 C   0  0  0  0  0  0  0  0  0  0  0  0
  -40.3736   58.4813   62.9264 H   0  0  0  0  0  0  0  0  0  0  0  0
  -37.6689   57.4634   64.5014 C   0  0  0  0  0  0  0  0  0  0  0  0
  -36.2770   57.3510   63.8792 C   0  0  0  0  0  0  0  0  0  0  0  0
  -35.2806   58.1907   64.6749 C   0  0  0  0  0  0  0  0  0  0  0  0
  -33.9032   58.3323   64.0739 C   0  0  0  0  0  0  0  0  0  0  0  0
  -34.0712   58.4726   62.5646 C   0  0  0  0  0  0  0  0  0  0  0  0
  -32.8784   57.9098   61.7802 C   0  0  0  0  0  0  0  0  0  0  0  0
  -32.9960   56.4133   61.4381 C   0  0  0  0  0  0  0  0  0  0  0  0
  -34.3869   56.0312   60.8858 C   0  0  0  0  0  0  0  0  0  0  0  0
  -34.2606   55.3931   59.4994 C   0  0  0  0  0  0  0  0  0  0  0  0
  -33.7804   56.3315   58.3989 C   0  0  0  0  0  0  0  0  0  0  0  0
  -34.8482   57.3352   57.9896 C   0  0  0  0  0  0  0  0  0  0  0  0
  -36.2855   56.8104   57.9575 C   0  0  0  0  0  0  0  0  0  0  0  0
  -37.0847   57.5464   59.0243 C   0  0  0  0  0  0  0  0  0  0  0  0
  -37.9737   58.7058   58.5996 C   0  0  0  0  0  0  0  0  0  0  0  0
  -38.3376   59.5895   59.8032 C   0  0  0  0  0  0  0  0  0  0  0  0
  -39.7682   60.1579   59.7687 C   0  0  0  0  0  0  0  0  0  0  0  0
  -40.3168   60.4974   61.1528 C   0  0  0  0  0  0  0  0  0  0  0  0
  -41.3238   60.9055   64.7178 O   0  0  0  0  0  0  0  0  0  0  0  0
  -41.4857   59.5008   64.6518 C   0  0  0  0  0  0  0  0  0  0  0  0
  -40.6964   61.1911   64.0353 H   0  0  0  0  0  0  0  0  0  0  0  0
  -42.4668   58.9832   65.7063 C   0  0  0  0  0  0  0  0  0  0  0  0
  -43.8001   59.0054   65.5389 C   0  0  0  0  0  0  0  0  0  0  0  0
  -44.7136   58.4705   66.6402 C   0  0  0  0  0  0  0  0  0  0  0  0
  -46.1696   58.9448   66.5251 C   0  0  0  0  0  0  0  0  0  0  0  0
  -46.6744   59.2058   65.0939 C   0  0  0  0  0  0  0  0  0  0  0  0
  -47.8653   60.1941   65.1032 C   0  0  0  0  0  0  0  0  0  0  0  0
  -48.7776   60.1427   63.8515 C   0  0  0  0  0  0  0  0  0  0  0  0
  -48.9462   58.7283   63.2483 C   0  0  0  0  0  0  0  0  0  0  0  0
  -50.4100   58.2374   63.2248 C   0  0  0  0  0  0  0  0  0  0  0  0
  -51.0715   58.3331   61.8448 C   0  0  0  0  0  0  0  0  0  0  0  0
  -50.8350   57.1537   60.9038 C   0  0  0  0  0  0  0  0  0  0  0  0
  -50.1200   57.5332   59.5920 C   0  0  0  0  0  0  0  0  0  0  0  0
  -48.6001   57.7247   59.7063 C   0  0  0  0  0  0  0  0  0  0  0  0
  -47.8751   57.0924   58.5148 C   0  0  0  0  0  0  0  0  0  0  0  0
  -46.7003   57.8703   57.9490 C   0  0  0  0  0  0  0  0  0  0  0  0
  -39.0651   59.9130   65.5443 C   0  0  0  0  0  0  0  0  0  0  0  0
  -38.4765   60.8831   64.6413 O   0  0  0  0  0  0  0  0  0  0  0  0
  -36.5114   60.9592   62.5652 O   0  0  0  0  0  0  0  0  0  0  0  0
  -35.4341   64.5295   64.4337 O   0  0  0  0  0  0  0  0  0  0  0  0
  -36.9442   62.3236   65.8508 O   0  0  0  0  0  0  0  0  0  0  0  0
  -37.0791   61.3313   64.8044 C   0  0  0  0  0  0  0  0  0  0  0  0
  -36.4126   61.9324   63.5587 C   0  0  0  0  0  0  0  0  0  0  0  0
  -34.9192   62.2729   63.7573 C   0  0  0  0  0  0  0  0  0  0  0  0
  -34.8639   63.2944   64.8595 C   0  0  0  0  0  0  0  0  0  0  0  0
  -35.5800   62.7636   66.0883 C   0  0  0  0  0  0  0  0  0  0  0  0
  -37.4442   60.7324   62.4264 H   0  0  0  0  0  0  0  0  0  0  0  0
  -34.9623   64.8499   63.6489 H   0  0  0  0  0  0  0  0  0  0  0  0
  -36.4754   63.9334   67.9707 O   0  0  0  0  0  0  0  0  0  0  0  0
  -35.4187   63.9320   67.0585 C   0  0  0  0  0  0  0  0  0  0  0  0
  -36.3707   64.6763   68.5856 H   0  0  0  0  0  0  0  0  0  0  0  0
  -34.2480   62.8681   62.6237 O   0  0  0  0  0  0  0  0  0  0  0  0
  -32.1882   63.8192   61.3709 O   0  0  0  0  0  0  0  0  0  0  0  0
  -32.2411   61.4700   61.9769 O   0  0  0  0  0  0  0  0  0  0  0  0
  -31.8360   63.1567   63.6695 O   0  0  0  0  0  0  0  0  0  0  0  0
  -32.5951   62.8440   62.4254 S   0  0  0  0  0  0  0  0  0  0  0  0
  -32.6729   63.6310   60.5521 H   0  0  0  0  0  0  0  0  0  0  0  0
  -32.0609   64.0515   63.9691 H   0  0  0  0  0  0  0  0  0  0  0  0
  2  1  1  0  0  0
  2  4  1  0  0  0
  2  5  1  0  0  0
 41 42  1  0  0  0
 41  1  1  0  0  0
 42 46  1  0  0  0
  1 24  1  0  0  0
 23 24  1  0  0  0
 23 25  1  0  0  0
 24 26  1  0  0  0
  3  4  2  0  0  0
 26 27  2  0  0  0
 27 28  1  0  0  0
 43 47  1  0  0  0
 43 51  1  0  0  0
 28 29  1  0  0  0
 56 48  1  0  0  0
 56 60  1  0  0  0
 29 30  1  0  0  0
 57 60  1  0  0  0
 57 61  1  0  0  0
 30 31  1  0  0  0
 44 49  1  0  0  0
 44 52  1  0  0  0
 31 32  1  0  0  0
 45 46  1  0  0  0
 45 50  1  0  0  0
 32 33  1  0  0  0
 53 54  1  0  0  0
 53 55  1  0  0  0
 33 34  1  0  0  0
 34 35  1  0  0  0
 35 36  1  0  0  0
 58 60  1  0  0  0
 36 37  1  0  0  0
 59 60  1  0  0  0
 59 62  1  0  0  0
 37 38  1  0  0  0
 38 39  1  0  0  0
 39 40  1  0  0  0
  4  6  1  0  0  0
  6  7  1  0  0  0
  7  8  1  0  0  0
  8  9  1  0  0  0
  9 10  1  0  0  0
 10 11  1  0  0  0
 11 12  1  0  0  0
 12 13  1  0  0  0
 13 14  1  0  0  0
 14 15  1  0  0  0
 15 16  1  0  0  0
 16 17  1  0  0  0
 17 18  1  0  0  0
 18 19  1  0  0  0
 19 20  1  0  0  0
 20 21  1  0  0  0
 21 22  1  0  0  0
 46 47  1  0  0  0
 47 48  1  0  0  0
 48 49  1  0  0  0
 49 50  1  0  0  0
 50 54  1  0  0  0
M  CHG 1  58  -1
M  END
> <minimizedAffinity>
-10.19079

> <CNNscore>
0.2975383997

> <CNNaffinity>
7.3432555199

> <CNN_VS>
2.1849005222

> <CNNaffinity_variance>
1.2190926075

$$$$
/media/chris/experiments/cd1a-new-docking/inputs/ligands/1onq_ligand.pdb


 62 62  0  0  0  0  0  0  0  0999 V2000
  -38.4572   59.7753   64.2815 C   0  0  0  0  0  0  0  0  0  0  0  0
  -39.7468   60.3277   63.9170 N   0  0  0  0  0  0  0  0  0  0  0  0
  -41.9397   60.7928   64.2667 O   0  0  0  0  0  0  0  0  0  0  0  0
  -40.8802   60.3217   64.6319 C   0  0  0  0  0  0  0  0  0  0  0  0
  -39.7961   60.7612   63.0345 H   0  0  0  0  0  0  0  0  0  0  0  0
  -40.7827   59.6638   65.9763 C   0  0  0  0  0  0  0  0  0  0  0  0
  -42.2149   59.5125   66.4895 C   0  0  0  0  0  0  0  0  0  0  0  0
  -42.5475   58.0345   66.6790 C   0  0  0  0  0  0  0  0  0  0  0  0
  -43.7526   57.5240   65.9269 C   0  0  0  0  0  0  0  0  0  0  0  0
  -44.2663   58.6626   65.0521 C   0  0  0  0  0  0  0  0  0  0  0  0
  -45.7982   58.7041   64.9718 C   0  0  0  0  0  0  0  0  0  0  0  0
  -46.5008   58.7953   66.3388 C   0  0  0  0  0  0  0  0  0  0  0  0
  -47.4021   57.5761   66.6331 C   0  0  0  0  0  0  0  0  0  0  0  0
  -48.7048   57.6619   65.8326 C   0  0  0  0  0  0  0  0  0  0  0  0
  -49.3407   59.0458   65.7820 C   0  0  0  0  0  0  0  0  0  0  0  0
  -50.7645   59.0075   65.2467 C   0  0  0  0  0  0  0  0  0  0  0  0
  -51.1199   60.0740   64.2081 C   0  0  0  0  0  0  0  0  0  0  0  0
  -51.1049   59.4217   62.8323 C   0  0  0  0  0  0  0  0  0  0  0  0
  -50.7177   57.9542   62.7249 C   0  0  0  0  0  0  0  0  0  0  0  0
  -49.4841   57.7754   61.8258 C   0  0  0  0  0  0  0  0  0  0  0  0
  -49.5837   58.4764   60.4584 C   0  0  0  0  0  0  0  0  0  0  0  0
  -50.2459   57.6155   59.3851 C   0  0  0  0  0  0  0  0  0  0  0  0
  -37.8896   57.8780   65.4957 O   0  0  0  0  0  0  0  0  0  0  0  0
  -38.7703   58.3010   64.4715 C   0  0  0  0  0  0  0  0  0  0  0  0
  -38.0780   58.3725   66.3088 H   0  0  0  0  0  0  0  0  0  0  0  0
  -38.5252   57.5572   63.1565 C   0  0  0  0  0  0  0  0  0  0  0  0
  -38.0135   58.1503   62.0646 C   0  0  0  0  0  0  0  0  0  0  0  0
  -37.7995   57.3387   60.7883 C   0  0  0  0  0  0  0  0  0  0  0  0
  -37.6079   58.1978   59.5300 C   0  0  0  0  0  0  0  0  0  0  0  0
  -37.9533   59.6906   59.6833 C   0  0  0  0  0  0  0  0  0  0  0  0
  -39.4865   59.9023   59.6843 C   0  0  0  0  0  0  0  0  0  0  0  0
  -40.2323   59.3438   58.4460 C   0  0  0  0  0  0  0  0  0  0  0  0
  -41.7400   59.6873   58.4064 C   0  0  0  0  0  0  0  0  0  0  0  0
  -42.4165   59.3437   57.0617 C   0  0  0  0  0  0  0  0  0  0  0  0
  -43.4149   58.1833   57.1511 C   0  0  0  0  0  0  0  0  0  0  0  0
  -44.8087   58.5352   57.6668 C   0  0  0  0  0  0  0  0  0  0  0  0
  -45.2674   57.6798   58.8643 C   0  0  0  0  0  0  0  0  0  0  0  0
  -46.7236   57.1944   58.8028 C   0  0  0  0  0  0  0  0  0  0  0  0
  -47.1039   56.7755   57.3798 C   0  0  0  0  0  0  0  0  0  0  0  0
  -47.6384   55.3642   57.2115 C   0  0  0  0  0  0  0  0  0  0  0  0
  -37.7297   60.4922   65.4416 C   0  0  0  0  0  0  0  0  0  0  0  0
  -37.3600   61.8766   65.2178 O   0  0  0  0  0  0  0  0  0  0  0  0
  -35.2213   61.9587   63.3212 O   0  0  0  0  0  0  0  0  0  0  0  0
  -34.3849   65.5839   65.2076 O   0  0  0  0  0  0  0  0  0  0  0  0
  -35.9696   63.3709   66.5291 O   0  0  0  0  0  0  0  0  0  0  0  0
  -35.9917   62.3578   65.4943 C   0  0  0  0  0  0  0  0  0  0  0  0
  -35.2301   62.9512   64.3006 C   0  0  0  0  0  0  0  0  0  0  0  0
  -33.7671   63.3274   64.6230 C   0  0  0  0  0  0  0  0  0  0  0  0
  -33.8298   64.3690   65.7057 C   0  0  0  0  0  0  0  0  0  0  0  0
  -34.6407   63.8445   66.8769 C   0  0  0  0  0  0  0  0  0  0  0  0
  -36.1335   61.7094   63.1055 H   0  0  0  0  0  0  0  0  0  0  0  0
  -33.8522   65.9006   64.4612 H   0  0  0  0  0  0  0  0  0  0  0  0
  -33.3427   65.6551   67.7435 O   0  0  0  0  0  0  0  0  0  0  0  0
  -34.5891   65.0330   67.8347 C   0  0  0  0  0  0  0  0  0  0  0  0
  -33.3125   66.4094   68.3526 H   0  0  0  0  0  0  0  0  0  0  0  0
  -33.0107   63.9171   63.5414 O   0  0  0  0  0  0  0  0  0  0  0  0
  -31.5048   63.6900   61.4442 O   0  0  0  0  0  0  0  0  0  0  0  0
  -33.9077   63.4301   61.2264 O   0  0  0  0  0  0  0  0  0  0  0  0
  -32.5761   61.6666   62.2218 O   0  0  0  0  0  0  0  0  0  0  0  0
  -32.7329   63.1433   62.0936 S   0  0  0  0  0  0  0  0  0  0  0  0
  -31.5886   64.6519   61.3521 H   0  0  0  0  0  0  0  0  0  0  0  0
  -31.8118   61.4704   62.7860 H   0  0  0  0  0  0  0  0  0  0  0  0
  2  1  1  0  0  0
  2  4  1  0  0  0
  2  5  1  0  0  0
 41 42  1  0  0  0
 41  1  1  0  0  0
 42 46  1  0  0  0
  1 24  1  0  0  0
 23 24  1  0  0  0
 23 25  1  0  0  0
 24 26  1  0  0  0
  3  4  2  0  0  0
 26 27  2  0  0  0
 27 28  1  0  0  0
 43 47  1  0  0  0
 43 51  1  0  0  0
 28 29  1  0  0  0
 56 48  1  0  0  0
 56 60  1  0  0  0
 29 30  1  0  0  0
 57 60  1  0  0  0
 57 61  1  0  0  0
 30 31  1  0  0  0
 44 49  1  0  0  0
 44 52  1  0  0  0
 31 32  1  0  0  0
 45 46  1  0  0  0
 45 50  1  0  0  0
 32 33  1  0  0  0
 53 54  1  0  0  0
 53 55  1  0  0  0
 33 34  1  0  0  0
 34 35  1  0  0  0
 35 36  1  0  0  0
 58 60  1  0  0  0
 36 37  1  0  0  0
 59 60  1  0  0  0
 59 62  1  0  0  0
 37 38  1  0  0  0
 38 39  1  0  0  0
 39 40  1  0  0  0
  4  6  1  0  0  0
  6  7  1  0  0  0
  7  8  1  0  0  0
  8  9  1  0  0  0
  9 10  1  0  0  0
 10 11  1  0  0  0
 11 12  1  0  0  0
 12 13  1  0  0  0
 13 14  1  0  0  0
 14 15  1  0  0  0
 15 16  1  0  0  0
 16 17  1  0  0  0
 17 18  1  0  0  0
 18 19  1  0  0  0
 19 20  1  0  0  0
 20 21  1  0  0  0
 21 22  1  0  0  0
 46 47  1  0  0  0
 47 48  1  0  0  0
 48 49  1  0  0  0
 49 50  1  0  0  0
 50 54  1  0  0  0
M  CHG 1  58  -1
M  END
> <minimizedAffinity>
-8.85946

> <CNNscore>
0.2851614952

> <CNNaffinity>
7.0675325394

> <CNN_VS>
2.0153882504

> <CNNaffinity_variance>
0.7415533662

$$$$
/media/chris/experiments/cd1a-new-docking/inputs/ligands/1onq_ligand.pdb


 62 62  0  0  0  0  0  0  0  0999 V2000
  -35.0588   57.8750   62.8972 C   0  0  0  0  0  0  0  0  0  0  0  0
  -35.7922   57.2600   63.9858 N   0  0  0  0  0  0  0  0  0  0  0  0
  -37.5991   56.9852   65.3301 O   0  0  0  0  0  0  0  0  0  0  0  0
  -37.0385   57.5286   64.3983 C   0  0  0  0  0  0  0  0  0  0  0  0
  -35.3152   56.5576   64.4842 H   0  0  0  0  0  0  0  0  0  0  0  0
  -37.7511   58.5958   63.6216 C   0  0  0  0  0  0  0  0  0  0  0  0
  -39.1809   58.0968   63.4112 C   0  0  0  0  0  0  0  0  0  0  0  0
  -40.1766   59.1507   63.8896 C   0  0  0  0  0  0  0  0  0  0  0  0
  -40.4571   59.1735   65.3727 C   0  0  0  0  0  0  0  0  0  0  0  0
  -41.7348   58.3762   65.6124 C   0  0  0  0  0  0  0  0  0  0  0  0
  -42.9980   59.1396   65.1922 C   0  0  0  0  0  0  0  0  0  0  0  0
  -44.3063   58.5565   65.7569 C   0  0  0  0  0  0  0  0  0  0  0  0
  -45.5656   59.1422   65.0812 C   0  0  0  0  0  0  0  0  0  0  0  0
  -46.6765   59.3659   66.1112 C   0  0  0  0  0  0  0  0  0  0  0  0
  -48.0459   59.6853   65.5238 C   0  0  0  0  0  0  0  0  0  0  0  0
  -48.5255   58.6101   64.5601 C   0  0  0  0  0  0  0  0  0  0  0  0
  -50.0066   58.2362   64.6548 C   0  0  0  0  0  0  0  0  0  0  0  0
  -50.8137   59.3006   63.9239 C   0  0  0  0  0  0  0  0  0  0  0  0
  -50.8538   59.2694   62.4032 C   0  0  0  0  0  0  0  0  0  0  0  0
  -51.0970   57.8417   61.8888 C   0  0  0  0  0  0  0  0  0  0  0  0
  -50.1947   57.4244   60.7128 C   0  0  0  0  0  0  0  0  0  0  0  0
  -48.7341   57.8290   60.8991 C   0  0  0  0  0  0  0  0  0  0  0  0
  -33.5998   56.5053   61.7177 O   0  0  0  0  0  0  0  0  0  0  0  0
  -34.9844   56.7549   61.8738 C   0  0  0  0  0  0  0  0  0  0  0  0
  -33.2258   56.2164   62.5649 H   0  0  0  0  0  0  0  0  0  0  0  0
  -35.6379   57.2161   60.5690 C   0  0  0  0  0  0  0  0  0  0  0  0
  -36.9675   57.2081   60.3737 C   0  0  0  0  0  0  0  0  0  0  0  0
  -37.5431   57.6837   59.0410 C   0  0  0  0  0  0  0  0  0  0  0  0
  -37.9388   59.1674   59.0290 C   0  0  0  0  0  0  0  0  0  0  0  0
  -38.4873   59.7218   60.3568 C   0  0  0  0  0  0  0  0  0  0  0  0
  -39.9606   60.1688   60.1986 C   0  0  0  0  0  0  0  0  0  0  0  0
  -40.5556   59.9959   58.7782 C   0  0  0  0  0  0  0  0  0  0  0  0
  -41.9888   59.4145   58.7582 C   0  0  0  0  0  0  0  0  0  0  0  0
  -42.5613   59.2318   57.3359 C   0  0  0  0  0  0  0  0  0  0  0  0
  -43.7847   58.3093   57.2762 C   0  0  0  0  0  0  0  0  0  0  0  0
  -44.6463   58.2546   58.5360 C   0  0  0  0  0  0  0  0  0  0  0  0
  -45.9126   57.3877   58.3910 C   0  0  0  0  0  0  0  0  0  0  0  0
  -46.8378   57.7696   57.2256 C   0  0  0  0  0  0  0  0  0  0  0  0
  -47.8188   56.6372   56.9086 C   0  0  0  0  0  0  0  0  0  0  0  0
  -47.4473   55.2580   57.4238 C   0  0  0  0  0  0  0  0  0  0  0  0
  -33.7273   58.5538   63.2912 C   0  0  0  0  0  0  0  0  0  0  0  0
  -33.3182   59.6919   62.4910 O   0  0  0  0  0  0  0  0  0  0  0  0
  -34.9487   60.4027   64.7301 O   0  0  0  0  0  0  0  0  0  0  0  0
  -32.2798   63.5975   64.9937 O   0  0  0  0  0  0  0  0  0  0  0  0
  -32.7402   62.0475   62.4362 O   0  0  0  0  0  0  0  0  0  0  0  0
  -33.7207   61.0659   62.8521 C   0  0  0  0  0  0  0  0  0  0  0  0
  -33.9770   61.3249   64.3435 C   0  0  0  0  0  0  0  0  0  0  0  0
  -34.5078   62.7437   64.6446 C   0  0  0  0  0  0  0  0  0  0  0  0
  -33.4441   63.6985   64.1774 C   0  0  0  0  0  0  0  0  0  0  0  0
  -33.1098   63.4233   62.7225 C   0  0  0  0  0  0  0  0  0  0  0  0
  -34.6321   59.5041   64.5482 H   0  0  0  0  0  0  0  0  0  0  0  0
  -32.5159   63.7767   65.9173 H   0  0  0  0  0  0  0  0  0  0  0  0
  -32.3802   65.6721   63.0750 O   0  0  0  0  0  0  0  0  0  0  0  0
  -32.0289   64.4695   62.4592 C   0  0  0  0  0  0  0  0  0  0  0  0
  -31.6922   66.3348   62.9063 H   0  0  0  0  0  0  0  0  0  0  0  0
  -34.7404   63.0516   66.0378 O   0  0  0  0  0  0  0  0  0  0  0  0
  -37.0872   61.9518   66.0202 O   0  0  0  0  0  0  0  0  0  0  0  0
  -36.8580   64.2730   66.6896 O   0  0  0  0  0  0  0  0  0  0  0  0
  -36.1729   62.4980   68.1909 O   0  0  0  0  0  0  0  0  0  0  0  0
  -36.2332   62.9245   66.7640 S   0  0  0  0  0  0  0  0  0  0  0  0
  -37.1383   62.2135   65.0876 H   0  0  0  0  0  0  0  0  0  0  0  0
  -35.7666   61.6190   68.2487 H   0  0  0  0  0  0  0  0  0  0  0  0
  2  1  1  0  0  0
  2  4  1  0  0  0
  2  5  1  0  0  0
 41 42  1  0  0  0
 41  1  1  0  0  0
 42 46  1  0  0  0
  1 24  1  0  0  0
 23 24  1  0  0  0
 23 25  1  0  0  0
 24 26  1  0  0  0
  3  4  2  0  0  0
 26 27  2  0  0  0
 27 28  1  0  0  0
 43 47  1  0  0  0
 43 51  1  0  0  0
 28 29  1  0  0  0
 56 48  1  0  0  0
 56 60  1  0  0  0
 29 30  1  0  0  0
 57 60  1  0  0  0
 57 61  1  0  0  0
 30 31  1  0  0  0
 44 49  1  0  0  0
 44 52  1  0  0  0
 31 32  1  0  0  0
 45 46  1  0  0  0
 45 50  1  0  0  0
 32 33  1  0  0  0
 53 54  1  0  0  0
 53 55  1  0  0  0
 33 34  1  0  0  0
 34 35  1  0  0  0
 35 36  1  0  0  0
 58 60  1  0  0  0
 36 37  1  0  0  0
 59 60  1  0  0  0
 59 62  1  0  0  0
 37 38  1  0  0  0
 38 39  1  0  0  0
 39 40  1  0  0  0
  4  6  1  0  0  0
  6  7  1  0  0  0
  7  8  1  0  0  0
  8  9  1  0  0  0
  9 10  1  0  0  0
 10 11  1  0  0  0
 11 12  1  0  0  0
 12 13  1  0  0  0
 13 14  1  0  0  0
 14 15  1  0  0  0
 15 16  1  0  0  0
 16 17  1  0  0  0
 17 18  1  0  0  0
 18 19  1  0  0  0
 19 20  1  0  0  0
 20 21  1  0  0  0
 21 22  1  0  0  0
 46 47  1  0  0  0
 47 48  1  0  0  0
 48 49  1  0  0  0
 49 50  1  0  0  0
 50 54  1  0  0  0
M  CHG 1  58  -1
M  END
> <minimizedAffinity>
-8.70852

> <CNNscore>
0.2673611343

> <CNNaffinity>
6.8458328247

> <CNN_VS>
1.8303096294

> <CNNaffinity_variance>
1.2742261887

$$$$
/media/chris/experiments/cd1a-new-docking/inputs/ligands/1onq_ligand.pdb


 62 62  0  0  0  0  0  0  0  0999 V2000
  -38.6864   59.3639   60.0470 C   0  0  0  0  0  0  0  0  0  0  0  0
  -37.9921   59.0078   58.8254 N   0  0  0  0  0  0  0  0  0  0  0  0
  -36.6235   57.7153   57.5590 O   0  0  0  0  0  0  0  0  0  0  0  0
  -37.1905   57.9564   58.6069 C   0  0  0  0  0  0  0  0  0  0  0  0
  -38.1261   59.6138   58.0612 H   0  0  0  0  0  0  0  0  0  0  0  0
  -37.0054   57.0410   59.7806 C   0  0  0  0  0  0  0  0  0  0  0  0
  -36.5016   55.7117   59.2180 C   0  0  0  0  0  0  0  0  0  0  0  0
  -35.2237   55.2908   59.9396 C   0  0  0  0  0  0  0  0  0  0  0  0
  -34.0179   56.1726   59.7223 C   0  0  0  0  0  0  0  0  0  0  0  0
  -33.3498   56.3819   61.0771 C   0  0  0  0  0  0  0  0  0  0  0  0
  -33.6392   57.7659   61.6736 C   0  0  0  0  0  0  0  0  0  0  0  0
  -33.2771   57.9003   63.1640 C   0  0  0  0  0  0  0  0  0  0  0  0
  -34.4558   58.4048   64.0252 C   0  0  0  0  0  0  0  0  0  0  0  0
  -35.4543   57.2742   64.2892 C   0  0  0  0  0  0  0  0  0  0  0  0
  -36.7714   57.3868   63.5311 C   0  0  0  0  0  0  0  0  0  0  0  0
  -37.9128   57.8527   64.4230 C   0  0  0  0  0  0  0  0  0  0  0  0
  -39.3105   57.8106   63.8011 C   0  0  0  0  0  0  0  0  0  0  0  0
  -40.3310   57.7389   64.9289 C   0  0  0  0  0  0  0  0  0  0  0  0
  -40.8254   59.0375   65.5489 C   0  0  0  0  0  0  0  0  0  0  0  0
  -42.2950   59.2976   65.1818 C   0  0  0  0  0  0  0  0  0  0  0  0
  -43.3032   58.9341   66.2875 C   0  0  0  0  0  0  0  0  0  0  0  0
  -43.4739   57.4287   66.4782 C   0  0  0  0  0  0  0  0  0  0  0  0
  -40.6578   60.4185   60.6774 O   0  0  0  0  0  0  0  0  0  0  0  0
  -39.8522   60.1927   59.5356 C   0  0  0  0  0  0  0  0  0  0  0  0
  -40.1509   60.9169   61.3373 H   0  0  0  0  0  0  0  0  0  0  0  0
  -40.5951   59.4080   58.4517 C   0  0  0  0  0  0  0  0  0  0  0  0
  -41.8971   59.5945   58.1755 C   0  0  0  0  0  0  0  0  0  0  0  0
  -42.5672   58.7700   57.0780 C   0  0  0  0  0  0  0  0  0  0  0  0
  -44.0964   58.6988   57.1999 C   0  0  0  0  0  0  0  0  0  0  0  0
  -44.6337   57.8107   58.3373 C   0  0  0  0  0  0  0  0  0  0  0  0
  -46.1774   57.8905   58.4140 C   0  0  0  0  0  0  0  0  0  0  0  0
  -46.9372   56.9964   57.4016 C   0  0  0  0  0  0  0  0  0  0  0  0
  -47.3595   55.6191   57.9652 C   0  0  0  0  0  0  0  0  0  0  0  0
  -48.2404   55.7132   59.2298 C   0  0  0  0  0  0  0  0  0  0  0  0
  -49.0389   57.0184   59.3307 C   0  0  0  0  0  0  0  0  0  0  0  0
  -48.9459   57.7610   60.6620 C   0  0  0  0  0  0  0  0  0  0  0  0
  -50.1614   57.5455   61.5851 C   0  0  0  0  0  0  0  0  0  0  0  0
  -50.7868   58.8279   62.1546 C   0  0  0  0  0  0  0  0  0  0  0  0
  -50.9274   58.7419   63.6770 C   0  0  0  0  0  0  0  0  0  0  0  0
  -49.6524   58.4809   64.4592 C   0  0  0  0  0  0  0  0  0  0  0  0
  -37.8090   59.9956   61.1516 C   0  0  0  0  0  0  0  0  0  0  0  0
  -38.3141   61.2079   61.7666 O   0  0  0  0  0  0  0  0  0  0  0  0
  -38.2025   61.1464   64.6234 O   0  0  0  0  0  0  0  0  0  0  0  0
  -34.1167   61.6528   63.9529 O   0  0  0  0  0  0  0  0  0  0  0  0
  -36.2235   62.4288   61.9245 O   0  0  0  0  0  0  0  0  0  0  0  0
  -37.4471   62.0591   62.6056 C   0  0  0  0  0  0  0  0  0  0  0  0
  -37.0207   61.4658   63.9559 C   0  0  0  0  0  0  0  0  0  0  0  0
  -36.2153   62.4455   64.8376 C   0  0  0  0  0  0  0  0  0  0  0  0
  -34.9739   62.7868   64.0607 C   0  0  0  0  0  0  0  0  0  0  0  0
  -35.3546   63.3090   62.6871 C   0  0  0  0  0  0  0  0  0  0  0  0
  -38.7223   60.5306   64.0835 H   0  0  0  0  0  0  0  0  0  0  0  0
  -33.8864   61.3362   64.8404 H   0  0  0  0  0  0  0  0  0  0  0  0
  -33.2040   64.3120   62.9743 O   0  0  0  0  0  0  0  0  0  0  0  0
  -33.9811   63.5781   62.0762 C   0  0  0  0  0  0  0  0  0  0  0  0
  -32.3323   64.4816   62.5840 H   0  0  0  0  0  0  0  0  0  0  0  0
  -35.7638   61.9292   66.1101 O   0  0  0  0  0  0  0  0  0  0  0  0
  -36.4419   62.2277   68.5937 O   0  0  0  0  0  0  0  0  0  0  0  0
  -36.2689   64.1762   67.1575 O   0  0  0  0  0  0  0  0  0  0  0  0
  -34.2664   63.0750   67.9647 O   0  0  0  0  0  0  0  0  0  0  0  0
  -35.6619   62.8583   67.4880 S   0  0  0  0  0  0  0  0  0  0  0  0
  -37.3547   62.0787   68.3014 H   0  0  0  0  0  0  0  0  0  0  0  0
  -33.8628   62.2202   68.1826 H   0  0  0  0  0  0  0  0  0  0  0  0
  2  1  1  0  0  0
  2  4  1  0  0  0
  2  5  1  0  0  0
 41 42  1  0  0  0
 41  1  1  0  0  0
 42 46  1  0  0  0
  1 24  1  0  0  0
 23 24  1  0  0  0
 23 25  1  0  0  0
 24 26  1  0  0  0
  3  4  2  0  0  0
 26 27  2  0  0  0
 27 28  1  0  0  0
 43 47  1  0  0  0
 43 51  1  0  0  0
 28 29  1  0  0  0
 56 48  1  0  0  0
 56 60  1  0  0  0
 29 30  1  0  0  0
 57 60  1  0  0  0
 57 61  1  0  0  0
 30 31  1  0  0  0
 44 49  1  0  0  0
 44 52  1  0  0  0
 31 32  1  0  0  0
 45 46  1  0  0  0
 45 50  1  0  0  0
 32 33  1  0  0  0
 53 54  1  0  0  0
 53 55  1  0  0  0
 33 34  1  0  0  0
 34 35  1  0  0  0
 35 36  1  0  0  0
 58 60  1  0  0  0
 36 37  1  0  0  0
 59 60  1  0  0  0
 59 62  1  0  0  0
 37 38  1  0  0  0
 38 39  1  0  0  0
 39 40  1  0  0  0
  4  6  1  0  0  0
  6  7  1  0  0  0
  7  8  1  0  0  0
  8  9  1  0  0  0
  9 10  1  0  0  0
 10 11  1  0  0  0
 11 12  1  0  0  0
 12 13  1  0  0  0
 13 14  1  0  0  0
 14 15  1  0  0  0
 15 16  1  0  0  0
 16 17  1  0  0  0
 17 18  1  0  0  0
 18 19  1  0  0  0
 19 20  1  0  0  0
 20 21  1  0  0  0
 21 22  1  0  0  0
 46 47  1  0  0  0
 47 48  1  0  0  0
 48 49  1  0  0  0
 49 50  1  0  0  0
 50 54  1  0  0  0
M  CHG 1  58  -1
M  END
> <minimizedAffinity>
-8.52070

> <CNNscore>
0.2473830432

> <CNNaffinity>
6.8267388344

> <CNN_VS>
1.6888194084

> <CNNaffinity_variance>
1.3872212172

$$$$
/media/chris/experiments/cd1a-new-docking/inputs/ligands/1onq_ligand.pdb


 62 62  0  0  0  0  0  0  0  0999 V2000
  -40.3451   58.8431   64.8757 C   0  0  0  0  0  0  0  0  0  0  0  0
  -41.1530   58.2614   65.9293 N   0  0  0  0  0  0  0  0  0  0  0  0
  -43.0964   57.8827   67.0372 O   0  0  0  0  0  0  0  0  0  0  0  0
  -42.4729   58.3872   66.1236 C   0  0  0  0  0  0  0  0  0  0  0  0
  -40.6722   57.7046   66.5836 H   0  0  0  0  0  0  0  0  0  0  0  0
  -43.1886   59.2325   65.1122 C   0  0  0  0  0  0  0  0  0  0  0  0
  -44.4718   58.4837   64.7519 C   0  0  0  0  0  0  0  0  0  0  0  0
  -45.6895   59.3072   65.1644 C   0  0  0  0  0  0  0  0  0  0  0  0
  -46.3433   58.9175   66.4680 C   0  0  0  0  0  0  0  0  0  0  0  0
  -46.9465   57.5290   66.2840 C   0  0  0  0  0  0  0  0  0  0  0  0
  -48.1000   57.5128   65.2720 C   0  0  0  0  0  0  0  0  0  0  0  0
  -49.4919   57.7212   65.8964 C   0  0  0  0  0  0  0  0  0  0  0  0
  -50.2232   58.9595   65.3333 C   0  0  0  0  0  0  0  0  0  0  0  0
  -49.8351   59.1974   63.8712 C   0  0  0  0  0  0  0  0  0  0  0  0
  -50.9972   59.1862   62.8854 C   0  0  0  0  0  0  0  0  0  0  0  0
  -51.0059   57.9364   62.0176 C   0  0  0  0  0  0  0  0  0  0  0  0
  -50.2103   58.0199   60.7128 C   0  0  0  0  0  0  0  0  0  0  0  0
  -49.7570   56.6145   60.3413 C   0  0  0  0  0  0  0  0  0  0  0  0
  -48.7112   56.4505   59.2485 C   0  0  0  0  0  0  0  0  0  0  0  0
  -47.7226   57.6273   59.2524 C   0  0  0  0  0  0  0  0  0  0  0  0
  -46.8735   57.7521   57.9738 C   0  0  0  0  0  0  0  0  0  0  0  0
  -47.1263   56.6305   56.9690 C   0  0  0  0  0  0  0  0  0  0  0  0
  -38.2271   58.0072   65.3352 O   0  0  0  0  0  0  0  0  0  0  0  0
  -39.3705   57.7244   64.5500 C   0  0  0  0  0  0  0  0  0  0  0  0
  -38.4668   57.9856   66.2749 H   0  0  0  0  0  0  0  0  0  0  0  0
  -39.0599   57.7429   63.0515 C   0  0  0  0  0  0  0  0  0  0  0  0
  -38.0130   57.0948   62.5130 C   0  0  0  0  0  0  0  0  0  0  0  0
  -37.7697   57.1629   61.0065 C   0  0  0  0  0  0  0  0  0  0  0  0
  -38.0933   58.5296   60.3857 C   0  0  0  0  0  0  0  0  0  0  0  0
  -37.3827   58.8426   59.0559 C   0  0  0  0  0  0  0  0  0  0  0  0
  -37.6289   57.7164   58.0232 C   0  0  0  0  0  0  0  0  0  0  0  0
  -36.4489   56.7318   57.8242 C   0  0  0  0  0  0  0  0  0  0  0  0
  -35.0518   57.3858   57.9387 C   0  0  0  0  0  0  0  0  0  0  0  0
  -33.9467   56.4067   58.3903 C   0  0  0  0  0  0  0  0  0  0  0  0
  -34.0324   56.0191   59.8715 C   0  0  0  0  0  0  0  0  0  0  0  0
  -33.9438   57.1691   60.8725 C   0  0  0  0  0  0  0  0  0  0  0  0
  -32.8635   56.9751   61.9547 C   0  0  0  0  0  0  0  0  0  0  0  0
  -32.7551   58.1112   62.9830 C   0  0  0  0  0  0  0  0  0  0  0  0
  -34.1358   58.6813   63.3201 C   0  0  0  0  0  0  0  0  0  0  0  0
  -34.8722   58.0279   64.4761 C   0  0  0  0  0  0  0  0  0  0  0  0
  -39.7401   60.2303   65.1896 C   0  0  0  0  0  0  0  0  0  0  0  0
  -38.9062   60.8216   64.1610 O   0  0  0  0  0  0  0  0  0  0  0  0
  -36.8841   61.1803   62.1710 O   0  0  0  0  0  0  0  0  0  0  0  0
  -35.7341   64.3271   64.6558 O   0  0  0  0  0  0  0  0  0  0  0  0
  -37.3579   61.9692   65.6348 O   0  0  0  0  0  0  0  0  0  0  0  0
  -37.4990   61.1798   64.4286 C   0  0  0  0  0  0  0  0  0  0  0  0
  -36.7784   61.9616   63.3210 C   0  0  0  0  0  0  0  0  0  0  0  0
  -35.2800   62.2038   63.6067 C   0  0  0  0  0  0  0  0  0  0  0  0
  -35.2190   63.0154   64.8712 C   0  0  0  0  0  0  0  0  0  0  0  0
  -35.9861   62.3077   65.9734 C   0  0  0  0  0  0  0  0  0  0  0  0
  -37.8202   61.0176   61.9756 H   0  0  0  0  0  0  0  0  0  0  0  0
  -35.2303   64.7602   63.9489 H   0  0  0  0  0  0  0  0  0  0  0  0
  -34.5915   63.0400   67.7714 O   0  0  0  0  0  0  0  0  0  0  0  0
  -35.8105   63.2826   67.1358 C   0  0  0  0  0  0  0  0  0  0  0  0
  -34.4824   63.6603   68.5091 H   0  0  0  0  0  0  0  0  0  0  0  0
  -34.5580   62.9603   62.6085 O   0  0  0  0  0  0  0  0  0  0  0  0
  -32.4603   63.9014   61.4123 O   0  0  0  0  0  0  0  0  0  0  0  0
  -32.4760   61.5937   62.1627 O   0  0  0  0  0  0  0  0  0  0  0  0
  -32.2192   63.3947   63.7642 O   0  0  0  0  0  0  0  0  0  0  0  0
  -32.8966   62.9800   62.5029 S   0  0  0  0  0  0  0  0  0  0  0  0
  -32.8918   63.6466   60.5818 H   0  0  0  0  0  0  0  0  0  0  0  0
  -32.4879   64.2982   63.9935 H   0  0  0  0  0  0  0  0  0  0  0  0
  2  1  1  0  0  0
  2  4  1  0  0  0
  2  5  1  0  0  0
 41 42  1  0  0  0
 41  1  1  0  0  0
 42 46  1  0  0  0
  1 24  1  0  0  0
 23 24  1  0  0  0
 23 25  1  0  0  0
 24 26  1  0  0  0
  3  4  2  0  0  0
 26 27  2  0  0  0
 27 28  1  0  0  0
 43 47  1  0  0  0
 43 51  1  0  0  0
 28 29  1  0  0  0
 56 48  1  0  0  0
 56 60  1  0  0  0
 29 30  1  0  0  0
 57 60  1  0  0  0
 57 61  1  0  0  0
 30 31  1  0  0  0
 44 49  1  0  0  0
 44 52  1  0  0  0
 31 32  1  0  0  0
 45 46  1  0  0  0
 45 50  1  0  0  0
 32 33  1  0  0  0
 53 54  1  0  0  0
 53 55  1  0  0  0
 33 34  1  0  0  0
 34 35  1  0  0  0
 35 36  1  0  0  0
 58 60  1  0  0  0
 36 37  1  0  0  0
 59 60  1  0  0  0
 59 62  1  0  0  0
 37 38  1  0  0  0
 38 39  1  0  0  0
 39 40  1  0  0  0
  4  6  1  0  0  0
  6  7  1  0  0  0
  7  8  1  0  0  0
  8  9  1  0  0  0
  9 10  1  0  0  0
 10 11  1  0  0  0
 11 12  1  0  0  0
 12 13  1  0  0  0
 13 14  1  0  0  0
 14 15  1  0  0  0
 15 16  1  0  0  0
 16 17  1  0  0  0
 17 18  1  0  0  0
 18 19  1  0  0  0
 19 20  1  0  0  0
 20 21  1  0  0  0
 21 22  1  0  0  0
 46 47  1  0  0  0
 47 48  1  0  0  0
 48 49  1  0  0  0
 49 50  1  0  0  0
 50 54  1  0  0  0
M  CHG 1  58  -1
M  END
> <minimizedAffinity>
-10.38249

> <CNNscore>
0.2351884842

> <CNNaffinity>
7.0403151512

> <CNN_VS>
1.6558010578

> <CNNaffinity_variance>
1.3872919083

$$$$
/media/chris/experiments/cd1a-new-docking/inputs/ligands/1onq_ligand.pdb


 62 62  0  0  0  0  0  0  0  0999 V2000
  -38.4011   59.7434   64.6109 C   0  0  0  0  0  0  0  0  0  0  0  0
  -39.4395   60.4712   63.9087 N   0  0  0  0  0  0  0  0  0  0  0  0
  -41.5432   61.2791   63.6451 O   0  0  0  0  0  0  0  0  0  0  0  0
  -40.7107   60.6667   64.2852 C   0  0  0  0  0  0  0  0  0  0  0  0
  -39.1784   60.8718   63.0481 H   0  0  0  0  0  0  0  0  0  0  0  0
  -41.0867   60.0556   65.6023 C   0  0  0  0  0  0  0  0  0  0  0  0
  -42.4102   59.3239   65.3783 C   0  0  0  0  0  0  0  0  0  0  0  0
  -42.7152   58.4208   66.5709 C   0  0  0  0  0  0  0  0  0  0  0  0
  -42.9793   56.9689   66.2533 C   0  0  0  0  0  0  0  0  0  0  0  0
  -44.3681   56.8787   65.6299 C   0  0  0  0  0  0  0  0  0  0  0  0
  -45.4882   56.8489   66.6785 C   0  0  0  0  0  0  0  0  0  0  0  0
  -46.8158   57.4668   66.2033 C   0  0  0  0  0  0  0  0  0  0  0  0
  -46.6840   58.2095   64.8555 C   0  0  0  0  0  0  0  0  0  0  0  0
  -47.5939   59.4409   64.8263 C   0  0  0  0  0  0  0  0  0  0  0  0
  -48.5089   59.5955   66.0350 C   0  0  0  0  0  0  0  0  0  0  0  0
  -49.9635   59.3013   65.6992 C   0  0  0  0  0  0  0  0  0  0  0  0
  -50.2019   58.2562   64.6069 C   0  0  0  0  0  0  0  0  0  0  0  0
  -50.9651   58.9219   63.4699 C   0  0  0  0  0  0  0  0  0  0  0  0
  -50.7968   58.3752   62.0600 C   0  0  0  0  0  0  0  0  0  0  0  0
  -49.4223   57.7091   61.8890 C   0  0  0  0  0  0  0  0  0  0  0  0
  -49.0426   57.3940   60.4303 C   0  0  0  0  0  0  0  0  0  0  0  0
  -50.2006   57.5764   59.4518 C   0  0  0  0  0  0  0  0  0  0  0  0
  -37.9428   57.5629   65.2678 O   0  0  0  0  0  0  0  0  0  0  0  0
  -38.8739   58.3040   64.5013 C   0  0  0  0  0  0  0  0  0  0  0  0
  -37.9736   57.8609   66.1904 H   0  0  0  0  0  0  0  0  0  0  0  0
  -38.8758   57.8816   63.0302 C   0  0  0  0  0  0  0  0  0  0  0  0
  -37.7495   57.6801   62.3252 C   0  0  0  0  0  0  0  0  0  0  0  0
  -37.8352   57.2602   60.8590 C   0  0  0  0  0  0  0  0  0  0  0  0
  -37.9672   58.4374   59.8819 C   0  0  0  0  0  0  0  0  0  0  0  0
  -38.4044   59.7756   60.5058 C   0  0  0  0  0  0  0  0  0  0  0  0
  -39.8226   60.1680   60.0259 C   0  0  0  0  0  0  0  0  0  0  0  0
  -40.3006   59.4653   58.7301 C   0  0  0  0  0  0  0  0  0  0  0  0
  -41.8015   59.6688   58.4158 C   0  0  0  0  0  0  0  0  0  0  0  0
  -42.3338   58.7307   57.3110 C   0  0  0  0  0  0  0  0  0  0  0  0
  -43.8636   58.6376   57.2638 C   0  0  0  0  0  0  0  0  0  0  0  0
  -44.5494   58.1959   58.5550 C   0  0  0  0  0  0  0  0  0  0  0  0
  -45.6917   57.1830   58.3420 C   0  0  0  0  0  0  0  0  0  0  0  0
  -46.9076   57.7197   57.5717 C   0  0  0  0  0  0  0  0  0  0  0  0
  -47.5303   56.6276   56.6972 C   0  0  0  0  0  0  0  0  0  0  0  0
  -47.5518   55.2259   57.2806 C   0  0  0  0  0  0  0  0  0  0  0  0
  -38.0640   60.2643   66.0265 C   0  0  0  0  0  0  0  0  0  0  0  0
  -37.3692   61.5351   66.1011 O   0  0  0  0  0  0  0  0  0  0  0  0
  -36.5184   64.2280   65.6520 O   0  0  0  0  0  0  0  0  0  0  0  0
  -32.8739   62.3824   64.8089 O   0  0  0  0  0  0  0  0  0  0  0  0
  -35.5261   60.9357   64.6418 O   0  0  0  0  0  0  0  0  0  0  0  0
  -36.4599   61.9748   65.0241 C   0  0  0  0  0  0  0  0  0  0  0  0
  -35.6130   63.2205   65.3213 C   0  0  0  0  0  0  0  0  0  0  0  0
  -34.7716   63.7003   64.1182 C   0  0  0  0  0  0  0  0  0  0  0  0
  -33.8410   62.5690   63.7783 C   0  0  0  0  0  0  0  0  0  0  0  0
  -34.6391   61.2982   63.5495 C   0  0  0  0  0  0  0  0  0  0  0  0
  -37.0566   63.9439   66.4073 H   0  0  0  0  0  0  0  0  0  0  0  0
  -32.3764   63.2051   64.9382 H   0  0  0  0  0  0  0  0  0  0  0  0
  -32.6796   60.8288   62.2635 O   0  0  0  0  0  0  0  0  0  0  0  0
  -33.5285   60.2978   63.2363 C   0  0  0  0  0  0  0  0  0  0  0  0
  -31.9753   60.1916   62.0664 H   0  0  0  0  0  0  0  0  0  0  0  0
  -33.9330   64.8545   64.3507 O   0  0  0  0  0  0  0  0  0  0  0  0
  -33.3151   66.5381   66.2218 O   0  0  0  0  0  0  0  0  0  0  0  0
  -31.6831   64.8904   65.5073 O   0  0  0  0  0  0  0  0  0  0  0  0
  -33.5582   64.2279   66.8926 O   0  0  0  0  0  0  0  0  0  0  0  0
  -33.1268   65.1239   65.7823 S   0  0  0  0  0  0  0  0  0  0  0  0
  -33.0391   67.1372   65.5106 H   0  0  0  0  0  0  0  0  0  0  0  0
  -34.4990   64.3737   67.0787 H   0  0  0  0  0  0  0  0  0  0  0  0
  2  1  1  0  0  0
  2  4  1  0  0  0
  2  5  1  0  0  0
 41 42  1  0  0  0
 41  1  1  0  0  0
 42 46  1  0  0  0
  1 24  1  0  0  0
 23 24  1  0  0  0
 23 25  1  0  0  0
 24 26  1  0  0  0
  3  4  2  0  0  0
 26 27  2  0  0  0
 27 28  1  0  0  0
 43 47  1  0  0  0
 43 51  1  0  0  0
 28 29  1  0  0  0
 56 48  1  0  0  0
 56 60  1  0  0  0
 29 30  1  0  0  0
 57 60  1  0  0  0
 57 61  1  0  0  0
 30 31  1  0  0  0
 44 49  1  0  0  0
 44 52  1  0  0  0
 31 32  1  0  0  0
 45 46  1  0  0  0
 45 50  1  0  0  0
 32 33  1  0  0  0
 53 54  1  0  0  0
 53 55  1  0  0  0
 33 34  1  0  0  0
 34 35  1  0  0  0
 35 36  1  0  0  0
 58 60  1  0  0  0
 36 37  1  0  0  0
 59 60  1  0  0  0
 59 62  1  0  0  0
 37 38  1  0  0  0
 38 39  1  0  0  0
 39 40  1  0  0  0
  4  6  1  0  0  0
  6  7  1  0  0  0
  7  8  1  0  0  0
  8  9  1  0  0  0
  9 10  1  0  0  0
 10 11  1  0  0  0
 11 12  1  0  0  0
 12 13  1  0  0  0
 13 14  1  0  0  0
 14 15  1  0  0  0
 15 16  1  0  0  0
 16 17  1  0  0  0
 17 18  1  0  0  0
 18 19  1  0  0  0
 19 20  1  0  0  0
 20 21  1  0  0  0
 21 22  1  0  0  0
 46 47  1  0  0  0
 47 48  1  0  0  0
 48 49  1  0  0  0
 49 50  1  0  0  0
 50 54  1  0  0  0
M  CHG 1  58  -1
M  END
> <minimizedAffinity>
-8.77840

> <CNNscore>
0.2182471156

> <CNNaffinity>
7.0329360962

> <CNN_VS>
1.5349180698

> <CNNaffinity_variance>
1.0911712646

$$$$
