/media/chris/experiments/cd1a-new-docking/inputs/ligands/1onq_ligand.pdb


 62 62  0  0  0  0  0  0  0  0999 V2000
  -38.7729   60.5581   62.2052 C   0  0  0  0  0  0  0  0  0  0  0  0
  -39.1117   60.1029   63.5390 N   0  0  0  0  0  0  0  0  0  0  0  0
  -41.0551   61.2038   63.9371 O   0  0  0  0  0  0  0  0  0  0  0  0
  -40.1761   60.4377   64.2810 C   0  0  0  0  0  0  0  0  0  0  0  0
  -38.4813   59.4688   63.9511 H   0  0  0  0  0  0  0  0  0  0  0  0
  -40.2453   59.7830   65.6287 C   0  0  0  0  0  0  0  0  0  0  0  0
  -41.0101   58.4734   65.4354 C   0  0  0  0  0  0  0  0  0  0  0  0
  -42.2369   58.4469   66.3438 C   0  0  0  0  0  0  0  0  0  0  0  0
  -43.0737   57.1917   66.2921 C   0  0  0  0  0  0  0  0  0  0  0  0
  -44.3450   57.5171   65.5148 C   0  0  0  0  0  0  0  0  0  0  0  0
  -44.7738   58.9828   65.6663 C   0  0  0  0  0  0  0  0  0  0  0  0
  -46.2688   59.2349   65.3982 C   0  0  0  0  0  0  0  0  0  0  0  0
  -46.8938   58.1878   64.4504 C   0  0  0  0  0  0  0  0  0  0  0  0
  -48.3038   57.8123   64.9151 C   0  0  0  0  0  0  0  0  0  0  0  0
  -49.4349   58.5283   64.1869 C   0  0  0  0  0  0  0  0  0  0  0  0
  -49.5578   58.0870   62.7359 C   0  0  0  0  0  0  0  0  0  0  0  0
  -50.9721   58.0897   62.1512 C   0  0  0  0  0  0  0  0  0  0  0  0
  -50.9412   57.3372   60.8278 C   0  0  0  0  0  0  0  0  0  0  0  0
  -49.6731   56.5893   60.4436 C   0  0  0  0  0  0  0  0  0  0  0  0
  -49.0555   57.1751   59.1639 C   0  0  0  0  0  0  0  0  0  0  0  0
  -48.1662   56.1947   58.3773 C   0  0  0  0  0  0  0  0  0  0  0  0
  -48.2723   56.3643   56.8636 C   0  0  0  0  0  0  0  0  0  0  0  0
  -39.1064   58.2633   62.0705 O   0  0  0  0  0  0  0  0  0  0  0  0
  -39.3235   59.4478   61.3268 C   0  0  0  0  0  0  0  0  0  0  0  0
  -39.5981   58.3109   62.9053 H   0  0  0  0  0  0  0  0  0  0  0  0
  -38.5729   59.4372   59.9931 C   0  0  0  0  0  0  0  0  0  0  0  0
  -37.8370   58.3929   59.5757 C   0  0  0  0  0  0  0  0  0  0  0  0
  -37.1161   58.4599   58.2306 C   0  0  0  0  0  0  0  0  0  0  0  0
  -36.2076   57.2538   57.9514 C   0  0  0  0  0  0  0  0  0  0  0  0
  -36.7226   55.8977   58.4678 C   0  0  0  0  0  0  0  0  0  0  0  0
  -35.8358   55.3778   59.6248 C   0  0  0  0  0  0  0  0  0  0  0  0
  -34.3173   55.3203   59.3203 C   0  0  0  0  0  0  0  0  0  0  0  0
  -33.4646   56.2964   60.1645 C   0  0  0  0  0  0  0  0  0  0  0  0
  -34.1315   56.7067   61.4953 C   0  0  0  0  0  0  0  0  0  0  0  0
  -33.5892   58.0165   62.0799 C   0  0  0  0  0  0  0  0  0  0  0  0
  -32.9087   57.9122   63.4433 C   0  0  0  0  0  0  0  0  0  0  0  0
  -33.8859   57.9464   64.6348 C   0  0  0  0  0  0  0  0  0  0  0  0
  -34.8849   59.1133   64.6291 C   0  0  0  0  0  0  0  0  0  0  0  0
  -36.3282   58.6017   64.6369 C   0  0  0  0  0  0  0  0  0  0  0  0
  -36.5207   57.1196   64.3683 C   0  0  0  0  0  0  0  0  0  0  0  0
  -37.2937   60.9520   61.9918 C   0  0  0  0  0  0  0  0  0  0  0  0
  -36.8491   62.1739   62.6341 O   0  0  0  0  0  0  0  0  0  0  0  0
  -34.0519   62.7302   62.4256 O   0  0  0  0  0  0  0  0  0  0  0  0
  -34.6937   64.6460   66.0747 O   0  0  0  0  0  0  0  0  0  0  0  0
  -36.5127   62.4710   65.0182 O   0  0  0  0  0  0  0  0  0  0  0  0
  -35.8870   62.1439   63.7537 C   0  0  0  0  0  0  0  0  0  0  0  0
  -34.6723   63.0744   63.6259 C   0  0  0  0  0  0  0  0  0  0  0  0
  -33.6443   62.9130   64.7670 C   0  0  0  0  0  0  0  0  0  0  0  0
  -34.3695   63.2583   66.0383 C   0  0  0  0  0  0  0  0  0  0  0  0
  -35.6204   62.4076   66.1634 C   0  0  0  0  0  0  0  0  0  0  0  0
  -34.6839   62.8258   61.6959 H   0  0  0  0  0  0  0  0  0  0  0  0
  -33.8815   65.1700   65.9934 H   0  0  0  0  0  0  0  0  0  0  0  0
  -37.0517   63.9908   67.2396 O   0  0  0  0  0  0  0  0  0  0  0  0
  -36.1976   62.9138   67.4835 C   0  0  0  0  0  0  0  0  0  0  0  0
  -37.4169   64.3105   68.0795 H   0  0  0  0  0  0  0  0  0  0  0  0
  -32.4928   63.7853   64.7116 O   0  0  0  0  0  0  0  0  0  0  0  0
  -32.0637   65.2561   62.6212 O   0  0  0  0  0  0  0  0  0  0  0  0
  -31.5913   66.1464   64.8287 O   0  0  0  0  0  0  0  0  0  0  0  0
  -33.8812   65.9405   64.0616 O   0  0  0  0  0  0  0  0  0  0  0  0
  -32.5320   65.3073   64.0379 S   0  0  0  0  0  0  0  0  0  0  0  0
  -31.1853   64.8462   62.5857 H   0  0  0  0  0  0  0  0  0  0  0  0
  -34.5012   65.3997   63.5480 H   0  0  0  0  0  0  0  0  0  0  0  0
  2  1  1  0  0  0
  2  4  1  0  0  0
  2  5  1  0  0  0
 41 42  1  0  0  0
 41  1  1  0  0  0
 42 46  1  0  0  0
  1 24  1  0  0  0
 23 24  1  0  0  0
 23 25  1  0  0  0
 24 26  1  0  0  0
  3  4  2  0  0  0
 26 27  2  0  0  0
 27 28  1  0  0  0
 43 47  1  0  0  0
 43 51  1  0  0  0
 28 29  1  0  0  0
 56 48  1  0  0  0
 56 60  1  0  0  0
 29 30  1  0  0  0
 57 60  1  0  0  0
 57 61  1  0  0  0
 30 31  1  0  0  0
 44 49  1  0  0  0
 44 52  1  0  0  0
 31 32  1  0  0  0
 45 46  1  0  0  0
 45 50  1  0  0  0
 32 33  1  0  0  0
 53 54  1  0  0  0
 53 55  1  0  0  0
 33 34  1  0  0  0
 34 35  1  0  0  0
 35 36  1  0  0  0
 58 60  1  0  0  0
 36 37  1  0  0  0
 59 60  1  0  0  0
 59 62  1  0  0  0
 37 38  1  0  0  0
 38 39  1  0  0  0
 39 40  1  0  0  0
  4  6  1  0  0  0
  6  7  1  0  0  0
  7  8  1  0  0  0
  8  9  1  0  0  0
  9 10  1  0  0  0
 10 11  1  0  0  0
 11 12  1  0  0  0
 12 13  1  0  0  0
 13 14  1  0  0  0
 14 15  1  0  0  0
 15 16  1  0  0  0
 16 17  1  0  0  0
 17 18  1  0  0  0
 18 19  1  0  0  0
 19 20  1  0  0  0
 20 21  1  0  0  0
 21 22  1  0  0  0
 46 47  1  0  0  0
 47 48  1  0  0  0
 48 49  1  0  0  0
 49 50  1  0  0  0
 50 54  1  0  0  0
M  CHG 1  58  -1
M  END
> <minimizedAffinity>
-9.36052

> <CNNscore>
0.3624030948

> <CNNaffinity>
7.2590217590

> <CNN_VS>
2.6306920052

> <CNNaffinity_variance>
1.1855926514

$$$$
/media/chris/experiments/cd1a-new-docking/inputs/ligands/1onq_ligand.pdb


 62 62  0  0  0  0  0  0  0  0999 V2000
  -40.0842   59.1743   64.6637 C   0  0  0  0  0  0  0  0  0  0  0  0
  -40.1501   59.1763   63.2157 N   0  0  0  0  0  0  0  0  0  0  0  0
  -40.5559   61.3619   62.7618 O   0  0  0  0  0  0  0  0  0  0  0  0
  -40.3704   60.2162   62.3999 C   0  0  0  0  0  0  0  0  0  0  0  0
  -40.0164   58.3051   62.7770 H   0  0  0  0  0  0  0  0  0  0  0  0
  -40.3701   59.8896   60.9360 C   0  0  0  0  0  0  0  0  0  0  0  0
  -38.9481   60.1440   60.4355 C   0  0  0  0  0  0  0  0  0  0  0  0
  -38.7037   59.3688   59.1431 C   0  0  0  0  0  0  0  0  0  0  0  0
  -37.3327   58.7572   58.9856 C   0  0  0  0  0  0  0  0  0  0  0  0
  -37.3602   57.8795   57.7385 C   0  0  0  0  0  0  0  0  0  0  0  0
  -36.5897   56.5651   57.9215 C   0  0  0  0  0  0  0  0  0  0  0  0
  -35.3665   56.6734   58.8502 C   0  0  0  0  0  0  0  0  0  0  0  0
  -35.3184   55.5535   59.9128 C   0  0  0  0  0  0  0  0  0  0  0  0
  -34.0984   55.7243   60.8225 C   0  0  0  0  0  0  0  0  0  0  0  0
  -33.5992   57.1565   60.9699 C   0  0  0  0  0  0  0  0  0  0  0  0
  -32.6229   57.3113   62.1266 C   0  0  0  0  0  0  0  0  0  0  0  0
  -32.8430   58.5250   63.0326 C   0  0  0  0  0  0  0  0  0  0  0  0
  -34.3427   58.7211   63.2092 C   0  0  0  0  0  0  0  0  0  0  0  0
  -35.0404   58.0119   64.3605 C   0  0  0  0  0  0  0  0  0  0  0  0
  -36.2840   57.2554   63.8676 C   0  0  0  0  0  0  0  0  0  0  0  0
  -36.8649   57.7777   62.5407 C   0  0  0  0  0  0  0  0  0  0  0  0
  -37.9695   56.8890   61.9737 C   0  0  0  0  0  0  0  0  0  0  0  0
  -40.9435   60.9623   65.8722 O   0  0  0  0  0  0  0  0  0  0  0  0
  -41.3672   59.8875   65.0544 C   0  0  0  0  0  0  0  0  0  0  0  0
  -40.3700   61.5526   65.3588 H   0  0  0  0  0  0  0  0  0  0  0  0
  -42.2788   58.9151   65.8066 C   0  0  0  0  0  0  0  0  0  0  0  0
  -43.5977   58.8151   65.5683 C   0  0  0  0  0  0  0  0  0  0  0  0
  -44.4407   57.8196   66.3630 C   0  0  0  0  0  0  0  0  0  0  0  0
  -45.8432   58.3356   66.7166 C   0  0  0  0  0  0  0  0  0  0  0  0
  -46.4453   59.3563   65.7333 C   0  0  0  0  0  0  0  0  0  0  0  0
  -47.9811   59.4433   65.9042 C   0  0  0  0  0  0  0  0  0  0  0  0
  -48.7300   58.0872   65.8590 C   0  0  0  0  0  0  0  0  0  0  0  0
  -50.2515   58.2119   65.6098 C   0  0  0  0  0  0  0  0  0  0  0  0
  -50.6127   59.1910   64.4718 C   0  0  0  0  0  0  0  0  0  0  0  0
  -50.6968   58.5293   63.0911 C   0  0  0  0  0  0  0  0  0  0  0  0
  -49.4128   58.5361   62.2640 C   0  0  0  0  0  0  0  0  0  0  0  0
  -49.6445   58.7080   60.7499 C   0  0  0  0  0  0  0  0  0  0  0  0
  -50.2581   57.4922   60.0392 C   0  0  0  0  0  0  0  0  0  0  0  0
  -49.1686   56.5356   59.5463 C   0  0  0  0  0  0  0  0  0  0  0  0
  -48.6076   56.8071   58.1616 C   0  0  0  0  0  0  0  0  0  0  0  0
  -38.7695   59.7144   65.2710 C   0  0  0  0  0  0  0  0  0  0  0  0
  -38.3757   61.0535   64.8773 O   0  0  0  0  0  0  0  0  0  0  0  0
  -36.6445   61.3025   62.6150 O   0  0  0  0  0  0  0  0  0  0  0  0
  -35.3283   64.6947   64.6543 O   0  0  0  0  0  0  0  0  0  0  0  0
  -36.7046   62.3792   66.0327 O   0  0  0  0  0  0  0  0  0  0  0  0
  -36.9635   61.4816   64.9261 C   0  0  0  0  0  0  0  0  0  0  0  0
  -36.4273   62.1860   63.6715 C   0  0  0  0  0  0  0  0  0  0  0  0
  -34.9172   62.5033   63.7358 C   0  0  0  0  0  0  0  0  0  0  0  0
  -34.7309   63.4256   64.9088 C   0  0  0  0  0  0  0  0  0  0  0  0
  -35.3172   62.7930   66.1579 C   0  0  0  0  0  0  0  0  0  0  0  0
  -37.5896   61.0914   62.5591 H   0  0  0  0  0  0  0  0  0  0  0  0
  -34.9397   65.0801   63.8534 H   0  0  0  0  0  0  0  0  0  0  0  0
  -36.1765   64.0746   67.9835 O   0  0  0  0  0  0  0  0  0  0  0  0
  -35.0380   63.8726   67.2012 C   0  0  0  0  0  0  0  0  0  0  0  0
  -35.9966   64.7606   68.6452 H   0  0  0  0  0  0  0  0  0  0  0  0
  -34.3644   63.1921   62.5912 O   0  0  0  0  0  0  0  0  0  0  0  0
  -32.3087   63.8108   61.1394 O   0  0  0  0  0  0  0  0  0  0  0  0
  -31.9729   62.8437   63.3396 O   0  0  0  0  0  0  0  0  0  0  0  0
  -32.6706   65.1541   63.1170 O   0  0  0  0  0  0  0  0  0  0  0  0
  -32.8091   63.7844   62.5457 S   0  0  0  0  0  0  0  0  0  0  0  0
  -32.3910   62.9261   60.7502 H   0  0  0  0  0  0  0  0  0  0  0  0
  -33.2129   65.7743   62.6050 H   0  0  0  0  0  0  0  0  0  0  0  0
  2  1  1  0  0  0
  2  4  1  0  0  0
  2  5  1  0  0  0
 41 42  1  0  0  0
 41  1  1  0  0  0
 42 46  1  0  0  0
  1 24  1  0  0  0
 23 24  1  0  0  0
 23 25  1  0  0  0
 24 26  1  0  0  0
  3  4  2  0  0  0
 26 27  2  0  0  0
 27 28  1  0  0  0
 43 47  1  0  0  0
 43 51  1  0  0  0
 28 29  1  0  0  0
 56 48  1  0  0  0
 56 60  1  0  0  0
 29 30  1  0  0  0
 57 60  1  0  0  0
 57 61  1  0  0  0
 30 31  1  0  0  0
 44 49  1  0  0  0
 44 52  1  0  0  0
 31 32  1  0  0  0
 45 46  1  0  0  0
 45 50  1  0  0  0
 32 33  1  0  0  0
 53 54  1  0  0  0
 53 55  1  0  0  0
 33 34  1  0  0  0
 34 35  1  0  0  0
 35 36  1  0  0  0
 58 60  1  0  0  0
 36 37  1  0  0  0
 59 60  1  0  0  0
 59 62  1  0  0  0
 37 38  1  0  0  0
 38 39  1  0  0  0
 39 40  1  0  0  0
  4  6  1  0  0  0
  6  7  1  0  0  0
  7  8  1  0  0  0
  8  9  1  0  0  0
  9 10  1  0  0  0
 10 11  1  0  0  0
 11 12  1  0  0  0
 12 13  1  0  0  0
 13 14  1  0  0  0
 14 15  1  0  0  0
 15 16  1  0  0  0
 16 17  1  0  0  0
 17 18  1  0  0  0
 18 19  1  0  0  0
 19 20  1  0  0  0
 20 21  1  0  0  0
 21 22  1  0  0  0
 46 47  1  0  0  0
 47 48  1  0  0  0
 48 49  1  0  0  0
 49 50  1  0  0  0
 50 54  1  0  0  0
M  CHG 1  58  -1
M  END
> <minimizedAffinity>
-9.63826

> <CNNscore>
0.3414454758

> <CNNaffinity>
7.4324340820

> <CNN_VS>
2.5377709866

> <CNNaffinity_variance>
0.9804401398

$$$$
/media/chris/experiments/cd1a-new-docking/inputs/ligands/1onq_ligand.pdb


 62 62  0  0  0  0  0  0  0  0999 V2000
  -39.8050   59.0584   64.3157 C   0  0  0  0  0  0  0  0  0  0  0  0
  -41.0798   58.5140   64.7395 N   0  0  0  0  0  0  0  0  0  0  0  0
  -41.4450   59.6206   66.6862 O   0  0  0  0  0  0  0  0  0  0  0  0
  -41.7816   58.8146   65.8408 C   0  0  0  0  0  0  0  0  0  0  0  0
  -41.4798   57.8395   64.1443 H   0  0  0  0  0  0  0  0  0  0  0  0
  -43.0795   58.0777   65.9907 C   0  0  0  0  0  0  0  0  0  0  0  0
  -44.1465   58.9371   65.3123 C   0  0  0  0  0  0  0  0  0  0  0  0
  -45.5277   58.3258   65.5351 C   0  0  0  0  0  0  0  0  0  0  0  0
  -46.3079   58.8605   66.7115 C   0  0  0  0  0  0  0  0  0  0  0  0
  -47.5605   59.5370   66.1644 C   0  0  0  0  0  0  0  0  0  0  0  0
  -48.3002   58.6719   65.1352 C   0  0  0  0  0  0  0  0  0  0  0  0
  -49.7123   58.2397   65.5708 C   0  0  0  0  0  0  0  0  0  0  0  0
  -50.8089   59.2300   65.1210 C   0  0  0  0  0  0  0  0  0  0  0  0
  -50.5754   59.6735   63.6740 C   0  0  0  0  0  0  0  0  0  0  0  0
  -51.1679   58.7532   62.6137 C   0  0  0  0  0  0  0  0  0  0  0  0
  -50.0999   57.9573   61.8782 C   0  0  0  0  0  0  0  0  0  0  0  0
  -49.8072   58.3951   60.4412 C   0  0  0  0  0  0  0  0  0  0  0  0
  -49.7602   57.1507   59.5650 C   0  0  0  0  0  0  0  0  0  0  0  0
  -48.4147   56.4863   59.3132 C   0  0  0  0  0  0  0  0  0  0  0  0
  -47.3338   57.5338   59.0025 C   0  0  0  0  0  0  0  0  0  0  0  0
  -46.7295   57.4282   57.5902 C   0  0  0  0  0  0  0  0  0  0  0  0
  -47.5982   56.6315   56.6196 C   0  0  0  0  0  0  0  0  0  0  0  0
  -38.2747   59.2496   66.0527 O   0  0  0  0  0  0  0  0  0  0  0  0
  -38.8146   58.2847   65.1690 C   0  0  0  0  0  0  0  0  0  0  0  0
  -38.9838   59.6159   66.6039 H   0  0  0  0  0  0  0  0  0  0  0  0
  -37.7441   57.6655   64.2674 C   0  0  0  0  0  0  0  0  0  0  0  0
  -36.4727   58.1002   64.2359 C   0  0  0  0  0  0  0  0  0  0  0  0
  -35.4626   57.4294   63.3070 C   0  0  0  0  0  0  0  0  0  0  0  0
  -34.5176   58.4132   62.6018 C   0  0  0  0  0  0  0  0  0  0  0  0
  -33.4064   57.7746   61.7484 C   0  0  0  0  0  0  0  0  0  0  0  0
  -33.7661   56.3146   61.3817 C   0  0  0  0  0  0  0  0  0  0  0  0
  -34.0208   56.0541   59.8754 C   0  0  0  0  0  0  0  0  0  0  0  0
  -35.0607   54.9446   59.5915 C   0  0  0  0  0  0  0  0  0  0  0  0
  -36.4001   55.4800   59.0406 C   0  0  0  0  0  0  0  0  0  0  0  0
  -36.2660   56.7916   58.2576 C   0  0  0  0  0  0  0  0  0  0  0  0
  -36.9478   58.0126   58.8715 C   0  0  0  0  0  0  0  0  0  0  0  0
  -37.6278   57.7345   60.2265 C   0  0  0  0  0  0  0  0  0  0  0  0
  -38.4001   58.9189   60.8270 C   0  0  0  0  0  0  0  0  0  0  0  0
  -38.9909   59.8049   59.7265 C   0  0  0  0  0  0  0  0  0  0  0  0
  -40.3842   60.3542   59.9771 C   0  0  0  0  0  0  0  0  0  0  0  0
  -39.6978   60.6001   64.3416 C   0  0  0  0  0  0  0  0  0  0  0  0
  -38.7230   61.1971   63.4491 O   0  0  0  0  0  0  0  0  0  0  0  0
  -36.5161   61.8225   61.7415 O   0  0  0  0  0  0  0  0  0  0  0  0
  -35.6189   64.5455   64.7711 O   0  0  0  0  0  0  0  0  0  0  0  0
  -37.3282   62.0897   65.2219 O   0  0  0  0  0  0  0  0  0  0  0  0
  -37.3493   61.4920   63.9029 C   0  0  0  0  0  0  0  0  0  0  0  0
  -36.5245   62.4212   63.0007 C   0  0  0  0  0  0  0  0  0  0  0  0
  -35.0617   62.5974   63.4636 C   0  0  0  0  0  0  0  0  0  0  0  0
  -35.1258   63.2095   64.8357 C   0  0  0  0  0  0  0  0  0  0  0  0
  -35.9964   62.3551   65.7392 C   0  0  0  0  0  0  0  0  0  0  0  0
  -37.4284   61.7036   61.4339 H   0  0  0  0  0  0  0  0  0  0  0  0
  -35.0489   65.0727   64.1897 H   0  0  0  0  0  0  0  0  0  0  0  0
  -36.9535   64.0986   67.0650 O   0  0  0  0  0  0  0  0  0  0  0  0
  -35.9367   63.1423   67.0464 C   0  0  0  0  0  0  0  0  0  0  0  0
  -36.9135   64.5971   67.8961 H   0  0  0  0  0  0  0  0  0  0  0  0
  -34.2463   63.4850   62.6654 O   0  0  0  0  0  0  0  0  0  0  0  0
  -32.4198   61.7318   62.1113 O   0  0  0  0  0  0  0  0  0  0  0  0
  -31.8681   63.6320   63.5162 O   0  0  0  0  0  0  0  0  0  0  0  0
  -32.1409   63.9219   61.1254 O   0  0  0  0  0  0  0  0  0  0  0  0
  -32.6431   63.1924   62.3243 S   0  0  0  0  0  0  0  0  0  0  0  0
  -32.7411   61.2396   62.8829 H   0  0  0  0  0  0  0  0  0  0  0  0
  -32.6410   63.6412   60.3432 H   0  0  0  0  0  0  0  0  0  0  0  0
  2  1  1  0  0  0
  2  4  1  0  0  0
  2  5  1  0  0  0
 41 42  1  0  0  0
 41  1  1  0  0  0
 42 46  1  0  0  0
  1 24  1  0  0  0
 23 24  1  0  0  0
 23 25  1  0  0  0
 24 26  1  0  0  0
  3  4  2  0  0  0
 26 27  2  0  0  0
 27 28  1  0  0  0
 43 47  1  0  0  0
 43 51  1  0  0  0
 28 29  1  0  0  0
 56 48  1  0  0  0
 56 60  1  0  0  0
 29 30  1  0  0  0
 57 60  1  0  0  0
 57 61  1  0  0  0
 30 31  1  0  0  0
 44 49  1  0  0  0
 44 52  1  0  0  0
 31 32  1  0  0  0
 45 46  1  0  0  0
 45 50  1  0  0  0
 32 33  1  0  0  0
 53 54  1  0  0  0
 53 55  1  0  0  0
 33 34  1  0  0  0
 34 35  1  0  0  0
 35 36  1  0  0  0
 58 60  1  0  0  0
 36 37  1  0  0  0
 59 60  1  0  0  0
 59 62  1  0  0  0
 37 38  1  0  0  0
 38 39  1  0  0  0
 39 40  1  0  0  0
  4  6  1  0  0  0
  6  7  1  0  0  0
  7  8  1  0  0  0
  8  9  1  0  0  0
  9 10  1  0  0  0
 10 11  1  0  0  0
 11 12  1  0  0  0
 12 13  1  0  0  0
 13 14  1  0  0  0
 14 15  1  0  0  0
 15 16  1  0  0  0
 16 17  1  0  0  0
 17 18  1  0  0  0
 18 19  1  0  0  0
 19 20  1  0  0  0
 20 21  1  0  0  0
 21 22  1  0  0  0
 46 47  1  0  0  0
 47 48  1  0  0  0
 48 49  1  0  0  0
 49 50  1  0  0  0
 50 54  1  0  0  0
M  CHG 1  58  -1
M  END
> <minimizedAffinity>
-9.90224

> <CNNscore>
0.3370946348

> <CNNaffinity>
7.3095870018

> <CNN_VS>
2.4640226364

> <CNNaffinity_variance>
1.3529510498

$$$$
/media/chris/experiments/cd1a-new-docking/inputs/ligands/1onq_ligand.pdb


 62 62  0  0  0  0  0  0  0  0999 V2000
  -38.5550   59.6472   60.5034 C   0  0  0  0  0  0  0  0  0  0  0  0
  -38.1295   58.8271   59.3864 N   0  0  0  0  0  0  0  0  0  0  0  0
  -37.4355   56.9332   60.4251 O   0  0  0  0  0  0  0  0  0  0  0  0
  -37.6232   57.5869   59.4175 C   0  0  0  0  0  0  0  0  0  0  0  0
  -38.2243   59.2318   58.4939 H   0  0  0  0  0  0  0  0  0  0  0  0
  -37.2861   57.0020   58.0780 C   0  0  0  0  0  0  0  0  0  0  0  0
  -35.9299   57.5847   57.6798 C   0  0  0  0  0  0  0  0  0  0  0  0
  -34.8096   56.6434   58.1156 C   0  0  0  0  0  0  0  0  0  0  0  0
  -33.9454   57.1241   59.2561 C   0  0  0  0  0  0  0  0  0  0  0  0
  -33.9585   56.0427   60.3316 C   0  0  0  0  0  0  0  0  0  0  0  0
  -33.9614   56.6205   61.7532 C   0  0  0  0  0  0  0  0  0  0  0  0
  -34.8179   57.8892   61.9182 C   0  0  0  0  0  0  0  0  0  0  0  0
  -34.4703   58.6866   63.1945 C   0  0  0  0  0  0  0  0  0  0  0  0
  -35.0068   57.9743   64.4393 C   0  0  0  0  0  0  0  0  0  0  0  0
  -36.2854   57.1737   64.2235 C   0  0  0  0  0  0  0  0  0  0  0  0
  -37.5348   57.9927   64.5119 C   0  0  0  0  0  0  0  0  0  0  0  0
  -38.7164   57.7701   63.5651 C   0  0  0  0  0  0  0  0  0  0  0  0
  -39.8599   58.6712   64.0113 C   0  0  0  0  0  0  0  0  0  0  0  0
  -40.5857   58.3409   65.3072 C   0  0  0  0  0  0  0  0  0  0  0  0
  -41.1979   59.6045   65.9320 C   0  0  0  0  0  0  0  0  0  0  0  0
  -42.2295   59.3324   67.0422 C   0  0  0  0  0  0  0  0  0  0  0  0
  -43.5962   58.9117   66.5069 C   0  0  0  0  0  0  0  0  0  0  0  0
  -40.6661   60.4679   61.0186 O   0  0  0  0  0  0  0  0  0  0  0  0
  -39.7582   60.3806   59.9361 C   0  0  0  0  0  0  0  0  0  0  0  0
  -40.2641   60.9805   61.7372 H   0  0  0  0  0  0  0  0  0  0  0  0
  -40.3330   59.5813   58.7644 C   0  0  0  0  0  0  0  0  0  0  0  0
  -41.6260   59.6402   58.4024 C   0  0  0  0  0  0  0  0  0  0  0  0
  -42.1233   58.8100   57.2205 C   0  0  0  0  0  0  0  0  0  0  0  0
  -43.6533   58.7218   57.1228 C   0  0  0  0  0  0  0  0  0  0  0  0
  -44.3789   58.2811   58.4075 C   0  0  0  0  0  0  0  0  0  0  0  0
  -45.8384   57.8682   58.0998 C   0  0  0  0  0  0  0  0  0  0  0  0
  -46.6497   57.3502   59.3143 C   0  0  0  0  0  0  0  0  0  0  0  0
  -47.5752   56.1530   58.9936 C   0  0  0  0  0  0  0  0  0  0  0  0
  -49.0360   56.5616   58.7050 C   0  0  0  0  0  0  0  0  0  0  0  0
  -49.5575   57.6772   59.6188 C   0  0  0  0  0  0  0  0  0  0  0  0
  -50.6848   57.2906   60.5739 C   0  0  0  0  0  0  0  0  0  0  0  0
  -50.5645   57.9250   61.9735 C   0  0  0  0  0  0  0  0  0  0  0  0
  -50.0872   59.3851   61.9917 C   0  0  0  0  0  0  0  0  0  0  0  0
  -50.1912   59.9801   63.3989 C   0  0  0  0  0  0  0  0  0  0  0  0
  -48.9250   59.9581   64.2367 C   0  0  0  0  0  0  0  0  0  0  0  0
  -37.4506   60.5109   61.1539 C   0  0  0  0  0  0  0  0  0  0  0  0
  -37.8244   61.2544   62.3416 O   0  0  0  0  0  0  0  0  0  0  0  0
  -35.7899   63.2275   61.9603 O   0  0  0  0  0  0  0  0  0  0  0  0
  -36.7243   64.1982   65.9079 O   0  0  0  0  0  0  0  0  0  0  0  0
  -37.3073   61.4857   64.7004 O   0  0  0  0  0  0  0  0  0  0  0  0
  -36.8174   61.6475   63.3472 C   0  0  0  0  0  0  0  0  0  0  0  0
  -36.2946   63.0882   63.2526 C   0  0  0  0  0  0  0  0  0  0  0  0
  -35.1609   63.4037   64.2527 C   0  0  0  0  0  0  0  0  0  0  0  0
  -35.7430   63.2038   65.6248 C   0  0  0  0  0  0  0  0  0  0  0  0
  -36.3377   61.8113   65.7327 C   0  0  0  0  0  0  0  0  0  0  0  0
  -36.4896   63.0327   61.3172 H   0  0  0  0  0  0  0  0  0  0  0  0
  -36.3235   65.0784   65.8334 H   0  0  0  0  0  0  0  0  0  0  0  0
  -36.0213   62.5775   67.9746 O   0  0  0  0  0  0  0  0  0  0  0  0
  -36.8700   61.8217   67.1640 C   0  0  0  0  0  0  0  0  0  0  0  0
  -36.3615   62.5825   68.8830 H   0  0  0  0  0  0  0  0  0  0  0  0
  -34.6497   64.7557   64.2262 O   0  0  0  0  0  0  0  0  0  0  0  0
  -33.2082   66.1816   65.8405 O   0  0  0  0  0  0  0  0  0  0  0  0
  -32.4199   65.7637   63.5837 O   0  0  0  0  0  0  0  0  0  0  0  0
  -32.3294   64.0073   65.2514 O   0  0  0  0  0  0  0  0  0  0  0  0
  -33.1234   65.1650   64.7504 S   0  0  0  0  0  0  0  0  0  0  0  0
  -33.7224   66.9441   65.5322 H   0  0  0  0  0  0  0  0  0  0  0  0
  -32.7811   63.6108   66.0127 H   0  0  0  0  0  0  0  0  0  0  0  0
  2  1  1  0  0  0
  2  4  1  0  0  0
  2  5  1  0  0  0
 41 42  1  0  0  0
 41  1  1  0  0  0
 42 46  1  0  0  0
  1 24  1  0  0  0
 23 24  1  0  0  0
 23 25  1  0  0  0
 24 26  1  0  0  0
  3  4  2  0  0  0
 26 27  2  0  0  0
 27 28  1  0  0  0
 43 47  1  0  0  0
 43 51  1  0  0  0
 28 29  1  0  0  0
 56 48  1  0  0  0
 56 60  1  0  0  0
 29 30  1  0  0  0
 57 60  1  0  0  0
 57 61  1  0  0  0
 30 31  1  0  0  0
 44 49  1  0  0  0
 44 52  1  0  0  0
 31 32  1  0  0  0
 45 46  1  0  0  0
 45 50  1  0  0  0
 32 33  1  0  0  0
 53 54  1  0  0  0
 53 55  1  0  0  0
 33 34  1  0  0  0
 34 35  1  0  0  0
 35 36  1  0  0  0
 58 60  1  0  0  0
 36 37  1  0  0  0
 59 60  1  0  0  0
 59 62  1  0  0  0
 37 38  1  0  0  0
 38 39  1  0  0  0
 39 40  1  0  0  0
  4  6  1  0  0  0
  6  7  1  0  0  0
  7  8  1  0  0  0
  8  9  1  0  0  0
  9 10  1  0  0  0
 10 11  1  0  0  0
 11 12  1  0  0  0
 12 13  1  0  0  0
 13 14  1  0  0  0
 14 15  1  0  0  0
 15 16  1  0  0  0
 16 17  1  0  0  0
 17 18  1  0  0  0
 18 19  1  0  0  0
 19 20  1  0  0  0
 20 21  1  0  0  0
 21 22  1  0  0  0
 46 47  1  0  0  0
 47 48  1  0  0  0
 48 49  1  0  0  0
 49 50  1  0  0  0
 50 54  1  0  0  0
M  CHG 1  58  -1
M  END
> <minimizedAffinity>
-8.80349

> <CNNscore>
0.3282785118

> <CNNaffinity>
7.0403909683

> <CNN_VS>
2.3112089634

> <CNNaffinity_variance>
1.0637638569

$$$$
/media/chris/experiments/cd1a-new-docking/inputs/ligands/1onq_ligand.pdb


 62 62  0  0  0  0  0  0  0  0999 V2000
  -37.7375   59.6786   63.5590 C   0  0  0  0  0  0  0  0  0  0  0  0
  -39.0026   59.6251   64.2644 N   0  0  0  0  0  0  0  0  0  0  0  0
  -38.5960   60.9389   66.0689 O   0  0  0  0  0  0  0  0  0  0  0  0
  -39.3335   60.2276   65.4147 C   0  0  0  0  0  0  0  0  0  0  0  0
  -39.7064   59.0780   63.8465 H   0  0  0  0  0  0  0  0  0  0  0  0
  -40.7364   59.9795   65.8840 C   0  0  0  0  0  0  0  0  0  0  0  0
  -41.1328   58.6009   65.3551 C   0  0  0  0  0  0  0  0  0  0  0  0
  -41.9694   57.8632   66.3977 C   0  0  0  0  0  0  0  0  0  0  0  0
  -43.2610   57.2576   65.9042 C   0  0  0  0  0  0  0  0  0  0  0  0
  -43.9167   58.2691   64.9699 C   0  0  0  0  0  0  0  0  0  0  0  0
  -44.9806   59.1228   65.6730 C   0  0  0  0  0  0  0  0  0  0  0  0
  -45.1915   58.7736   67.1576 C   0  0  0  0  0  0  0  0  0  0  0  0
  -46.5644   58.1213   67.4318 C   0  0  0  0  0  0  0  0  0  0  0  0
  -46.5548   56.6475   67.0161 C   0  0  0  0  0  0  0  0  0  0  0  0
  -47.7446   56.2078   66.1716 C   0  0  0  0  0  0  0  0  0  0  0  0
  -48.3000   57.3415   65.3223 C   0  0  0  0  0  0  0  0  0  0  0  0
  -49.6450   57.9185   65.7699 C   0  0  0  0  0  0  0  0  0  0  0  0
  -50.5221   58.0920   64.5373 C   0  0  0  0  0  0  0  0  0  0  0  0
  -50.7304   59.4932   63.9819 C   0  0  0  0  0  0  0  0  0  0  0  0
  -49.5070   59.9513   63.1723 C   0  0  0  0  0  0  0  0  0  0  0  0
  -48.7303   61.1245   63.7976 C   0  0  0  0  0  0  0  0  0  0  0  0
  -47.7722   60.6925   64.9053 C   0  0  0  0  0  0  0  0  0  0  0  0
  -36.8178   58.9057   61.5709 O   0  0  0  0  0  0  0  0  0  0  0  0
  -37.9972   58.8009   62.3466 C   0  0  0  0  0  0  0  0  0  0  0  0
  -36.0648   58.5669   62.0800 H   0  0  0  0  0  0  0  0  0  0  0  0
  -39.2273   59.3205   61.5989 C   0  0  0  0  0  0  0  0  0  0  0  0
  -39.1576   59.8980   60.3873 C   0  0  0  0  0  0  0  0  0  0  0  0
  -40.4324   60.3922   59.7061 C   0  0  0  0  0  0  0  0  0  0  0  0
  -40.8536   59.5525   58.4913 C   0  0  0  0  0  0  0  0  0  0  0  0
  -42.3265   59.6909   58.0639 C   0  0  0  0  0  0  0  0  0  0  0  0
  -42.6322   58.7861   56.8460 C   0  0  0  0  0  0  0  0  0  0  0  0
  -43.9120   57.9208   56.9691 C   0  0  0  0  0  0  0  0  0  0  0  0
  -44.8059   58.2806   58.1791 C   0  0  0  0  0  0  0  0  0  0  0  0
  -46.3173   58.1558   57.8890 C   0  0  0  0  0  0  0  0  0  0  0  0
  -46.7820   56.7155   57.6418 C   0  0  0  0  0  0  0  0  0  0  0  0
  -48.1981   56.5518   57.0936 C   0  0  0  0  0  0  0  0  0  0  0  0
  -49.3052   56.7845   58.1404 C   0  0  0  0  0  0  0  0  0  0  0  0
  -49.0131   56.2202   59.5390 C   0  0  0  0  0  0  0  0  0  0  0  0
  -49.4397   57.2065   60.6301 C   0  0  0  0  0  0  0  0  0  0  0  0
  -50.9278   57.2900   60.9205 C   0  0  0  0  0  0  0  0  0  0  0  0
  -36.4879   59.3500   64.4072 C   0  0  0  0  0  0  0  0  0  0  0  0
  -35.2237   59.8761   63.9296 O   0  0  0  0  0  0  0  0  0  0  0  0
  -32.8088   61.1343   63.0561 O   0  0  0  0  0  0  0  0  0  0  0  0
  -34.8704   64.6141   64.0757 O   0  0  0  0  0  0  0  0  0  0  0  0
  -35.5579   61.9004   65.2241 O   0  0  0  0  0  0  0  0  0  0  0  0
  -34.5888   61.0440   64.5723 C   0  0  0  0  0  0  0  0  0  0  0  0
  -33.7643   61.9561   63.6526 C   0  0  0  0  0  0  0  0  0  0  0  0
  -33.0298   63.0904   64.4002 C   0  0  0  0  0  0  0  0  0  0  0  0
  -34.0975   63.9233   65.0542 C   0  0  0  0  0  0  0  0  0  0  0  0
  -34.9814   63.0405   65.9166 C   0  0  0  0  0  0  0  0  0  0  0  0
  -33.2528   60.4145   62.5808 H   0  0  0  0  0  0  0  0  0  0  0  0
  -34.2868   65.1710   63.5370 H   0  0  0  0  0  0  0  0  0  0  0  0
  -36.5038   63.5966   67.6734 O   0  0  0  0  0  0  0  0  0  0  0  0
  -35.9793   64.0582   66.4649 C   0  0  0  0  0  0  0  0  0  0  0  0
  -37.1372   64.2446   68.0195 H   0  0  0  0  0  0  0  0  0  0  0  0
  -32.2598   63.9971   63.5786 O   0  0  0  0  0  0  0  0  0  0  0  0
  -31.3508   62.8117   61.4607 O   0  0  0  0  0  0  0  0  0  0  0  0
  -31.6693   65.2173   61.4424 O   0  0  0  0  0  0  0  0  0  0  0  0
  -33.5805   63.7335   61.3024 O   0  0  0  0  0  0  0  0  0  0  0  0
  -32.2354   63.9250   61.9154 S   0  0  0  0  0  0  0  0  0  0  0  0
  -30.4691   62.9196   61.8503 H   0  0  0  0  0  0  0  0  0  0  0  0
  -33.9572   62.8926   61.6056 H   0  0  0  0  0  0  0  0  0  0  0  0
  2  1  1  0  0  0
  2  4  1  0  0  0
  2  5  1  0  0  0
 41 42  1  0  0  0
 41  1  1  0  0  0
 42 46  1  0  0  0
  1 24  1  0  0  0
 23 24  1  0  0  0
 23 25  1  0  0  0
 24 26  1  0  0  0
  3  4  2  0  0  0
 26 27  2  0  0  0
 27 28  1  0  0  0
 43 47  1  0  0  0
 43 51  1  0  0  0
 28 29  1  0  0  0
 56 48  1  0  0  0
 56 60  1  0  0  0
 29 30  1  0  0  0
 57 60  1  0  0  0
 57 61  1  0  0  0
 30 31  1  0  0  0
 44 49  1  0  0  0
 44 52  1  0  0  0
 31 32  1  0  0  0
 45 46  1  0  0  0
 45 50  1  0  0  0
 32 33  1  0  0  0
 53 54  1  0  0  0
 53 55  1  0  0  0
 33 34  1  0  0  0
 34 35  1  0  0  0
 35 36  1  0  0  0
 58 60  1  0  0  0
 36 37  1  0  0  0
 59 60  1  0  0  0
 59 62  1  0  0  0
 37 38  1  0  0  0
 38 39  1  0  0  0
 39 40  1  0  0  0
  4  6  1  0  0  0
  6  7  1  0  0  0
  7  8  1  0  0  0
  8  9  1  0  0  0
  9 10  1  0  0  0
 10 11  1  0  0  0
 11 12  1  0  0  0
 12 13  1  0  0  0
 13 14  1  0  0  0
 14 15  1  0  0  0
 15 16  1  0  0  0
 16 17  1  0  0  0
 17 18  1  0  0  0
 18 19  1  0  0  0
 19 20  1  0  0  0
 20 21  1  0  0  0
 21 22  1  0  0  0
 46 47  1  0  0  0
 47 48  1  0  0  0
 48 49  1  0  0  0
 49 50  1  0  0  0
 50 54  1  0  0  0
M  CHG 1  58  -1
M  END
> <minimizedAffinity>
-8.73730

> <CNNscore>
0.3196352720

> <CNNaffinity>
7.0013837814

> <CNN_VS>
2.2378892899

> <CNNaffinity_variance>
0.5142050982

$$$$
/media/chris/experiments/cd1a-new-docking/inputs/ligands/1onq_ligand.pdb


 62 62  0  0  0  0  0  0  0  0999 V2000
  -40.0673   58.8581   64.6881 C   0  0  0  0  0  0  0  0  0  0  0  0
  -41.1054   58.3194   65.5443 N   0  0  0  0  0  0  0  0  0  0  0  0
  -42.9034   59.5722   64.9566 O   0  0  0  0  0  0  0  0  0  0  0  0
  -42.3904   58.6919   65.6197 C   0  0  0  0  0  0  0  0  0  0  0  0
  -40.8325   57.5890   66.1453 H   0  0  0  0  0  0  0  0  0  0  0  0
  -43.2192   57.9266   66.6083 C   0  0  0  0  0  0  0  0  0  0  0  0
  -43.7978   56.7294   65.8539 C   0  0  0  0  0  0  0  0  0  0  0  0
  -45.2787   56.9617   65.5642 C   0  0  0  0  0  0  0  0  0  0  0  0
  -46.1894   57.0161   66.7668 C   0  0  0  0  0  0  0  0  0  0  0  0
  -46.7431   58.4340   66.8617 C   0  0  0  0  0  0  0  0  0  0  0  0
  -46.8130   59.1357   65.4987 C   0  0  0  0  0  0  0  0  0  0  0  0
  -48.2405   59.4867   65.0409 C   0  0  0  0  0  0  0  0  0  0  0  0
  -49.3293   58.7500   65.8516 C   0  0  0  0  0  0  0  0  0  0  0  0
  -50.5653   58.4913   64.9854 C   0  0  0  0  0  0  0  0  0  0  0  0
  -50.9615   59.6411   64.0671 C   0  0  0  0  0  0  0  0  0  0  0  0
  -51.0955   59.2014   62.6166 C   0  0  0  0  0  0  0  0  0  0  0  0
  -50.3633   57.9126   62.2357 C   0  0  0  0  0  0  0  0  0  0  0  0
  -51.0000   57.3609   60.9672 C   0  0  0  0  0  0  0  0  0  0  0  0
  -50.3174   57.6267   59.6336 C   0  0  0  0  0  0  0  0  0  0  0  0
  -49.0733   56.7401   59.4662 C   0  0  0  0  0  0  0  0  0  0  0  0
  -47.7342   57.4937   59.5650 C   0  0  0  0  0  0  0  0  0  0  0  0
  -46.9396   57.4868   58.2612 C   0  0  0  0  0  0  0  0  0  0  0  0
  -37.9998   57.9130   65.1651 O   0  0  0  0  0  0  0  0  0  0  0  0
  -39.1843   57.6479   64.4369 C   0  0  0  0  0  0  0  0  0  0  0  0
  -38.2106   57.9892   66.1089 H   0  0  0  0  0  0  0  0  0  0  0  0
  -38.9206   57.5157   62.9352 C   0  0  0  0  0  0  0  0  0  0  0  0
  -37.7422   57.1102   62.4318 C   0  0  0  0  0  0  0  0  0  0  0  0
  -37.5574   57.0048   60.9192 C   0  0  0  0  0  0  0  0  0  0  0  0
  -37.9775   58.2670   60.1522 C   0  0  0  0  0  0  0  0  0  0  0  0
  -37.1121   58.6227   58.9291 C   0  0  0  0  0  0  0  0  0  0  0  0
  -37.2593   57.5511   57.8220 C   0  0  0  0  0  0  0  0  0  0  0  0
  -36.1696   56.4491   57.8186 C   0  0  0  0  0  0  0  0  0  0  0  0
  -34.7384   56.9727   58.0837 C   0  0  0  0  0  0  0  0  0  0  0  0
  -33.8899   56.0312   58.9655 C   0  0  0  0  0  0  0  0  0  0  0  0
  -34.2404   56.0989   60.4568 C   0  0  0  0  0  0  0  0  0  0  0  0
  -33.0588   56.1766   61.4213 C   0  0  0  0  0  0  0  0  0  0  0  0
  -33.0159   57.4720   62.2555 C   0  0  0  0  0  0  0  0  0  0  0  0
  -34.2588   58.3673   62.1391 C   0  0  0  0  0  0  0  0  0  0  0  0
  -34.6535   58.9404   63.5033 C   0  0  0  0  0  0  0  0  0  0  0  0
  -34.4462   58.0325   64.7026 C   0  0  0  0  0  0  0  0  0  0  0  0
  -39.3723   60.1369   65.2083 C   0  0  0  0  0  0  0  0  0  0  0  0
  -38.6450   60.9229   64.2304 O   0  0  0  0  0  0  0  0  0  0  0  0
  -36.6777   61.5756   62.2603 O   0  0  0  0  0  0  0  0  0  0  0  0
  -35.9039   64.7576   64.8438 O   0  0  0  0  0  0  0  0  0  0  0  0
  -37.2421   62.1976   65.7444 O   0  0  0  0  0  0  0  0  0  0  0  0
  -37.2894   61.4344   64.5144 C   0  0  0  0  0  0  0  0  0  0  0  0
  -36.6644   62.3284   63.4338 C   0  0  0  0  0  0  0  0  0  0  0  0
  -35.2047   62.7348   63.7328 C   0  0  0  0  0  0  0  0  0  0  0  0
  -35.2394   63.5091   65.0215 C   0  0  0  0  0  0  0  0  0  0  0  0
  -35.9192   62.6834   66.0987 C   0  0  0  0  0  0  0  0  0  0  0  0
  -37.5884   61.3109   62.0563 H   0  0  0  0  0  0  0  0  0  0  0  0
  -35.4539   65.2679   64.1524 H   0  0  0  0  0  0  0  0  0  0  0  0
  -34.5396   64.0397   67.5025 O   0  0  0  0  0  0  0  0  0  0  0  0
  -35.8591   63.6361   67.2907 C   0  0  0  0  0  0  0  0  0  0  0  0
  -34.5041   64.6446   68.2599 H   0  0  0  0  0  0  0  0  0  0  0  0
  -34.5754   63.6004   62.7608 O   0  0  0  0  0  0  0  0  0  0  0  0
  -32.3962   63.8433   61.3792 O   0  0  0  0  0  0  0  0  0  0  0  0
  -32.2965   62.9139   63.6187 O   0  0  0  0  0  0  0  0  0  0  0  0
  -32.6178   65.2950   63.3001 O   0  0  0  0  0  0  0  0  0  0  0  0
  -32.9463   63.9438   62.7634 S   0  0  0  0  0  0  0  0  0  0  0  0
  -32.6006   62.9688   61.0127 H   0  0  0  0  0  0  0  0  0  0  0  0
  -33.0377   65.9730   62.7480 H   0  0  0  0  0  0  0  0  0  0  0  0
  2  1  1  0  0  0
  2  4  1  0  0  0
  2  5  1  0  0  0
 41 42  1  0  0  0
 41  1  1  0  0  0
 42 46  1  0  0  0
  1 24  1  0  0  0
 23 24  1  0  0  0
 23 25  1  0  0  0
 24 26  1  0  0  0
  3  4  2  0  0  0
 26 27  2  0  0  0
 27 28  1  0  0  0
 43 47  1  0  0  0
 43 51  1  0  0  0
 28 29  1  0  0  0
 56 48  1  0  0  0
 56 60  1  0  0  0
 29 30  1  0  0  0
 57 60  1  0  0  0
 57 61  1  0  0  0
 30 31  1  0  0  0
 44 49  1  0  0  0
 44 52  1  0  0  0
 31 32  1  0  0  0
 45 46  1  0  0  0
 45 50  1  0  0  0
 32 33  1  0  0  0
 53 54  1  0  0  0
 53 55  1  0  0  0
 33 34  1  0  0  0
 34 35  1  0  0  0
 35 36  1  0  0  0
 58 60  1  0  0  0
 36 37  1  0  0  0
 59 60  1  0  0  0
 59 62  1  0  0  0
 37 38  1  0  0  0
 38 39  1  0  0  0
 39 40  1  0  0  0
  4  6  1  0  0  0
  6  7  1  0  0  0
  7  8  1  0  0  0
  8  9  1  0  0  0
  9 10  1  0  0  0
 10 11  1  0  0  0
 11 12  1  0  0  0
 12 13  1  0  0  0
 13 14  1  0  0  0
 14 15  1  0  0  0
 15 16  1  0  0  0
 16 17  1  0  0  0
 17 18  1  0  0  0
 18 19  1  0  0  0
 19 20  1  0  0  0
 20 21  1  0  0  0
 21 22  1  0  0  0
 46 47  1  0  0  0
 47 48  1  0  0  0
 48 49  1  0  0  0
 49 50  1  0  0  0
 50 54  1  0  0  0
M  CHG 1  58  -1
M  END
> <minimizedAffinity>
-10.36916

> <CNNscore>
0.3192540407

> <CNNaffinity>
7.0198593140

> <CNN_VS>
2.2411184311

> <CNNaffinity_variance>
1.5647580624

$$$$
/media/chris/experiments/cd1a-new-docking/inputs/ligands/1onq_ligand.pdb


 62 62  0  0  0  0  0  0  0  0999 V2000
  -35.2863   58.2560   62.7274 C   0  0  0  0  0  0  0  0  0  0  0  0
  -36.3049   58.9138   61.9331 N   0  0  0  0  0  0  0  0  0  0  0  0
  -36.6693   57.4015   60.2815 O   0  0  0  0  0  0  0  0  0  0  0  0
  -36.9001   58.4673   60.8187 C   0  0  0  0  0  0  0  0  0  0  0  0
  -36.5954   59.7987   62.2520 H   0  0  0  0  0  0  0  0  0  0  0  0
  -37.9290   59.3881   60.2326 C   0  0  0  0  0  0  0  0  0  0  0  0
  -39.1421   59.3293   61.1611 C   0  0  0  0  0  0  0  0  0  0  0  0
  -40.2428   60.2501   60.6400 C   0  0  0  0  0  0  0  0  0  0  0  0
  -40.4291   60.2797   59.1423 C   0  0  0  0  0  0  0  0  0  0  0  0
  -41.7164   59.5267   58.8232 C   0  0  0  0  0  0  0  0  0  0  0  0
  -42.0078   59.4619   57.3179 C   0  0  0  0  0  0  0  0  0  0  0  0
  -43.2045   58.5684   56.9435 C   0  0  0  0  0  0  0  0  0  0  0  0
  -44.1650   58.3239   58.1280 C   0  0  0  0  0  0  0  0  0  0  0  0
  -45.3954   57.5347   57.6716 C   0  0  0  0  0  0  0  0  0  0  0  0
  -46.7355   58.1536   58.0502 C   0  0  0  0  0  0  0  0  0  0  0  0
  -47.8780   57.1522   57.9662 C   0  0  0  0  0  0  0  0  0  0  0  0
  -47.8014   55.9644   58.9282 C   0  0  0  0  0  0  0  0  0  0  0  0
  -49.0650   55.9583   59.7780 C   0  0  0  0  0  0  0  0  0  0  0  0
  -50.0556   57.1024   59.6203 C   0  0  0  0  0  0  0  0  0  0  0  0
  -50.7810   57.3882   60.9447 C   0  0  0  0  0  0  0  0  0  0  0  0
  -49.9302   58.1306   61.9915 C   0  0  0  0  0  0  0  0  0  0  0  0
  -49.8289   59.6320   61.7326 C   0  0  0  0  0  0  0  0  0  0  0  0
  -35.6520   56.7863   64.4887 O   0  0  0  0  0  0  0  0  0  0  0  0
  -35.9663   58.1037   64.0772 C   0  0  0  0  0  0  0  0  0  0  0  0
  -34.6906   56.6972   64.5812 H   0  0  0  0  0  0  0  0  0  0  0  0
  -37.4735   58.3121   63.9119 C   0  0  0  0  0  0  0  0  0  0  0  0
  -38.3818   57.7830   64.7494 C   0  0  0  0  0  0  0  0  0  0  0  0
  -39.8699   58.0367   64.5159 C   0  0  0  0  0  0  0  0  0  0  0  0
  -40.4260   59.2367   65.2962 C   0  0  0  0  0  0  0  0  0  0  0  0
  -41.9265   59.5216   65.1004 C   0  0  0  0  0  0  0  0  0  0  0  0
  -42.6742   59.4828   66.4550 C   0  0  0  0  0  0  0  0  0  0  0  0
  -42.8529   58.0725   67.0722 C   0  0  0  0  0  0  0  0  0  0  0  0
  -43.1402   56.9598   66.0368 C   0  0  0  0  0  0  0  0  0  0  0  0
  -44.6302   56.8483   65.6474 C   0  0  0  0  0  0  0  0  0  0  0  0
  -45.4897   58.0129   66.1537 C   0  0  0  0  0  0  0  0  0  0  0  0
  -46.3665   58.7030   65.1108 C   0  0  0  0  0  0  0  0  0  0  0  0
  -47.8104   58.9658   65.5820 C   0  0  0  0  0  0  0  0  0  0  0  0
  -48.6106   57.7133   65.9704 C   0  0  0  0  0  0  0  0  0  0  0  0
  -50.1006   57.8971   65.6684 C   0  0  0  0  0  0  0  0  0  0  0  0
  -50.5719   59.3219   65.4370 C   0  0  0  0  0  0  0  0  0  0  0  0
  -33.8950   58.9290   62.7157 C   0  0  0  0  0  0  0  0  0  0  0  0
  -33.8752   60.3776   62.7822 O   0  0  0  0  0  0  0  0  0  0  0  0
  -31.9544   62.4031   63.4030 O   0  0  0  0  0  0  0  0  0  0  0  0
  -35.1978   64.1411   65.3671 O   0  0  0  0  0  0  0  0  0  0  0  0
  -35.0432   61.1829   64.7501 O   0  0  0  0  0  0  0  0  0  0  0  0
  -33.7660   61.0832   64.0746 C   0  0  0  0  0  0  0  0  0  0  0  0
  -33.2002   62.5095   64.0200 C   0  0  0  0  0  0  0  0  0  0  0  0
  -32.9995   63.1510   65.4105 C   0  0  0  0  0  0  0  0  0  0  0  0
  -34.3606   63.2091   66.0471 C   0  0  0  0  0  0  0  0  0  0  0  0
  -34.9849   61.8254   66.0522 C   0  0  0  0  0  0  0  0  0  0  0  0
  -32.0610   62.0014   62.5265 H   0  0  0  0  0  0  0  0  0  0  0  0
  -34.7806   65.0168   65.3758 H   0  0  0  0  0  0  0  0  0  0  0  0
  -36.1304   62.7865   67.9170 O   0  0  0  0  0  0  0  0  0  0  0  0
  -36.3318   62.1055   66.7151 C   0  0  0  0  0  0  0  0  0  0  0  0
  -36.9872   62.9631   68.3361 H   0  0  0  0  0  0  0  0  0  0  0  0
  -32.4946   64.5056   65.4173 O   0  0  0  0  0  0  0  0  0  0  0  0
  -33.1185   64.9489   62.9412 O   0  0  0  0  0  0  0  0  0  0  0  0
  -31.6947   66.5232   64.1173 O   0  0  0  0  0  0  0  0  0  0  0  0
  -34.0736   66.4532   64.5756 O   0  0  0  0  0  0  0  0  0  0  0  0
  -32.8762   65.6281   64.2484 S   0  0  0  0  0  0  0  0  0  0  0  0
  -32.3482   64.4061   62.7112 H   0  0  0  0  0  0  0  0  0  0  0  0
  -34.8491   65.8771   64.6630 H   0  0  0  0  0  0  0  0  0  0  0  0
  2  1  1  0  0  0
  2  4  1  0  0  0
  2  5  1  0  0  0
 41 42  1  0  0  0
 41  1  1  0  0  0
 42 46  1  0  0  0
  1 24  1  0  0  0
 23 24  1  0  0  0
 23 25  1  0  0  0
 24 26  1  0  0  0
  3  4  2  0  0  0
 26 27  2  0  0  0
 27 28  1  0  0  0
 43 47  1  0  0  0
 43 51  1  0  0  0
 28 29  1  0  0  0
 56 48  1  0  0  0
 56 60  1  0  0  0
 29 30  1  0  0  0
 57 60  1  0  0  0
 57 61  1  0  0  0
 30 31  1  0  0  0
 44 49  1  0  0  0
 44 52  1  0  0  0
 31 32  1  0  0  0
 45 46  1  0  0  0
 45 50  1  0  0  0
 32 33  1  0  0  0
 53 54  1  0  0  0
 53 55  1  0  0  0
 33 34  1  0  0  0
 34 35  1  0  0  0
 35 36  1  0  0  0
 58 60  1  0  0  0
 36 37  1  0  0  0
 59 60  1  0  0  0
 59 62  1  0  0  0
 37 38  1  0  0  0
 38 39  1  0  0  0
 39 40  1  0  0  0
  4  6  1  0  0  0
  6  7  1  0  0  0
  7  8  1  0  0  0
  8  9  1  0  0  0
  9 10  1  0  0  0
 10 11  1  0  0  0
 11 12  1  0  0  0
 12 13  1  0  0  0
 13 14  1  0  0  0
 14 15  1  0  0  0
 15 16  1  0  0  0
 16 17  1  0  0  0
 17 18  1  0  0  0
 18 19  1  0  0  0
 19 20  1  0  0  0
 20 21  1  0  0  0
 21 22  1  0  0  0
 46 47  1  0  0  0
 47 48  1  0  0  0
 48 49  1  0  0  0
 49 50  1  0  0  0
 50 54  1  0  0  0
M  CHG 1  58  -1
M  END
> <minimizedAffinity>
-8.89171

> <CNNscore>
0.3046537340

> <CNNaffinity>
6.9686446190

> <CNN_VS>
2.1230235100

> <CNNaffinity_variance>
1.0856447220

$$$$
/media/chris/experiments/cd1a-new-docking/inputs/ligands/1onq_ligand.pdb


 62 62  0  0  0  0  0  0  0  0999 V2000
  -39.0920   59.4135   64.9960 C   0  0  0  0  0  0  0  0  0  0  0  0
  -40.2547   59.1018   65.8036 N   0  0  0  0  0  0  0  0  0  0  0  0
  -41.1982   61.1456   66.0864 O   0  0  0  0  0  0  0  0  0  0  0  0
  -41.1850   59.9444   66.2727 C   0  0  0  0  0  0  0  0  0  0  0  0
  -40.3759   58.1529   66.0365 H   0  0  0  0  0  0  0  0  0  0  0  0
  -42.2774   59.3046   67.0771 C   0  0  0  0  0  0  0  0  0  0  0  0
  -43.3668   58.8999   66.0838 C   0  0  0  0  0  0  0  0  0  0  0  0
  -43.5780   57.3885   66.1285 C   0  0  0  0  0  0  0  0  0  0  0  0
  -44.8790   56.8831   65.5536 C   0  0  0  0  0  0  0  0  0  0  0  0
  -45.2802   57.8254   64.4235 C   0  0  0  0  0  0  0  0  0  0  0  0
  -46.7584   58.2325   64.4875 C   0  0  0  0  0  0  0  0  0  0  0  0
  -47.0253   59.5206   65.2874 C   0  0  0  0  0  0  0  0  0  0  0  0
  -48.2857   59.4260   66.1750 C   0  0  0  0  0  0  0  0  0  0  0  0
  -49.0370   58.1185   65.9085 C   0  0  0  0  0  0  0  0  0  0  0  0
  -50.5036   58.2832   65.5287 C   0  0  0  0  0  0  0  0  0  0  0  0
  -50.7393   59.5047   64.6527 C   0  0  0  0  0  0  0  0  0  0  0  0
  -51.1383   59.2233   63.2022 C   0  0  0  0  0  0  0  0  0  0  0  0
  -49.8765   59.2393   62.3500 C   0  0  0  0  0  0  0  0  0  0  0  0
  -49.3032   57.9138   61.8709 C   0  0  0  0  0  0  0  0  0  0  0  0
  -49.3210   57.8295   60.3365 C   0  0  0  0  0  0  0  0  0  0  0  0
  -47.9808   57.4111   59.7043 C   0  0  0  0  0  0  0  0  0  0  0  0
  -48.0584   56.0893   58.9438 C   0  0  0  0  0  0  0  0  0  0  0  0
  -37.7005   57.7015   64.2691 O   0  0  0  0  0  0  0  0  0  0  0  0
  -39.0038   58.2153   64.0665 C   0  0  0  0  0  0  0  0  0  0  0  0
  -37.6031   57.4222   65.1929 H   0  0  0  0  0  0  0  0  0  0  0  0
  -39.2243   58.6757   62.6237 C   0  0  0  0  0  0  0  0  0  0  0  0
  -39.9138   59.7849   62.3066 C   0  0  0  0  0  0  0  0  0  0  0  0
  -40.0910   60.1771   60.8410 C   0  0  0  0  0  0  0  0  0  0  0  0
  -38.7784   60.2162   60.0449 C   0  0  0  0  0  0  0  0  0  0  0  0
  -38.6007   59.1016   58.9974 C   0  0  0  0  0  0  0  0  0  0  0  0
  -37.3156   58.2855   59.2765 C   0  0  0  0  0  0  0  0  0  0  0  0
  -36.5254   57.8444   58.0184 C   0  0  0  0  0  0  0  0  0  0  0  0
  -36.3099   56.3166   57.9092 C   0  0  0  0  0  0  0  0  0  0  0  0
  -36.2844   55.5972   59.2752 C   0  0  0  0  0  0  0  0  0  0  0  0
  -34.8809   55.1716   59.7231 C   0  0  0  0  0  0  0  0  0  0  0  0
  -33.9319   56.3003   60.1204 C   0  0  0  0  0  0  0  0  0  0  0  0
  -33.9685   56.6496   61.6212 C   0  0  0  0  0  0  0  0  0  0  0  0
  -32.6681   57.2390   62.1883 C   0  0  0  0  0  0  0  0  0  0  0  0
  -32.7552   58.7643   62.2924 C   0  0  0  0  0  0  0  0  0  0  0  0
  -31.5525   59.5450   61.7926 C   0  0  0  0  0  0  0  0  0  0  0  0
  -37.8149   59.7852   65.7833 C   0  0  0  0  0  0  0  0  0  0  0  0
  -37.8075   61.0827   66.4312 O   0  0  0  0  0  0  0  0  0  0  0  0
  -35.9639   62.7721   67.8185 O   0  0  0  0  0  0  0  0  0  0  0  0
  -33.8818   62.5817   64.2092 O   0  0  0  0  0  0  0  0  0  0  0  0
  -36.8532   62.0517   64.4223 O   0  0  0  0  0  0  0  0  0  0  0  0
  -37.0893   62.2293   65.8401 C   0  0  0  0  0  0  0  0  0  0  0  0
  -35.7254   62.5650   66.4604 C   0  0  0  0  0  0  0  0  0  0  0  0
  -35.0778   63.8418   65.8814 C   0  0  0  0  0  0  0  0  0  0  0  0
  -34.8759   63.5826   64.4140 C   0  0  0  0  0  0  0  0  0  0  0  0
  -36.1927   63.1746   63.7785 C   0  0  0  0  0  0  0  0  0  0  0  0
  -36.3714   61.9787   68.1999 H   0  0  0  0  0  0  0  0  0  0  0  0
  -33.0504   62.8624   64.6225 H   0  0  0  0  0  0  0  0  0  0  0  0
  -34.7543   63.8501   61.9930 O   0  0  0  0  0  0  0  0  0  0  0  0
  -35.7708   62.9537   62.3276 C   0  0  0  0  0  0  0  0  0  0  0  0
  -34.4881   63.7078   61.0711 H   0  0  0  0  0  0  0  0  0  0  0  0
  -33.7782   64.1899   66.4105 O   0  0  0  0  0  0  0  0  0  0  0  0
  -31.6886   64.9497   65.0790 O   0  0  0  0  0  0  0  0  0  0  0  0
  -32.3914   66.2141   67.0274 O   0  0  0  0  0  0  0  0  0  0  0  0
  -33.6268   66.3894   64.9496 O   0  0  0  0  0  0  0  0  0  0  0  0
  -32.8693   65.4611   65.8362 S   0  0  0  0  0  0  0  0  0  0  0  0
  -31.1822   64.3426   65.6411 H   0  0  0  0  0  0  0  0  0  0  0  0
  -33.9422   65.9064   64.1698 H   0  0  0  0  0  0  0  0  0  0  0  0
  2  1  1  0  0  0
  2  4  1  0  0  0
  2  5  1  0  0  0
 41 42  1  0  0  0
 41  1  1  0  0  0
 42 46  1  0  0  0
  1 24  1  0  0  0
 23 24  1  0  0  0
 23 25  1  0  0  0
 24 26  1  0  0  0
  3  4  2  0  0  0
 26 27  2  0  0  0
 27 28  1  0  0  0
 43 47  1  0  0  0
 43 51  1  0  0  0
 28 29  1  0  0  0
 56 48  1  0  0  0
 56 60  1  0  0  0
 29 30  1  0  0  0
 57 60  1  0  0  0
 57 61  1  0  0  0
 30 31  1  0  0  0
 44 49  1  0  0  0
 44 52  1  0  0  0
 31 32  1  0  0  0
 45 46  1  0  0  0
 45 50  1  0  0  0
 32 33  1  0  0  0
 53 54  1  0  0  0
 53 55  1  0  0  0
 33 34  1  0  0  0
 34 35  1  0  0  0
 35 36  1  0  0  0
 58 60  1  0  0  0
 36 37  1  0  0  0
 59 60  1  0  0  0
 59 62  1  0  0  0
 37 38  1  0  0  0
 38 39  1  0  0  0
 39 40  1  0  0  0
  4  6  1  0  0  0
  6  7  1  0  0  0
  7  8  1  0  0  0
  8  9  1  0  0  0
  9 10  1  0  0  0
 10 11  1  0  0  0
 11 12  1  0  0  0
 12 13  1  0  0  0
 13 14  1  0  0  0
 14 15  1  0  0  0
 15 16  1  0  0  0
 16 17  1  0  0  0
 17 18  1  0  0  0
 18 19  1  0  0  0
 19 20  1  0  0  0
 20 21  1  0  0  0
 21 22  1  0  0  0
 46 47  1  0  0  0
 47 48  1  0  0  0
 48 49  1  0  0  0
 49 50  1  0  0  0
 50 54  1  0  0  0
M  CHG 1  58  -1
M  END
> <minimizedAffinity>
-9.71775

> <CNNscore>
0.2563561201

> <CNNaffinity>
7.0642738342

> <CNN_VS>
1.8109698296

> <CNNaffinity_variance>
1.5276341438

$$$$
/media/chris/experiments/cd1a-new-docking/inputs/ligands/1onq_ligand.pdb


 62 62  0  0  0  0  0  0  0  0999 V2000
  -39.9843   59.1453   64.7022 C   0  0  0  0  0  0  0  0  0  0  0  0
  -39.9963   59.1464   63.2527 N   0  0  0  0  0  0  0  0  0  0  0  0
  -40.6575   61.2658   62.7851 O   0  0  0  0  0  0  0  0  0  0  0  0
  -40.3157   60.1546   62.4298 C   0  0  0  0  0  0  0  0  0  0  0  0
  -39.7377   58.3014   62.8189 H   0  0  0  0  0  0  0  0  0  0  0  0
  -40.2201   59.8382   60.9667 C   0  0  0  0  0  0  0  0  0  0  0  0
  -38.8029   60.2143   60.5338 C   0  0  0  0  0  0  0  0  0  0  0  0
  -38.2769   59.1935   59.5276 C   0  0  0  0  0  0  0  0  0  0  0  0
  -37.0447   58.4268   59.9429 C   0  0  0  0  0  0  0  0  0  0  0  0
  -37.4934   57.0377   60.3844 C   0  0  0  0  0  0  0  0  0  0  0  0
  -37.6297   56.9149   61.9080 C   0  0  0  0  0  0  0  0  0  0  0  0
  -36.7381   57.8865   62.7027 C   0  0  0  0  0  0  0  0  0  0  0  0
  -36.2902   57.3128   64.0649 C   0  0  0  0  0  0  0  0  0  0  0  0
  -35.1807   58.1740   64.6752 C   0  0  0  0  0  0  0  0  0  0  0  0
  -34.2660   58.8575   63.6660 C   0  0  0  0  0  0  0  0  0  0  0  0
  -33.0064   58.0501   63.3892 C   0  0  0  0  0  0  0  0  0  0  0  0
  -32.4498   58.1416   61.9665 C   0  0  0  0  0  0  0  0  0  0  0  0
  -33.4951   57.5840   61.0099 C   0  0  0  0  0  0  0  0  0  0  0  0
  -33.9033   56.1245   61.1458 C   0  0  0  0  0  0  0  0  0  0  0  0
  -34.3472   55.5493   59.7915 C   0  0  0  0  0  0  0  0  0  0  0  0
  -33.6850   56.2108   58.5689 C   0  0  0  0  0  0  0  0  0  0  0  0
  -34.6537   57.0472   57.7361 C   0  0  0  0  0  0  0  0  0  0  0  0
  -40.9123   60.8867   65.9277 O   0  0  0  0  0  0  0  0  0  0  0  0
  -41.2878   59.8463   65.0445 C   0  0  0  0  0  0  0  0  0  0  0  0
  -40.3091   61.4951   65.4728 H   0  0  0  0  0  0  0  0  0  0  0  0
  -42.2427   58.8477   65.7027 C   0  0  0  0  0  0  0  0  0  0  0  0
  -43.5803   58.9532   65.6242 C   0  0  0  0  0  0  0  0  0  0  0  0
  -44.4664   57.9152   66.3102 C   0  0  0  0  0  0  0  0  0  0  0  0
  -45.8062   58.4747   66.8103 C   0  0  0  0  0  0  0  0  0  0  0  0
  -46.5694   59.3671   65.8141 C   0  0  0  0  0  0  0  0  0  0  0  0
  -48.0932   59.3063   66.0782 C   0  0  0  0  0  0  0  0  0  0  0  0
  -48.8674   58.2523   65.2466 C   0  0  0  0  0  0  0  0  0  0  0  0
  -48.6721   58.3836   63.7178 C   0  0  0  0  0  0  0  0  0  0  0  0
  -49.2702   59.6791   63.1278 C   0  0  0  0  0  0  0  0  0  0  0  0
  -50.4385   59.4372   62.1645 C   0  0  0  0  0  0  0  0  0  0  0  0
  -51.0137   58.0224   62.1487 C   0  0  0  0  0  0  0  0  0  0  0  0
  -50.8243   57.2848   60.8086 C   0  0  0  0  0  0  0  0  0  0  0  0
  -49.7905   57.9079   59.8585 C   0  0  0  0  0  0  0  0  0  0  0  0
  -48.8267   56.8459   59.3216 C   0  0  0  0  0  0  0  0  0  0  0  0
  -47.3851   57.2802   59.1245 C   0  0  0  0  0  0  0  0  0  0  0  0
  -38.6983   59.6979   65.3577 C   0  0  0  0  0  0  0  0  0  0  0  0
  -38.3597   61.0762   65.0598 O   0  0  0  0  0  0  0  0  0  0  0  0
  -36.4835   61.3424   62.9182 O   0  0  0  0  0  0  0  0  0  0  0  0
  -35.4684   64.8473   64.9391 O   0  0  0  0  0  0  0  0  0  0  0  0
  -36.8361   62.5095   66.2883 O   0  0  0  0  0  0  0  0  0  0  0  0
  -36.9749   61.5705   65.1945 C   0  0  0  0  0  0  0  0  0  0  0  0
  -36.3819   62.2640   63.9595 C   0  0  0  0  0  0  0  0  0  0  0  0
  -34.8959   62.6527   64.1200 C   0  0  0  0  0  0  0  0  0  0  0  0
  -34.8352   63.6148   65.2741 C   0  0  0  0  0  0  0  0  0  0  0  0
  -35.4809   62.9905   66.4979 C   0  0  0  0  0  0  0  0  0  0  0  0
  -37.4119   61.0863   62.8025 H   0  0  0  0  0  0  0  0  0  0  0  0
  -35.0409   65.2280   64.1561 H   0  0  0  0  0  0  0  0  0  0  0  0
  -34.0091   64.5755   67.5154 O   0  0  0  0  0  0  0  0  0  0  0  0
  -35.3253   64.1104   67.5244 C   0  0  0  0  0  0  0  0  0  0  0  0
  -33.9129   65.2865   68.1681 H   0  0  0  0  0  0  0  0  0  0  0  0
  -34.2936   63.3344   62.9965 O   0  0  0  0  0  0  0  0  0  0  0  0
  -32.5206   61.6794   62.0831 O   0  0  0  0  0  0  0  0  0  0  0  0
  -31.8680   63.3520   63.7158 O   0  0  0  0  0  0  0  0  0  0  0  0
  -32.2785   63.9903   61.4140 O   0  0  0  0  0  0  0  0  0  0  0  0
  -32.7163   63.0932   62.5209 S   0  0  0  0  0  0  0  0  0  0  0  0
  -32.8007   61.0797   62.7921 H   0  0  0  0  0  0  0  0  0  0  0  0
  -32.8266   63.8281   60.6304 H   0  0  0  0  0  0  0  0  0  0  0  0
  2  1  1  0  0  0
  2  4  1  0  0  0
  2  5  1  0  0  0
 41 42  1  0  0  0
 41  1  1  0  0  0
 42 46  1  0  0  0
  1 24  1  0  0  0
 23 24  1  0  0  0
 23 25  1  0  0  0
 24 26  1  0  0  0
  3  4  2  0  0  0
 26 27  2  0  0  0
 27 28  1  0  0  0
 43 47  1  0  0  0
 43 51  1  0  0  0
 28 29  1  0  0  0
 56 48  1  0  0  0
 56 60  1  0  0  0
 29 30  1  0  0  0
 57 60  1  0  0  0
 57 61  1  0  0  0
 30 31  1  0  0  0
 44 49  1  0  0  0
 44 52  1  0  0  0
 31 32  1  0  0  0
 45 46  1  0  0  0
 45 50  1  0  0  0
 32 33  1  0  0  0
 53 54  1  0  0  0
 53 55  1  0  0  0
 33 34  1  0  0  0
 34 35  1  0  0  0
 35 36  1  0  0  0
 58 60  1  0  0  0
 36 37  1  0  0  0
 59 60  1  0  0  0
 59 62  1  0  0  0
 37 38  1  0  0  0
 38 39  1  0  0  0
 39 40  1  0  0  0
  4  6  1  0  0  0
  6  7  1  0  0  0
  7  8  1  0  0  0
  8  9  1  0  0  0
  9 10  1  0  0  0
 10 11  1  0  0  0
 11 12  1  0  0  0
 12 13  1  0  0  0
 13 14  1  0  0  0
 14 15  1  0  0  0
 15 16  1  0  0  0
 16 17  1  0  0  0
 17 18  1  0  0  0
 18 19  1  0  0  0
 19 20  1  0  0  0
 20 21  1  0  0  0
 21 22  1  0  0  0
 46 47  1  0  0  0
 47 48  1  0  0  0
 48 49  1  0  0  0
 49 50  1  0  0  0
 50 54  1  0  0  0
M  CHG 1  58  -1
M  END
> <minimizedAffinity>
-9.52795

> <CNNscore>
0.2326522321

> <CNNaffinity>
7.2856316566

> <CNN_VS>
1.6950184107

> <CNNaffinity_variance>
1.1647979021

$$$$
