/media/chris/experiments/cd1a-new-docking/inputs/ligands/1onq_ligand.pdb


 62 62  0  0  0  0  0  0  0  0999 V2000
  -36.5439   57.8797   63.6141 C   0  0  0  0  0  0  0  0  0  0  0  0
  -35.9310   57.1079   62.5512 N   0  0  0  0  0  0  0  0  0  0  0  0
  -34.3626   58.5458   61.7639 O   0  0  0  0  0  0  0  0  0  0  0  0
  -34.9313   57.4717   61.7366 C   0  0  0  0  0  0  0  0  0  0  0  0
  -36.2944   56.2038   62.4103 H   0  0  0  0  0  0  0  0  0  0  0  0
  -34.5139   56.4345   60.7366 C   0  0  0  0  0  0  0  0  0  0  0  0
  -35.6951   56.2515   59.7835 C   0  0  0  0  0  0  0  0  0  0  0  0
  -35.4795   57.0816   58.5204 C   0  0  0  0  0  0  0  0  0  0  0  0
  -36.7168   57.6923   57.9086 C   0  0  0  0  0  0  0  0  0  0  0  0
  -37.7185   57.9292   59.0339 C   0  0  0  0  0  0  0  0  0  0  0  0
  -38.0381   59.4159   59.2401 C   0  0  0  0  0  0  0  0  0  0  0  0
  -39.3874   59.6823   59.9322 C   0  0  0  0  0  0  0  0  0  0  0  0
  -40.3972   60.4115   59.0190 C   0  0  0  0  0  0  0  0  0  0  0  0
  -41.6161   59.5255   58.7462 C   0  0  0  0  0  0  0  0  0  0  0  0
  -41.8972   59.2509   57.2738 C   0  0  0  0  0  0  0  0  0  0  0  0
  -43.2987   58.7042   57.0459 C   0  0  0  0  0  0  0  0  0  0  0  0
  -44.1178   58.4112   58.3051 C   0  0  0  0  0  0  0  0  0  0  0  0
  -45.5263   58.0222   57.8765 C   0  0  0  0  0  0  0  0  0  0  0  0
  -46.3627   57.1633   58.8133 C   0  0  0  0  0  0  0  0  0  0  0  0
  -47.7705   57.7539   58.9910 C   0  0  0  0  0  0  0  0  0  0  0  0
  -48.7137   56.9051   59.8633 C   0  0  0  0  0  0  0  0  0  0  0  0
  -49.4808   57.7252   60.8980 C   0  0  0  0  0  0  0  0  0  0  0  0
  -37.0432   59.8595   62.5063 O   0  0  0  0  0  0  0  0  0  0  0  0
  -37.6422   58.6340   62.8843 C   0  0  0  0  0  0  0  0  0  0  0  0
  -36.2979   59.6849   61.9105 H   0  0  0  0  0  0  0  0  0  0  0  0
  -38.8294   58.8393   63.8281 C   0  0  0  0  0  0  0  0  0  0  0  0
  -40.0174   59.3146   63.4171 C   0  0  0  0  0  0  0  0  0  0  0  0
  -41.1541   59.4922   64.4219 C   0  0  0  0  0  0  0  0  0  0  0  0
  -41.1443   58.4615   65.5602 C   0  0  0  0  0  0  0  0  0  0  0  0
  -42.4580   58.3319   66.3533 C   0  0  0  0  0  0  0  0  0  0  0  0
  -43.0979   56.9401   66.1324 C   0  0  0  0  0  0  0  0  0  0  0  0
  -44.4941   56.9530   65.4600 C   0  0  0  0  0  0  0  0  0  0  0  0
  -44.9906   58.3617   65.0579 C   0  0  0  0  0  0  0  0  0  0  0  0
  -46.3139   58.7686   65.7415 C   0  0  0  0  0  0  0  0  0  0  0  0
  -47.0119   57.6154   66.4724 C   0  0  0  0  0  0  0  0  0  0  0  0
  -48.3775   57.2035   65.9264 C   0  0  0  0  0  0  0  0  0  0  0  0
  -48.9210   58.1394   64.8288 C   0  0  0  0  0  0  0  0  0  0  0  0
  -50.4098   58.4977   64.9520 C   0  0  0  0  0  0  0  0  0  0  0  0
  -50.7309   59.7841   64.1856 C   0  0  0  0  0  0  0  0  0  0  0  0
  -51.7393   59.6635   63.0567 C   0  0  0  0  0  0  0  0  0  0  0  0
  -35.5711   58.7176   64.4745 C   0  0  0  0  0  0  0  0  0  0  0  0
  -36.0481   60.0142   64.9157 O   0  0  0  0  0  0  0  0  0  0  0  0
  -34.2358   61.2571   63.0861 O   0  0  0  0  0  0  0  0  0  0  0  0
  -35.3396   64.7086   65.1521 O   0  0  0  0  0  0  0  0  0  0  0  0
  -35.6007   61.9337   66.3302 O   0  0  0  0  0  0  0  0  0  0  0  0
  -35.1079   61.1018   65.2518 C   0  0  0  0  0  0  0  0  0  0  0  0
  -34.7447   62.0586   64.1073 C   0  0  0  0  0  0  0  0  0  0  0  0
  -33.6700   63.1008   64.4872 C   0  0  0  0  0  0  0  0  0  0  0  0
  -34.2505   63.9123   65.6123 C   0  0  0  0  0  0  0  0  0  0  0  0
  -34.6909   62.9915   66.7359 C   0  0  0  0  0  0  0  0  0  0  0  0
  -34.8985   60.5952   62.8339 H   0  0  0  0  0  0  0  0  0  0  0  0
  -35.0365   65.2881   64.4358 H   0  0  0  0  0  0  0  0  0  0  0  0
  -34.2752   64.9535   68.0364 O   0  0  0  0  0  0  0  0  0  0  0  0
  -35.2461   63.9936   67.7457 C   0  0  0  0  0  0  0  0  0  0  0  0
  -34.6303   65.5887   68.6778 H   0  0  0  0  0  0  0  0  0  0  0  0
  -33.3095   64.0459   63.4543 O   0  0  0  0  0  0  0  0  0  0  0  0
  -31.8248   64.6718   61.4244 O   0  0  0  0  0  0  0  0  0  0  0  0
  -33.8626   63.4024   61.0708 O   0  0  0  0  0  0  0  0  0  0  0  0
  -31.9054   62.3285   62.0145 O   0  0  0  0  0  0  0  0  0  0  0  0
  -32.6957   63.5915   61.9749 S   0  0  0  0  0  0  0  0  0  0  0  0
  -32.3231   65.5033   61.3910 H   0  0  0  0  0  0  0  0  0  0  0  0
  -31.1421   62.4429   62.6021 H   0  0  0  0  0  0  0  0  0  0  0  0
  2  1  1  0  0  0
  2  4  1  0  0  0
  2  5  1  0  0  0
 41 42  1  0  0  0
 41  1  1  0  0  0
 42 46  1  0  0  0
  1 24  1  0  0  0
 23 24  1  0  0  0
 23 25  1  0  0  0
 24 26  1  0  0  0
  3  4  2  0  0  0
 26 27  2  0  0  0
 27 28  1  0  0  0
 43 47  1  0  0  0
 43 51  1  0  0  0
 28 29  1  0  0  0
 56 48  1  0  0  0
 56 60  1  0  0  0
 29 30  1  0  0  0
 57 60  1  0  0  0
 57 61  1  0  0  0
 30 31  1  0  0  0
 44 49  1  0  0  0
 44 52  1  0  0  0
 31 32  1  0  0  0
 45 46  1  0  0  0
 45 50  1  0  0  0
 32 33  1  0  0  0
 53 54  1  0  0  0
 53 55  1  0  0  0
 33 34  1  0  0  0
 34 35  1  0  0  0
 35 36  1  0  0  0
 58 60  1  0  0  0
 36 37  1  0  0  0
 59 60  1  0  0  0
 59 62  1  0  0  0
 37 38  1  0  0  0
 38 39  1  0  0  0
 39 40  1  0  0  0
  4  6  1  0  0  0
  6  7  1  0  0  0
  7  8  1  0  0  0
  8  9  1  0  0  0
  9 10  1  0  0  0
 10 11  1  0  0  0
 11 12  1  0  0  0
 12 13  1  0  0  0
 13 14  1  0  0  0
 14 15  1  0  0  0
 15 16  1  0  0  0
 16 17  1  0  0  0
 17 18  1  0  0  0
 18 19  1  0  0  0
 19 20  1  0  0  0
 20 21  1  0  0  0
 21 22  1  0  0  0
 46 47  1  0  0  0
 47 48  1  0  0  0
 48 49  1  0  0  0
 49 50  1  0  0  0
 50 54  1  0  0  0
M  CHG 1  58  -1
M  END
> <minimizedAffinity>
-8.82228

> <CNNscore>
0.5107007623

> <CNNaffinity>
7.3720717430

> <CNN_VS>
3.7649226189

> <CNNaffinity_variance>
0.4798939824

$$$$
/media/chris/experiments/cd1a-new-docking/inputs/ligands/1onq_ligand.pdb


 62 62  0  0  0  0  0  0  0  0999 V2000
  -38.6698   59.8116   63.1009 C   0  0  0  0  0  0  0  0  0  0  0  0
  -39.4552   59.8055   64.3192 N   0  0  0  0  0  0  0  0  0  0  0  0
  -41.2660   61.0356   63.7228 O   0  0  0  0  0  0  0  0  0  0  0  0
  -40.6416   60.3878   64.5404 C   0  0  0  0  0  0  0  0  0  0  0  0
  -39.0689   59.3123   65.0786 H   0  0  0  0  0  0  0  0  0  0  0  0
  -41.2031   60.1883   65.9169 C   0  0  0  0  0  0  0  0  0  0  0  0
  -41.6242   58.7213   66.0047 C   0  0  0  0  0  0  0  0  0  0  0  0
  -43.0022   58.5356   65.3739 C   0  0  0  0  0  0  0  0  0  0  0  0
  -44.1795   58.9728   66.2112 C   0  0  0  0  0  0  0  0  0  0  0  0
  -45.3038   59.3628   65.2575 C   0  0  0  0  0  0  0  0  0  0  0  0
  -46.6742   59.4156   65.9463 C   0  0  0  0  0  0  0  0  0  0  0  0
  -47.8245   58.8241   65.1113 C   0  0  0  0  0  0  0  0  0  0  0  0
  -48.9188   58.1644   65.9789 C   0  0  0  0  0  0  0  0  0  0  0  0
  -50.2753   58.2182   65.2703 C   0  0  0  0  0  0  0  0  0  0  0  0
  -50.4549   59.3872   64.3093 C   0  0  0  0  0  0  0  0  0  0  0  0
  -51.1799   58.9806   63.0348 C   0  0  0  0  0  0  0  0  0  0  0  0
  -50.2934   58.6948   61.8205 C   0  0  0  0  0  0  0  0  0  0  0  0
  -50.8729   57.4970   61.0799 C   0  0  0  0  0  0  0  0  0  0  0  0
  -49.9156   56.4993   60.4448 C   0  0  0  0  0  0  0  0  0  0  0  0
  -49.2924   57.0746   59.1631 C   0  0  0  0  0  0  0  0  0  0  0  0
  -47.9201   57.7434   59.3649 C   0  0  0  0  0  0  0  0  0  0  0  0
  -46.7674   56.9549   58.7475 C   0  0  0  0  0  0  0  0  0  0  0  0
  -37.6313   57.8112   63.6627 O   0  0  0  0  0  0  0  0  0  0  0  0
  -38.5833   58.3349   62.7555 C   0  0  0  0  0  0  0  0  0  0  0  0
  -37.9512   57.9291   64.5709 H   0  0  0  0  0  0  0  0  0  0  0  0
  -38.1383   58.1800   61.2993 C   0  0  0  0  0  0  0  0  0  0  0  0
  -38.6041   58.9553   60.3053 C   0  0  0  0  0  0  0  0  0  0  0  0
  -38.1109   58.7372   58.8761 C   0  0  0  0  0  0  0  0  0  0  0  0
  -36.5924   58.5362   58.7663 C   0  0  0  0  0  0  0  0  0  0  0  0
  -36.1379   57.3627   57.8788 C   0  0  0  0  0  0  0  0  0  0  0  0
  -36.8151   56.0438   58.3230 C   0  0  0  0  0  0  0  0  0  0  0  0
  -36.1690   55.3480   59.5478 C   0  0  0  0  0  0  0  0  0  0  0  0
  -34.6337   55.1879   59.4483 C   0  0  0  0  0  0  0  0  0  0  0  0
  -33.8530   56.1097   60.4100 C   0  0  0  0  0  0  0  0  0  0  0  0
  -34.6478   56.5176   61.6563 C   0  0  0  0  0  0  0  0  0  0  0  0
  -34.4868   57.9669   62.1106 C   0  0  0  0  0  0  0  0  0  0  0  0
  -33.2508   58.2107   62.9988 C   0  0  0  0  0  0  0  0  0  0  0  0
  -31.8994   58.1525   62.2704 C   0  0  0  0  0  0  0  0  0  0  0  0
  -31.5390   59.5146   61.6707 C   0  0  0  0  0  0  0  0  0  0  0  0
  -30.4438   60.2946   62.3764 C   0  0  0  0  0  0  0  0  0  0  0  0
  -37.3387   60.5940   63.1709 C   0  0  0  0  0  0  0  0  0  0  0  0
  -36.3747   60.1462   64.1576 O   0  0  0  0  0  0  0  0  0  0  0  0
  -34.0631   61.2622   62.8974 O   0  0  0  0  0  0  0  0  0  0  0  0
  -35.2511   64.6976   64.9434 O   0  0  0  0  0  0  0  0  0  0  0  0
  -36.0721   61.9120   65.7934 O   0  0  0  0  0  0  0  0  0  0  0  0
  -35.4305   61.0898   64.7884 C   0  0  0  0  0  0  0  0  0  0  0  0
  -34.7101   62.0596   63.8407 C   0  0  0  0  0  0  0  0  0  0  0  0
  -33.6509   62.9392   64.5407 C   0  0  0  0  0  0  0  0  0  0  0  0
  -34.3905   63.7492   65.5694 C   0  0  0  0  0  0  0  0  0  0  0  0
  -35.1767   62.8258   66.4824 C   0  0  0  0  0  0  0  0  0  0  0  0
  -34.7140   60.7017   62.4468 H   0  0  0  0  0  0  0  0  0  0  0  0
  -34.7291   65.2762   64.3658 H   0  0  0  0  0  0  0  0  0  0  0  0
  -37.0800   64.2113   66.8959 O   0  0  0  0  0  0  0  0  0  0  0  0
  -35.8447   63.8282   67.4210 C   0  0  0  0  0  0  0  0  0  0  0  0
  -37.5022   64.8479   67.4938 H   0  0  0  0  0  0  0  0  0  0  0  0
  -32.9607   63.8912   63.6997 O   0  0  0  0  0  0  0  0  0  0  0  0
  -30.5791   63.3804   64.5851 O   0  0  0  0  0  0  0  0  0  0  0  0
  -31.6056   65.5234   65.0784 O   0  0  0  0  0  0  0  0  0  0  0  0
  -30.7452   65.0657   62.8592 O   0  0  0  0  0  0  0  0  0  0  0  0
  -31.4378   64.4724   64.0382 S   0  0  0  0  0  0  0  0  0  0  0  0
  -31.0144   62.9816   65.3546 H   0  0  0  0  0  0  0  0  0  0  0  0
  -30.6315   64.3869   62.1757 H   0  0  0  0  0  0  0  0  0  0  0  0
  2  1  1  0  0  0
  2  4  1  0  0  0
  2  5  1  0  0  0
 41 42  1  0  0  0
 41  1  1  0  0  0
 42 46  1  0  0  0
  1 24  1  0  0  0
 23 24  1  0  0  0
 23 25  1  0  0  0
 24 26  1  0  0  0
  3  4  2  0  0  0
 26 27  2  0  0  0
 27 28  1  0  0  0
 43 47  1  0  0  0
 43 51  1  0  0  0
 28 29  1  0  0  0
 56 48  1  0  0  0
 56 60  1  0  0  0
 29 30  1  0  0  0
 57 60  1  0  0  0
 57 61  1  0  0  0
 30 31  1  0  0  0
 44 49  1  0  0  0
 44 52  1  0  0  0
 31 32  1  0  0  0
 45 46  1  0  0  0
 45 50  1  0  0  0
 32 33  1  0  0  0
 53 54  1  0  0  0
 53 55  1  0  0  0
 33 34  1  0  0  0
 34 35  1  0  0  0
 35 36  1  0  0  0
 58 60  1  0  0  0
 36 37  1  0  0  0
 59 60  1  0  0  0
 59 62  1  0  0  0
 37 38  1  0  0  0
 38 39  1  0  0  0
 39 40  1  0  0  0
  4  6  1  0  0  0
  6  7  1  0  0  0
  7  8  1  0  0  0
  8  9  1  0  0  0
  9 10  1  0  0  0
 10 11  1  0  0  0
 11 12  1  0  0  0
 12 13  1  0  0  0
 13 14  1  0  0  0
 14 15  1  0  0  0
 15 16  1  0  0  0
 16 17  1  0  0  0
 17 18  1  0  0  0
 18 19  1  0  0  0
 19 20  1  0  0  0
 20 21  1  0  0  0
 21 22  1  0  0  0
 46 47  1  0  0  0
 47 48  1  0  0  0
 48 49  1  0  0  0
 49 50  1  0  0  0
 50 54  1  0  0  0
M  CHG 1  58  -1
M  END
> <minimizedAffinity>
-9.49047

> <CNNscore>
0.4379387498

> <CNNaffinity>
7.1568078995

> <CNN_VS>
3.1342434883

> <CNNaffinity_variance>
0.9417582750

$$$$
/media/chris/experiments/cd1a-new-docking/inputs/ligands/1onq_ligand.pdb


 62 62  0  0  0  0  0  0  0  0999 V2000
  -35.4867   58.0663   63.8356 C   0  0  0  0  0  0  0  0  0  0  0  0
  -35.2170   57.7664   62.4433 N   0  0  0  0  0  0  0  0  0  0  0  0
  -32.9504   57.6726   62.4082 O   0  0  0  0  0  0  0  0  0  0  0  0
  -34.0276   57.5975   61.8498 C   0  0  0  0  0  0  0  0  0  0  0  0
  -36.0059   57.6755   61.8614 H   0  0  0  0  0  0  0  0  0  0  0  0
  -34.0851   57.2858   60.3837 C   0  0  0  0  0  0  0  0  0  0  0  0
  -34.7049   55.8936   60.2606 C   0  0  0  0  0  0  0  0  0  0  0  0
  -35.9922   55.9663   59.4429 C   0  0  0  0  0  0  0  0  0  0  0  0
  -36.3493   57.3234   58.8870 C   0  0  0  0  0  0  0  0  0  0  0  0
  -37.6544   57.7614   59.5432 C   0  0  0  0  0  0  0  0  0  0  0  0
  -37.7834   59.2871   59.6464 C   0  0  0  0  0  0  0  0  0  0  0  0
  -38.4143   59.7806   60.9612 C   0  0  0  0  0  0  0  0  0  0  0  0
  -39.9387   60.0024   60.8497 C   0  0  0  0  0  0  0  0  0  0  0  0
  -40.3315   60.3382   59.4082 C   0  0  0  0  0  0  0  0  0  0  0  0
  -41.6083   59.6682   58.9149 C   0  0  0  0  0  0  0  0  0  0  0  0
  -41.5151   59.2532   57.4540 C   0  0  0  0  0  0  0  0  0  0  0  0
  -42.8392   58.9078   56.7686 C   0  0  0  0  0  0  0  0  0  0  0  0
  -43.8423   58.5120   57.8438 C   0  0  0  0  0  0  0  0  0  0  0  0
  -45.1602   57.8835   57.4158 C   0  0  0  0  0  0  0  0  0  0  0  0
  -46.1132   57.7360   58.6126 C   0  0  0  0  0  0  0  0  0  0  0  0
  -47.3473   56.8558   58.3414 C   0  0  0  0  0  0  0  0  0  0  0  0
  -47.6116   56.6278   56.8549 C   0  0  0  0  0  0  0  0  0  0  0  0
  -37.2619   56.9976   62.7857 O   0  0  0  0  0  0  0  0  0  0  0  0
  -36.8072   57.3556   64.0775 C   0  0  0  0  0  0  0  0  0  0  0  0
  -36.6229   56.3953   62.3734 H   0  0  0  0  0  0  0  0  0  0  0  0
  -37.7735   58.3083   64.7855 C   0  0  0  0  0  0  0  0  0  0  0  0
  -39.0990   58.0952   64.8453 C   0  0  0  0  0  0  0  0  0  0  0  0
  -39.9978   59.0948   65.5707 C   0  0  0  0  0  0  0  0  0  0  0  0
  -41.4936   58.9166   65.2720 C   0  0  0  0  0  0  0  0  0  0  0  0
  -42.3851   58.6146   66.4908 C   0  0  0  0  0  0  0  0  0  0  0  0
  -43.0662   57.2325   66.3440 C   0  0  0  0  0  0  0  0  0  0  0  0
  -44.5808   57.2725   66.0183 C   0  0  0  0  0  0  0  0  0  0  0  0
  -45.1258   58.6874   65.7124 C   0  0  0  0  0  0  0  0  0  0  0  0
  -46.4987   58.9734   66.3584 C   0  0  0  0  0  0  0  0  0  0  0  0
  -47.4543   59.7622   65.4551 C   0  0  0  0  0  0  0  0  0  0  0  0
  -48.0425   58.9982   64.2707 C   0  0  0  0  0  0  0  0  0  0  0  0
  -49.3749   58.2888   64.5830 C   0  0  0  0  0  0  0  0  0  0  0  0
  -50.4556   59.1760   65.2195 C   0  0  0  0  0  0  0  0  0  0  0  0
  -51.3482   59.8092   64.1482 C   0  0  0  0  0  0  0  0  0  0  0  0
  -51.2228   59.2440   62.7444 C   0  0  0  0  0  0  0  0  0  0  0  0
  -35.4149   59.5615   64.2205 C   0  0  0  0  0  0  0  0  0  0  0  0
  -35.8827   60.5096   63.2277 O   0  0  0  0  0  0  0  0  0  0  0  0
  -36.6916   62.5869   65.0186 O   0  0  0  0  0  0  0  0  0  0  0  0
  -32.6466   63.5910   64.8489 O   0  0  0  0  0  0  0  0  0  0  0  0
  -34.0333   61.9853   62.6914 O   0  0  0  0  0  0  0  0  0  0  0  0
  -35.3856   61.8997   63.2029 C   0  0  0  0  0  0  0  0  0  0  0  0
  -35.3801   62.6393   64.5483 C   0  0  0  0  0  0  0  0  0  0  0  0
  -34.9628   64.1224   64.4393 C   0  0  0  0  0  0  0  0  0  0  0  0
  -33.5609   64.1257   63.8950 C   0  0  0  0  0  0  0  0  0  0  0  0
  -33.5114   63.3382   62.5982 C   0  0  0  0  0  0  0  0  0  0  0  0
  -36.9715   61.6612   65.0936 H   0  0  0  0  0  0  0  0  0  0  0  0
  -32.6947   64.1081   65.6682 H   0  0  0  0  0  0  0  0  0  0  0  0
  -31.3519   62.3154   62.6587 O   0  0  0  0  0  0  0  0  0  0  0  0
  -32.0338   63.4559   62.2311 C   0  0  0  0  0  0  0  0  0  0  0  0
  -30.4138   62.3926   62.4244 H   0  0  0  0  0  0  0  0  0  0  0  0
  -34.9134   64.8605   65.6814 O   0  0  0  0  0  0  0  0  0  0  0  0
  -34.2273   64.9629   68.1785 O   0  0  0  0  0  0  0  0  0  0  0  0
  -34.2714   62.8224   67.0360 O   0  0  0  0  0  0  0  0  0  0  0  0
  -36.3425   63.8992   67.6883 O   0  0  0  0  0  0  0  0  0  0  0  0
  -34.9617   64.1331   67.1781 S   0  0  0  0  0  0  0  0  0  0  0  0
  -33.3246   65.1259   67.8631 H   0  0  0  0  0  0  0  0  0  0  0  0
  -36.8002   64.7491   67.7841 H   0  0  0  0  0  0  0  0  0  0  0  0
  2  1  1  0  0  0
  2  4  1  0  0  0
  2  5  1  0  0  0
 41 42  1  0  0  0
 41  1  1  0  0  0
 42 46  1  0  0  0
  1 24  1  0  0  0
 23 24  1  0  0  0
 23 25  1  0  0  0
 24 26  1  0  0  0
  3  4  2  0  0  0
 26 27  2  0  0  0
 27 28  1  0  0  0
 43 47  1  0  0  0
 43 51  1  0  0  0
 28 29  1  0  0  0
 56 48  1  0  0  0
 56 60  1  0  0  0
 29 30  1  0  0  0
 57 60  1  0  0  0
 57 61  1  0  0  0
 30 31  1  0  0  0
 44 49  1  0  0  0
 44 52  1  0  0  0
 31 32  1  0  0  0
 45 46  1  0  0  0
 45 50  1  0  0  0
 32 33  1  0  0  0
 53 54  1  0  0  0
 53 55  1  0  0  0
 33 34  1  0  0  0
 34 35  1  0  0  0
 35 36  1  0  0  0
 58 60  1  0  0  0
 36 37  1  0  0  0
 59 60  1  0  0  0
 59 62  1  0  0  0
 37 38  1  0  0  0
 38 39  1  0  0  0
 39 40  1  0  0  0
  4  6  1  0  0  0
  6  7  1  0  0  0
  7  8  1  0  0  0
  8  9  1  0  0  0
  9 10  1  0  0  0
 10 11  1  0  0  0
 11 12  1  0  0  0
 12 13  1  0  0  0
 13 14  1  0  0  0
 14 15  1  0  0  0
 15 16  1  0  0  0
 16 17  1  0  0  0
 17 18  1  0  0  0
 18 19  1  0  0  0
 19 20  1  0  0  0
 20 21  1  0  0  0
 21 22  1  0  0  0
 46 47  1  0  0  0
 47 48  1  0  0  0
 48 49  1  0  0  0
 49 50  1  0  0  0
 50 54  1  0  0  0
M  CHG 1  58  -1
M  END
> <minimizedAffinity>
-9.02006

> <CNNscore>
0.3335458338

> <CNNaffinity>
6.9988908768

> <CNN_VS>
2.3344509602

> <CNNaffinity_variance>
1.1007120609

$$$$
/media/chris/experiments/cd1a-new-docking/inputs/ligands/1onq_ligand.pdb


 62 62  0  0  0  0  0  0  0  0999 V2000
  -39.1043   60.7659   63.0670 C   0  0  0  0  0  0  0  0  0  0  0  0
  -39.8620   59.7488   63.7689 N   0  0  0  0  0  0  0  0  0  0  0  0
  -40.1369   60.6890   65.8153 O   0  0  0  0  0  0  0  0  0  0  0  0
  -40.3067   59.7745   65.0326 C   0  0  0  0  0  0  0  0  0  0  0  0
  -40.0766   58.9383   63.2528 H   0  0  0  0  0  0  0  0  0  0  0  0
  -41.0743   58.5599   65.4633 C   0  0  0  0  0  0  0  0  0  0  0  0
  -42.3428   59.0691   66.1480 C   0  0  0  0  0  0  0  0  0  0  0  0
  -43.4723   59.1927   65.1281 C   0  0  0  0  0  0  0  0  0  0  0  0
  -44.6616   58.2885   65.3426 C   0  0  0  0  0  0  0  0  0  0  0  0
  -45.9195   59.1363   65.1852 C   0  0  0  0  0  0  0  0  0  0  0  0
  -46.7874   59.1503   66.4507 C   0  0  0  0  0  0  0  0  0  0  0  0
  -48.2634   59.5100   66.2010 C   0  0  0  0  0  0  0  0  0  0  0  0
  -49.1362   58.2766   65.8809 C   0  0  0  0  0  0  0  0  0  0  0  0
  -49.4547   58.2141   64.3844 C   0  0  0  0  0  0  0  0  0  0  0  0
  -50.3036   59.3646   63.8571 C   0  0  0  0  0  0  0  0  0  0  0  0
  -50.6904   59.1750   62.3978 C   0  0  0  0  0  0  0  0  0  0  0  0
  -50.9891   57.7381   61.9638 C   0  0  0  0  0  0  0  0  0  0  0  0
  -50.5920   57.5906   60.5011 C   0  0  0  0  0  0  0  0  0  0  0  0
  -49.5534   56.5426   60.1294 C   0  0  0  0  0  0  0  0  0  0  0  0
  -48.7510   56.9781   58.8930 C   0  0  0  0  0  0  0  0  0  0  0  0
  -47.2542   57.2247   59.1575 C   0  0  0  0  0  0  0  0  0  0  0  0
  -46.5465   57.9353   58.0061 C   0  0  0  0  0  0  0  0  0  0  0  0
  -40.7406   59.8415   61.7017 O   0  0  0  0  0  0  0  0  0  0  0  0
  -39.5157   60.5464   61.6213 C   0  0  0  0  0  0  0  0  0  0  0  0
  -41.3976   60.3865   62.1625 H   0  0  0  0  0  0  0  0  0  0  0  0
  -38.4319   59.7392   60.9028 C   0  0  0  0  0  0  0  0  0  0  0  0
  -38.2788   59.7455   59.5676 C   0  0  0  0  0  0  0  0  0  0  0  0
  -37.1723   58.9111   58.9253 C   0  0  0  0  0  0  0  0  0  0  0  0
  -37.6884   57.7178   58.1079 C   0  0  0  0  0  0  0  0  0  0  0  0
  -36.6306   56.6677   57.7212 C   0  0  0  0  0  0  0  0  0  0  0  0
  -36.4619   55.6180   58.8459 C   0  0  0  0  0  0  0  0  0  0  0  0
  -35.0582   55.5696   59.5008 C   0  0  0  0  0  0  0  0  0  0  0  0
  -34.8525   56.6010   60.6350 C   0  0  0  0  0  0  0  0  0  0  0  0
  -33.5837   56.3477   61.4776 C   0  0  0  0  0  0  0  0  0  0  0  0
  -32.7289   57.6012   61.6996 C   0  0  0  0  0  0  0  0  0  0  0  0
  -32.9618   58.3491   63.0107 C   0  0  0  0  0  0  0  0  0  0  0  0
  -34.4271   58.7692   63.2398 C   0  0  0  0  0  0  0  0  0  0  0  0
  -35.0328   58.3279   64.5809 C   0  0  0  0  0  0  0  0  0  0  0  0
  -36.0076   57.1628   64.3871 C   0  0  0  0  0  0  0  0  0  0  0  0
  -37.0613   57.3365   63.3075 C   0  0  0  0  0  0  0  0  0  0  0  0
  -37.5885   60.7930   63.3679 C   0  0  0  0  0  0  0  0  0  0  0  0
  -36.8760   62.0011   62.9988 O   0  0  0  0  0  0  0  0  0  0  0  0
  -34.5077   63.1552   61.8868 O   0  0  0  0  0  0  0  0  0  0  0  0
  -34.7946   65.6566   65.2125 O   0  0  0  0  0  0  0  0  0  0  0  0
  -36.0808   62.9201   65.0985 O   0  0  0  0  0  0  0  0  0  0  0  0
  -35.7092   62.4683   63.7736 C   0  0  0  0  0  0  0  0  0  0  0  0
  -34.8951   63.6094   63.1469 C   0  0  0  0  0  0  0  0  0  0  0  0
  -33.6229   63.9740   63.9433 C   0  0  0  0  0  0  0  0  0  0  0  0
  -34.0905   64.4203   65.3011 C   0  0  0  0  0  0  0  0  0  0  0  0
  -34.9625   63.3449   65.9234 C   0  0  0  0  0  0  0  0  0  0  0  0
  -35.2953   62.9210   61.3714 H   0  0  0  0  0  0  0  0  0  0  0  0
  -34.2200   66.3281   64.8128 H   0  0  0  0  0  0  0  0  0  0  0  0
  -34.1991   64.5901   67.8155 O   0  0  0  0  0  0  0  0  0  0  0  0
  -35.3295   63.9902   67.2579 C   0  0  0  0  0  0  0  0  0  0  0  0
  -34.4348   64.9992   68.6628 H   0  0  0  0  0  0  0  0  0  0  0  0
  -32.8324   65.0619   63.4128 O   0  0  0  0  0  0  0  0  0  0  0  0
  -30.3898   64.2082   63.5588 O   0  0  0  0  0  0  0  0  0  0  0  0
  -30.8888   66.1909   62.2514 O   0  0  0  0  0  0  0  0  0  0  0  0
  -31.4755   63.9953   61.4089 O   0  0  0  0  0  0  0  0  0  0  0  0
  -31.3779   64.8385   62.6341 S   0  0  0  0  0  0  0  0  0  0  0  0
  -30.3126   64.7440   64.3636 H   0  0  0  0  0  0  0  0  0  0  0  0
  -31.7939   63.1111   61.6494 H   0  0  0  0  0  0  0  0  0  0  0  0
  2  1  1  0  0  0
  2  4  1  0  0  0
  2  5  1  0  0  0
 41 42  1  0  0  0
 41  1  1  0  0  0
 42 46  1  0  0  0
  1 24  1  0  0  0
 23 24  1  0  0  0
 23 25  1  0  0  0
 24 26  1  0  0  0
  3  4  2  0  0  0
 26 27  2  0  0  0
 27 28  1  0  0  0
 43 47  1  0  0  0
 43 51  1  0  0  0
 28 29  1  0  0  0
 56 48  1  0  0  0
 56 60  1  0  0  0
 29 30  1  0  0  0
 57 60  1  0  0  0
 57 61  1  0  0  0
 30 31  1  0  0  0
 44 49  1  0  0  0
 44 52  1  0  0  0
 31 32  1  0  0  0
 45 46  1  0  0  0
 45 50  1  0  0  0
 32 33  1  0  0  0
 53 54  1  0  0  0
 53 55  1  0  0  0
 33 34  1  0  0  0
 34 35  1  0  0  0
 35 36  1  0  0  0
 58 60  1  0  0  0
 36 37  1  0  0  0
 59 60  1  0  0  0
 59 62  1  0  0  0
 37 38  1  0  0  0
 38 39  1  0  0  0
 39 40  1  0  0  0
  4  6  1  0  0  0
  6  7  1  0  0  0
  7  8  1  0  0  0
  8  9  1  0  0  0
  9 10  1  0  0  0
 10 11  1  0  0  0
 11 12  1  0  0  0
 12 13  1  0  0  0
 13 14  1  0  0  0
 14 15  1  0  0  0
 15 16  1  0  0  0
 16 17  1  0  0  0
 17 18  1  0  0  0
 18 19  1  0  0  0
 19 20  1  0  0  0
 20 21  1  0  0  0
 21 22  1  0  0  0
 46 47  1  0  0  0
 47 48  1  0  0  0
 48 49  1  0  0  0
 49 50  1  0  0  0
 50 54  1  0  0  0
M  CHG 1  58  -1
M  END
> <minimizedAffinity>
-9.54519

> <CNNscore>
0.3196147978

> <CNNaffinity>
7.0736503601

> <CNN_VS>
2.2608432770

> <CNNaffinity_variance>
1.1271665096

$$$$
/media/chris/experiments/cd1a-new-docking/inputs/ligands/1onq_ligand.pdb


 62 62  0  0  0  0  0  0  0  0999 V2000
  -40.3008   58.7987   64.5811 C   0  0  0  0  0  0  0  0  0  0  0  0
  -41.2543   58.1834   65.4829 N   0  0  0  0  0  0  0  0  0  0  0  0
  -43.2042   59.1524   64.8453 O   0  0  0  0  0  0  0  0  0  0  0  0
  -42.5766   58.3891   65.5533 C   0  0  0  0  0  0  0  0  0  0  0  0
  -40.8846   57.5335   66.1233 H   0  0  0  0  0  0  0  0  0  0  0  0
  -43.2922   57.5853   66.5981 C   0  0  0  0  0  0  0  0  0  0  0  0
  -44.4362   56.8660   65.8832 C   0  0  0  0  0  0  0  0  0  0  0  0
  -45.7245   57.0039   66.6909 C   0  0  0  0  0  0  0  0  0  0  0  0
  -46.0982   58.4050   67.1096 C   0  0  0  0  0  0  0  0  0  0  0  0
  -46.6709   59.1142   65.8869 C   0  0  0  0  0  0  0  0  0  0  0  0
  -48.1744   59.3941   66.0138 C   0  0  0  0  0  0  0  0  0  0  0  0
  -49.0647   58.1475   65.8592 C   0  0  0  0  0  0  0  0  0  0  0  0
  -50.5228   58.4936   65.4857 C   0  0  0  0  0  0  0  0  0  0  0  0
  -50.5609   59.5890   64.4164 C   0  0  0  0  0  0  0  0  0  0  0  0
  -51.2274   59.1881   63.1059 C   0  0  0  0  0  0  0  0  0  0  0  0
  -50.4330   58.1304   62.3542 C   0  0  0  0  0  0  0  0  0  0  0  0
  -51.1758   57.4070   61.2285 C   0  0  0  0  0  0  0  0  0  0  0  0
  -50.2312   57.2785   60.0410 C   0  0  0  0  0  0  0  0  0  0  0  0
  -48.7576   57.5992   60.2432 C   0  0  0  0  0  0  0  0  0  0  0  0
  -48.0254   57.6933   58.8952 C   0  0  0  0  0  0  0  0  0  0  0  0
  -46.5773   57.1701   58.9172 C   0  0  0  0  0  0  0  0  0  0  0  0
  -45.6144   58.0232   58.0947 C   0  0  0  0  0  0  0  0  0  0  0  0
  -38.2645   57.8483   65.1695 O   0  0  0  0  0  0  0  0  0  0  0  0
  -39.3470   57.6560   64.2779 C   0  0  0  0  0  0  0  0  0  0  0  0
  -38.5842   57.7900   66.0835 H   0  0  0  0  0  0  0  0  0  0  0  0
  -38.9092   57.7360   62.8136 C   0  0  0  0  0  0  0  0  0  0  0  0
  -38.0340   56.8772   62.2633 C   0  0  0  0  0  0  0  0  0  0  0  0
  -37.6465   57.0243   60.7932 C   0  0  0  0  0  0  0  0  0  0  0  0
  -37.9395   58.4139   60.2090 C   0  0  0  0  0  0  0  0  0  0  0  0
  -37.2498   58.7328   58.8696 C   0  0  0  0  0  0  0  0  0  0  0  0
  -37.3836   57.5449   57.8865 C   0  0  0  0  0  0  0  0  0  0  0  0
  -36.2606   56.4809   57.9776 C   0  0  0  0  0  0  0  0  0  0  0  0
  -34.8310   57.0704   58.0139 C   0  0  0  0  0  0  0  0  0  0  0  0
  -33.8482   56.2541   58.8811 C   0  0  0  0  0  0  0  0  0  0  0  0
  -34.2868   56.1110   60.3435 C   0  0  0  0  0  0  0  0  0  0  0  0
  -33.1681   56.1155   61.3833 C   0  0  0  0  0  0  0  0  0  0  0  0
  -33.0442   57.4391   62.1635 C   0  0  0  0  0  0  0  0  0  0  0  0
  -34.2934   58.3330   62.1390 C   0  0  0  0  0  0  0  0  0  0  0  0
  -35.0876   58.2037   63.4419 C   0  0  0  0  0  0  0  0  0  0  0  0
  -34.2773   58.1632   64.7254 C   0  0  0  0  0  0  0  0  0  0  0  0
  -39.6740   60.1218   65.0766 C   0  0  0  0  0  0  0  0  0  0  0  0
  -38.8672   60.8550   64.1201 O   0  0  0  0  0  0  0  0  0  0  0  0
  -36.7902   61.1012   62.1701 O   0  0  0  0  0  0  0  0  0  0  0  0
  -35.6454   64.3222   64.5605 O   0  0  0  0  0  0  0  0  0  0  0  0
  -37.3357   62.0323   65.5877 O   0  0  0  0  0  0  0  0  0  0  0  0
  -37.4609   61.1992   64.4097 C   0  0  0  0  0  0  0  0  0  0  0  0
  -36.6990   61.9248   63.2915 C   0  0  0  0  0  0  0  0  0  0  0  0
  -35.2039   62.1522   63.6059 C   0  0  0  0  0  0  0  0  0  0  0  0
  -35.1597   63.0113   64.8393 C   0  0  0  0  0  0  0  0  0  0  0  0
  -35.9667   62.3603   65.9481 C   0  0  0  0  0  0  0  0  0  0  0  0
  -37.7239   60.9471   61.9573 H   0  0  0  0  0  0  0  0  0  0  0  0
  -35.1166   64.7187   63.8506 H   0  0  0  0  0  0  0  0  0  0  0  0
  -36.9330   64.1930   67.1401 O   0  0  0  0  0  0  0  0  0  0  0  0
  -35.8025   63.3766   67.0760 C   0  0  0  0  0  0  0  0  0  0  0  0
  -36.8262   64.8375   67.8572 H   0  0  0  0  0  0  0  0  0  0  0  0
  -34.4438   62.8567   62.5980 O   0  0  0  0  0  0  0  0  0  0  0  0
  -32.2992   63.7101   61.4193 O   0  0  0  0  0  0  0  0  0  0  0  0
  -32.4004   61.4169   62.2070 O   0  0  0  0  0  0  0  0  0  0  0  0
  -32.1098   63.2357   63.7826 O   0  0  0  0  0  0  0  0  0  0  0  0
  -32.7812   62.8216   62.5179 S   0  0  0  0  0  0  0  0  0  0  0  0
  -32.7262   63.4552   60.5865 H   0  0  0  0  0  0  0  0  0  0  0  0
  -32.3527   64.1509   63.9929 H   0  0  0  0  0  0  0  0  0  0  0  0
  2  1  1  0  0  0
  2  4  1  0  0  0
  2  5  1  0  0  0
 41 42  1  0  0  0
 41  1  1  0  0  0
 42 46  1  0  0  0
  1 24  1  0  0  0
 23 24  1  0  0  0
 23 25  1  0  0  0
 24 26  1  0  0  0
  3  4  2  0  0  0
 26 27  2  0  0  0
 27 28  1  0  0  0
 43 47  1  0  0  0
 43 51  1  0  0  0
 28 29  1  0  0  0
 56 48  1  0  0  0
 56 60  1  0  0  0
 29 30  1  0  0  0
 57 60  1  0  0  0
 57 61  1  0  0  0
 30 31  1  0  0  0
 44 49  1  0  0  0
 44 52  1  0  0  0
 31 32  1  0  0  0
 45 46  1  0  0  0
 45 50  1  0  0  0
 32 33  1  0  0  0
 53 54  1  0  0  0
 53 55  1  0  0  0
 33 34  1  0  0  0
 34 35  1  0  0  0
 35 36  1  0  0  0
 58 60  1  0  0  0
 36 37  1  0  0  0
 59 60  1  0  0  0
 59 62  1  0  0  0
 37 38  1  0  0  0
 38 39  1  0  0  0
 39 40  1  0  0  0
  4  6  1  0  0  0
  6  7  1  0  0  0
  7  8  1  0  0  0
  8  9  1  0  0  0
  9 10  1  0  0  0
 10 11  1  0  0  0
 11 12  1  0  0  0
 12 13  1  0  0  0
 13 14  1  0  0  0
 14 15  1  0  0  0
 15 16  1  0  0  0
 16 17  1  0  0  0
 17 18  1  0  0  0
 18 19  1  0  0  0
 19 20  1  0  0  0
 20 21  1  0  0  0
 21 22  1  0  0  0
 46 47  1  0  0  0
 47 48  1  0  0  0
 48 49  1  0  0  0
 49 50  1  0  0  0
 50 54  1  0  0  0
M  CHG 1  58  -1
M  END
> <minimizedAffinity>
-10.53244

> <CNNscore>
0.3193763793

> <CNNaffinity>
7.0996613503

> <CNN_VS>
2.2674641609

> <CNNaffinity_variance>
1.4246644974

$$$$
/media/chris/experiments/cd1a-new-docking/inputs/ligands/1onq_ligand.pdb


 62 62  0  0  0  0  0  0  0  0999 V2000
  -40.1913   59.0859   64.6210 C   0  0  0  0  0  0  0  0  0  0  0  0
  -41.4437   58.6876   65.2326 N   0  0  0  0  0  0  0  0  0  0  0  0
  -41.6535   60.1982   66.9123 O   0  0  0  0  0  0  0  0  0  0  0  0
  -42.0624   59.2408   66.2846 C   0  0  0  0  0  0  0  0  0  0  0  0
  -41.8960   57.9143   64.8243 H   0  0  0  0  0  0  0  0  0  0  0  0
  -43.3601   58.5964   66.6725 C   0  0  0  0  0  0  0  0  0  0  0  0
  -43.4153   57.2567   65.9381 C   0  0  0  0  0  0  0  0  0  0  0  0
  -44.7702   57.0925   65.2538 C   0  0  0  0  0  0  0  0  0  0  0  0
  -45.5216   58.3671   64.9554 C   0  0  0  0  0  0  0  0  0  0  0  0
  -46.9521   57.9843   64.5907 C   0  0  0  0  0  0  0  0  0  0  0  0
  -47.8304   57.7300   65.8232 C   0  0  0  0  0  0  0  0  0  0  0  0
  -48.9290   58.7857   66.0451 C   0  0  0  0  0  0  0  0  0  0  0  0
  -50.3050   58.3440   65.5002 C   0  0  0  0  0  0  0  0  0  0  0  0
  -50.8737   59.4010   64.5491 C   0  0  0  0  0  0  0  0  0  0  0  0
  -49.9154   59.8732   63.4624 C   0  0  0  0  0  0  0  0  0  0  0  0
  -50.2568   59.2910   62.0988 C   0  0  0  0  0  0  0  0  0  0  0  0
  -50.0036   57.7914   61.9268 C   0  0  0  0  0  0  0  0  0  0  0  0
  -50.7333   57.3265   60.6737 C   0  0  0  0  0  0  0  0  0  0  0  0
  -49.9862   57.3373   59.3483 C   0  0  0  0  0  0  0  0  0  0  0  0
  -48.6348   56.6160   59.4731 C   0  0  0  0  0  0  0  0  0  0  0  0
  -47.4087   57.5471   59.4420 C   0  0  0  0  0  0  0  0  0  0  0  0
  -46.8333   57.7414   58.0410 C   0  0  0  0  0  0  0  0  0  0  0  0
  -38.5970   59.2890   66.2981 O   0  0  0  0  0  0  0  0  0  0  0  0
  -39.1655   58.3192   65.4379 C   0  0  0  0  0  0  0  0  0  0  0  0
  -39.2865   59.6533   66.8750 H   0  0  0  0  0  0  0  0  0  0  0  0
  -38.1270   57.7026   64.4977 C   0  0  0  0  0  0  0  0  0  0  0  0
  -36.8294   58.0521   64.5104 C   0  0  0  0  0  0  0  0  0  0  0  0
  -35.8543   57.3905   63.5384 C   0  0  0  0  0  0  0  0  0  0  0  0
  -34.9516   58.3832   62.7913 C   0  0  0  0  0  0  0  0  0  0  0  0
  -33.4374   58.1885   62.9925 C   0  0  0  0  0  0  0  0  0  0  0  0
  -32.8005   57.5162   61.7524 C   0  0  0  0  0  0  0  0  0  0  0  0
  -33.4281   56.1609   61.3391 C   0  0  0  0  0  0  0  0  0  0  0  0
  -33.8528   56.0864   59.8536 C   0  0  0  0  0  0  0  0  0  0  0  0
  -35.3818   56.0125   59.6513 C   0  0  0  0  0  0  0  0  0  0  0  0
  -35.9052   56.9436   58.5511 C   0  0  0  0  0  0  0  0  0  0  0  0
  -37.0890   57.8312   58.9299 C   0  0  0  0  0  0  0  0  0  0  0  0
  -37.6511   57.5571   60.3388 C   0  0  0  0  0  0  0  0  0  0  0  0
  -38.5423   58.6677   60.9156 C   0  0  0  0  0  0  0  0  0  0  0  0
  -38.9392   59.6731   59.8308 C   0  0  0  0  0  0  0  0  0  0  0  0
  -40.3057   60.3189   59.9762 C   0  0  0  0  0  0  0  0  0  0  0  0
  -39.9757   60.6096   64.4774 C   0  0  0  0  0  0  0  0  0  0  0  0
  -38.9660   61.0346   63.5269 O   0  0  0  0  0  0  0  0  0  0  0  0
  -36.7894   61.6364   61.7727 O   0  0  0  0  0  0  0  0  0  0  0  0
  -35.7262   64.2555   64.8401 O   0  0  0  0  0  0  0  0  0  0  0  0
  -37.4962   61.8411   65.2803 O   0  0  0  0  0  0  0  0  0  0  0  0
  -37.5720   61.2772   63.9484 C   0  0  0  0  0  0  0  0  0  0  0  0
  -36.7447   62.2036   63.0457 C   0  0  0  0  0  0  0  0  0  0  0  0
  -35.2648   62.3248   63.4710 C   0  0  0  0  0  0  0  0  0  0  0  0
  -35.2724   62.9043   64.8587 C   0  0  0  0  0  0  0  0  0  0  0  0
  -36.1432   62.0539   65.7658 C   0  0  0  0  0  0  0  0  0  0  0  0
  -37.7129   61.5523   61.4885 H   0  0  0  0  0  0  0  0  0  0  0  0
  -35.1568   64.7799   64.2556 H   0  0  0  0  0  0  0  0  0  0  0  0
  -34.6781   62.9225   67.4429 O   0  0  0  0  0  0  0  0  0  0  0  0
  -36.0235   62.8064   67.0893 C   0  0  0  0  0  0  0  0  0  0  0  0
  -34.6049   63.4007   68.2836 H   0  0  0  0  0  0  0  0  0  0  0  0
  -34.4452   63.2073   62.6714 O   0  0  0  0  0  0  0  0  0  0  0  0
  -32.2944   63.8645   61.3833 O   0  0  0  0  0  0  0  0  0  0  0  0
  -32.5514   61.5957   62.2053 O   0  0  0  0  0  0  0  0  0  0  0  0
  -32.0342   63.3978   63.7414 O   0  0  0  0  0  0  0  0  0  0  0  0
  -32.7972   63.0305   62.5149 S   0  0  0  0  0  0  0  0  0  0  0  0
  -32.7803   63.6390   60.5747 H   0  0  0  0  0  0  0  0  0  0  0  0
  -32.1887   64.3323   63.9506 H   0  0  0  0  0  0  0  0  0  0  0  0
  2  1  1  0  0  0
  2  4  1  0  0  0
  2  5  1  0  0  0
 41 42  1  0  0  0
 41  1  1  0  0  0
 42 46  1  0  0  0
  1 24  1  0  0  0
 23 24  1  0  0  0
 23 25  1  0  0  0
 24 26  1  0  0  0
  3  4  2  0  0  0
 26 27  2  0  0  0
 27 28  1  0  0  0
 43 47  1  0  0  0
 43 51  1  0  0  0
 28 29  1  0  0  0
 56 48  1  0  0  0
 56 60  1  0  0  0
 29 30  1  0  0  0
 57 60  1  0  0  0
 57 61  1  0  0  0
 30 31  1  0  0  0
 44 49  1  0  0  0
 44 52  1  0  0  0
 31 32  1  0  0  0
 45 46  1  0  0  0
 45 50  1  0  0  0
 32 33  1  0  0  0
 53 54  1  0  0  0
 53 55  1  0  0  0
 33 34  1  0  0  0
 34 35  1  0  0  0
 35 36  1  0  0  0
 58 60  1  0  0  0
 36 37  1  0  0  0
 59 60  1  0  0  0
 59 62  1  0  0  0
 37 38  1  0  0  0
 38 39  1  0  0  0
 39 40  1  0  0  0
  4  6  1  0  0  0
  6  7  1  0  0  0
  7  8  1  0  0  0
  8  9  1  0  0  0
  9 10  1  0  0  0
 10 11  1  0  0  0
 11 12  1  0  0  0
 12 13  1  0  0  0
 13 14  1  0  0  0
 14 15  1  0  0  0
 15 16  1  0  0  0
 16 17  1  0  0  0
 17 18  1  0  0  0
 18 19  1  0  0  0
 19 20  1  0  0  0
 20 21  1  0  0  0
 21 22  1  0  0  0
 46 47  1  0  0  0
 47 48  1  0  0  0
 48 49  1  0  0  0
 49 50  1  0  0  0
 50 54  1  0  0  0
M  CHG 1  58  -1
M  END
> <minimizedAffinity>
-9.69507

> <CNNscore>
0.2881302238

> <CNNaffinity>
7.3394379616

> <CNN_VS>
2.1147139072

> <CNNaffinity_variance>
1.0794041157

$$$$
/media/chris/experiments/cd1a-new-docking/inputs/ligands/1onq_ligand.pdb


 62 62  0  0  0  0  0  0  0  0999 V2000
  -39.2036   59.2517   63.6196 C   0  0  0  0  0  0  0  0  0  0  0  0
  -40.6339   59.1651   63.8385 N   0  0  0  0  0  0  0  0  0  0  0  0
  -41.0342   61.0098   65.0971 O   0  0  0  0  0  0  0  0  0  0  0  0
  -41.4169   60.0063   64.5276 C   0  0  0  0  0  0  0  0  0  0  0  0
  -41.0864   58.3919   63.4302 H   0  0  0  0  0  0  0  0  0  0  0  0
  -42.8711   59.6405   64.5617 C   0  0  0  0  0  0  0  0  0  0  0  0
  -43.1177   58.9698   65.9132 C   0  0  0  0  0  0  0  0  0  0  0  0
  -44.4062   58.1523   65.8624 C   0  0  0  0  0  0  0  0  0  0  0  0
  -45.6933   58.9401   65.8930 C   0  0  0  0  0  0  0  0  0  0  0  0
  -46.5601   58.4518   64.7370 C   0  0  0  0  0  0  0  0  0  0  0  0
  -47.8839   57.8349   65.2079 C   0  0  0  0  0  0  0  0  0  0  0  0
  -48.9380   58.8647   65.6536 C   0  0  0  0  0  0  0  0  0  0  0  0
  -50.3544   58.5390   65.1309 C   0  0  0  0  0  0  0  0  0  0  0  0
  -50.9146   59.7124   64.3219 C   0  0  0  0  0  0  0  0  0  0  0  0
  -51.4620   59.3454   62.9479 C   0  0  0  0  0  0  0  0  0  0  0  0
  -50.7308   58.1614   62.3326 C   0  0  0  0  0  0  0  0  0  0  0  0
  -49.9057   58.4600   61.0787 C   0  0  0  0  0  0  0  0  0  0  0  0
  -50.2991   57.4589   60.0008 C   0  0  0  0  0  0  0  0  0  0  0  0
  -49.2476   56.4840   59.4920 C   0  0  0  0  0  0  0  0  0  0  0  0
  -48.2998   57.1688   58.4946 C   0  0  0  0  0  0  0  0  0  0  0  0
  -48.2338   56.4957   57.1112 C   0  0  0  0  0  0  0  0  0  0  0  0
  -47.4690   55.1741   57.1185 C   0  0  0  0  0  0  0  0  0  0  0  0
  -38.5577   60.0896   65.6876 O   0  0  0  0  0  0  0  0  0  0  0  0
  -38.6374   58.8685   64.9761 C   0  0  0  0  0  0  0  0  0  0  0  0
  -39.4466   60.4657   65.7849 H   0  0  0  0  0  0  0  0  0  0  0  0
  -37.2638   58.2204   64.7874 C   0  0  0  0  0  0  0  0  0  0  0  0
  -36.1144   58.9155   64.8305 C   0  0  0  0  0  0  0  0  0  0  0  0
  -34.7823   58.1951   64.6314 C   0  0  0  0  0  0  0  0  0  0  0  0
  -33.9441   58.7477   63.4694 C   0  0  0  0  0  0  0  0  0  0  0  0
  -33.2349   57.6938   62.5990 C   0  0  0  0  0  0  0  0  0  0  0  0
  -34.2634   56.7433   61.9402 C   0  0  0  0  0  0  0  0  0  0  0  0
  -35.3938   57.4417   61.1428 C   0  0  0  0  0  0  0  0  0  0  0  0
  -36.8212   57.0551   61.5967 C   0  0  0  0  0  0  0  0  0  0  0  0
  -37.9347   57.6560   60.7118 C   0  0  0  0  0  0  0  0  0  0  0  0
  -37.4343   58.7176   59.7249 C   0  0  0  0  0  0  0  0  0  0  0  0
  -37.4192   58.3115   58.2527 C   0  0  0  0  0  0  0  0  0  0  0  0
  -37.2937   56.7923   58.0238 C   0  0  0  0  0  0  0  0  0  0  0  0
  -36.0164   56.3429   57.2981 C   0  0  0  0  0  0  0  0  0  0  0  0
  -34.7930   56.4670   58.2108 C   0  0  0  0  0  0  0  0  0  0  0  0
  -33.6924   57.4019   57.7411 C   0  0  0  0  0  0  0  0  0  0  0  0
  -38.7040   60.5769   63.0007 C   0  0  0  0  0  0  0  0  0  0  0  0
  -38.3036   61.6159   63.9299 O   0  0  0  0  0  0  0  0  0  0  0  0
  -36.3618   62.2008   61.9138 O   0  0  0  0  0  0  0  0  0  0  0  0
  -35.0379   64.9754   64.7331 O   0  0  0  0  0  0  0  0  0  0  0  0
  -36.6690   62.5353   65.4689 O   0  0  0  0  0  0  0  0  0  0  0  0
  -36.8788   61.9135   64.1777 C   0  0  0  0  0  0  0  0  0  0  0  0
  -36.1898   62.8226   63.1500 C   0  0  0  0  0  0  0  0  0  0  0  0
  -34.6755   63.0014   63.3964 C   0  0  0  0  0  0  0  0  0  0  0  0
  -34.5426   63.6388   64.7519 C   0  0  0  0  0  0  0  0  0  0  0  0
  -35.2768   62.8047   65.7861 C   0  0  0  0  0  0  0  0  0  0  0  0
  -37.3087   62.0800   61.7417 H   0  0  0  0  0  0  0  0  0  0  0  0
  -34.5560   65.4896   64.0666 H   0  0  0  0  0  0  0  0  0  0  0  0
  -34.1845   62.9051   67.9099 O   0  0  0  0  0  0  0  0  0  0  0  0
  -35.0303   63.6157   67.0565 C   0  0  0  0  0  0  0  0  0  0  0  0
  -34.0296   63.4222   68.7158 H   0  0  0  0  0  0  0  0  0  0  0  0
  -33.9810   63.8708   62.4735 O   0  0  0  0  0  0  0  0  0  0  0  0
  -31.8016   64.6102   61.2816 O   0  0  0  0  0  0  0  0  0  0  0  0
  -31.6845   63.0248   63.1153 O   0  0  0  0  0  0  0  0  0  0  0  0
  -32.0932   65.3726   63.5575 O   0  0  0  0  0  0  0  0  0  0  0  0
  -32.3661   64.2499   62.6159 S   0  0  0  0  0  0  0  0  0  0  0  0
  -31.9700   63.8899   60.6542 H   0  0  0  0  0  0  0  0  0  0  0  0
  -32.5341   66.1759   63.2394 H   0  0  0  0  0  0  0  0  0  0  0  0
  2  1  1  0  0  0
  2  4  1  0  0  0
  2  5  1  0  0  0
 41 42  1  0  0  0
 41  1  1  0  0  0
 42 46  1  0  0  0
  1 24  1  0  0  0
 23 24  1  0  0  0
 23 25  1  0  0  0
 24 26  1  0  0  0
  3  4  2  0  0  0
 26 27  2  0  0  0
 27 28  1  0  0  0
 43 47  1  0  0  0
 43 51  1  0  0  0
 28 29  1  0  0  0
 56 48  1  0  0  0
 56 60  1  0  0  0
 29 30  1  0  0  0
 57 60  1  0  0  0
 57 61  1  0  0  0
 30 31  1  0  0  0
 44 49  1  0  0  0
 44 52  1  0  0  0
 31 32  1  0  0  0
 45 46  1  0  0  0
 45 50  1  0  0  0
 32 33  1  0  0  0
 53 54  1  0  0  0
 53 55  1  0  0  0
 33 34  1  0  0  0
 34 35  1  0  0  0
 35 36  1  0  0  0
 58 60  1  0  0  0
 36 37  1  0  0  0
 59 60  1  0  0  0
 59 62  1  0  0  0
 37 38  1  0  0  0
 38 39  1  0  0  0
 39 40  1  0  0  0
  4  6  1  0  0  0
  6  7  1  0  0  0
  7  8  1  0  0  0
  8  9  1  0  0  0
  9 10  1  0  0  0
 10 11  1  0  0  0
 11 12  1  0  0  0
 12 13  1  0  0  0
 13 14  1  0  0  0
 14 15  1  0  0  0
 15 16  1  0  0  0
 16 17  1  0  0  0
 17 18  1  0  0  0
 18 19  1  0  0  0
 19 20  1  0  0  0
 20 21  1  0  0  0
 21 22  1  0  0  0
 46 47  1  0  0  0
 47 48  1  0  0  0
 48 49  1  0  0  0
 49 50  1  0  0  0
 50 54  1  0  0  0
M  CHG 1  58  -1
M  END
> <minimizedAffinity>
-9.48556

> <CNNscore>
0.2134650201

> <CNNaffinity>
7.0645508766

> <CNN_VS>
1.5080344677

> <CNNaffinity_variance>
0.8723082542

$$$$
/media/chris/experiments/cd1a-new-docking/inputs/ligands/1onq_ligand.pdb


 62 62  0  0  0  0  0  0  0  0999 V2000
  -40.5560   60.6386   65.0795 C   0  0  0  0  0  0  0  0  0  0  0  0
  -41.3289   59.7642   65.9393 N   0  0  0  0  0  0  0  0  0  0  0  0
  -40.8028   57.7125   65.1263 O   0  0  0  0  0  0  0  0  0  0  0  0
  -41.3990   58.4264   65.9090 C   0  0  0  0  0  0  0  0  0  0  0  0
  -41.8698   60.2086   66.6316 H   0  0  0  0  0  0  0  0  0  0  0  0
  -42.2897   57.8109   66.9471 C   0  0  0  0  0  0  0  0  0  0  0  0
  -43.2550   56.8909   66.1995 C   0  0  0  0  0  0  0  0  0  0  0  0
  -44.5469   57.6394   65.8801 C   0  0  0  0  0  0  0  0  0  0  0  0
  -45.7215   56.7878   65.4638 C   0  0  0  0  0  0  0  0  0  0  0  0
  -46.8201   56.9774   66.5045 C   0  0  0  0  0  0  0  0  0  0  0  0
  -48.2122   57.1278   65.8765 C   0  0  0  0  0  0  0  0  0  0  0  0
  -48.7809   58.5574   65.9349 C   0  0  0  0  0  0  0  0  0  0  0  0
  -50.2791   58.6232   65.5656 C   0  0  0  0  0  0  0  0  0  0  0  0
  -50.4802   59.3999   64.2613 C   0  0  0  0  0  0  0  0  0  0  0  0
  -51.1009   58.5992   63.1230 C   0  0  0  0  0  0  0  0  0  0  0  0
  -50.0562   58.0779   62.1472 C   0  0  0  0  0  0  0  0  0  0  0  0
  -49.6164   59.0515   61.0513 C   0  0  0  0  0  0  0  0  0  0  0  0
  -48.9179   58.2536   59.9585 C   0  0  0  0  0  0  0  0  0  0  0  0
  -49.5167   56.9214   59.5321 C   0  0  0  0  0  0  0  0  0  0  0  0
  -48.4151   55.8825   59.2689 C   0  0  0  0  0  0  0  0  0  0  0  0
  -47.3361   56.3355   58.2680 C   0  0  0  0  0  0  0  0  0  0  0  0
  -47.8607   56.4870   56.8420 C   0  0  0  0  0  0  0  0  0  0  0  0
  -42.6924   60.2184   64.2701 O   0  0  0  0  0  0  0  0  0  0  0  0
  -41.4692   60.8136   63.8783 C   0  0  0  0  0  0  0  0  0  0  0  0
  -43.0494   60.6895   65.0393 H   0  0  0  0  0  0  0  0  0  0  0  0
  -40.8506   60.1151   62.6651 C   0  0  0  0  0  0  0  0  0  0  0  0
  -40.6749   60.7248   61.4804 C   0  0  0  0  0  0  0  0  0  0  0  0
  -40.0505   59.9583   60.3160 C   0  0  0  0  0  0  0  0  0  0  0  0
  -38.5170   59.8921   60.3664 C   0  0  0  0  0  0  0  0  0  0  0  0
  -37.9130   58.4773   60.4371 C   0  0  0  0  0  0  0  0  0  0  0  0
  -38.2313   57.8116   61.7976 C   0  0  0  0  0  0  0  0  0  0  0  0
  -37.0065   57.5573   62.7124 C   0  0  0  0  0  0  0  0  0  0  0  0
  -35.6798   58.1401   62.1712 C   0  0  0  0  0  0  0  0  0  0  0  0
  -34.4258   57.3957   62.6785 C   0  0  0  0  0  0  0  0  0  0  0  0
  -33.6427   56.6791   61.5719 C   0  0  0  0  0  0  0  0  0  0  0  0
  -34.4789   56.0161   60.4793 C   0  0  0  0  0  0  0  0  0  0  0  0
  -33.7022   55.7421   59.1763 C   0  0  0  0  0  0  0  0  0  0  0  0
  -33.9641   56.7380   58.0363 C   0  0  0  0  0  0  0  0  0  0  0  0
  -35.3907   57.2906   58.1058 C   0  0  0  0  0  0  0  0  0  0  0  0
  -36.5107   56.3064   57.8181 C   0  0  0  0  0  0  0  0  0  0  0  0
  -39.1063   60.1829   64.7971 C   0  0  0  0  0  0  0  0  0  0  0  0
  -38.3446   60.9875   63.8612 O   0  0  0  0  0  0  0  0  0  0  0  0
  -36.3374   61.7443   61.9703 O   0  0  0  0  0  0  0  0  0  0  0  0
  -35.6273   64.7894   64.7311 O   0  0  0  0  0  0  0  0  0  0  0  0
  -36.9778   62.1841   65.4691 O   0  0  0  0  0  0  0  0  0  0  0  0
  -36.9968   61.4856   64.2004 C   0  0  0  0  0  0  0  0  0  0  0  0
  -36.3512   62.4353   63.1813 C   0  0  0  0  0  0  0  0  0  0  0  0
  -34.8992   62.8280   63.5322 C   0  0  0  0  0  0  0  0  0  0  0  0
  -34.9635   63.5343   64.8582 C   0  0  0  0  0  0  0  0  0  0  0  0
  -35.6641   62.6529   65.8764 C   0  0  0  0  0  0  0  0  0  0  0  0
  -37.2427   61.4890   61.7334 H   0  0  0  0  0  0  0  0  0  0  0  0
  -35.1640   65.3355   64.0769 H   0  0  0  0  0  0  0  0  0  0  0  0
  -36.3521   62.9365   68.1479 O   0  0  0  0  0  0  0  0  0  0  0  0
  -35.6321   63.5428   67.1171 C   0  0  0  0  0  0  0  0  0  0  0  0
  -36.3303   63.5035   68.9346 H   0  0  0  0  0  0  0  0  0  0  0  0
  -34.2515   63.7437   62.6200 O   0  0  0  0  0  0  0  0  0  0  0  0
  -32.0094   64.4381   61.5213 O   0  0  0  0  0  0  0  0  0  0  0  0
  -31.9895   63.2835   63.6557 O   0  0  0  0  0  0  0  0  0  0  0  0
  -32.6283   65.6186   63.5386 O   0  0  0  0  0  0  0  0  0  0  0  0
  -32.6994   64.3048   62.8384 S   0  0  0  0  0  0  0  0  0  0  0  0
  -32.0456   63.5910   61.0501 H   0  0  0  0  0  0  0  0  0  0  0  0
  -33.0889   66.2908   63.0123 H   0  0  0  0  0  0  0  0  0  0  0  0
  2  1  1  0  0  0
  2  4  1  0  0  0
  2  5  1  0  0  0
 41 42  1  0  0  0
 41  1  1  0  0  0
 42 46  1  0  0  0
  1 24  1  0  0  0
 23 24  1  0  0  0
 23 25  1  0  0  0
 24 26  1  0  0  0
  3  4  2  0  0  0
 26 27  2  0  0  0
 27 28  1  0  0  0
 43 47  1  0  0  0
 43 51  1  0  0  0
 28 29  1  0  0  0
 56 48  1  0  0  0
 56 60  1  0  0  0
 29 30  1  0  0  0
 57 60  1  0  0  0
 57 61  1  0  0  0
 30 31  1  0  0  0
 44 49  1  0  0  0
 44 52  1  0  0  0
 31 32  1  0  0  0
 45 46  1  0  0  0
 45 50  1  0  0  0
 32 33  1  0  0  0
 53 54  1  0  0  0
 53 55  1  0  0  0
 33 34  1  0  0  0
 34 35  1  0  0  0
 35 36  1  0  0  0
 58 60  1  0  0  0
 36 37  1  0  0  0
 59 60  1  0  0  0
 59 62  1  0  0  0
 37 38  1  0  0  0
 38 39  1  0  0  0
 39 40  1  0  0  0
  4  6  1  0  0  0
  6  7  1  0  0  0
  7  8  1  0  0  0
  8  9  1  0  0  0
  9 10  1  0  0  0
 10 11  1  0  0  0
 11 12  1  0  0  0
 12 13  1  0  0  0
 13 14  1  0  0  0
 14 15  1  0  0  0
 15 16  1  0  0  0
 16 17  1  0  0  0
 17 18  1  0  0  0
 18 19  1  0  0  0
 19 20  1  0  0  0
 20 21  1  0  0  0
 21 22  1  0  0  0
 46 47  1  0  0  0
 47 48  1  0  0  0
 48 49  1  0  0  0
 49 50  1  0  0  0
 50 54  1  0  0  0
M  CHG 1  58  -1
M  END
> <minimizedAffinity>
-9.51765

> <CNNscore>
0.2067951262

> <CNNaffinity>
7.2412772179

> <CNN_VS>
1.4974608421

> <CNNaffinity_variance>
0.5306166410

$$$$
/media/chris/experiments/cd1a-new-docking/inputs/ligands/1onq_ligand.pdb


 62 62  0  0  0  0  0  0  0  0999 V2000
  -37.3197   59.9424   64.2093 C   0  0  0  0  0  0  0  0  0  0  0  0
  -38.5047   59.8727   65.0413 N   0  0  0  0  0  0  0  0  0  0  0  0
  -40.0480   60.9317   63.7591 O   0  0  0  0  0  0  0  0  0  0  0  0
  -39.7295   60.3473   64.7763 C   0  0  0  0  0  0  0  0  0  0  0  0
  -38.3961   59.4205   65.9090 H   0  0  0  0  0  0  0  0  0  0  0  0
  -40.7522   60.1060   65.8467 C   0  0  0  0  0  0  0  0  0  0  0  0
  -41.4893   58.8235   65.4606 C   0  0  0  0  0  0  0  0  0  0  0  0
  -42.6269   58.5595   66.4441 C   0  0  0  0  0  0  0  0  0  0  0  0
  -43.8122   57.8003   65.8992 C   0  0  0  0  0  0  0  0  0  0  0  0
  -45.0603   58.6298   66.1820 C   0  0  0  0  0  0  0  0  0  0  0  0
  -46.2797   58.1596   65.3775 C   0  0  0  0  0  0  0  0  0  0  0  0
  -47.4533   57.6625   66.2412 C   0  0  0  0  0  0  0  0  0  0  0  0
  -48.7205   57.3559   65.4132 C   0  0  0  0  0  0  0  0  0  0  0  0
  -49.7725   58.4511   65.6104 C   0  0  0  0  0  0  0  0  0  0  0  0
  -50.5209   58.8612   64.3478 C   0  0  0  0  0  0  0  0  0  0  0  0
  -49.7293   58.5597   63.0839 C   0  0  0  0  0  0  0  0  0  0  0  0
  -50.4790   58.7443   61.7624 C   0  0  0  0  0  0  0  0  0  0  0  0
  -50.9377   57.3747   61.2804 C   0  0  0  0  0  0  0  0  0  0  0  0
  -49.9932   56.5511   60.4174 C   0  0  0  0  0  0  0  0  0  0  0  0
  -49.3396   57.4218   59.3325 C   0  0  0  0  0  0  0  0  0  0  0  0
  -47.8186   57.6035   59.4901 C   0  0  0  0  0  0  0  0  0  0  0  0
  -47.0617   57.5335   58.1658 C   0  0  0  0  0  0  0  0  0  0  0  0
  -37.4507   57.7972   65.0908 O   0  0  0  0  0  0  0  0  0  0  0  0
  -37.0292   58.4789   63.9241 C   0  0  0  0  0  0  0  0  0  0  0  0
  -38.4021   57.9353   65.2200 H   0  0  0  0  0  0  0  0  0  0  0  0
  -35.5318   58.3012   63.6616 C   0  0  0  0  0  0  0  0  0  0  0  0
  -35.0490   57.6468   62.5916 C   0  0  0  0  0  0  0  0  0  0  0  0
  -33.5396   57.5111   62.4008 C   0  0  0  0  0  0  0  0  0  0  0  0
  -33.1289   56.3254   61.5156 C   0  0  0  0  0  0  0  0  0  0  0  0
  -34.2692   55.6578   60.7248 C   0  0  0  0  0  0  0  0  0  0  0  0
  -33.8989   55.5323   59.2272 C   0  0  0  0  0  0  0  0  0  0  0  0
  -33.5666   56.8671   58.5137 C   0  0  0  0  0  0  0  0  0  0  0  0
  -34.7565   57.4874   57.7442 C   0  0  0  0  0  0  0  0  0  0  0  0
  -35.9423   56.5170   57.5541 C   0  0  0  0  0  0  0  0  0  0  0  0
  -37.3033   57.1275   57.9092 C   0  0  0  0  0  0  0  0  0  0  0  0
  -37.2697   58.3840   58.7768 C   0  0  0  0  0  0  0  0  0  0  0  0
  -37.5956   58.1283   60.2615 C   0  0  0  0  0  0  0  0  0  0  0  0
  -38.7461   58.9703   60.8337 C   0  0  0  0  0  0  0  0  0  0  0  0
  -39.3612   59.8662   59.7547 C   0  0  0  0  0  0  0  0  0  0  0  0
  -40.6359   60.5999   60.1323 C   0  0  0  0  0  0  0  0  0  0  0  0
  -36.1579   60.7901   64.7753 C   0  0  0  0  0  0  0  0  0  0  0  0
  -34.8321   60.4942   64.2671 O   0  0  0  0  0  0  0  0  0  0  0  0
  -34.4453   63.1445   65.2688 O   0  0  0  0  0  0  0  0  0  0  0  0
  -30.5412   62.5135   63.9426 O   0  0  0  0  0  0  0  0  0  0  0  0
  -32.9123   60.9741   62.8638 O   0  0  0  0  0  0  0  0  0  0  0  0
  -34.0080   61.5375   63.6251 C   0  0  0  0  0  0  0  0  0  0  0  0
  -33.3830   62.5783   64.5651 C   0  0  0  0  0  0  0  0  0  0  0  0
  -32.6323   63.7089   63.8277 C   0  0  0  0  0  0  0  0  0  0  0  0
  -31.5242   63.0450   63.0576 C   0  0  0  0  0  0  0  0  0  0  0  0
  -32.0970   61.9559   62.1689 C   0  0  0  0  0  0  0  0  0  0  0  0
  -34.9294   62.4479   65.7392 H   0  0  0  0  0  0  0  0  0  0  0  0
  -30.1893   63.2250   64.5000 H   0  0  0  0  0  0  0  0  0  0  0  0
  -30.5139   60.1697   62.0409 O   0  0  0  0  0  0  0  0  0  0  0  0
  -30.8336   61.4169   61.5015 C   0  0  0  0  0  0  0  0  0  0  0  0
  -29.7112   59.8295   61.6154 H   0  0  0  0  0  0  0  0  0  0  0  0
  -31.9999   64.7025   64.6660 O   0  0  0  0  0  0  0  0  0  0  0  0
  -34.0982   66.2232   64.7010 O   0  0  0  0  0  0  0  0  0  0  0  0
  -31.9634   67.1118   65.4374 O   0  0  0  0  0  0  0  0  0  0  0  0
  -33.2005   65.5814   66.8524 O   0  0  0  0  0  0  0  0  0  0  0  0
  -32.8415   65.9103   65.4437 S   0  0  0  0  0  0  0  0  0  0  0  0
  -33.8842   66.4401   63.7802 H   0  0  0  0  0  0  0  0  0  0  0  0
  -33.7734   64.7988   66.8659 H   0  0  0  0  0  0  0  0  0  0  0  0
  2  1  1  0  0  0
  2  4  1  0  0  0
  2  5  1  0  0  0
 41 42  1  0  0  0
 41  1  1  0  0  0
 42 46  1  0  0  0
  1 24  1  0  0  0
 23 24  1  0  0  0
 23 25  1  0  0  0
 24 26  1  0  0  0
  3  4  2  0  0  0
 26 27  2  0  0  0
 27 28  1  0  0  0
 43 47  1  0  0  0
 43 51  1  0  0  0
 28 29  1  0  0  0
 56 48  1  0  0  0
 56 60  1  0  0  0
 29 30  1  0  0  0
 57 60  1  0  0  0
 57 61  1  0  0  0
 30 31  1  0  0  0
 44 49  1  0  0  0
 44 52  1  0  0  0
 31 32  1  0  0  0
 45 46  1  0  0  0
 45 50  1  0  0  0
 32 33  1  0  0  0
 53 54  1  0  0  0
 53 55  1  0  0  0
 33 34  1  0  0  0
 34 35  1  0  0  0
 35 36  1  0  0  0
 58 60  1  0  0  0
 36 37  1  0  0  0
 59 60  1  0  0  0
 59 62  1  0  0  0
 37 38  1  0  0  0
 38 39  1  0  0  0
 39 40  1  0  0  0
  4  6  1  0  0  0
  6  7  1  0  0  0
  7  8  1  0  0  0
  8  9  1  0  0  0
  9 10  1  0  0  0
 10 11  1  0  0  0
 11 12  1  0  0  0
 12 13  1  0  0  0
 13 14  1  0  0  0
 14 15  1  0  0  0
 15 16  1  0  0  0
 16 17  1  0  0  0
 17 18  1  0  0  0
 18 19  1  0  0  0
 19 20  1  0  0  0
 20 21  1  0  0  0
 21 22  1  0  0  0
 46 47  1  0  0  0
 47 48  1  0  0  0
 48 49  1  0  0  0
 49 50  1  0  0  0
 50 54  1  0  0  0
M  CHG 1  58  -1
M  END
> <minimizedAffinity>
-9.08807

> <CNNscore>
0.1848930568

> <CNNaffinity>
6.7524704933

> <CNN_VS>
1.2484849691

> <CNNaffinity_variance>
1.4129912853

$$$$
