/media/chris/experiments/cd1a-new-docking/inputs/ligands/1onq_ligand.pdb


 62 62  0  0  0  0  0  0  0  0999 V2000
  -40.1912   58.8830   64.8471 C   0  0  0  0  0  0  0  0  0  0  0  0
  -41.2454   58.3176   65.6657 N   0  0  0  0  0  0  0  0  0  0  0  0
  -43.0873   59.3696   64.8609 O   0  0  0  0  0  0  0  0  0  0  0  0
  -42.5580   58.5835   65.6222 C   0  0  0  0  0  0  0  0  0  0  0  0
  -40.9616   57.6558   66.3371 H   0  0  0  0  0  0  0  0  0  0  0  0
  -43.3961   57.8199   66.6041 C   0  0  0  0  0  0  0  0  0  0  0  0
  -44.3810   56.9902   65.7802 C   0  0  0  0  0  0  0  0  0  0  0  0
  -45.7423   56.9591   66.4709 C   0  0  0  0  0  0  0  0  0  0  0  0
  -46.3255   58.2993   66.8482 C   0  0  0  0  0  0  0  0  0  0  0  0
  -46.6810   59.0273   65.5562 C   0  0  0  0  0  0  0  0  0  0  0  0
  -47.8526   58.3742   64.8107 C   0  0  0  0  0  0  0  0  0  0  0  0
  -49.1657   58.3282   65.6133 C   0  0  0  0  0  0  0  0  0  0  0  0
  -50.4182   58.4990   64.7259 C   0  0  0  0  0  0  0  0  0  0  0  0
  -50.0264   58.5732   63.2473 C   0  0  0  0  0  0  0  0  0  0  0  0
  -51.1744   58.3737   62.2652 C   0  0  0  0  0  0  0  0  0  0  0  0
  -50.7918   57.4637   61.1073 C   0  0  0  0  0  0  0  0  0  0  0  0
  -49.3668   57.6221   60.5719 C   0  0  0  0  0  0  0  0  0  0  0  0
  -49.3509   57.1649   59.1195 C   0  0  0  0  0  0  0  0  0  0  0  0
  -48.3915   56.0555   58.7147 C   0  0  0  0  0  0  0  0  0  0  0  0
  -47.4850   56.5071   57.5586 C   0  0  0  0  0  0  0  0  0  0  0  0
  -46.6980   57.8019   57.8326 C   0  0  0  0  0  0  0  0  0  0  0  0
  -45.6484   57.6497   58.9312 C   0  0  0  0  0  0  0  0  0  0  0  0
  -38.0430   58.1278   65.3061 O   0  0  0  0  0  0  0  0  0  0  0  0
  -39.2401   57.7109   64.6762 C   0  0  0  0  0  0  0  0  0  0  0  0
  -38.2130   58.2924   66.2467 H   0  0  0  0  0  0  0  0  0  0  0  0
  -39.0405   57.4335   63.1843 C   0  0  0  0  0  0  0  0  0  0  0  0
  -37.8291   57.3877   62.6042 C   0  0  0  0  0  0  0  0  0  0  0  0
  -37.7131   57.1057   61.1073 C   0  0  0  0  0  0  0  0  0  0  0  0
  -37.5422   58.3673   60.2485 C   0  0  0  0  0  0  0  0  0  0  0  0
  -37.6701   58.1609   58.7279 C   0  0  0  0  0  0  0  0  0  0  0  0
  -36.2859   58.2571   58.0422 C   0  0  0  0  0  0  0  0  0  0  0  0
  -35.5902   56.9009   57.7626 C   0  0  0  0  0  0  0  0  0  0  0  0
  -34.0530   56.9309   57.9319 C   0  0  0  0  0  0  0  0  0  0  0  0
  -33.5259   55.9158   58.9691 C   0  0  0  0  0  0  0  0  0  0  0  0
  -34.5287   55.5948   60.0840 C   0  0  0  0  0  0  0  0  0  0  0  0
  -34.4141   56.4367   61.3530 C   0  0  0  0  0  0  0  0  0  0  0  0
  -32.9641   56.7799   61.7477 C   0  0  0  0  0  0  0  0  0  0  0  0
  -32.8063   58.0066   62.6588 C   0  0  0  0  0  0  0  0  0  0  0  0
  -34.1629   58.6564   62.9461 C   0  0  0  0  0  0  0  0  0  0  0  0
  -34.6316   58.6309   64.3901 C   0  0  0  0  0  0  0  0  0  0  0  0
  -39.5851   60.2076   65.3637 C   0  0  0  0  0  0  0  0  0  0  0  0
  -38.8443   61.0004   64.4015 O   0  0  0  0  0  0  0  0  0  0  0  0
  -36.9368   61.3039   62.2928 O   0  0  0  0  0  0  0  0  0  0  0  0
  -35.4677   64.3263   64.7638 O   0  0  0  0  0  0  0  0  0  0  0  0
  -37.1476   62.0311   65.7958 O   0  0  0  0  0  0  0  0  0  0  0  0
  -37.4062   61.2797   64.5851 C   0  0  0  0  0  0  0  0  0  0  0  0
  -36.7172   62.0506   63.4498 C   0  0  0  0  0  0  0  0  0  0  0  0
  -35.1932   62.2089   63.6430 C   0  0  0  0  0  0  0  0  0  0  0  0
  -35.0095   62.9853   64.9177 C   0  0  0  0  0  0  0  0  0  0  0  0
  -35.7411   62.2909   66.0521 C   0  0  0  0  0  0  0  0  0  0  0  0
  -37.8905   61.1940   62.1551 H   0  0  0  0  0  0  0  0  0  0  0  0
  -34.9878   64.7504   64.0351 H   0  0  0  0  0  0  0  0  0  0  0  0
  -36.5998   63.9200   67.5760 O   0  0  0  0  0  0  0  0  0  0  0  0
  -35.4411   63.2270   67.2209 C   0  0  0  0  0  0  0  0  0  0  0  0
  -36.4067   64.5137   68.3184 H   0  0  0  0  0  0  0  0  0  0  0  0
  -34.4973   62.9516   62.6163 O   0  0  0  0  0  0  0  0  0  0  0  0
  -32.4293   63.9453   61.4109 O   0  0  0  0  0  0  0  0  0  0  0  0
  -32.4097   61.6187   62.1004 O   0  0  0  0  0  0  0  0  0  0  0  0
  -32.1438   63.3797   63.7443 O   0  0  0  0  0  0  0  0  0  0  0  0
  -32.8381   62.9913   62.4840 S   0  0  0  0  0  0  0  0  0  0  0  0
  -32.8721   63.7078   60.5812 H   0  0  0  0  0  0  0  0  0  0  0  0
  -32.4176   64.2740   64.0018 H   0  0  0  0  0  0  0  0  0  0  0  0
  2  1  1  0  0  0
  2  4  1  0  0  0
  2  5  1  0  0  0
 41 42  1  0  0  0
 41  1  1  0  0  0
 42 46  1  0  0  0
  1 24  1  0  0  0
 23 24  1  0  0  0
 23 25  1  0  0  0
 24 26  1  0  0  0
  3  4  2  0  0  0
 26 27  2  0  0  0
 27 28  1  0  0  0
 43 47  1  0  0  0
 43 51  1  0  0  0
 28 29  1  0  0  0
 56 48  1  0  0  0
 56 60  1  0  0  0
 29 30  1  0  0  0
 57 60  1  0  0  0
 57 61  1  0  0  0
 30 31  1  0  0  0
 44 49  1  0  0  0
 44 52  1  0  0  0
 31 32  1  0  0  0
 45 46  1  0  0  0
 45 50  1  0  0  0
 32 33  1  0  0  0
 53 54  1  0  0  0
 53 55  1  0  0  0
 33 34  1  0  0  0
 34 35  1  0  0  0
 35 36  1  0  0  0
 58 60  1  0  0  0
 36 37  1  0  0  0
 59 60  1  0  0  0
 59 62  1  0  0  0
 37 38  1  0  0  0
 38 39  1  0  0  0
 39 40  1  0  0  0
  4  6  1  0  0  0
  6  7  1  0  0  0
  7  8  1  0  0  0
  8  9  1  0  0  0
  9 10  1  0  0  0
 10 11  1  0  0  0
 11 12  1  0  0  0
 12 13  1  0  0  0
 13 14  1  0  0  0
 14 15  1  0  0  0
 15 16  1  0  0  0
 16 17  1  0  0  0
 17 18  1  0  0  0
 18 19  1  0  0  0
 19 20  1  0  0  0
 20 21  1  0  0  0
 21 22  1  0  0  0
 46 47  1  0  0  0
 47 48  1  0  0  0
 48 49  1  0  0  0
 49 50  1  0  0  0
 50 54  1  0  0  0
M  CHG 1  58  -1
M  END
> <minimizedAffinity>
-10.27252

> <CNNscore>
0.3343532681

> <CNNaffinity>
7.0740256310

> <CNN_VS>
2.3652236462

> <CNNaffinity_variance>
1.5505002737

$$$$
/media/chris/experiments/cd1a-new-docking/inputs/ligands/1onq_ligand.pdb


 62 62  0  0  0  0  0  0  0  0999 V2000
  -40.2422   58.9745   64.9409 C   0  0  0  0  0  0  0  0  0  0  0  0
  -40.2213   59.3983   63.5548 N   0  0  0  0  0  0  0  0  0  0  0  0
  -41.2286   61.4282   63.6638 O   0  0  0  0  0  0  0  0  0  0  0  0
  -40.6915   60.5391   63.0323 C   0  0  0  0  0  0  0  0  0  0  0  0
  -39.8104   58.7697   62.9181 H   0  0  0  0  0  0  0  0  0  0  0  0
  -40.5094   60.6845   61.5506 C   0  0  0  0  0  0  0  0  0  0  0  0
  -39.5560   59.5699   61.1197 C   0  0  0  0  0  0  0  0  0  0  0  0
  -38.5783   60.0960   60.0716 C   0  0  0  0  0  0  0  0  0  0  0  0
  -37.4330   59.1802   59.7139 C   0  0  0  0  0  0  0  0  0  0  0  0
  -37.8388   58.3998   58.4681 C   0  0  0  0  0  0  0  0  0  0  0  0
  -36.6520   57.6955   57.7968 C   0  0  0  0  0  0  0  0  0  0  0  0
  -36.6178   56.1713   58.0112 C   0  0  0  0  0  0  0  0  0  0  0  0
  -36.5160   55.7766   59.5010 C   0  0  0  0  0  0  0  0  0  0  0  0
  -35.1746   55.0964   59.7890 C   0  0  0  0  0  0  0  0  0  0  0  0
  -33.9487   55.9812   59.5979 C   0  0  0  0  0  0  0  0  0  0  0  0
  -33.9610   57.1915   60.5199 C   0  0  0  0  0  0  0  0  0  0  0  0
  -33.2770   57.0084   61.8767 C   0  0  0  0  0  0  0  0  0  0  0  0
  -33.1714   58.3730   62.5441 C   0  0  0  0  0  0  0  0  0  0  0  0
  -34.1658   58.7279   63.6398 C   0  0  0  0  0  0  0  0  0  0  0  0
  -34.9097   57.4769   64.1334 C   0  0  0  0  0  0  0  0  0  0  0  0
  -36.4406   57.6286   64.1990 C   0  0  0  0  0  0  0  0  0  0  0  0
  -37.1368   57.3040   62.8793 C   0  0  0  0  0  0  0  0  0  0  0  0
  -41.4169   60.1951   66.5302 O   0  0  0  0  0  0  0  0  0  0  0  0
  -41.6342   59.3834   65.3910 C   0  0  0  0  0  0  0  0  0  0  0  0
  -40.8993   60.9754   66.2772 H   0  0  0  0  0  0  0  0  0  0  0  0
  -42.4482   58.1304   65.7225 C   0  0  0  0  0  0  0  0  0  0  0  0
  -43.7743   58.0450   65.5217 C   0  0  0  0  0  0  0  0  0  0  0  0
  -44.5161   56.7584   65.8796 C   0  0  0  0  0  0  0  0  0  0  0  0
  -46.0454   56.8968   65.8609 C   0  0  0  0  0  0  0  0  0  0  0  0
  -46.6039   57.9960   64.9384 C   0  0  0  0  0  0  0  0  0  0  0  0
  -48.1489   57.9282   64.8760 C   0  0  0  0  0  0  0  0  0  0  0  0
  -48.7620   58.0929   63.4624 C   0  0  0  0  0  0  0  0  0  0  0  0
  -50.2704   58.4355   63.4622 C   0  0  0  0  0  0  0  0  0  0  0  0
  -50.8730   58.5699   62.0470 C   0  0  0  0  0  0  0  0  0  0  0  0
  -50.8141   57.2767   61.2251 C   0  0  0  0  0  0  0  0  0  0  0  0
  -50.1852   57.3908   59.8381 C   0  0  0  0  0  0  0  0  0  0  0  0
  -48.7716   58.0054   59.8405 C   0  0  0  0  0  0  0  0  0  0  0  0
  -47.6360   57.0373   59.4756 C   0  0  0  0  0  0  0  0  0  0  0  0
  -48.0850   56.0432   58.4008 C   0  0  0  0  0  0  0  0  0  0  0  0
  -47.8564   56.4591   56.9585 C   0  0  0  0  0  0  0  0  0  0  0  0
  -39.0556   59.4609   65.8037 C   0  0  0  0  0  0  0  0  0  0  0  0
  -38.7223   60.8694   65.7125 O   0  0  0  0  0  0  0  0  0  0  0  0
  -37.1650   60.8707   63.3143 O   0  0  0  0  0  0  0  0  0  0  0  0
  -35.7791   64.4981   64.8377 O   0  0  0  0  0  0  0  0  0  0  0  0
  -37.0015   62.3448   66.5769 O   0  0  0  0  0  0  0  0  0  0  0  0
  -37.3200   61.3188   65.6056 C   0  0  0  0  0  0  0  0  0  0  0  0
  -36.8912   61.8763   64.2406 C   0  0  0  0  0  0  0  0  0  0  0  0
  -35.3877   62.2187   64.1549 C   0  0  0  0  0  0  0  0  0  0  0  0
  -35.1375   63.2761   65.1944 C   0  0  0  0  0  0  0  0  0  0  0  0
  -35.6180   62.7886   66.5492 C   0  0  0  0  0  0  0  0  0  0  0  0
  -38.1067   60.6422   63.3540 H   0  0  0  0  0  0  0  0  0  0  0  0
  -35.4578   64.7909   63.9705 H   0  0  0  0  0  0  0  0  0  0  0  0
  -34.0120   64.4625   67.1254 O   0  0  0  0  0  0  0  0  0  0  0  0
  -35.2879   63.9881   67.4349 C   0  0  0  0  0  0  0  0  0  0  0  0
  -33.8047   65.2242   67.6891 H   0  0  0  0  0  0  0  0  0  0  0  0
  -34.9342   62.7740   62.8995 O   0  0  0  0  0  0  0  0  0  0  0  0
  -32.4394   62.0955   63.0805 O   0  0  0  0  0  0  0  0  0  0  0  0
  -33.0724   64.4196   63.3757 O   0  0  0  0  0  0  0  0  0  0  0  0
  -33.0524   63.4331   61.1619 O   0  0  0  0  0  0  0  0  0  0  0  0
  -33.3472   63.1792   62.6007 S   0  0  0  0  0  0  0  0  0  0  0  0
  -32.6170   61.9161   64.0171 H   0  0  0  0  0  0  0  0  0  0  0  0
  -33.2291   62.6290   60.6489 H   0  0  0  0  0  0  0  0  0  0  0  0
  2  1  1  0  0  0
  2  4  1  0  0  0
  2  5  1  0  0  0
 41 42  1  0  0  0
 41  1  1  0  0  0
 42 46  1  0  0  0
  1 24  1  0  0  0
 23 24  1  0  0  0
 23 25  1  0  0  0
 24 26  1  0  0  0
  3  4  2  0  0  0
 26 27  2  0  0  0
 27 28  1  0  0  0
 43 47  1  0  0  0
 43 51  1  0  0  0
 28 29  1  0  0  0
 56 48  1  0  0  0
 56 60  1  0  0  0
 29 30  1  0  0  0
 57 60  1  0  0  0
 57 61  1  0  0  0
 30 31  1  0  0  0
 44 49  1  0  0  0
 44 52  1  0  0  0
 31 32  1  0  0  0
 45 46  1  0  0  0
 45 50  1  0  0  0
 32 33  1  0  0  0
 53 54  1  0  0  0
 53 55  1  0  0  0
 33 34  1  0  0  0
 34 35  1  0  0  0
 35 36  1  0  0  0
 58 60  1  0  0  0
 36 37  1  0  0  0
 59 60  1  0  0  0
 59 62  1  0  0  0
 37 38  1  0  0  0
 38 39  1  0  0  0
 39 40  1  0  0  0
  4  6  1  0  0  0
  6  7  1  0  0  0
  7  8  1  0  0  0
  8  9  1  0  0  0
  9 10  1  0  0  0
 10 11  1  0  0  0
 11 12  1  0  0  0
 12 13  1  0  0  0
 13 14  1  0  0  0
 14 15  1  0  0  0
 15 16  1  0  0  0
 16 17  1  0  0  0
 17 18  1  0  0  0
 18 19  1  0  0  0
 19 20  1  0  0  0
 20 21  1  0  0  0
 21 22  1  0  0  0
 46 47  1  0  0  0
 47 48  1  0  0  0
 48 49  1  0  0  0
 49 50  1  0  0  0
 50 54  1  0  0  0
M  CHG 1  58  -1
M  END
> <minimizedAffinity>
-9.60080

> <CNNscore>
0.3260211647

> <CNNaffinity>
7.4018554688

> <CNN_VS>
2.4131615162

> <CNNaffinity_variance>
1.1387915611

$$$$
/media/chris/experiments/cd1a-new-docking/inputs/ligands/1onq_ligand.pdb


 62 62  0  0  0  0  0  0  0  0999 V2000
  -39.8557   58.6828   64.5571 C   0  0  0  0  0  0  0  0  0  0  0  0
  -40.9320   58.0010   65.2484 N   0  0  0  0  0  0  0  0  0  0  0  0
  -42.5656   59.5754   65.2532 O   0  0  0  0  0  0  0  0  0  0  0  0
  -42.1547   58.4671   65.5370 C   0  0  0  0  0  0  0  0  0  0  0  0
  -40.7409   57.0810   65.5423 H   0  0  0  0  0  0  0  0  0  0  0  0
  -43.0497   57.5048   66.2600 C   0  0  0  0  0  0  0  0  0  0  0  0
  -44.4391   58.1418   66.2871 C   0  0  0  0  0  0  0  0  0  0  0  0
  -45.4013   57.3316   65.4218 C   0  0  0  0  0  0  0  0  0  0  0  0
  -46.3094   58.1274   64.5160 C   0  0  0  0  0  0  0  0  0  0  0  0
  -46.6969   59.4027   65.2570 C   0  0  0  0  0  0  0  0  0  0  0  0
  -48.2135   59.5412   65.4460 C   0  0  0  0  0  0  0  0  0  0  0  0
  -48.9412   58.2112   65.7144 C   0  0  0  0  0  0  0  0  0  0  0  0
  -50.4191   58.2343   65.2663 C   0  0  0  0  0  0  0  0  0  0  0  0
  -50.7263   59.5145   64.4841 C   0  0  0  0  0  0  0  0  0  0  0  0
  -50.9994   59.3127   62.9985 C   0  0  0  0  0  0  0  0  0  0  0  0
  -50.6152   57.9186   62.5252 C   0  0  0  0  0  0  0  0  0  0  0  0
  -51.1776   57.4923   61.1672 C   0  0  0  0  0  0  0  0  0  0  0  0
  -50.0921   57.6937   60.1185 C   0  0  0  0  0  0  0  0  0  0  0  0
  -48.6421   57.4585   60.5152 C   0  0  0  0  0  0  0  0  0  0  0  0
  -47.8293   56.9131   59.3302 C   0  0  0  0  0  0  0  0  0  0  0  0
  -46.4055   57.4878   59.2141 C   0  0  0  0  0  0  0  0  0  0  0  0
  -46.0278   57.8823   57.7882 C   0  0  0  0  0  0  0  0  0  0  0  0
  -38.1866   57.4279   65.5746 O   0  0  0  0  0  0  0  0  0  0  0  0
  -38.8488   57.5681   64.3314 C   0  0  0  0  0  0  0  0  0  0  0  0
  -38.8283   57.1727   66.2557 H   0  0  0  0  0  0  0  0  0  0  0  0
  -37.8893   57.9712   63.2091 C   0  0  0  0  0  0  0  0  0  0  0  0
  -36.5564   57.8241   63.2978 C   0  0  0  0  0  0  0  0  0  0  0  0
  -35.6651   58.2521   62.1333 C   0  0  0  0  0  0  0  0  0  0  0  0
  -34.1620   58.1542   62.4323 C   0  0  0  0  0  0  0  0  0  0  0  0
  -33.2852   57.6351   61.2778 C   0  0  0  0  0  0  0  0  0  0  0  0
  -33.4923   56.1153   61.0714 C   0  0  0  0  0  0  0  0  0  0  0  0
  -34.2009   55.7171   59.7519 C   0  0  0  0  0  0  0  0  0  0  0  0
  -35.7276   55.5108   59.8903 C   0  0  0  0  0  0  0  0  0  0  0  0
  -36.5085   55.7852   58.5868 C   0  0  0  0  0  0  0  0  0  0  0  0
  -35.9939   56.9980   57.8021 C   0  0  0  0  0  0  0  0  0  0  0  0
  -36.8090   58.2821   57.9403 C   0  0  0  0  0  0  0  0  0  0  0  0
  -37.7867   58.2777   59.1319 C   0  0  0  0  0  0  0  0  0  0  0  0
  -38.0780   59.6558   59.7450 C   0  0  0  0  0  0  0  0  0  0  0  0
  -39.5854   59.9107   59.8339 C   0  0  0  0  0  0  0  0  0  0  0  0
  -40.1229   60.3144   61.1953 C   0  0  0  0  0  0  0  0  0  0  0  0
  -39.3361   59.9690   65.2388 C   0  0  0  0  0  0  0  0  0  0  0  0
  -38.6915   60.9431   64.3793 O   0  0  0  0  0  0  0  0  0  0  0  0
  -36.6903   61.3294   62.3736 O   0  0  0  0  0  0  0  0  0  0  0  0
  -35.7140   64.6321   64.7269 O   0  0  0  0  0  0  0  0  0  0  0  0
  -37.2089   62.2316   65.8031 O   0  0  0  0  0  0  0  0  0  0  0  0
  -37.3060   61.3875   64.6303 C   0  0  0  0  0  0  0  0  0  0  0  0
  -36.6277   62.1614   63.4907 C   0  0  0  0  0  0  0  0  0  0  0  0
  -35.1450   62.4957   63.7643 C   0  0  0  0  0  0  0  0  0  0  0  0
  -35.1289   63.3601   64.9947 C   0  0  0  0  0  0  0  0  0  0  0  0
  -35.8575   62.6573   66.1258 C   0  0  0  0  0  0  0  0  0  0  0  0
  -37.6160   61.1086   62.1864 H   0  0  0  0  0  0  0  0  0  0  0  0
  -35.2338   65.0628   64.0024 H   0  0  0  0  0  0  0  0  0  0  0  0
  -34.3960   64.0405   67.4159 O   0  0  0  0  0  0  0  0  0  0  0  0
  -35.7359   63.6868   67.2473 C   0  0  0  0  0  0  0  0  0  0  0  0
  -34.3215   64.6943   68.1286 H   0  0  0  0  0  0  0  0  0  0  0  0
  -34.4641   63.2488   62.7352 O   0  0  0  0  0  0  0  0  0  0  0  0
  -32.4437   61.7409   62.1339 O   0  0  0  0  0  0  0  0  0  0  0  0
  -32.1574   63.5451   63.7314 O   0  0  0  0  0  0  0  0  0  0  0  0
  -32.3420   64.0307   61.3640 O   0  0  0  0  0  0  0  0  0  0  0  0
  -32.8248   63.1465   62.4624 S   0  0  0  0  0  0  0  0  0  0  0  0
  -32.7502   61.1496   62.8391 H   0  0  0  0  0  0  0  0  0  0  0  0
  -32.7725   63.7775   60.5324 H   0  0  0  0  0  0  0  0  0  0  0  0
  2  1  1  0  0  0
  2  4  1  0  0  0
  2  5  1  0  0  0
 41 42  1  0  0  0
 41  1  1  0  0  0
 42 46  1  0  0  0
  1 24  1  0  0  0
 23 24  1  0  0  0
 23 25  1  0  0  0
 24 26  1  0  0  0
  3  4  2  0  0  0
 26 27  2  0  0  0
 27 28  1  0  0  0
 43 47  1  0  0  0
 43 51  1  0  0  0
 28 29  1  0  0  0
 56 48  1  0  0  0
 56 60  1  0  0  0
 29 30  1  0  0  0
 57 60  1  0  0  0
 57 61  1  0  0  0
 30 31  1  0  0  0
 44 49  1  0  0  0
 44 52  1  0  0  0
 31 32  1  0  0  0
 45 46  1  0  0  0
 45 50  1  0  0  0
 32 33  1  0  0  0
 53 54  1  0  0  0
 53 55  1  0  0  0
 33 34  1  0  0  0
 34 35  1  0  0  0
 35 36  1  0  0  0
 58 60  1  0  0  0
 36 37  1  0  0  0
 59 60  1  0  0  0
 59 62  1  0  0  0
 37 38  1  0  0  0
 38 39  1  0  0  0
 39 40  1  0  0  0
  4  6  1  0  0  0
  6  7  1  0  0  0
  7  8  1  0  0  0
  8  9  1  0  0  0
  9 10  1  0  0  0
 10 11  1  0  0  0
 11 12  1  0  0  0
 12 13  1  0  0  0
 13 14  1  0  0  0
 14 15  1  0  0  0
 15 16  1  0  0  0
 16 17  1  0  0  0
 17 18  1  0  0  0
 18 19  1  0  0  0
 19 20  1  0  0  0
 20 21  1  0  0  0
 21 22  1  0  0  0
 46 47  1  0  0  0
 47 48  1  0  0  0
 48 49  1  0  0  0
 49 50  1  0  0  0
 50 54  1  0  0  0
M  CHG 1  58  -1
M  END
> <minimizedAffinity>
-10.04604

> <CNNscore>
0.2761767507

> <CNNaffinity>
7.2533617020

> <CNN_VS>
2.0032098293

> <CNNaffinity_variance>
1.5030794144

$$$$
/media/chris/experiments/cd1a-new-docking/inputs/ligands/1onq_ligand.pdb


 62 62  0  0  0  0  0  0  0  0999 V2000
  -39.0931   59.5742   62.9873 C   0  0  0  0  0  0  0  0  0  0  0  0
  -39.6565   59.5881   64.3228 N   0  0  0  0  0  0  0  0  0  0  0  0
  -41.4478   60.9568   64.0682 O   0  0  0  0  0  0  0  0  0  0  0  0
  -40.7417   60.2446   64.7551 C   0  0  0  0  0  0  0  0  0  0  0  0
  -39.1829   59.0479   64.9959 H   0  0  0  0  0  0  0  0  0  0  0  0
  -41.0720   60.0456   66.2046 C   0  0  0  0  0  0  0  0  0  0  0  0
  -42.4736   59.4368   66.2500 C   0  0  0  0  0  0  0  0  0  0  0  0
  -42.4092   58.0211   66.8181 C   0  0  0  0  0  0  0  0  0  0  0  0
  -43.3151   57.0036   66.1682 C   0  0  0  0  0  0  0  0  0  0  0  0
  -44.5915   57.7248   65.7481 C   0  0  0  0  0  0  0  0  0  0  0  0
  -45.7942   56.7795   65.6264 C   0  0  0  0  0  0  0  0  0  0  0  0
  -47.0709   57.4474   65.0837 C   0  0  0  0  0  0  0  0  0  0  0  0
  -48.2636   57.3446   66.0595 C   0  0  0  0  0  0  0  0  0  0  0  0
  -49.5073   58.0110   65.4644 C   0  0  0  0  0  0  0  0  0  0  0  0
  -49.2271   59.0680   64.4030 C   0  0  0  0  0  0  0  0  0  0  0  0
  -50.4722   59.8620   64.0363 C   0  0  0  0  0  0  0  0  0  0  0  0
  -51.1755   59.4472   62.7419 C   0  0  0  0  0  0  0  0  0  0  0  0
  -50.2672   58.4787   61.9964 C   0  0  0  0  0  0  0  0  0  0  0  0
  -50.9035   57.4071   61.1235 C   0  0  0  0  0  0  0  0  0  0  0  0
  -49.9375   56.9536   60.0175 C   0  0  0  0  0  0  0  0  0  0  0  0
  -48.7719   57.9237   59.7506 C   0  0  0  0  0  0  0  0  0  0  0  0
  -47.4133   57.2305   59.6793 C   0  0  0  0  0  0  0  0  0  0  0  0
  -39.5561   57.3996   63.6598 O   0  0  0  0  0  0  0  0  0  0  0  0
  -38.6770   58.1230   62.8186 C   0  0  0  0  0  0  0  0  0  0  0  0
  -40.4694   57.5277   63.3596 H   0  0  0  0  0  0  0  0  0  0  0  0
  -37.2142   57.9630   63.2392 C   0  0  0  0  0  0  0  0  0  0  0  0
  -36.8267   57.1702   64.2528 C   0  0  0  0  0  0  0  0  0  0  0  0
  -35.3456   57.0647   64.6122 C   0  0  0  0  0  0  0  0  0  0  0  0
  -34.5652   58.3736   64.4225 C   0  0  0  0  0  0  0  0  0  0  0  0
  -33.0851   58.2159   64.0279 C   0  0  0  0  0  0  0  0  0  0  0  0
  -32.7936   58.9370   62.6898 C   0  0  0  0  0  0  0  0  0  0  0  0
  -32.4236   58.0093   61.5049 C   0  0  0  0  0  0  0  0  0  0  0  0
  -32.9872   56.5738   61.6246 C   0  0  0  0  0  0  0  0  0  0  0  0
  -34.4405   56.4369   61.1214 C   0  0  0  0  0  0  0  0  0  0  0  0
  -34.5689   55.6520   59.8104 C   0  0  0  0  0  0  0  0  0  0  0  0
  -34.1550   56.3932   58.5409 C   0  0  0  0  0  0  0  0  0  0  0  0
  -35.2521   57.3108   57.9659 C   0  0  0  0  0  0  0  0  0  0  0  0
  -36.6632   57.0738   58.5248 C   0  0  0  0  0  0  0  0  0  0  0  0
  -37.0614   58.1840   59.5017 C   0  0  0  0  0  0  0  0  0  0  0  0
  -38.2796   59.0090   59.1261 C   0  0  0  0  0  0  0  0  0  0  0  0
  -38.0179   60.6486   62.7071 C   0  0  0  0  0  0  0  0  0  0  0  0
  -37.8728   61.6950   63.7007 O   0  0  0  0  0  0  0  0  0  0  0  0
  -35.2270   61.2299   62.7208 O   0  0  0  0  0  0  0  0  0  0  0  0
  -34.3382   64.5697   65.0562 O   0  0  0  0  0  0  0  0  0  0  0  0
  -36.7633   62.8256   65.5381 O   0  0  0  0  0  0  0  0  0  0  0  0
  -36.6333   61.8339   64.4907 C   0  0  0  0  0  0  0  0  0  0  0  0
  -35.3689   62.2083   63.7039 C   0  0  0  0  0  0  0  0  0  0  0  0
  -34.0854   62.2230   64.5627 C   0  0  0  0  0  0  0  0  0  0  0  0
  -34.3029   63.2636   65.6262 C   0  0  0  0  0  0  0  0  0  0  0  0
  -35.5871   62.9677   66.3795 C   0  0  0  0  0  0  0  0  0  0  0  0
  -36.0254   61.2062   62.1706 H   0  0  0  0  0  0  0  0  0  0  0  0
  -33.5095   64.7375   64.5807 H   0  0  0  0  0  0  0  0  0  0  0  0
  -34.3206   64.4430   67.7699 O   0  0  0  0  0  0  0  0  0  0  0  0
  -35.6218   64.1213   67.3796 C   0  0  0  0  0  0  0  0  0  0  0  0
  -34.3453   65.1758   68.4049 H   0  0  0  0  0  0  0  0  0  0  0  0
  -32.8682   62.5965   63.8779 O   0  0  0  0  0  0  0  0  0  0  0  0
  -31.9375   62.8991   61.4781 O   0  0  0  0  0  0  0  0  0  0  0  0
  -32.3125   64.8502   62.8715 O   0  0  0  0  0  0  0  0  0  0  0  0
  -34.1886   63.6919   61.8651 O   0  0  0  0  0  0  0  0  0  0  0  0
  -32.8468   63.5149   62.4893 S   0  0  0  0  0  0  0  0  0  0  0  0
  -31.0574   62.7760   61.8671 H   0  0  0  0  0  0  0  0  0  0  0  0
  -34.5446   62.8255   61.6128 H   0  0  0  0  0  0  0  0  0  0  0  0
  2  1  1  0  0  0
  2  4  1  0  0  0
  2  5  1  0  0  0
 41 42  1  0  0  0
 41  1  1  0  0  0
 42 46  1  0  0  0
  1 24  1  0  0  0
 23 24  1  0  0  0
 23 25  1  0  0  0
 24 26  1  0  0  0
  3  4  2  0  0  0
 26 27  2  0  0  0
 27 28  1  0  0  0
 43 47  1  0  0  0
 43 51  1  0  0  0
 28 29  1  0  0  0
 56 48  1  0  0  0
 56 60  1  0  0  0
 29 30  1  0  0  0
 57 60  1  0  0  0
 57 61  1  0  0  0
 30 31  1  0  0  0
 44 49  1  0  0  0
 44 52  1  0  0  0
 31 32  1  0  0  0
 45 46  1  0  0  0
 45 50  1  0  0  0
 32 33  1  0  0  0
 53 54  1  0  0  0
 53 55  1  0  0  0
 33 34  1  0  0  0
 34 35  1  0  0  0
 35 36  1  0  0  0
 58 60  1  0  0  0
 36 37  1  0  0  0
 59 60  1  0  0  0
 59 62  1  0  0  0
 37 38  1  0  0  0
 38 39  1  0  0  0
 39 40  1  0  0  0
  4  6  1  0  0  0
  6  7  1  0  0  0
  7  8  1  0  0  0
  8  9  1  0  0  0
  9 10  1  0  0  0
 10 11  1  0  0  0
 11 12  1  0  0  0
 12 13  1  0  0  0
 13 14  1  0  0  0
 14 15  1  0  0  0
 15 16  1  0  0  0
 16 17  1  0  0  0
 17 18  1  0  0  0
 18 19  1  0  0  0
 19 20  1  0  0  0
 20 21  1  0  0  0
 21 22  1  0  0  0
 46 47  1  0  0  0
 47 48  1  0  0  0
 48 49  1  0  0  0
 49 50  1  0  0  0
 50 54  1  0  0  0
M  CHG 1  58  -1
M  END
> <minimizedAffinity>
-9.15595

> <CNNscore>
0.2687551081

> <CNNaffinity>
7.1309723854

> <CNN_VS>
1.9164853096

> <CNNaffinity_variance>
1.0214071274

$$$$
/media/chris/experiments/cd1a-new-docking/inputs/ligands/1onq_ligand.pdb


 62 62  0  0  0  0  0  0  0  0999 V2000
  -37.9729   59.8130   64.4695 C   0  0  0  0  0  0  0  0  0  0  0  0
  -39.1170   59.5722   65.3264 N   0  0  0  0  0  0  0  0  0  0  0  0
  -40.6543   61.0109   64.4813 O   0  0  0  0  0  0  0  0  0  0  0  0
  -40.3220   60.1564   65.2796 C   0  0  0  0  0  0  0  0  0  0  0  0
  -38.9934   58.8950   66.0302 H   0  0  0  0  0  0  0  0  0  0  0  0
  -41.3030   59.6780   66.3083 C   0  0  0  0  0  0  0  0  0  0  0  0
  -42.4432   59.0079   65.5414 C   0  0  0  0  0  0  0  0  0  0  0  0
  -42.7015   57.6126   66.1049 C   0  0  0  0  0  0  0  0  0  0  0  0
  -44.1491   57.1994   66.2155 C   0  0  0  0  0  0  0  0  0  0  0  0
  -44.7961   57.4177   64.8519 C   0  0  0  0  0  0  0  0  0  0  0  0
  -46.2218   57.9761   64.9546 C   0  0  0  0  0  0  0  0  0  0  0  0
  -46.3045   59.3926   65.5524 C   0  0  0  0  0  0  0  0  0  0  0  0
  -47.7574   59.8847   65.7320 C   0  0  0  0  0  0  0  0  0  0  0  0
  -48.2597   60.5627   64.4540 C   0  0  0  0  0  0  0  0  0  0  0  0
  -49.7261   60.3111   64.1242 C   0  0  0  0  0  0  0  0  0  0  0  0
  -50.0802   58.8318   64.1600 C   0  0  0  0  0  0  0  0  0  0  0  0
  -49.7392   58.0296   62.9021 C   0  0  0  0  0  0  0  0  0  0  0  0
  -50.9262   58.1081   61.9516 C   0  0  0  0  0  0  0  0  0  0  0  0
  -50.8874   57.2930   60.6673 C   0  0  0  0  0  0  0  0  0  0  0  0
  -49.5165   56.6232   60.4824 C   0  0  0  0  0  0  0  0  0  0  0  0
  -48.6112   57.2998   59.4367 C   0  0  0  0  0  0  0  0  0  0  0  0
  -48.8338   56.7802   58.0183 C   0  0  0  0  0  0  0  0  0  0  0  0
  -38.0482   57.6326   65.2670 O   0  0  0  0  0  0  0  0  0  0  0  0
  -37.3972   58.4192   64.2867 C   0  0  0  0  0  0  0  0  0  0  0  0
  -39.0032   57.6301   65.0976 H   0  0  0  0  0  0  0  0  0  0  0  0
  -35.8819   58.4651   64.4970 C   0  0  0  0  0  0  0  0  0  0  0  0
  -35.0063   57.9263   63.6315 C   0  0  0  0  0  0  0  0  0  0  0  0
  -33.5074   58.0129   63.9134 C   0  0  0  0  0  0  0  0  0  0  0  0
  -32.6306   57.8869   62.6589 C   0  0  0  0  0  0  0  0  0  0  0  0
  -33.3797   57.5706   61.3512 C   0  0  0  0  0  0  0  0  0  0  0  0
  -33.4238   56.0443   61.0989 C   0  0  0  0  0  0  0  0  0  0  0  0
  -34.3168   55.5947   59.9149 C   0  0  0  0  0  0  0  0  0  0  0  0
  -33.8673   56.1411   58.5394 C   0  0  0  0  0  0  0  0  0  0  0  0
  -34.8221   57.2047   57.9553 C   0  0  0  0  0  0  0  0  0  0  0  0
  -36.2414   56.6851   57.6965 C   0  0  0  0  0  0  0  0  0  0  0  0
  -37.3548   57.7301   57.7268 C   0  0  0  0  0  0  0  0  0  0  0  0
  -37.3006   58.6672   58.9494 C   0  0  0  0  0  0  0  0  0  0  0  0
  -38.6236   59.3658   59.2981 C   0  0  0  0  0  0  0  0  0  0  0  0
  -38.9267   59.2540   60.7950 C   0  0  0  0  0  0  0  0  0  0  0  0
  -40.0225   60.1578   61.3314 C   0  0  0  0  0  0  0  0  0  0  0  0
  -37.0015   60.9149   64.9501 C   0  0  0  0  0  0  0  0  0  0  0  0
  -37.0767   62.1900   64.2633 O   0  0  0  0  0  0  0  0  0  0  0  0
  -36.1095   64.8245   64.8116 O   0  0  0  0  0  0  0  0  0  0  0  0
  -32.3953   62.9370   64.6109 O   0  0  0  0  0  0  0  0  0  0  0  0
  -34.8815   61.8155   63.3008 O   0  0  0  0  0  0  0  0  0  0  0  0
  -35.8795   62.8035   63.6549 C   0  0  0  0  0  0  0  0  0  0  0  0
  -35.1539   63.8566   64.5049 C   0  0  0  0  0  0  0  0  0  0  0  0
  -33.9828   64.5463   63.7715 C   0  0  0  0  0  0  0  0  0  0  0  0
  -33.0013   63.4591   63.4310 C   0  0  0  0  0  0  0  0  0  0  0  0
  -33.7013   62.3606   62.6515 C   0  0  0  0  0  0  0  0  0  0  0  0
  -36.8541   64.4088   65.2736 H   0  0  0  0  0  0  0  0  0  0  0  0
  -31.9545   63.6544   65.0926 H   0  0  0  0  0  0  0  0  0  0  0  0
  -31.4207   62.0699   61.9974 O   0  0  0  0  0  0  0  0  0  0  0  0
  -32.5556   61.3771   62.4227 C   0  0  0  0  0  0  0  0  0  0  0  0
  -30.6946   61.4432   61.8530 H   0  0  0  0  0  0  0  0  0  0  0  0
  -33.2460   65.5280   64.5353 O   0  0  0  0  0  0  0  0  0  0  0  0
  -33.5580   64.1691   66.7200 O   0  0  0  0  0  0  0  0  0  0  0  0
  -33.1103   66.5509   66.8453 O   0  0  0  0  0  0  0  0  0  0  0  0
  -31.3314   65.0039   66.2829 O   0  0  0  0  0  0  0  0  0  0  0  0
  -32.7838   65.2945   66.1177 S   0  0  0  0  0  0  0  0  0  0  0  0
  -34.5077   64.3409   66.6219 H   0  0  0  0  0  0  0  0  0  0  0  0
  -31.1097   64.1858   65.8112 H   0  0  0  0  0  0  0  0  0  0  0  0
  2  1  1  0  0  0
  2  4  1  0  0  0
  2  5  1  0  0  0
 41 42  1  0  0  0
 41  1  1  0  0  0
 42 46  1  0  0  0
  1 24  1  0  0  0
 23 24  1  0  0  0
 23 25  1  0  0  0
 24 26  1  0  0  0
  3  4  2  0  0  0
 26 27  2  0  0  0
 27 28  1  0  0  0
 43 47  1  0  0  0
 43 51  1  0  0  0
 28 29  1  0  0  0
 56 48  1  0  0  0
 56 60  1  0  0  0
 29 30  1  0  0  0
 57 60  1  0  0  0
 57 61  1  0  0  0
 30 31  1  0  0  0
 44 49  1  0  0  0
 44 52  1  0  0  0
 31 32  1  0  0  0
 45 46  1  0  0  0
 45 50  1  0  0  0
 32 33  1  0  0  0
 53 54  1  0  0  0
 53 55  1  0  0  0
 33 34  1  0  0  0
 34 35  1  0  0  0
 35 36  1  0  0  0
 58 60  1  0  0  0
 36 37  1  0  0  0
 59 60  1  0  0  0
 59 62  1  0  0  0
 37 38  1  0  0  0
 38 39  1  0  0  0
 39 40  1  0  0  0
  4  6  1  0  0  0
  6  7  1  0  0  0
  7  8  1  0  0  0
  8  9  1  0  0  0
  9 10  1  0  0  0
 10 11  1  0  0  0
 11 12  1  0  0  0
 12 13  1  0  0  0
 13 14  1  0  0  0
 14 15  1  0  0  0
 15 16  1  0  0  0
 16 17  1  0  0  0
 17 18  1  0  0  0
 18 19  1  0  0  0
 19 20  1  0  0  0
 20 21  1  0  0  0
 21 22  1  0  0  0
 46 47  1  0  0  0
 47 48  1  0  0  0
 48 49  1  0  0  0
 49 50  1  0  0  0
 50 54  1  0  0  0
M  CHG 1  58  -1
M  END
> <minimizedAffinity>
-9.39800

> <CNNscore>
0.2644081116

> <CNNaffinity>
6.8578233719

> <CNN_VS>
1.8132641315

> <CNNaffinity_variance>
1.5105339289

$$$$
/media/chris/experiments/cd1a-new-docking/inputs/ligands/1onq_ligand.pdb


 62 62  0  0  0  0  0  0  0  0999 V2000
  -40.1353   59.3487   64.4805 C   0  0  0  0  0  0  0  0  0  0  0  0
  -40.1146   59.3187   63.0314 N   0  0  0  0  0  0  0  0  0  0  0  0
  -40.7011   61.4460   62.5042 O   0  0  0  0  0  0  0  0  0  0  0  0
  -40.3849   60.3178   62.1803 C   0  0  0  0  0  0  0  0  0  0  0  0
  -39.8717   58.4571   62.6215 H   0  0  0  0  0  0  0  0  0  0  0  0
  -40.2660   59.9670   60.7268 C   0  0  0  0  0  0  0  0  0  0  0  0
  -38.7868   60.1066   60.3669 C   0  0  0  0  0  0  0  0  0  0  0  0
  -38.1624   58.7257   60.1819 C   0  0  0  0  0  0  0  0  0  0  0  0
  -37.0047   58.3937   61.0918 C   0  0  0  0  0  0  0  0  0  0  0  0
  -37.3977   57.1675   61.9089 C   0  0  0  0  0  0  0  0  0  0  0  0
  -37.2145   57.3770   63.4181 C   0  0  0  0  0  0  0  0  0  0  0  0
  -35.7917   57.0847   63.9287 C   0  0  0  0  0  0  0  0  0  0  0  0
  -35.0801   58.3416   64.4760 C   0  0  0  0  0  0  0  0  0  0  0  0
  -34.2642   59.0231   63.3738 C   0  0  0  0  0  0  0  0  0  0  0  0
  -32.8932   58.4107   63.1140 C   0  0  0  0  0  0  0  0  0  0  0  0
  -32.7673   57.8546   61.7033 C   0  0  0  0  0  0  0  0  0  0  0  0
  -32.9819   56.3466   61.5549 C   0  0  0  0  0  0  0  0  0  0  0  0
  -34.1758   56.1243   60.6361 C   0  0  0  0  0  0  0  0  0  0  0  0
  -33.9209   55.6761   59.2045 C   0  0  0  0  0  0  0  0  0  0  0  0
  -34.0161   56.8623   58.2318 C   0  0  0  0  0  0  0  0  0  0  0  0
  -35.4510   57.3465   57.9539 C   0  0  0  0  0  0  0  0  0  0  0  0
  -36.4863   56.2250   57.9986 C   0  0  0  0  0  0  0  0  0  0  0  0
  -41.1089   61.0378   65.7433 O   0  0  0  0  0  0  0  0  0  0  0  0
  -41.4450   60.0582   64.7782 C   0  0  0  0  0  0  0  0  0  0  0  0
  -40.4659   61.6574   65.3646 H   0  0  0  0  0  0  0  0  0  0  0  0
  -42.4599   59.0454   65.3137 C   0  0  0  0  0  0  0  0  0  0  0  0
  -42.1014   57.8960   65.9107 C   0  0  0  0  0  0  0  0  0  0  0  0
  -43.1756   56.9356   66.4181 C   0  0  0  0  0  0  0  0  0  0  0  0
  -44.5929   57.5268   66.4082 C   0  0  0  0  0  0  0  0  0  0  0  0
  -45.6067   56.8123   65.4954 C   0  0  0  0  0  0  0  0  0  0  0  0
  -46.9176   56.5109   66.2609 C   0  0  0  0  0  0  0  0  0  0  0  0
  -48.1905   57.1789   65.6820 C   0  0  0  0  0  0  0  0  0  0  0  0
  -47.9077   58.2617   64.6142 C   0  0  0  0  0  0  0  0  0  0  0  0
  -49.0635   59.2697   64.4357 C   0  0  0  0  0  0  0  0  0  0  0  0
  -50.4282   58.6101   64.2032 C   0  0  0  0  0  0  0  0  0  0  0  0
  -50.9408   58.6171   62.7646 C   0  0  0  0  0  0  0  0  0  0  0  0
  -50.0533   59.4134   61.7877 C   0  0  0  0  0  0  0  0  0  0  0  0
  -49.6070   58.6456   60.5342 C   0  0  0  0  0  0  0  0  0  0  0  0
  -50.3510   57.3128   60.4116 C   0  0  0  0  0  0  0  0  0  0  0  0
  -49.4939   56.0787   60.1927 C   0  0  0  0  0  0  0  0  0  0  0  0
  -38.8635   59.9139   65.1528 C   0  0  0  0  0  0  0  0  0  0  0  0
  -38.4012   61.2055   64.6826 O   0  0  0  0  0  0  0  0  0  0  0  0
  -36.4241   61.5415   62.6442 O   0  0  0  0  0  0  0  0  0  0  0  0
  -35.4045   64.8880   64.9159 O   0  0  0  0  0  0  0  0  0  0  0  0
  -36.8954   62.5168   66.0605 O   0  0  0  0  0  0  0  0  0  0  0  0
  -37.0108   61.6490   64.9068 C   0  0  0  0  0  0  0  0  0  0  0  0
  -36.3439   62.3962   63.7430 C   0  0  0  0  0  0  0  0  0  0  0  0
  -34.8565   62.7296   63.9908 C   0  0  0  0  0  0  0  0  0  0  0  0
  -34.8213   63.6192   65.2026 C   0  0  0  0  0  0  0  0  0  0  0  0
  -35.5383   62.9432   66.3573 C   0  0  0  0  0  0  0  0  0  0  0  0
  -37.3530   61.3209   62.4733 H   0  0  0  0  0  0  0  0  0  0  0  0
  -34.9318   65.3014   64.1766 H   0  0  0  0  0  0  0  0  0  0  0  0
  -34.0832   64.4624   67.4923 O   0  0  0  0  0  0  0  0  0  0  0  0
  -35.3982   63.9951   67.4555 C   0  0  0  0  0  0  0  0  0  0  0  0
  -33.9969   65.1303   68.1905 H   0  0  0  0  0  0  0  0  0  0  0  0
  -34.1856   63.4582   62.9377 O   0  0  0  0  0  0  0  0  0  0  0  0
  -32.1975   64.1208   61.4128 O   0  0  0  0  0  0  0  0  0  0  0  0
  -32.4747   61.8039   62.0793 O   0  0  0  0  0  0  0  0  0  0  0  0
  -31.6429   63.4375   63.6648 O   0  0  0  0  0  0  0  0  0  0  0  0
  -32.5885   63.2162   62.5342 S   0  0  0  0  0  0  0  0  0  0  0  0
  -32.8030   63.9906   60.6662 H   0  0  0  0  0  0  0  0  0  0  0  0
  -31.7107   64.3564   63.9679 H   0  0  0  0  0  0  0  0  0  0  0  0
  2  1  1  0  0  0
  2  4  1  0  0  0
  2  5  1  0  0  0
 41 42  1  0  0  0
 41  1  1  0  0  0
 42 46  1  0  0  0
  1 24  1  0  0  0
 23 24  1  0  0  0
 23 25  1  0  0  0
 24 26  1  0  0  0
  3  4  2  0  0  0
 26 27  2  0  0  0
 27 28  1  0  0  0
 43 47  1  0  0  0
 43 51  1  0  0  0
 28 29  1  0  0  0
 56 48  1  0  0  0
 56 60  1  0  0  0
 29 30  1  0  0  0
 57 60  1  0  0  0
 57 61  1  0  0  0
 30 31  1  0  0  0
 44 49  1  0  0  0
 44 52  1  0  0  0
 31 32  1  0  0  0
 45 46  1  0  0  0
 45 50  1  0  0  0
 32 33  1  0  0  0
 53 54  1  0  0  0
 53 55  1  0  0  0
 33 34  1  0  0  0
 34 35  1  0  0  0
 35 36  1  0  0  0
 58 60  1  0  0  0
 36 37  1  0  0  0
 59 60  1  0  0  0
 59 62  1  0  0  0
 37 38  1  0  0  0
 38 39  1  0  0  0
 39 40  1  0  0  0
  4  6  1  0  0  0
  6  7  1  0  0  0
  7  8  1  0  0  0
  8  9  1  0  0  0
  9 10  1  0  0  0
 10 11  1  0  0  0
 11 12  1  0  0  0
 12 13  1  0  0  0
 13 14  1  0  0  0
 14 15  1  0  0  0
 15 16  1  0  0  0
 16 17  1  0  0  0
 17 18  1  0  0  0
 18 19  1  0  0  0
 19 20  1  0  0  0
 20 21  1  0  0  0
 21 22  1  0  0  0
 46 47  1  0  0  0
 47 48  1  0  0  0
 48 49  1  0  0  0
 49 50  1  0  0  0
 50 54  1  0  0  0
M  CHG 1  58  -1
M  END
> <minimizedAffinity>
-9.59071

> <CNNscore>
0.2587220967

> <CNNaffinity>
7.3472967148

> <CNN_VS>
1.9009079933

> <CNNaffinity_variance>
1.0805518627

$$$$
/media/chris/experiments/cd1a-new-docking/inputs/ligands/1onq_ligand.pdb


 62 62  0  0  0  0  0  0  0  0999 V2000
  -37.7163   59.5661   60.2500 C   0  0  0  0  0  0  0  0  0  0  0  0
  -38.8248   59.7873   59.3425 N   0  0  0  0  0  0  0  0  0  0  0  0
  -40.5646   60.0535   60.7741 O   0  0  0  0  0  0  0  0  0  0  0  0
  -40.1113   60.0055   59.6472 C   0  0  0  0  0  0  0  0  0  0  0  0
  -38.6050   59.7758   58.3829 H   0  0  0  0  0  0  0  0  0  0  0  0
  -41.0197   60.2079   58.4709 C   0  0  0  0  0  0  0  0  0  0  0  0
  -42.0532   59.0826   58.5228 C   0  0  0  0  0  0  0  0  0  0  0  0
  -42.7995   58.9982   57.1936 C   0  0  0  0  0  0  0  0  0  0  0  0
  -44.1717   58.3709   57.2418 C   0  0  0  0  0  0  0  0  0  0  0  0
  -44.5108   58.1166   58.7067 C   0  0  0  0  0  0  0  0  0  0  0  0
  -45.9205   57.5409   58.8977 C   0  0  0  0  0  0  0  0  0  0  0  0
  -46.7888   57.5600   57.6264 C   0  0  0  0  0  0  0  0  0  0  0  0
  -48.1467   56.8489   57.8160 C   0  0  0  0  0  0  0  0  0  0  0  0
  -48.5667   56.8706   59.2885 C   0  0  0  0  0  0  0  0  0  0  0  0
  -50.0325   57.2060   59.5361 C   0  0  0  0  0  0  0  0  0  0  0  0
  -50.2497   57.8881   60.8788 C   0  0  0  0  0  0  0  0  0  0  0  0
  -49.6373   59.2825   61.0298 C   0  0  0  0  0  0  0  0  0  0  0  0
  -49.8259   59.7311   62.4727 C   0  0  0  0  0  0  0  0  0  0  0  0
  -51.0253   59.2070   63.2485 C   0  0  0  0  0  0  0  0  0  0  0  0
  -50.8573   59.4571   64.7556 C   0  0  0  0  0  0  0  0  0  0  0  0
  -50.3273   58.2481   65.5483 C   0  0  0  0  0  0  0  0  0  0  0  0
  -48.8795   57.8951   65.2152 C   0  0  0  0  0  0  0  0  0  0  0  0
  -38.4362   57.5286   61.1022 O   0  0  0  0  0  0  0  0  0  0  0  0
  -37.5164   58.0625   60.1680 C   0  0  0  0  0  0  0  0  0  0  0  0
  -39.3390   57.7657   60.8386 H   0  0  0  0  0  0  0  0  0  0  0  0
  -36.0677   57.7235   60.5268 C   0  0  0  0  0  0  0  0  0  0  0  0
  -35.5658   56.4794   60.4463 C   0  0  0  0  0  0  0  0  0  0  0  0
  -34.1080   56.2218   60.8235 C   0  0  0  0  0  0  0  0  0  0  0  0
  -33.3419   57.4849   61.2431 C   0  0  0  0  0  0  0  0  0  0  0  0
  -33.0536   57.6199   62.7497 C   0  0  0  0  0  0  0  0  0  0  0  0
  -33.8910   58.7648   63.3687 C   0  0  0  0  0  0  0  0  0  0  0  0
  -34.9031   58.3299   64.4588 C   0  0  0  0  0  0  0  0  0  0  0  0
  -36.2297   57.7628   63.9012 C   0  0  0  0  0  0  0  0  0  0  0  0
  -37.2242   57.3260   64.9986 C   0  0  0  0  0  0  0  0  0  0  0  0
  -38.6835   57.6776   64.6852 C   0  0  0  0  0  0  0  0  0  0  0  0
  -39.2409   58.9155   65.3847 C   0  0  0  0  0  0  0  0  0  0  0  0
  -40.7237   59.1971   65.0715 C   0  0  0  0  0  0  0  0  0  0  0  0
  -41.4544   60.0754   66.0984 C   0  0  0  0  0  0  0  0  0  0  0  0
  -42.2551   59.2191   67.0837 C   0  0  0  0  0  0  0  0  0  0  0  0
  -42.5971   57.8106   66.6313 C   0  0  0  0  0  0  0  0  0  0  0  0
  -37.8795   60.1754   61.6610 C   0  0  0  0  0  0  0  0  0  0  0  0
  -37.3849   61.5263   61.8449 O   0  0  0  0  0  0  0  0  0  0  0  0
  -35.5111   63.6862   61.8657 O   0  0  0  0  0  0  0  0  0  0  0  0
  -36.7935   64.0708   65.8161 O   0  0  0  0  0  0  0  0  0  0  0  0
  -37.0518   61.4961   64.2477 O   0  0  0  0  0  0  0  0  0  0  0  0
  -36.4872   61.8668   62.9666 C   0  0  0  0  0  0  0  0  0  0  0  0
  -36.0882   63.3445   63.0881 C   0  0  0  0  0  0  0  0  0  0  0  0
  -35.0573   63.6190   64.2048 C   0  0  0  0  0  0  0  0  0  0  0  0
  -35.7114   63.2010   65.4928 C   0  0  0  0  0  0  0  0  0  0  0  0
  -36.1870   61.7635   65.3846 C   0  0  0  0  0  0  0  0  0  0  0  0
  -36.1454   63.5201   61.1510 H   0  0  0  0  0  0  0  0  0  0  0  0
  -36.4677   64.9822   65.8803 H   0  0  0  0  0  0  0  0  0  0  0  0
  -36.0968   62.2670   67.7195 O   0  0  0  0  0  0  0  0  0  0  0  0
  -36.8144   61.5499   66.7605 C   0  0  0  0  0  0  0  0  0  0  0  0
  -36.4971   62.1298   68.5923 H   0  0  0  0  0  0  0  0  0  0  0  0
  -34.6665   64.9995   64.3821 O   0  0  0  0  0  0  0  0  0  0  0  0
  -32.5466   66.2322   63.5435 O   0  0  0  0  0  0  0  0  0  0  0  0
  -32.3115   64.2247   64.8865 O   0  0  0  0  0  0  0  0  0  0  0  0
  -32.9668   66.3152   65.9231 O   0  0  0  0  0  0  0  0  0  0  0  0
  -33.1023   65.4717   64.7018 S   0  0  0  0  0  0  0  0  0  0  0  0
  -32.6262   65.6979   62.7378 H   0  0  0  0  0  0  0  0  0  0  0  0
  -33.4797   67.1309   65.8112 H   0  0  0  0  0  0  0  0  0  0  0  0
  2  1  1  0  0  0
  2  4  1  0  0  0
  2  5  1  0  0  0
 41 42  1  0  0  0
 41  1  1  0  0  0
 42 46  1  0  0  0
  1 24  1  0  0  0
 23 24  1  0  0  0
 23 25  1  0  0  0
 24 26  1  0  0  0
  3  4  2  0  0  0
 26 27  2  0  0  0
 27 28  1  0  0  0
 43 47  1  0  0  0
 43 51  1  0  0  0
 28 29  1  0  0  0
 56 48  1  0  0  0
 56 60  1  0  0  0
 29 30  1  0  0  0
 57 60  1  0  0  0
 57 61  1  0  0  0
 30 31  1  0  0  0
 44 49  1  0  0  0
 44 52  1  0  0  0
 31 32  1  0  0  0
 45 46  1  0  0  0
 45 50  1  0  0  0
 32 33  1  0  0  0
 53 54  1  0  0  0
 53 55  1  0  0  0
 33 34  1  0  0  0
 34 35  1  0  0  0
 35 36  1  0  0  0
 58 60  1  0  0  0
 36 37  1  0  0  0
 59 60  1  0  0  0
 59 62  1  0  0  0
 37 38  1  0  0  0
 38 39  1  0  0  0
 39 40  1  0  0  0
  4  6  1  0  0  0
  6  7  1  0  0  0
  7  8  1  0  0  0
  8  9  1  0  0  0
  9 10  1  0  0  0
 10 11  1  0  0  0
 11 12  1  0  0  0
 12 13  1  0  0  0
 13 14  1  0  0  0
 14 15  1  0  0  0
 15 16  1  0  0  0
 16 17  1  0  0  0
 17 18  1  0  0  0
 18 19  1  0  0  0
 19 20  1  0  0  0
 20 21  1  0  0  0
 21 22  1  0  0  0
 46 47  1  0  0  0
 47 48  1  0  0  0
 48 49  1  0  0  0
 49 50  1  0  0  0
 50 54  1  0  0  0
M  CHG 1  58  -1
M  END
> <minimizedAffinity>
-8.89272

> <CNNscore>
0.2476895154

> <CNNaffinity>
6.7196273804

> <CNN_VS>
1.6643812656

> <CNNaffinity_variance>
1.2847746611

$$$$
/media/chris/experiments/cd1a-new-docking/inputs/ligands/1onq_ligand.pdb


 62 62  0  0  0  0  0  0  0  0999 V2000
  -37.9664   59.3402   64.5186 C   0  0  0  0  0  0  0  0  0  0  0  0
  -38.3144   59.4325   63.1145 N   0  0  0  0  0  0  0  0  0  0  0  0
  -38.4711   57.2487   62.5197 O   0  0  0  0  0  0  0  0  0  0  0  0
  -38.5331   58.4324   62.2499 C   0  0  0  0  0  0  0  0  0  0  0  0
  -38.4009   60.3433   62.7509 H   0  0  0  0  0  0  0  0  0  0  0  0
  -38.8861   58.8601   60.8563 C   0  0  0  0  0  0  0  0  0  0  0  0
  -39.8841   60.0098   60.9954 C   0  0  0  0  0  0  0  0  0  0  0  0
  -40.1784   60.6138   59.6244 C   0  0  0  0  0  0  0  0  0  0  0  0
  -40.5432   59.6365   58.5334 C   0  0  0  0  0  0  0  0  0  0  0  0
  -42.0574   59.4573   58.5627 C   0  0  0  0  0  0  0  0  0  0  0  0
  -42.6297   59.0247   57.2061 C   0  0  0  0  0  0  0  0  0  0  0  0
  -44.0139   58.3556   57.2883 C   0  0  0  0  0  0  0  0  0  0  0  0
  -44.4873   58.1317   58.7413 C   0  0  0  0  0  0  0  0  0  0  0  0
  -45.9325   57.6259   58.7666 C   0  0  0  0  0  0  0  0  0  0  0  0
  -46.7384   57.9132   57.5056 C   0  0  0  0  0  0  0  0  0  0  0  0
  -47.2242   56.6401   56.8285 C   0  0  0  0  0  0  0  0  0  0  0  0
  -47.3851   55.4175   57.7350 C   0  0  0  0  0  0  0  0  0  0  0  0
  -48.7401   55.5108   58.4232 C   0  0  0  0  0  0  0  0  0  0  0  0
  -48.7974   55.3974   59.9395 C   0  0  0  0  0  0  0  0  0  0  0  0
  -49.8147   56.3883   60.5270 C   0  0  0  0  0  0  0  0  0  0  0  0
  -50.1592   57.5720   59.6045 C   0  0  0  0  0  0  0  0  0  0  0  0
  -49.4178   58.8566   59.9677 C   0  0  0  0  0  0  0  0  0  0  0  0
  -37.9331   60.9202   66.2210 O   0  0  0  0  0  0  0  0  0  0  0  0
  -38.7283   60.5057   65.1257 C   0  0  0  0  0  0  0  0  0  0  0  0
  -37.0663   61.2126   65.8988 H   0  0  0  0  0  0  0  0  0  0  0  0
  -40.1147   60.0303   65.5668 C   0  0  0  0  0  0  0  0  0  0  0  0
  -41.1934   60.0777   64.7667 C   0  0  0  0  0  0  0  0  0  0  0  0
  -42.5443   59.5844   65.2818 C   0  0  0  0  0  0  0  0  0  0  0  0
  -42.4521   58.7482   66.5665 C   0  0  0  0  0  0  0  0  0  0  0  0
  -42.7282   57.2421   66.4027 C   0  0  0  0  0  0  0  0  0  0  0  0
  -44.2463   56.9506   66.4784 C   0  0  0  0  0  0  0  0  0  0  0  0
  -44.9452   56.7220   65.1143 C   0  0  0  0  0  0  0  0  0  0  0  0
  -45.7911   57.9219   64.6271 C   0  0  0  0  0  0  0  0  0  0  0  0
  -46.2932   58.8287   65.7715 C   0  0  0  0  0  0  0  0  0  0  0  0
  -47.3699   58.1780   66.6482 C   0  0  0  0  0  0  0  0  0  0  0  0
  -48.4139   57.3373   65.9162 C   0  0  0  0  0  0  0  0  0  0  0  0
  -49.5994   58.1532   65.3639 C   0  0  0  0  0  0  0  0  0  0  0  0
  -49.6527   58.2769   63.8336 C   0  0  0  0  0  0  0  0  0  0  0  0
  -49.8104   59.7386   63.4052 C   0  0  0  0  0  0  0  0  0  0  0  0
  -48.8190   60.7259   63.9949 C   0  0  0  0  0  0  0  0  0  0  0  0
  -36.4539   59.2557   64.8255 C   0  0  0  0  0  0  0  0  0  0  0  0
  -35.5826   60.0956   64.0264 O   0  0  0  0  0  0  0  0  0  0  0  0
  -33.1732   61.1759   62.9287 O   0  0  0  0  0  0  0  0  0  0  0  0
  -34.7414   64.7612   64.3730 O   0  0  0  0  0  0  0  0  0  0  0  0
  -35.5578   62.0561   65.4552 O   0  0  0  0  0  0  0  0  0  0  0  0
  -34.7628   61.1561   64.6457 C   0  0  0  0  0  0  0  0  0  0  0  0
  -33.9647   62.0439   63.6799 C   0  0  0  0  0  0  0  0  0  0  0  0
  -33.0375   63.0549   64.3892 C   0  0  0  0  0  0  0  0  0  0  0  0
  -33.9321   63.9405   65.2118 C   0  0  0  0  0  0  0  0  0  0  0  0
  -34.7926   63.0911   66.1296 C   0  0  0  0  0  0  0  0  0  0  0  0
  -33.7398   60.5325   62.4751 H   0  0  0  0  0  0  0  0  0  0  0  0
  -34.1722   65.2944   63.7962 H   0  0  0  0  0  0  0  0  0  0  0  0
  -36.9707   63.9553   66.6014 O   0  0  0  0  0  0  0  0  0  0  0  0
  -35.6122   64.1606   66.8484 C   0  0  0  0  0  0  0  0  0  0  0  0
  -37.4890   64.6356   67.0590 H   0  0  0  0  0  0  0  0  0  0  0  0
  -32.2823   63.9362   63.5272 O   0  0  0  0  0  0  0  0  0  0  0  0
  -31.6189   64.9626   61.2417 O   0  0  0  0  0  0  0  0  0  0  0  0
  -33.5754   63.5346   61.3900 O   0  0  0  0  0  0  0  0  0  0  0  0
  -31.3533   62.5695   61.4623 O   0  0  0  0  0  0  0  0  0  0  0  0
  -32.1837   63.7355   61.8773 S   0  0  0  0  0  0  0  0  0  0  0  0
  -32.1476   65.7335   61.5009 H   0  0  0  0  0  0  0  0  0  0  0  0
  -30.4437   62.6923   61.7762 H   0  0  0  0  0  0  0  0  0  0  0  0
  2  1  1  0  0  0
  2  4  1  0  0  0
  2  5  1  0  0  0
 41 42  1  0  0  0
 41  1  1  0  0  0
 42 46  1  0  0  0
  1 24  1  0  0  0
 23 24  1  0  0  0
 23 25  1  0  0  0
 24 26  1  0  0  0
  3  4  2  0  0  0
 26 27  2  0  0  0
 27 28  1  0  0  0
 43 47  1  0  0  0
 43 51  1  0  0  0
 28 29  1  0  0  0
 56 48  1  0  0  0
 56 60  1  0  0  0
 29 30  1  0  0  0
 57 60  1  0  0  0
 57 61  1  0  0  0
 30 31  1  0  0  0
 44 49  1  0  0  0
 44 52  1  0  0  0
 31 32  1  0  0  0
 45 46  1  0  0  0
 45 50  1  0  0  0
 32 33  1  0  0  0
 53 54  1  0  0  0
 53 55  1  0  0  0
 33 34  1  0  0  0
 34 35  1  0  0  0
 35 36  1  0  0  0
 58 60  1  0  0  0
 36 37  1  0  0  0
 59 60  1  0  0  0
 59 62  1  0  0  0
 37 38  1  0  0  0
 38 39  1  0  0  0
 39 40  1  0  0  0
  4  6  1  0  0  0
  6  7  1  0  0  0
  7  8  1  0  0  0
  8  9  1  0  0  0
  9 10  1  0  0  0
 10 11  1  0  0  0
 11 12  1  0  0  0
 12 13  1  0  0  0
 13 14  1  0  0  0
 14 15  1  0  0  0
 15 16  1  0  0  0
 16 17  1  0  0  0
 17 18  1  0  0  0
 18 19  1  0  0  0
 19 20  1  0  0  0
 20 21  1  0  0  0
 21 22  1  0  0  0
 46 47  1  0  0  0
 47 48  1  0  0  0
 48 49  1  0  0  0
 49 50  1  0  0  0
 50 54  1  0  0  0
M  CHG 1  58  -1
M  END
> <minimizedAffinity>
-8.84380

> <CNNscore>
0.2093395442

> <CNNaffinity>
6.8568816185

> <CNN_VS>
1.4354164600

> <CNNaffinity_variance>
1.2083152533

$$$$
/media/chris/experiments/cd1a-new-docking/inputs/ligands/1onq_ligand.pdb


 62 62  0  0  0  0  0  0  0  0999 V2000
  -36.6181   58.6961   63.0795 C   0  0  0  0  0  0  0  0  0  0  0  0
  -35.6108   58.1306   62.2038 N   0  0  0  0  0  0  0  0  0  0  0  0
  -33.6861   58.7307   63.2444 O   0  0  0  0  0  0  0  0  0  0  0  0
  -34.2783   58.1816   62.3358 C   0  0  0  0  0  0  0  0  0  0  0  0
  -35.9476   57.6492   61.4139 H   0  0  0  0  0  0  0  0  0  0  0  0
  -33.5035   57.4853   61.2567 C   0  0  0  0  0  0  0  0  0  0  0  0
  -34.0178   56.0462   61.2137 C   0  0  0  0  0  0  0  0  0  0  0  0
  -34.3964   55.6701   59.7833 C   0  0  0  0  0  0  0  0  0  0  0  0
  -35.7175   54.9603   59.6115 C   0  0  0  0  0  0  0  0  0  0  0  0
  -36.5152   55.7202   58.5570 C   0  0  0  0  0  0  0  0  0  0  0  0
  -35.7350   56.8982   57.9580 C   0  0  0  0  0  0  0  0  0  0  0  0
  -36.4563   58.2542   58.0654 C   0  0  0  0  0  0  0  0  0  0  0  0
  -37.6660   58.2164   59.0250 C   0  0  0  0  0  0  0  0  0  0  0  0
  -38.1719   59.6330   59.3121 C   0  0  0  0  0  0  0  0  0  0  0  0
  -39.5256   59.7056   60.0083 C   0  0  0  0  0  0  0  0  0  0  0  0
  -40.6023   60.3047   59.1156 C   0  0  0  0  0  0  0  0  0  0  0  0
  -41.8659   59.4614   58.9301 C   0  0  0  0  0  0  0  0  0  0  0  0
  -42.1270   59.3181   57.4368 C   0  0  0  0  0  0  0  0  0  0  0  0
  -43.3525   58.5392   56.9820 C   0  0  0  0  0  0  0  0  0  0  0  0
  -44.3010   58.2692   58.1609 C   0  0  0  0  0  0  0  0  0  0  0  0
  -45.7835   58.1304   57.7687 C   0  0  0  0  0  0  0  0  0  0  0  0
  -46.5785   57.2375   58.7186 C   0  0  0  0  0  0  0  0  0  0  0  0
  -37.4969   56.7980   62.0692 O   0  0  0  0  0  0  0  0  0  0  0  0
  -37.5761   57.5337   63.2760 C   0  0  0  0  0  0  0  0  0  0  0  0
  -36.5909   56.4740   61.9470 H   0  0  0  0  0  0  0  0  0  0  0  0
  -38.9849   58.0753   63.5299 C   0  0  0  0  0  0  0  0  0  0  0  0
  -39.6131   57.9551   64.7118 C   0  0  0  0  0  0  0  0  0  0  0  0
  -41.0209   58.5222   64.8857 C   0  0  0  0  0  0  0  0  0  0  0  0
  -41.2360   59.2542   66.2185 C   0  0  0  0  0  0  0  0  0  0  0  0
  -42.6929   59.3261   66.7118 C   0  0  0  0  0  0  0  0  0  0  0  0
  -43.4355   57.9984   66.4269 C   0  0  0  0  0  0  0  0  0  0  0  0
  -44.4602   58.0494   65.2655 C   0  0  0  0  0  0  0  0  0  0  0  0
  -45.5015   59.1865   65.3891 C   0  0  0  0  0  0  0  0  0  0  0  0
  -46.6782   58.8469   66.3295 C   0  0  0  0  0  0  0  0  0  0  0  0
  -47.9040   59.7474   66.1351 C   0  0  0  0  0  0  0  0  0  0  0  0
  -47.9569   60.5367   64.8288 C   0  0  0  0  0  0  0  0  0  0  0  0
  -49.2576   60.3336   64.0270 C   0  0  0  0  0  0  0  0  0  0  0  0
  -49.4477   58.9302   63.4319 C   0  0  0  0  0  0  0  0  0  0  0  0
  -50.7781   58.8269   62.6806 C   0  0  0  0  0  0  0  0  0  0  0  0
  -50.8980   57.6989   61.6714 C   0  0  0  0  0  0  0  0  0  0  0  0
  -37.2293   60.0367   62.6127 C   0  0  0  0  0  0  0  0  0  0  0  0
  -36.3295   61.1723   62.5494 O   0  0  0  0  0  0  0  0  0  0  0  0
  -33.4945   61.5228   62.6794 O   0  0  0  0  0  0  0  0  0  0  0  0
  -34.5376   64.8671   64.9437 O   0  0  0  0  0  0  0  0  0  0  0  0
  -36.3706   62.4860   64.5884 O   0  0  0  0  0  0  0  0  0  0  0  0
  -35.5785   61.6211   63.7387 C   0  0  0  0  0  0  0  0  0  0  0  0
  -34.2687   62.3747   63.4662 C   0  0  0  0  0  0  0  0  0  0  0  0
  -33.4706   62.7138   64.7442 C   0  0  0  0  0  0  0  0  0  0  0  0
  -34.3595   63.6000   65.5722 C   0  0  0  0  0  0  0  0  0  0  0  0
  -35.6960   62.9176   65.8010 C   0  0  0  0  0  0  0  0  0  0  0  0
  -33.9807   61.2987   61.8707 H   0  0  0  0  0  0  0  0  0  0  0  0
  -33.6727   65.2847   64.8074 H   0  0  0  0  0  0  0  0  0  0  0  0
  -35.7758   64.1422   67.8522 O   0  0  0  0  0  0  0  0  0  0  0  0
  -36.4312   63.9669   66.6321 C   0  0  0  0  0  0  0  0  0  0  0  0
  -36.2445   64.8090   68.3780 H   0  0  0  0  0  0  0  0  0  0  0  0
  -32.2411   63.4484   64.5480 O   0  0  0  0  0  0  0  0  0  0  0  0
  -31.0525   63.1829   62.2603 O   0  0  0  0  0  0  0  0  0  0  0  0
  -30.9412   65.3075   63.4277 O   0  0  0  0  0  0  0  0  0  0  0  0
  -32.9827   64.6384   62.3055 O   0  0  0  0  0  0  0  0  0  0  0  0
  -31.8188   64.1514   63.0990 S   0  0  0  0  0  0  0  0  0  0  0  0
  -30.2894   62.8546   62.7611 H   0  0  0  0  0  0  0  0  0  0  0  0
  -33.5605   63.8905   62.0869 H   0  0  0  0  0  0  0  0  0  0  0  0
  2  1  1  0  0  0
  2  4  1  0  0  0
  2  5  1  0  0  0
 41 42  1  0  0  0
 41  1  1  0  0  0
 42 46  1  0  0  0
  1 24  1  0  0  0
 23 24  1  0  0  0
 23 25  1  0  0  0
 24 26  1  0  0  0
  3  4  2  0  0  0
 26 27  2  0  0  0
 27 28  1  0  0  0
 43 47  1  0  0  0
 43 51  1  0  0  0
 28 29  1  0  0  0
 56 48  1  0  0  0
 56 60  1  0  0  0
 29 30  1  0  0  0
 57 60  1  0  0  0
 57 61  1  0  0  0
 30 31  1  0  0  0
 44 49  1  0  0  0
 44 52  1  0  0  0
 31 32  1  0  0  0
 45 46  1  0  0  0
 45 50  1  0  0  0
 32 33  1  0  0  0
 53 54  1  0  0  0
 53 55  1  0  0  0
 33 34  1  0  0  0
 34 35  1  0  0  0
 35 36  1  0  0  0
 58 60  1  0  0  0
 36 37  1  0  0  0
 59 60  1  0  0  0
 59 62  1  0  0  0
 37 38  1  0  0  0
 38 39  1  0  0  0
 39 40  1  0  0  0
  4  6  1  0  0  0
  6  7  1  0  0  0
  7  8  1  0  0  0
  8  9  1  0  0  0
  9 10  1  0  0  0
 10 11  1  0  0  0
 11 12  1  0  0  0
 12 13  1  0  0  0
 13 14  1  0  0  0
 14 15  1  0  0  0
 15 16  1  0  0  0
 16 17  1  0  0  0
 17 18  1  0  0  0
 18 19  1  0  0  0
 19 20  1  0  0  0
 20 21  1  0  0  0
 21 22  1  0  0  0
 46 47  1  0  0  0
 47 48  1  0  0  0
 48 49  1  0  0  0
 49 50  1  0  0  0
 50 54  1  0  0  0
M  CHG 1  58  -1
M  END
> <minimizedAffinity>
-8.72456

> <CNNscore>
0.2079617083

> <CNNaffinity>
6.8543233871

> <CNN_VS>
1.4254368544

> <CNNaffinity_variance>
1.3778121471

$$$$
