/media/chris/experiments/cd1a-new-docking/inputs/ligands/1onq_ligand.pdb


 62 62  0  0  0  0  0  0  0  0999 V2000
  -39.8725   59.2893   63.9401 C   0  0  0  0  0  0  0  0  0  0  0  0
  -41.3128   59.2160   64.0859 N   0  0  0  0  0  0  0  0  0  0  0  0
  -41.5550   59.0630   66.3365 O   0  0  0  0  0  0  0  0  0  0  0  0
  -42.0248   59.1129   65.2164 C   0  0  0  0  0  0  0  0  0  0  0  0
  -41.8327   59.2458   63.2503 H   0  0  0  0  0  0  0  0  0  0  0  0
  -43.5125   59.0673   65.0311 C   0  0  0  0  0  0  0  0  0  0  0  0
  -44.0956   58.5289   66.3378 C   0  0  0  0  0  0  0  0  0  0  0  0
  -44.8667   57.2382   66.0720 C   0  0  0  0  0  0  0  0  0  0  0  0
  -46.3111   57.2261   66.5102 C   0  0  0  0  0  0  0  0  0  0  0  0
  -46.7217   58.6691   66.7842 C   0  0  0  0  0  0  0  0  0  0  0  0
  -47.9193   59.1162   65.9352 C   0  0  0  0  0  0  0  0  0  0  0  0
  -48.7274   57.9579   65.3223 C   0  0  0  0  0  0  0  0  0  0  0  0
  -50.2494   58.2206   65.3242 C   0  0  0  0  0  0  0  0  0  0  0  0
  -50.6721   58.9558   64.0492 C   0  0  0  0  0  0  0  0  0  0  0  0
  -50.0340   58.4394   62.7653 C   0  0  0  0  0  0  0  0  0  0  0  0
  -51.0462   57.7727   61.8453 C   0  0  0  0  0  0  0  0  0  0  0  0
  -50.5288   57.3593   60.4656 C   0  0  0  0  0  0  0  0  0  0  0  0
  -49.0749   57.7974   60.3519 C   0  0  0  0  0  0  0  0  0  0  0  0
  -48.0723   56.8415   59.7223 C   0  0  0  0  0  0  0  0  0  0  0  0
  -47.8110   57.2083   58.2529 C   0  0  0  0  0  0  0  0  0  0  0  0
  -46.5095   57.9953   58.0129 C   0  0  0  0  0  0  0  0  0  0  0  0
  -45.4128   57.6721   59.0250 C   0  0  0  0  0  0  0  0  0  0  0  0
  -39.1991   57.5631   65.3411 O   0  0  0  0  0  0  0  0  0  0  0  0
  -39.4615   57.8273   63.9754 C   0  0  0  0  0  0  0  0  0  0  0  0
  -40.0081   57.7007   65.8582 H   0  0  0  0  0  0  0  0  0  0  0  0
  -38.2214   57.6281   63.1008 C   0  0  0  0  0  0  0  0  0  0  0  0
  -36.9815   57.9545   63.5039 C   0  0  0  0  0  0  0  0  0  0  0  0
  -35.7938   57.7257   62.5709 C   0  0  0  0  0  0  0  0  0  0  0  0
  -34.4300   57.7870   63.2740 C   0  0  0  0  0  0  0  0  0  0  0  0
  -33.2163   58.0190   62.3551 C   0  0  0  0  0  0  0  0  0  0  0  0
  -33.5360   57.5878   60.9035 C   0  0  0  0  0  0  0  0  0  0  0  0
  -33.5318   56.0588   60.6512 C   0  0  0  0  0  0  0  0  0  0  0  0
  -33.9252   55.6533   59.2113 C   0  0  0  0  0  0  0  0  0  0  0  0
  -34.0384   56.8496   58.2418 C   0  0  0  0  0  0  0  0  0  0  0  0
  -35.4834   57.2597   57.9330 C   0  0  0  0  0  0  0  0  0  0  0  0
  -36.5701   56.5419   58.7306 C   0  0  0  0  0  0  0  0  0  0  0  0
  -37.5135   57.4900   59.4968 C   0  0  0  0  0  0  0  0  0  0  0  0
  -37.5275   58.9431   58.9987 C   0  0  0  0  0  0  0  0  0  0  0  0
  -38.1378   59.8779   60.0470 C   0  0  0  0  0  0  0  0  0  0  0  0
  -39.6509   59.8564   60.1716 C   0  0  0  0  0  0  0  0  0  0  0  0
  -39.1520   60.2436   64.9194 C   0  0  0  0  0  0  0  0  0  0  0  0
  -38.5009   61.4006   64.3358 O   0  0  0  0  0  0  0  0  0  0  0  0
  -36.4439   61.6287   62.3625 O   0  0  0  0  0  0  0  0  0  0  0  0
  -35.1807   64.7707   64.7978 O   0  0  0  0  0  0  0  0  0  0  0  0
  -36.9187   62.5077   65.8044 O   0  0  0  0  0  0  0  0  0  0  0  0
  -37.0821   61.7012   64.6126 C   0  0  0  0  0  0  0  0  0  0  0  0
  -36.3154   62.4277   63.4980 C   0  0  0  0  0  0  0  0  0  0  0  0
  -34.8109   62.6087   63.7961 C   0  0  0  0  0  0  0  0  0  0  0  0
  -34.7271   63.4421   65.0449 C   0  0  0  0  0  0  0  0  0  0  0  0
  -35.5366   62.7917   66.1521 C   0  0  0  0  0  0  0  0  0  0  0  0
  -37.3842   61.5040   62.1597 H   0  0  0  0  0  0  0  0  0  0  0  0
  -34.6506   65.1667   64.0885 H   0  0  0  0  0  0  0  0  0  0  0  0
  -36.5000   63.8750   68.0527 O   0  0  0  0  0  0  0  0  0  0  0  0
  -35.3300   63.7811   67.2969 C   0  0  0  0  0  0  0  0  0  0  0  0
  -36.3661   64.5039   68.7789 H   0  0  0  0  0  0  0  0  0  0  0  0
  -34.0452   63.3118   62.7915 O   0  0  0  0  0  0  0  0  0  0  0  0
  -31.9733   63.8115   61.3168 O   0  0  0  0  0  0  0  0  0  0  0  0
  -32.3936   61.5401   62.0608 O   0  0  0  0  0  0  0  0  0  0  0  0
  -31.5340   63.1919   63.6123 O   0  0  0  0  0  0  0  0  0  0  0  0
  -32.4497   62.9735   62.4568 S   0  0  0  0  0  0  0  0  0  0  0  0
  -32.5583   63.6822   60.5539 H   0  0  0  0  0  0  0  0  0  0  0  0
  -31.5645   64.1245   63.8772 H   0  0  0  0  0  0  0  0  0  0  0  0
  2  1  1  0  0  0
  2  4  1  0  0  0
  2  5  1  0  0  0
 41 42  1  0  0  0
 41  1  1  0  0  0
 42 46  1  0  0  0
  1 24  1  0  0  0
 23 24  1  0  0  0
 23 25  1  0  0  0
 24 26  1  0  0  0
  3  4  2  0  0  0
 26 27  2  0  0  0
 27 28  1  0  0  0
 43 47  1  0  0  0
 43 51  1  0  0  0
 28 29  1  0  0  0
 56 48  1  0  0  0
 56 60  1  0  0  0
 29 30  1  0  0  0
 57 60  1  0  0  0
 57 61  1  0  0  0
 30 31  1  0  0  0
 44 49  1  0  0  0
 44 52  1  0  0  0
 31 32  1  0  0  0
 45 46  1  0  0  0
 45 50  1  0  0  0
 32 33  1  0  0  0
 53 54  1  0  0  0
 53 55  1  0  0  0
 33 34  1  0  0  0
 34 35  1  0  0  0
 35 36  1  0  0  0
 58 60  1  0  0  0
 36 37  1  0  0  0
 59 60  1  0  0  0
 59 62  1  0  0  0
 37 38  1  0  0  0
 38 39  1  0  0  0
 39 40  1  0  0  0
  4  6  1  0  0  0
  6  7  1  0  0  0
  7  8  1  0  0  0
  8  9  1  0  0  0
  9 10  1  0  0  0
 10 11  1  0  0  0
 11 12  1  0  0  0
 12 13  1  0  0  0
 13 14  1  0  0  0
 14 15  1  0  0  0
 15 16  1  0  0  0
 16 17  1  0  0  0
 17 18  1  0  0  0
 18 19  1  0  0  0
 19 20  1  0  0  0
 20 21  1  0  0  0
 21 22  1  0  0  0
 46 47  1  0  0  0
 47 48  1  0  0  0
 48 49  1  0  0  0
 49 50  1  0  0  0
 50 54  1  0  0  0
M  CHG 1  58  -1
M  END
> <minimizedAffinity>
-9.80512

> <CNNscore>
0.3447872996

> <CNNaffinity>
7.3494215012

> <CNN_VS>
2.5339872837

> <CNNaffinity_variance>
0.9401962161

$$$$
/media/chris/experiments/cd1a-new-docking/inputs/ligands/1onq_ligand.pdb


 62 62  0  0  0  0  0  0  0  0999 V2000
  -39.4458   60.5796   61.4754 C   0  0  0  0  0  0  0  0  0  0  0  0
  -40.6282   60.1096   62.1698 N   0  0  0  0  0  0  0  0  0  0  0  0
  -40.5072   61.2411   64.1325 O   0  0  0  0  0  0  0  0  0  0  0  0
  -41.0606   60.4529   63.3907 C   0  0  0  0  0  0  0  0  0  0  0  0
  -41.1825   59.4571   61.6838 H   0  0  0  0  0  0  0  0  0  0  0  0
  -42.3346   59.7913   63.8254 C   0  0  0  0  0  0  0  0  0  0  0  0
  -42.6873   60.3841   65.1897 C   0  0  0  0  0  0  0  0  0  0  0  0
  -43.4660   59.3635   66.0162 C   0  0  0  0  0  0  0  0  0  0  0  0
  -44.2563   58.3416   65.2354 C   0  0  0  0  0  0  0  0  0  0  0  0
  -43.8481   56.9609   65.7383 C   0  0  0  0  0  0  0  0  0  0  0  0
  -42.4659   56.9575   66.4051 C   0  0  0  0  0  0  0  0  0  0  0  0
  -41.3051   56.6186   65.4521 C   0  0  0  0  0  0  0  0  0  0  0  0
  -40.2281   57.7245   65.4006 C   0  0  0  0  0  0  0  0  0  0  0  0
  -39.2835   57.5035   64.2158 C   0  0  0  0  0  0  0  0  0  0  0  0
  -37.8008   57.6459   64.5377 C   0  0  0  0  0  0  0  0  0  0  0  0
  -36.9162   57.2975   63.3498 C   0  0  0  0  0  0  0  0  0  0  0  0
  -37.6440   56.9754   62.0426 C   0  0  0  0  0  0  0  0  0  0  0  0
  -36.6544   57.1319   60.8960 C   0  0  0  0  0  0  0  0  0  0  0  0
  -36.4543   55.9644   59.9410 C   0  0  0  0  0  0  0  0  0  0  0  0
  -36.7103   56.3929   58.4874 C   0  0  0  0  0  0  0  0  0  0  0  0
  -35.7066   57.4240   57.9393 C   0  0  0  0  0  0  0  0  0  0  0  0
  -34.2569   56.9490   58.0039 C   0  0  0  0  0  0  0  0  0  0  0  0
  -38.2789   60.1304   59.5177 O   0  0  0  0  0  0  0  0  0  0  0  0
  -39.4587   59.7514   60.2020 C   0  0  0  0  0  0  0  0  0  0  0  0
  -37.5055   59.9080   60.0592 H   0  0  0  0  0  0  0  0  0  0  0  0
  -40.7206   60.0759   59.3991 C   0  0  0  0  0  0  0  0  0  0  0  0
  -41.1538   59.3167   58.3782 C   0  0  0  0  0  0  0  0  0  0  0  0
  -42.4235   59.7086   57.6247 C   0  0  0  0  0  0  0  0  0  0  0  0
  -43.3900   58.5396   57.3849 C   0  0  0  0  0  0  0  0  0  0  0  0
  -44.3824   58.2504   58.5264 C   0  0  0  0  0  0  0  0  0  0  0  0
  -45.7952   57.9596   57.9654 C   0  0  0  0  0  0  0  0  0  0  0  0
  -46.7906   57.3305   58.9728 C   0  0  0  0  0  0  0  0  0  0  0  0
  -48.1784   57.0047   58.3725 C   0  0  0  0  0  0  0  0  0  0  0  0
  -49.3415   57.1853   59.3719 C   0  0  0  0  0  0  0  0  0  0  0  0
  -48.9321   57.8777   60.6774 C   0  0  0  0  0  0  0  0  0  0  0  0
  -49.9771   58.7970   61.3060 C   0  0  0  0  0  0  0  0  0  0  0  0
  -50.6291   58.2244   62.5801 C   0  0  0  0  0  0  0  0  0  0  0  0
  -50.5206   59.1142   63.8277 C   0  0  0  0  0  0  0  0  0  0  0  0
  -50.2311   58.2768   65.0767 C   0  0  0  0  0  0  0  0  0  0  0  0
  -48.7820   57.8858   65.3064 C   0  0  0  0  0  0  0  0  0  0  0  0
  -38.1405   60.5719   62.3031 C   0  0  0  0  0  0  0  0  0  0  0  0
  -37.1965   61.6396   62.0349 O   0  0  0  0  0  0  0  0  0  0  0  0
  -35.0849   63.5171   61.5955 O   0  0  0  0  0  0  0  0  0  0  0  0
  -36.0232   64.6892   65.4872 O   0  0  0  0  0  0  0  0  0  0  0  0
  -36.6958   61.9515   64.3881 O   0  0  0  0  0  0  0  0  0  0  0  0
  -36.1860   62.0372   63.0352 C   0  0  0  0  0  0  0  0  0  0  0  0
  -35.6080   63.4520   62.8864 C   0  0  0  0  0  0  0  0  0  0  0  0
  -34.4737   63.7671   63.8860 C   0  0  0  0  0  0  0  0  0  0  0  0
  -35.0773   63.6476   65.2581 C   0  0  0  0  0  0  0  0  0  0  0  0
  -35.7254   62.2842   65.4173 C   0  0  0  0  0  0  0  0  0  0  0  0
  -35.7845   63.3216   60.9529 H   0  0  0  0  0  0  0  0  0  0  0  0
  -35.5885   65.5498   65.3806 H   0  0  0  0  0  0  0  0  0  0  0  0
  -35.2898   62.8904   67.6881 O   0  0  0  0  0  0  0  0  0  0  0  0
  -36.2721   62.3754   66.8404 C   0  0  0  0  0  0  0  0  0  0  0  0
  -35.6394   62.9473   68.5911 H   0  0  0  0  0  0  0  0  0  0  0  0
  -33.9113   65.0966   63.8088 O   0  0  0  0  0  0  0  0  0  0  0  0
  -31.6725   66.1371   63.0198 O   0  0  0  0  0  0  0  0  0  0  0  0
  -31.6450   64.1302   64.3839 O   0  0  0  0  0  0  0  0  0  0  0  0
  -32.1481   66.2788   65.3861 O   0  0  0  0  0  0  0  0  0  0  0  0
  -32.3218   65.4379   64.1680 S   0  0  0  0  0  0  0  0  0  0  0  0
  -31.7755   65.6035   62.2162 H   0  0  0  0  0  0  0  0  0  0  0  0
  -32.5866   67.1339   65.2539 H   0  0  0  0  0  0  0  0  0  0  0  0
  2  1  1  0  0  0
  2  4  1  0  0  0
  2  5  1  0  0  0
 41 42  1  0  0  0
 41  1  1  0  0  0
 42 46  1  0  0  0
  1 24  1  0  0  0
 23 24  1  0  0  0
 23 25  1  0  0  0
 24 26  1  0  0  0
  3  4  2  0  0  0
 26 27  2  0  0  0
 27 28  1  0  0  0
 43 47  1  0  0  0
 43 51  1  0  0  0
 28 29  1  0  0  0
 56 48  1  0  0  0
 56 60  1  0  0  0
 29 30  1  0  0  0
 57 60  1  0  0  0
 57 61  1  0  0  0
 30 31  1  0  0  0
 44 49  1  0  0  0
 44 52  1  0  0  0
 31 32  1  0  0  0
 45 46  1  0  0  0
 45 50  1  0  0  0
 32 33  1  0  0  0
 53 54  1  0  0  0
 53 55  1  0  0  0
 33 34  1  0  0  0
 34 35  1  0  0  0
 35 36  1  0  0  0
 58 60  1  0  0  0
 36 37  1  0  0  0
 59 60  1  0  0  0
 59 62  1  0  0  0
 37 38  1  0  0  0
 38 39  1  0  0  0
 39 40  1  0  0  0
  4  6  1  0  0  0
  6  7  1  0  0  0
  7  8  1  0  0  0
  8  9  1  0  0  0
  9 10  1  0  0  0
 10 11  1  0  0  0
 11 12  1  0  0  0
 12 13  1  0  0  0
 13 14  1  0  0  0
 14 15  1  0  0  0
 15 16  1  0  0  0
 16 17  1  0  0  0
 17 18  1  0  0  0
 18 19  1  0  0  0
 19 20  1  0  0  0
 20 21  1  0  0  0
 21 22  1  0  0  0
 46 47  1  0  0  0
 47 48  1  0  0  0
 48 49  1  0  0  0
 49 50  1  0  0  0
 50 54  1  0  0  0
M  CHG 1  58  -1
M  END
> <minimizedAffinity>
-8.19027

> <CNNscore>
0.3403263092

> <CNNaffinity>
7.2372636795

> <CNN_VS>
2.4630312920

> <CNNaffinity_variance>
0.5146874189

$$$$
/media/chris/experiments/cd1a-new-docking/inputs/ligands/1onq_ligand.pdb


 62 62  0  0  0  0  0  0  0  0999 V2000
  -40.1930   58.7364   64.5885 C   0  0  0  0  0  0  0  0  0  0  0  0
  -41.1779   58.1208   65.4558 N   0  0  0  0  0  0  0  0  0  0  0  0
  -43.0371   59.3399   65.0032 O   0  0  0  0  0  0  0  0  0  0  0  0
  -42.4700   58.4454   65.5999 C   0  0  0  0  0  0  0  0  0  0  0  0
  -40.8577   57.3710   66.0075 H   0  0  0  0  0  0  0  0  0  0  0  0
  -43.2333   57.6043   66.5796 C   0  0  0  0  0  0  0  0  0  0  0  0
  -44.5560   57.2439   65.9031 C   0  0  0  0  0  0  0  0  0  0  0  0
  -45.7164   57.9101   66.6386 C   0  0  0  0  0  0  0  0  0  0  0  0
  -46.7109   56.9798   67.2896 C   0  0  0  0  0  0  0  0  0  0  0  0
  -47.5361   56.3375   66.1794 C   0  0  0  0  0  0  0  0  0  0  0  0
  -48.2183   57.3714   65.2736 C   0  0  0  0  0  0  0  0  0  0  0  0
  -49.6080   57.8200   65.7613 C   0  0  0  0  0  0  0  0  0  0  0  0
  -50.3637   58.6729   64.7186 C   0  0  0  0  0  0  0  0  0  0  0  0
  -49.7298   58.5188   63.3332 C   0  0  0  0  0  0  0  0  0  0  0  0
  -50.6647   58.7943   62.1618 C   0  0  0  0  0  0  0  0  0  0  0  0
  -50.9527   57.5425   61.3463 C   0  0  0  0  0  0  0  0  0  0  0  0
  -50.3192   57.4880   59.9542 C   0  0  0  0  0  0  0  0  0  0  0  0
  -49.5331   56.1890   59.8397 C   0  0  0  0  0  0  0  0  0  0  0  0
  -48.0286   56.2636   59.6248 C   0  0  0  0  0  0  0  0  0  0  0  0
  -47.6000   57.6844   59.2248 C   0  0  0  0  0  0  0  0  0  0  0  0
  -46.9418   57.7858   57.8366 C   0  0  0  0  0  0  0  0  0  0  0  0
  -47.1601   56.5458   56.9726 C   0  0  0  0  0  0  0  0  0  0  0  0
  -38.0843   57.9256   65.1284 O   0  0  0  0  0  0  0  0  0  0  0  0
  -39.2146   57.6011   64.3406 C   0  0  0  0  0  0  0  0  0  0  0  0
  -38.3397   57.9552   66.0636 H   0  0  0  0  0  0  0  0  0  0  0  0
  -38.8789   57.5379   62.8487 C   0  0  0  0  0  0  0  0  0  0  0  0
  -37.6889   57.1214   62.3834 C   0  0  0  0  0  0  0  0  0  0  0  0
  -37.4305   57.0882   60.8782 C   0  0  0  0  0  0  0  0  0  0  0  0
  -37.9792   58.3094   60.1260 C   0  0  0  0  0  0  0  0  0  0  0  0
  -37.2703   58.6507   58.8023 C   0  0  0  0  0  0  0  0  0  0  0  0
  -37.4112   57.4896   57.7886 C   0  0  0  0  0  0  0  0  0  0  0  0
  -36.1773   56.5593   57.6723 C   0  0  0  0  0  0  0  0  0  0  0  0
  -34.8201   57.2847   57.8289 C   0  0  0  0  0  0  0  0  0  0  0  0
  -33.7564   56.4504   58.5749 C   0  0  0  0  0  0  0  0  0  0  0  0
  -34.3136   55.6627   59.7668 C   0  0  0  0  0  0  0  0  0  0  0  0
  -33.8345   56.1061   61.1475 C   0  0  0  0  0  0  0  0  0  0  0  0
  -33.7508   57.6357   61.3195 C   0  0  0  0  0  0  0  0  0  0  0  0
  -32.8051   58.1190   62.4295 C   0  0  0  0  0  0  0  0  0  0  0  0
  -33.4324   57.9188   63.8121 C   0  0  0  0  0  0  0  0  0  0  0  0
  -34.7308   58.6597   64.0781 C   0  0  0  0  0  0  0  0  0  0  0  0
  -39.6027   60.0723   65.0943 C   0  0  0  0  0  0  0  0  0  0  0  0
  -38.8412   60.8490   64.1351 O   0  0  0  0  0  0  0  0  0  0  0  0
  -36.8165   61.2327   62.1527 O   0  0  0  0  0  0  0  0  0  0  0  0
  -35.7581   64.4361   64.6057 O   0  0  0  0  0  0  0  0  0  0  0  0
  -37.3304   62.0514   65.6038 O   0  0  0  0  0  0  0  0  0  0  0  0
  -37.4448   61.2445   64.4066 C   0  0  0  0  0  0  0  0  0  0  0  0
  -36.7365   62.0302   63.2937 C   0  0  0  0  0  0  0  0  0  0  0  0
  -35.2463   62.3121   63.5851 C   0  0  0  0  0  0  0  0  0  0  0  0
  -35.2127   63.1401   64.8400 C   0  0  0  0  0  0  0  0  0  0  0  0
  -35.9691   62.4272   65.9463 C   0  0  0  0  0  0  0  0  0  0  0  0
  -37.7470   61.0451   61.9540 H   0  0  0  0  0  0  0  0  0  0  0  0
  -35.2606   64.8729   63.8966 H   0  0  0  0  0  0  0  0  0  0  0  0
  -36.9553   64.2361   67.1584 O   0  0  0  0  0  0  0  0  0  0  0  0
  -35.8243   63.4200   67.0977 C   0  0  0  0  0  0  0  0  0  0  0  0
  -36.8609   64.8656   67.8903 H   0  0  0  0  0  0  0  0  0  0  0  0
  -34.5367   63.0737   62.5820 O   0  0  0  0  0  0  0  0  0  0  0  0
  -32.4698   63.8106   61.2029 O   0  0  0  0  0  0  0  0  0  0  0  0
  -32.4888   61.6243   62.2560 O   0  0  0  0  0  0  0  0  0  0  0  0
  -32.1541   63.6185   63.5924 O   0  0  0  0  0  0  0  0  0  0  0  0
  -32.8797   63.0508   62.4208 S   0  0  0  0  0  0  0  0  0  0  0  0
  -32.9329   63.4545   60.4285 H   0  0  0  0  0  0  0  0  0  0  0  0
  -32.4033   64.5489   63.7072 H   0  0  0  0  0  0  0  0  0  0  0  0
  2  1  1  0  0  0
  2  4  1  0  0  0
  2  5  1  0  0  0
 41 42  1  0  0  0
 41  1  1  0  0  0
 42 46  1  0  0  0
  1 24  1  0  0  0
 23 24  1  0  0  0
 23 25  1  0  0  0
 24 26  1  0  0  0
  3  4  2  0  0  0
 26 27  2  0  0  0
 27 28  1  0  0  0
 43 47  1  0  0  0
 43 51  1  0  0  0
 28 29  1  0  0  0
 56 48  1  0  0  0
 56 60  1  0  0  0
 29 30  1  0  0  0
 57 60  1  0  0  0
 57 61  1  0  0  0
 30 31  1  0  0  0
 44 49  1  0  0  0
 44 52  1  0  0  0
 31 32  1  0  0  0
 45 46  1  0  0  0
 45 50  1  0  0  0
 32 33  1  0  0  0
 53 54  1  0  0  0
 53 55  1  0  0  0
 33 34  1  0  0  0
 34 35  1  0  0  0
 35 36  1  0  0  0
 58 60  1  0  0  0
 36 37  1  0  0  0
 59 60  1  0  0  0
 59 62  1  0  0  0
 37 38  1  0  0  0
 38 39  1  0  0  0
 39 40  1  0  0  0
  4  6  1  0  0  0
  6  7  1  0  0  0
  7  8  1  0  0  0
  8  9  1  0  0  0
  9 10  1  0  0  0
 10 11  1  0  0  0
 11 12  1  0  0  0
 12 13  1  0  0  0
 13 14  1  0  0  0
 14 15  1  0  0  0
 15 16  1  0  0  0
 16 17  1  0  0  0
 17 18  1  0  0  0
 18 19  1  0  0  0
 19 20  1  0  0  0
 20 21  1  0  0  0
 21 22  1  0  0  0
 46 47  1  0  0  0
 47 48  1  0  0  0
 48 49  1  0  0  0
 49 50  1  0  0  0
 50 54  1  0  0  0
M  CHG 1  58  -1
M  END
> <minimizedAffinity>
-10.34596

> <CNNscore>
0.3337770998

> <CNNaffinity>
7.0782785416

> <CNN_VS>
2.3625671864

> <CNNaffinity_variance>
1.2869499922

$$$$
/media/chris/experiments/cd1a-new-docking/inputs/ligands/1onq_ligand.pdb


 62 62  0  0  0  0  0  0  0  0999 V2000
  -36.3798   58.1134   64.1030 C   0  0  0  0  0  0  0  0  0  0  0  0
  -36.2296   57.6796   62.7281 N   0  0  0  0  0  0  0  0  0  0  0  0
  -33.9924   57.3318   62.5818 O   0  0  0  0  0  0  0  0  0  0  0  0
  -35.1036   57.3344   62.0889 C   0  0  0  0  0  0  0  0  0  0  0  0
  -37.0579   57.6326   62.1981 H   0  0  0  0  0  0  0  0  0  0  0  0
  -35.2839   56.9196   60.6588 C   0  0  0  0  0  0  0  0  0  0  0  0
  -36.7521   57.1725   60.3159 C   0  0  0  0  0  0  0  0  0  0  0  0
  -36.8538   58.0060   59.0407 C   0  0  0  0  0  0  0  0  0  0  0  0
  -37.9806   59.0092   58.9919 C   0  0  0  0  0  0  0  0  0  0  0  0
  -38.4403   59.2558   60.4250 C   0  0  0  0  0  0  0  0  0  0  0  0
  -39.8228   59.9178   60.4985 C   0  0  0  0  0  0  0  0  0  0  0  0
  -40.4396   60.2476   59.1270 C   0  0  0  0  0  0  0  0  0  0  0  0
  -41.7380   59.4591   58.8472 C   0  0  0  0  0  0  0  0  0  0  0  0
  -42.0277   59.4117   57.3443 C   0  0  0  0  0  0  0  0  0  0  0  0
  -43.2507   58.5932   56.9487 C   0  0  0  0  0  0  0  0  0  0  0  0
  -44.1621   58.3078   58.1333 C   0  0  0  0  0  0  0  0  0  0  0  0
  -45.6484   58.1378   57.8108 C   0  0  0  0  0  0  0  0  0  0  0  0
  -46.3207   57.4705   59.0030 C   0  0  0  0  0  0  0  0  0  0  0  0
  -47.3509   56.3811   58.7438 C   0  0  0  0  0  0  0  0  0  0  0  0
  -48.7790   56.9233   58.9135 C   0  0  0  0  0  0  0  0  0  0  0  0
  -49.5046   56.4267   60.1775 C   0  0  0  0  0  0  0  0  0  0  0  0
  -50.7465   57.2456   60.5221 C   0  0  0  0  0  0  0  0  0  0  0  0
  -38.2826   57.0928   63.2464 O   0  0  0  0  0  0  0  0  0  0  0  0
  -37.7669   57.6074   64.4601 C   0  0  0  0  0  0  0  0  0  0  0  0
  -37.7228   56.3617   62.9415 H   0  0  0  0  0  0  0  0  0  0  0  0
  -38.6072   58.7683   64.9975 C   0  0  0  0  0  0  0  0  0  0  0  0
  -39.9483   58.8002   64.9157 C   0  0  0  0  0  0  0  0  0  0  0  0
  -40.7158   59.9964   65.4755 C   0  0  0  0  0  0  0  0  0  0  0  0
  -41.7139   59.6313   66.5840 C   0  0  0  0  0  0  0  0  0  0  0  0
  -42.7390   58.5397   66.2248 C   0  0  0  0  0  0  0  0  0  0  0  0
  -43.7265   59.0472   65.1465 C   0  0  0  0  0  0  0  0  0  0  0  0
  -44.8924   58.0832   64.8108 C   0  0  0  0  0  0  0  0  0  0  0  0
  -44.9991   56.8644   65.7572 C   0  0  0  0  0  0  0  0  0  0  0  0
  -46.2811   56.8609   66.6177 C   0  0  0  0  0  0  0  0  0  0  0  0
  -47.5317   57.3300   65.8645 C   0  0  0  0  0  0  0  0  0  0  0  0
  -48.0609   58.7131   66.2378 C   0  0  0  0  0  0  0  0  0  0  0  0
  -48.3847   59.6076   65.0249 C   0  0  0  0  0  0  0  0  0  0  0  0
  -48.7893   58.8569   63.7471 C   0  0  0  0  0  0  0  0  0  0  0  0
  -50.3111   58.7156   63.6509 C   0  0  0  0  0  0  0  0  0  0  0  0
  -51.1337   59.7994   64.3246 C   0  0  0  0  0  0  0  0  0  0  0  0
  -36.0908   59.6090   64.3645 C   0  0  0  0  0  0  0  0  0  0  0  0
  -36.2356   60.5047   63.2331 O   0  0  0  0  0  0  0  0  0  0  0  0
  -36.9516   62.6695   64.9586 O   0  0  0  0  0  0  0  0  0  0  0  0
  -32.8272   63.2886   65.0297 O   0  0  0  0  0  0  0  0  0  0  0  0
  -34.2266   61.7944   62.8016 O   0  0  0  0  0  0  0  0  0  0  0  0
  -35.6092   61.8417   63.2301 C   0  0  0  0  0  0  0  0  0  0  0  0
  -35.6150   62.5936   64.5689 C   0  0  0  0  0  0  0  0  0  0  0  0
  -35.0543   64.0296   64.4764 C   0  0  0  0  0  0  0  0  0  0  0  0
  -33.6282   63.8954   64.0186 C   0  0  0  0  0  0  0  0  0  0  0  0
  -33.5752   63.0915   62.7321 C   0  0  0  0  0  0  0  0  0  0  0  0
  -37.3212   61.7751   65.0221 H   0  0  0  0  0  0  0  0  0  0  0  0
  -32.8755   63.8178   65.8413 H   0  0  0  0  0  0  0  0  0  0  0  0
  -31.5337   61.8600   62.9054 O   0  0  0  0  0  0  0  0  0  0  0  0
  -32.0735   63.0661   62.4550 C   0  0  0  0  0  0  0  0  0  0  0  0
  -30.5801   61.8464   62.7283 H   0  0  0  0  0  0  0  0  0  0  0  0
  -35.0104   64.7745   65.7147 O   0  0  0  0  0  0  0  0  0  0  0  0
  -36.4890   63.7558   67.5836 O   0  0  0  0  0  0  0  0  0  0  0  0
  -34.5203   65.0423   68.1823 O   0  0  0  0  0  0  0  0  0  0  0  0
  -34.2881   62.7929   67.3103 O   0  0  0  0  0  0  0  0  0  0  0  0
  -35.0737   64.0558   67.2152 S   0  0  0  0  0  0  0  0  0  0  0  0
  -37.0168   64.5677   67.5275 H   0  0  0  0  0  0  0  0  0  0  0  0
  -34.6423   62.1437   66.6826 H   0  0  0  0  0  0  0  0  0  0  0  0
  2  1  1  0  0  0
  2  4  1  0  0  0
  2  5  1  0  0  0
 41 42  1  0  0  0
 41  1  1  0  0  0
 42 46  1  0  0  0
  1 24  1  0  0  0
 23 24  1  0  0  0
 23 25  1  0  0  0
 24 26  1  0  0  0
  3  4  2  0  0  0
 26 27  2  0  0  0
 27 28  1  0  0  0
 43 47  1  0  0  0
 43 51  1  0  0  0
 28 29  1  0  0  0
 56 48  1  0  0  0
 56 60  1  0  0  0
 29 30  1  0  0  0
 57 60  1  0  0  0
 57 61  1  0  0  0
 30 31  1  0  0  0
 44 49  1  0  0  0
 44 52  1  0  0  0
 31 32  1  0  0  0
 45 46  1  0  0  0
 45 50  1  0  0  0
 32 33  1  0  0  0
 53 54  1  0  0  0
 53 55  1  0  0  0
 33 34  1  0  0  0
 34 35  1  0  0  0
 35 36  1  0  0  0
 58 60  1  0  0  0
 36 37  1  0  0  0
 59 60  1  0  0  0
 59 62  1  0  0  0
 37 38  1  0  0  0
 38 39  1  0  0  0
 39 40  1  0  0  0
  4  6  1  0  0  0
  6  7  1  0  0  0
  7  8  1  0  0  0
  8  9  1  0  0  0
  9 10  1  0  0  0
 10 11  1  0  0  0
 11 12  1  0  0  0
 12 13  1  0  0  0
 13 14  1  0  0  0
 14 15  1  0  0  0
 15 16  1  0  0  0
 16 17  1  0  0  0
 17 18  1  0  0  0
 18 19  1  0  0  0
 19 20  1  0  0  0
 20 21  1  0  0  0
 21 22  1  0  0  0
 46 47  1  0  0  0
 47 48  1  0  0  0
 48 49  1  0  0  0
 49 50  1  0  0  0
 50 54  1  0  0  0
M  CHG 1  58  -1
M  END
> <minimizedAffinity>
-8.84200

> <CNNscore>
0.2809930146

> <CNNaffinity>
7.0466890335

> <CNN_VS>
1.9800703526

> <CNNaffinity_variance>
1.2101074457

$$$$
/media/chris/experiments/cd1a-new-docking/inputs/ligands/1onq_ligand.pdb


 62 62  0  0  0  0  0  0  0  0999 V2000
  -40.0974   59.0899   65.0609 C   0  0  0  0  0  0  0  0  0  0  0  0
  -40.0600   59.2123   63.6170 N   0  0  0  0  0  0  0  0  0  0  0  0
  -40.7271   61.3583   63.3052 O   0  0  0  0  0  0  0  0  0  0  0  0
  -40.3616   60.2835   62.8705 C   0  0  0  0  0  0  0  0  0  0  0  0
  -39.7778   58.4086   63.1235 H   0  0  0  0  0  0  0  0  0  0  0  0
  -40.2129   60.0915   61.3904 C   0  0  0  0  0  0  0  0  0  0  0  0
  -38.7119   60.0070   61.1129 C   0  0  0  0  0  0  0  0  0  0  0  0
  -38.3944   58.7249   60.3471 C   0  0  0  0  0  0  0  0  0  0  0  0
  -38.0285   57.5244   61.1858 C   0  0  0  0  0  0  0  0  0  0  0  0
  -36.8686   57.9297   62.0893 C   0  0  0  0  0  0  0  0  0  0  0  0
  -37.0667   57.4841   63.5443 C   0  0  0  0  0  0  0  0  0  0  0  0
  -35.7636   57.1092   64.2736 C   0  0  0  0  0  0  0  0  0  0  0  0
  -34.8775   58.3347   64.5877 C   0  0  0  0  0  0  0  0  0  0  0  0
  -33.5068   58.1954   63.9192 C   0  0  0  0  0  0  0  0  0  0  0  0
  -33.3377   58.9816   62.6247 C   0  0  0  0  0  0  0  0  0  0  0  0
  -32.7457   58.1345   61.5080 C   0  0  0  0  0  0  0  0  0  0  0  0
  -32.8629   56.6185   61.6815 C   0  0  0  0  0  0  0  0  0  0  0  0
  -34.2479   56.1918   61.2141 C   0  0  0  0  0  0  0  0  0  0  0  0
  -34.3630   55.3340   59.9626 C   0  0  0  0  0  0  0  0  0  0  0  0
  -35.4348   55.8900   59.0116 C   0  0  0  0  0  0  0  0  0  0  0  0
  -35.0705   57.2342   58.3549 C   0  0  0  0  0  0  0  0  0  0  0  0
  -33.6891   57.2339   57.7043 C   0  0  0  0  0  0  0  0  0  0  0  0
  -41.1021   60.7520   66.3351 O   0  0  0  0  0  0  0  0  0  0  0  0
  -41.4296   59.7293   65.4129 C   0  0  0  0  0  0  0  0  0  0  0  0
  -40.5182   61.3979   65.9077 H   0  0  0  0  0  0  0  0  0  0  0  0
  -42.3523   58.6734   66.0262 C   0  0  0  0  0  0  0  0  0  0  0  0
  -43.6231   58.4920   65.6282 C   0  0  0  0  0  0  0  0  0  0  0  0
  -44.4814   57.4164   66.2916 C   0  0  0  0  0  0  0  0  0  0  0  0
  -45.5941   56.8644   65.3887 C   0  0  0  0  0  0  0  0  0  0  0  0
  -46.9915   57.4745   65.6043 C   0  0  0  0  0  0  0  0  0  0  0  0
  -47.4120   58.3287   64.3840 C   0  0  0  0  0  0  0  0  0  0  0  0
  -48.9024   58.2111   63.9761 C   0  0  0  0  0  0  0  0  0  0  0  0
  -49.1437   58.2220   62.4482 C   0  0  0  0  0  0  0  0  0  0  0  0
  -50.6211   58.0068   62.0547 C   0  0  0  0  0  0  0  0  0  0  0  0
  -50.8066   57.1523   60.7950 C   0  0  0  0  0  0  0  0  0  0  0  0
  -50.0620   57.6243   59.5480 C   0  0  0  0  0  0  0  0  0  0  0  0
  -48.8257   56.7728   59.1974 C   0  0  0  0  0  0  0  0  0  0  0  0
  -47.5119   57.5553   59.0510 C   0  0  0  0  0  0  0  0  0  0  0  0
  -46.9152   57.3714   57.6527 C   0  0  0  0  0  0  0  0  0  0  0  0
  -47.7302   56.5444   56.6743 C   0  0  0  0  0  0  0  0  0  0  0  0
  -38.8494   59.6152   65.8061 C   0  0  0  0  0  0  0  0  0  0  0  0
  -38.5252   61.0164   65.6199 O   0  0  0  0  0  0  0  0  0  0  0  0
  -36.9452   61.0496   63.2368 O   0  0  0  0  0  0  0  0  0  0  0  0
  -35.5891   64.6662   64.8116 O   0  0  0  0  0  0  0  0  0  0  0  0
  -36.8188   62.4896   66.5162 O   0  0  0  0  0  0  0  0  0  0  0  0
  -37.1238   61.4727   65.5312 C   0  0  0  0  0  0  0  0  0  0  0  0
  -36.6845   62.0463   64.1763 C   0  0  0  0  0  0  0  0  0  0  0  0
  -35.1817   62.3959   64.1085 C   0  0  0  0  0  0  0  0  0  0  0  0
  -34.9457   63.4432   65.1614 C   0  0  0  0  0  0  0  0  0  0  0  0
  -35.4371   62.9393   66.5064 C   0  0  0  0  0  0  0  0  0  0  0  0
  -37.8863   60.8168   63.2651 H   0  0  0  0  0  0  0  0  0  0  0  0
  -35.2609   64.9695   63.9507 H   0  0  0  0  0  0  0  0  0  0  0  0
  -33.8887   64.6788   67.0454 O   0  0  0  0  0  0  0  0  0  0  0  0
  -35.1204   64.1307   67.4078 C   0  0  0  0  0  0  0  0  0  0  0  0
  -33.6899   65.4352   67.6193 H   0  0  0  0  0  0  0  0  0  0  0  0
  -34.7186   62.9663   62.8634 O   0  0  0  0  0  0  0  0  0  0  0  0
  -32.8005   63.4208   61.1808 O   0  0  0  0  0  0  0  0  0  0  0  0
  -32.2755   62.5820   63.3967 O   0  0  0  0  0  0  0  0  0  0  0  0
  -32.9255   64.8969   63.0916 O   0  0  0  0  0  0  0  0  0  0  0  0
  -33.1592   63.4999   62.6278 S   0  0  0  0  0  0  0  0  0  0  0  0
  -32.9463   62.5168   60.8605 H   0  0  0  0  0  0  0  0  0  0  0  0
  -33.4982   65.5024   62.5953 H   0  0  0  0  0  0  0  0  0  0  0  0
  2  1  1  0  0  0
  2  4  1  0  0  0
  2  5  1  0  0  0
 41 42  1  0  0  0
 41  1  1  0  0  0
 42 46  1  0  0  0
  1 24  1  0  0  0
 23 24  1  0  0  0
 23 25  1  0  0  0
 24 26  1  0  0  0
  3  4  2  0  0  0
 26 27  2  0  0  0
 27 28  1  0  0  0
 43 47  1  0  0  0
 43 51  1  0  0  0
 28 29  1  0  0  0
 56 48  1  0  0  0
 56 60  1  0  0  0
 29 30  1  0  0  0
 57 60  1  0  0  0
 57 61  1  0  0  0
 30 31  1  0  0  0
 44 49  1  0  0  0
 44 52  1  0  0  0
 31 32  1  0  0  0
 45 46  1  0  0  0
 45 50  1  0  0  0
 32 33  1  0  0  0
 53 54  1  0  0  0
 53 55  1  0  0  0
 33 34  1  0  0  0
 34 35  1  0  0  0
 35 36  1  0  0  0
 58 60  1  0  0  0
 36 37  1  0  0  0
 59 60  1  0  0  0
 59 62  1  0  0  0
 37 38  1  0  0  0
 38 39  1  0  0  0
 39 40  1  0  0  0
  4  6  1  0  0  0
  6  7  1  0  0  0
  7  8  1  0  0  0
  8  9  1  0  0  0
  9 10  1  0  0  0
 10 11  1  0  0  0
 11 12  1  0  0  0
 12 13  1  0  0  0
 13 14  1  0  0  0
 14 15  1  0  0  0
 15 16  1  0  0  0
 16 17  1  0  0  0
 17 18  1  0  0  0
 18 19  1  0  0  0
 19 20  1  0  0  0
 20 21  1  0  0  0
 21 22  1  0  0  0
 46 47  1  0  0  0
 47 48  1  0  0  0
 48 49  1  0  0  0
 49 50  1  0  0  0
 50 54  1  0  0  0
M  CHG 1  58  -1
M  END
> <minimizedAffinity>
-9.81924

> <CNNscore>
0.2801613212

> <CNNaffinity>
7.3339071274

> <CNN_VS>
2.0546770096

> <CNNaffinity_variance>
1.1174876690

$$$$
/media/chris/experiments/cd1a-new-docking/inputs/ligands/1onq_ligand.pdb


 62 62  0  0  0  0  0  0  0  0999 V2000
  -39.7553   59.1125   64.8998 C   0  0  0  0  0  0  0  0  0  0  0  0
  -39.7771   59.0829   63.4507 N   0  0  0  0  0  0  0  0  0  0  0  0
  -40.6660   61.1087   62.9477 O   0  0  0  0  0  0  0  0  0  0  0  0
  -40.2087   60.0338   62.6111 C   0  0  0  0  0  0  0  0  0  0  0  0
  -39.4317   58.2619   63.0312 H   0  0  0  0  0  0  0  0  0  0  0  0
  -40.0894   59.6998   61.1537 C   0  0  0  0  0  0  0  0  0  0  0  0
  -38.6746   60.0972   60.7324 C   0  0  0  0  0  0  0  0  0  0  0  0
  -37.6957   58.9748   61.0686 C   0  0  0  0  0  0  0  0  0  0  0  0
  -37.5594   57.8820   60.0362 C   0  0  0  0  0  0  0  0  0  0  0  0
  -37.3863   58.5513   58.6768 C   0  0  0  0  0  0  0  0  0  0  0  0
  -37.2552   57.5398   57.5303 C   0  0  0  0  0  0  0  0  0  0  0  0
  -36.1816   56.4604   57.7592 C   0  0  0  0  0  0  0  0  0  0  0  0
  -34.7496   57.0376   57.8035 C   0  0  0  0  0  0  0  0  0  0  0  0
  -33.8585   56.2011   58.7261 C   0  0  0  0  0  0  0  0  0  0  0  0
  -34.5970   55.4431   59.8226 C   0  0  0  0  0  0  0  0  0  0  0  0
  -34.3817   56.0605   61.1966 C   0  0  0  0  0  0  0  0  0  0  0  0
  -32.9438   56.4613   61.5344 C   0  0  0  0  0  0  0  0  0  0  0  0
  -32.9011   57.9727   61.7148 C   0  0  0  0  0  0  0  0  0  0  0  0
  -32.9046   58.5389   63.1271 C   0  0  0  0  0  0  0  0  0  0  0  0
  -34.3225   58.9562   63.5487 C   0  0  0  0  0  0  0  0  0  0  0  0
  -34.9760   58.0325   64.5929 C   0  0  0  0  0  0  0  0  0  0  0  0
  -36.2025   57.2936   64.0625 C   0  0  0  0  0  0  0  0  0  0  0  0
  -40.8863   60.7639   66.0786 O   0  0  0  0  0  0  0  0  0  0  0  0
  -41.1345   59.6504   65.2405 C   0  0  0  0  0  0  0  0  0  0  0  0
  -40.3742   61.4278   65.5909 H   0  0  0  0  0  0  0  0  0  0  0  0
  -41.9416   58.5618   65.9518 C   0  0  0  0  0  0  0  0  0  0  0  0
  -43.1622   58.1725   65.5457 C   0  0  0  0  0  0  0  0  0  0  0  0
  -43.9049   57.0786   66.3106 C   0  0  0  0  0  0  0  0  0  0  0  0
  -45.4341   57.1798   66.2122 C   0  0  0  0  0  0  0  0  0  0  0  0
  -45.9701   58.1855   65.1765 C   0  0  0  0  0  0  0  0  0  0  0  0
  -46.6773   59.3707   65.8768 C   0  0  0  0  0  0  0  0  0  0  0  0
  -48.0499   59.7696   65.2781 C   0  0  0  0  0  0  0  0  0  0  0  0
  -49.0365   58.5896   65.1143 C   0  0  0  0  0  0  0  0  0  0  0  0
  -50.5144   58.9875   65.3178 C   0  0  0  0  0  0  0  0  0  0  0  0
  -51.1352   59.6969   64.1084 C   0  0  0  0  0  0  0  0  0  0  0  0
  -51.0940   58.9319   62.7872 C   0  0  0  0  0  0  0  0  0  0  0  0
  -49.8679   59.2595   61.9123 C   0  0  0  0  0  0  0  0  0  0  0  0
  -49.8991   58.6699   60.4941 C   0  0  0  0  0  0  0  0  0  0  0  0
  -50.4374   57.2363   60.5065 C   0  0  0  0  0  0  0  0  0  0  0  0
  -49.4444   56.1392   60.1661 C   0  0  0  0  0  0  0  0  0  0  0  0
  -38.5450   59.8360   65.5327 C   0  0  0  0  0  0  0  0  0  0  0  0
  -38.2021   61.1317   64.9788 O   0  0  0  0  0  0  0  0  0  0  0  0
  -36.3408   61.5477   62.8483 O   0  0  0  0  0  0  0  0  0  0  0  0
  -35.5093   65.0487   64.9579 O   0  0  0  0  0  0  0  0  0  0  0  0
  -36.7554   62.6107   66.2458 O   0  0  0  0  0  0  0  0  0  0  0  0
  -36.8449   61.6934   65.1286 C   0  0  0  0  0  0  0  0  0  0  0  0
  -36.2875   62.4471   63.9125 C   0  0  0  0  0  0  0  0  0  0  0  0
  -34.8236   62.9078   64.0856 C   0  0  0  0  0  0  0  0  0  0  0  0
  -34.8136   63.8426   65.2634 C   0  0  0  0  0  0  0  0  0  0  0  0
  -35.4270   63.1555   66.4700 C   0  0  0  0  0  0  0  0  0  0  0  0
  -37.2545   61.2471   62.7245 H   0  0  0  0  0  0  0  0  0  0  0  0
  -35.1014   65.4705   64.1855 H   0  0  0  0  0  0  0  0  0  0  0  0
  -34.0041   64.6753   67.6444 O   0  0  0  0  0  0  0  0  0  0  0  0
  -35.3302   64.2560   67.5243 C   0  0  0  0  0  0  0  0  0  0  0  0
  -33.9453   65.3741   68.3145 H   0  0  0  0  0  0  0  0  0  0  0  0
  -34.2565   63.6475   62.9805 O   0  0  0  0  0  0  0  0  0  0  0  0
  -32.7110   65.6690   63.4727 O   0  0  0  0  0  0  0  0  0  0  0  0
  -32.2319   64.2289   61.5791 O   0  0  0  0  0  0  0  0  0  0  0  0
  -31.7590   63.4760   63.8338 O   0  0  0  0  0  0  0  0  0  0  0  0
  -32.7070   64.2566   62.9891 S   0  0  0  0  0  0  0  0  0  0  0  0
  -33.3236   66.1935   62.9336 H   0  0  0  0  0  0  0  0  0  0  0  0
  -32.0614   63.4887   64.7554 H   0  0  0  0  0  0  0  0  0  0  0  0
  2  1  1  0  0  0
  2  4  1  0  0  0
  2  5  1  0  0  0
 41 42  1  0  0  0
 41  1  1  0  0  0
 42 46  1  0  0  0
  1 24  1  0  0  0
 23 24  1  0  0  0
 23 25  1  0  0  0
 24 26  1  0  0  0
  3  4  2  0  0  0
 26 27  2  0  0  0
 27 28  1  0  0  0
 43 47  1  0  0  0
 43 51  1  0  0  0
 28 29  1  0  0  0
 56 48  1  0  0  0
 56 60  1  0  0  0
 29 30  1  0  0  0
 57 60  1  0  0  0
 57 61  1  0  0  0
 30 31  1  0  0  0
 44 49  1  0  0  0
 44 52  1  0  0  0
 31 32  1  0  0  0
 45 46  1  0  0  0
 45 50  1  0  0  0
 32 33  1  0  0  0
 53 54  1  0  0  0
 53 55  1  0  0  0
 33 34  1  0  0  0
 34 35  1  0  0  0
 35 36  1  0  0  0
 58 60  1  0  0  0
 36 37  1  0  0  0
 59 60  1  0  0  0
 59 62  1  0  0  0
 37 38  1  0  0  0
 38 39  1  0  0  0
 39 40  1  0  0  0
  4  6  1  0  0  0
  6  7  1  0  0  0
  7  8  1  0  0  0
  8  9  1  0  0  0
  9 10  1  0  0  0
 10 11  1  0  0  0
 11 12  1  0  0  0
 12 13  1  0  0  0
 13 14  1  0  0  0
 14 15  1  0  0  0
 15 16  1  0  0  0
 16 17  1  0  0  0
 17 18  1  0  0  0
 18 19  1  0  0  0
 19 20  1  0  0  0
 20 21  1  0  0  0
 21 22  1  0  0  0
 46 47  1  0  0  0
 47 48  1  0  0  0
 48 49  1  0  0  0
 49 50  1  0  0  0
 50 54  1  0  0  0
M  CHG 1  58  -1
M  END
> <minimizedAffinity>
-9.48287

> <CNNscore>
0.2721751928

> <CNNaffinity>
7.1823210716

> <CNN_VS>
1.9548496008

> <CNNaffinity_variance>
1.4055321217

$$$$
/media/chris/experiments/cd1a-new-docking/inputs/ligands/1onq_ligand.pdb


 62 62  0  0  0  0  0  0  0  0999 V2000
  -40.2256   59.2405   64.1990 C   0  0  0  0  0  0  0  0  0  0  0  0
  -40.1824   59.3311   62.7529 N   0  0  0  0  0  0  0  0  0  0  0  0
  -40.6222   61.5289   62.4016 O   0  0  0  0  0  0  0  0  0  0  0  0
  -40.3736   60.4137   61.9867 C   0  0  0  0  0  0  0  0  0  0  0  0
  -39.9883   58.4930   62.2742 H   0  0  0  0  0  0  0  0  0  0  0  0
  -40.2528   60.1792   60.5102 C   0  0  0  0  0  0  0  0  0  0  0  0
  -38.7652   59.9730   60.2243 C   0  0  0  0  0  0  0  0  0  0  0  0
  -38.5863   58.9564   59.0993 C   0  0  0  0  0  0  0  0  0  0  0  0
  -37.1636   58.6687   58.6851 C   0  0  0  0  0  0  0  0  0  0  0  0
  -37.2055   57.5798   57.6181 C   0  0  0  0  0  0  0  0  0  0  0  0
  -36.2200   56.4373   57.8978 C   0  0  0  0  0  0  0  0  0  0  0  0
  -36.2626   55.9049   59.3418 C   0  0  0  0  0  0  0  0  0  0  0  0
  -34.8736   55.4786   59.8658 C   0  0  0  0  0  0  0  0  0  0  0  0
  -34.2000   56.6340   60.6118 C   0  0  0  0  0  0  0  0  0  0  0  0
  -33.0396   56.2303   61.5133 C   0  0  0  0  0  0  0  0  0  0  0  0
  -32.4088   57.4256   62.2123 C   0  0  0  0  0  0  0  0  0  0  0  0
  -33.3748   58.5177   62.6775 C   0  0  0  0  0  0  0  0  0  0  0  0
  -33.8229   58.1846   64.0941 C   0  0  0  0  0  0  0  0  0  0  0  0
  -35.2778   58.4193   64.4729 C   0  0  0  0  0  0  0  0  0  0  0  0
  -36.1888   57.3538   63.8428 C   0  0  0  0  0  0  0  0  0  0  0  0
  -36.9218   57.8128   62.5689 C   0  0  0  0  0  0  0  0  0  0  0  0
  -38.0503   56.8735   62.1496 C   0  0  0  0  0  0  0  0  0  0  0  0
  -41.1445   60.9669   65.4523 O   0  0  0  0  0  0  0  0  0  0  0  0
  -41.5225   59.9557   64.5367 C   0  0  0  0  0  0  0  0  0  0  0  0
  -40.5232   61.5757   65.0232 H   0  0  0  0  0  0  0  0  0  0  0  0
  -42.5059   58.9579   65.1531 C   0  0  0  0  0  0  0  0  0  0  0  0
  -43.8388   59.1260   65.1156 C   0  0  0  0  0  0  0  0  0  0  0  0
  -44.7547   58.0842   65.7554 C   0  0  0  0  0  0  0  0  0  0  0  0
  -45.9191   58.6871   66.5547 C   0  0  0  0  0  0  0  0  0  0  0  0
  -46.9656   59.4582   65.7290 C   0  0  0  0  0  0  0  0  0  0  0  0
  -47.9832   58.4854   65.0859 C   0  0  0  0  0  0  0  0  0  0  0  0
  -48.1766   58.6459   63.5568 C   0  0  0  0  0  0  0  0  0  0  0  0
  -49.2698   59.6659   63.1602 C   0  0  0  0  0  0  0  0  0  0  0  0
  -50.0251   59.2901   61.8670 C   0  0  0  0  0  0  0  0  0  0  0  0
  -50.8427   57.9980   61.9825 C   0  0  0  0  0  0  0  0  0  0  0  0
  -50.6640   56.9871   60.8518 C   0  0  0  0  0  0  0  0  0  0  0  0
  -50.2791   57.6212   59.5005 C   0  0  0  0  0  0  0  0  0  0  0  0
  -49.0343   57.0232   58.8276 C   0  0  0  0  0  0  0  0  0  0  0  0
  -47.7522   57.5241   59.4989 C   0  0  0  0  0  0  0  0  0  0  0  0
  -46.5092   57.5737   58.6282 C   0  0  0  0  0  0  0  0  0  0  0  0
  -38.9516   59.7152   64.9341 C   0  0  0  0  0  0  0  0  0  0  0  0
  -38.5476   61.0897   64.7091 O   0  0  0  0  0  0  0  0  0  0  0  0
  -36.7630   61.3597   62.4912 O   0  0  0  0  0  0  0  0  0  0  0  0
  -35.4431   64.6885   64.6304 O   0  0  0  0  0  0  0  0  0  0  0  0
  -36.8834   62.3658   65.9289 O   0  0  0  0  0  0  0  0  0  0  0  0
  -37.1307   61.4955   64.7980 C   0  0  0  0  0  0  0  0  0  0  0  0
  -36.5564   62.2177   63.5707 C   0  0  0  0  0  0  0  0  0  0  0  0
  -35.0436   62.5108   63.6749 C   0  0  0  0  0  0  0  0  0  0  0  0
  -34.8702   63.4055   64.8710 C   0  0  0  0  0  0  0  0  0  0  0  0
  -35.4933   62.7559   66.0933 C   0  0  0  0  0  0  0  0  0  0  0  0
  -37.7095   61.1642   62.4101 H   0  0  0  0  0  0  0  0  0  0  0  0
  -35.0310   65.0847   63.8467 H   0  0  0  0  0  0  0  0  0  0  0  0
  -36.3481   63.9534   67.9772 O   0  0  0  0  0  0  0  0  0  0  0  0
  -35.2217   63.8092   67.1651 C   0  0  0  0  0  0  0  0  0  0  0  0
  -36.1731   64.6228   68.6570 H   0  0  0  0  0  0  0  0  0  0  0  0
  -34.4554   63.2149   62.5577 O   0  0  0  0  0  0  0  0  0  0  0  0
  -32.3383   63.6956   61.1421 O   0  0  0  0  0  0  0  0  0  0  0  0
  -32.1018   62.7764   63.3756 O   0  0  0  0  0  0  0  0  0  0  0  0
  -32.6836   65.1096   63.0728 O   0  0  0  0  0  0  0  0  0  0  0  0
  -32.8731   63.7324   62.5355 S   0  0  0  0  0  0  0  0  0  0  0  0
  -32.4531   62.8050   60.7752 H   0  0  0  0  0  0  0  0  0  0  0  0
  -33.1836   65.7398   62.5306 H   0  0  0  0  0  0  0  0  0  0  0  0
  2  1  1  0  0  0
  2  4  1  0  0  0
  2  5  1  0  0  0
 41 42  1  0  0  0
 41  1  1  0  0  0
 42 46  1  0  0  0
  1 24  1  0  0  0
 23 24  1  0  0  0
 23 25  1  0  0  0
 24 26  1  0  0  0
  3  4  2  0  0  0
 26 27  2  0  0  0
 27 28  1  0  0  0
 43 47  1  0  0  0
 43 51  1  0  0  0
 28 29  1  0  0  0
 56 48  1  0  0  0
 56 60  1  0  0  0
 29 30  1  0  0  0
 57 60  1  0  0  0
 57 61  1  0  0  0
 30 31  1  0  0  0
 44 49  1  0  0  0
 44 52  1  0  0  0
 31 32  1  0  0  0
 45 46  1  0  0  0
 45 50  1  0  0  0
 32 33  1  0  0  0
 53 54  1  0  0  0
 53 55  1  0  0  0
 33 34  1  0  0  0
 34 35  1  0  0  0
 35 36  1  0  0  0
 58 60  1  0  0  0
 36 37  1  0  0  0
 59 60  1  0  0  0
 59 62  1  0  0  0
 37 38  1  0  0  0
 38 39  1  0  0  0
 39 40  1  0  0  0
  4  6  1  0  0  0
  6  7  1  0  0  0
  7  8  1  0  0  0
  8  9  1  0  0  0
  9 10  1  0  0  0
 10 11  1  0  0  0
 11 12  1  0  0  0
 12 13  1  0  0  0
 13 14  1  0  0  0
 14 15  1  0  0  0
 15 16  1  0  0  0
 16 17  1  0  0  0
 17 18  1  0  0  0
 18 19  1  0  0  0
 19 20  1  0  0  0
 20 21  1  0  0  0
 21 22  1  0  0  0
 46 47  1  0  0  0
 47 48  1  0  0  0
 48 49  1  0  0  0
 49 50  1  0  0  0
 50 54  1  0  0  0
M  CHG 1  58  -1
M  END
> <minimizedAffinity>
-9.82001

> <CNNscore>
0.2552764714

> <CNNaffinity>
7.3582143784

> <CNN_VS>
1.8783789873

> <CNNaffinity_variance>
1.0964317322

$$$$
/media/chris/experiments/cd1a-new-docking/inputs/ligands/1onq_ligand.pdb


 62 62  0  0  0  0  0  0  0  0999 V2000
  -39.6698   59.3707   64.5012 C   0  0  0  0  0  0  0  0  0  0  0  0
  -38.6458   60.0357   65.2825 N   0  0  0  0  0  0  0  0  0  0  0  0
  -37.2975   60.8892   63.6697 O   0  0  0  0  0  0  0  0  0  0  0  0
  -37.5805   60.7171   64.8393 C   0  0  0  0  0  0  0  0  0  0  0  0
  -38.7455   59.9798   66.2603 H   0  0  0  0  0  0  0  0  0  0  0  0
  -36.7055   61.2991   65.9096 C   0  0  0  0  0  0  0  0  0  0  0  0
  -36.1295   62.5959   65.3408 C   0  0  0  0  0  0  0  0  0  0  0  0
  -36.0078   63.6417   66.4466 C   0  0  0  0  0  0  0  0  0  0  0  0
  -34.6126   64.1370   66.7407 C   0  0  0  0  0  0  0  0  0  0  0  0
  -33.6336   63.1952   66.0477 C   0  0  0  0  0  0  0  0  0  0  0  0
  -32.3752   63.9143   65.5433 C   0  0  0  0  0  0  0  0  0  0  0  0
  -32.5635   65.4230   65.3009 C   0  0  0  0  0  0  0  0  0  0  0  0
  -32.4040   65.8170   63.8160 C   0  0  0  0  0  0  0  0  0  0  0  0
  -31.6193   64.7451   63.0542 C   0  0  0  0  0  0  0  0  0  0  0  0
  -32.3969   64.0393   61.9500 C   0  0  0  0  0  0  0  0  0  0  0  0
  -31.8887   62.6273   61.6981 C   0  0  0  0  0  0  0  0  0  0  0  0
  -32.3358   61.5638   62.7037 C   0  0  0  0  0  0  0  0  0  0  0  0
  -31.6707   60.2461   62.3298 C   0  0  0  0  0  0  0  0  0  0  0  0
  -32.5063   58.9747   62.3545 C   0  0  0  0  0  0  0  0  0  0  0  0
  -33.8588   59.2189   63.0424 C   0  0  0  0  0  0  0  0  0  0  0  0
  -34.0897   58.3801   64.3128 C   0  0  0  0  0  0  0  0  0  0  0  0
  -35.4785   57.7483   64.3754 C   0  0  0  0  0  0  0  0  0  0  0  0
  -40.5228   60.8099   66.1126 O   0  0  0  0  0  0  0  0  0  0  0  0
  -40.9529   59.8861   65.1300 C   0  0  0  0  0  0  0  0  0  0  0  0
  -40.0394   61.5343   65.6857 H   0  0  0  0  0  0  0  0  0  0  0  0
  -41.7253   58.7137   65.7395 C   0  0  0  0  0  0  0  0  0  0  0  0
  -43.0224   58.4776   65.4790 C   0  0  0  0  0  0  0  0  0  0  0  0
  -43.7235   57.2857   66.1281 C   0  0  0  0  0  0  0  0  0  0  0  0
  -45.0897   56.9555   65.5095 C   0  0  0  0  0  0  0  0  0  0  0  0
  -45.5936   57.9431   64.4408 C   0  0  0  0  0  0  0  0  0  0  0  0
  -46.9723   58.5244   64.8367 C   0  0  0  0  0  0  0  0  0  0  0  0
  -48.0819   58.3850   63.7640 C   0  0  0  0  0  0  0  0  0  0  0  0
  -49.0430   59.5945   63.6860 C   0  0  0  0  0  0  0  0  0  0  0  0
  -50.1403   59.4430   62.6102 C   0  0  0  0  0  0  0  0  0  0  0  0
  -50.7079   58.0226   62.5027 C   0  0  0  0  0  0  0  0  0  0  0  0
  -50.9443   57.4994   61.0875 C   0  0  0  0  0  0  0  0  0  0  0  0
  -49.6958   56.8738   60.4349 C   0  0  0  0  0  0  0  0  0  0  0  0
  -48.7113   57.8751   59.8118 C   0  0  0  0  0  0  0  0  0  0  0  0
  -47.2909   57.3035   59.7819 C   0  0  0  0  0  0  0  0  0  0  0  0
  -46.5281   57.4582   58.4782 C   0  0  0  0  0  0  0  0  0  0  0  0
  -39.5188   57.8378   64.3730 C   0  0  0  0  0  0  0  0  0  0  0  0
  -39.0957   57.3339   63.0806 O   0  0  0  0  0  0  0  0  0  0  0  0
  -36.8463   56.7145   61.4273 O   0  0  0  0  0  0  0  0  0  0  0  0
  -39.0964   58.6938   58.5258 O   0  0  0  0  0  0  0  0  0  0  0  0
  -39.4982   59.1243   61.4938 O   0  0  0  0  0  0  0  0  0  0  0  0
  -38.5113   58.2305   62.0634 C   0  0  0  0  0  0  0  0  0  0  0  0
  -37.8206   57.5453   60.8755 C   0  0  0  0  0  0  0  0  0  0  0  0
  -37.1275   58.5301   59.9085 C   0  0  0  0  0  0  0  0  0  0  0  0
  -38.2107   59.4240   59.3711 C   0  0  0  0  0  0  0  0  0  0  0  0
  -38.9664   60.0642   60.5214 C   0  0  0  0  0  0  0  0  0  0  0  0
  -37.2640   56.0880   62.0385 H   0  0  0  0  0  0  0  0  0  0  0  0
  -38.5935   58.2940   57.7990 H   0  0  0  0  0  0  0  0  0  0  0  0
  -40.8615   60.0603   59.0645 O   0  0  0  0  0  0  0  0  0  0  0  0
  -40.0012   60.9014   59.7727 C   0  0  0  0  0  0  0  0  0  0  0  0
  -41.5176   60.5944   58.5899 H   0  0  0  0  0  0  0  0  0  0  0  0
  -36.4843   57.9405   58.7559 O   0  0  0  0  0  0  0  0  0  0  0  0
  -35.6858   55.4910   59.0374 O   0  0  0  0  0  0  0  0  0  0  0  0
  -34.4285   57.2871   60.0778 O   0  0  0  0  0  0  0  0  0  0  0  0
  -34.2884   56.9277   57.6850 O   0  0  0  0  0  0  0  0  0  0  0  0
  -35.1965   56.8910   58.8662 S   0  0  0  0  0  0  0  0  0  0  0  0
  -36.2795   55.4474   59.8033 H   0  0  0  0  0  0  0  0  0  0  0  0
  -34.7814   56.6707   56.8901 H   0  0  0  0  0  0  0  0  0  0  0  0
  2  1  1  0  0  0
  2  4  1  0  0  0
  2  5  1  0  0  0
 41 42  1  0  0  0
 41  1  1  0  0  0
 42 46  1  0  0  0
  1 24  1  0  0  0
 23 24  1  0  0  0
 23 25  1  0  0  0
 24 26  1  0  0  0
  3  4  2  0  0  0
 26 27  2  0  0  0
 27 28  1  0  0  0
 43 47  1  0  0  0
 43 51  1  0  0  0
 28 29  1  0  0  0
 56 48  1  0  0  0
 56 60  1  0  0  0
 29 30  1  0  0  0
 57 60  1  0  0  0
 57 61  1  0  0  0
 30 31  1  0  0  0
 44 49  1  0  0  0
 44 52  1  0  0  0
 31 32  1  0  0  0
 45 46  1  0  0  0
 45 50  1  0  0  0
 32 33  1  0  0  0
 53 54  1  0  0  0
 53 55  1  0  0  0
 33 34  1  0  0  0
 34 35  1  0  0  0
 35 36  1  0  0  0
 58 60  1  0  0  0
 36 37  1  0  0  0
 59 60  1  0  0  0
 59 62  1  0  0  0
 37 38  1  0  0  0
 38 39  1  0  0  0
 39 40  1  0  0  0
  4  6  1  0  0  0
  6  7  1  0  0  0
  7  8  1  0  0  0
  8  9  1  0  0  0
  9 10  1  0  0  0
 10 11  1  0  0  0
 11 12  1  0  0  0
 12 13  1  0  0  0
 13 14  1  0  0  0
 14 15  1  0  0  0
 15 16  1  0  0  0
 16 17  1  0  0  0
 17 18  1  0  0  0
 18 19  1  0  0  0
 19 20  1  0  0  0
 20 21  1  0  0  0
 21 22  1  0  0  0
 46 47  1  0  0  0
 47 48  1  0  0  0
 48 49  1  0  0  0
 49 50  1  0  0  0
 50 54  1  0  0  0
M  CHG 1  58  -1
M  END
> <minimizedAffinity>
-9.19968

> <CNNscore>
0.2268758118

> <CNNaffinity>
6.9929466248

> <CNN_VS>
1.5865304470

> <CNNaffinity_variance>
1.2735809088

$$$$
/media/chris/experiments/cd1a-new-docking/inputs/ligands/1onq_ligand.pdb


 62 62  0  0  0  0  0  0  0  0999 V2000
  -39.6035   59.5075   63.5861 C   0  0  0  0  0  0  0  0  0  0  0  0
  -41.0279   59.4361   63.8456 N   0  0  0  0  0  0  0  0  0  0  0  0
  -41.0851   59.0861   66.0865 O   0  0  0  0  0  0  0  0  0  0  0  0
  -41.6452   59.2401   65.0187 C   0  0  0  0  0  0  0  0  0  0  0  0
  -41.6146   59.5452   63.0627 H   0  0  0  0  0  0  0  0  0  0  0  0
  -43.1438   59.2260   64.9561 C   0  0  0  0  0  0  0  0  0  0  0  0
  -43.6272   58.6278   66.2773 C   0  0  0  0  0  0  0  0  0  0  0  0
  -45.1438   58.7643   66.3876 C   0  0  0  0  0  0  0  0  0  0  0  0
  -45.7997   59.6973   65.3988 C   0  0  0  0  0  0  0  0  0  0  0  0
  -47.2956   59.4003   65.4073 C   0  0  0  0  0  0  0  0  0  0  0  0
  -47.6873   58.2996   64.4125 C   0  0  0  0  0  0  0  0  0  0  0  0
  -49.0324   57.6174   64.7217 C   0  0  0  0  0  0  0  0  0  0  0  0
  -49.9963   58.5240   65.5184 C   0  0  0  0  0  0  0  0  0  0  0  0
  -50.8768   59.3419   64.5694 C   0  0  0  0  0  0  0  0  0  0  0  0
  -50.9560   58.8097   63.1436 C   0  0  0  0  0  0  0  0  0  0  0  0
  -50.4080   59.8000   62.1266 C   0  0  0  0  0  0  0  0  0  0  0  0
  -49.5711   59.2035   60.9926 C   0  0  0  0  0  0  0  0  0  0  0  0
  -50.2294   57.9044   60.5482 C   0  0  0  0  0  0  0  0  0  0  0  0
  -49.6359   57.1535   59.3654 C   0  0  0  0  0  0  0  0  0  0  0  0
  -48.1638   57.5400   59.1514 C   0  0  0  0  0  0  0  0  0  0  0  0
  -47.4731   56.8045   57.9883 C   0  0  0  0  0  0  0  0  0  0  0  0
  -47.5685   55.2841   58.0934 C   0  0  0  0  0  0  0  0  0  0  0  0
  -38.3736   58.1158   64.9812 O   0  0  0  0  0  0  0  0  0  0  0  0
  -39.1554   58.0722   63.8019 C   0  0  0  0  0  0  0  0  0  0  0  0
  -38.9231   58.4147   65.7224 H   0  0  0  0  0  0  0  0  0  0  0  0
  -38.3453   57.6064   62.5898 C   0  0  0  0  0  0  0  0  0  0  0  0
  -38.4799   58.1485   61.3674 C   0  0  0  0  0  0  0  0  0  0  0  0
  -37.6345   57.6268   60.2070 C   0  0  0  0  0  0  0  0  0  0  0  0
  -37.7523   58.4651   58.9258 C   0  0  0  0  0  0  0  0  0  0  0  0
  -36.6122   58.2878   57.9060 C   0  0  0  0  0  0  0  0  0  0  0  0
  -35.9676   56.8872   58.0409 C   0  0  0  0  0  0  0  0  0  0  0  0
  -34.4185   56.8657   58.0074 C   0  0  0  0  0  0  0  0  0  0  0  0
  -33.7768   55.8783   59.0104 C   0  0  0  0  0  0  0  0  0  0  0  0
  -34.6334   55.6355   60.2719 C   0  0  0  0  0  0  0  0  0  0  0  0
  -34.0467   56.2558   61.5456 C   0  0  0  0  0  0  0  0  0  0  0  0
  -34.2161   57.7661   61.6964 C   0  0  0  0  0  0  0  0  0  0  0  0
  -33.2272   58.4109   62.6876 C   0  0  0  0  0  0  0  0  0  0  0  0
  -31.7594   58.4215   62.2345 C   0  0  0  0  0  0  0  0  0  0  0  0
  -31.3290   59.8246   61.7973 C   0  0  0  0  0  0  0  0  0  0  0  0
  -32.1847   60.9777   62.2906 C   0  0  0  0  0  0  0  0  0  0  0  0
  -38.8396   60.6043   64.3622 C   0  0  0  0  0  0  0  0  0  0  0  0
  -38.0271   61.5101   63.5732 O   0  0  0  0  0  0  0  0  0  0  0  0
  -36.0161   62.6965   61.9224 O   0  0  0  0  0  0  0  0  0  0  0  0
  -35.3599   65.0409   65.3094 O   0  0  0  0  0  0  0  0  0  0  0  0
  -36.6851   62.3231   65.4234 O   0  0  0  0  0  0  0  0  0  0  0  0
  -36.6875   61.9312   64.0292 C   0  0  0  0  0  0  0  0  0  0  0  0
  -36.0459   63.0940   63.2585 C   0  0  0  0  0  0  0  0  0  0  0  0
  -34.6011   63.4106   63.7028 C   0  0  0  0  0  0  0  0  0  0  0  0
  -34.6825   63.7963   65.1540 C   0  0  0  0  0  0  0  0  0  0  0  0
  -35.3796   62.6998   65.9387 C   0  0  0  0  0  0  0  0  0  0  0  0
  -36.9167   62.4932   61.6254 H   0  0  0  0  0  0  0  0  0  0  0  0
  -34.8984   65.7260   64.8008 H   0  0  0  0  0  0  0  0  0  0  0  0
  -36.6122   63.8448   67.6368 O   0  0  0  0  0  0  0  0  0  0  0  0
  -35.3663   63.2845   67.3495 C   0  0  0  0  0  0  0  0  0  0  0  0
  -36.6011   64.2155   68.5331 H   0  0  0  0  0  0  0  0  0  0  0  0
  -33.9579   64.5160   63.0287 O   0  0  0  0  0  0  0  0  0  0  0  0
  -31.6913   64.7876   61.8015 O   0  0  0  0  0  0  0  0  0  0  0  0
  -31.7468   63.7618   64.0002 O   0  0  0  0  0  0  0  0  0  0  0  0
  -32.0205   66.1586   63.7657 O   0  0  0  0  0  0  0  0  0  0  0  0
  -32.3286   64.8364   63.1507 S   0  0  0  0  0  0  0  0  0  0  0  0
  -31.8813   63.9324   61.3850 H   0  0  0  0  0  0  0  0  0  0  0  0
  -32.3965   66.8654   63.2179 H   0  0  0  0  0  0  0  0  0  0  0  0
  2  1  1  0  0  0
  2  4  1  0  0  0
  2  5  1  0  0  0
 41 42  1  0  0  0
 41  1  1  0  0  0
 42 46  1  0  0  0
  1 24  1  0  0  0
 23 24  1  0  0  0
 23 25  1  0  0  0
 24 26  1  0  0  0
  3  4  2  0  0  0
 26 27  2  0  0  0
 27 28  1  0  0  0
 43 47  1  0  0  0
 43 51  1  0  0  0
 28 29  1  0  0  0
 56 48  1  0  0  0
 56 60  1  0  0  0
 29 30  1  0  0  0
 57 60  1  0  0  0
 57 61  1  0  0  0
 30 31  1  0  0  0
 44 49  1  0  0  0
 44 52  1  0  0  0
 31 32  1  0  0  0
 45 46  1  0  0  0
 45 50  1  0  0  0
 32 33  1  0  0  0
 53 54  1  0  0  0
 53 55  1  0  0  0
 33 34  1  0  0  0
 34 35  1  0  0  0
 35 36  1  0  0  0
 58 60  1  0  0  0
 36 37  1  0  0  0
 59 60  1  0  0  0
 59 62  1  0  0  0
 37 38  1  0  0  0
 38 39  1  0  0  0
 39 40  1  0  0  0
  4  6  1  0  0  0
  6  7  1  0  0  0
  7  8  1  0  0  0
  8  9  1  0  0  0
  9 10  1  0  0  0
 10 11  1  0  0  0
 11 12  1  0  0  0
 12 13  1  0  0  0
 13 14  1  0  0  0
 14 15  1  0  0  0
 15 16  1  0  0  0
 16 17  1  0  0  0
 17 18  1  0  0  0
 18 19  1  0  0  0
 19 20  1  0  0  0
 20 21  1  0  0  0
 21 22  1  0  0  0
 46 47  1  0  0  0
 47 48  1  0  0  0
 48 49  1  0  0  0
 49 50  1  0  0  0
 50 54  1  0  0  0
M  CHG 1  58  -1
M  END
> <minimizedAffinity>
-9.55209

> <CNNscore>
0.2236444652

> <CNNaffinity>
6.8851304054

> <CNN_VS>
1.5398212671

> <CNNaffinity_variance>
0.8417669535

$$$$
