/media/chris/experiments/cd1a-new-docking/inputs/ligands/1onq_ligand.pdb


 62 62  0  0  0  0  0  0  0  0999 V2000
  -38.4592   59.9044   62.9280 C   0  0  0  0  0  0  0  0  0  0  0  0
  -39.1703   59.6542   64.1661 N   0  0  0  0  0  0  0  0  0  0  0  0
  -40.8995   61.1162   64.0242 O   0  0  0  0  0  0  0  0  0  0  0  0
  -40.2872   60.2457   64.6116 C   0  0  0  0  0  0  0  0  0  0  0  0
  -38.7848   58.9639   64.7527 H   0  0  0  0  0  0  0  0  0  0  0  0
  -40.7831   59.7540   65.9391 C   0  0  0  0  0  0  0  0  0  0  0  0
  -41.7182   58.5809   65.6447 C   0  0  0  0  0  0  0  0  0  0  0  0
  -43.0207   58.7438   66.4243 C   0  0  0  0  0  0  0  0  0  0  0  0
  -44.2265   59.1664   65.6207 C   0  0  0  0  0  0  0  0  0  0  0  0
  -45.0822   57.9258   65.3868 C   0  0  0  0  0  0  0  0  0  0  0  0
  -46.3572   58.2267   64.5876 C   0  0  0  0  0  0  0  0  0  0  0  0
  -47.1261   59.4708   65.0688 C   0  0  0  0  0  0  0  0  0  0  0  0
  -48.6425   59.2187   65.2185 C   0  0  0  0  0  0  0  0  0  0  0  0
  -49.4279   60.0126   64.1707 C   0  0  0  0  0  0  0  0  0  0  0  0
  -50.9335   59.7771   64.1781 C   0  0  0  0  0  0  0  0  0  0  0  0
  -51.4232   59.1323   62.8899 C   0  0  0  0  0  0  0  0  0  0  0  0
  -50.3419   58.7570   61.8741 C   0  0  0  0  0  0  0  0  0  0  0  0
  -50.8406   57.5665   61.0662 C   0  0  0  0  0  0  0  0  0  0  0  0
  -49.9668   57.0309   59.9415 C   0  0  0  0  0  0  0  0  0  0  0  0
  -48.5775   57.6879   59.9642 C   0  0  0  0  0  0  0  0  0  0  0  0
  -47.4822   56.8906   59.2323 C   0  0  0  0  0  0  0  0  0  0  0  0
  -47.9216   55.4825   58.8379 C   0  0  0  0  0  0  0  0  0  0  0  0
  -39.0187   57.6504   62.8802 O   0  0  0  0  0  0  0  0  0  0  0  0
  -38.9507   58.7810   62.0313 C   0  0  0  0  0  0  0  0  0  0  0  0
  -39.6549   57.8188   63.5927 H   0  0  0  0  0  0  0  0  0  0  0  0
  -37.9608   58.5803   60.8815 C   0  0  0  0  0  0  0  0  0  0  0  0
  -38.2239   58.9496   59.6163 C   0  0  0  0  0  0  0  0  0  0  0  0
  -37.1830   58.7139   58.5234 C   0  0  0  0  0  0  0  0  0  0  0  0
  -37.4147   57.4321   57.7102 C   0  0  0  0  0  0  0  0  0  0  0  0
  -36.3208   56.3557   57.8366 C   0  0  0  0  0  0  0  0  0  0  0  0
  -34.9648   56.9933   58.2237 C   0  0  0  0  0  0  0  0  0  0  0  0
  -34.0494   56.1132   59.1121 C   0  0  0  0  0  0  0  0  0  0  0  0
  -34.4289   56.1165   60.6116 C   0  0  0  0  0  0  0  0  0  0  0  0
  -34.7595   57.5208   61.1619 C   0  0  0  0  0  0  0  0  0  0  0  0
  -33.9212   57.9192   62.3825 C   0  0  0  0  0  0  0  0  0  0  0  0
  -32.4483   57.5171   62.3454 C   0  0  0  0  0  0  0  0  0  0  0  0
  -31.4774   58.7078   62.2208 C   0  0  0  0  0  0  0  0  0  0  0  0
  -32.1356   60.0954   62.2525 C   0  0  0  0  0  0  0  0  0  0  0  0
  -31.1164   61.1947   61.9397 C   0  0  0  0  0  0  0  0  0  0  0  0
  -29.7590   61.0670   62.6081 C   0  0  0  0  0  0  0  0  0  0  0  0
  -36.9290   60.0754   63.0620 C   0  0  0  0  0  0  0  0  0  0  0  0
  -36.3941   61.3879   62.7548 O   0  0  0  0  0  0  0  0  0  0  0  0
  -34.1951   63.0082   61.9086 O   0  0  0  0  0  0  0  0  0  0  0  0
  -35.3015   65.3118   65.2053 O   0  0  0  0  0  0  0  0  0  0  0  0
  -36.0117   62.3830   64.9341 O   0  0  0  0  0  0  0  0  0  0  0  0
  -35.4260   62.0492   63.6523 C   0  0  0  0  0  0  0  0  0  0  0  0
  -34.7899   63.3432   63.1243 C   0  0  0  0  0  0  0  0  0  0  0  0
  -33.7013   63.9235   64.0535 C   0  0  0  0  0  0  0  0  0  0  0  0
  -34.3828   64.2325   65.3578 C   0  0  0  0  0  0  0  0  0  0  0  0
  -35.0876   62.9919   65.8759 C   0  0  0  0  0  0  0  0  0  0  0  0
  -34.8652   62.6414   61.3110 H   0  0  0  0  0  0  0  0  0  0  0  0
  -34.8308   66.0927   64.8741 H   0  0  0  0  0  0  0  0  0  0  0  0
  -36.9779   64.0311   66.9055 O   0  0  0  0  0  0  0  0  0  0  0  0
  -35.7074   63.5161   67.1694 C   0  0  0  0  0  0  0  0  0  0  0  0
  -37.3694   64.3633   67.7285 H   0  0  0  0  0  0  0  0  0  0  0  0
  -33.0878   65.1580   63.6182 O   0  0  0  0  0  0  0  0  0  0  0  0
  -31.1504   66.6444   62.7499 O   0  0  0  0  0  0  0  0  0  0  0  0
  -31.7711   64.6472   61.5191 O   0  0  0  0  0  0  0  0  0  0  0  0
  -30.5357   64.4645   63.5964 O   0  0  0  0  0  0  0  0  0  0  0  0
  -31.5975   65.2259   62.8791 S   0  0  0  0  0  0  0  0  0  0  0  0
  -31.8301   67.1566   62.2846 H   0  0  0  0  0  0  0  0  0  0  0  0
  -30.4159   64.8354   64.4846 H   0  0  0  0  0  0  0  0  0  0  0  0
  2  1  1  0  0  0
  2  4  1  0  0  0
  2  5  1  0  0  0
 41 42  1  0  0  0
 41  1  1  0  0  0
 42 46  1  0  0  0
  1 24  1  0  0  0
 23 24  1  0  0  0
 23 25  1  0  0  0
 24 26  1  0  0  0
  3  4  2  0  0  0
 26 27  2  0  0  0
 27 28  1  0  0  0
 43 47  1  0  0  0
 43 51  1  0  0  0
 28 29  1  0  0  0
 56 48  1  0  0  0
 56 60  1  0  0  0
 29 30  1  0  0  0
 57 60  1  0  0  0
 57 61  1  0  0  0
 30 31  1  0  0  0
 44 49  1  0  0  0
 44 52  1  0  0  0
 31 32  1  0  0  0
 45 46  1  0  0  0
 45 50  1  0  0  0
 32 33  1  0  0  0
 53 54  1  0  0  0
 53 55  1  0  0  0
 33 34  1  0  0  0
 34 35  1  0  0  0
 35 36  1  0  0  0
 58 60  1  0  0  0
 36 37  1  0  0  0
 59 60  1  0  0  0
 59 62  1  0  0  0
 37 38  1  0  0  0
 38 39  1  0  0  0
 39 40  1  0  0  0
  4  6  1  0  0  0
  6  7  1  0  0  0
  7  8  1  0  0  0
  8  9  1  0  0  0
  9 10  1  0  0  0
 10 11  1  0  0  0
 11 12  1  0  0  0
 12 13  1  0  0  0
 13 14  1  0  0  0
 14 15  1  0  0  0
 15 16  1  0  0  0
 16 17  1  0  0  0
 17 18  1  0  0  0
 18 19  1  0  0  0
 19 20  1  0  0  0
 20 21  1  0  0  0
 21 22  1  0  0  0
 46 47  1  0  0  0
 47 48  1  0  0  0
 48 49  1  0  0  0
 49 50  1  0  0  0
 50 54  1  0  0  0
M  CHG 1  58  -1
M  END
> <minimizedAffinity>
-9.71423

> <CNNscore>
0.6454172730

> <CNNaffinity>
7.2846603394

> <CNN_VS>
4.7016453743

> <CNNaffinity_variance>
0.9463982582

$$$$
/media/chris/experiments/cd1a-new-docking/inputs/ligands/1onq_ligand.pdb


 62 62  0  0  0  0  0  0  0  0999 V2000
  -38.8259   59.6738   63.4996 C   0  0  0  0  0  0  0  0  0  0  0  0
  -39.7178   59.4904   64.6274 N   0  0  0  0  0  0  0  0  0  0  0  0
  -41.2292   61.1531   64.3125 O   0  0  0  0  0  0  0  0  0  0  0  0
  -40.8061   60.2050   64.9450 C   0  0  0  0  0  0  0  0  0  0  0  0
  -39.4966   58.7487   65.2357 H   0  0  0  0  0  0  0  0  0  0  0  0
  -41.5264   59.7543   66.1810 C   0  0  0  0  0  0  0  0  0  0  0  0
  -42.3681   58.5443   65.7750 C   0  0  0  0  0  0  0  0  0  0  0  0
  -43.8527   58.8678   65.9248 C   0  0  0  0  0  0  0  0  0  0  0  0
  -44.7906   58.1179   65.0103 C   0  0  0  0  0  0  0  0  0  0  0  0
  -46.1550   58.0681   65.6900 C   0  0  0  0  0  0  0  0  0  0  0  0
  -46.6887   59.4607   66.0515 C   0  0  0  0  0  0  0  0  0  0  0  0
  -48.2189   59.5308   66.2065 C   0  0  0  0  0  0  0  0  0  0  0  0
  -48.9265   58.2282   65.7728 C   0  0  0  0  0  0  0  0  0  0  0  0
  -50.4119   58.4848   65.5028 C   0  0  0  0  0  0  0  0  0  0  0  0
  -50.7020   59.4641   64.3719 C   0  0  0  0  0  0  0  0  0  0  0  0
  -51.2129   58.7658   63.1203 C   0  0  0  0  0  0  0  0  0  0  0  0
  -50.1496   58.3582   62.0979 C   0  0  0  0  0  0  0  0  0  0  0  0
  -50.8152   57.4879   61.0404 C   0  0  0  0  0  0  0  0  0  0  0  0
  -50.1906   57.4183   59.6547 C   0  0  0  0  0  0  0  0  0  0  0  0
  -48.7432   57.9346   59.6773 C   0  0  0  0  0  0  0  0  0  0  0  0
  -47.7016   56.9391   59.1339 C   0  0  0  0  0  0  0  0  0  0  0  0
  -46.5779   57.6100   58.3473 C   0  0  0  0  0  0  0  0  0  0  0  0
  -37.6674   57.6765   63.7538 O   0  0  0  0  0  0  0  0  0  0  0  0
  -38.6817   58.2617   62.9586 C   0  0  0  0  0  0  0  0  0  0  0  0
  -37.9537   57.6573   64.6804 H   0  0  0  0  0  0  0  0  0  0  0  0
  -38.2920   58.3227   61.4799 C   0  0  0  0  0  0  0  0  0  0  0  0
  -38.8484   59.1843   60.6113 C   0  0  0  0  0  0  0  0  0  0  0  0
  -38.4055   59.1825   59.1494 C   0  0  0  0  0  0  0  0  0  0  0  0
  -37.1442   58.3481   58.8829 C   0  0  0  0  0  0  0  0  0  0  0  0
  -37.2065   57.4189   57.6566 C   0  0  0  0  0  0  0  0  0  0  0  0
  -36.6384   56.0202   57.9977 C   0  0  0  0  0  0  0  0  0  0  0  0
  -36.3956   55.7543   59.5050 C   0  0  0  0  0  0  0  0  0  0  0  0
  -35.0013   55.1677   59.8282 C   0  0  0  0  0  0  0  0  0  0  0  0
  -33.8914   56.2359   59.9341 C   0  0  0  0  0  0  0  0  0  0  0  0
  -34.1172   57.2519   61.0602 C   0  0  0  0  0  0  0  0  0  0  0  0
  -33.0544   57.2865   62.1564 C   0  0  0  0  0  0  0  0  0  0  0  0
  -32.6633   58.7085   62.6043 C   0  0  0  0  0  0  0  0  0  0  0  0
  -31.7830   59.4876   61.6154 C   0  0  0  0  0  0  0  0  0  0  0  0
  -30.5083   59.9952   62.2957 C   0  0  0  0  0  0  0  0  0  0  0  0
  -29.9722   61.3316   61.8139 C   0  0  0  0  0  0  0  0  0  0  0  0
  -37.5209   60.4451   63.8015 C   0  0  0  0  0  0  0  0  0  0  0  0
  -37.6681   61.7650   64.3842 O   0  0  0  0  0  0  0  0  0  0  0  0
  -36.7382   63.4697   66.4833 O   0  0  0  0  0  0  0  0  0  0  0  0
  -33.0255   62.7229   64.7349 O   0  0  0  0  0  0  0  0  0  0  0  0
  -35.6371   62.4288   63.2354 O   0  0  0  0  0  0  0  0  0  0  0  0
  -36.6077   62.7836   64.2500 C   0  0  0  0  0  0  0  0  0  0  0  0
  -35.8027   63.0924   65.5206 C   0  0  0  0  0  0  0  0  0  0  0  0
  -34.7909   64.2464   65.3489 C   0  0  0  0  0  0  0  0  0  0  0  0
  -33.8302   63.8074   64.2785 C   0  0  0  0  0  0  0  0  0  0  0  0
  -34.5971   63.4220   63.0265 C   0  0  0  0  0  0  0  0  0  0  0  0
  -37.3831   62.7555   66.6047 H   0  0  0  0  0  0  0  0  0  0  0  0
  -32.5451   62.9907   65.5340 H   0  0  0  0  0  0  0  0  0  0  0  0
  -32.5691   64.0702   61.9399 O   0  0  0  0  0  0  0  0  0  0  0  0
  -33.4612   63.0075   62.0937 C   0  0  0  0  0  0  0  0  0  0  0  0
  -31.8487   63.8044   61.3472 H   0  0  0  0  0  0  0  0  0  0  0  0
  -33.9854   64.5615   66.5072 O   0  0  0  0  0  0  0  0  0  0  0  0
  -32.4685   66.1978   67.8258 O   0  0  0  0  0  0  0  0  0  0  0  0
  -33.0957   66.7240   65.5414 O   0  0  0  0  0  0  0  0  0  0  0  0
  -31.4328   65.0179   65.9869 O   0  0  0  0  0  0  0  0  0  0  0  0
  -32.7059   65.6261   66.4673 S   0  0  0  0  0  0  0  0  0  0  0  0
  -33.2878   66.5989   68.1556 H   0  0  0  0  0  0  0  0  0  0  0  0
  -31.1712   64.3007   66.5852 H   0  0  0  0  0  0  0  0  0  0  0  0
  2  1  1  0  0  0
  2  4  1  0  0  0
  2  5  1  0  0  0
 41 42  1  0  0  0
 41  1  1  0  0  0
 42 46  1  0  0  0
  1 24  1  0  0  0
 23 24  1  0  0  0
 23 25  1  0  0  0
 24 26  1  0  0  0
  3  4  2  0  0  0
 26 27  2  0  0  0
 27 28  1  0  0  0
 43 47  1  0  0  0
 43 51  1  0  0  0
 28 29  1  0  0  0
 56 48  1  0  0  0
 56 60  1  0  0  0
 29 30  1  0  0  0
 57 60  1  0  0  0
 57 61  1  0  0  0
 30 31  1  0  0  0
 44 49  1  0  0  0
 44 52  1  0  0  0
 31 32  1  0  0  0
 45 46  1  0  0  0
 45 50  1  0  0  0
 32 33  1  0  0  0
 53 54  1  0  0  0
 53 55  1  0  0  0
 33 34  1  0  0  0
 34 35  1  0  0  0
 35 36  1  0  0  0
 58 60  1  0  0  0
 36 37  1  0  0  0
 59 60  1  0  0  0
 59 62  1  0  0  0
 37 38  1  0  0  0
 38 39  1  0  0  0
 39 40  1  0  0  0
  4  6  1  0  0  0
  6  7  1  0  0  0
  7  8  1  0  0  0
  8  9  1  0  0  0
  9 10  1  0  0  0
 10 11  1  0  0  0
 11 12  1  0  0  0
 12 13  1  0  0  0
 13 14  1  0  0  0
 14 15  1  0  0  0
 15 16  1  0  0  0
 16 17  1  0  0  0
 17 18  1  0  0  0
 18 19  1  0  0  0
 19 20  1  0  0  0
 20 21  1  0  0  0
 21 22  1  0  0  0
 46 47  1  0  0  0
 47 48  1  0  0  0
 48 49  1  0  0  0
 49 50  1  0  0  0
 50 54  1  0  0  0
M  CHG 1  58  -1
M  END
> <minimizedAffinity>
-10.06972

> <CNNscore>
0.5613169670

> <CNNaffinity>
7.1986227036

> <CNN_VS>
4.0407090187

> <CNNaffinity_variance>
0.9356797934

$$$$
/media/chris/experiments/cd1a-new-docking/inputs/ligands/1onq_ligand.pdb


 62 62  0  0  0  0  0  0  0  0999 V2000
  -37.2916   59.0951   63.7487 C   0  0  0  0  0  0  0  0  0  0  0  0
  -37.5313   58.4158   62.4909 N   0  0  0  0  0  0  0  0  0  0  0  0
  -37.5082   60.1353   61.0108 O   0  0  0  0  0  0  0  0  0  0  0  0
  -37.6196   58.9519   61.2659 C   0  0  0  0  0  0  0  0  0  0  0  0
  -37.6432   57.4391   62.5430 H   0  0  0  0  0  0  0  0  0  0  0  0
  -37.8681   57.9723   60.1576 C   0  0  0  0  0  0  0  0  0  0  0  0
  -37.8559   58.7767   58.8575 C   0  0  0  0  0  0  0  0  0  0  0  0
  -36.5997   58.4496   58.0537 C   0  0  0  0  0  0  0  0  0  0  0  0
  -36.1725   57.0019   58.0502 C   0  0  0  0  0  0  0  0  0  0  0  0
  -34.6512   56.9707   57.9471 C   0  0  0  0  0  0  0  0  0  0  0  0
  -34.0055   56.0410   58.9832 C   0  0  0  0  0  0  0  0  0  0  0  0
  -34.9225   55.6784   60.1656 C   0  0  0  0  0  0  0  0  0  0  0  0
  -34.6243   56.5086   61.4334 C   0  0  0  0  0  0  0  0  0  0  0  0
  -33.1217   56.5221   61.7290 C   0  0  0  0  0  0  0  0  0  0  0  0
  -32.6228   57.7517   62.4781 C   0  0  0  0  0  0  0  0  0  0  0  0
  -32.0910   58.8238   61.5385 C   0  0  0  0  0  0  0  0  0  0  0  0
  -31.5361   60.0849   62.2047 C   0  0  0  0  0  0  0  0  0  0  0  0
  -30.1677   60.3774   61.6043 C   0  0  0  0  0  0  0  0  0  0  0  0
  -29.3470   61.5209   62.1824 C   0  0  0  0  0  0  0  0  0  0  0  0
  -30.1609   62.3132   63.2179 C   0  0  0  0  0  0  0  0  0  0  0  0
  -30.0372   63.8429   63.0925 C   0  0  0  0  0  0  0  0  0  0  0  0
  -30.0562   64.3338   61.6468 C   0  0  0  0  0  0  0  0  0  0  0  0
  -37.7127   61.2625   64.4703 O   0  0  0  0  0  0  0  0  0  0  0  0
  -38.3072   60.2242   63.7140 C   0  0  0  0  0  0  0  0  0  0  0  0
  -36.8847   61.5378   64.0467 H   0  0  0  0  0  0  0  0  0  0  0  0
  -39.6225   59.7421   64.3303 C   0  0  0  0  0  0  0  0  0  0  0  0
  -40.8278   60.0955   63.8521 C   0  0  0  0  0  0  0  0  0  0  0  0
  -42.0957   59.5724   64.5245 C   0  0  0  0  0  0  0  0  0  0  0  0
  -41.8409   58.8494   65.8550 C   0  0  0  0  0  0  0  0  0  0  0  0
  -43.0953   58.5172   66.6840 C   0  0  0  0  0  0  0  0  0  0  0  0
  -43.5969   57.0867   66.3721 C   0  0  0  0  0  0  0  0  0  0  0  0
  -45.0803   56.9864   65.9349 C   0  0  0  0  0  0  0  0  0  0  0  0
  -45.3653   57.5565   64.5255 C   0  0  0  0  0  0  0  0  0  0  0  0
  -46.6355   58.4319   64.4587 C   0  0  0  0  0  0  0  0  0  0  0  0
  -46.8308   59.3317   65.6850 C   0  0  0  0  0  0  0  0  0  0  0  0
  -48.2034   59.2692   66.3517 C   0  0  0  0  0  0  0  0  0  0  0  0
  -49.0060   57.9973   66.0138 C   0  0  0  0  0  0  0  0  0  0  0  0
  -50.4290   58.2412   65.4892 C   0  0  0  0  0  0  0  0  0  0  0  0
  -50.4148   59.1712   64.2727 C   0  0  0  0  0  0  0  0  0  0  0  0
  -50.7779   58.5435   62.9386 C   0  0  0  0  0  0  0  0  0  0  0  0
  -35.8215   59.4833   64.0261 C   0  0  0  0  0  0  0  0  0  0  0  0
  -35.3181   60.6533   63.3327 O   0  0  0  0  0  0  0  0  0  0  0  0
  -33.6372   62.6224   62.1186 O   0  0  0  0  0  0  0  0  0  0  0  0
  -35.4084   65.1227   64.9489 O   0  0  0  0  0  0  0  0  0  0  0  0
  -35.2728   62.1167   65.2671 O   0  0  0  0  0  0  0  0  0  0  0  0
  -34.5905   61.7165   64.0539 C   0  0  0  0  0  0  0  0  0  0  0  0
  -34.3272   63.0085   63.2671 C   0  0  0  0  0  0  0  0  0  0  0  0
  -33.4620   64.0348   64.0309 C   0  0  0  0  0  0  0  0  0  0  0  0
  -34.2300   64.3895   65.2741 C   0  0  0  0  0  0  0  0  0  0  0  0
  -34.5739   63.1269   66.0434 C   0  0  0  0  0  0  0  0  0  0  0  0
  -34.1666   61.9767   61.6251 H   0  0  0  0  0  0  0  0  0  0  0  0
  -35.1658   65.9239   64.4587 H   0  0  0  0  0  0  0  0  0  0  0  0
  -36.1338   62.7013   67.8038 O   0  0  0  0  0  0  0  0  0  0  0  0
  -35.3421   63.6992   67.2328 C   0  0  0  0  0  0  0  0  0  0  0  0
  -36.6205   63.0672   68.5589 H   0  0  0  0  0  0  0  0  0  0  0  0
  -33.2058   65.2824   63.3470 O   0  0  0  0  0  0  0  0  0  0  0  0
  -33.5710   67.6416   64.3558 O   0  0  0  0  0  0  0  0  0  0  0  0
  -31.5271   67.1636   63.1382 O   0  0  0  0  0  0  0  0  0  0  0  0
  -31.8445   66.2920   65.3774 O   0  0  0  0  0  0  0  0  0  0  0  0
  -32.5267   66.6083   64.0905 S   0  0  0  0  0  0  0  0  0  0  0  0
  -34.0267   67.8608   63.5280 H   0  0  0  0  0  0  0  0  0  0  0  0
  -32.4894   65.9291   66.0045 H   0  0  0  0  0  0  0  0  0  0  0  0
  2  1  1  0  0  0
  2  4  1  0  0  0
  2  5  1  0  0  0
 41 42  1  0  0  0
 41  1  1  0  0  0
 42 46  1  0  0  0
  1 24  1  0  0  0
 23 24  1  0  0  0
 23 25  1  0  0  0
 24 26  1  0  0  0
  3  4  2  0  0  0
 26 27  2  0  0  0
 27 28  1  0  0  0
 43 47  1  0  0  0
 43 51  1  0  0  0
 28 29  1  0  0  0
 56 48  1  0  0  0
 56 60  1  0  0  0
 29 30  1  0  0  0
 57 60  1  0  0  0
 57 61  1  0  0  0
 30 31  1  0  0  0
 44 49  1  0  0  0
 44 52  1  0  0  0
 31 32  1  0  0  0
 45 46  1  0  0  0
 45 50  1  0  0  0
 32 33  1  0  0  0
 53 54  1  0  0  0
 53 55  1  0  0  0
 33 34  1  0  0  0
 34 35  1  0  0  0
 35 36  1  0  0  0
 58 60  1  0  0  0
 36 37  1  0  0  0
 59 60  1  0  0  0
 59 62  1  0  0  0
 37 38  1  0  0  0
 38 39  1  0  0  0
 39 40  1  0  0  0
  4  6  1  0  0  0
  6  7  1  0  0  0
  7  8  1  0  0  0
  8  9  1  0  0  0
  9 10  1  0  0  0
 10 11  1  0  0  0
 11 12  1  0  0  0
 12 13  1  0  0  0
 13 14  1  0  0  0
 14 15  1  0  0  0
 15 16  1  0  0  0
 16 17  1  0  0  0
 17 18  1  0  0  0
 18 19  1  0  0  0
 19 20  1  0  0  0
 20 21  1  0  0  0
 21 22  1  0  0  0
 46 47  1  0  0  0
 47 48  1  0  0  0
 48 49  1  0  0  0
 49 50  1  0  0  0
 50 54  1  0  0  0
M  CHG 1  58  -1
M  END
> <minimizedAffinity>
-9.29546

> <CNNscore>
0.4581691325

> <CNNaffinity>
7.1708955765

> <CNN_VS>
3.2854831219

> <CNNaffinity_variance>
1.3268362284

$$$$
/media/chris/experiments/cd1a-new-docking/inputs/ligands/1onq_ligand.pdb


 62 62  0  0  0  0  0  0  0  0999 V2000
  -38.5611   59.1447   64.3727 C   0  0  0  0  0  0  0  0  0  0  0  0
  -38.5069   58.2936   63.2006 N   0  0  0  0  0  0  0  0  0  0  0  0
  -36.6337   57.0731   63.5863 O   0  0  0  0  0  0  0  0  0  0  0  0
  -37.5938   57.3606   62.8984 C   0  0  0  0  0  0  0  0  0  0  0  0
  -39.2311   58.4164   62.5450 H   0  0  0  0  0  0  0  0  0  0  0  0
  -37.8245   56.6385   61.6041 C   0  0  0  0  0  0  0  0  0  0  0  0
  -36.4746   56.5910   60.8879 C   0  0  0  0  0  0  0  0  0  0  0  0
  -36.6858   56.3809   59.3905 C   0  0  0  0  0  0  0  0  0  0  0  0
  -35.7170   57.0927   58.4776 C   0  0  0  0  0  0  0  0  0  0  0  0
  -36.4492   58.2831   57.8670 C   0  0  0  0  0  0  0  0  0  0  0  0
  -37.8715   58.4508   58.4181 C   0  0  0  0  0  0  0  0  0  0  0  0
  -38.0302   59.6132   59.4152 C   0  0  0  0  0  0  0  0  0  0  0  0
  -39.4255   59.6509   60.0764 C   0  0  0  0  0  0  0  0  0  0  0  0
  -40.4338   60.3622   59.1695 C   0  0  0  0  0  0  0  0  0  0  0  0
  -41.6957   59.5662   58.8591 C   0  0  0  0  0  0  0  0  0  0  0  0
  -41.9659   59.4722   57.3647 C   0  0  0  0  0  0  0  0  0  0  0  0
  -43.1116   58.5476   56.9469 C   0  0  0  0  0  0  0  0  0  0  0  0
  -44.1357   58.5198   58.0735 C   0  0  0  0  0  0  0  0  0  0  0  0
  -45.4771   57.8466   57.8231 C   0  0  0  0  0  0  0  0  0  0  0  0
  -46.1647   57.4811   59.1482 C   0  0  0  0  0  0  0  0  0  0  0  0
  -47.7033   57.5227   59.1018 C   0  0  0  0  0  0  0  0  0  0  0  0
  -48.3358   56.1632   58.8133 C   0  0  0  0  0  0  0  0  0  0  0  0
  -40.0723   60.7369   65.1322 O   0  0  0  0  0  0  0  0  0  0  0  0
  -40.0376   59.4900   64.4631 C   0  0  0  0  0  0  0  0  0  0  0  0
  -39.6005   61.4002   64.6047 H   0  0  0  0  0  0  0  0  0  0  0  0
  -40.7672   58.3953   65.2452 C   0  0  0  0  0  0  0  0  0  0  0  0
  -41.8821   58.6256   65.9595 C   0  0  0  0  0  0  0  0  0  0  0  0
  -42.5517   57.4788   66.7145 C   0  0  0  0  0  0  0  0  0  0  0  0
  -43.4746   56.6152   65.8423 C   0  0  0  0  0  0  0  0  0  0  0  0
  -44.9754   56.9497   65.9256 C   0  0  0  0  0  0  0  0  0  0  0  0
  -45.3912   57.8991   64.7763 C   0  0  0  0  0  0  0  0  0  0  0  0
  -45.7172   59.3526   65.2040 C   0  0  0  0  0  0  0  0  0  0  0  0
  -46.8135   59.4627   66.2897 C   0  0  0  0  0  0  0  0  0  0  0  0
  -48.2412   59.5880   65.7152 C   0  0  0  0  0  0  0  0  0  0  0  0
  -49.0840   58.3166   65.8719 C   0  0  0  0  0  0  0  0  0  0  0  0
  -50.3251   58.2205   64.9873 C   0  0  0  0  0  0  0  0  0  0  0  0
  -50.9940   59.5787   64.6977 C   0  0  0  0  0  0  0  0  0  0  0  0
  -51.5829   59.7311   63.2872 C   0  0  0  0  0  0  0  0  0  0  0  0
  -50.9207   58.7587   62.3068 C   0  0  0  0  0  0  0  0  0  0  0  0
  -49.8375   59.3350   61.4123 C   0  0  0  0  0  0  0  0  0  0  0  0
  -37.5634   60.3251   64.3849 C   0  0  0  0  0  0  0  0  0  0  0  0
  -36.1925   60.0116   64.7393 O   0  0  0  0  0  0  0  0  0  0  0  0
  -34.0505   60.9963   63.1209 O   0  0  0  0  0  0  0  0  0  0  0  0
  -35.2160   64.6636   64.7307 O   0  0  0  0  0  0  0  0  0  0  0  0
  -35.8328   62.0155   66.0584 O   0  0  0  0  0  0  0  0  0  0  0  0
  -35.2422   61.0707   65.1332 C   0  0  0  0  0  0  0  0  0  0  0  0
  -34.6505   61.9071   63.9896 C   0  0  0  0  0  0  0  0  0  0  0  0
  -33.5770   62.9171   64.4507 C   0  0  0  0  0  0  0  0  0  0  0  0
  -34.2624   63.8504   65.4100 C   0  0  0  0  0  0  0  0  0  0  0  0
  -34.9246   63.0524   66.5186 C   0  0  0  0  0  0  0  0  0  0  0  0
  -34.7111   60.3528   62.8204 H   0  0  0  0  0  0  0  0  0  0  0  0
  -34.7721   65.1638   64.0280 H   0  0  0  0  0  0  0  0  0  0  0  0
  -36.9265   64.2230   67.0981 O   0  0  0  0  0  0  0  0  0  0  0  0
  -35.5554   64.1643   67.3541 C   0  0  0  0  0  0  0  0  0  0  0  0
  -37.3247   64.9298   67.6299 H   0  0  0  0  0  0  0  0  0  0  0  0
  -33.0054   63.7514   63.4176 O   0  0  0  0  0  0  0  0  0  0  0  0
  -31.4436   63.9232   61.3565 O   0  0  0  0  0  0  0  0  0  0  0  0
  -31.2057   62.0545   62.8862 O   0  0  0  0  0  0  0  0  0  0  0  0
  -30.4111   64.2555   63.5174 O   0  0  0  0  0  0  0  0  0  0  0  0
  -31.4810   63.5139   62.7916 S   0  0  0  0  0  0  0  0  0  0  0  0
  -32.1345   63.4498   60.8670 H   0  0  0  0  0  0  0  0  0  0  0  0
  -30.5829   65.2085   63.4608 H   0  0  0  0  0  0  0  0  0  0  0  0
  2  1  1  0  0  0
  2  4  1  0  0  0
  2  5  1  0  0  0
 41 42  1  0  0  0
 41  1  1  0  0  0
 42 46  1  0  0  0
  1 24  1  0  0  0
 23 24  1  0  0  0
 23 25  1  0  0  0
 24 26  1  0  0  0
  3  4  2  0  0  0
 26 27  2  0  0  0
 27 28  1  0  0  0
 43 47  1  0  0  0
 43 51  1  0  0  0
 28 29  1  0  0  0
 56 48  1  0  0  0
 56 60  1  0  0  0
 29 30  1  0  0  0
 57 60  1  0  0  0
 57 61  1  0  0  0
 30 31  1  0  0  0
 44 49  1  0  0  0
 44 52  1  0  0  0
 31 32  1  0  0  0
 45 46  1  0  0  0
 45 50  1  0  0  0
 32 33  1  0  0  0
 53 54  1  0  0  0
 53 55  1  0  0  0
 33 34  1  0  0  0
 34 35  1  0  0  0
 35 36  1  0  0  0
 58 60  1  0  0  0
 36 37  1  0  0  0
 59 60  1  0  0  0
 59 62  1  0  0  0
 37 38  1  0  0  0
 38 39  1  0  0  0
 39 40  1  0  0  0
  4  6  1  0  0  0
  6  7  1  0  0  0
  7  8  1  0  0  0
  8  9  1  0  0  0
  9 10  1  0  0  0
 10 11  1  0  0  0
 11 12  1  0  0  0
 12 13  1  0  0  0
 13 14  1  0  0  0
 14 15  1  0  0  0
 15 16  1  0  0  0
 16 17  1  0  0  0
 17 18  1  0  0  0
 18 19  1  0  0  0
 19 20  1  0  0  0
 20 21  1  0  0  0
 21 22  1  0  0  0
 46 47  1  0  0  0
 47 48  1  0  0  0
 48 49  1  0  0  0
 49 50  1  0  0  0
 50 54  1  0  0  0
M  CHG 1  58  -1
M  END
> <minimizedAffinity>
-9.22210

> <CNNscore>
0.4441331923

> <CNNaffinity>
7.2402191162

> <CNN_VS>
3.2156217098

> <CNNaffinity_variance>
0.7581307292

$$$$
/media/chris/experiments/cd1a-new-docking/inputs/ligands/1onq_ligand.pdb


 62 62  0  0  0  0  0  0  0  0999 V2000
  -36.4495   58.2350   63.2545 C   0  0  0  0  0  0  0  0  0  0  0  0
  -36.2524   57.5110   62.0143 N   0  0  0  0  0  0  0  0  0  0  0  0
  -33.9900   57.4009   61.8833 O   0  0  0  0  0  0  0  0  0  0  0  0
  -35.0950   57.1586   61.4382 C   0  0  0  0  0  0  0  0  0  0  0  0
  -37.0706   57.2450   61.5358 H   0  0  0  0  0  0  0  0  0  0  0  0
  -35.2284   56.4015   60.1502 C   0  0  0  0  0  0  0  0  0  0  0  0
  -36.6534   56.6425   59.6517 C   0  0  0  0  0  0  0  0  0  0  0  0
  -36.6609   57.7641   58.6158 C   0  0  0  0  0  0  0  0  0  0  0  0
  -37.9404   58.5573   58.5060 C   0  0  0  0  0  0  0  0  0  0  0  0
  -37.9856   59.5243   59.6846 C   0  0  0  0  0  0  0  0  0  0  0  0
  -39.3972   59.6874   60.2640 C   0  0  0  0  0  0  0  0  0  0  0  0
  -40.3743   60.4435   59.3453 C   0  0  0  0  0  0  0  0  0  0  0  0
  -41.6156   59.6049   58.9692 C   0  0  0  0  0  0  0  0  0  0  0  0
  -41.6264   59.2993   57.4687 C   0  0  0  0  0  0  0  0  0  0  0  0
  -42.9720   58.8509   56.9115 C   0  0  0  0  0  0  0  0  0  0  0  0
  -43.9562   58.4775   58.0101 C   0  0  0  0  0  0  0  0  0  0  0  0
  -45.3567   58.0705   57.5464 C   0  0  0  0  0  0  0  0  0  0  0  0
  -46.1511   57.6248   58.7666 C   0  0  0  0  0  0  0  0  0  0  0  0
  -47.6637   57.5076   58.6491 C   0  0  0  0  0  0  0  0  0  0  0  0
  -48.2600   56.8214   59.8883 C   0  0  0  0  0  0  0  0  0  0  0  0
  -49.2271   57.7010   60.7019 C   0  0  0  0  0  0  0  0  0  0  0  0
  -50.6731   57.2131   60.6536 C   0  0  0  0  0  0  0  0  0  0  0  0
  -38.3128   57.0012   62.6209 O   0  0  0  0  0  0  0  0  0  0  0  0
  -37.8008   57.7246   63.7246 C   0  0  0  0  0  0  0  0  0  0  0  0
  -37.7217   56.2593   62.4182 H   0  0  0  0  0  0  0  0  0  0  0  0
  -38.6899   58.9132   64.0975 C   0  0  0  0  0  0  0  0  0  0  0  0
  -39.9770   59.0103   63.7231 C   0  0  0  0  0  0  0  0  0  0  0  0
  -40.7987   60.2303   64.1350 C   0  0  0  0  0  0  0  0  0  0  0  0
  -42.0475   59.8888   64.9609 C   0  0  0  0  0  0  0  0  0  0  0  0
  -41.7850   59.1958   66.3107 C   0  0  0  0  0  0  0  0  0  0  0  0
  -43.0363   58.4152   66.7799 C   0  0  0  0  0  0  0  0  0  0  0  0
  -44.3814   58.9003   66.1823 C   0  0  0  0  0  0  0  0  0  0  0  0
  -45.6195   58.5482   67.0402 C   0  0  0  0  0  0  0  0  0  0  0  0
  -46.9309   59.1742   66.5181 C   0  0  0  0  0  0  0  0  0  0  0  0
  -46.9020   59.5110   65.0224 C   0  0  0  0  0  0  0  0  0  0  0  0
  -48.1113   59.0559   64.2083 C   0  0  0  0  0  0  0  0  0  0  0  0
  -49.0203   58.0526   64.9453 C   0  0  0  0  0  0  0  0  0  0  0  0
  -50.5252   58.2206   64.6872 C   0  0  0  0  0  0  0  0  0  0  0  0
  -50.7847   59.2927   63.6249 C   0  0  0  0  0  0  0  0  0  0  0  0
  -51.7853   60.3753   63.9885 C   0  0  0  0  0  0  0  0  0  0  0  0
  -36.2716   59.7678   63.1660 C   0  0  0  0  0  0  0  0  0  0  0  0
  -34.9128   60.2557   63.0283 O   0  0  0  0  0  0  0  0  0  0  0  0
  -32.9465   62.1822   62.2543 O   0  0  0  0  0  0  0  0  0  0  0  0
  -35.3985   64.7777   64.4107 O   0  0  0  0  0  0  0  0  0  0  0  0
  -35.3826   61.7843   64.8526 O   0  0  0  0  0  0  0  0  0  0  0  0
  -34.3994   61.3429   63.8852 C   0  0  0  0  0  0  0  0  0  0  0  0
  -33.9197   62.6073   63.1578 C   0  0  0  0  0  0  0  0  0  0  0  0
  -33.2858   63.6590   64.0944 C   0  0  0  0  0  0  0  0  0  0  0  0
  -34.3601   64.0561   65.0688 C   0  0  0  0  0  0  0  0  0  0  0  0
  -34.9123   62.8205   65.7563 C   0  0  0  0  0  0  0  0  0  0  0  0
  -33.3274   61.5199   61.6567 H   0  0  0  0  0  0  0  0  0  0  0  0
  -35.0241   65.5616   63.9792 H   0  0  0  0  0  0  0  0  0  0  0  0
  -36.1316   62.6320   67.8035 O   0  0  0  0  0  0  0  0  0  0  0  0
  -35.9700   63.4332   66.6718 C   0  0  0  0  0  0  0  0  0  0  0  0
  -36.8038   63.0232   68.3833 H   0  0  0  0  0  0  0  0  0  0  0  0
  -32.8414   64.8826   63.4656 O   0  0  0  0  0  0  0  0  0  0  0  0
  -30.2973   64.3895   63.5001 O   0  0  0  0  0  0  0  0  0  0  0  0
  -31.0974   66.4885   62.5821 O   0  0  0  0  0  0  0  0  0  0  0  0
  -31.3539   64.4317   61.3257 O   0  0  0  0  0  0  0  0  0  0  0  0
  -31.3753   65.0305   62.6905 S   0  0  0  0  0  0  0  0  0  0  0  0
  -30.2957   64.7672   64.3935 H   0  0  0  0  0  0  0  0  0  0  0  0
  -31.5344   63.4807   61.3871 H   0  0  0  0  0  0  0  0  0  0  0  0
  2  1  1  0  0  0
  2  4  1  0  0  0
  2  5  1  0  0  0
 41 42  1  0  0  0
 41  1  1  0  0  0
 42 46  1  0  0  0
  1 24  1  0  0  0
 23 24  1  0  0  0
 23 25  1  0  0  0
 24 26  1  0  0  0
  3  4  2  0  0  0
 26 27  2  0  0  0
 27 28  1  0  0  0
 43 47  1  0  0  0
 43 51  1  0  0  0
 28 29  1  0  0  0
 56 48  1  0  0  0
 56 60  1  0  0  0
 29 30  1  0  0  0
 57 60  1  0  0  0
 57 61  1  0  0  0
 30 31  1  0  0  0
 44 49  1  0  0  0
 44 52  1  0  0  0
 31 32  1  0  0  0
 45 46  1  0  0  0
 45 50  1  0  0  0
 32 33  1  0  0  0
 53 54  1  0  0  0
 53 55  1  0  0  0
 33 34  1  0  0  0
 34 35  1  0  0  0
 35 36  1  0  0  0
 58 60  1  0  0  0
 36 37  1  0  0  0
 59 60  1  0  0  0
 59 62  1  0  0  0
 37 38  1  0  0  0
 38 39  1  0  0  0
 39 40  1  0  0  0
  4  6  1  0  0  0
  6  7  1  0  0  0
  7  8  1  0  0  0
  8  9  1  0  0  0
  9 10  1  0  0  0
 10 11  1  0  0  0
 11 12  1  0  0  0
 12 13  1  0  0  0
 13 14  1  0  0  0
 14 15  1  0  0  0
 15 16  1  0  0  0
 16 17  1  0  0  0
 17 18  1  0  0  0
 18 19  1  0  0  0
 19 20  1  0  0  0
 20 21  1  0  0  0
 21 22  1  0  0  0
 46 47  1  0  0  0
 47 48  1  0  0  0
 48 49  1  0  0  0
 49 50  1  0  0  0
 50 54  1  0  0  0
M  CHG 1  58  -1
M  END
> <minimizedAffinity>
-9.10766

> <CNNscore>
0.4341600537

> <CNNaffinity>
7.2048482895

> <CNN_VS>
3.1280572414

> <CNNaffinity_variance>
0.8439399600

$$$$
/media/chris/experiments/cd1a-new-docking/inputs/ligands/1onq_ligand.pdb


 62 62  0  0  0  0  0  0  0  0999 V2000
  -38.5714   59.4774   61.4880 C   0  0  0  0  0  0  0  0  0  0  0  0
  -39.8566   59.4530   60.8181 N   0  0  0  0  0  0  0  0  0  0  0  0
  -39.3508   60.3315   58.7884 O   0  0  0  0  0  0  0  0  0  0  0  0
  -40.1486   59.8606   59.5754 C   0  0  0  0  0  0  0  0  0  0  0  0
  -40.6085   59.0921   61.3412 H   0  0  0  0  0  0  0  0  0  0  0  0
  -41.5832   59.6939   59.1703 C   0  0  0  0  0  0  0  0  0  0  0  0
  -41.5788   59.4066   57.6688 C   0  0  0  0  0  0  0  0  0  0  0  0
  -42.9242   58.8219   57.2457 C   0  0  0  0  0  0  0  0  0  0  0  0
  -43.8860   58.4948   58.3622 C   0  0  0  0  0  0  0  0  0  0  0  0
  -45.2246   58.1345   57.7264 C   0  0  0  0  0  0  0  0  0  0  0  0
  -46.2077   57.5115   58.7265 C   0  0  0  0  0  0  0  0  0  0  0  0
  -47.6361   57.3319   58.1807 C   0  0  0  0  0  0  0  0  0  0  0  0
  -48.2688   55.9827   58.5866 C   0  0  0  0  0  0  0  0  0  0  0  0
  -49.1224   56.1443   59.8477 C   0  0  0  0  0  0  0  0  0  0  0  0
  -50.0451   57.3571   59.8508 C   0  0  0  0  0  0  0  0  0  0  0  0
  -51.0163   57.3405   61.0220 C   0  0  0  0  0  0  0  0  0  0  0  0
  -50.5611   58.0807   62.2818 C   0  0  0  0  0  0  0  0  0  0  0  0
  -51.6373   59.0913   62.6548 C   0  0  0  0  0  0  0  0  0  0  0  0
  -51.3937   60.0111   63.8422 C   0  0  0  0  0  0  0  0  0  0  0  0
  -50.1192   59.6056   64.5995 C   0  0  0  0  0  0  0  0  0  0  0  0
  -50.3229   58.4895   65.6407 C   0  0  0  0  0  0  0  0  0  0  0  0
  -49.0866   57.6156   65.8390 C   0  0  0  0  0  0  0  0  0  0  0  0
  -37.6824   58.2641   63.2581 O   0  0  0  0  0  0  0  0  0  0  0  0
  -38.4978   58.0951   62.1135 C   0  0  0  0  0  0  0  0  0  0  0  0
  -38.1053   58.8899   63.8668 H   0  0  0  0  0  0  0  0  0  0  0  0
  -37.8858   57.1160   61.1090 C   0  0  0  0  0  0  0  0  0  0  0  0
  -37.2475   57.5138   59.9951 C   0  0  0  0  0  0  0  0  0  0  0  0
  -36.6642   56.4736   59.0405 C   0  0  0  0  0  0  0  0  0  0  0  0
  -35.5726   57.0251   58.1119 C   0  0  0  0  0  0  0  0  0  0  0  0
  -34.1265   56.8709   58.6181 C   0  0  0  0  0  0  0  0  0  0  0  0
  -34.0434   55.7899   59.7225 C   0  0  0  0  0  0  0  0  0  0  0  0
  -33.4171   56.2578   61.0606 C   0  0  0  0  0  0  0  0  0  0  0  0
  -34.3999   57.0042   61.9932 C   0  0  0  0  0  0  0  0  0  0  0  0
  -33.7210   58.0720   62.8782 C   0  0  0  0  0  0  0  0  0  0  0  0
  -32.2319   58.2723   62.5721 C   0  0  0  0  0  0  0  0  0  0  0  0
  -31.8649   59.5593   61.8365 C   0  0  0  0  0  0  0  0  0  0  0  0
  -30.5198   60.1701   62.2767 C   0  0  0  0  0  0  0  0  0  0  0  0
  -30.0169   61.3370   61.4135 C   0  0  0  0  0  0  0  0  0  0  0  0
  -30.0474   62.6529   62.1963 C   0  0  0  0  0  0  0  0  0  0  0  0
  -30.4906   62.5661   63.6460 C   0  0  0  0  0  0  0  0  0  0  0  0
  -38.3313   60.6837   62.4239 C   0  0  0  0  0  0  0  0  0  0  0  0
  -37.1410   61.4730   62.1718 O   0  0  0  0  0  0  0  0  0  0  0  0
  -35.2583   63.6211   62.0378 O   0  0  0  0  0  0  0  0  0  0  0  0
  -36.6150   64.3580   65.9128 O   0  0  0  0  0  0  0  0  0  0  0  0
  -36.8544   61.6551   64.5739 O   0  0  0  0  0  0  0  0  0  0  0  0
  -36.2636   61.9091   63.2763 C   0  0  0  0  0  0  0  0  0  0  0  0
  -35.8604   63.3907   63.2742 C   0  0  0  0  0  0  0  0  0  0  0  0
  -34.8501   63.7604   64.3822 C   0  0  0  0  0  0  0  0  0  0  0  0
  -35.5308   63.4600   65.6890 C   0  0  0  0  0  0  0  0  0  0  0  0
  -36.0106   62.0199   65.6993 C   0  0  0  0  0  0  0  0  0  0  0  0
  -35.8795   63.3940   61.3284 H   0  0  0  0  0  0  0  0  0  0  0  0
  -36.2864   65.2706   65.9023 H   0  0  0  0  0  0  0  0  0  0  0  0
  -35.9656   62.7313   67.9809 O   0  0  0  0  0  0  0  0  0  0  0  0
  -36.6653   61.9309   67.0762 C   0  0  0  0  0  0  0  0  0  0  0  0
  -36.3833   62.6731   68.8544 H   0  0  0  0  0  0  0  0  0  0  0  0
  -34.4566   65.1501   64.4441 O   0  0  0  0  0  0  0  0  0  0  0  0
  -32.9497   67.0372   65.3847 O   0  0  0  0  0  0  0  0  0  0  0  0
  -32.1284   65.6361   63.5816 O   0  0  0  0  0  0  0  0  0  0  0  0
  -32.2442   64.7703   65.8425 O   0  0  0  0  0  0  0  0  0  0  0  0
  -32.9183   65.6465   64.8428 S   0  0  0  0  0  0  0  0  0  0  0  0
  -33.3857   67.6232   64.7464 H   0  0  0  0  0  0  0  0  0  0  0  0
  -32.7528   64.7713   66.6684 H   0  0  0  0  0  0  0  0  0  0  0  0
  2  1  1  0  0  0
  2  4  1  0  0  0
  2  5  1  0  0  0
 41 42  1  0  0  0
 41  1  1  0  0  0
 42 46  1  0  0  0
  1 24  1  0  0  0
 23 24  1  0  0  0
 23 25  1  0  0  0
 24 26  1  0  0  0
  3  4  2  0  0  0
 26 27  2  0  0  0
 27 28  1  0  0  0
 43 47  1  0  0  0
 43 51  1  0  0  0
 28 29  1  0  0  0
 56 48  1  0  0  0
 56 60  1  0  0  0
 29 30  1  0  0  0
 57 60  1  0  0  0
 57 61  1  0  0  0
 30 31  1  0  0  0
 44 49  1  0  0  0
 44 52  1  0  0  0
 31 32  1  0  0  0
 45 46  1  0  0  0
 45 50  1  0  0  0
 32 33  1  0  0  0
 53 54  1  0  0  0
 53 55  1  0  0  0
 33 34  1  0  0  0
 34 35  1  0  0  0
 35 36  1  0  0  0
 58 60  1  0  0  0
 36 37  1  0  0  0
 59 60  1  0  0  0
 59 62  1  0  0  0
 37 38  1  0  0  0
 38 39  1  0  0  0
 39 40  1  0  0  0
  4  6  1  0  0  0
  6  7  1  0  0  0
  7  8  1  0  0  0
  8  9  1  0  0  0
  9 10  1  0  0  0
 10 11  1  0  0  0
 11 12  1  0  0  0
 12 13  1  0  0  0
 13 14  1  0  0  0
 14 15  1  0  0  0
 15 16  1  0  0  0
 16 17  1  0  0  0
 17 18  1  0  0  0
 18 19  1  0  0  0
 19 20  1  0  0  0
 20 21  1  0  0  0
 21 22  1  0  0  0
 46 47  1  0  0  0
 47 48  1  0  0  0
 48 49  1  0  0  0
 49 50  1  0  0  0
 50 54  1  0  0  0
M  CHG 1  58  -1
M  END
> <minimizedAffinity>
-9.19791

> <CNNscore>
0.3950862885

> <CNNaffinity>
6.5405898094

> <CNN_VS>
2.5840973854

> <CNNaffinity_variance>
0.4592670798

$$$$
/media/chris/experiments/cd1a-new-docking/inputs/ligands/1onq_ligand.pdb


 62 62  0  0  0  0  0  0  0  0999 V2000
  -38.2004   59.3244   64.7094 C   0  0  0  0  0  0  0  0  0  0  0  0
  -38.2728   58.5046   63.5162 N   0  0  0  0  0  0  0  0  0  0  0  0
  -36.4817   57.1355   63.7714 O   0  0  0  0  0  0  0  0  0  0  0  0
  -37.4511   57.5139   63.1431 C   0  0  0  0  0  0  0  0  0  0  0  0
  -39.0183   58.7000   62.9035 H   0  0  0  0  0  0  0  0  0  0  0  0
  -37.8035   56.8476   61.8463 C   0  0  0  0  0  0  0  0  0  0  0  0
  -36.5105   56.7690   61.0343 C   0  0  0  0  0  0  0  0  0  0  0  0
  -36.6972   55.8286   59.8462 C   0  0  0  0  0  0  0  0  0  0  0  0
  -36.2850   56.3713   58.4993 C   0  0  0  0  0  0  0  0  0  0  0  0
  -36.3070   57.8936   58.5897 C   0  0  0  0  0  0  0  0  0  0  0  0
  -37.7256   58.4724   58.5035 C   0  0  0  0  0  0  0  0  0  0  0  0
  -37.9929   59.6379   59.4733 C   0  0  0  0  0  0  0  0  0  0  0  0
  -39.3673   59.5356   60.1706 C   0  0  0  0  0  0  0  0  0  0  0  0
  -40.4046   60.4008   59.4491 C   0  0  0  0  0  0  0  0  0  0  0  0
  -41.6324   59.6511   58.9465 C   0  0  0  0  0  0  0  0  0  0  0  0
  -41.5152   59.2703   57.4780 C   0  0  0  0  0  0  0  0  0  0  0  0
  -42.8309   58.9751   56.7543 C   0  0  0  0  0  0  0  0  0  0  0  0
  -43.8615   58.5545   57.7933 C   0  0  0  0  0  0  0  0  0  0  0  0
  -45.1150   57.8298   57.3254 C   0  0  0  0  0  0  0  0  0  0  0  0
  -46.1734   57.7869   58.4390 C   0  0  0  0  0  0  0  0  0  0  0  0
  -47.5199   57.1707   58.0167 C   0  0  0  0  0  0  0  0  0  0  0  0
  -47.5551   55.6497   58.1462 C   0  0  0  0  0  0  0  0  0  0  0  0
  -39.5800   60.7293   65.9416 O   0  0  0  0  0  0  0  0  0  0  0  0
  -39.6279   59.8227   64.8557 C   0  0  0  0  0  0  0  0  0  0  0  0
  -38.9850   61.4637   65.7237 H   0  0  0  0  0  0  0  0  0  0  0  0
  -40.5529   58.6359   65.1357 C   0  0  0  0  0  0  0  0  0  0  0  0
  -41.7337   58.7609   65.7652 C   0  0  0  0  0  0  0  0  0  0  0  0
  -42.6001   57.5265   66.0083 C   0  0  0  0  0  0  0  0  0  0  0  0
  -44.0737   57.7150   65.6196 C   0  0  0  0  0  0  0  0  0  0  0  0
  -44.5382   59.1739   65.4547 C   0  0  0  0  0  0  0  0  0  0  0  0
  -46.0834   59.2594   65.4345 C   0  0  0  0  0  0  0  0  0  0  0  0
  -46.8231   57.9794   65.8994 C   0  0  0  0  0  0  0  0  0  0  0  0
  -48.2967   57.8958   65.4364 C   0  0  0  0  0  0  0  0  0  0  0  0
  -49.0783   59.2143   65.6230 C   0  0  0  0  0  0  0  0  0  0  0  0
  -49.5348   59.8535   64.3061 C   0  0  0  0  0  0  0  0  0  0  0  0
  -51.0411   60.0402   64.1371 C   0  0  0  0  0  0  0  0  0  0  0  0
  -51.6154   59.3787   62.8688 C   0  0  0  0  0  0  0  0  0  0  0  0
  -50.9889   58.0270   62.4944 C   0  0  0  0  0  0  0  0  0  0  0  0
  -50.2036   58.1291   61.1837 C   0  0  0  0  0  0  0  0  0  0  0  0
  -48.6980   57.9598   61.2837 C   0  0  0  0  0  0  0  0  0  0  0  0
  -37.0817   60.3909   64.7175 C   0  0  0  0  0  0  0  0  0  0  0  0
  -37.4287   61.6983   64.1947 O   0  0  0  0  0  0  0  0  0  0  0  0
  -36.6928   63.4382   66.3414 O   0  0  0  0  0  0  0  0  0  0  0  0
  -32.8714   62.9311   64.7481 O   0  0  0  0  0  0  0  0  0  0  0  0
  -35.3950   62.4929   63.1372 O   0  0  0  0  0  0  0  0  0  0  0  0
  -36.4272   62.7800   64.1117 C   0  0  0  0  0  0  0  0  0  0  0  0
  -35.6966   63.1260   65.4171 C   0  0  0  0  0  0  0  0  0  0  0  0
  -34.7501   64.3403   65.2953 C   0  0  0  0  0  0  0  0  0  0  0  0
  -33.7204   63.9690   64.2642 C   0  0  0  0  0  0  0  0  0  0  0  0
  -34.4092   63.5487   62.9785 C   0  0  0  0  0  0  0  0  0  0  0  0
  -37.2979   62.6855   66.4311 H   0  0  0  0  0  0  0  0  0  0  0  0
  -32.4422   63.2206   65.5684 H   0  0  0  0  0  0  0  0  0  0  0  0
  -32.9263   61.8481   62.1892 O   0  0  0  0  0  0  0  0  0  0  0  0
  -33.2120   63.2112   62.0924 C   0  0  0  0  0  0  0  0  0  0  0  0
  -32.1658   61.6364   61.6257 H   0  0  0  0  0  0  0  0  0  0  0  0
  -34.0146   64.6936   66.4887 O   0  0  0  0  0  0  0  0  0  0  0  0
  -32.4930   66.2880   67.8525 O   0  0  0  0  0  0  0  0  0  0  0  0
  -33.0576   66.8430   65.5586 O   0  0  0  0  0  0  0  0  0  0  0  0
  -31.4418   65.0986   66.0286 O   0  0  0  0  0  0  0  0  0  0  0  0
  -32.7122   65.7307   66.4850 S   0  0  0  0  0  0  0  0  0  0  0  0
  -33.3108   66.7044   68.1669 H   0  0  0  0  0  0  0  0  0  0  0  0
  -31.2091   64.3719   66.6274 H   0  0  0  0  0  0  0  0  0  0  0  0
  2  1  1  0  0  0
  2  4  1  0  0  0
  2  5  1  0  0  0
 41 42  1  0  0  0
 41  1  1  0  0  0
 42 46  1  0  0  0
  1 24  1  0  0  0
 23 24  1  0  0  0
 23 25  1  0  0  0
 24 26  1  0  0  0
  3  4  2  0  0  0
 26 27  2  0  0  0
 27 28  1  0  0  0
 43 47  1  0  0  0
 43 51  1  0  0  0
 28 29  1  0  0  0
 56 48  1  0  0  0
 56 60  1  0  0  0
 29 30  1  0  0  0
 57 60  1  0  0  0
 57 61  1  0  0  0
 30 31  1  0  0  0
 44 49  1  0  0  0
 44 52  1  0  0  0
 31 32  1  0  0  0
 45 46  1  0  0  0
 45 50  1  0  0  0
 32 33  1  0  0  0
 53 54  1  0  0  0
 53 55  1  0  0  0
 33 34  1  0  0  0
 34 35  1  0  0  0
 35 36  1  0  0  0
 58 60  1  0  0  0
 36 37  1  0  0  0
 59 60  1  0  0  0
 59 62  1  0  0  0
 37 38  1  0  0  0
 38 39  1  0  0  0
 39 40  1  0  0  0
  4  6  1  0  0  0
  6  7  1  0  0  0
  7  8  1  0  0  0
  8  9  1  0  0  0
  9 10  1  0  0  0
 10 11  1  0  0  0
 11 12  1  0  0  0
 12 13  1  0  0  0
 13 14  1  0  0  0
 14 15  1  0  0  0
 15 16  1  0  0  0
 16 17  1  0  0  0
 17 18  1  0  0  0
 18 19  1  0  0  0
 19 20  1  0  0  0
 20 21  1  0  0  0
 21 22  1  0  0  0
 46 47  1  0  0  0
 47 48  1  0  0  0
 48 49  1  0  0  0
 49 50  1  0  0  0
 50 54  1  0  0  0
M  CHG 1  58  -1
M  END
> <minimizedAffinity>
-9.38102

> <CNNscore>
0.3883984387

> <CNNaffinity>
7.1070990562

> <CNN_VS>
2.7603862286

> <CNNaffinity_variance>
0.8007267714

$$$$
/media/chris/experiments/cd1a-new-docking/inputs/ligands/1onq_ligand.pdb


 62 62  0  0  0  0  0  0  0  0999 V2000
  -40.2514   58.9370   64.6750 C   0  0  0  0  0  0  0  0  0  0  0  0
  -41.2695   58.3935   65.5520 N   0  0  0  0  0  0  0  0  0  0  0  0
  -43.1007   59.5917   64.9533 O   0  0  0  0  0  0  0  0  0  0  0  0
  -42.5621   58.7380   65.6307 C   0  0  0  0  0  0  0  0  0  0  0  0
  -40.9747   57.6828   66.1662 H   0  0  0  0  0  0  0  0  0  0  0  0
  -43.3647   57.9757   66.6430 C   0  0  0  0  0  0  0  0  0  0  0  0
  -43.9179   56.7469   65.9211 C   0  0  0  0  0  0  0  0  0  0  0  0
  -45.3836   56.9715   65.5576 C   0  0  0  0  0  0  0  0  0  0  0  0
  -46.1057   58.0395   66.3428 C   0  0  0  0  0  0  0  0  0  0  0  0
  -46.7187   59.0126   65.3411 C   0  0  0  0  0  0  0  0  0  0  0  0
  -48.1890   59.3293   65.6455 C   0  0  0  0  0  0  0  0  0  0  0  0
  -49.0824   58.0863   65.8109 C   0  0  0  0  0  0  0  0  0  0  0  0
  -50.5219   58.3089   65.2974 C   0  0  0  0  0  0  0  0  0  0  0  0
  -50.5785   59.5140   64.3542 C   0  0  0  0  0  0  0  0  0  0  0  0
  -51.3931   59.3012   63.0840 C   0  0  0  0  0  0  0  0  0  0  0  0
  -50.5490   58.7565   61.9413 C   0  0  0  0  0  0  0  0  0  0  0  0
  -51.0567   57.4702   61.2859 C   0  0  0  0  0  0  0  0  0  0  0  0
  -49.9248   56.8804   60.4556 C   0  0  0  0  0  0  0  0  0  0  0  0
  -48.8024   57.7991   59.9957 C   0  0  0  0  0  0  0  0  0  0  0  0
  -47.6639   56.9948   59.3483 C   0  0  0  0  0  0  0  0  0  0  0  0
  -47.0650   57.6396   58.0847 C   0  0  0  0  0  0  0  0  0  0  0  0
  -47.2417   56.7875   56.8301 C   0  0  0  0  0  0  0  0  0  0  0  0
  -38.2567   57.8912   65.2434 O   0  0  0  0  0  0  0  0  0  0  0  0
  -39.3768   57.7273   64.3936 C   0  0  0  0  0  0  0  0  0  0  0  0
  -38.5496   57.8903   66.1681 H   0  0  0  0  0  0  0  0  0  0  0  0
  -38.9825   57.7199   62.9148 C   0  0  0  0  0  0  0  0  0  0  0  0
  -37.9755   56.9736   62.4296 C   0  0  0  0  0  0  0  0  0  0  0  0
  -37.6427   57.0222   60.9396 C   0  0  0  0  0  0  0  0  0  0  0  0
  -37.8958   58.3907   60.2903 C   0  0  0  0  0  0  0  0  0  0  0  0
  -37.1713   58.6388   58.9544 C   0  0  0  0  0  0  0  0  0  0  0  0
  -37.4419   57.4840   57.9601 C   0  0  0  0  0  0  0  0  0  0  0  0
  -36.2479   56.5263   57.7175 C   0  0  0  0  0  0  0  0  0  0  0  0
  -34.8620   57.2089   57.7973 C   0  0  0  0  0  0  0  0  0  0  0  0
  -33.8557   56.4600   58.6977 C   0  0  0  0  0  0  0  0  0  0  0  0
  -34.5107   55.7023   59.8588 C   0  0  0  0  0  0  0  0  0  0  0  0
  -34.1238   56.1614   61.2631 C   0  0  0  0  0  0  0  0  0  0  0  0
  -33.3018   57.4650   61.2912 C   0  0  0  0  0  0  0  0  0  0  0  0
  -33.2309   58.1651   62.6567 C   0  0  0  0  0  0  0  0  0  0  0  0
  -34.6130   58.6587   63.0940 C   0  0  0  0  0  0  0  0  0  0  0  0
  -34.9164   58.5873   64.5801 C   0  0  0  0  0  0  0  0  0  0  0  0
  -39.5418   60.2107   65.1880 C   0  0  0  0  0  0  0  0  0  0  0  0
  -38.7500   60.9458   64.2205 O   0  0  0  0  0  0  0  0  0  0  0  0
  -36.6904   61.3465   62.2777 O   0  0  0  0  0  0  0  0  0  0  0  0
  -35.7108   64.5626   64.7467 O   0  0  0  0  0  0  0  0  0  0  0  0
  -37.2798   62.1642   65.7170 O   0  0  0  0  0  0  0  0  0  0  0  0
  -37.3631   61.3548   64.5188 C   0  0  0  0  0  0  0  0  0  0  0  0
  -36.6405   62.1460   63.4190 C   0  0  0  0  0  0  0  0  0  0  0  0
  -35.1590   62.4423   63.7393 C   0  0  0  0  0  0  0  0  0  0  0  0
  -35.1579   63.2720   64.9934 C   0  0  0  0  0  0  0  0  0  0  0  0
  -35.9291   62.5533   66.0856 C   0  0  0  0  0  0  0  0  0  0  0  0
  -37.6151   61.1498   62.0610 H   0  0  0  0  0  0  0  0  0  0  0  0
  -35.2036   65.0032   64.0469 H   0  0  0  0  0  0  0  0  0  0  0  0
  -34.4809   63.9171   67.4109 O   0  0  0  0  0  0  0  0  0  0  0  0
  -35.8164   63.5488   67.2383 C   0  0  0  0  0  0  0  0  0  0  0  0
  -34.4120   64.5493   68.1433 H   0  0  0  0  0  0  0  0  0  0  0  0
  -34.4371   63.2095   62.7492 O   0  0  0  0  0  0  0  0  0  0  0  0
  -32.4085   63.7911   61.2448 O   0  0  0  0  0  0  0  0  0  0  0  0
  -32.5752   61.5782   62.2266 O   0  0  0  0  0  0  0  0  0  0  0  0
  -31.9461   63.4758   63.5970 O   0  0  0  0  0  0  0  0  0  0  0  0
  -32.8066   63.0288   62.4650 S   0  0  0  0  0  0  0  0  0  0  0  0
  -32.9589   63.5132   60.4959 H   0  0  0  0  0  0  0  0  0  0  0  0
  -32.0907   64.4211   63.7593 H   0  0  0  0  0  0  0  0  0  0  0  0
  2  1  1  0  0  0
  2  4  1  0  0  0
  2  5  1  0  0  0
 41 42  1  0  0  0
 41  1  1  0  0  0
 42 46  1  0  0  0
  1 24  1  0  0  0
 23 24  1  0  0  0
 23 25  1  0  0  0
 24 26  1  0  0  0
  3  4  2  0  0  0
 26 27  2  0  0  0
 27 28  1  0  0  0
 43 47  1  0  0  0
 43 51  1  0  0  0
 28 29  1  0  0  0
 56 48  1  0  0  0
 56 60  1  0  0  0
 29 30  1  0  0  0
 57 60  1  0  0  0
 57 61  1  0  0  0
 30 31  1  0  0  0
 44 49  1  0  0  0
 44 52  1  0  0  0
 31 32  1  0  0  0
 45 46  1  0  0  0
 45 50  1  0  0  0
 32 33  1  0  0  0
 53 54  1  0  0  0
 53 55  1  0  0  0
 33 34  1  0  0  0
 34 35  1  0  0  0
 35 36  1  0  0  0
 58 60  1  0  0  0
 36 37  1  0  0  0
 59 60  1  0  0  0
 59 62  1  0  0  0
 37 38  1  0  0  0
 38 39  1  0  0  0
 39 40  1  0  0  0
  4  6  1  0  0  0
  6  7  1  0  0  0
  7  8  1  0  0  0
  8  9  1  0  0  0
  9 10  1  0  0  0
 10 11  1  0  0  0
 11 12  1  0  0  0
 12 13  1  0  0  0
 13 14  1  0  0  0
 14 15  1  0  0  0
 15 16  1  0  0  0
 16 17  1  0  0  0
 17 18  1  0  0  0
 18 19  1  0  0  0
 19 20  1  0  0  0
 20 21  1  0  0  0
 21 22  1  0  0  0
 46 47  1  0  0  0
 47 48  1  0  0  0
 48 49  1  0  0  0
 49 50  1  0  0  0
 50 54  1  0  0  0
M  CHG 1  58  -1
M  END
> <minimizedAffinity>
-10.36624

> <CNNscore>
0.3425717354

> <CNNaffinity>
7.1064820290

> <CNN_VS>
2.4344799519

> <CNNaffinity_variance>
1.3606313467

$$$$
/media/chris/experiments/cd1a-new-docking/inputs/ligands/1onq_ligand.pdb


 62 62  0  0  0  0  0  0  0  0999 V2000
  -39.9392   59.1565   64.8446 C   0  0  0  0  0  0  0  0  0  0  0  0
  -39.3634   58.3619   63.7776 N   0  0  0  0  0  0  0  0  0  0  0  0
  -37.3104   57.8686   64.6079 O   0  0  0  0  0  0  0  0  0  0  0  0
  -38.1487   57.7981   63.7303 C   0  0  0  0  0  0  0  0  0  0  0  0
  -39.9361   58.2188   62.9897 H   0  0  0  0  0  0  0  0  0  0  0  0
  -37.8530   57.0247   62.4796 C   0  0  0  0  0  0  0  0  0  0  0  0
  -38.5082   57.7917   61.3309 C   0  0  0  0  0  0  0  0  0  0  0  0
  -37.5316   58.8211   60.7672 C   0  0  0  0  0  0  0  0  0  0  0  0
  -37.9196   59.4533   59.4525 C   0  0  0  0  0  0  0  0  0  0  0  0
  -37.7058   58.4114   58.3594 C   0  0  0  0  0  0  0  0  0  0  0  0
  -36.2288   58.2481   57.9765 C   0  0  0  0  0  0  0  0  0  0  0  0
  -35.7977   56.7913   57.7268 C   0  0  0  0  0  0  0  0  0  0  0  0
  -36.7068   55.7657   58.4389 C   0  0  0  0  0  0  0  0  0  0  0  0
  -36.0149   55.2037   59.6841 C   0  0  0  0  0  0  0  0  0  0  0  0
  -34.5014   55.3784   59.7151 C   0  0  0  0  0  0  0  0  0  0  0  0
  -34.0251   56.0623   60.9881 C   0  0  0  0  0  0  0  0  0  0  0  0
  -34.1679   57.5855   61.0253 C   0  0  0  0  0  0  0  0  0  0  0  0
  -34.3118   58.0146   62.4792 C   0  0  0  0  0  0  0  0  0  0  0  0
  -33.1818   58.8059   63.1213 C   0  0  0  0  0  0  0  0  0  0  0  0
  -31.9063   58.7351   62.2667 C   0  0  0  0  0  0  0  0  0  0  0  0
  -31.4224   60.0940   61.7280 C   0  0  0  0  0  0  0  0  0  0  0  0
  -29.9639   60.3932   62.0664 C   0  0  0  0  0  0  0  0  0  0  0  0
  -41.0605   61.1642   64.5173 O   0  0  0  0  0  0  0  0  0  0  0  0
  -41.1417   59.7943   64.1704 C   0  0  0  0  0  0  0  0  0  0  0  0
  -40.2370   61.5382   64.1668 H   0  0  0  0  0  0  0  0  0  0  0  0
  -42.4226   59.1414   64.6952 C   0  0  0  0  0  0  0  0  0  0  0  0
  -42.8039   59.2086   65.9822 C   0  0  0  0  0  0  0  0  0  0  0  0
  -44.0971   58.5288   66.4284 C   0  0  0  0  0  0  0  0  0  0  0  0
  -45.2430   58.6449   65.4127 C   0  0  0  0  0  0  0  0  0  0  0  0
  -46.6551   58.7748   66.0130 C   0  0  0  0  0  0  0  0  0  0  0  0
  -47.5737   57.6365   65.5073 C   0  0  0  0  0  0  0  0  0  0  0  0
  -48.9840   58.0810   65.0434 C   0  0  0  0  0  0  0  0  0  0  0  0
  -48.9759   59.1939   63.9690 C   0  0  0  0  0  0  0  0  0  0  0  0
  -49.3016   58.6833   62.5487 C   0  0  0  0  0  0  0  0  0  0  0  0
  -50.7292   58.1441   62.3983 C   0  0  0  0  0  0  0  0  0  0  0  0
  -51.0317   57.3978   61.1006 C   0  0  0  0  0  0  0  0  0  0  0  0
  -50.0729   57.7406   59.9434 C   0  0  0  0  0  0  0  0  0  0  0  0
  -49.1151   56.6127   59.5308 C   0  0  0  0  0  0  0  0  0  0  0  0
  -47.6631   57.0994   59.5236 C   0  0  0  0  0  0  0  0  0  0  0  0
  -47.1296   57.6126   58.1979 C   0  0  0  0  0  0  0  0  0  0  0  0
  -38.9589   60.1046   65.5719 C   0  0  0  0  0  0  0  0  0  0  0  0
  -38.4320   61.2112   64.7966 O   0  0  0  0  0  0  0  0  0  0  0  0
  -36.5566   61.3365   62.6416 O   0  0  0  0  0  0  0  0  0  0  0  0
  -35.3277   64.8058   64.6044 O   0  0  0  0  0  0  0  0  0  0  0  0
  -36.8203   62.5715   65.9956 O   0  0  0  0  0  0  0  0  0  0  0  0
  -37.0201   61.6263   64.9167 C   0  0  0  0  0  0  0  0  0  0  0  0
  -36.3953   62.2659   63.6684 C   0  0  0  0  0  0  0  0  0  0  0  0
  -34.8883   62.5699   63.8153 C   0  0  0  0  0  0  0  0  0  0  0  0
  -34.7650   63.5437   64.9545 C   0  0  0  0  0  0  0  0  0  0  0  0
  -35.4383   62.9760   66.1909 C   0  0  0  0  0  0  0  0  0  0  0  0
  -37.4989   61.1331   62.5347 H   0  0  0  0  0  0  0  0  0  0  0  0
  -34.8835   65.1496   63.8135 H   0  0  0  0  0  0  0  0  0  0  0  0
  -33.8899   64.5417   67.1207 O   0  0  0  0  0  0  0  0  0  0  0  0
  -35.2119   64.1000   67.1996 C   0  0  0  0  0  0  0  0  0  0  0  0
  -33.7487   65.2555   67.7621 H   0  0  0  0  0  0  0  0  0  0  0  0
  -34.2543   63.1989   62.6785 O   0  0  0  0  0  0  0  0  0  0  0  0
  -32.0554   63.6307   61.3765 O   0  0  0  0  0  0  0  0  0  0  0  0
  -31.9554   62.9775   63.7114 O   0  0  0  0  0  0  0  0  0  0  0  0
  -32.6134   65.2293   63.1024 O   0  0  0  0  0  0  0  0  0  0  0  0
  -32.6994   63.7931   62.7134 S   0  0  0  0  0  0  0  0  0  0  0  0
  -32.1018   62.7003   61.1060 H   0  0  0  0  0  0  0  0  0  0  0  0
  -33.0961   65.7686   62.4567 H   0  0  0  0  0  0  0  0  0  0  0  0
  2  1  1  0  0  0
  2  4  1  0  0  0
  2  5  1  0  0  0
 41 42  1  0  0  0
 41  1  1  0  0  0
 42 46  1  0  0  0
  1 24  1  0  0  0
 23 24  1  0  0  0
 23 25  1  0  0  0
 24 26  1  0  0  0
  3  4  2  0  0  0
 26 27  2  0  0  0
 27 28  1  0  0  0
 43 47  1  0  0  0
 43 51  1  0  0  0
 28 29  1  0  0  0
 56 48  1  0  0  0
 56 60  1  0  0  0
 29 30  1  0  0  0
 57 60  1  0  0  0
 57 61  1  0  0  0
 30 31  1  0  0  0
 44 49  1  0  0  0
 44 52  1  0  0  0
 31 32  1  0  0  0
 45 46  1  0  0  0
 45 50  1  0  0  0
 32 33  1  0  0  0
 53 54  1  0  0  0
 53 55  1  0  0  0
 33 34  1  0  0  0
 34 35  1  0  0  0
 35 36  1  0  0  0
 58 60  1  0  0  0
 36 37  1  0  0  0
 59 60  1  0  0  0
 59 62  1  0  0  0
 37 38  1  0  0  0
 38 39  1  0  0  0
 39 40  1  0  0  0
  4  6  1  0  0  0
  6  7  1  0  0  0
  7  8  1  0  0  0
  8  9  1  0  0  0
  9 10  1  0  0  0
 10 11  1  0  0  0
 11 12  1  0  0  0
 12 13  1  0  0  0
 13 14  1  0  0  0
 14 15  1  0  0  0
 15 16  1  0  0  0
 16 17  1  0  0  0
 17 18  1  0  0  0
 18 19  1  0  0  0
 19 20  1  0  0  0
 20 21  1  0  0  0
 21 22  1  0  0  0
 46 47  1  0  0  0
 47 48  1  0  0  0
 48 49  1  0  0  0
 49 50  1  0  0  0
 50 54  1  0  0  0
M  CHG 1  58  -1
M  END
> <minimizedAffinity>
-9.65863

> <CNNscore>
0.3414155543

> <CNNaffinity>
7.2278585434

> <CNN_VS>
2.4677033424

> <CNNaffinity_variance>
1.1547704935

$$$$
