/media/chris/experiments/cd1a-new-docking/inputs/ligands/1onq_ligand.pdb


 62 62  0  0  0  0  0  0  0  0999 V2000
  -38.2238   59.3916   63.4108 C   0  0  0  0  0  0  0  0  0  0  0  0
  -39.2111   59.5625   64.4583 N   0  0  0  0  0  0  0  0  0  0  0  0
  -40.9596   60.4556   63.3215 O   0  0  0  0  0  0  0  0  0  0  0  0
  -40.4515   60.0579   64.3517 C   0  0  0  0  0  0  0  0  0  0  0  0
  -38.9360   59.2794   65.3602 H   0  0  0  0  0  0  0  0  0  0  0  0
  -41.2350   60.0958   65.6303 C   0  0  0  0  0  0  0  0  0  0  0  0
  -41.7472   58.6750   65.8667 C   0  0  0  0  0  0  0  0  0  0  0  0
  -43.2740   58.6665   65.8805 C   0  0  0  0  0  0  0  0  0  0  0  0
  -43.9294   57.3077   65.9305 C   0  0  0  0  0  0  0  0  0  0  0  0
  -45.4312   57.5139   65.7629 C   0  0  0  0  0  0  0  0  0  0  0  0
  -45.8652   58.9604   66.0358 C   0  0  0  0  0  0  0  0  0  0  0  0
  -47.0364   59.4445   65.1616 C   0  0  0  0  0  0  0  0  0  0  0  0
  -48.3678   59.5370   65.9391 C   0  0  0  0  0  0  0  0  0  0  0  0
  -49.1077   58.1967   65.9042 C   0  0  0  0  0  0  0  0  0  0  0  0
  -50.4552   58.2221   65.1932 C   0  0  0  0  0  0  0  0  0  0  0  0
  -50.7287   59.5598   64.5220 C   0  0  0  0  0  0  0  0  0  0  0  0
  -51.0931   59.5034   63.0367 C   0  0  0  0  0  0  0  0  0  0  0  0
  -50.8241   58.0913   62.5341 C   0  0  0  0  0  0  0  0  0  0  0  0
  -49.7528   57.8864   61.4733 C   0  0  0  0  0  0  0  0  0  0  0  0
  -50.3757   57.4344   60.1430 C   0  0  0  0  0  0  0  0  0  0  0  0
  -49.3544   57.1117   59.0367 C   0  0  0  0  0  0  0  0  0  0  0  0
  -48.5063   55.8784   59.3386 C   0  0  0  0  0  0  0  0  0  0  0  0
  -37.3350   57.7772   64.8250 O   0  0  0  0  0  0  0  0  0  0  0  0
  -37.8735   57.9178   63.5234 C   0  0  0  0  0  0  0  0  0  0  0  0
  -38.0081   58.0172   65.4810 H   0  0  0  0  0  0  0  0  0  0  0  0
  -36.8589   57.5534   62.4371 C   0  0  0  0  0  0  0  0  0  0  0  0
  -37.1471   56.7339   61.4116 C   0  0  0  0  0  0  0  0  0  0  0  0
  -36.0782   56.4180   60.3672 C   0  0  0  0  0  0  0  0  0  0  0  0
  -36.6404   55.8632   59.0502 C   0  0  0  0  0  0  0  0  0  0  0  0
  -36.3723   56.7186   57.7982 C   0  0  0  0  0  0  0  0  0  0  0  0
  -36.5920   58.2203   58.1016 C   0  0  0  0  0  0  0  0  0  0  0  0
  -38.0562   58.6262   58.4067 C   0  0  0  0  0  0  0  0  0  0  0  0
  -38.2134   59.5547   59.6339 C   0  0  0  0  0  0  0  0  0  0  0  0
  -39.6828   59.8873   59.9723 C   0  0  0  0  0  0  0  0  0  0  0  0
  -40.5522   60.1674   58.7407 C   0  0  0  0  0  0  0  0  0  0  0  0
  -41.8943   59.4407   58.6869 C   0  0  0  0  0  0  0  0  0  0  0  0
  -42.4916   59.3331   57.2700 C   0  0  0  0  0  0  0  0  0  0  0  0
  -43.5138   58.2032   57.0742 C   0  0  0  0  0  0  0  0  0  0  0  0
  -44.8337   58.5275   57.7797 C   0  0  0  0  0  0  0  0  0  0  0  0
  -45.1877   57.6662   58.9790 C   0  0  0  0  0  0  0  0  0  0  0  0
  -37.0484   60.3949   63.4337 C   0  0  0  0  0  0  0  0  0  0  0  0
  -35.8474   59.9706   64.1272 O   0  0  0  0  0  0  0  0  0  0  0  0
  -33.3456   60.8841   63.0862 O   0  0  0  0  0  0  0  0  0  0  0  0
  -34.6488   64.5462   64.5993 O   0  0  0  0  0  0  0  0  0  0  0  0
  -35.6896   61.8887   65.6042 O   0  0  0  0  0  0  0  0  0  0  0  0
  -34.9561   60.9484   64.7825 C   0  0  0  0  0  0  0  0  0  0  0  0
  -34.0774   61.7934   63.8489 C   0  0  0  0  0  0  0  0  0  0  0  0
  -33.0841   62.7115   64.5943 C   0  0  0  0  0  0  0  0  0  0  0  0
  -33.9183   63.6449   65.4275 C   0  0  0  0  0  0  0  0  0  0  0  0
  -34.8555   62.8442   66.3133 C   0  0  0  0  0  0  0  0  0  0  0  0
  -33.9543   60.2979   62.6099 H   0  0  0  0  0  0  0  0  0  0  0  0
  -34.0316   65.0465   64.0428 H   0  0  0  0  0  0  0  0  0  0  0  0
  -36.9339   63.9789   66.6400 O   0  0  0  0  0  0  0  0  0  0  0  0
  -35.5990   63.9574   67.0483 C   0  0  0  0  0  0  0  0  0  0  0  0
  -37.4038   64.6866   67.1081 H   0  0  0  0  0  0  0  0  0  0  0  0
  -32.2501   63.5509   63.7636 O   0  0  0  0  0  0  0  0  0  0  0  0
  -31.6719   62.6324   61.4101 O   0  0  0  0  0  0  0  0  0  0  0  0
  -31.9095   65.0254   61.7361 O   0  0  0  0  0  0  0  0  0  0  0  0
  -33.8707   63.6027   61.6742 O   0  0  0  0  0  0  0  0  0  0  0  0
  -32.4503   63.6922   62.1168 S   0  0  0  0  0  0  0  0  0  0  0  0
  -30.7429   62.6753   61.6861 H   0  0  0  0  0  0  0  0  0  0  0  0
  -34.2315   62.7360   61.9185 H   0  0  0  0  0  0  0  0  0  0  0  0
  2  1  1  0  0  0
  2  4  1  0  0  0
  2  5  1  0  0  0
 41 42  1  0  0  0
 41  1  1  0  0  0
 42 46  1  0  0  0
  1 24  1  0  0  0
 23 24  1  0  0  0
 23 25  1  0  0  0
 24 26  1  0  0  0
  3  4  2  0  0  0
 26 27  2  0  0  0
 27 28  1  0  0  0
 43 47  1  0  0  0
 43 51  1  0  0  0
 28 29  1  0  0  0
 56 48  1  0  0  0
 56 60  1  0  0  0
 29 30  1  0  0  0
 57 60  1  0  0  0
 57 61  1  0  0  0
 30 31  1  0  0  0
 44 49  1  0  0  0
 44 52  1  0  0  0
 31 32  1  0  0  0
 45 46  1  0  0  0
 45 50  1  0  0  0
 32 33  1  0  0  0
 53 54  1  0  0  0
 53 55  1  0  0  0
 33 34  1  0  0  0
 34 35  1  0  0  0
 35 36  1  0  0  0
 58 60  1  0  0  0
 36 37  1  0  0  0
 59 60  1  0  0  0
 59 62  1  0  0  0
 37 38  1  0  0  0
 38 39  1  0  0  0
 39 40  1  0  0  0
  4  6  1  0  0  0
  6  7  1  0  0  0
  7  8  1  0  0  0
  8  9  1  0  0  0
  9 10  1  0  0  0
 10 11  1  0  0  0
 11 12  1  0  0  0
 12 13  1  0  0  0
 13 14  1  0  0  0
 14 15  1  0  0  0
 15 16  1  0  0  0
 16 17  1  0  0  0
 17 18  1  0  0  0
 18 19  1  0  0  0
 19 20  1  0  0  0
 20 21  1  0  0  0
 21 22  1  0  0  0
 46 47  1  0  0  0
 47 48  1  0  0  0
 48 49  1  0  0  0
 49 50  1  0  0  0
 50 54  1  0  0  0
M  CHG 1  58  -1
M  END
> <minimizedAffinity>
-8.85960

> <CNNscore>
0.4729160964

> <CNNaffinity>
7.2515678406

> <CNN_VS>
3.4293830395

> <CNNaffinity_variance>
0.8357839584

$$$$
/media/chris/experiments/cd1a-new-docking/inputs/ligands/1onq_ligand.pdb


 62 62  0  0  0  0  0  0  0  0999 V2000
  -38.9671   59.8367   65.0152 C   0  0  0  0  0  0  0  0  0  0  0  0
  -40.1043   59.3169   65.7485 N   0  0  0  0  0  0  0  0  0  0  0  0
  -41.2402   61.2109   66.2680 O   0  0  0  0  0  0  0  0  0  0  0  0
  -41.1156   60.0021   66.2992 C   0  0  0  0  0  0  0  0  0  0  0  0
  -40.1379   58.3388   65.8552 H   0  0  0  0  0  0  0  0  0  0  0  0
  -42.1517   59.1653   66.9892 C   0  0  0  0  0  0  0  0  0  0  0  0
  -42.3125   57.8969   66.1510 C   0  0  0  0  0  0  0  0  0  0  0  0
  -43.7797   57.7023   65.7756 C   0  0  0  0  0  0  0  0  0  0  0  0
  -44.4891   58.9142   65.2218 C   0  0  0  0  0  0  0  0  0  0  0  0
  -45.9768   58.5857   65.1525 C   0  0  0  0  0  0  0  0  0  0  0  0
  -46.7623   59.1371   66.3500 C   0  0  0  0  0  0  0  0  0  0  0  0
  -48.0701   59.8558   65.9713 C   0  0  0  0  0  0  0  0  0  0  0  0
  -48.1130   60.2820   64.4874 C   0  0  0  0  0  0  0  0  0  0  0  0
  -49.5567   60.5200   64.0355 C   0  0  0  0  0  0  0  0  0  0  0  0
  -50.4903   59.3275   64.2044 C   0  0  0  0  0  0  0  0  0  0  0  0
  -51.1773   58.9431   62.9024 C   0  0  0  0  0  0  0  0  0  0  0  0
  -50.2732   58.8383   61.6721 C   0  0  0  0  0  0  0  0  0  0  0  0
  -50.4257   57.4406   61.0874 C   0  0  0  0  0  0  0  0  0  0  0  0
  -49.9125   57.1791   59.6790 C   0  0  0  0  0  0  0  0  0  0  0  0
  -48.9197   56.0060   59.6646 C   0  0  0  0  0  0  0  0  0  0  0  0
  -47.7260   56.1914   58.7097 C   0  0  0  0  0  0  0  0  0  0  0  0
  -47.1825   57.6182   58.6922 C   0  0  0  0  0  0  0  0  0  0  0  0
  -37.2337   58.8080   63.8608 O   0  0  0  0  0  0  0  0  0  0  0  0
  -38.6280   58.6922   64.0757 C   0  0  0  0  0  0  0  0  0  0  0  0
  -36.7667   58.7040   64.7046 H   0  0  0  0  0  0  0  0  0  0  0  0
  -39.4262   58.8473   62.7790 C   0  0  0  0  0  0  0  0  0  0  0  0
  -39.4173   59.9725   62.0442 C   0  0  0  0  0  0  0  0  0  0  0  0
  -40.2425   60.0492   60.7611 C   0  0  0  0  0  0  0  0  0  0  0  0
  -39.4000   60.0221   59.4775 C   0  0  0  0  0  0  0  0  0  0  0  0
  -37.9135   59.6654   59.6632 C   0  0  0  0  0  0  0  0  0  0  0  0
  -37.6345   58.2156   59.1988 C   0  0  0  0  0  0  0  0  0  0  0  0
  -36.6629   58.0805   57.9992 C   0  0  0  0  0  0  0  0  0  0  0  0
  -35.9633   56.7043   57.9025 C   0  0  0  0  0  0  0  0  0  0  0  0
  -34.4223   56.7903   57.9502 C   0  0  0  0  0  0  0  0  0  0  0  0
  -33.7914   55.9549   59.0707 C   0  0  0  0  0  0  0  0  0  0  0  0
  -34.5671   55.8995   60.3850 C   0  0  0  0  0  0  0  0  0  0  0  0
  -33.8358   56.5579   61.5716 C   0  0  0  0  0  0  0  0  0  0  0  0
  -34.3575   57.9458   61.9736 C   0  0  0  0  0  0  0  0  0  0  0  0
  -33.2643   58.7646   62.6661 C   0  0  0  0  0  0  0  0  0  0  0  0
  -31.9997   59.0169   61.8645 C   0  0  0  0  0  0  0  0  0  0  0  0
  -37.8161   60.3968   65.8814 C   0  0  0  0  0  0  0  0  0  0  0  0
  -37.3915   61.7539   65.5964 O   0  0  0  0  0  0  0  0  0  0  0  0
  -35.8086   61.1071   63.3044 O   0  0  0  0  0  0  0  0  0  0  0  0
  -34.2306   64.9103   63.9712 O   0  0  0  0  0  0  0  0  0  0  0  0
  -35.5973   63.2956   66.1346 O   0  0  0  0  0  0  0  0  0  0  0  0
  -35.9641   62.0888   65.4227 C   0  0  0  0  0  0  0  0  0  0  0  0
  -35.4874   62.2858   63.9764 C   0  0  0  0  0  0  0  0  0  0  0  0
  -33.9655   62.5166   63.8507 C   0  0  0  0  0  0  0  0  0  0  0  0
  -33.6659   63.7735   64.6199 C   0  0  0  0  0  0  0  0  0  0  0  0
  -34.1901   63.6448   66.0386 C   0  0  0  0  0  0  0  0  0  0  0  0
  -36.7627   60.9456   63.3727 H   0  0  0  0  0  0  0  0  0  0  0  0
  -33.8826   64.9731   63.0679 H   0  0  0  0  0  0  0  0  0  0  0  0
  -34.0872   65.0168   67.9934 O   0  0  0  0  0  0  0  0  0  0  0  0
  -33.8006   64.9991   66.6272 C   0  0  0  0  0  0  0  0  0  0  0  0
  -33.8390   65.8778   68.3647 H   0  0  0  0  0  0  0  0  0  0  0  0
  -33.4655   62.7358   62.5120 O   0  0  0  0  0  0  0  0  0  0  0  0
  -31.0444   62.9853   63.4024 O   0  0  0  0  0  0  0  0  0  0  0  0
  -31.9069   64.6011   61.8104 O   0  0  0  0  0  0  0  0  0  0  0  0
  -31.2753   62.3803   61.0729 O   0  0  0  0  0  0  0  0  0  0  0  0
  -31.8895   63.1607   62.1843 S   0  0  0  0  0  0  0  0  0  0  0  0
  -31.4292   63.4871   64.1379 H   0  0  0  0  0  0  0  0  0  0  0  0
  -31.2599   61.4394   61.3084 H   0  0  0  0  0  0  0  0  0  0  0  0
  2  1  1  0  0  0
  2  4  1  0  0  0
  2  5  1  0  0  0
 41 42  1  0  0  0
 41  1  1  0  0  0
 42 46  1  0  0  0
  1 24  1  0  0  0
 23 24  1  0  0  0
 23 25  1  0  0  0
 24 26  1  0  0  0
  3  4  2  0  0  0
 26 27  2  0  0  0
 27 28  1  0  0  0
 43 47  1  0  0  0
 43 51  1  0  0  0
 28 29  1  0  0  0
 56 48  1  0  0  0
 56 60  1  0  0  0
 29 30  1  0  0  0
 57 60  1  0  0  0
 57 61  1  0  0  0
 30 31  1  0  0  0
 44 49  1  0  0  0
 44 52  1  0  0  0
 31 32  1  0  0  0
 45 46  1  0  0  0
 45 50  1  0  0  0
 32 33  1  0  0  0
 53 54  1  0  0  0
 53 55  1  0  0  0
 33 34  1  0  0  0
 34 35  1  0  0  0
 35 36  1  0  0  0
 58 60  1  0  0  0
 36 37  1  0  0  0
 59 60  1  0  0  0
 59 62  1  0  0  0
 37 38  1  0  0  0
 38 39  1  0  0  0
 39 40  1  0  0  0
  4  6  1  0  0  0
  6  7  1  0  0  0
  7  8  1  0  0  0
  8  9  1  0  0  0
  9 10  1  0  0  0
 10 11  1  0  0  0
 11 12  1  0  0  0
 12 13  1  0  0  0
 13 14  1  0  0  0
 14 15  1  0  0  0
 15 16  1  0  0  0
 16 17  1  0  0  0
 17 18  1  0  0  0
 18 19  1  0  0  0
 19 20  1  0  0  0
 20 21  1  0  0  0
 21 22  1  0  0  0
 46 47  1  0  0  0
 47 48  1  0  0  0
 48 49  1  0  0  0
 49 50  1  0  0  0
 50 54  1  0  0  0
M  CHG 1  58  -1
M  END
> <minimizedAffinity>
-9.75183

> <CNNscore>
0.3870881200

> <CNNaffinity>
7.1188187599

> <CNN_VS>
2.7556102276

> <CNNaffinity_variance>
1.3246505260

$$$$
/media/chris/experiments/cd1a-new-docking/inputs/ligands/1onq_ligand.pdb


 62 62  0  0  0  0  0  0  0  0999 V2000
  -38.1316   59.5446   63.5101 C   0  0  0  0  0  0  0  0  0  0  0  0
  -39.2599   59.6577   64.4130 N   0  0  0  0  0  0  0  0  0  0  0  0
  -40.9129   60.3516   63.0225 O   0  0  0  0  0  0  0  0  0  0  0  0
  -40.5134   60.0345   64.1259 C   0  0  0  0  0  0  0  0  0  0  0  0
  -39.0834   59.4294   65.3542 H   0  0  0  0  0  0  0  0  0  0  0  0
  -41.4596   60.0410   65.2898 C   0  0  0  0  0  0  0  0  0  0  0  0
  -41.5093   58.6064   65.8157 C   0  0  0  0  0  0  0  0  0  0  0  0
  -42.8669   58.3335   66.4590 C   0  0  0  0  0  0  0  0  0  0  0  0
  -43.5866   57.0930   65.9883 C   0  0  0  0  0  0  0  0  0  0  0  0
  -45.0358   57.1970   66.4519 C   0  0  0  0  0  0  0  0  0  0  0  0
  -45.5191   58.6491   66.5659 C   0  0  0  0  0  0  0  0  0  0  0  0
  -46.4411   59.1004   65.4184 C   0  0  0  0  0  0  0  0  0  0  0  0
  -47.9113   59.2690   65.8605 C   0  0  0  0  0  0  0  0  0  0  0  0
  -48.6298   57.9167   65.8731 C   0  0  0  0  0  0  0  0  0  0  0  0
  -50.1149   57.9722   65.5359 C   0  0  0  0  0  0  0  0  0  0  0  0
  -50.5646   59.3700   65.1376 C   0  0  0  0  0  0  0  0  0  0  0  0
  -51.0459   59.5343   63.6941 C   0  0  0  0  0  0  0  0  0  0  0  0
  -50.5935   58.3162   62.9002 C   0  0  0  0  0  0  0  0  0  0  0  0
  -50.2586   58.4897   61.4261 C   0  0  0  0  0  0  0  0  0  0  0  0
  -48.8905   57.8716   61.0966 C   0  0  0  0  0  0  0  0  0  0  0  0
  -48.7121   57.4644   59.6224 C   0  0  0  0  0  0  0  0  0  0  0  0
  -48.2954   56.0062   59.4447 C   0  0  0  0  0  0  0  0  0  0  0  0
  -37.3621   57.8105   64.8506 O   0  0  0  0  0  0  0  0  0  0  0  0
  -37.8331   58.0554   63.5384 C   0  0  0  0  0  0  0  0  0  0  0  0
  -38.0581   58.0293   65.4900 H   0  0  0  0  0  0  0  0  0  0  0  0
  -36.7794   57.7293   62.4773 C   0  0  0  0  0  0  0  0  0  0  0  0
  -36.9811   56.8324   61.4969 C   0  0  0  0  0  0  0  0  0  0  0  0
  -35.8783   56.5619   60.4753 C   0  0  0  0  0  0  0  0  0  0  0  0
  -36.2908   55.5940   59.3567 C   0  0  0  0  0  0  0  0  0  0  0  0
  -36.5031   56.2294   57.9702 C   0  0  0  0  0  0  0  0  0  0  0  0
  -36.4975   57.7740   58.0672 C   0  0  0  0  0  0  0  0  0  0  0  0
  -37.8901   58.4311   58.2412 C   0  0  0  0  0  0  0  0  0  0  0  0
  -37.9349   59.5465   59.3120 C   0  0  0  0  0  0  0  0  0  0  0  0
  -39.2667   59.6012   60.0914 C   0  0  0  0  0  0  0  0  0  0  0  0
  -40.3824   60.3532   59.3559 C   0  0  0  0  0  0  0  0  0  0  0  0
  -41.6236   59.5361   59.0036 C   0  0  0  0  0  0  0  0  0  0  0  0
  -41.9876   59.5649   57.5060 C   0  0  0  0  0  0  0  0  0  0  0  0
  -42.9170   58.4355   57.0362 C   0  0  0  0  0  0  0  0  0  0  0  0
  -44.3556   58.6777   57.5018 C   0  0  0  0  0  0  0  0  0  0  0  0
  -44.8496   57.8113   58.6468 C   0  0  0  0  0  0  0  0  0  0  0  0
  -36.9518   60.5013   63.7959 C   0  0  0  0  0  0  0  0  0  0  0  0
  -37.1655   61.9030   63.4915 O   0  0  0  0  0  0  0  0  0  0  0  0
  -36.5735   63.8251   65.5243 O   0  0  0  0  0  0  0  0  0  0  0  0
  -32.6376   62.7371   64.6737 O   0  0  0  0  0  0  0  0  0  0  0  0
  -34.9104   62.3469   62.7149 O   0  0  0  0  0  0  0  0  0  0  0  0
  -36.0413   62.8596   63.4604 C   0  0  0  0  0  0  0  0  0  0  0  0
  -35.4890   63.2978   64.8245 C   0  0  0  0  0  0  0  0  0  0  0  0
  -34.3966   64.3855   64.7312 C   0  0  0  0  0  0  0  0  0  0  0  0
  -33.2695   63.7826   63.9392 C   0  0  0  0  0  0  0  0  0  0  0  0
  -33.7927   63.2695   62.6099 C   0  0  0  0  0  0  0  0  0  0  0  0
  -37.2711   63.1545   65.5930 H   0  0  0  0  0  0  0  0  0  0  0  0
  -32.3114   63.0865   65.5178 H   0  0  0  0  0  0  0  0  0  0  0  0
  -32.4845   61.3185   62.1669 O   0  0  0  0  0  0  0  0  0  0  0  0
  -32.5202   62.7021   61.9845 C   0  0  0  0  0  0  0  0  0  0  0  0
  -31.6756   60.9607   61.7690 H   0  0  0  0  0  0  0  0  0  0  0  0
  -33.8211   64.8158   65.9857 O   0  0  0  0  0  0  0  0  0  0  0  0
  -32.2158   66.2725   67.4063 O   0  0  0  0  0  0  0  0  0  0  0  0
  -32.2678   66.5505   64.9961 O   0  0  0  0  0  0  0  0  0  0  0  0
  -31.1838   64.6175   65.9773 O   0  0  0  0  0  0  0  0  0  0  0  0
  -32.3346   65.5566   66.1017 S   0  0  0  0  0  0  0  0  0  0  0  0
  -32.9576   66.8895   67.5052 H   0  0  0  0  0  0  0  0  0  0  0  0
  -31.2195   63.9656   66.6947 H   0  0  0  0  0  0  0  0  0  0  0  0
  2  1  1  0  0  0
  2  4  1  0  0  0
  2  5  1  0  0  0
 41 42  1  0  0  0
 41  1  1  0  0  0
 42 46  1  0  0  0
  1 24  1  0  0  0
 23 24  1  0  0  0
 23 25  1  0  0  0
 24 26  1  0  0  0
  3  4  2  0  0  0
 26 27  2  0  0  0
 27 28  1  0  0  0
 43 47  1  0  0  0
 43 51  1  0  0  0
 28 29  1  0  0  0
 56 48  1  0  0  0
 56 60  1  0  0  0
 29 30  1  0  0  0
 57 60  1  0  0  0
 57 61  1  0  0  0
 30 31  1  0  0  0
 44 49  1  0  0  0
 44 52  1  0  0  0
 31 32  1  0  0  0
 45 46  1  0  0  0
 45 50  1  0  0  0
 32 33  1  0  0  0
 53 54  1  0  0  0
 53 55  1  0  0  0
 33 34  1  0  0  0
 34 35  1  0  0  0
 35 36  1  0  0  0
 58 60  1  0  0  0
 36 37  1  0  0  0
 59 60  1  0  0  0
 59 62  1  0  0  0
 37 38  1  0  0  0
 38 39  1  0  0  0
 39 40  1  0  0  0
  4  6  1  0  0  0
  6  7  1  0  0  0
  7  8  1  0  0  0
  8  9  1  0  0  0
  9 10  1  0  0  0
 10 11  1  0  0  0
 11 12  1  0  0  0
 12 13  1  0  0  0
 13 14  1  0  0  0
 14 15  1  0  0  0
 15 16  1  0  0  0
 16 17  1  0  0  0
 17 18  1  0  0  0
 18 19  1  0  0  0
 19 20  1  0  0  0
 20 21  1  0  0  0
 21 22  1  0  0  0
 46 47  1  0  0  0
 47 48  1  0  0  0
 48 49  1  0  0  0
 49 50  1  0  0  0
 50 54  1  0  0  0
M  CHG 1  58  -1
M  END
> <minimizedAffinity>
-8.84631

> <CNNscore>
0.3412711918

> <CNNaffinity>
6.9665398598

> <CNN_VS>
2.3774793148

> <CNNaffinity_variance>
0.8771380186

$$$$
/media/chris/experiments/cd1a-new-docking/inputs/ligands/1onq_ligand.pdb


 62 62  0  0  0  0  0  0  0  0999 V2000
  -40.0877   58.7877   64.6760 C   0  0  0  0  0  0  0  0  0  0  0  0
  -41.2898   58.2811   65.3079 N   0  0  0  0  0  0  0  0  0  0  0  0
  -42.8289   59.8406   64.7192 O   0  0  0  0  0  0  0  0  0  0  0  0
  -42.5197   58.8127   65.2898 C   0  0  0  0  0  0  0  0  0  0  0  0
  -41.1903   57.4421   65.8133 H   0  0  0  0  0  0  0  0  0  0  0  0
  -43.5610   58.0364   66.0401 C   0  0  0  0  0  0  0  0  0  0  0  0
  -44.8425   58.1162   65.2104 C   0  0  0  0  0  0  0  0  0  0  0  0
  -45.9471   58.7907   66.0204 C   0  0  0  0  0  0  0  0  0  0  0  0
  -46.7726   59.8204   65.2877 C   0  0  0  0  0  0  0  0  0  0  0  0
  -48.1916   59.7532   65.8426 C   0  0  0  0  0  0  0  0  0  0  0  0
  -48.7112   58.3148   65.9697 C   0  0  0  0  0  0  0  0  0  0  0  0
  -50.1996   58.1466   65.6140 C   0  0  0  0  0  0  0  0  0  0  0  0
  -50.7529   59.3198   64.7755 C   0  0  0  0  0  0  0  0  0  0  0  0
  -50.9674   58.8901   63.3213 C   0  0  0  0  0  0  0  0  0  0  0  0
  -49.7189   58.9224   62.4483 C   0  0  0  0  0  0  0  0  0  0  0  0
  -49.4594   57.5894   61.7624 C   0  0  0  0  0  0  0  0  0  0  0  0
  -50.3237   57.2859   60.5365 C   0  0  0  0  0  0  0  0  0  0  0  0
  -49.4694   57.4827   59.2915 C   0  0  0  0  0  0  0  0  0  0  0  0
  -47.9772   57.1980   59.3784 C   0  0  0  0  0  0  0  0  0  0  0  0
  -47.2717   57.5556   58.0606 C   0  0  0  0  0  0  0  0  0  0  0  0
  -47.6193   56.6315   56.8789 C   0  0  0  0  0  0  0  0  0  0  0  0
  -47.6127   55.1500   57.2485 C   0  0  0  0  0  0  0  0  0  0  0  0
  -38.0572   57.9834   65.4673 O   0  0  0  0  0  0  0  0  0  0  0  0
  -39.1699   57.5773   64.6923 C   0  0  0  0  0  0  0  0  0  0  0  0
  -38.3508   58.1988   66.3664 H   0  0  0  0  0  0  0  0  0  0  0  0
  -38.7743   57.2218   63.2572 C   0  0  0  0  0  0  0  0  0  0  0  0
  -38.3577   58.1364   62.3649 C   0  0  0  0  0  0  0  0  0  0  0  0
  -37.9812   57.7016   60.9499 C   0  0  0  0  0  0  0  0  0  0  0  0
  -38.1903   58.7913   59.8882 C   0  0  0  0  0  0  0  0  0  0  0  0
  -37.1829   58.7893   58.7235 C   0  0  0  0  0  0  0  0  0  0  0  0
  -37.4320   57.5848   57.7841 C   0  0  0  0  0  0  0  0  0  0  0  0
  -36.2919   56.5363   57.7361 C   0  0  0  0  0  0  0  0  0  0  0  0
  -34.8822   57.1215   57.9868 C   0  0  0  0  0  0  0  0  0  0  0  0
  -34.0520   56.3156   59.0093 C   0  0  0  0  0  0  0  0  0  0  0  0
  -34.8790   55.7572   60.1736 C   0  0  0  0  0  0  0  0  0  0  0  0
  -34.4259   56.1631   61.5744 C   0  0  0  0  0  0  0  0  0  0  0  0
  -33.0953   56.9409   61.6010 C   0  0  0  0  0  0  0  0  0  0  0  0
  -33.0660   58.1562   62.5403 C   0  0  0  0  0  0  0  0  0  0  0  0
  -34.4835   58.5806   62.9347 C   0  0  0  0  0  0  0  0  0  0  0  0
  -34.7943   58.5975   64.4209 C   0  0  0  0  0  0  0  0  0  0  0  0
  -39.5267   60.1004   65.2685 C   0  0  0  0  0  0  0  0  0  0  0  0
  -38.8096   60.9694   64.3553 O   0  0  0  0  0  0  0  0  0  0  0  0
  -36.9042   61.3290   62.2536 O   0  0  0  0  0  0  0  0  0  0  0  0
  -35.4710   64.3270   64.7748 O   0  0  0  0  0  0  0  0  0  0  0  0
  -37.1256   61.9964   65.7678 O   0  0  0  0  0  0  0  0  0  0  0  0
  -37.3749   61.2619   64.5446 C   0  0  0  0  0  0  0  0  0  0  0  0
  -36.6940   62.0590   63.4227 C   0  0  0  0  0  0  0  0  0  0  0  0
  -35.1719   62.2314   63.6199 C   0  0  0  0  0  0  0  0  0  0  0  0
  -34.9979   62.9889   64.9072 C   0  0  0  0  0  0  0  0  0  0  0  0
  -35.7223   62.2678   66.0294 C   0  0  0  0  0  0  0  0  0  0  0  0
  -37.8567   61.2105   62.1131 H   0  0  0  0  0  0  0  0  0  0  0  0
  -34.9956   64.7682   64.0536 H   0  0  0  0  0  0  0  0  0  0  0  0
  -36.6103   63.8277   67.6081 O   0  0  0  0  0  0  0  0  0  0  0  0
  -35.4338   63.1879   67.2137 C   0  0  0  0  0  0  0  0  0  0  0  0
  -36.4243   64.4113   68.3602 H   0  0  0  0  0  0  0  0  0  0  0  0
  -34.4838   62.9987   62.6060 O   0  0  0  0  0  0  0  0  0  0  0  0
  -32.4224   64.0156   61.4087 O   0  0  0  0  0  0  0  0  0  0  0  0
  -32.4266   61.6600   61.9921 O   0  0  0  0  0  0  0  0  0  0  0  0
  -32.1043   63.3407   63.7085 O   0  0  0  0  0  0  0  0  0  0  0  0
  -32.8269   63.0200   62.4449 S   0  0  0  0  0  0  0  0  0  0  0  0
  -32.8835   63.8225   60.5774 H   0  0  0  0  0  0  0  0  0  0  0  0
  -32.3595   64.2263   64.0111 H   0  0  0  0  0  0  0  0  0  0  0  0
  2  1  1  0  0  0
  2  4  1  0  0  0
  2  5  1  0  0  0
 41 42  1  0  0  0
 41  1  1  0  0  0
 42 46  1  0  0  0
  1 24  1  0  0  0
 23 24  1  0  0  0
 23 25  1  0  0  0
 24 26  1  0  0  0
  3  4  2  0  0  0
 26 27  2  0  0  0
 27 28  1  0  0  0
 43 47  1  0  0  0
 43 51  1  0  0  0
 28 29  1  0  0  0
 56 48  1  0  0  0
 56 60  1  0  0  0
 29 30  1  0  0  0
 57 60  1  0  0  0
 57 61  1  0  0  0
 30 31  1  0  0  0
 44 49  1  0  0  0
 44 52  1  0  0  0
 31 32  1  0  0  0
 45 46  1  0  0  0
 45 50  1  0  0  0
 32 33  1  0  0  0
 53 54  1  0  0  0
 53 55  1  0  0  0
 33 34  1  0  0  0
 34 35  1  0  0  0
 35 36  1  0  0  0
 58 60  1  0  0  0
 36 37  1  0  0  0
 59 60  1  0  0  0
 59 62  1  0  0  0
 37 38  1  0  0  0
 38 39  1  0  0  0
 39 40  1  0  0  0
  4  6  1  0  0  0
  6  7  1  0  0  0
  7  8  1  0  0  0
  8  9  1  0  0  0
  9 10  1  0  0  0
 10 11  1  0  0  0
 11 12  1  0  0  0
 12 13  1  0  0  0
 13 14  1  0  0  0
 14 15  1  0  0  0
 15 16  1  0  0  0
 16 17  1  0  0  0
 17 18  1  0  0  0
 18 19  1  0  0  0
 19 20  1  0  0  0
 20 21  1  0  0  0
 21 22  1  0  0  0
 46 47  1  0  0  0
 47 48  1  0  0  0
 48 49  1  0  0  0
 49 50  1  0  0  0
 50 54  1  0  0  0
M  CHG 1  58  -1
M  END
> <minimizedAffinity>
-10.22274

> <CNNscore>
0.3022670448

> <CNNaffinity>
7.0599822998

> <CNN_VS>
2.1340000629

> <CNNaffinity_variance>
1.3358314037

$$$$
/media/chris/experiments/cd1a-new-docking/inputs/ligands/1onq_ligand.pdb


 62 62  0  0  0  0  0  0  0  0999 V2000
  -38.2741   60.1985   65.2434 C   0  0  0  0  0  0  0  0  0  0  0  0
  -39.5020   59.7168   65.8446 N   0  0  0  0  0  0  0  0  0  0  0  0
  -41.0632   61.0321   64.8546 O   0  0  0  0  0  0  0  0  0  0  0  0
  -40.7530   60.1425   65.6229 C   0  0  0  0  0  0  0  0  0  0  0  0
  -39.4046   58.9859   66.4969 H   0  0  0  0  0  0  0  0  0  0  0  0
  -41.8171   59.4282   66.4023 C   0  0  0  0  0  0  0  0  0  0  0  0
  -42.2969   58.2736   65.5226 C   0  0  0  0  0  0  0  0  0  0  0  0
  -43.2138   57.3530   66.3246 C   0  0  0  0  0  0  0  0  0  0  0  0
  -44.4528   56.8667   65.6128 C   0  0  0  0  0  0  0  0  0  0  0  0
  -44.9531   58.0044   64.7290 C   0  0  0  0  0  0  0  0  0  0  0  0
  -46.0359   58.8523   65.4100 C   0  0  0  0  0  0  0  0  0  0  0  0
  -47.4320   58.7245   64.7736 C   0  0  0  0  0  0  0  0  0  0  0  0
  -48.1746   60.0754   64.6788 C   0  0  0  0  0  0  0  0  0  0  0  0
  -49.2444   60.0278   63.5840 C   0  0  0  0  0  0  0  0  0  0  0  0
  -50.3569   59.0118   63.8130 C   0  0  0  0  0  0  0  0  0  0  0  0
  -50.8213   58.3626   62.5178 C   0  0  0  0  0  0  0  0  0  0  0  0
  -49.7440   57.6412   61.7047 C   0  0  0  0  0  0  0  0  0  0  0  0
  -50.0168   57.8896   60.2273 C   0  0  0  0  0  0  0  0  0  0  0  0
  -49.2360   57.0877   59.1966 C   0  0  0  0  0  0  0  0  0  0  0  0
  -47.7230   57.2960   59.3692 C   0  0  0  0  0  0  0  0  0  0  0  0
  -46.9866   57.7227   58.0859 C   0  0  0  0  0  0  0  0  0  0  0  0
  -47.1625   56.7375   56.9326 C   0  0  0  0  0  0  0  0  0  0  0  0
  -38.2140   57.8769   65.2905 O   0  0  0  0  0  0  0  0  0  0  0  0
  -37.7580   58.9696   64.5148 C   0  0  0  0  0  0  0  0  0  0  0  0
  -39.1839   57.8771   65.3106 H   0  0  0  0  0  0  0  0  0  0  0  0
  -36.2303   59.0275   64.4422 C   0  0  0  0  0  0  0  0  0  0  0  0
  -35.5418   58.7916   63.3124 C   0  0  0  0  0  0  0  0  0  0  0  0
  -34.0163   58.8680   63.3217 C   0  0  0  0  0  0  0  0  0  0  0  0
  -33.3306   57.6956   62.6052 C   0  0  0  0  0  0  0  0  0  0  0  0
  -33.7158   57.5005   61.1271 C   0  0  0  0  0  0  0  0  0  0  0  0
  -33.8635   55.9967   60.7920 C   0  0  0  0  0  0  0  0  0  0  0  0
  -33.8959   55.6558   59.2806 C   0  0  0  0  0  0  0  0  0  0  0  0
  -34.1131   56.8795   58.3598 C   0  0  0  0  0  0  0  0  0  0  0  0
  -35.5715   57.0390   57.8784 C   0  0  0  0  0  0  0  0  0  0  0  0
  -36.6058   56.4174   58.8245 C   0  0  0  0  0  0  0  0  0  0  0  0
  -37.2824   57.3755   59.8026 C   0  0  0  0  0  0  0  0  0  0  0  0
  -37.4028   58.8209   59.2807 C   0  0  0  0  0  0  0  0  0  0  0  0
  -38.7264   59.5278   59.6100 C   0  0  0  0  0  0  0  0  0  0  0  0
  -38.7565   59.9860   61.0709 C   0  0  0  0  0  0  0  0  0  0  0  0
  -40.1270   60.2598   61.6645 C   0  0  0  0  0  0  0  0  0  0  0  0
  -37.2937   60.9052   66.2069 C   0  0  0  0  0  0  0  0  0  0  0  0
  -37.0242   62.3059   65.9451 O   0  0  0  0  0  0  0  0  0  0  0  0
  -35.2885   62.3364   63.6727 O   0  0  0  0  0  0  0  0  0  0  0  0
  -34.2224   66.0716   65.1929 O   0  0  0  0  0  0  0  0  0  0  0  0
  -35.4573   63.8960   66.8950 O   0  0  0  0  0  0  0  0  0  0  0  0
  -35.6441   62.8304   65.9320 C   0  0  0  0  0  0  0  0  0  0  0  0
  -35.1420   63.3778   64.5882 C   0  0  0  0  0  0  0  0  0  0  0  0
  -33.6570   63.8018   64.6068 C   0  0  0  0  0  0  0  0  0  0  0  0
  -33.5452   64.8965   65.6317 C   0  0  0  0  0  0  0  0  0  0  0  0
  -34.1019   64.4158   66.9596 C   0  0  0  0  0  0  0  0  0  0  0  0
  -36.2170   62.0564   63.6474 H   0  0  0  0  0  0  0  0  0  0  0  0
  -33.8515   66.3607   64.3445 H   0  0  0  0  0  0  0  0  0  0  0  0
  -32.6047   66.1339   67.6810 O   0  0  0  0  0  0  0  0  0  0  0  0
  -33.9064   65.6530   67.8333 C   0  0  0  0  0  0  0  0  0  0  0  0
  -32.4832   66.9194   68.2368 H   0  0  0  0  0  0  0  0  0  0  0  0
  -33.1386   64.3510   63.3741 O   0  0  0  0  0  0  0  0  0  0  0  0
  -34.1407   63.5087   61.1373 O   0  0  0  0  0  0  0  0  0  0  0  0
  -32.7072   62.0419   62.4345 O   0  0  0  0  0  0  0  0  0  0  0  0
  -31.7514   63.8774   61.1728 O   0  0  0  0  0  0  0  0  0  0  0  0
  -32.9191   63.4473   61.9932 S   0  0  0  0  0  0  0  0  0  0  0  0
  -34.9126   63.2316   61.6553 H   0  0  0  0  0  0  0  0  0  0  0  0
  -31.8812   64.7932   60.8806 H   0  0  0  0  0  0  0  0  0  0  0  0
  2  1  1  0  0  0
  2  4  1  0  0  0
  2  5  1  0  0  0
 41 42  1  0  0  0
 41  1  1  0  0  0
 42 46  1  0  0  0
  1 24  1  0  0  0
 23 24  1  0  0  0
 23 25  1  0  0  0
 24 26  1  0  0  0
  3  4  2  0  0  0
 26 27  2  0  0  0
 27 28  1  0  0  0
 43 47  1  0  0  0
 43 51  1  0  0  0
 28 29  1  0  0  0
 56 48  1  0  0  0
 56 60  1  0  0  0
 29 30  1  0  0  0
 57 60  1  0  0  0
 57 61  1  0  0  0
 30 31  1  0  0  0
 44 49  1  0  0  0
 44 52  1  0  0  0
 31 32  1  0  0  0
 45 46  1  0  0  0
 45 50  1  0  0  0
 32 33  1  0  0  0
 53 54  1  0  0  0
 53 55  1  0  0  0
 33 34  1  0  0  0
 34 35  1  0  0  0
 35 36  1  0  0  0
 58 60  1  0  0  0
 36 37  1  0  0  0
 59 60  1  0  0  0
 59 62  1  0  0  0
 37 38  1  0  0  0
 38 39  1  0  0  0
 39 40  1  0  0  0
  4  6  1  0  0  0
  6  7  1  0  0  0
  7  8  1  0  0  0
  8  9  1  0  0  0
  9 10  1  0  0  0
 10 11  1  0  0  0
 11 12  1  0  0  0
 12 13  1  0  0  0
 13 14  1  0  0  0
 14 15  1  0  0  0
 15 16  1  0  0  0
 16 17  1  0  0  0
 17 18  1  0  0  0
 18 19  1  0  0  0
 19 20  1  0  0  0
 20 21  1  0  0  0
 21 22  1  0  0  0
 46 47  1  0  0  0
 47 48  1  0  0  0
 48 49  1  0  0  0
 49 50  1  0  0  0
 50 54  1  0  0  0
M  CHG 1  58  -1
M  END
> <minimizedAffinity>
-9.68493

> <CNNscore>
0.2862260342

> <CNNaffinity>
7.1558341980

> <CNN_VS>
2.0481860638

> <CNNaffinity_variance>
1.1074774265

$$$$
/media/chris/experiments/cd1a-new-docking/inputs/ligands/1onq_ligand.pdb


 62 62  0  0  0  0  0  0  0  0999 V2000
  -38.9107   59.6490   61.8844 C   0  0  0  0  0  0  0  0  0  0  0  0
  -40.0542   59.8703   61.0217 N   0  0  0  0  0  0  0  0  0  0  0  0
  -39.1184   59.7681   58.9574 O   0  0  0  0  0  0  0  0  0  0  0  0
  -40.0831   59.9133   59.6827 C   0  0  0  0  0  0  0  0  0  0  0  0
  -40.9171   60.0058   61.4759 H   0  0  0  0  0  0  0  0  0  0  0  0
  -41.4360   60.1543   59.0815 C   0  0  0  0  0  0  0  0  0  0  0  0
  -41.4978   59.3167   57.8041 C   0  0  0  0  0  0  0  0  0  0  0  0
  -42.9165   59.3301   57.2398 C   0  0  0  0  0  0  0  0  0  0  0  0
  -43.7174   58.0645   57.4283 C   0  0  0  0  0  0  0  0  0  0  0  0
  -45.1540   58.4704   57.7403 C   0  0  0  0  0  0  0  0  0  0  0  0
  -45.7957   57.5937   58.8242 C   0  0  0  0  0  0  0  0  0  0  0  0
  -47.2912   57.3046   58.5999 C   0  0  0  0  0  0  0  0  0  0  0  0
  -48.1501   57.5767   59.8544 C   0  0  0  0  0  0  0  0  0  0  0  0
  -49.3309   56.6039   59.9216 C   0  0  0  0  0  0  0  0  0  0  0  0
  -50.6337   57.2054   60.4347 C   0  0  0  0  0  0  0  0  0  0  0  0
  -50.4109   58.5092   61.1866 C   0  0  0  0  0  0  0  0  0  0  0  0
  -51.0444   58.5989   62.5769 C   0  0  0  0  0  0  0  0  0  0  0  0
  -49.9608   58.3282   63.6118 C   0  0  0  0  0  0  0  0  0  0  0  0
  -50.3244   58.4102   65.0870 C   0  0  0  0  0  0  0  0  0  0  0  0
  -49.2198   57.7945   65.9605 C   0  0  0  0  0  0  0  0  0  0  0  0
  -47.8040   57.8926   65.3630 C   0  0  0  0  0  0  0  0  0  0  0  0
  -47.1057   59.2134   65.6779 C   0  0  0  0  0  0  0  0  0  0  0  0
  -39.7781   60.9293   63.6177 O   0  0  0  0  0  0  0  0  0  0  0  0
  -39.5448   59.5790   63.2630 C   0  0  0  0  0  0  0  0  0  0  0  0
  -40.3918   61.3292   62.9818 H   0  0  0  0  0  0  0  0  0  0  0  0
  -38.5809   58.8871   64.2299 C   0  0  0  0  0  0  0  0  0  0  0  0
  -37.8553   57.8074   63.8924 C   0  0  0  0  0  0  0  0  0  0  0  0
  -36.9152   57.1730   64.9156 C   0  0  0  0  0  0  0  0  0  0  0  0
  -35.4458   57.1359   64.4707 C   0  0  0  0  0  0  0  0  0  0  0  0
  -34.7197   58.4937   64.4547 C   0  0  0  0  0  0  0  0  0  0  0  0
  -33.9992   58.7152   63.1029 C   0  0  0  0  0  0  0  0  0  0  0  0
  -32.5616   58.1428   63.0179 C   0  0  0  0  0  0  0  0  0  0  0  0
  -32.4425   56.8525   62.1731 C   0  0  0  0  0  0  0  0  0  0  0  0
  -33.6686   56.5888   61.2723 C   0  0  0  0  0  0  0  0  0  0  0  0
  -33.5455   57.1940   59.8688 C   0  0  0  0  0  0  0  0  0  0  0  0
  -33.9612   56.2910   58.7094 C   0  0  0  0  0  0  0  0  0  0  0  0
  -35.1127   56.8581   57.8560 C   0  0  0  0  0  0  0  0  0  0  0  0
  -36.5118   56.3333   58.2124 C   0  0  0  0  0  0  0  0  0  0  0  0
  -37.1615   57.1941   59.2996 C   0  0  0  0  0  0  0  0  0  0  0  0
  -37.2288   56.5880   60.6902 C   0  0  0  0  0  0  0  0  0  0  0  0
  -37.7377   60.6389   61.7021 C   0  0  0  0  0  0  0  0  0  0  0  0
  -37.6685   61.7419   62.6412 O   0  0  0  0  0  0  0  0  0  0  0  0
  -35.4823   63.3080   61.6689 O   0  0  0  0  0  0  0  0  0  0  0  0
  -35.4299   64.7197   65.5936 O   0  0  0  0  0  0  0  0  0  0  0  0
  -36.6496   62.0610   64.8196 O   0  0  0  0  0  0  0  0  0  0  0  0
  -36.4292   62.0344   63.3884 C   0  0  0  0  0  0  0  0  0  0  0  0
  -35.7262   63.3545   63.0409 C   0  0  0  0  0  0  0  0  0  0  0  0
  -34.3772   63.5490   63.7672 C   0  0  0  0  0  0  0  0  0  0  0  0
  -34.6887   63.5552   65.2383 C   0  0  0  0  0  0  0  0  0  0  0  0
  -35.4512   62.2955   65.6071 C   0  0  0  0  0  0  0  0  0  0  0  0
  -36.3202   63.1860   61.1955 H   0  0  0  0  0  0  0  0  0  0  0  0
  -34.9252   65.5112   65.3495 H   0  0  0  0  0  0  0  0  0  0  0  0
  -34.4750   62.9059   67.7020 O   0  0  0  0  0  0  0  0  0  0  0  0
  -35.6709   62.5044   67.1039 C   0  0  0  0  0  0  0  0  0  0  0  0
  -34.6173   63.0378   68.6524 H   0  0  0  0  0  0  0  0  0  0  0  0
  -33.6847   64.7892   63.4978 O   0  0  0  0  0  0  0  0  0  0  0  0
  -31.3632   63.6681   63.7641 O   0  0  0  0  0  0  0  0  0  0  0  0
  -31.8956   65.6432   65.0697 O   0  0  0  0  0  0  0  0  0  0  0  0
  -31.3912   65.8426   62.7074 O   0  0  0  0  0  0  0  0  0  0  0  0
  -32.0502   64.9933   63.7399 S   0  0  0  0  0  0  0  0  0  0  0  0
  -31.7792   63.1005   64.4317 H   0  0  0  0  0  0  0  0  0  0  0  0
  -31.4872   65.4261   61.8367 H   0  0  0  0  0  0  0  0  0  0  0  0
  2  1  1  0  0  0
  2  4  1  0  0  0
  2  5  1  0  0  0
 41 42  1  0  0  0
 41  1  1  0  0  0
 42 46  1  0  0  0
  1 24  1  0  0  0
 23 24  1  0  0  0
 23 25  1  0  0  0
 24 26  1  0  0  0
  3  4  2  0  0  0
 26 27  2  0  0  0
 27 28  1  0  0  0
 43 47  1  0  0  0
 43 51  1  0  0  0
 28 29  1  0  0  0
 56 48  1  0  0  0
 56 60  1  0  0  0
 29 30  1  0  0  0
 57 60  1  0  0  0
 57 61  1  0  0  0
 30 31  1  0  0  0
 44 49  1  0  0  0
 44 52  1  0  0  0
 31 32  1  0  0  0
 45 46  1  0  0  0
 45 50  1  0  0  0
 32 33  1  0  0  0
 53 54  1  0  0  0
 53 55  1  0  0  0
 33 34  1  0  0  0
 34 35  1  0  0  0
 35 36  1  0  0  0
 58 60  1  0  0  0
 36 37  1  0  0  0
 59 60  1  0  0  0
 59 62  1  0  0  0
 37 38  1  0  0  0
 38 39  1  0  0  0
 39 40  1  0  0  0
  4  6  1  0  0  0
  6  7  1  0  0  0
  7  8  1  0  0  0
  8  9  1  0  0  0
  9 10  1  0  0  0
 10 11  1  0  0  0
 11 12  1  0  0  0
 12 13  1  0  0  0
 13 14  1  0  0  0
 14 15  1  0  0  0
 15 16  1  0  0  0
 16 17  1  0  0  0
 17 18  1  0  0  0
 18 19  1  0  0  0
 19 20  1  0  0  0
 20 21  1  0  0  0
 21 22  1  0  0  0
 46 47  1  0  0  0
 47 48  1  0  0  0
 48 49  1  0  0  0
 49 50  1  0  0  0
 50 54  1  0  0  0
M  CHG 1  58  -1
M  END
> <minimizedAffinity>
-8.50803

> <CNNscore>
0.2799089849

> <CNNaffinity>
6.8035364151

> <CNN_VS>
1.9043710232

> <CNNaffinity_variance>
0.7301005721

$$$$
/media/chris/experiments/cd1a-new-docking/inputs/ligands/1onq_ligand.pdb


 62 62  0  0  0  0  0  0  0  0999 V2000
  -40.1899   59.2027   65.1059 C   0  0  0  0  0  0  0  0  0  0  0  0
  -39.7289   58.4217   63.9752 N   0  0  0  0  0  0  0  0  0  0  0  0
  -37.8025   57.5255   64.7710 O   0  0  0  0  0  0  0  0  0  0  0  0
  -38.6219   57.6719   63.8851 C   0  0  0  0  0  0  0  0  0  0  0  0
  -40.3000   58.4450   63.1737 H   0  0  0  0  0  0  0  0  0  0  0  0
  -38.4297   56.9741   62.5714 C   0  0  0  0  0  0  0  0  0  0  0  0
  -36.9746   57.2086   62.1651 C   0  0  0  0  0  0  0  0  0  0  0  0
  -36.8490   58.5337   61.4171 C   0  0  0  0  0  0  0  0  0  0  0  0
  -38.1291   59.1010   60.8531 C   0  0  0  0  0  0  0  0  0  0  0  0
  -37.8630   59.4841   59.4011 C   0  0  0  0  0  0  0  0  0  0  0  0
  -37.8794   58.2750   58.4562 C   0  0  0  0  0  0  0  0  0  0  0  0
  -36.5386   58.0077   57.7482 C   0  0  0  0  0  0  0  0  0  0  0  0
  -36.1962   56.5044   57.6584 C   0  0  0  0  0  0  0  0  0  0  0  0
  -36.5577   55.7894   58.9635 C   0  0  0  0  0  0  0  0  0  0  0  0
  -35.4096   55.0384   59.6269 C   0  0  0  0  0  0  0  0  0  0  0  0
  -34.0585   55.6733   59.3334 C   0  0  0  0  0  0  0  0  0  0  0  0
  -33.7029   56.9088   60.1635 C   0  0  0  0  0  0  0  0  0  0  0  0
  -33.3728   56.4526   61.5783 C   0  0  0  0  0  0  0  0  0  0  0  0
  -32.4860   57.3375   62.4417 C   0  0  0  0  0  0  0  0  0  0  0  0
  -33.2710   58.5440   62.9804 C   0  0  0  0  0  0  0  0  0  0  0  0
  -32.7412   59.9117   62.5114 C   0  0  0  0  0  0  0  0  0  0  0  0
  -31.4053   59.8224   61.7772 C   0  0  0  0  0  0  0  0  0  0  0  0
  -41.5098   60.9986   64.4513 O   0  0  0  0  0  0  0  0  0  0  0  0
  -41.5920   59.6043   64.6812 C   0  0  0  0  0  0  0  0  0  0  0  0
  -40.8763   61.1718   63.7374 H   0  0  0  0  0  0  0  0  0  0  0  0
  -42.5784   59.2614   65.8001 C   0  0  0  0  0  0  0  0  0  0  0  0
  -43.8840   59.0310   65.5796 C   0  0  0  0  0  0  0  0  0  0  0  0
  -44.8051   58.6952   66.7509 C   0  0  0  0  0  0  0  0  0  0  0  0
  -46.2853   58.5694   66.3616 C   0  0  0  0  0  0  0  0  0  0  0  0
  -46.5709   58.4643   64.8521 C   0  0  0  0  0  0  0  0  0  0  0  0
  -47.9042   59.1645   64.4954 C   0  0  0  0  0  0  0  0  0  0  0  0
  -48.5572   58.7067   63.1667 C   0  0  0  0  0  0  0  0  0  0  0  0
  -50.0548   58.3399   63.2903 C   0  0  0  0  0  0  0  0  0  0  0  0
  -50.7114   57.9630   61.9446 C   0  0  0  0  0  0  0  0  0  0  0  0
  -49.8619   58.3242   60.7202 C   0  0  0  0  0  0  0  0  0  0  0  0
  -49.8027   57.2759   59.6111 C   0  0  0  0  0  0  0  0  0  0  0  0
  -48.4045   56.6605   59.4055 C   0  0  0  0  0  0  0  0  0  0  0  0
  -47.4816   57.4355   58.4527 C   0  0  0  0  0  0  0  0  0  0  0  0
  -47.4391   56.7762   57.0711 C   0  0  0  0  0  0  0  0  0  0  0  0
  -47.4848   55.2587   57.0455 C   0  0  0  0  0  0  0  0  0  0  0  0
  -39.2439   60.3369   65.5617 C   0  0  0  0  0  0  0  0  0  0  0  0
  -38.5050   61.0228   64.5191 O   0  0  0  0  0  0  0  0  0  0  0  0
  -36.5781   61.6272   62.4946 O   0  0  0  0  0  0  0  0  0  0  0  0
  -35.7738   64.8871   64.9695 O   0  0  0  0  0  0  0  0  0  0  0  0
  -37.0812   62.3480   65.9690 O   0  0  0  0  0  0  0  0  0  0  0  0
  -37.1472   61.5490   64.7629 C   0  0  0  0  0  0  0  0  0  0  0  0
  -36.5471   62.4140   63.6452 C   0  0  0  0  0  0  0  0  0  0  0  0
  -35.0844   62.8362   63.9050 C   0  0  0  0  0  0  0  0  0  0  0  0
  -35.0994   63.6476   65.1710 C   0  0  0  0  0  0  0  0  0  0  0  0
  -35.7547   62.8504   66.2842 C   0  0  0  0  0  0  0  0  0  0  0  0
  -37.4909   61.3522   62.3154 H   0  0  0  0  0  0  0  0  0  0  0  0
  -35.3394   65.3792   64.2552 H   0  0  0  0  0  0  0  0  0  0  0  0
  -34.3790   64.3390   67.5514 O   0  0  0  0  0  0  0  0  0  0  0  0
  -35.6778   63.8379   67.4467 C   0  0  0  0  0  0  0  0  0  0  0  0
  -34.3329   64.9657   68.2902 H   0  0  0  0  0  0  0  0  0  0  0  0
  -34.4779   63.6760   62.8966 O   0  0  0  0  0  0  0  0  0  0  0  0
  -32.3163   63.9587   61.4949 O   0  0  0  0  0  0  0  0  0  0  0  0
  -32.1756   63.0566   63.7433 O   0  0  0  0  0  0  0  0  0  0  0  0
  -32.5596   65.4253   63.4017 O   0  0  0  0  0  0  0  0  0  0  0  0
  -32.8580   64.0604   62.8823 S   0  0  0  0  0  0  0  0  0  0  0  0
  -32.5014   63.0753   61.1395 H   0  0  0  0  0  0  0  0  0  0  0  0
  -33.0009   66.0864   62.8458 H   0  0  0  0  0  0  0  0  0  0  0  0
  2  1  1  0  0  0
  2  4  1  0  0  0
  2  5  1  0  0  0
 41 42  1  0  0  0
 41  1  1  0  0  0
 42 46  1  0  0  0
  1 24  1  0  0  0
 23 24  1  0  0  0
 23 25  1  0  0  0
 24 26  1  0  0  0
  3  4  2  0  0  0
 26 27  2  0  0  0
 27 28  1  0  0  0
 43 47  1  0  0  0
 43 51  1  0  0  0
 28 29  1  0  0  0
 56 48  1  0  0  0
 56 60  1  0  0  0
 29 30  1  0  0  0
 57 60  1  0  0  0
 57 61  1  0  0  0
 30 31  1  0  0  0
 44 49  1  0  0  0
 44 52  1  0  0  0
 31 32  1  0  0  0
 45 46  1  0  0  0
 45 50  1  0  0  0
 32 33  1  0  0  0
 53 54  1  0  0  0
 53 55  1  0  0  0
 33 34  1  0  0  0
 34 35  1  0  0  0
 35 36  1  0  0  0
 58 60  1  0  0  0
 36 37  1  0  0  0
 59 60  1  0  0  0
 59 62  1  0  0  0
 37 38  1  0  0  0
 38 39  1  0  0  0
 39 40  1  0  0  0
  4  6  1  0  0  0
  6  7  1  0  0  0
  7  8  1  0  0  0
  8  9  1  0  0  0
  9 10  1  0  0  0
 10 11  1  0  0  0
 11 12  1  0  0  0
 12 13  1  0  0  0
 13 14  1  0  0  0
 14 15  1  0  0  0
 15 16  1  0  0  0
 16 17  1  0  0  0
 17 18  1  0  0  0
 18 19  1  0  0  0
 19 20  1  0  0  0
 20 21  1  0  0  0
 21 22  1  0  0  0
 46 47  1  0  0  0
 47 48  1  0  0  0
 48 49  1  0  0  0
 49 50  1  0  0  0
 50 54  1  0  0  0
M  CHG 1  58  -1
M  END
> <minimizedAffinity>
-9.73731

> <CNNscore>
0.2446376383

> <CNNaffinity>
7.1260709763

> <CNN_VS>
1.7433052063

> <CNNaffinity_variance>
1.1730197668

$$$$
/media/chris/experiments/cd1a-new-docking/inputs/ligands/1onq_ligand.pdb


 62 62  0  0  0  0  0  0  0  0999 V2000
  -38.2677   59.5941   64.1082 C   0  0  0  0  0  0  0  0  0  0  0  0
  -39.3763   59.4375   65.0289 N   0  0  0  0  0  0  0  0  0  0  0  0
  -40.7629   61.1167   64.3923 O   0  0  0  0  0  0  0  0  0  0  0  0
  -40.4950   60.1710   65.1076 C   0  0  0  0  0  0  0  0  0  0  0  0
  -39.2976   58.7006   65.6770 H   0  0  0  0  0  0  0  0  0  0  0  0
  -41.4623   59.7462   66.1723 C   0  0  0  0  0  0  0  0  0  0  0  0
  -42.5821   58.9857   65.4618 C   0  0  0  0  0  0  0  0  0  0  0  0
  -43.1690   57.9294   66.3950 C   0  0  0  0  0  0  0  0  0  0  0  0
  -44.6658   57.7453   66.3308 C   0  0  0  0  0  0  0  0  0  0  0  0
  -45.0539   57.6348   64.8601 C   0  0  0  0  0  0  0  0  0  0  0  0
  -46.4027   58.2984   64.5511 C   0  0  0  0  0  0  0  0  0  0  0  0
  -46.7356   59.5023   65.4512 C   0  0  0  0  0  0  0  0  0  0  0  0
  -48.0510   59.3173   66.2392 C   0  0  0  0  0  0  0  0  0  0  0  0
  -48.6849   57.9601   65.9208 C   0  0  0  0  0  0  0  0  0  0  0  0
  -50.1817   57.9979   65.6374 C   0  0  0  0  0  0  0  0  0  0  0  0
  -50.6368   59.3534   65.1174 C   0  0  0  0  0  0  0  0  0  0  0  0
  -51.0293   59.4078   63.6392 C   0  0  0  0  0  0  0  0  0  0  0  0
  -49.7844   59.7413   62.8283 C   0  0  0  0  0  0  0  0  0  0  0  0
  -49.7330   59.3242   61.3660 C   0  0  0  0  0  0  0  0  0  0  0  0
  -48.9503   58.0125   61.1956 C   0  0  0  0  0  0  0  0  0  0  0  0
  -48.9046   57.4791   59.7518 C   0  0  0  0  0  0  0  0  0  0  0  0
  -48.8653   55.9548   59.6720 C   0  0  0  0  0  0  0  0  0  0  0  0
  -38.1143   57.6342   65.3457 O   0  0  0  0  0  0  0  0  0  0  0  0
  -37.5820   58.2407   64.1827 C   0  0  0  0  0  0  0  0  0  0  0  0
  -39.0726   57.5239   65.2430 H   0  0  0  0  0  0  0  0  0  0  0  0
  -36.0681   58.4440   64.2798 C   0  0  0  0  0  0  0  0  0  0  0  0
  -35.1896   57.7799   63.5095 C   0  0  0  0  0  0  0  0  0  0  0  0
  -33.6925   58.0385   63.6676 C   0  0  0  0  0  0  0  0  0  0  0  0
  -32.9017   57.9355   62.3553 C   0  0  0  0  0  0  0  0  0  0  0  0
  -33.7252   57.5638   61.1083 C   0  0  0  0  0  0  0  0  0  0  0  0
  -33.5602   56.0628   60.7687 C   0  0  0  0  0  0  0  0  0  0  0  0
  -33.8289   55.6856   59.2898 C   0  0  0  0  0  0  0  0  0  0  0  0
  -34.3680   56.8507   58.4269 C   0  0  0  0  0  0  0  0  0  0  0  0
  -35.7962   56.6125   57.8905 C   0  0  0  0  0  0  0  0  0  0  0  0
  -36.8443   57.5636   58.4806 C   0  0  0  0  0  0  0  0  0  0  0  0
  -37.2473   57.3026   59.9303 C   0  0  0  0  0  0  0  0  0  0  0  0
  -38.0699   58.4407   60.5659 C   0  0  0  0  0  0  0  0  0  0  0  0
  -38.2772   59.6752   59.6753 C   0  0  0  0  0  0  0  0  0  0  0  0
  -39.7188   60.1836   59.7670 C   0  0  0  0  0  0  0  0  0  0  0  0
  -40.3283   60.2379   61.1566 C   0  0  0  0  0  0  0  0  0  0  0  0
  -37.3836   60.8411   64.3368 C   0  0  0  0  0  0  0  0  0  0  0  0
  -37.1972   61.7209   63.1990 O   0  0  0  0  0  0  0  0  0  0  0  0
  -37.0203   63.8165   65.1366 O   0  0  0  0  0  0  0  0  0  0  0  0
  -32.9282   63.0930   64.7764 O   0  0  0  0  0  0  0  0  0  0  0  0
  -34.9243   62.3478   62.6280 O   0  0  0  0  0  0  0  0  0  0  0  0
  -36.1743   62.7854   63.2141 C   0  0  0  0  0  0  0  0  0  0  0  0
  -35.8198   63.3624   64.5922 C   0  0  0  0  0  0  0  0  0  0  0  0
  -34.8341   64.5499   64.5327 C   0  0  0  0  0  0  0  0  0  0  0  0
  -33.5740   64.0195   63.9067 C   0  0  0  0  0  0  0  0  0  0  0  0
  -33.8963   63.3733   62.5715 C   0  0  0  0  0  0  0  0  0  0  0  0
  -37.6530   63.0826   65.1818 H   0  0  0  0  0  0  0  0  0  0  0  0
  -32.7318   63.5261   65.6219 H   0  0  0  0  0  0  0  0  0  0  0  0
  -32.4357   61.5134   62.2234 O   0  0  0  0  0  0  0  0  0  0  0  0
  -32.5140   62.9036   62.1232 C   0  0  0  0  0  0  0  0  0  0  0  0
  -31.5570   61.2177   61.9382 H   0  0  0  0  0  0  0  0  0  0  0  0
  -34.4439   65.1148   65.8050 O   0  0  0  0  0  0  0  0  0  0  0  0
  -34.0527   65.1037   68.3670 O   0  0  0  0  0  0  0  0  0  0  0  0
  -34.1718   62.9988   67.1651 O   0  0  0  0  0  0  0  0  0  0  0  0
  -36.1893   64.2687   67.6029 O   0  0  0  0  0  0  0  0  0  0  0  0
  -34.7413   64.3702   67.2641 S   0  0  0  0  0  0  0  0  0  0  0  0
  -33.1073   65.1796   68.1638 H   0  0  0  0  0  0  0  0  0  0  0  0
  -36.5689   65.1588   67.6695 H   0  0  0  0  0  0  0  0  0  0  0  0
  2  1  1  0  0  0
  2  4  1  0  0  0
  2  5  1  0  0  0
 41 42  1  0  0  0
 41  1  1  0  0  0
 42 46  1  0  0  0
  1 24  1  0  0  0
 23 24  1  0  0  0
 23 25  1  0  0  0
 24 26  1  0  0  0
  3  4  2  0  0  0
 26 27  2  0  0  0
 27 28  1  0  0  0
 43 47  1  0  0  0
 43 51  1  0  0  0
 28 29  1  0  0  0
 56 48  1  0  0  0
 56 60  1  0  0  0
 29 30  1  0  0  0
 57 60  1  0  0  0
 57 61  1  0  0  0
 30 31  1  0  0  0
 44 49  1  0  0  0
 44 52  1  0  0  0
 31 32  1  0  0  0
 45 46  1  0  0  0
 45 50  1  0  0  0
 32 33  1  0  0  0
 53 54  1  0  0  0
 53 55  1  0  0  0
 33 34  1  0  0  0
 34 35  1  0  0  0
 35 36  1  0  0  0
 58 60  1  0  0  0
 36 37  1  0  0  0
 59 60  1  0  0  0
 59 62  1  0  0  0
 37 38  1  0  0  0
 38 39  1  0  0  0
 39 40  1  0  0  0
  4  6  1  0  0  0
  6  7  1  0  0  0
  7  8  1  0  0  0
  8  9  1  0  0  0
  9 10  1  0  0  0
 10 11  1  0  0  0
 11 12  1  0  0  0
 12 13  1  0  0  0
 13 14  1  0  0  0
 14 15  1  0  0  0
 15 16  1  0  0  0
 16 17  1  0  0  0
 17 18  1  0  0  0
 18 19  1  0  0  0
 19 20  1  0  0  0
 20 21  1  0  0  0
 21 22  1  0  0  0
 46 47  1  0  0  0
 47 48  1  0  0  0
 48 49  1  0  0  0
 49 50  1  0  0  0
 50 54  1  0  0  0
M  CHG 1  58  -1
M  END
> <minimizedAffinity>
-9.51358

> <CNNscore>
0.2068959773

> <CNNaffinity>
6.8471097946

> <CNN_VS>
1.4166394472

> <CNNaffinity_variance>
1.9478210211

$$$$
/media/chris/experiments/cd1a-new-docking/inputs/ligands/1onq_ligand.pdb


 62 62  0  0  0  0  0  0  0  0999 V2000
  -38.8337   60.7384   62.2162 C   0  0  0  0  0  0  0  0  0  0  0  0
  -39.5075   59.8440   63.1366 N   0  0  0  0  0  0  0  0  0  0  0  0
  -41.0636   61.2064   64.0693 O   0  0  0  0  0  0  0  0  0  0  0  0
  -40.5266   60.1211   63.9613 C   0  0  0  0  0  0  0  0  0  0  0  0
  -39.1751   58.9175   63.1585 H   0  0  0  0  0  0  0  0  0  0  0  0
  -41.0100   58.9666   64.7879 C   0  0  0  0  0  0  0  0  0  0  0  0
  -41.5796   59.5637   66.0749 C   0  0  0  0  0  0  0  0  0  0  0  0
  -42.9306   58.9269   66.3921 C   0  0  0  0  0  0  0  0  0  0  0  0
  -43.9284   58.8893   65.2601 C   0  0  0  0  0  0  0  0  0  0  0  0
  -44.8494   57.6970   65.4970 C   0  0  0  0  0  0  0  0  0  0  0  0
  -46.3355   58.0674   65.4004 C   0  0  0  0  0  0  0  0  0  0  0  0
  -46.6034   59.5778   65.2696 C   0  0  0  0  0  0  0  0  0  0  0  0
  -48.0705   59.9557   65.5697 C   0  0  0  0  0  0  0  0  0  0  0  0
  -48.8600   58.7285   66.0343 C   0  0  0  0  0  0  0  0  0  0  0  0
  -50.3277   58.7127   65.6248 C   0  0  0  0  0  0  0  0  0  0  0  0
  -50.5113   58.4045   64.1462 C   0  0  0  0  0  0  0  0  0  0  0  0
  -51.0158   59.5591   63.2775 C   0  0  0  0  0  0  0  0  0  0  0  0
  -50.2433   59.5401   61.9655 C   0  0  0  0  0  0  0  0  0  0  0  0
  -49.5755   58.2439   61.5309 C   0  0  0  0  0  0  0  0  0  0  0  0
  -50.4268   57.5120   60.4812 C   0  0  0  0  0  0  0  0  0  0  0  0
  -49.6819   57.1765   59.1760 C   0  0  0  0  0  0  0  0  0  0  0  0
  -48.1868   57.4804   59.2385 C   0  0  0  0  0  0  0  0  0  0  0  0
  -40.2230   60.0004   60.5070 O   0  0  0  0  0  0  0  0  0  0  0  0
  -38.8675   59.9590   60.9128 C   0  0  0  0  0  0  0  0  0  0  0  0
  -40.4880   60.9217   60.3585 H   0  0  0  0  0  0  0  0  0  0  0  0
  -38.3844   58.5288   61.1647 C   0  0  0  0  0  0  0  0  0  0  0  0
  -37.6838   57.8230   60.2607 C   0  0  0  0  0  0  0  0  0  0  0  0
  -37.2381   56.3990   60.5875 C   0  0  0  0  0  0  0  0  0  0  0  0
  -36.5836   55.6660   59.4075 C   0  0  0  0  0  0  0  0  0  0  0  0
  -36.5906   56.4226   58.0663 C   0  0  0  0  0  0  0  0  0  0  0  0
  -35.2373   57.1359   57.8311 C   0  0  0  0  0  0  0  0  0  0  0  0
  -34.0137   56.4758   58.5156 C   0  0  0  0  0  0  0  0  0  0  0  0
  -33.5801   57.1592   59.8337 C   0  0  0  0  0  0  0  0  0  0  0  0
  -33.3803   56.1724   61.0043 C   0  0  0  0  0  0  0  0  0  0  0  0
  -32.5088   56.7267   62.1377 C   0  0  0  0  0  0  0  0  0  0  0  0
  -33.1610   57.7774   63.0338 C   0  0  0  0  0  0  0  0  0  0  0  0
  -34.7020   57.7444   63.0175 C   0  0  0  0  0  0  0  0  0  0  0  0
  -35.3669   57.5263   64.3851 C   0  0  0  0  0  0  0  0  0  0  0  0
  -36.8248   57.0863   64.2239 C   0  0  0  0  0  0  0  0  0  0  0  0
  -37.8100   57.6269   65.2450 C   0  0  0  0  0  0  0  0  0  0  0  0
  -37.4568   61.2617   62.6843 C   0  0  0  0  0  0  0  0  0  0  0  0
  -36.8409   60.5618   63.7952 O   0  0  0  0  0  0  0  0  0  0  0  0
  -34.1595   61.0265   62.9169 O   0  0  0  0  0  0  0  0  0  0  0  0
  -34.6516   64.6041   65.0043 O   0  0  0  0  0  0  0  0  0  0  0  0
  -36.3066   62.1338   65.5641 O   0  0  0  0  0  0  0  0  0  0  0  0
  -35.7758   61.1916   64.6008 C   0  0  0  0  0  0  0  0  0  0  0  0
  -34.6935   61.9478   63.8169 C   0  0  0  0  0  0  0  0  0  0  0  0
  -33.5462   62.4825   64.7018 C   0  0  0  0  0  0  0  0  0  0  0  0
  -34.1769   63.4395   65.6752 C   0  0  0  0  0  0  0  0  0  0  0  0
  -35.3043   62.7468   66.4191 C   0  0  0  0  0  0  0  0  0  0  0  0
  -34.8673   60.6792   62.3515 H   0  0  0  0  0  0  0  0  0  0  0  0
  -33.9163   65.0301   64.5365 H   0  0  0  0  0  0  0  0  0  0  0  0
  -37.0836   64.2593   66.9295 O   0  0  0  0  0  0  0  0  0  0  0  0
  -35.8022   63.8710   67.3249 C   0  0  0  0  0  0  0  0  0  0  0  0
  -37.3974   64.9732   67.5062 H   0  0  0  0  0  0  0  0  0  0  0  0
  -32.5125   63.2274   64.0185 O   0  0  0  0  0  0  0  0  0  0  0  0
  -32.0712   62.3407   61.6235 O   0  0  0  0  0  0  0  0  0  0  0  0
  -31.5938   64.6615   62.1476 O   0  0  0  0  0  0  0  0  0  0  0  0
  -33.8846   63.9213   61.8667 O   0  0  0  0  0  0  0  0  0  0  0  0
  -32.5401   63.5373   62.3829 S   0  0  0  0  0  0  0  0  0  0  0  0
  -31.1958   62.0756   61.9463 H   0  0  0  0  0  0  0  0  0  0  0  0
  -34.5083   63.1936   62.0161 H   0  0  0  0  0  0  0  0  0  0  0  0
  2  1  1  0  0  0
  2  4  1  0  0  0
  2  5  1  0  0  0
 41 42  1  0  0  0
 41  1  1  0  0  0
 42 46  1  0  0  0
  1 24  1  0  0  0
 23 24  1  0  0  0
 23 25  1  0  0  0
 24 26  1  0  0  0
  3  4  2  0  0  0
 26 27  2  0  0  0
 27 28  1  0  0  0
 43 47  1  0  0  0
 43 51  1  0  0  0
 28 29  1  0  0  0
 56 48  1  0  0  0
 56 60  1  0  0  0
 29 30  1  0  0  0
 57 60  1  0  0  0
 57 61  1  0  0  0
 30 31  1  0  0  0
 44 49  1  0  0  0
 44 52  1  0  0  0
 31 32  1  0  0  0
 45 46  1  0  0  0
 45 50  1  0  0  0
 32 33  1  0  0  0
 53 54  1  0  0  0
 53 55  1  0  0  0
 33 34  1  0  0  0
 34 35  1  0  0  0
 35 36  1  0  0  0
 58 60  1  0  0  0
 36 37  1  0  0  0
 59 60  1  0  0  0
 59 62  1  0  0  0
 37 38  1  0  0  0
 38 39  1  0  0  0
 39 40  1  0  0  0
  4  6  1  0  0  0
  6  7  1  0  0  0
  7  8  1  0  0  0
  8  9  1  0  0  0
  9 10  1  0  0  0
 10 11  1  0  0  0
 11 12  1  0  0  0
 12 13  1  0  0  0
 13 14  1  0  0  0
 14 15  1  0  0  0
 15 16  1  0  0  0
 16 17  1  0  0  0
 17 18  1  0  0  0
 18 19  1  0  0  0
 19 20  1  0  0  0
 20 21  1  0  0  0
 21 22  1  0  0  0
 46 47  1  0  0  0
 47 48  1  0  0  0
 48 49  1  0  0  0
 49 50  1  0  0  0
 50 54  1  0  0  0
M  CHG 1  58  -1
M  END
> <minimizedAffinity>
-9.43749

> <CNNscore>
0.2036063224

> <CNNaffinity>
7.0493202209

> <CNN_VS>
1.4352861643

> <CNNaffinity_variance>
1.1453546286

$$$$
