/media/chris/experiments/cd1a-new-docking/inputs/ligands/1onq_ligand.pdb


 62 62  0  0  0  0  0  0  0  0999 V2000
  -38.3008   60.5440   63.0863 C   0  0  0  0  0  0  0  0  0  0  0  0
  -38.4075   60.1855   64.4867 N   0  0  0  0  0  0  0  0  0  0  0  0
  -39.5470   59.6768   66.3816 O   0  0  0  0  0  0  0  0  0  0  0  0
  -39.5197   59.9642   65.2007 C   0  0  0  0  0  0  0  0  0  0  0  0
  -37.5570   60.0930   64.9740 H   0  0  0  0  0  0  0  0  0  0  0  0
  -40.8044   60.1022   64.4389 C   0  0  0  0  0  0  0  0  0  0  0  0
  -41.7235   58.9851   64.9336 C   0  0  0  0  0  0  0  0  0  0  0  0
  -43.1631   59.4884   65.0072 C   0  0  0  0  0  0  0  0  0  0  0  0
  -44.0628   58.7833   65.9930 C   0  0  0  0  0  0  0  0  0  0  0  0
  -45.4046   58.5497   65.3069 C   0  0  0  0  0  0  0  0  0  0  0  0
  -46.4953   59.5133   65.7936 C   0  0  0  0  0  0  0  0  0  0  0  0
  -47.6319   59.7450   64.7812 C   0  0  0  0  0  0  0  0  0  0  0  0
  -47.9740   58.4805   63.9629 C   0  0  0  0  0  0  0  0  0  0  0  0
  -49.4441   58.0959   64.1526 C   0  0  0  0  0  0  0  0  0  0  0  0
  -50.4495   59.1514   63.7087 C   0  0  0  0  0  0  0  0  0  0  0  0
  -51.1677   58.7610   62.4254 C   0  0  0  0  0  0  0  0  0  0  0  0
  -50.5360   57.6213   61.6228 C   0  0  0  0  0  0  0  0  0  0  0  0
  -49.9923   58.1992   60.3231 C   0  0  0  0  0  0  0  0  0  0  0  0
  -49.2033   57.2888   59.3938 C   0  0  0  0  0  0  0  0  0  0  0  0
  -47.7087   57.2993   59.7520 C   0  0  0  0  0  0  0  0  0  0  0  0
  -46.7798   57.7334   58.6033 C   0  0  0  0  0  0  0  0  0  0  0  0
  -47.0780   57.0241   57.2844 C   0  0  0  0  0  0  0  0  0  0  0  0
  -37.0648   58.5791   62.9989 O   0  0  0  0  0  0  0  0  0  0  0  0
  -38.1952   59.1903   62.4052 C   0  0  0  0  0  0  0  0  0  0  0  0
  -37.2190   58.4692   63.9503 H   0  0  0  0  0  0  0  0  0  0  0  0
  -38.0165   59.3932   60.8988 C   0  0  0  0  0  0  0  0  0  0  0  0
  -37.4959   58.4543   60.0905 C   0  0  0  0  0  0  0  0  0  0  0  0
  -37.3492   58.7340   58.5959 C   0  0  0  0  0  0  0  0  0  0  0  0
  -37.4372   57.4779   57.7169 C   0  0  0  0  0  0  0  0  0  0  0  0
  -36.3692   56.4012   57.9839 C   0  0  0  0  0  0  0  0  0  0  0  0
  -34.9471   57.0072   57.9074 C   0  0  0  0  0  0  0  0  0  0  0  0
  -33.9118   56.3909   58.8820 C   0  0  0  0  0  0  0  0  0  0  0  0
  -34.5375   55.5762   60.0387 C   0  0  0  0  0  0  0  0  0  0  0  0
  -34.4151   56.2643   61.4154 C   0  0  0  0  0  0  0  0  0  0  0  0
  -33.1778   57.1598   61.5507 C   0  0  0  0  0  0  0  0  0  0  0  0
  -33.1878   58.1472   62.7157 C   0  0  0  0  0  0  0  0  0  0  0  0
  -32.5399   59.5072   62.3892 C   0  0  0  0  0  0  0  0  0  0  0  0
  -31.0564   59.4478   61.9945 C   0  0  0  0  0  0  0  0  0  0  0  0
  -30.3747   60.8017   62.2129 C   0  0  0  0  0  0  0  0  0  0  0  0
  -28.8590   60.8164   62.1243 C   0  0  0  0  0  0  0  0  0  0  0  0
  -37.2108   61.5860   62.7471 C   0  0  0  0  0  0  0  0  0  0  0  0
  -35.8372   61.1903   62.9919 O   0  0  0  0  0  0  0  0  0  0  0  0
  -33.5705   62.7043   62.1274 O   0  0  0  0  0  0  0  0  0  0  0  0
  -34.9783   65.4372   64.9467 O   0  0  0  0  0  0  0  0  0  0  0  0
  -35.6584   62.4902   65.0325 O   0  0  0  0  0  0  0  0  0  0  0  0
  -34.9565   61.9858   63.8703 C   0  0  0  0  0  0  0  0  0  0  0  0
  -34.2754   63.2003   63.2234 C   0  0  0  0  0  0  0  0  0  0  0  0
  -33.2776   63.9217   64.1558 C   0  0  0  0  0  0  0  0  0  0  0  0
  -34.0769   64.4034   65.3349 C   0  0  0  0  0  0  0  0  0  0  0  0
  -34.8257   63.2393   65.9581 C   0  0  0  0  0  0  0  0  0  0  0  0
  -34.1823   62.2470   61.5296 H   0  0  0  0  0  0  0  0  0  0  0  0
  -34.4796   66.1696   64.5517 H   0  0  0  0  0  0  0  0  0  0  0  0
  -36.9257   64.0020   66.8077 O   0  0  0  0  0  0  0  0  0  0  0  0
  -35.5627   63.9333   67.1016 C   0  0  0  0  0  0  0  0  0  0  0  0
  -37.3915   64.4431   67.5353 H   0  0  0  0  0  0  0  0  0  0  0  0
  -32.6274   65.0903   63.6066 O   0  0  0  0  0  0  0  0  0  0  0  0
  -30.1682   64.3010   63.3912 O   0  0  0  0  0  0  0  0  0  0  0  0
  -30.8358   66.4190   62.4126 O   0  0  0  0  0  0  0  0  0  0  0  0
  -31.4685   64.3331   61.3530 O   0  0  0  0  0  0  0  0  0  0  0  0
  -31.2585   65.0142   62.6620 S   0  0  0  0  0  0  0  0  0  0  0  0
  -30.0169   64.7310   64.2474 H   0  0  0  0  0  0  0  0  0  0  0  0
  -31.7445   63.4159   61.5064 H   0  0  0  0  0  0  0  0  0  0  0  0
  2  1  1  0  0  0
  2  4  1  0  0  0
  2  5  1  0  0  0
 41 42  1  0  0  0
 41  1  1  0  0  0
 42 46  1  0  0  0
  1 24  1  0  0  0
 23 24  1  0  0  0
 23 25  1  0  0  0
 24 26  1  0  0  0
  3  4  2  0  0  0
 26 27  2  0  0  0
 27 28  1  0  0  0
 43 47  1  0  0  0
 43 51  1  0  0  0
 28 29  1  0  0  0
 56 48  1  0  0  0
 56 60  1  0  0  0
 29 30  1  0  0  0
 57 60  1  0  0  0
 57 61  1  0  0  0
 30 31  1  0  0  0
 44 49  1  0  0  0
 44 52  1  0  0  0
 31 32  1  0  0  0
 45 46  1  0  0  0
 45 50  1  0  0  0
 32 33  1  0  0  0
 53 54  1  0  0  0
 53 55  1  0  0  0
 33 34  1  0  0  0
 34 35  1  0  0  0
 35 36  1  0  0  0
 58 60  1  0  0  0
 36 37  1  0  0  0
 59 60  1  0  0  0
 59 62  1  0  0  0
 37 38  1  0  0  0
 38 39  1  0  0  0
 39 40  1  0  0  0
  4  6  1  0  0  0
  6  7  1  0  0  0
  7  8  1  0  0  0
  8  9  1  0  0  0
  9 10  1  0  0  0
 10 11  1  0  0  0
 11 12  1  0  0  0
 12 13  1  0  0  0
 13 14  1  0  0  0
 14 15  1  0  0  0
 15 16  1  0  0  0
 16 17  1  0  0  0
 17 18  1  0  0  0
 18 19  1  0  0  0
 19 20  1  0  0  0
 20 21  1  0  0  0
 21 22  1  0  0  0
 46 47  1  0  0  0
 47 48  1  0  0  0
 48 49  1  0  0  0
 49 50  1  0  0  0
 50 54  1  0  0  0
M  CHG 1  58  -1
M  END
> <minimizedAffinity>
-9.73389

> <CNNscore>
0.3596515656

> <CNNaffinity>
6.8935775757

> <CNN_VS>
2.4792859554

> <CNNaffinity_variance>
1.0641069412

$$$$
/media/chris/experiments/cd1a-new-docking/inputs/ligands/1onq_ligand.pdb


 62 62  0  0  0  0  0  0  0  0999 V2000
  -40.1462   59.0090   64.9732 C   0  0  0  0  0  0  0  0  0  0  0  0
  -39.7705   58.4044   63.7105 N   0  0  0  0  0  0  0  0  0  0  0  0
  -38.4338   57.1657   62.3591 O   0  0  0  0  0  0  0  0  0  0  0  0
  -38.7041   57.6370   63.4466 C   0  0  0  0  0  0  0  0  0  0  0  0
  -40.3740   58.5792   62.9525 H   0  0  0  0  0  0  0  0  0  0  0  0
  -37.8015   57.3758   64.6157 C   0  0  0  0  0  0  0  0  0  0  0  0
  -36.3904   57.2223   64.0477 C   0  0  0  0  0  0  0  0  0  0  0  0
  -35.5169   58.3906   64.4985 C   0  0  0  0  0  0  0  0  0  0  0  0
  -34.0466   58.2836   64.1740 C   0  0  0  0  0  0  0  0  0  0  0  0
  -33.8899   58.4933   62.6716 C   0  0  0  0  0  0  0  0  0  0  0  0
  -32.6472   57.7960   62.1018 C   0  0  0  0  0  0  0  0  0  0  0  0
  -32.9069   56.3734   61.5735 C   0  0  0  0  0  0  0  0  0  0  0  0
  -34.2610   56.2424   60.8422 C   0  0  0  0  0  0  0  0  0  0  0  0
  -34.0779   55.5554   59.4858 C   0  0  0  0  0  0  0  0  0  0  0  0
  -33.7778   56.4935   58.3231 C   0  0  0  0  0  0  0  0  0  0  0  0
  -34.9998   57.2934   57.8964 C   0  0  0  0  0  0  0  0  0  0  0  0
  -36.3472   56.5784   58.0216 C   0  0  0  0  0  0  0  0  0  0  0  0
  -37.2071   57.3539   59.0105 C   0  0  0  0  0  0  0  0  0  0  0  0
  -37.8123   58.6782   58.5689 C   0  0  0  0  0  0  0  0  0  0  0  0
  -38.1820   59.5457   59.7825 C   0  0  0  0  0  0  0  0  0  0  0  0
  -39.6206   60.0944   59.7606 C   0  0  0  0  0  0  0  0  0  0  0  0
  -40.1954   60.3382   61.1541 C   0  0  0  0  0  0  0  0  0  0  0  0
  -41.3993   60.9518   64.7469 O   0  0  0  0  0  0  0  0  0  0  0  0
  -41.5377   59.5445   64.6828 C   0  0  0  0  0  0  0  0  0  0  0  0
  -40.7735   61.2464   64.0668 H   0  0  0  0  0  0  0  0  0  0  0  0
  -42.5151   59.0127   65.7337 C   0  0  0  0  0  0  0  0  0  0  0  0
  -43.8495   59.0550   65.5799 C   0  0  0  0  0  0  0  0  0  0  0  0
  -44.7591   58.5039   66.6764 C   0  0  0  0  0  0  0  0  0  0  0  0
  -46.2471   58.8204   66.4671 C   0  0  0  0  0  0  0  0  0  0  0  0
  -46.6484   59.2215   65.0356 C   0  0  0  0  0  0  0  0  0  0  0  0
  -47.8239   58.3508   64.5302 C   0  0  0  0  0  0  0  0  0  0  0  0
  -48.7977   57.8521   65.6278 C   0  0  0  0  0  0  0  0  0  0  0  0
  -50.2641   58.3010   65.4250 C   0  0  0  0  0  0  0  0  0  0  0  0
  -50.4201   59.4682   64.4264 C   0  0  0  0  0  0  0  0  0  0  0  0
  -51.2550   59.1156   63.1895 C   0  0  0  0  0  0  0  0  0  0  0  0
  -50.4706   58.8017   61.9173 C   0  0  0  0  0  0  0  0  0  0  0  0
  -50.9160   57.5060   61.2110 C   0  0  0  0  0  0  0  0  0  0  0  0
  -50.0837   57.1110   59.9817 C   0  0  0  0  0  0  0  0  0  0  0  0
  -48.5952   57.3857   60.2140 C   0  0  0  0  0  0  0  0  0  0  0  0
  -47.7426   57.5791   58.9725 C   0  0  0  0  0  0  0  0  0  0  0  0
  -39.1222   60.0036   65.5658 C   0  0  0  0  0  0  0  0  0  0  0  0
  -38.5301   60.9517   64.6419 O   0  0  0  0  0  0  0  0  0  0  0  0
  -36.6222   61.1256   62.5188 O   0  0  0  0  0  0  0  0  0  0  0  0
  -35.4839   64.5991   64.5284 O   0  0  0  0  0  0  0  0  0  0  0  0
  -36.9612   62.3292   65.8775 O   0  0  0  0  0  0  0  0  0  0  0  0
  -37.1275   61.3893   64.7882 C   0  0  0  0  0  0  0  0  0  0  0  0
  -36.4935   62.0492   63.5554 C   0  0  0  0  0  0  0  0  0  0  0  0
  -34.9942   62.3772   63.7293 C   0  0  0  0  0  0  0  0  0  0  0  0
  -34.9058   63.3438   64.8779 C   0  0  0  0  0  0  0  0  0  0  0  0
  -35.5896   62.7550   66.0986 C   0  0  0  0  0  0  0  0  0  0  0  0
  -37.5591   60.9073   62.3949 H   0  0  0  0  0  0  0  0  0  0  0  0
  -35.0328   64.9565   63.7475 H   0  0  0  0  0  0  0  0  0  0  0  0
  -36.4851   63.9008   67.9957 O   0  0  0  0  0  0  0  0  0  0  0  0
  -35.3985   63.8745   67.1196 C   0  0  0  0  0  0  0  0  0  0  0  0
  -36.3613   64.6126   68.6430 H   0  0  0  0  0  0  0  0  0  0  0  0
  -34.3525   63.0258   62.6080 O   0  0  0  0  0  0  0  0  0  0  0  0
  -32.2950   61.5487   62.0586 O   0  0  0  0  0  0  0  0  0  0  0  0
  -32.0495   63.4269   63.5756 O   0  0  0  0  0  0  0  0  0  0  0  0
  -32.2598   63.8052   61.1908 O   0  0  0  0  0  0  0  0  0  0  0  0
  -32.7126   62.9563   62.3292 S   0  0  0  0  0  0  0  0  0  0  0  0
  -32.5815   60.9801   62.7904 H   0  0  0  0  0  0  0  0  0  0  0  0
  -32.6876   63.5051   60.3736 H   0  0  0  0  0  0  0  0  0  0  0  0
  2  1  1  0  0  0
  2  4  1  0  0  0
  2  5  1  0  0  0
 41 42  1  0  0  0
 41  1  1  0  0  0
 42 46  1  0  0  0
  1 24  1  0  0  0
 23 24  1  0  0  0
 23 25  1  0  0  0
 24 26  1  0  0  0
  3  4  2  0  0  0
 26 27  2  0  0  0
 27 28  1  0  0  0
 43 47  1  0  0  0
 43 51  1  0  0  0
 28 29  1  0  0  0
 56 48  1  0  0  0
 56 60  1  0  0  0
 29 30  1  0  0  0
 57 60  1  0  0  0
 57 61  1  0  0  0
 30 31  1  0  0  0
 44 49  1  0  0  0
 44 52  1  0  0  0
 31 32  1  0  0  0
 45 46  1  0  0  0
 45 50  1  0  0  0
 32 33  1  0  0  0
 53 54  1  0  0  0
 53 55  1  0  0  0
 33 34  1  0  0  0
 34 35  1  0  0  0
 35 36  1  0  0  0
 58 60  1  0  0  0
 36 37  1  0  0  0
 59 60  1  0  0  0
 59 62  1  0  0  0
 37 38  1  0  0  0
 38 39  1  0  0  0
 39 40  1  0  0  0
  4  6  1  0  0  0
  6  7  1  0  0  0
  7  8  1  0  0  0
  8  9  1  0  0  0
  9 10  1  0  0  0
 10 11  1  0  0  0
 11 12  1  0  0  0
 12 13  1  0  0  0
 13 14  1  0  0  0
 14 15  1  0  0  0
 15 16  1  0  0  0
 16 17  1  0  0  0
 17 18  1  0  0  0
 18 19  1  0  0  0
 19 20  1  0  0  0
 20 21  1  0  0  0
 21 22  1  0  0  0
 46 47  1  0  0  0
 47 48  1  0  0  0
 48 49  1  0  0  0
 49 50  1  0  0  0
 50 54  1  0  0  0
M  CHG 1  58  -1
M  END
> <minimizedAffinity>
-10.23839

> <CNNscore>
0.3151302636

> <CNNaffinity>
7.2890138626

> <CNN_VS>
2.2969889641

> <CNNaffinity_variance>
1.4060970545

$$$$
/media/chris/experiments/cd1a-new-docking/inputs/ligands/1onq_ligand.pdb


 62 62  0  0  0  0  0  0  0  0999 V2000
  -38.4905   59.4662   63.9038 C   0  0  0  0  0  0  0  0  0  0  0  0
  -39.7246   60.1936   63.6830 N   0  0  0  0  0  0  0  0  0  0  0  0
  -41.8196   60.8713   64.2305 O   0  0  0  0  0  0  0  0  0  0  0  0
  -40.8036   60.2504   64.4758 C   0  0  0  0  0  0  0  0  0  0  0  0
  -39.7767   60.7103   62.8466 H   0  0  0  0  0  0  0  0  0  0  0  0
  -40.7017   59.4634   65.7486 C   0  0  0  0  0  0  0  0  0  0  0  0
  -41.8623   58.4682   65.7365 C   0  0  0  0  0  0  0  0  0  0  0  0
  -42.8077   58.7555   66.9003 C   0  0  0  0  0  0  0  0  0  0  0  0
  -44.2673   58.9089   66.5471 C   0  0  0  0  0  0  0  0  0  0  0  0
  -44.4065   58.6670   65.0478 C   0  0  0  0  0  0  0  0  0  0  0  0
  -45.4149   57.5585   64.7170 C   0  0  0  0  0  0  0  0  0  0  0  0
  -45.8601   56.7254   65.9328 C   0  0  0  0  0  0  0  0  0  0  0  0
  -47.3948   56.5864   66.0360 C   0  0  0  0  0  0  0  0  0  0  0  0
  -48.0780   57.9303   65.7673 C   0  0  0  0  0  0  0  0  0  0  0  0
  -49.5953   57.8684   65.6401 C   0  0  0  0  0  0  0  0  0  0  0  0
  -50.1404   58.9387   64.7060 C   0  0  0  0  0  0  0  0  0  0  0  0
  -49.2592   59.2948   63.5065 C   0  0  0  0  0  0  0  0  0  0  0  0
  -50.1515   59.4083   62.2778 C   0  0  0  0  0  0  0  0  0  0  0  0
  -51.1448   58.2918   61.9920 C   0  0  0  0  0  0  0  0  0  0  0  0
  -50.4889   57.1684   61.1735 C   0  0  0  0  0  0  0  0  0  0  0  0
  -50.1162   57.5623   59.7324 C   0  0  0  0  0  0  0  0  0  0  0  0
  -48.6148   57.5068   59.4600 C   0  0  0  0  0  0  0  0  0  0  0  0
  -38.1137   57.3137   64.6918 O   0  0  0  0  0  0  0  0  0  0  0  0
  -38.9325   58.0184   63.7771 C   0  0  0  0  0  0  0  0  0  0  0  0
  -38.2769   57.6410   65.5903 H   0  0  0  0  0  0  0  0  0  0  0  0
  -38.7231   57.5487   62.3355 C   0  0  0  0  0  0  0  0  0  0  0  0
  -37.5108   57.4669   61.7613 C   0  0  0  0  0  0  0  0  0  0  0  0
  -37.3850   56.9892   60.3158 C   0  0  0  0  0  0  0  0  0  0  0  0
  -37.3909   58.1255   59.2828 C   0  0  0  0  0  0  0  0  0  0  0  0
  -36.7166   57.8056   57.9360 C   0  0  0  0  0  0  0  0  0  0  0  0
  -35.8422   56.5335   58.0479 C   0  0  0  0  0  0  0  0  0  0  0  0
  -34.3221   56.7874   58.2101 C   0  0  0  0  0  0  0  0  0  0  0  0
  -33.7445   56.3274   59.5694 C   0  0  0  0  0  0  0  0  0  0  0  0
  -33.9556   57.3491   60.7076 C   0  0  0  0  0  0  0  0  0  0  0  0
  -33.1610   57.0299   61.9796 C   0  0  0  0  0  0  0  0  0  0  0  0
  -31.9062   57.8679   62.2153 C   0  0  0  0  0  0  0  0  0  0  0  0
  -31.9536   59.2632   61.5620 C   0  0  0  0  0  0  0  0  0  0  0  0
  -31.1668   60.3581   62.2985 C   0  0  0  0  0  0  0  0  0  0  0  0
  -29.9020   60.7413   61.5247 C   0  0  0  0  0  0  0  0  0  0  0  0
  -28.6057   60.7568   62.3151 C   0  0  0  0  0  0  0  0  0  0  0  0
  -37.7101   59.8513   65.1811 C   0  0  0  0  0  0  0  0  0  0  0  0
  -36.2721   59.6669   65.1426 O   0  0  0  0  0  0  0  0  0  0  0  0
  -34.5362   60.5829   63.0629 O   0  0  0  0  0  0  0  0  0  0  0  0
  -35.6702   64.3362   64.4864 O   0  0  0  0  0  0  0  0  0  0  0  0
  -35.8354   61.8236   66.1641 O   0  0  0  0  0  0  0  0  0  0  0  0
  -35.3500   60.8156   65.2443 C   0  0  0  0  0  0  0  0  0  0  0  0
  -35.0385   61.5502   63.9326 C   0  0  0  0  0  0  0  0  0  0  0  0
  -33.9797   62.6647   64.0821 C   0  0  0  0  0  0  0  0  0  0  0  0
  -34.5511   63.6597   65.0541 C   0  0  0  0  0  0  0  0  0  0  0  0
  -34.9412   62.9552   66.3408 C   0  0  0  0  0  0  0  0  0  0  0  0
  -35.1890   59.8734   62.9567 H   0  0  0  0  0  0  0  0  0  0  0  0
  -35.3989   64.7785   63.6668 H   0  0  0  0  0  0  0  0  0  0  0  0
  -36.8854   64.1537   67.0462 O   0  0  0  0  0  0  0  0  0  0  0  0
  -35.4948   64.1165   67.1637 C   0  0  0  0  0  0  0  0  0  0  0  0
  -37.2344   64.8920   67.5697 H   0  0  0  0  0  0  0  0  0  0  0  0
  -33.6680   63.4085   62.8823 O   0  0  0  0  0  0  0  0  0  0  0  0
  -31.8215   64.3028   61.2986 O   0  0  0  0  0  0  0  0  0  0  0  0
  -31.2583   63.7222   63.5866 O   0  0  0  0  0  0  0  0  0  0  0  0
  -32.4804   65.7606   63.1116 O   0  0  0  0  0  0  0  0  0  0  0  0
  -32.2956   64.3361   62.7139 S   0  0  0  0  0  0  0  0  0  0  0  0
  -31.6953   63.3819   61.0215 H   0  0  0  0  0  0  0  0  0  0  0  0
  -33.1556   66.1688   62.5473 H   0  0  0  0  0  0  0  0  0  0  0  0
  2  1  1  0  0  0
  2  4  1  0  0  0
  2  5  1  0  0  0
 41 42  1  0  0  0
 41  1  1  0  0  0
 42 46  1  0  0  0
  1 24  1  0  0  0
 23 24  1  0  0  0
 23 25  1  0  0  0
 24 26  1  0  0  0
  3  4  2  0  0  0
 26 27  2  0  0  0
 27 28  1  0  0  0
 43 47  1  0  0  0
 43 51  1  0  0  0
 28 29  1  0  0  0
 56 48  1  0  0  0
 56 60  1  0  0  0
 29 30  1  0  0  0
 57 60  1  0  0  0
 57 61  1  0  0  0
 30 31  1  0  0  0
 44 49  1  0  0  0
 44 52  1  0  0  0
 31 32  1  0  0  0
 45 46  1  0  0  0
 45 50  1  0  0  0
 32 33  1  0  0  0
 53 54  1  0  0  0
 53 55  1  0  0  0
 33 34  1  0  0  0
 34 35  1  0  0  0
 35 36  1  0  0  0
 58 60  1  0  0  0
 36 37  1  0  0  0
 59 60  1  0  0  0
 59 62  1  0  0  0
 37 38  1  0  0  0
 38 39  1  0  0  0
 39 40  1  0  0  0
  4  6  1  0  0  0
  6  7  1  0  0  0
  7  8  1  0  0  0
  8  9  1  0  0  0
  9 10  1  0  0  0
 10 11  1  0  0  0
 11 12  1  0  0  0
 12 13  1  0  0  0
 13 14  1  0  0  0
 14 15  1  0  0  0
 15 16  1  0  0  0
 16 17  1  0  0  0
 17 18  1  0  0  0
 18 19  1  0  0  0
 19 20  1  0  0  0
 20 21  1  0  0  0
 21 22  1  0  0  0
 46 47  1  0  0  0
 47 48  1  0  0  0
 48 49  1  0  0  0
 49 50  1  0  0  0
 50 54  1  0  0  0
M  CHG 1  58  -1
M  END
> <minimizedAffinity>
-9.67724

> <CNNscore>
0.3094464540

> <CNNaffinity>
6.9819717407

> <CNN_VS>
2.1605463028

> <CNNaffinity_variance>
1.0160852671

$$$$
/media/chris/experiments/cd1a-new-docking/inputs/ligands/1onq_ligand.pdb


 62 62  0  0  0  0  0  0  0  0999 V2000
  -38.4571   59.7071   61.3423 C   0  0  0  0  0  0  0  0  0  0  0  0
  -37.6873   58.5812   61.8330 N   0  0  0  0  0  0  0  0  0  0  0  0
  -37.3023   56.8153   63.2045 O   0  0  0  0  0  0  0  0  0  0  0  0
  -37.9973   57.7390   62.8282 C   0  0  0  0  0  0  0  0  0  0  0  0
  -36.8300   58.4144   61.3785 H   0  0  0  0  0  0  0  0  0  0  0  0
  -39.3104   58.0047   63.5026 C   0  0  0  0  0  0  0  0  0  0  0  0
  -38.9854   58.3997   64.9433 C   0  0  0  0  0  0  0  0  0  0  0  0
  -40.0878   59.2979   65.4992 C   0  0  0  0  0  0  0  0  0  0  0  0
  -41.5039   58.8241   65.2782 C   0  0  0  0  0  0  0  0  0  0  0  0
  -42.2305   58.9033   66.6167 C   0  0  0  0  0  0  0  0  0  0  0  0
  -43.7560   58.9627   66.4609 C   0  0  0  0  0  0  0  0  0  0  0  0
  -44.2686   58.5121   65.0808 C   0  0  0  0  0  0  0  0  0  0  0  0
  -45.8065   58.3815   65.0247 C   0  0  0  0  0  0  0  0  0  0  0  0
  -46.4736   59.7320   65.3008 C   0  0  0  0  0  0  0  0  0  0  0  0
  -47.9849   59.6784   65.4886 C   0  0  0  0  0  0  0  0  0  0  0  0
  -48.5250   58.2576   65.4214 C   0  0  0  0  0  0  0  0  0  0  0  0
  -50.0452   58.1221   65.3084 C   0  0  0  0  0  0  0  0  0  0  0  0
  -50.6128   59.4702   64.8850 C   0  0  0  0  0  0  0  0  0  0  0  0
  -51.2270   59.6002   63.4991 C   0  0  0  0  0  0  0  0  0  0  0  0
  -51.0541   58.3007   62.6969 C   0  0  0  0  0  0  0  0  0  0  0  0
  -50.0687   58.4043   61.5182 C   0  0  0  0  0  0  0  0  0  0  0  0
  -49.6605   59.8400   61.1964 C   0  0  0  0  0  0  0  0  0  0  0  0
  -39.2636   60.1683   59.2133 O   0  0  0  0  0  0  0  0  0  0  0  0
  -38.0825   59.7481   59.8708 C   0  0  0  0  0  0  0  0  0  0  0  0
  -39.5100   61.0531   59.5255 H   0  0  0  0  0  0  0  0  0  0  0  0
  -37.6375   58.3541   59.4219 C   0  0  0  0  0  0  0  0  0  0  0  0
  -37.1171   58.1077   58.2076 C   0  0  0  0  0  0  0  0  0  0  0  0
  -36.6974   56.6872   57.8343 C   0  0  0  0  0  0  0  0  0  0  0  0
  -35.2591   56.3364   58.2423 C   0  0  0  0  0  0  0  0  0  0  0  0
  -35.1168   55.4830   59.5161 C   0  0  0  0  0  0  0  0  0  0  0  0
  -34.0187   56.0581   60.4428 C   0  0  0  0  0  0  0  0  0  0  0  0
  -34.3093   57.4675   61.0177 C   0  0  0  0  0  0  0  0  0  0  0  0
  -34.0499   57.5976   62.5372 C   0  0  0  0  0  0  0  0  0  0  0  0
  -32.6163   58.0558   62.8818 C   0  0  0  0  0  0  0  0  0  0  0  0
  -32.0613   59.1193   61.9268 C   0  0  0  0  0  0  0  0  0  0  0  0
  -30.7080   59.7189   62.3031 C   0  0  0  0  0  0  0  0  0  0  0  0
  -30.2609   60.8773   61.3897 C   0  0  0  0  0  0  0  0  0  0  0  0
  -29.5245   62.0237   62.0992 C   0  0  0  0  0  0  0  0  0  0  0  0
  -30.5123   62.9645   62.7952 C   0  0  0  0  0  0  0  0  0  0  0  0
  -31.8306   63.2068   62.0820 C   0  0  0  0  0  0  0  0  0  0  0  0
  -38.2999   61.0202   62.1423 C   0  0  0  0  0  0  0  0  0  0  0  0
  -37.0378   61.7199   61.9980 O   0  0  0  0  0  0  0  0  0  0  0  0
  -35.0890   63.8093   62.1158 O   0  0  0  0  0  0  0  0  0  0  0  0
  -36.6144   64.3016   65.9668 O   0  0  0  0  0  0  0  0  0  0  0  0
  -36.8656   61.7145   64.4180 O   0  0  0  0  0  0  0  0  0  0  0  0
  -36.2038   62.0443   63.1725 C   0  0  0  0  0  0  0  0  0  0  0  0
  -35.7583   63.5079   63.3013 C   0  0  0  0  0  0  0  0  0  0  0  0
  -34.7938   63.7614   64.4807 C   0  0  0  0  0  0  0  0  0  0  0  0
  -35.5469   63.3877   65.7274 C   0  0  0  0  0  0  0  0  0  0  0  0
  -36.0684   61.9672   65.6063 C   0  0  0  0  0  0  0  0  0  0  0  0
  -35.6805   63.6558   61.3626 H   0  0  0  0  0  0  0  0  0  0  0  0
  -36.2593   65.2013   66.0407 H   0  0  0  0  0  0  0  0  0  0  0  0
  -36.1085   62.4950   67.9373 O   0  0  0  0  0  0  0  0  0  0  0  0
  -36.7929   61.7980   66.9399 C   0  0  0  0  0  0  0  0  0  0  0  0
  -36.5706   62.3860   68.7831 H   0  0  0  0  0  0  0  0  0  0  0  0
  -34.3637   65.1291   64.6658 O   0  0  0  0  0  0  0  0  0  0  0  0
  -32.9354   66.6195   66.2329 O   0  0  0  0  0  0  0  0  0  0  0  0
  -32.1037   66.0660   64.0213 O   0  0  0  0  0  0  0  0  0  0  0  0
  -32.0797   64.4031   65.7844 O   0  0  0  0  0  0  0  0  0  0  0  0
  -32.8430   65.5433   65.2023 S   0  0  0  0  0  0  0  0  0  0  0  0
  -33.4299   67.3716   65.8715 H   0  0  0  0  0  0  0  0  0  0  0  0
  -32.5550   64.0559   66.5554 H   0  0  0  0  0  0  0  0  0  0  0  0
  2  1  1  0  0  0
  2  4  1  0  0  0
  2  5  1  0  0  0
 41 42  1  0  0  0
 41  1  1  0  0  0
 42 46  1  0  0  0
  1 24  1  0  0  0
 23 24  1  0  0  0
 23 25  1  0  0  0
 24 26  1  0  0  0
  3  4  2  0  0  0
 26 27  2  0  0  0
 27 28  1  0  0  0
 43 47  1  0  0  0
 43 51  1  0  0  0
 28 29  1  0  0  0
 56 48  1  0  0  0
 56 60  1  0  0  0
 29 30  1  0  0  0
 57 60  1  0  0  0
 57 61  1  0  0  0
 30 31  1  0  0  0
 44 49  1  0  0  0
 44 52  1  0  0  0
 31 32  1  0  0  0
 45 46  1  0  0  0
 45 50  1  0  0  0
 32 33  1  0  0  0
 53 54  1  0  0  0
 53 55  1  0  0  0
 33 34  1  0  0  0
 34 35  1  0  0  0
 35 36  1  0  0  0
 58 60  1  0  0  0
 36 37  1  0  0  0
 59 60  1  0  0  0
 59 62  1  0  0  0
 37 38  1  0  0  0
 38 39  1  0  0  0
 39 40  1  0  0  0
  4  6  1  0  0  0
  6  7  1  0  0  0
  7  8  1  0  0  0
  8  9  1  0  0  0
  9 10  1  0  0  0
 10 11  1  0  0  0
 11 12  1  0  0  0
 12 13  1  0  0  0
 13 14  1  0  0  0
 14 15  1  0  0  0
 15 16  1  0  0  0
 16 17  1  0  0  0
 17 18  1  0  0  0
 18 19  1  0  0  0
 19 20  1  0  0  0
 20 21  1  0  0  0
 21 22  1  0  0  0
 46 47  1  0  0  0
 47 48  1  0  0  0
 48 49  1  0  0  0
 49 50  1  0  0  0
 50 54  1  0  0  0
M  CHG 1  58  -1
M  END
> <minimizedAffinity>
-9.59378

> <CNNscore>
0.2580488324

> <CNNaffinity>
6.9618744850

> <CNN_VS>
1.7965035439

> <CNNaffinity_variance>
1.7175842524

$$$$
/media/chris/experiments/cd1a-new-docking/inputs/ligands/1onq_ligand.pdb


 62 62  0  0  0  0  0  0  0  0999 V2000
  -37.5110   59.4016   62.8538 C   0  0  0  0  0  0  0  0  0  0  0  0
  -36.9955   58.2461   63.5612 N   0  0  0  0  0  0  0  0  0  0  0  0
  -36.9008   56.7946   65.3024 O   0  0  0  0  0  0  0  0  0  0  0  0
  -37.3812   57.7658   64.7512 C   0  0  0  0  0  0  0  0  0  0  0  0
  -36.2719   57.7528   63.1113 H   0  0  0  0  0  0  0  0  0  0  0  0
  -38.4897   58.5262   65.4168 C   0  0  0  0  0  0  0  0  0  0  0  0
  -39.7974   57.9124   64.9164 C   0  0  0  0  0  0  0  0  0  0  0  0
  -40.6889   58.9990   64.3201 C   0  0  0  0  0  0  0  0  0  0  0  0
  -41.4238   59.8710   65.3091 C   0  0  0  0  0  0  0  0  0  0  0  0
  -42.0874   58.9523   66.3295 C   0  0  0  0  0  0  0  0  0  0  0  0
  -43.6189   59.0446   66.3030 C   0  0  0  0  0  0  0  0  0  0  0  0
  -44.2680   58.4275   65.0507 C   0  0  0  0  0  0  0  0  0  0  0  0
  -44.8342   57.0129   65.3030 C   0  0  0  0  0  0  0  0  0  0  0  0
  -45.5711   56.9575   66.6443 C   0  0  0  0  0  0  0  0  0  0  0  0
  -47.0743   57.1941   66.5646 C   0  0  0  0  0  0  0  0  0  0  0  0
  -47.4410   58.6550   66.7804 C   0  0  0  0  0  0  0  0  0  0  0  0
  -47.8739   59.4296   65.5334 C   0  0  0  0  0  0  0  0  0  0  0  0
  -48.1569   58.4255   64.4241 C   0  0  0  0  0  0  0  0  0  0  0  0
  -49.5937   58.2362   63.9608 C   0  0  0  0  0  0  0  0  0  0  0  0
  -50.5766   58.9227   64.9224 C   0  0  0  0  0  0  0  0  0  0  0  0
  -51.2781   60.1636   64.3400 C   0  0  0  0  0  0  0  0  0  0  0  0
  -52.1183   59.8574   63.1024 C   0  0  0  0  0  0  0  0  0  0  0  0
  -36.7712   59.0981   60.6729 O   0  0  0  0  0  0  0  0  0  0  0  0
  -37.8855   58.8214   61.5008 C   0  0  0  0  0  0  0  0  0  0  0  0
  -35.9862   58.6523   61.0277 H   0  0  0  0  0  0  0  0  0  0  0  0
  -39.1619   59.4977   60.9950 C   0  0  0  0  0  0  0  0  0  0  0  0
  -39.3756   59.7811   59.6988 C   0  0  0  0  0  0  0  0  0  0  0  0
  -40.6767   60.4590   59.2732 C   0  0  0  0  0  0  0  0  0  0  0  0
  -41.7348   59.4878   58.7298 C   0  0  0  0  0  0  0  0  0  0  0  0
  -41.7701   59.3289   57.1986 C   0  0  0  0  0  0  0  0  0  0  0  0
  -43.1018   58.6846   56.7437 C   0  0  0  0  0  0  0  0  0  0  0  0
  -44.0515   58.2497   57.8885 C   0  0  0  0  0  0  0  0  0  0  0  0
  -45.5537   58.3168   57.5252 C   0  0  0  0  0  0  0  0  0  0  0  0
  -46.4886   57.9213   58.6885 C   0  0  0  0  0  0  0  0  0  0  0  0
  -46.8988   56.4439   58.6765 C   0  0  0  0  0  0  0  0  0  0  0  0
  -48.1525   56.1018   57.8743 C   0  0  0  0  0  0  0  0  0  0  0  0
  -49.4455   56.7228   58.4387 C   0  0  0  0  0  0  0  0  0  0  0  0
  -49.6460   56.5549   59.9525 C   0  0  0  0  0  0  0  0  0  0  0  0
  -50.3418   57.7792   60.5543 C   0  0  0  0  0  0  0  0  0  0  0  0
  -49.5159   59.0504   60.6407 C   0  0  0  0  0  0  0  0  0  0  0  0
  -36.5937   60.6455   62.8532 C   0  0  0  0  0  0  0  0  0  0  0  0
  -35.1970   60.4212   63.1725 O   0  0  0  0  0  0  0  0  0  0  0  0
  -33.1774   62.1605   62.1364 O   0  0  0  0  0  0  0  0  0  0  0  0
  -34.9194   64.8915   64.7644 O   0  0  0  0  0  0  0  0  0  0  0  0
  -35.1765   61.8954   65.0991 O   0  0  0  0  0  0  0  0  0  0  0  0
  -34.4257   61.4005   63.9637 C   0  0  0  0  0  0  0  0  0  0  0  0
  -33.9309   62.6412   63.2066 C   0  0  0  0  0  0  0  0  0  0  0  0
  -33.0325   63.5682   64.0546 C   0  0  0  0  0  0  0  0  0  0  0  0
  -33.8764   64.0285   65.2111 C   0  0  0  0  0  0  0  0  0  0  0  0
  -34.4457   62.8261   65.9423 C   0  0  0  0  0  0  0  0  0  0  0  0
  -33.7264   61.5752   61.5916 H   0  0  0  0  0  0  0  0  0  0  0  0
  -34.5338   65.6515   64.3008 H   0  0  0  0  0  0  0  0  0  0  0  0
  -34.4668   64.4484   67.6977 O   0  0  0  0  0  0  0  0  0  0  0  0
  -35.2583   63.5017   67.0448 C   0  0  0  0  0  0  0  0  0  0  0  0
  -34.9851   64.8759   68.3974 H   0  0  0  0  0  0  0  0  0  0  0  0
  -32.5605   64.7672   63.3993 O   0  0  0  0  0  0  0  0  0  0  0  0
  -29.9976   64.3824   63.4139 O   0  0  0  0  0  0  0  0  0  0  0  0
  -30.9175   66.2722   62.2008 O   0  0  0  0  0  0  0  0  0  0  0  0
  -31.1247   64.0300   61.3041 O   0  0  0  0  0  0  0  0  0  0  0  0
  -31.1281   64.8420   62.5539 S   0  0  0  0  0  0  0  0  0  0  0  0
  -29.9836   64.9006   64.2337 H   0  0  0  0  0  0  0  0  0  0  0  0
  -31.2615   63.0955   61.5252 H   0  0  0  0  0  0  0  0  0  0  0  0
  2  1  1  0  0  0
  2  4  1  0  0  0
  2  5  1  0  0  0
 41 42  1  0  0  0
 41  1  1  0  0  0
 42 46  1  0  0  0
  1 24  1  0  0  0
 23 24  1  0  0  0
 23 25  1  0  0  0
 24 26  1  0  0  0
  3  4  2  0  0  0
 26 27  2  0  0  0
 27 28  1  0  0  0
 43 47  1  0  0  0
 43 51  1  0  0  0
 28 29  1  0  0  0
 56 48  1  0  0  0
 56 60  1  0  0  0
 29 30  1  0  0  0
 57 60  1  0  0  0
 57 61  1  0  0  0
 30 31  1  0  0  0
 44 49  1  0  0  0
 44 52  1  0  0  0
 31 32  1  0  0  0
 45 46  1  0  0  0
 45 50  1  0  0  0
 32 33  1  0  0  0
 53 54  1  0  0  0
 53 55  1  0  0  0
 33 34  1  0  0  0
 34 35  1  0  0  0
 35 36  1  0  0  0
 58 60  1  0  0  0
 36 37  1  0  0  0
 59 60  1  0  0  0
 59 62  1  0  0  0
 37 38  1  0  0  0
 38 39  1  0  0  0
 39 40  1  0  0  0
  4  6  1  0  0  0
  6  7  1  0  0  0
  7  8  1  0  0  0
  8  9  1  0  0  0
  9 10  1  0  0  0
 10 11  1  0  0  0
 11 12  1  0  0  0
 12 13  1  0  0  0
 13 14  1  0  0  0
 14 15  1  0  0  0
 15 16  1  0  0  0
 16 17  1  0  0  0
 17 18  1  0  0  0
 18 19  1  0  0  0
 19 20  1  0  0  0
 20 21  1  0  0  0
 21 22  1  0  0  0
 46 47  1  0  0  0
 47 48  1  0  0  0
 48 49  1  0  0  0
 49 50  1  0  0  0
 50 54  1  0  0  0
M  CHG 1  58  -1
M  END
> <minimizedAffinity>
-8.74468

> <CNNscore>
0.2399143875

> <CNNaffinity>
6.7877554893

> <CNN_VS>
1.6284801960

> <CNNaffinity_variance>
0.9460400343

$$$$
/media/chris/experiments/cd1a-new-docking/inputs/ligands/1onq_ligand.pdb


 62 62  0  0  0  0  0  0  0  0999 V2000
  -39.8082   58.9688   65.1815 C   0  0  0  0  0  0  0  0  0  0  0  0
  -39.6864   58.3053   63.8985 N   0  0  0  0  0  0  0  0  0  0  0  0
  -38.6196   57.0321   62.3530 O   0  0  0  0  0  0  0  0  0  0  0  0
  -38.6706   57.5557   63.4489 C   0  0  0  0  0  0  0  0  0  0  0  0
  -40.4443   58.4195   63.2805 H   0  0  0  0  0  0  0  0  0  0  0  0
  -37.5296   57.3871   64.4077 C   0  0  0  0  0  0  0  0  0  0  0  0
  -36.2530   57.6731   63.6164 C   0  0  0  0  0  0  0  0  0  0  0  0
  -35.1151   58.0246   64.5717 C   0  0  0  0  0  0  0  0  0  0  0  0
  -34.0465   58.9387   64.0229 C   0  0  0  0  0  0  0  0  0  0  0  0
  -33.8802   58.6161   62.5417 C   0  0  0  0  0  0  0  0  0  0  0  0
  -32.5778   57.8621   62.2415 C   0  0  0  0  0  0  0  0  0  0  0  0
  -32.7822   56.4771   61.6010 C   0  0  0  0  0  0  0  0  0  0  0  0
  -34.2568   56.1950   61.2384 C   0  0  0  0  0  0  0  0  0  0  0  0
  -34.3547   55.4985   59.8781 C   0  0  0  0  0  0  0  0  0  0  0  0
  -33.7404   56.2668   58.7144 C   0  0  0  0  0  0  0  0  0  0  0  0
  -34.7617   57.1315   57.9902 C   0  0  0  0  0  0  0  0  0  0  0  0
  -36.1511   56.5169   57.8058 C   0  0  0  0  0  0  0  0  0  0  0  0
  -37.1834   57.6298   57.9272 C   0  0  0  0  0  0  0  0  0  0  0  0
  -37.2498   58.4249   59.2227 C   0  0  0  0  0  0  0  0  0  0  0  0
  -38.5395   59.2580   59.2912 C   0  0  0  0  0  0  0  0  0  0  0  0
  -38.7511   59.9988   60.6245 C   0  0  0  0  0  0  0  0  0  0  0  0
  -40.2224   60.2353   60.9572 C   0  0  0  0  0  0  0  0  0  0  0  0
  -40.9003   60.9123   65.8342 O   0  0  0  0  0  0  0  0  0  0  0  0
  -41.0885   59.7701   65.0195 C   0  0  0  0  0  0  0  0  0  0  0  0
  -40.1394   61.4190   65.5097 H   0  0  0  0  0  0  0  0  0  0  0  0
  -42.2779   58.9237   65.4790 C   0  0  0  0  0  0  0  0  0  0  0  0
  -43.5476   59.1969   65.1333 C   0  0  0  0  0  0  0  0  0  0  0  0
  -44.6810   58.3035   65.6341 C   0  0  0  0  0  0  0  0  0  0  0  0
  -45.6665   57.8759   64.5369 C   0  0  0  0  0  0  0  0  0  0  0  0
  -47.1506   57.8503   64.9469 C   0  0  0  0  0  0  0  0  0  0  0  0
  -48.0483   58.3571   63.7925 C   0  0  0  0  0  0  0  0  0  0  0  0
  -47.7282   57.7651   62.3965 C   0  0  0  0  0  0  0  0  0  0  0  0
  -48.9718   57.5354   61.5057 C   0  0  0  0  0  0  0  0  0  0  0  0
  -49.3112   58.7369   60.5975 C   0  0  0  0  0  0  0  0  0  0  0  0
  -50.4281   59.6316   61.1483 C   0  0  0  0  0  0  0  0  0  0  0  0
  -51.1799   59.0949   62.3645 C   0  0  0  0  0  0  0  0  0  0  0  0
  -51.9050   60.1820   63.1819 C   0  0  0  0  0  0  0  0  0  0  0  0
  -51.8654   59.9910   64.7058 C   0  0  0  0  0  0  0  0  0  0  0  0
  -50.5136   59.4285   65.1545 C   0  0  0  0  0  0  0  0  0  0  0  0
  -50.5555   58.1924   66.0353 C   0  0  0  0  0  0  0  0  0  0  0  0
  -38.5544   59.7391   65.6542 C   0  0  0  0  0  0  0  0  0  0  0  0
  -38.1411   60.8662   64.8407 O   0  0  0  0  0  0  0  0  0  0  0  0
  -36.2745   61.4968   62.7681 O   0  0  0  0  0  0  0  0  0  0  0  0
  -35.7323   64.9598   65.0293 O   0  0  0  0  0  0  0  0  0  0  0  0
  -36.8264   62.3908   66.1946 O   0  0  0  0  0  0  0  0  0  0  0  0
  -36.8300   61.5150   65.0410 C   0  0  0  0  0  0  0  0  0  0  0  0
  -36.3050   62.3541   63.8673 C   0  0  0  0  0  0  0  0  0  0  0  0
  -34.8807   62.9089   64.0894 C   0  0  0  0  0  0  0  0  0  0  0  0
  -34.9588   63.7940   65.3025 C   0  0  0  0  0  0  0  0  0  0  0  0
  -35.5445   63.0177   66.4681 C   0  0  0  0  0  0  0  0  0  0  0  0
  -37.1623   61.1381   62.6132 H   0  0  0  0  0  0  0  0  0  0  0  0
  -35.3410   65.4398   64.2826 H   0  0  0  0  0  0  0  0  0  0  0  0
  -34.2641   64.6169   67.6998 O   0  0  0  0  0  0  0  0  0  0  0  0
  -35.5454   64.0790   67.5662 C   0  0  0  0  0  0  0  0  0  0  0  0
  -34.2674   65.2906   68.3977 H   0  0  0  0  0  0  0  0  0  0  0  0
  -34.3470   63.7303   63.0263 O   0  0  0  0  0  0  0  0  0  0  0  0
  -32.5088   63.0790   61.3192 O   0  0  0  0  0  0  0  0  0  0  0  0
  -32.0109   63.0244   63.6937 O   0  0  0  0  0  0  0  0  0  0  0  0
  -32.1678   65.1443   62.5293 O   0  0  0  0  0  0  0  0  0  0  0  0
  -32.7316   63.7678   62.6249 S   0  0  0  0  0  0  0  0  0  0  0  0
  -32.8699   62.1798   61.3623 H   0  0  0  0  0  0  0  0  0  0  0  0
  -32.6323   65.6364   61.8343 H   0  0  0  0  0  0  0  0  0  0  0  0
  2  1  1  0  0  0
  2  4  1  0  0  0
  2  5  1  0  0  0
 41 42  1  0  0  0
 41  1  1  0  0  0
 42 46  1  0  0  0
  1 24  1  0  0  0
 23 24  1  0  0  0
 23 25  1  0  0  0
 24 26  1  0  0  0
  3  4  2  0  0  0
 26 27  2  0  0  0
 27 28  1  0  0  0
 43 47  1  0  0  0
 43 51  1  0  0  0
 28 29  1  0  0  0
 56 48  1  0  0  0
 56 60  1  0  0  0
 29 30  1  0  0  0
 57 60  1  0  0  0
 57 61  1  0  0  0
 30 31  1  0  0  0
 44 49  1  0  0  0
 44 52  1  0  0  0
 31 32  1  0  0  0
 45 46  1  0  0  0
 45 50  1  0  0  0
 32 33  1  0  0  0
 53 54  1  0  0  0
 53 55  1  0  0  0
 33 34  1  0  0  0
 34 35  1  0  0  0
 35 36  1  0  0  0
 58 60  1  0  0  0
 36 37  1  0  0  0
 59 60  1  0  0  0
 59 62  1  0  0  0
 37 38  1  0  0  0
 38 39  1  0  0  0
 39 40  1  0  0  0
  4  6  1  0  0  0
  6  7  1  0  0  0
  7  8  1  0  0  0
  8  9  1  0  0  0
  9 10  1  0  0  0
 10 11  1  0  0  0
 11 12  1  0  0  0
 12 13  1  0  0  0
 13 14  1  0  0  0
 14 15  1  0  0  0
 15 16  1  0  0  0
 16 17  1  0  0  0
 17 18  1  0  0  0
 18 19  1  0  0  0
 19 20  1  0  0  0
 20 21  1  0  0  0
 21 22  1  0  0  0
 46 47  1  0  0  0
 47 48  1  0  0  0
 48 49  1  0  0  0
 49 50  1  0  0  0
 50 54  1  0  0  0
M  CHG 1  58  -1
M  END
> <minimizedAffinity>
-8.92316

> <CNNscore>
0.2274539471

> <CNNaffinity>
7.0142412186

> <CNN_VS>
1.5954169035

> <CNNaffinity_variance>
1.4169118404

$$$$
/media/chris/experiments/cd1a-new-docking/inputs/ligands/1onq_ligand.pdb


 62 62  0  0  0  0  0  0  0  0999 V2000
  -38.2338   60.5021   62.9587 C   0  0  0  0  0  0  0  0  0  0  0  0
  -37.6789   59.2217   63.3509 N   0  0  0  0  0  0  0  0  0  0  0  0
  -37.3922   57.4682   64.7617 O   0  0  0  0  0  0  0  0  0  0  0  0
  -37.8983   58.5375   64.4820 C   0  0  0  0  0  0  0  0  0  0  0  0
  -37.0644   58.8026   62.7059 H   0  0  0  0  0  0  0  0  0  0  0  0
  -38.8431   59.1887   65.4480 C   0  0  0  0  0  0  0  0  0  0  0  0
  -40.2005   58.5145   65.2473 C   0  0  0  0  0  0  0  0  0  0  0  0
  -41.3135   59.4146   65.7787 C   0  0  0  0  0  0  0  0  0  0  0  0
  -42.7158   59.0614   65.3459 C   0  0  0  0  0  0  0  0  0  0  0  0
  -43.4237   58.4357   66.5431 C   0  0  0  0  0  0  0  0  0  0  0  0
  -44.9275   58.2404   66.3074 C   0  0  0  0  0  0  0  0  0  0  0  0
  -45.5093   56.9706   66.9550 C   0  0  0  0  0  0  0  0  0  0  0  0
  -46.9449   56.6576   66.4791 C   0  0  0  0  0  0  0  0  0  0  0  0
  -47.5031   57.8166   65.6482 C   0  0  0  0  0  0  0  0  0  0  0  0
  -49.0201   57.8359   65.5055 C   0  0  0  0  0  0  0  0  0  0  0  0
  -49.4640   58.2805   64.1198 C   0  0  0  0  0  0  0  0  0  0  0  0
  -50.7805   59.0582   64.0541 C   0  0  0  0  0  0  0  0  0  0  0  0
  -51.1810   59.1926   62.5911 C   0  0  0  0  0  0  0  0  0  0  0  0
  -50.1666   59.7539   61.6057 C   0  0  0  0  0  0  0  0  0  0  0  0
  -49.6139   58.6463   60.6948 C   0  0  0  0  0  0  0  0  0  0  0  0
  -50.4524   57.3549   60.6788 C   0  0  0  0  0  0  0  0  0  0  0  0
  -49.6521   56.1201   60.2709 C   0  0  0  0  0  0  0  0  0  0  0  0
  -40.2827   59.8618   62.0711 O   0  0  0  0  0  0  0  0  0  0  0  0
  -38.9605   60.1665   61.6677 C   0  0  0  0  0  0  0  0  0  0  0  0
  -40.6800   60.6404   62.4916 H   0  0  0  0  0  0  0  0  0  0  0  0
  -38.2741   58.9757   60.9944 C   0  0  0  0  0  0  0  0  0  0  0  0
  -38.2133   58.8244   59.6604 C   0  0  0  0  0  0  0  0  0  0  0  0
  -37.5102   57.6061   59.0647 C   0  0  0  0  0  0  0  0  0  0  0  0
  -36.4985   57.9498   57.9617 C   0  0  0  0  0  0  0  0  0  0  0  0
  -35.5893   56.7932   57.5072 C   0  0  0  0  0  0  0  0  0  0  0  0
  -34.1429   56.9981   58.0184 C   0  0  0  0  0  0  0  0  0  0  0  0
  -33.6167   55.8976   58.9742 C   0  0  0  0  0  0  0  0  0  0  0  0
  -34.6019   55.5159   60.1041 C   0  0  0  0  0  0  0  0  0  0  0  0
  -34.2492   56.1446   61.4694 C   0  0  0  0  0  0  0  0  0  0  0  0
  -34.7402   57.5883   61.6301 C   0  0  0  0  0  0  0  0  0  0  0  0
  -34.1629   58.3663   62.8107 C   0  0  0  0  0  0  0  0  0  0  0  0
  -32.6222   58.3944   62.8484 C   0  0  0  0  0  0  0  0  0  0  0  0
  -31.9538   59.1852   61.7135 C   0  0  0  0  0  0  0  0  0  0  0  0
  -30.6934   59.8999   62.2093 C   0  0  0  0  0  0  0  0  0  0  0  0
  -30.3687   61.2297   61.5523 C   0  0  0  0  0  0  0  0  0  0  0  0
  -37.2302   61.6767   62.9130 C   0  0  0  0  0  0  0  0  0  0  0  0
  -35.8241   61.3314   62.9957 O   0  0  0  0  0  0  0  0  0  0  0  0
  -33.6271   62.8818   62.0226 O   0  0  0  0  0  0  0  0  0  0  0  0
  -34.8630   65.5361   64.9936 O   0  0  0  0  0  0  0  0  0  0  0  0
  -35.5196   62.5831   65.0515 O   0  0  0  0  0  0  0  0  0  0  0  0
  -34.8923   62.1118   63.8340 C   0  0  0  0  0  0  0  0  0  0  0  0
  -34.2617   63.3463   63.1740 C   0  0  0  0  0  0  0  0  0  0  0  0
  -33.2091   64.0522   64.0568 C   0  0  0  0  0  0  0  0  0  0  0  0
  -33.9324   64.4997   65.2969 C   0  0  0  0  0  0  0  0  0  0  0  0
  -34.6324   63.3156   65.9389 C   0  0  0  0  0  0  0  0  0  0  0  0
  -34.2741   62.4347   61.4549 H   0  0  0  0  0  0  0  0  0  0  0  0
  -34.3951   66.2813   64.5850 H   0  0  0  0  0  0  0  0  0  0  0  0
  -36.6762   64.0473   66.9397 O   0  0  0  0  0  0  0  0  0  0  0  0
  -35.2971   63.9767   67.1445 C   0  0  0  0  0  0  0  0  0  0  0  0
  -37.0959   64.4674   67.7066 H   0  0  0  0  0  0  0  0  0  0  0  0
  -32.6027   65.2382   63.4952 O   0  0  0  0  0  0  0  0  0  0  0  0
  -30.1460   64.4536   63.2377 O   0  0  0  0  0  0  0  0  0  0  0  0
  -30.8104   66.6160   62.3592 O   0  0  0  0  0  0  0  0  0  0  0  0
  -31.4510   64.5826   61.2063 O   0  0  0  0  0  0  0  0  0  0  0  0
  -31.2361   65.2022   62.5448 S   0  0  0  0  0  0  0  0  0  0  0  0
  -29.9916   64.8433   64.1124 H   0  0  0  0  0  0  0  0  0  0  0  0
  -31.7290   63.6600   61.3180 H   0  0  0  0  0  0  0  0  0  0  0  0
  2  1  1  0  0  0
  2  4  1  0  0  0
  2  5  1  0  0  0
 41 42  1  0  0  0
 41  1  1  0  0  0
 42 46  1  0  0  0
  1 24  1  0  0  0
 23 24  1  0  0  0
 23 25  1  0  0  0
 24 26  1  0  0  0
  3  4  2  0  0  0
 26 27  2  0  0  0
 27 28  1  0  0  0
 43 47  1  0  0  0
 43 51  1  0  0  0
 28 29  1  0  0  0
 56 48  1  0  0  0
 56 60  1  0  0  0
 29 30  1  0  0  0
 57 60  1  0  0  0
 57 61  1  0  0  0
 30 31  1  0  0  0
 44 49  1  0  0  0
 44 52  1  0  0  0
 31 32  1  0  0  0
 45 46  1  0  0  0
 45 50  1  0  0  0
 32 33  1  0  0  0
 53 54  1  0  0  0
 53 55  1  0  0  0
 33 34  1  0  0  0
 34 35  1  0  0  0
 35 36  1  0  0  0
 58 60  1  0  0  0
 36 37  1  0  0  0
 59 60  1  0  0  0
 59 62  1  0  0  0
 37 38  1  0  0  0
 38 39  1  0  0  0
 39 40  1  0  0  0
  4  6  1  0  0  0
  6  7  1  0  0  0
  7  8  1  0  0  0
  8  9  1  0  0  0
  9 10  1  0  0  0
 10 11  1  0  0  0
 11 12  1  0  0  0
 12 13  1  0  0  0
 13 14  1  0  0  0
 14 15  1  0  0  0
 15 16  1  0  0  0
 16 17  1  0  0  0
 17 18  1  0  0  0
 18 19  1  0  0  0
 19 20  1  0  0  0
 20 21  1  0  0  0
 21 22  1  0  0  0
 46 47  1  0  0  0
 47 48  1  0  0  0
 48 49  1  0  0  0
 49 50  1  0  0  0
 50 54  1  0  0  0
M  CHG 1  58  -1
M  END
> <minimizedAffinity>
-9.42947

> <CNNscore>
0.2269697934

> <CNNaffinity>
6.8239593506

> <CNN_VS>
1.5488326550

> <CNNaffinity_variance>
1.2394502163

$$$$
/media/chris/experiments/cd1a-new-docking/inputs/ligands/1onq_ligand.pdb


 62 62  0  0  0  0  0  0  0  0999 V2000
  -36.6089   60.2319   64.3624 C   0  0  0  0  0  0  0  0  0  0  0  0
  -36.5174   59.0670   63.5047 N   0  0  0  0  0  0  0  0  0  0  0  0
  -36.9693   56.9211   62.9228 O   0  0  0  0  0  0  0  0  0  0  0  0
  -37.0930   57.8688   63.6741 C   0  0  0  0  0  0  0  0  0  0  0  0
  -35.9635   59.1688   62.6971 H   0  0  0  0  0  0  0  0  0  0  0  0
  -37.9390   57.7362   64.9056 C   0  0  0  0  0  0  0  0  0  0  0  0
  -39.3940   57.7949   64.4400 C   0  0  0  0  0  0  0  0  0  0  0  0
  -40.2254   58.6086   65.4288 C   0  0  0  0  0  0  0  0  0  0  0  0
  -41.6590   58.8687   65.0339 C   0  0  0  0  0  0  0  0  0  0  0  0
  -42.5471   58.0196   65.9372 C   0  0  0  0  0  0  0  0  0  0  0  0
  -43.4396   58.8652   66.8557 C   0  0  0  0  0  0  0  0  0  0  0  0
  -44.9471   58.5985   66.6927 C   0  0  0  0  0  0  0  0  0  0  0  0
  -45.5087   59.1249   65.3537 C   0  0  0  0  0  0  0  0  0  0  0  0
  -46.4688   58.1061   64.7330 C   0  0  0  0  0  0  0  0  0  0  0  0
  -47.8965   58.6015   64.5372 C   0  0  0  0  0  0  0  0  0  0  0  0
  -48.8413   58.0780   65.6090 C   0  0  0  0  0  0  0  0  0  0  0  0
  -50.3360   58.1968   65.3023 C   0  0  0  0  0  0  0  0  0  0  0  0
  -50.5847   59.5589   64.6685 C   0  0  0  0  0  0  0  0  0  0  0  0
  -51.4490   59.6349   63.4186 C   0  0  0  0  0  0  0  0  0  0  0  0
  -50.9829   58.6176   62.3651 C   0  0  0  0  0  0  0  0  0  0  0  0
  -49.9020   59.1443   61.4031 C   0  0  0  0  0  0  0  0  0  0  0  0
  -49.2951   58.0551   60.5218 C   0  0  0  0  0  0  0  0  0  0  0  0
  -38.6804   61.2830   64.3607 O   0  0  0  0  0  0  0  0  0  0  0  0
  -37.5143   61.1575   63.5681 C   0  0  0  0  0  0  0  0  0  0  0  0
  -38.4500   61.6835   65.2136 H   0  0  0  0  0  0  0  0  0  0  0  0
  -37.8092   60.5301   62.2036 C   0  0  0  0  0  0  0  0  0  0  0  0
  -39.0536   60.3911   61.7156 C   0  0  0  0  0  0  0  0  0  0  0  0
  -39.2656   59.7529   60.3440 C   0  0  0  0  0  0  0  0  0  0  0  0
  -38.2802   58.6184   60.0273 C   0  0  0  0  0  0  0  0  0  0  0  0
  -37.3971   58.8302   58.7838 C   0  0  0  0  0  0  0  0  0  0  0  0
  -37.4132   57.5751   57.8784 C   0  0  0  0  0  0  0  0  0  0  0  0
  -36.1570   56.6728   57.9758 C   0  0  0  0  0  0  0  0  0  0  0  0
  -36.2254   55.6108   59.0985 C   0  0  0  0  0  0  0  0  0  0  0  0
  -34.8799   55.3904   59.8228 C   0  0  0  0  0  0  0  0  0  0  0  0
  -34.1741   56.6911   60.2244 C   0  0  0  0  0  0  0  0  0  0  0  0
  -33.1897   56.5892   61.3876 C   0  0  0  0  0  0  0  0  0  0  0  0
  -33.5718   57.4498   62.6081 C   0  0  0  0  0  0  0  0  0  0  0  0
  -32.5054   58.4609   63.0560 C   0  0  0  0  0  0  0  0  0  0  0  0
  -32.0664   59.3503   61.8891 C   0  0  0  0  0  0  0  0  0  0  0  0
  -30.6891   59.9796   62.0010 C   0  0  0  0  0  0  0  0  0  0  0  0
  -35.2594   60.8133   64.8418 C   0  0  0  0  0  0  0  0  0  0  0  0
  -35.1958   62.2526   65.0070 O   0  0  0  0  0  0  0  0  0  0  0  0
  -33.7217   62.4720   62.5665 O   0  0  0  0  0  0  0  0  0  0  0  0
  -33.1227   66.3819   63.8904 O   0  0  0  0  0  0  0  0  0  0  0  0
  -33.8177   64.1035   65.7561 O   0  0  0  0  0  0  0  0  0  0  0  0
  -33.9258   62.9870   64.8398 C   0  0  0  0  0  0  0  0  0  0  0  0
  -33.6539   63.5565   63.4402 C   0  0  0  0  0  0  0  0  0  0  0  0
  -32.2616   64.2094   63.2957 C   0  0  0  0  0  0  0  0  0  0  0  0
  -32.2256   65.3451   64.2807 C   0  0  0  0  0  0  0  0  0  0  0  0
  -32.5636   64.8321   65.6689 C   0  0  0  0  0  0  0  0  0  0  0  0
  -34.5910   62.0486   62.6435 H   0  0  0  0  0  0  0  0  0  0  0  0
  -32.8890   66.6943   63.0023 H   0  0  0  0  0  0  0  0  0  0  0  0
  -33.1166   65.9256   67.7213 O   0  0  0  0  0  0  0  0  0  0  0  0
  -32.4833   66.1160   66.4918 C   0  0  0  0  0  0  0  0  0  0  0  0
  -33.0642   66.7423   68.2419 H   0  0  0  0  0  0  0  0  0  0  0  0
  -31.9629   64.7875   62.0048 O   0  0  0  0  0  0  0  0  0  0  0  0
  -30.2413   65.4815   60.1960 O   0  0  0  0  0  0  0  0  0  0  0  0
  -29.4641   64.8253   62.3993 O   0  0  0  0  0  0  0  0  0  0  0  0
  -30.5010   66.9907   62.0671 O   0  0  0  0  0  0  0  0  0  0  0  0
  -30.5276   65.5573   61.6593 S   0  0  0  0  0  0  0  0  0  0  0  0
  -30.2544   64.5542   59.9117 H   0  0  0  0  0  0  0  0  0  0  0  0
  -31.1917   67.4757   61.5890 H   0  0  0  0  0  0  0  0  0  0  0  0
  2  1  1  0  0  0
  2  4  1  0  0  0
  2  5  1  0  0  0
 41 42  1  0  0  0
 41  1  1  0  0  0
 42 46  1  0  0  0
  1 24  1  0  0  0
 23 24  1  0  0  0
 23 25  1  0  0  0
 24 26  1  0  0  0
  3  4  2  0  0  0
 26 27  2  0  0  0
 27 28  1  0  0  0
 43 47  1  0  0  0
 43 51  1  0  0  0
 28 29  1  0  0  0
 56 48  1  0  0  0
 56 60  1  0  0  0
 29 30  1  0  0  0
 57 60  1  0  0  0
 57 61  1  0  0  0
 30 31  1  0  0  0
 44 49  1  0  0  0
 44 52  1  0  0  0
 31 32  1  0  0  0
 45 46  1  0  0  0
 45 50  1  0  0  0
 32 33  1  0  0  0
 53 54  1  0  0  0
 53 55  1  0  0  0
 33 34  1  0  0  0
 34 35  1  0  0  0
 35 36  1  0  0  0
 58 60  1  0  0  0
 36 37  1  0  0  0
 59 60  1  0  0  0
 59 62  1  0  0  0
 37 38  1  0  0  0
 38 39  1  0  0  0
 39 40  1  0  0  0
  4  6  1  0  0  0
  6  7  1  0  0  0
  7  8  1  0  0  0
  8  9  1  0  0  0
  9 10  1  0  0  0
 10 11  1  0  0  0
 11 12  1  0  0  0
 12 13  1  0  0  0
 13 14  1  0  0  0
 14 15  1  0  0  0
 15 16  1  0  0  0
 16 17  1  0  0  0
 17 18  1  0  0  0
 18 19  1  0  0  0
 19 20  1  0  0  0
 20 21  1  0  0  0
 21 22  1  0  0  0
 46 47  1  0  0  0
 47 48  1  0  0  0
 48 49  1  0  0  0
 49 50  1  0  0  0
 50 54  1  0  0  0
M  CHG 1  58  -1
M  END
> <minimizedAffinity>
-9.64353

> <CNNscore>
0.2176536322

> <CNNaffinity>
6.6561012268

> <CNN_VS>
1.4487246275

> <CNNaffinity_variance>
1.5634695292

$$$$
/media/chris/experiments/cd1a-new-docking/inputs/ligands/1onq_ligand.pdb


 62 62  0  0  0  0  0  0  0  0999 V2000
  -39.9339   59.5095   64.5089 C   0  0  0  0  0  0  0  0  0  0  0  0
  -40.5188   59.4790   65.8349 N   0  0  0  0  0  0  0  0  0  0  0  0
  -42.2499   59.4483   67.3011 O   0  0  0  0  0  0  0  0  0  0  0  0
  -41.8174   59.4616   66.1650 C   0  0  0  0  0  0  0  0  0  0  0  0
  -39.8828   59.4700   66.5864 H   0  0  0  0  0  0  0  0  0  0  0  0
  -42.7700   59.4678   65.0065 C   0  0  0  0  0  0  0  0  0  0  0  0
  -43.8577   58.4448   65.3345 C   0  0  0  0  0  0  0  0  0  0  0  0
  -45.0357   59.1366   66.0162 C   0  0  0  0  0  0  0  0  0  0  0  0
  -46.1897   59.5179   65.1209 C   0  0  0  0  0  0  0  0  0  0  0  0
  -46.8049   58.2284   64.5876 C   0  0  0  0  0  0  0  0  0  0  0  0
  -47.7990   57.5949   65.5702 C   0  0  0  0  0  0  0  0  0  0  0  0
  -49.0101   58.4844   65.9058 C   0  0  0  0  0  0  0  0  0  0  0  0
  -50.2447   58.1725   65.0318 C   0  0  0  0  0  0  0  0  0  0  0  0
  -50.9328   59.4664   64.5877 C   0  0  0  0  0  0  0  0  0  0  0  0
  -51.4148   59.4773   63.1422 C   0  0  0  0  0  0  0  0  0  0  0  0
  -50.4941   58.6911   62.2207 C   0  0  0  0  0  0  0  0  0  0  0  0
  -51.1480   57.5592   61.4248 C   0  0  0  0  0  0  0  0  0  0  0  0
  -50.3531   57.3591   60.1415 C   0  0  0  0  0  0  0  0  0  0  0  0
  -49.4095   56.1693   60.0460 C   0  0  0  0  0  0  0  0  0  0  0  0
  -48.1756   56.5128   59.1966 C   0  0  0  0  0  0  0  0  0  0  0  0
  -48.4667   56.7078   57.6972 C   0  0  0  0  0  0  0  0  0  0  0  0
  -47.3459   56.1999   56.7932 C   0  0  0  0  0  0  0  0  0  0  0  0
  -38.8967   57.5527   65.2094 O   0  0  0  0  0  0  0  0  0  0  0  0
  -39.7549   58.0347   64.1922 C   0  0  0  0  0  0  0  0  0  0  0  0
  -39.3240   57.6648   66.0730 H   0  0  0  0  0  0  0  0  0  0  0  0
  -39.1382   57.8866   62.7993 C   0  0  0  0  0  0  0  0  0  0  0  0
  -38.1405   57.0279   62.5281 C   0  0  0  0  0  0  0  0  0  0  0  0
  -37.5775   56.9396   61.1108 C   0  0  0  0  0  0  0  0  0  0  0  0
  -37.5513   58.2832   60.3676 C   0  0  0  0  0  0  0  0  0  0  0  0
  -37.3238   58.1994   58.8469 C   0  0  0  0  0  0  0  0  0  0  0  0
  -36.5254   56.9252   58.4803 C   0  0  0  0  0  0  0  0  0  0  0  0
  -35.1014   57.1743   57.9218 C   0  0  0  0  0  0  0  0  0  0  0  0
  -33.9833   56.4191   58.6783 C   0  0  0  0  0  0  0  0  0  0  0  0
  -34.4178   55.9014   60.0665 C   0  0  0  0  0  0  0  0  0  0  0  0
  -33.4785   56.3201   61.2038 C   0  0  0  0  0  0  0  0  0  0  0  0
  -33.5597   57.7820   61.6379 C   0  0  0  0  0  0  0  0  0  0  0  0
  -32.2663   58.3157   62.2847 C   0  0  0  0  0  0  0  0  0  0  0  0
  -32.0283   59.8249   62.1243 C   0  0  0  0  0  0  0  0  0  0  0  0
  -30.6061   60.1080   61.6321 C   0  0  0  0  0  0  0  0  0  0  0  0
  -29.6596   60.7459   62.6336 C   0  0  0  0  0  0  0  0  0  0  0  0
  -38.6923   60.4162   64.3497 C   0  0  0  0  0  0  0  0  0  0  0  0
  -37.4637   59.9459   64.9601 O   0  0  0  0  0  0  0  0  0  0  0  0
  -35.5391   60.4023   62.8950 O   0  0  0  0  0  0  0  0  0  0  0  0
  -35.6930   64.3131   64.3375 O   0  0  0  0  0  0  0  0  0  0  0  0
  -36.5008   61.9161   65.9979 O   0  0  0  0  0  0  0  0  0  0  0  0
  -36.2811   60.8226   65.0739 C   0  0  0  0  0  0  0  0  0  0  0  0
  -35.7851   61.4608   63.7685 C   0  0  0  0  0  0  0  0  0  0  0  0
  -34.4792   62.2696   63.9304 C   0  0  0  0  0  0  0  0  0  0  0  0
  -34.7857   63.3720   64.9061 C   0  0  0  0  0  0  0  0  0  0  0  0
  -35.3499   62.7829   66.1863 C   0  0  0  0  0  0  0  0  0  0  0  0
  -36.3498   59.8821   62.7809 H   0  0  0  0  0  0  0  0  0  0  0  0
  -35.3132   64.6763   63.5221 H   0  0  0  0  0  0  0  0  0  0  0  0
  -34.4553   64.3434   67.7605 O   0  0  0  0  0  0  0  0  0  0  0  0
  -35.5960   64.0424   67.0141 C   0  0  0  0  0  0  0  0  0  0  0  0
  -34.6142   65.1436   68.2853 H   0  0  0  0  0  0  0  0  0  0  0  0
  -33.9814   62.9161   62.7370 O   0  0  0  0  0  0  0  0  0  0  0  0
  -32.1003   64.0314   61.3461 O   0  0  0  0  0  0  0  0  0  0  0  0
  -31.6336   63.2809   63.6062 O   0  0  0  0  0  0  0  0  0  0  0  0
  -32.9327   65.2928   63.2334 O   0  0  0  0  0  0  0  0  0  0  0  0
  -32.6522   63.9187   62.7287 S   0  0  0  0  0  0  0  0  0  0  0  0
  -31.9112   63.1451   61.0003 H   0  0  0  0  0  0  0  0  0  0  0  0
  -33.5964   65.7162   62.6667 H   0  0  0  0  0  0  0  0  0  0  0  0
  2  1  1  0  0  0
  2  4  1  0  0  0
  2  5  1  0  0  0
 41 42  1  0  0  0
 41  1  1  0  0  0
 42 46  1  0  0  0
  1 24  1  0  0  0
 23 24  1  0  0  0
 23 25  1  0  0  0
 24 26  1  0  0  0
  3  4  2  0  0  0
 26 27  2  0  0  0
 27 28  1  0  0  0
 43 47  1  0  0  0
 43 51  1  0  0  0
 28 29  1  0  0  0
 56 48  1  0  0  0
 56 60  1  0  0  0
 29 30  1  0  0  0
 57 60  1  0  0  0
 57 61  1  0  0  0
 30 31  1  0  0  0
 44 49  1  0  0  0
 44 52  1  0  0  0
 31 32  1  0  0  0
 45 46  1  0  0  0
 45 50  1  0  0  0
 32 33  1  0  0  0
 53 54  1  0  0  0
 53 55  1  0  0  0
 33 34  1  0  0  0
 34 35  1  0  0  0
 35 36  1  0  0  0
 58 60  1  0  0  0
 36 37  1  0  0  0
 59 60  1  0  0  0
 59 62  1  0  0  0
 37 38  1  0  0  0
 38 39  1  0  0  0
 39 40  1  0  0  0
  4  6  1  0  0  0
  6  7  1  0  0  0
  7  8  1  0  0  0
  8  9  1  0  0  0
  9 10  1  0  0  0
 10 11  1  0  0  0
 11 12  1  0  0  0
 12 13  1  0  0  0
 13 14  1  0  0  0
 14 15  1  0  0  0
 15 16  1  0  0  0
 16 17  1  0  0  0
 17 18  1  0  0  0
 18 19  1  0  0  0
 19 20  1  0  0  0
 20 21  1  0  0  0
 21 22  1  0  0  0
 46 47  1  0  0  0
 47 48  1  0  0  0
 48 49  1  0  0  0
 49 50  1  0  0  0
 50 54  1  0  0  0
M  CHG 1  58  -1
M  END
> <minimizedAffinity>
-10.23557

> <CNNscore>
0.2071734220

> <CNNaffinity>
6.7194352150

> <CNN_VS>
1.3920884132

> <CNNaffinity_variance>
0.7775511146

$$$$
