/media/chris/experiments/cd1a-new-docking/inputs/ligands/1onq_ligand.pdb


 62 62  0  0  0  0  0  0  0  0999 V2000
  -40.2805   59.1635   64.8594 C   0  0  0  0  0  0  0  0  0  0  0  0
  -39.8333   58.3957   63.7142 N   0  0  0  0  0  0  0  0  0  0  0  0
  -38.4140   57.0063   62.6174 O   0  0  0  0  0  0  0  0  0  0  0  0
  -38.7455   57.6197   63.6132 C   0  0  0  0  0  0  0  0  0  0  0  0
  -40.3992   58.4512   62.9105 H   0  0  0  0  0  0  0  0  0  0  0  0
  -37.9008   57.5418   64.8502 C   0  0  0  0  0  0  0  0  0  0  0  0
  -36.4812   57.2163   64.3858 C   0  0  0  0  0  0  0  0  0  0  0  0
  -35.6604   58.4993   64.2791 C   0  0  0  0  0  0  0  0  0  0  0  0
  -34.1611   58.3268   64.2463 C   0  0  0  0  0  0  0  0  0  0  0  0
  -33.6233   59.1850   63.1061 C   0  0  0  0  0  0  0  0  0  0  0  0
  -32.7277   58.3961   62.1416 C   0  0  0  0  0  0  0  0  0  0  0  0
  -33.1884   56.9483   61.8922 C   0  0  0  0  0  0  0  0  0  0  0  0
  -34.5341   56.8680   61.1382 C   0  0  0  0  0  0  0  0  0  0  0  0
  -34.5638   55.6463   60.2153 C   0  0  0  0  0  0  0  0  0  0  0  0
  -33.8216   55.8171   58.8953 C   0  0  0  0  0  0  0  0  0  0  0  0
  -34.4198   56.9206   58.0353 C   0  0  0  0  0  0  0  0  0  0  0  0
  -35.9278   56.8360   57.7883 C   0  0  0  0  0  0  0  0  0  0  0  0
  -36.5305   58.2097   58.0501 C   0  0  0  0  0  0  0  0  0  0  0  0
  -37.9228   58.2912   58.6585 C   0  0  0  0  0  0  0  0  0  0  0  0
  -38.0381   59.4938   59.6085 C   0  0  0  0  0  0  0  0  0  0  0  0
  -39.4162   60.1808   59.6045 C   0  0  0  0  0  0  0  0  0  0  0  0
  -40.0201   60.3312   60.9989 C   0  0  0  0  0  0  0  0  0  0  0  0
  -41.3642   61.1692   64.4142 O   0  0  0  0  0  0  0  0  0  0  0  0
  -41.5811   59.7714   64.3630 C   0  0  0  0  0  0  0  0  0  0  0  0
  -40.6322   61.4048   63.8231 H   0  0  0  0  0  0  0  0  0  0  0  0
  -42.7274   59.3318   65.2767 C   0  0  0  0  0  0  0  0  0  0  0  0
  -43.9743   59.1050   64.8292 C   0  0  0  0  0  0  0  0  0  0  0  0
  -45.0650   58.6691   65.8057 C   0  0  0  0  0  0  0  0  0  0  0  0
  -46.4702   59.1595   65.4276 C   0  0  0  0  0  0  0  0  0  0  0  0
  -47.5643   58.0768   65.3824 C   0  0  0  0  0  0  0  0  0  0  0  0
  -48.3373   58.1325   64.0427 C   0  0  0  0  0  0  0  0  0  0  0  0
  -48.7790   59.5480   63.5921 C   0  0  0  0  0  0  0  0  0  0  0  0
  -50.0886   59.5709   62.7692 C   0  0  0  0  0  0  0  0  0  0  0  0
  -50.7596   58.1864   62.6378 C   0  0  0  0  0  0  0  0  0  0  0  0
  -50.8407   57.6736   61.1951 C   0  0  0  0  0  0  0  0  0  0  0  0
  -49.6933   56.7763   60.7360 C   0  0  0  0  0  0  0  0  0  0  0  0
  -48.7076   57.4650   59.7716 C   0  0  0  0  0  0  0  0  0  0  0  0
  -47.2485   57.5123   60.2500 C   0  0  0  0  0  0  0  0  0  0  0  0
  -46.2790   57.4104   59.0690 C   0  0  0  0  0  0  0  0  0  0  0  0
  -46.8537   57.7101   57.6959 C   0  0  0  0  0  0  0  0  0  0  0  0
  -39.2373   60.1338   65.4588 C   0  0  0  0  0  0  0  0  0  0  0  0
  -38.6401   61.0886   64.5451 O   0  0  0  0  0  0  0  0  0  0  0  0
  -36.7846   61.3790   62.3886 O   0  0  0  0  0  0  0  0  0  0  0  0
  -35.5521   64.7021   64.5878 O   0  0  0  0  0  0  0  0  0  0  0  0
  -37.0232   62.3657   65.8258 O   0  0  0  0  0  0  0  0  0  0  0  0
  -37.2289   61.5003   64.6828 C   0  0  0  0  0  0  0  0  0  0  0  0
  -36.6180   62.2319   63.4789 C   0  0  0  0  0  0  0  0  0  0  0  0
  -35.1109   62.5315   63.6345 C   0  0  0  0  0  0  0  0  0  0  0  0
  -34.9812   63.4205   64.8404 C   0  0  0  0  0  0  0  0  0  0  0  0
  -35.6412   62.7613   66.0380 C   0  0  0  0  0  0  0  0  0  0  0  0
  -37.7272   61.1794   62.2754 H   0  0  0  0  0  0  0  0  0  0  0  0
  -35.1165   65.1044   63.8202 H   0  0  0  0  0  0  0  0  0  0  0  0
  -36.4788   63.7986   68.0219 O   0  0  0  0  0  0  0  0  0  0  0  0
  -35.4101   63.8100   67.1238 C   0  0  0  0  0  0  0  0  0  0  0  0
  -36.3297   64.4654   68.7104 H   0  0  0  0  0  0  0  0  0  0  0  0
  -34.4897   63.2444   62.5410 O   0  0  0  0  0  0  0  0  0  0  0  0
  -32.3347   63.6963   61.1740 O   0  0  0  0  0  0  0  0  0  0  0  0
  -32.1625   62.7547   63.4040 O   0  0  0  0  0  0  0  0  0  0  0  0
  -32.6938   65.1011   63.1089 O   0  0  0  0  0  0  0  0  0  0  0  0
  -32.8978   63.7319   62.5562 S   0  0  0  0  0  0  0  0  0  0  0  0
  -32.4585   62.8111   60.7972 H   0  0  0  0  0  0  0  0  0  0  0  0
  -33.1702   65.7449   62.5618 H   0  0  0  0  0  0  0  0  0  0  0  0
  2  1  1  0  0  0
  2  4  1  0  0  0
  2  5  1  0  0  0
 41 42  1  0  0  0
 41  1  1  0  0  0
 42 46  1  0  0  0
  1 24  1  0  0  0
 23 24  1  0  0  0
 23 25  1  0  0  0
 24 26  1  0  0  0
  3  4  2  0  0  0
 26 27  2  0  0  0
 27 28  1  0  0  0
 43 47  1  0  0  0
 43 51  1  0  0  0
 28 29  1  0  0  0
 56 48  1  0  0  0
 56 60  1  0  0  0
 29 30  1  0  0  0
 57 60  1  0  0  0
 57 61  1  0  0  0
 30 31  1  0  0  0
 44 49  1  0  0  0
 44 52  1  0  0  0
 31 32  1  0  0  0
 45 46  1  0  0  0
 45 50  1  0  0  0
 32 33  1  0  0  0
 53 54  1  0  0  0
 53 55  1  0  0  0
 33 34  1  0  0  0
 34 35  1  0  0  0
 35 36  1  0  0  0
 58 60  1  0  0  0
 36 37  1  0  0  0
 59 60  1  0  0  0
 59 62  1  0  0  0
 37 38  1  0  0  0
 38 39  1  0  0  0
 39 40  1  0  0  0
  4  6  1  0  0  0
  6  7  1  0  0  0
  7  8  1  0  0  0
  8  9  1  0  0  0
  9 10  1  0  0  0
 10 11  1  0  0  0
 11 12  1  0  0  0
 12 13  1  0  0  0
 13 14  1  0  0  0
 14 15  1  0  0  0
 15 16  1  0  0  0
 16 17  1  0  0  0
 17 18  1  0  0  0
 18 19  1  0  0  0
 19 20  1  0  0  0
 20 21  1  0  0  0
 21 22  1  0  0  0
 46 47  1  0  0  0
 47 48  1  0  0  0
 48 49  1  0  0  0
 49 50  1  0  0  0
 50 54  1  0  0  0
M  CHG 1  58  -1
M  END
> <minimizedAffinity>
-10.06003

> <CNNscore>
0.2616358399

> <CNNaffinity>
7.2215476036

> <CNN_VS>
1.8894156218

> <CNNaffinity_variance>
1.5401151180

$$$$
/media/chris/experiments/cd1a-new-docking/inputs/ligands/1onq_ligand.pdb


 62 62  0  0  0  0  0  0  0  0999 V2000
  -38.1291   59.0429   64.7864 C   0  0  0  0  0  0  0  0  0  0  0  0
  -39.0715   60.0815   64.4201 N   0  0  0  0  0  0  0  0  0  0  0  0
  -41.0860   61.1234   64.4830 O   0  0  0  0  0  0  0  0  0  0  0  0
  -40.3360   60.2343   64.8364 C   0  0  0  0  0  0  0  0  0  0  0  0
  -38.7415   60.7589   63.7865 H   0  0  0  0  0  0  0  0  0  0  0  0
  -40.8175   59.1970   65.8069 C   0  0  0  0  0  0  0  0  0  0  0  0
  -42.1478   59.7067   66.3614 C   0  0  0  0  0  0  0  0  0  0  0  0
  -43.3072   58.9691   65.6960 C   0  0  0  0  0  0  0  0  0  0  0  0
  -43.3447   57.4736   65.8969 C   0  0  0  0  0  0  0  0  0  0  0  0
  -44.7011   57.1234   66.4997 C   0  0  0  0  0  0  0  0  0  0  0  0
  -45.7658   56.8310   65.4340 C   0  0  0  0  0  0  0  0  0  0  0  0
  -47.0018   57.7461   65.5073 C   0  0  0  0  0  0  0  0  0  0  0  0
  -47.4269   58.2927   64.1265 C   0  0  0  0  0  0  0  0  0  0  0  0
  -48.6657   59.1835   64.2565 C   0  0  0  0  0  0  0  0  0  0  0  0
  -49.4256   59.4248   62.9579 C   0  0  0  0  0  0  0  0  0  0  0  0
  -50.6956   58.5915   62.8688 C   0  0  0  0  0  0  0  0  0  0  0  0
  -50.8226   57.6913   61.6376 C   0  0  0  0  0  0  0  0  0  0  0  0
  -49.4355   57.5092   61.0363 C   0  0  0  0  0  0  0  0  0  0  0  0
  -49.2443   57.7751   59.5504 C   0  0  0  0  0  0  0  0  0  0  0  0
  -48.0800   56.9440   58.9885 C   0  0  0  0  0  0  0  0  0  0  0  0
  -48.2221   56.5691   57.5018 C   0  0  0  0  0  0  0  0  0  0  0  0
  -47.6736   55.1824   57.1735 C   0  0  0  0  0  0  0  0  0  0  0  0
  -35.8345   59.1769   65.1219 O   0  0  0  0  0  0  0  0  0  0  0  0
  -36.8288   59.5489   64.1857 C   0  0  0  0  0  0  0  0  0  0  0  0
  -35.8156   58.2108   65.2069 H   0  0  0  0  0  0  0  0  0  0  0  0
  -36.9110   61.0663   64.0041 C   0  0  0  0  0  0  0  0  0  0  0  0
  -35.8448   61.8763   64.1204 C   0  0  0  0  0  0  0  0  0  0  0  0
  -36.0092   63.3823   63.9252 C   0  0  0  0  0  0  0  0  0  0  0  0
  -36.3517   64.1425   65.2147 C   0  0  0  0  0  0  0  0  0  0  0  0
  -35.8125   63.5227   66.5171 C   0  0  0  0  0  0  0  0  0  0  0  0
  -34.3054   63.8301   66.6891 C   0  0  0  0  0  0  0  0  0  0  0  0
  -33.8479   65.2134   66.1610 C   0  0  0  0  0  0  0  0  0  0  0  0
  -32.3261   65.4647   66.2788 C   0  0  0  0  0  0  0  0  0  0  0  0
  -31.4771   64.5506   65.3690 C   0  0  0  0  0  0  0  0  0  0  0  0
  -32.3066   63.7093   64.3916 C   0  0  0  0  0  0  0  0  0  0  0  0
  -31.5351   62.6770   63.5720 C   0  0  0  0  0  0  0  0  0  0  0  0
  -31.6711   62.8597   62.0476 C   0  0  0  0  0  0  0  0  0  0  0  0
  -32.1401   64.2505   61.5940 C   0  0  0  0  0  0  0  0  0  0  0  0
  -30.9501   65.1924   61.3891 C   0  0  0  0  0  0  0  0  0  0  0  0
  -31.0383   66.5487   62.0659 C   0  0  0  0  0  0  0  0  0  0  0  0
  -38.5535   57.6013   64.4253 C   0  0  0  0  0  0  0  0  0  0  0  0
  -38.8397   57.3407   63.0276 O   0  0  0  0  0  0  0  0  0  0  0  0
  -36.5820   56.6338   61.4214 O   0  0  0  0  0  0  0  0  0  0  0  0
  -38.8354   58.4160   58.3974 O   0  0  0  0  0  0  0  0  0  0  0  0
  -39.2482   59.0269   61.3320 O   0  0  0  0  0  0  0  0  0  0  0  0
  -38.2576   58.1761   61.9584 C   0  0  0  0  0  0  0  0  0  0  0  0
  -37.5596   57.4229   60.8168 C   0  0  0  0  0  0  0  0  0  0  0  0
  -36.8696   58.3501   59.7925 C   0  0  0  0  0  0  0  0  0  0  0  0
  -37.9565   59.2025   59.1980 C   0  0  0  0  0  0  0  0  0  0  0  0
  -38.7192   59.9081   60.3047 C   0  0  0  0  0  0  0  0  0  0  0  0
  -36.9978   56.0437   62.0693 H   0  0  0  0  0  0  0  0  0  0  0  0
  -38.3281   57.9750   57.6981 H   0  0  0  0  0  0  0  0  0  0  0  0
  -40.8857   59.8967   59.2948 O   0  0  0  0  0  0  0  0  0  0  0  0
  -39.7567   60.6910   59.5030 C   0  0  0  0  0  0  0  0  0  0  0  0
  -41.5430   60.3962   58.7855 H   0  0  0  0  0  0  0  0  0  0  0  0
  -36.2197   57.6941   58.6802 O   0  0  0  0  0  0  0  0  0  0  0  0
  -33.9914   56.9467   57.5879 O   0  0  0  0  0  0  0  0  0  0  0  0
  -35.2045   55.4007   59.0118 O   0  0  0  0  0  0  0  0  0  0  0  0
  -33.9658   57.2412   59.9878 O   0  0  0  0  0  0  0  0  0  0  0  0
  -34.8085   56.8237   58.8314 S   0  0  0  0  0  0  0  0  0  0  0  0
  -34.5243   56.6788   56.8231 H   0  0  0  0  0  0  0  0  0  0  0  0
  -33.7030   58.1684   59.8782 H   0  0  0  0  0  0  0  0  0  0  0  0
  2  1  1  0  0  0
  2  4  1  0  0  0
  2  5  1  0  0  0
 41 42  1  0  0  0
 41  1  1  0  0  0
 42 46  1  0  0  0
  1 24  1  0  0  0
 23 24  1  0  0  0
 23 25  1  0  0  0
 24 26  1  0  0  0
  3  4  2  0  0  0
 26 27  2  0  0  0
 27 28  1  0  0  0
 43 47  1  0  0  0
 43 51  1  0  0  0
 28 29  1  0  0  0
 56 48  1  0  0  0
 56 60  1  0  0  0
 29 30  1  0  0  0
 57 60  1  0  0  0
 57 61  1  0  0  0
 30 31  1  0  0  0
 44 49  1  0  0  0
 44 52  1  0  0  0
 31 32  1  0  0  0
 45 46  1  0  0  0
 45 50  1  0  0  0
 32 33  1  0  0  0
 53 54  1  0  0  0
 53 55  1  0  0  0
 33 34  1  0  0  0
 34 35  1  0  0  0
 35 36  1  0  0  0
 58 60  1  0  0  0
 36 37  1  0  0  0
 59 60  1  0  0  0
 59 62  1  0  0  0
 37 38  1  0  0  0
 38 39  1  0  0  0
 39 40  1  0  0  0
  4  6  1  0  0  0
  6  7  1  0  0  0
  7  8  1  0  0  0
  8  9  1  0  0  0
  9 10  1  0  0  0
 10 11  1  0  0  0
 11 12  1  0  0  0
 12 13  1  0  0  0
 13 14  1  0  0  0
 14 15  1  0  0  0
 15 16  1  0  0  0
 16 17  1  0  0  0
 17 18  1  0  0  0
 18 19  1  0  0  0
 19 20  1  0  0  0
 20 21  1  0  0  0
 21 22  1  0  0  0
 46 47  1  0  0  0
 47 48  1  0  0  0
 48 49  1  0  0  0
 49 50  1  0  0  0
 50 54  1  0  0  0
M  CHG 1  58  -1
M  END
> <minimizedAffinity>
-8.36032

> <CNNscore>
0.2495286614

> <CNNaffinity>
7.0213646889

> <CNN_VS>
1.7520316839

> <CNNaffinity_variance>
0.9245017767

$$$$
/media/chris/experiments/cd1a-new-docking/inputs/ligands/1onq_ligand.pdb


 62 62  0  0  0  0  0  0  0  0999 V2000
  -40.1225   59.5312   64.8931 C   0  0  0  0  0  0  0  0  0  0  0  0
  -40.8044   59.5295   66.1722 N   0  0  0  0  0  0  0  0  0  0  0  0
  -42.6296   59.3764   67.5112 O   0  0  0  0  0  0  0  0  0  0  0  0
  -42.1113   59.3556   66.4117 C   0  0  0  0  0  0  0  0  0  0  0  0
  -40.2367   59.6741   66.9634 H   0  0  0  0  0  0  0  0  0  0  0  0
  -42.9580   59.1289   65.1946 C   0  0  0  0  0  0  0  0  0  0  0  0
  -44.3460   58.7347   65.6996 C   0  0  0  0  0  0  0  0  0  0  0  0
  -44.5892   57.2483   65.4496 C   0  0  0  0  0  0  0  0  0  0  0  0
  -46.0279   56.7941   65.4985 C   0  0  0  0  0  0  0  0  0  0  0  0
  -46.8833   57.9077   64.9034 C   0  0  0  0  0  0  0  0  0  0  0  0
  -47.9315   58.4412   65.8890 C   0  0  0  0  0  0  0  0  0  0  0  0
  -49.2599   57.6627   65.8820 C   0  0  0  0  0  0  0  0  0  0  0  0
  -50.4887   58.5740   65.6692 C   0  0  0  0  0  0  0  0  0  0  0  0
  -50.1993   59.6291   64.5977 C   0  0  0  0  0  0  0  0  0  0  0  0
  -51.1663   59.6344   63.4200 C   0  0  0  0  0  0  0  0  0  0  0  0
  -50.5396   59.0647   62.1559 C   0  0  0  0  0  0  0  0  0  0  0  0
  -50.8664   57.6022   61.8452 C   0  0  0  0  0  0  0  0  0  0  0  0
  -50.5693   57.3508   60.3730 C   0  0  0  0  0  0  0  0  0  0  0  0
  -49.2343   56.7263   59.9948 C   0  0  0  0  0  0  0  0  0  0  0  0
  -48.8036   57.1613   58.5851 C   0  0  0  0  0  0  0  0  0  0  0  0
  -47.3623   56.7710   58.2089 C   0  0  0  0  0  0  0  0  0  0  0  0
  -47.2486   56.1466   56.8201 C   0  0  0  0  0  0  0  0  0  0  0  0
  -37.9656   58.8629   65.4377 O   0  0  0  0  0  0  0  0  0  0  0  0
  -39.2029   58.3275   65.0066 C   0  0  0  0  0  0  0  0  0  0  0  0
  -38.0801   59.2853   66.3034 H   0  0  0  0  0  0  0  0  0  0  0  0
  -39.0914   57.6443   63.6416 C   0  0  0  0  0  0  0  0  0  0  0  0
  -38.1643   57.9804   62.7284 C   0  0  0  0  0  0  0  0  0  0  0  0
  -38.1187   57.2509   61.3871 C   0  0  0  0  0  0  0  0  0  0  0  0
  -37.1105   57.8427   60.3916 C   0  0  0  0  0  0  0  0  0  0  0  0
  -37.1513   57.2511   58.9705 C   0  0  0  0  0  0  0  0  0  0  0  0
  -35.7256   56.9033   58.4789 C   0  0  0  0  0  0  0  0  0  0  0  0
  -34.6128   57.0030   59.5530 C   0  0  0  0  0  0  0  0  0  0  0  0
  -34.8888   56.1745   60.8298 C   0  0  0  0  0  0  0  0  0  0  0  0
  -34.3960   56.8545   62.1256 C   0  0  0  0  0  0  0  0  0  0  0  0
  -32.8699   56.8676   62.2744 C   0  0  0  0  0  0  0  0  0  0  0  0
  -32.2367   58.2237   62.5788 C   0  0  0  0  0  0  0  0  0  0  0  0
  -31.9443   59.0731   61.3262 C   0  0  0  0  0  0  0  0  0  0  0  0
  -30.9344   60.2129   61.5289 C   0  0  0  0  0  0  0  0  0  0  0  0
  -31.3334   61.0969   62.7140 C   0  0  0  0  0  0  0  0  0  0  0  0
  -32.4324   62.1130   62.4585 C   0  0  0  0  0  0  0  0  0  0  0  0
  -39.4728   60.8735   64.4868 C   0  0  0  0  0  0  0  0  0  0  0  0
  -38.1786   60.7968   63.8370 O   0  0  0  0  0  0  0  0  0  0  0  0
  -36.2163   62.2392   62.3383 O   0  0  0  0  0  0  0  0  0  0  0  0
  -36.3808   64.8256   65.6066 O   0  0  0  0  0  0  0  0  0  0  0  0
  -37.2266   61.9246   65.7624 O   0  0  0  0  0  0  0  0  0  0  0  0
  -36.9949   61.4708   64.4067 C   0  0  0  0  0  0  0  0  0  0  0  0
  -36.4735   62.6899   63.6324 C   0  0  0  0  0  0  0  0  0  0  0  0
  -35.1678   63.2794   64.2093 C   0  0  0  0  0  0  0  0  0  0  0  0
  -35.4872   63.7150   65.6127 C   0  0  0  0  0  0  0  0  0  0  0  0
  -36.0759   62.5518   66.3903 C   0  0  0  0  0  0  0  0  0  0  0  0
  -37.0269   61.8649   61.9592 H   0  0  0  0  0  0  0  0  0  0  0  0
  -35.9855   65.5560   65.1054 H   0  0  0  0  0  0  0  0  0  0  0  0
  -36.5729   62.2062   68.7026 O   0  0  0  0  0  0  0  0  0  0  0  0
  -36.3318   63.1978   67.7502 C   0  0  0  0  0  0  0  0  0  0  0  0
  -36.7351   62.6190   69.5653 H   0  0  0  0  0  0  0  0  0  0  0  0
  -34.6466   64.4470   63.5349 O   0  0  0  0  0  0  0  0  0  0  0  0
  -32.5332   64.4534   65.0350 O   0  0  0  0  0  0  0  0  0  0  0  0
  -33.7987   66.5031   64.7406 O   0  0  0  0  0  0  0  0  0  0  0  0
  -32.3792   65.6798   62.9569 O   0  0  0  0  0  0  0  0  0  0  0  0
  -33.3019   65.2785   64.0566 S   0  0  0  0  0  0  0  0  0  0  0  0
  -33.1185   64.1824   65.7595 H   0  0  0  0  0  0  0  0  0  0  0  0
  -32.0504   64.8868   62.5052 H   0  0  0  0  0  0  0  0  0  0  0  0
  2  1  1  0  0  0
  2  4  1  0  0  0
  2  5  1  0  0  0
 41 42  1  0  0  0
 41  1  1  0  0  0
 42 46  1  0  0  0
  1 24  1  0  0  0
 23 24  1  0  0  0
 23 25  1  0  0  0
 24 26  1  0  0  0
  3  4  2  0  0  0
 26 27  2  0  0  0
 27 28  1  0  0  0
 43 47  1  0  0  0
 43 51  1  0  0  0
 28 29  1  0  0  0
 56 48  1  0  0  0
 56 60  1  0  0  0
 29 30  1  0  0  0
 57 60  1  0  0  0
 57 61  1  0  0  0
 30 31  1  0  0  0
 44 49  1  0  0  0
 44 52  1  0  0  0
 31 32  1  0  0  0
 45 46  1  0  0  0
 45 50  1  0  0  0
 32 33  1  0  0  0
 53 54  1  0  0  0
 53 55  1  0  0  0
 33 34  1  0  0  0
 34 35  1  0  0  0
 35 36  1  0  0  0
 58 60  1  0  0  0
 36 37  1  0  0  0
 59 60  1  0  0  0
 59 62  1  0  0  0
 37 38  1  0  0  0
 38 39  1  0  0  0
 39 40  1  0  0  0
  4  6  1  0  0  0
  6  7  1  0  0  0
  7  8  1  0  0  0
  8  9  1  0  0  0
  9 10  1  0  0  0
 10 11  1  0  0  0
 11 12  1  0  0  0
 12 13  1  0  0  0
 13 14  1  0  0  0
 14 15  1  0  0  0
 15 16  1  0  0  0
 16 17  1  0  0  0
 17 18  1  0  0  0
 18 19  1  0  0  0
 19 20  1  0  0  0
 20 21  1  0  0  0
 21 22  1  0  0  0
 46 47  1  0  0  0
 47 48  1  0  0  0
 48 49  1  0  0  0
 49 50  1  0  0  0
 50 54  1  0  0  0
M  CHG 1  58  -1
M  END
> <minimizedAffinity>
-9.10494

> <CNNscore>
0.2424750030

> <CNNaffinity>
6.8913969994

> <CNN_VS>
1.6709915400

> <CNNaffinity_variance>
0.7099813223

$$$$
/media/chris/experiments/cd1a-new-docking/inputs/ligands/1onq_ligand.pdb


 62 62  0  0  0  0  0  0  0  0999 V2000
  -40.1291   59.9294   63.9237 C   0  0  0  0  0  0  0  0  0  0  0  0
  -40.4581   60.5213   62.6421 N   0  0  0  0  0  0  0  0  0  0  0  0
  -40.3674   60.6703   60.3800 O   0  0  0  0  0  0  0  0  0  0  0  0
  -40.0673   60.1237   61.4235 C   0  0  0  0  0  0  0  0  0  0  0  0
  -41.0412   61.3140   62.6704 H   0  0  0  0  0  0  0  0  0  0  0  0
  -39.1861   58.9101   61.4008 C   0  0  0  0  0  0  0  0  0  0  0  0
  -37.7914   59.3946   61.0046 C   0  0  0  0  0  0  0  0  0  0  0  0
  -36.7417   58.3755   61.4411 C   0  0  0  0  0  0  0  0  0  0  0  0
  -37.2273   57.2689   62.3456 C   0  0  0  0  0  0  0  0  0  0  0  0
  -36.1052   56.9512   63.3284 C   0  0  0  0  0  0  0  0  0  0  0  0
  -35.8796   58.0711   64.3530 C   0  0  0  0  0  0  0  0  0  0  0  0
  -34.4165   58.5363   64.4693 C   0  0  0  0  0  0  0  0  0  0  0  0
  -34.1018   59.7568   63.5764 C   0  0  0  0  0  0  0  0  0  0  0  0
  -32.8758   59.4832   62.7005 C   0  0  0  0  0  0  0  0  0  0  0  0
  -32.5938   58.0107   62.4277 C   0  0  0  0  0  0  0  0  0  0  0  0
  -33.2085   57.5381   61.1186 C   0  0  0  0  0  0  0  0  0  0  0  0
  -33.4873   56.0370   61.0114 C   0  0  0  0  0  0  0  0  0  0  0  0
  -34.1286   55.7678   59.6568 C   0  0  0  0  0  0  0  0  0  0  0  0
  -35.3956   54.9269   59.6041 C   0  0  0  0  0  0  0  0  0  0  0  0
  -36.5070   55.6551   58.8317 C   0  0  0  0  0  0  0  0  0  0  0  0
  -36.0454   56.9265   58.0957 C   0  0  0  0  0  0  0  0  0  0  0  0
  -37.1940   57.8652   57.7335 C   0  0  0  0  0  0  0  0  0  0  0  0
  -40.8575   60.9503   65.8789 O   0  0  0  0  0  0  0  0  0  0  0  0
  -41.3582   60.2442   64.7590 C   0  0  0  0  0  0  0  0  0  0  0  0
  -40.4310   61.7689   65.5808 H   0  0  0  0  0  0  0  0  0  0  0  0
  -42.0459   58.9376   65.1614 C   0  0  0  0  0  0  0  0  0  0  0  0
  -43.2949   58.8898   65.6554 C   0  0  0  0  0  0  0  0  0  0  0  0
  -43.9115   57.5447   66.0349 C   0  0  0  0  0  0  0  0  0  0  0  0
  -45.4325   57.5939   66.2403 C   0  0  0  0  0  0  0  0  0  0  0  0
  -46.2233   58.3808   65.1789 C   0  0  0  0  0  0  0  0  0  0  0  0
  -46.9464   59.5910   65.8177 C   0  0  0  0  0  0  0  0  0  0  0  0
  -48.4931   59.4978   65.8463 C   0  0  0  0  0  0  0  0  0  0  0  0
  -49.1589   59.5874   64.4529 C   0  0  0  0  0  0  0  0  0  0  0  0
  -50.5050   58.8363   64.3623 C   0  0  0  0  0  0  0  0  0  0  0  0
  -51.1772   58.9369   62.9879 C   0  0  0  0  0  0  0  0  0  0  0  0
  -50.2768   58.6858   61.7801 C   0  0  0  0  0  0  0  0  0  0  0  0
  -50.6783   57.4537   60.9455 C   0  0  0  0  0  0  0  0  0  0  0  0
  -50.2261   57.4814   59.4776 C   0  0  0  0  0  0  0  0  0  0  0  0
  -48.7254   57.2004   59.3590 C   0  0  0  0  0  0  0  0  0  0  0  0
  -48.3115   55.7396   59.3393 C   0  0  0  0  0  0  0  0  0  0  0  0
  -38.7590   60.3356   64.5125 C   0  0  0  0  0  0  0  0  0  0  0  0
  -38.2185   61.6092   64.0778 O   0  0  0  0  0  0  0  0  0  0  0  0
  -36.2469   62.3399   62.1396 O   0  0  0  0  0  0  0  0  0  0  0  0
  -35.2033   65.1576   65.0327 O   0  0  0  0  0  0  0  0  0  0  0  0
  -36.7016   62.6108   65.6842 O   0  0  0  0  0  0  0  0  0  0  0  0
  -36.8252   61.9929   64.3802 C   0  0  0  0  0  0  0  0  0  0  0  0
  -36.1589   62.9561   63.3873 C   0  0  0  0  0  0  0  0  0  0  0  0
  -34.6690   63.2269   63.6905 C   0  0  0  0  0  0  0  0  0  0  0  0
  -34.6251   63.8548   65.0562 C   0  0  0  0  0  0  0  0  0  0  0  0
  -35.3414   62.9636   66.0546 C   0  0  0  0  0  0  0  0  0  0  0  0
  -37.1776   62.1618   61.9319 H   0  0  0  0  0  0  0  0  0  0  0  0
  -34.7313   65.7092   64.3894 H   0  0  0  0  0  0  0  0  0  0  0  0
  -36.4192   63.8289   68.0047 O   0  0  0  0  0  0  0  0  0  0  0  0
  -35.1923   63.7727   67.3411 C   0  0  0  0  0  0  0  0  0  0  0  0
  -36.3219   64.3433   68.8213 H   0  0  0  0  0  0  0  0  0  0  0  0
  -33.9983   64.1495   62.8023 O   0  0  0  0  0  0  0  0  0  0  0  0
  -31.6925   63.0952   63.3396 O   0  0  0  0  0  0  0  0  0  0  0  0
  -31.9641   65.5039   63.4564 O   0  0  0  0  0  0  0  0  0  0  0  0
  -31.8318   64.3949   61.3054 O   0  0  0  0  0  0  0  0  0  0  0  0
  -32.3415   64.2785   62.7012 S   0  0  0  0  0  0  0  0  0  0  0  0
  -32.0127   63.0032   64.2506 H   0  0  0  0  0  0  0  0  0  0  0  0
  -32.0736   63.5995   60.8055 H   0  0  0  0  0  0  0  0  0  0  0  0
  2  1  1  0  0  0
  2  4  1  0  0  0
  2  5  1  0  0  0
 41 42  1  0  0  0
 41  1  1  0  0  0
 42 46  1  0  0  0
  1 24  1  0  0  0
 23 24  1  0  0  0
 23 25  1  0  0  0
 24 26  1  0  0  0
  3  4  2  0  0  0
 26 27  2  0  0  0
 27 28  1  0  0  0
 43 47  1  0  0  0
 43 51  1  0  0  0
 28 29  1  0  0  0
 56 48  1  0  0  0
 56 60  1  0  0  0
 29 30  1  0  0  0
 57 60  1  0  0  0
 57 61  1  0  0  0
 30 31  1  0  0  0
 44 49  1  0  0  0
 44 52  1  0  0  0
 31 32  1  0  0  0
 45 46  1  0  0  0
 45 50  1  0  0  0
 32 33  1  0  0  0
 53 54  1  0  0  0
 53 55  1  0  0  0
 33 34  1  0  0  0
 34 35  1  0  0  0
 35 36  1  0  0  0
 58 60  1  0  0  0
 36 37  1  0  0  0
 59 60  1  0  0  0
 59 62  1  0  0  0
 37 38  1  0  0  0
 38 39  1  0  0  0
 39 40  1  0  0  0
  4  6  1  0  0  0
  6  7  1  0  0  0
  7  8  1  0  0  0
  8  9  1  0  0  0
  9 10  1  0  0  0
 10 11  1  0  0  0
 11 12  1  0  0  0
 12 13  1  0  0  0
 13 14  1  0  0  0
 14 15  1  0  0  0
 15 16  1  0  0  0
 16 17  1  0  0  0
 17 18  1  0  0  0
 18 19  1  0  0  0
 19 20  1  0  0  0
 20 21  1  0  0  0
 21 22  1  0  0  0
 46 47  1  0  0  0
 47 48  1  0  0  0
 48 49  1  0  0  0
 49 50  1  0  0  0
 50 54  1  0  0  0
M  CHG 1  58  -1
M  END
> <minimizedAffinity>
-9.32810

> <CNNscore>
0.1973438412

> <CNNaffinity>
7.2226591110

> <CNN_VS>
1.4253473282

> <CNNaffinity_variance>
1.0202906132

$$$$
/media/chris/experiments/cd1a-new-docking/inputs/ligands/1onq_ligand.pdb


 62 62  0  0  0  0  0  0  0  0999 V2000
  -40.4219   58.9487   65.0184 C   0  0  0  0  0  0  0  0  0  0  0  0
  -41.2316   58.3408   66.0557 N   0  0  0  0  0  0  0  0  0  0  0  0
  -43.1939   57.7949   67.0554 O   0  0  0  0  0  0  0  0  0  0  0  0
  -42.5679   58.3125   66.1508 C   0  0  0  0  0  0  0  0  0  0  0  0
  -40.7383   57.8931   66.7806 H   0  0  0  0  0  0  0  0  0  0  0  0
  -43.3013   58.9929   65.0332 C   0  0  0  0  0  0  0  0  0  0  0  0
  -44.7766   59.0149   65.4331 C   0  0  0  0  0  0  0  0  0  0  0  0
  -45.5599   58.0095   64.5925 C   0  0  0  0  0  0  0  0  0  0  0  0
  -46.9490   58.4306   64.1783 C   0  0  0  0  0  0  0  0  0  0  0  0
  -47.4622   59.4168   65.2224 C   0  0  0  0  0  0  0  0  0  0  0  0
  -48.8314   59.0199   65.7903 C   0  0  0  0  0  0  0  0  0  0  0  0
  -49.7762   58.3673   64.7647 C   0  0  0  0  0  0  0  0  0  0  0  0
  -50.8136   59.3567   64.1895 C   0  0  0  0  0  0  0  0  0  0  0  0
  -51.1771   58.9816   62.7500 C   0  0  0  0  0  0  0  0  0  0  0  0
  -50.2583   57.9545   62.0996 C   0  0  0  0  0  0  0  0  0  0  0  0
  -50.8996   57.2902   60.8902 C   0  0  0  0  0  0  0  0  0  0  0  0
  -50.1334   57.4148   59.5712 C   0  0  0  0  0  0  0  0  0  0  0  0
  -48.7212   57.8903   59.8845 C   0  0  0  0  0  0  0  0  0  0  0  0
  -47.5458   57.0576   59.3944 C   0  0  0  0  0  0  0  0  0  0  0  0
  -46.9942   57.6105   58.0708 C   0  0  0  0  0  0  0  0  0  0  0  0
  -47.2141   56.6926   56.8542 C   0  0  0  0  0  0  0  0  0  0  0  0
  -47.6805   55.2889   57.2331 C   0  0  0  0  0  0  0  0  0  0  0  0
  -38.4129   57.8568   65.4275 O   0  0  0  0  0  0  0  0  0  0  0  0
  -39.5382   57.7970   64.5709 C   0  0  0  0  0  0  0  0  0  0  0  0
  -38.6982   57.7286   66.3456 H   0  0  0  0  0  0  0  0  0  0  0  0
  -39.1558   57.9927   63.1019 C   0  0  0  0  0  0  0  0  0  0  0  0
  -38.2643   57.2122   62.4674 C   0  0  0  0  0  0  0  0  0  0  0  0
  -37.9352   57.4728   60.9987 C   0  0  0  0  0  0  0  0  0  0  0  0
  -38.3767   58.8560   60.4987 C   0  0  0  0  0  0  0  0  0  0  0  0
  -38.4424   59.0220   58.9692 C   0  0  0  0  0  0  0  0  0  0  0  0
  -37.0864   58.6572   58.3183 C   0  0  0  0  0  0  0  0  0  0  0  0
  -37.0818   57.3486   57.4880 C   0  0  0  0  0  0  0  0  0  0  0  0
  -36.1220   56.2610   58.0252 C   0  0  0  0  0  0  0  0  0  0  0  0
  -34.6318   56.6568   57.9421 C   0  0  0  0  0  0  0  0  0  0  0  0
  -33.7886   56.1382   59.1130 C   0  0  0  0  0  0  0  0  0  0  0  0
  -34.5541   55.7822   60.3858 C   0  0  0  0  0  0  0  0  0  0  0  0
  -33.9180   56.3383   61.6750 C   0  0  0  0  0  0  0  0  0  0  0  0
  -33.8216   57.8697   61.7498 C   0  0  0  0  0  0  0  0  0  0  0  0
  -33.8463   58.3518   63.2031 C   0  0  0  0  0  0  0  0  0  0  0  0
  -35.1268   58.0954   63.9779 C   0  0  0  0  0  0  0  0  0  0  0  0
  -39.7126   60.2641   65.4127 C   0  0  0  0  0  0  0  0  0  0  0  0
  -38.9022   60.8955   64.3891 O   0  0  0  0  0  0  0  0  0  0  0  0
  -36.8869   61.1718   62.3792 O   0  0  0  0  0  0  0  0  0  0  0  0
  -35.6895   64.3789   64.7623 O   0  0  0  0  0  0  0  0  0  0  0  0
  -37.3339   62.0696   65.8199 O   0  0  0  0  0  0  0  0  0  0  0  0
  -37.4899   61.2460   64.6389 C   0  0  0  0  0  0  0  0  0  0  0  0
  -36.7665   61.9861   63.5045 C   0  0  0  0  0  0  0  0  0  0  0  0
  -35.2642   62.2202   63.7754 C   0  0  0  0  0  0  0  0  0  0  0  0
  -35.1876   63.0687   65.0145 C   0  0  0  0  0  0  0  0  0  0  0  0
  -35.9566   62.4031   66.1414 C   0  0  0  0  0  0  0  0  0  0  0  0
  -37.8258   61.0137   62.1934 H   0  0  0  0  0  0  0  0  0  0  0  0
  -35.1849   64.7850   64.0402 H   0  0  0  0  0  0  0  0  0  0  0  0
  -34.4212   63.7845   67.3446 O   0  0  0  0  0  0  0  0  0  0  0  0
  -35.7642   63.4104   67.2729 C   0  0  0  0  0  0  0  0  0  0  0  0
  -34.3017   64.4242   68.0639 H   0  0  0  0  0  0  0  0  0  0  0  0
  -34.5393   62.9381   62.7513 O   0  0  0  0  0  0  0  0  0  0  0  0
  -32.4435   63.7281   61.4471 O   0  0  0  0  0  0  0  0  0  0  0  0
  -32.5585   61.4436   62.2577 O   0  0  0  0  0  0  0  0  0  0  0  0
  -32.1333   63.2645   63.7998 O   0  0  0  0  0  0  0  0  0  0  0  0
  -32.8852   62.8596   62.5782 S   0  0  0  0  0  0  0  0  0  0  0  0
  -32.9232   63.4788   60.6417 H   0  0  0  0  0  0  0  0  0  0  0  0
  -32.3406   64.1871   64.0161 H   0  0  0  0  0  0  0  0  0  0  0  0
  2  1  1  0  0  0
  2  4  1  0  0  0
  2  5  1  0  0  0
 41 42  1  0  0  0
 41  1  1  0  0  0
 42 46  1  0  0  0
  1 24  1  0  0  0
 23 24  1  0  0  0
 23 25  1  0  0  0
 24 26  1  0  0  0
  3  4  2  0  0  0
 26 27  2  0  0  0
 27 28  1  0  0  0
 43 47  1  0  0  0
 43 51  1  0  0  0
 28 29  1  0  0  0
 56 48  1  0  0  0
 56 60  1  0  0  0
 29 30  1  0  0  0
 57 60  1  0  0  0
 57 61  1  0  0  0
 30 31  1  0  0  0
 44 49  1  0  0  0
 44 52  1  0  0  0
 31 32  1  0  0  0
 45 46  1  0  0  0
 45 50  1  0  0  0
 32 33  1  0  0  0
 53 54  1  0  0  0
 53 55  1  0  0  0
 33 34  1  0  0  0
 34 35  1  0  0  0
 35 36  1  0  0  0
 58 60  1  0  0  0
 36 37  1  0  0  0
 59 60  1  0  0  0
 59 62  1  0  0  0
 37 38  1  0  0  0
 38 39  1  0  0  0
 39 40  1  0  0  0
  4  6  1  0  0  0
  6  7  1  0  0  0
  7  8  1  0  0  0
  8  9  1  0  0  0
  9 10  1  0  0  0
 10 11  1  0  0  0
 11 12  1  0  0  0
 12 13  1  0  0  0
 13 14  1  0  0  0
 14 15  1  0  0  0
 15 16  1  0  0  0
 16 17  1  0  0  0
 17 18  1  0  0  0
 18 19  1  0  0  0
 19 20  1  0  0  0
 20 21  1  0  0  0
 21 22  1  0  0  0
 46 47  1  0  0  0
 47 48  1  0  0  0
 48 49  1  0  0  0
 49 50  1  0  0  0
 50 54  1  0  0  0
M  CHG 1  58  -1
M  END
> <minimizedAffinity>
-10.44721

> <CNNscore>
0.1815580428

> <CNNaffinity>
7.0100836754

> <CNN_VS>
1.2727370262

> <CNNaffinity_variance>
1.2811810970

$$$$
/media/chris/experiments/cd1a-new-docking/inputs/ligands/1onq_ligand.pdb


 62 62  0  0  0  0  0  0  0  0999 V2000
  -39.2883   58.9365   65.1322 C   0  0  0  0  0  0  0  0  0  0  0  0
  -40.5103   59.4284   64.5271 N   0  0  0  0  0  0  0  0  0  0  0  0
  -42.7628   59.6475   64.3662 O   0  0  0  0  0  0  0  0  0  0  0  0
  -41.7724   59.2163   64.9241 C   0  0  0  0  0  0  0  0  0  0  0  0
  -40.3990   59.9878   63.7247 H   0  0  0  0  0  0  0  0  0  0  0  0
  -41.9207   58.3685   66.1524 C   0  0  0  0  0  0  0  0  0  0  0  0
  -43.4177   58.3019   66.4550 C   0  0  0  0  0  0  0  0  0  0  0  0
  -43.9516   56.9063   66.1418 C   0  0  0  0  0  0  0  0  0  0  0  0
  -45.2469   56.8495   65.3689 C   0  0  0  0  0  0  0  0  0  0  0  0
  -45.7744   58.2754   65.2482 C   0  0  0  0  0  0  0  0  0  0  0  0
  -47.1020   58.3537   64.4826 C   0  0  0  0  0  0  0  0  0  0  0  0
  -48.0372   59.4829   64.9525 C   0  0  0  0  0  0  0  0  0  0  0  0
  -49.1031   58.9992   65.9604 C   0  0  0  0  0  0  0  0  0  0  0  0
  -50.2546   58.2984   65.2337 C   0  0  0  0  0  0  0  0  0  0  0  0
  -50.8939   59.1049   64.1099 C   0  0  0  0  0  0  0  0  0  0  0  0
  -50.7979   58.3985   62.7656 C   0  0  0  0  0  0  0  0  0  0  0  0
  -49.8943   59.0604   61.7227 C   0  0  0  0  0  0  0  0  0  0  0  0
  -48.9341   58.0066   61.1878 C   0  0  0  0  0  0  0  0  0  0  0  0
  -49.5038   56.8255   60.4159 C   0  0  0  0  0  0  0  0  0  0  0  0
  -48.5581   56.4030   59.2806 C   0  0  0  0  0  0  0  0  0  0  0  0
  -47.4405   57.4158   58.9702 C   0  0  0  0  0  0  0  0  0  0  0  0
  -46.9129   57.3138   57.5409 C   0  0  0  0  0  0  0  0  0  0  0  0
  -38.8747   60.9687   64.0859 O   0  0  0  0  0  0  0  0  0  0  0  0
  -38.4123   60.1771   65.1644 C   0  0  0  0  0  0  0  0  0  0  0  0
  -39.8037   61.2054   64.2335 H   0  0  0  0  0  0  0  0  0  0  0  0
  -36.9476   59.7680   64.9930 C   0  0  0  0  0  0  0  0  0  0  0  0
  -36.0800   60.4553   64.2306 C   0  0  0  0  0  0  0  0  0  0  0  0
  -34.6329   59.9813   64.1097 C   0  0  0  0  0  0  0  0  0  0  0  0
  -34.4383   58.8252   63.1179 C   0  0  0  0  0  0  0  0  0  0  0  0
  -33.1045   58.0645   63.2343 C   0  0  0  0  0  0  0  0  0  0  0  0
  -32.1526   58.4440   62.0744 C   0  0  0  0  0  0  0  0  0  0  0  0
  -31.0960   59.5261   62.4128 C   0  0  0  0  0  0  0  0  0  0  0  0
  -31.3418   60.8889   61.7233 C   0  0  0  0  0  0  0  0  0  0  0  0
  -31.7062   62.0218   62.7071 C   0  0  0  0  0  0  0  0  0  0  0  0
  -32.6821   63.0529   62.1279 C   0  0  0  0  0  0  0  0  0  0  0  0
  -33.7445   63.5849   63.0875 C   0  0  0  0  0  0  0  0  0  0  0  0
  -33.1860   64.0376   64.4510 C   0  0  0  0  0  0  0  0  0  0  0  0
  -33.7848   63.3252   65.6732 C   0  0  0  0  0  0  0  0  0  0  0  0
  -35.3088   63.4723   65.7036 C   0  0  0  0  0  0  0  0  0  0  0  0
  -35.9235   63.8564   67.0378 C   0  0  0  0  0  0  0  0  0  0  0  0
  -38.6863   57.6703   64.4818 C   0  0  0  0  0  0  0  0  0  0  0  0
  -38.9913   57.4538   63.0806 O   0  0  0  0  0  0  0  0  0  0  0  0
  -36.7588   56.7495   61.4382 O   0  0  0  0  0  0  0  0  0  0  0  0
  -39.0039   58.6483   58.4797 O   0  0  0  0  0  0  0  0  0  0  0  0
  -39.3831   59.1902   61.4324 O   0  0  0  0  0  0  0  0  0  0  0  0
  -38.4028   58.3063   62.0285 C   0  0  0  0  0  0  0  0  0  0  0  0
  -37.7271   57.5709   60.8622 C   0  0  0  0  0  0  0  0  0  0  0  0
  -37.0288   58.5121   59.8565 C   0  0  0  0  0  0  0  0  0  0  0  0
  -38.1051   59.3985   59.2931 C   0  0  0  0  0  0  0  0  0  0  0  0
  -38.8467   60.0883   60.4237 C   0  0  0  0  0  0  0  0  0  0  0  0
  -37.1800   56.1501   62.0741 H   0  0  0  0  0  0  0  0  0  0  0  0
  -38.5099   58.2168   57.7651 H   0  0  0  0  0  0  0  0  0  0  0  0
  -40.9460   60.0926   59.2808 O   0  0  0  0  0  0  0  0  0  0  0  0
  -39.8764   60.9097   59.6511 C   0  0  0  0  0  0  0  0  0  0  0  0
  -41.5985   60.6165   58.7902 H   0  0  0  0  0  0  0  0  0  0  0  0
  -36.3992   57.8740   58.7223 O   0  0  0  0  0  0  0  0  0  0  0  0
  -34.2903   57.1070   60.0189 O   0  0  0  0  0  0  0  0  0  0  0  0
  -34.3818   56.8285   57.6099 O   0  0  0  0  0  0  0  0  0  0  0  0
  -35.6548   55.3582   59.0563 O   0  0  0  0  0  0  0  0  0  0  0  0
  -35.1738   56.7563   58.8676 S   0  0  0  0  0  0  0  0  0  0  0  0
  -33.9670   58.0154   59.9134 H   0  0  0  0  0  0  0  0  0  0  0  0
  -36.1725   55.3021   59.8747 H   0  0  0  0  0  0  0  0  0  0  0  0
  2  1  1  0  0  0
  2  4  1  0  0  0
  2  5  1  0  0  0
 41 42  1  0  0  0
 41  1  1  0  0  0
 42 46  1  0  0  0
  1 24  1  0  0  0
 23 24  1  0  0  0
 23 25  1  0  0  0
 24 26  1  0  0  0
  3  4  2  0  0  0
 26 27  2  0  0  0
 27 28  1  0  0  0
 43 47  1  0  0  0
 43 51  1  0  0  0
 28 29  1  0  0  0
 56 48  1  0  0  0
 56 60  1  0  0  0
 29 30  1  0  0  0
 57 60  1  0  0  0
 57 61  1  0  0  0
 30 31  1  0  0  0
 44 49  1  0  0  0
 44 52  1  0  0  0
 31 32  1  0  0  0
 45 46  1  0  0  0
 45 50  1  0  0  0
 32 33  1  0  0  0
 53 54  1  0  0  0
 53 55  1  0  0  0
 33 34  1  0  0  0
 34 35  1  0  0  0
 35 36  1  0  0  0
 58 60  1  0  0  0
 36 37  1  0  0  0
 59 60  1  0  0  0
 59 62  1  0  0  0
 37 38  1  0  0  0
 38 39  1  0  0  0
 39 40  1  0  0  0
  4  6  1  0  0  0
  6  7  1  0  0  0
  7  8  1  0  0  0
  8  9  1  0  0  0
  9 10  1  0  0  0
 10 11  1  0  0  0
 11 12  1  0  0  0
 12 13  1  0  0  0
 13 14  1  0  0  0
 14 15  1  0  0  0
 15 16  1  0  0  0
 16 17  1  0  0  0
 17 18  1  0  0  0
 18 19  1  0  0  0
 19 20  1  0  0  0
 20 21  1  0  0  0
 21 22  1  0  0  0
 46 47  1  0  0  0
 47 48  1  0  0  0
 48 49  1  0  0  0
 49 50  1  0  0  0
 50 54  1  0  0  0
M  CHG 1  58  -1
M  END
> <minimizedAffinity>
-9.02284

> <CNNscore>
0.1661974788

> <CNNaffinity>
6.9237585068

> <CNN_VS>
1.1507111788

> <CNNaffinity_variance>
1.4813768864

$$$$
/media/chris/experiments/cd1a-new-docking/inputs/ligands/1onq_ligand.pdb


 62 62  0  0  0  0  0  0  0  0999 V2000
  -39.9937   59.0558   63.9624 C   0  0  0  0  0  0  0  0  0  0  0  0
  -40.4062   59.1480   65.3489 N   0  0  0  0  0  0  0  0  0  0  0  0
  -41.9299   59.3893   67.0126 O   0  0  0  0  0  0  0  0  0  0  0  0
  -41.6454   59.3062   65.8336 C   0  0  0  0  0  0  0  0  0  0  0  0
  -39.6864   59.0868   66.0177 H   0  0  0  0  0  0  0  0  0  0  0  0
  -42.7288   59.3894   64.7996 C   0  0  0  0  0  0  0  0  0  0  0  0
  -44.0305   59.0068   65.5040 C   0  0  0  0  0  0  0  0  0  0  0  0
  -44.8660   58.1027   64.6009 C   0  0  0  0  0  0  0  0  0  0  0  0
  -46.3638   58.2253   64.7422 C   0  0  0  0  0  0  0  0  0  0  0  0
  -46.8041   57.2587   65.8366 C   0  0  0  0  0  0  0  0  0  0  0  0
  -48.3292   57.1094   65.9175 C   0  0  0  0  0  0  0  0  0  0  0  0
  -49.0999   58.4398   65.8358 C   0  0  0  0  0  0  0  0  0  0  0  0
  -50.4663   58.2997   65.1293 C   0  0  0  0  0  0  0  0  0  0  0  0
  -50.7432   59.5173   64.2429 C   0  0  0  0  0  0  0  0  0  0  0  0
  -51.1770   59.1928   62.8186 C   0  0  0  0  0  0  0  0  0  0  0  0
  -50.4835   57.9536   62.2720 C   0  0  0  0  0  0  0  0  0  0  0  0
  -51.0681   57.3708   60.9833 C   0  0  0  0  0  0  0  0  0  0  0  0
  -49.9348   57.2028   59.9802 C   0  0  0  0  0  0  0  0  0  0  0  0
  -48.5813   57.8206   60.2989 C   0  0  0  0  0  0  0  0  0  0  0  0
  -47.4560   57.1017   59.5381 C   0  0  0  0  0  0  0  0  0  0  0  0
  -47.1395   57.6971   58.1538 C   0  0  0  0  0  0  0  0  0  0  0  0
  -47.0679   56.6476   57.0470 C   0  0  0  0  0  0  0  0  0  0  0  0
  -39.5448   57.1243   65.1722 O   0  0  0  0  0  0  0  0  0  0  0  0
  -39.2602   57.7261   63.9231 C   0  0  0  0  0  0  0  0  0  0  0  0
  -40.5010   56.9821   65.2522 H   0  0  0  0  0  0  0  0  0  0  0  0
  -37.7628   57.9787   63.7325 C   0  0  0  0  0  0  0  0  0  0  0  0
  -36.8142   57.2705   64.3689 C   0  0  0  0  0  0  0  0  0  0  0  0
  -35.3392   57.5845   64.1255 C   0  0  0  0  0  0  0  0  0  0  0  0
  -35.0785   58.3921   62.8458 C   0  0  0  0  0  0  0  0  0  0  0  0
  -34.0148   57.8110   61.8960 C   0  0  0  0  0  0  0  0  0  0  0  0
  -34.3377   56.3388   61.5444 C   0  0  0  0  0  0  0  0  0  0  0  0
  -33.9989   55.9157   60.0925 C   0  0  0  0  0  0  0  0  0  0  0  0
  -33.7869   57.1003   59.1207 C   0  0  0  0  0  0  0  0  0  0  0  0
  -34.5007   56.9208   57.7633 C   0  0  0  0  0  0  0  0  0  0  0  0
  -35.9940   56.5961   57.8888 C   0  0  0  0  0  0  0  0  0  0  0  0
  -36.8997   57.7525   58.3072 C   0  0  0  0  0  0  0  0  0  0  0  0
  -37.4043   57.6580   59.7606 C   0  0  0  0  0  0  0  0  0  0  0  0
  -38.0320   58.9434   60.3208 C   0  0  0  0  0  0  0  0  0  0  0  0
  -39.0273   59.5479   59.3263 C   0  0  0  0  0  0  0  0  0  0  0  0
  -40.2161   60.2811   59.9221 C   0  0  0  0  0  0  0  0  0  0  0  0
  -39.2420   60.2873   63.4082 C   0  0  0  0  0  0  0  0  0  0  0  0
  -38.8113   61.2748   64.3790 O   0  0  0  0  0  0  0  0  0  0  0  0
  -36.8882   61.5470   62.2802 O   0  0  0  0  0  0  0  0  0  0  0  0
  -35.5083   64.6815   64.6611 O   0  0  0  0  0  0  0  0  0  0  0  0
  -37.1512   62.3876   65.7541 O   0  0  0  0  0  0  0  0  0  0  0  0
  -37.3813   61.5903   64.5671 C   0  0  0  0  0  0  0  0  0  0  0  0
  -36.6965   62.3367   63.4131 C   0  0  0  0  0  0  0  0  0  0  0  0
  -35.1782   62.5336   63.6159 C   0  0  0  0  0  0  0  0  0  0  0  0
  -35.0240   63.3563   64.8651 C   0  0  0  0  0  0  0  0  0  0  0  0
  -35.7531   62.6855   66.0153 C   0  0  0  0  0  0  0  0  0  0  0  0
  -37.8382   61.4124   62.1368 H   0  0  0  0  0  0  0  0  0  0  0  0
  -35.0297   65.0905   63.9232 H   0  0  0  0  0  0  0  0  0  0  0  0
  -34.1129   63.7325   67.4035 O   0  0  0  0  0  0  0  0  0  0  0  0
  -35.4849   63.6666   67.1544 C   0  0  0  0  0  0  0  0  0  0  0  0
  -33.9453   64.3561   68.1273 H   0  0  0  0  0  0  0  0  0  0  0  0
  -34.4871   63.2556   62.5714 O   0  0  0  0  0  0  0  0  0  0  0  0
  -32.2565   63.7810   61.3607 O   0  0  0  0  0  0  0  0  0  0  0  0
  -32.2123   62.7692   63.5661 O   0  0  0  0  0  0  0  0  0  0  0  0
  -32.7601   65.1166   63.3124 O   0  0  0  0  0  0  0  0  0  0  0  0
  -32.9072   63.7637   62.7043 S   0  0  0  0  0  0  0  0  0  0  0  0
  -32.3424   62.9071   60.9487 H   0  0  0  0  0  0  0  0  0  0  0  0
  -33.2105   65.7716   62.7565 H   0  0  0  0  0  0  0  0  0  0  0  0
  2  1  1  0  0  0
  2  4  1  0  0  0
  2  5  1  0  0  0
 41 42  1  0  0  0
 41  1  1  0  0  0
 42 46  1  0  0  0
  1 24  1  0  0  0
 23 24  1  0  0  0
 23 25  1  0  0  0
 24 26  1  0  0  0
  3  4  2  0  0  0
 26 27  2  0  0  0
 27 28  1  0  0  0
 43 47  1  0  0  0
 43 51  1  0  0  0
 28 29  1  0  0  0
 56 48  1  0  0  0
 56 60  1  0  0  0
 29 30  1  0  0  0
 57 60  1  0  0  0
 57 61  1  0  0  0
 30 31  1  0  0  0
 44 49  1  0  0  0
 44 52  1  0  0  0
 31 32  1  0  0  0
 45 46  1  0  0  0
 45 50  1  0  0  0
 32 33  1  0  0  0
 53 54  1  0  0  0
 53 55  1  0  0  0
 33 34  1  0  0  0
 34 35  1  0  0  0
 35 36  1  0  0  0
 58 60  1  0  0  0
 36 37  1  0  0  0
 59 60  1  0  0  0
 59 62  1  0  0  0
 37 38  1  0  0  0
 38 39  1  0  0  0
 39 40  1  0  0  0
  4  6  1  0  0  0
  6  7  1  0  0  0
  7  8  1  0  0  0
  8  9  1  0  0  0
  9 10  1  0  0  0
 10 11  1  0  0  0
 11 12  1  0  0  0
 12 13  1  0  0  0
 13 14  1  0  0  0
 14 15  1  0  0  0
 15 16  1  0  0  0
 16 17  1  0  0  0
 17 18  1  0  0  0
 18 19  1  0  0  0
 19 20  1  0  0  0
 20 21  1  0  0  0
 21 22  1  0  0  0
 46 47  1  0  0  0
 47 48  1  0  0  0
 48 49  1  0  0  0
 49 50  1  0  0  0
 50 54  1  0  0  0
M  CHG 1  58  -1
M  END
> <minimizedAffinity>
-10.00310

> <CNNscore>
0.1597322971

> <CNNaffinity>
7.1119260788

> <CNN_VS>
1.1360043287

> <CNNaffinity_variance>
1.2964562178

$$$$
/media/chris/experiments/cd1a-new-docking/inputs/ligands/1onq_ligand.pdb


 62 62  0  0  0  0  0  0  0  0999 V2000
  -40.2493   59.0319   65.4645 C   0  0  0  0  0  0  0  0  0  0  0  0
  -41.5257   59.3499   64.8557 N   0  0  0  0  0  0  0  0  0  0  0  0
  -43.7859   59.2498   64.6842 O   0  0  0  0  0  0  0  0  0  0  0  0
  -42.7471   58.9595   65.2450 C   0  0  0  0  0  0  0  0  0  0  0  0
  -41.4910   59.9241   64.0568 H   0  0  0  0  0  0  0  0  0  0  0  0
  -42.7795   58.0920   66.4681 C   0  0  0  0  0  0  0  0  0  0  0  0
  -43.9333   57.1085   66.2714 C   0  0  0  0  0  0  0  0  0  0  0  0
  -45.2484   57.7549   66.6999 C   0  0  0  0  0  0  0  0  0  0  0  0
  -46.3555   56.8078   67.0947 C   0  0  0  0  0  0  0  0  0  0  0  0
  -47.3014   56.6830   65.9049 C   0  0  0  0  0  0  0  0  0  0  0  0
  -47.4226   57.9866   65.1044 C   0  0  0  0  0  0  0  0  0  0  0  0
  -48.7203   58.7721   65.3680 C   0  0  0  0  0  0  0  0  0  0  0  0
  -49.0831   59.7359   64.2168 C   0  0  0  0  0  0  0  0  0  0  0  0
  -50.5973   59.7603   63.9899 C   0  0  0  0  0  0  0  0  0  0  0  0
  -51.0445   59.3889   62.5813 C   0  0  0  0  0  0  0  0  0  0  0  0
  -50.8962   57.9006   62.3021 C   0  0  0  0  0  0  0  0  0  0  0  0
  -50.4060   57.5261   60.9015 C   0  0  0  0  0  0  0  0  0  0  0  0
  -48.9445   57.9368   60.7833 C   0  0  0  0  0  0  0  0  0  0  0  0
  -48.1643   57.5092   59.5489 C   0  0  0  0  0  0  0  0  0  0  0  0
  -48.4601   56.0439   59.1919 C   0  0  0  0  0  0  0  0  0  0  0  0
  -47.5142   55.4401   58.1375 C   0  0  0  0  0  0  0  0  0  0  0  0
  -47.3591   56.3134   56.8945 C   0  0  0  0  0  0  0  0  0  0  0  0
  -39.9037   60.9969   64.2751 O   0  0  0  0  0  0  0  0  0  0  0  0
  -39.5546   60.3823   65.5014 C   0  0  0  0  0  0  0  0  0  0  0  0
  -40.8660   61.1114   64.2332 H   0  0  0  0  0  0  0  0  0  0  0  0
  -38.0442   60.1719   65.6316 C   0  0  0  0  0  0  0  0  0  0  0  0
  -37.1466   60.8202   64.8697 C   0  0  0  0  0  0  0  0  0  0  0  0
  -35.6545   60.5541   65.0601 C   0  0  0  0  0  0  0  0  0  0  0  0
  -34.8439   60.5984   63.7567 C   0  0  0  0  0  0  0  0  0  0  0  0
  -33.9672   61.8489   63.5591 C   0  0  0  0  0  0  0  0  0  0  0  0
  -32.5854   61.4649   62.9774 C   0  0  0  0  0  0  0  0  0  0  0  0
  -31.9500   62.5162   62.0325 C   0  0  0  0  0  0  0  0  0  0  0  0
  -32.6690   63.8858   62.0339 C   0  0  0  0  0  0  0  0  0  0  0  0
  -31.7872   65.0456   62.5453 C   0  0  0  0  0  0  0  0  0  0  0  0
  -32.2962   65.6824   63.8440 C   0  0  0  0  0  0  0  0  0  0  0  0
  -32.1246   64.8492   65.1124 C   0  0  0  0  0  0  0  0  0  0  0  0
  -33.4481   64.5290   65.8346 C   0  0  0  0  0  0  0  0  0  0  0  0
  -34.7202   64.9825   65.1023 C   0  0  0  0  0  0  0  0  0  0  0  0
  -35.9521   64.2412   65.6295 C   0  0  0  0  0  0  0  0  0  0  0  0
  -35.8562   63.6912   67.0416 C   0  0  0  0  0  0  0  0  0  0  0  0
  -39.4746   57.8629   64.8148 C   0  0  0  0  0  0  0  0  0  0  0  0
  -39.5060   57.7899   63.3667 O   0  0  0  0  0  0  0  0  0  0  0  0
  -36.7926   57.1239   63.9764 O   0  0  0  0  0  0  0  0  0  0  0  0
  -36.5548   56.5546   59.8511 O   0  0  0  0  0  0  0  0  0  0  0  0
  -38.6589   58.2979   61.1509 O   0  0  0  0  0  0  0  0  0  0  0  0
  -38.3314   58.1674   62.5556 C   0  0  0  0  0  0  0  0  0  0  0  0
  -37.1278   57.2166   62.6261 C   0  0  0  0  0  0  0  0  0  0  0  0
  -35.8906   57.7235   61.8530 C   0  0  0  0  0  0  0  0  0  0  0  0
  -36.3130   57.8415   60.4146 C   0  0  0  0  0  0  0  0  0  0  0  0
  -37.5487   58.7172   60.3123 C   0  0  0  0  0  0  0  0  0  0  0  0
  -37.5593   56.8064   64.4787 H   0  0  0  0  0  0  0  0  0  0  0  0
  -35.7538   56.0128   59.9270 H   0  0  0  0  0  0  0  0  0  0  0  0
  -39.1267   59.0793   58.5538 O   0  0  0  0  0  0  0  0  0  0  0  0
  -37.8085   58.6962   58.8076 C   0  0  0  0  0  0  0  0  0  0  0  0
  -39.2892   59.0651   57.5976 H   0  0  0  0  0  0  0  0  0  0  0  0
  -34.7362   56.8533   61.8627 O   0  0  0  0  0  0  0  0  0  0  0  0
  -32.2051   56.2958   61.8654 O   0  0  0  0  0  0  0  0  0  0  0  0
  -33.0929   57.8393   63.5143 O   0  0  0  0  0  0  0  0  0  0  0  0
  -32.8092   58.5443   61.2128 O   0  0  0  0  0  0  0  0  0  0  0  0
  -33.1814   57.4018   62.0947 S   0  0  0  0  0  0  0  0  0  0  0  0
  -32.4318   55.5419   62.4319 H   0  0  0  0  0  0  0  0  0  0  0  0
  -32.8643   58.2677   60.2848 H   0  0  0  0  0  0  0  0  0  0  0  0
  2  1  1  0  0  0
  2  4  1  0  0  0
  2  5  1  0  0  0
 41 42  1  0  0  0
 41  1  1  0  0  0
 42 46  1  0  0  0
  1 24  1  0  0  0
 23 24  1  0  0  0
 23 25  1  0  0  0
 24 26  1  0  0  0
  3  4  2  0  0  0
 26 27  2  0  0  0
 27 28  1  0  0  0
 43 47  1  0  0  0
 43 51  1  0  0  0
 28 29  1  0  0  0
 56 48  1  0  0  0
 56 60  1  0  0  0
 29 30  1  0  0  0
 57 60  1  0  0  0
 57 61  1  0  0  0
 30 31  1  0  0  0
 44 49  1  0  0  0
 44 52  1  0  0  0
 31 32  1  0  0  0
 45 46  1  0  0  0
 45 50  1  0  0  0
 32 33  1  0  0  0
 53 54  1  0  0  0
 53 55  1  0  0  0
 33 34  1  0  0  0
 34 35  1  0  0  0
 35 36  1  0  0  0
 58 60  1  0  0  0
 36 37  1  0  0  0
 59 60  1  0  0  0
 59 62  1  0  0  0
 37 38  1  0  0  0
 38 39  1  0  0  0
 39 40  1  0  0  0
  4  6  1  0  0  0
  6  7  1  0  0  0
  7  8  1  0  0  0
  8  9  1  0  0  0
  9 10  1  0  0  0
 10 11  1  0  0  0
 11 12  1  0  0  0
 12 13  1  0  0  0
 13 14  1  0  0  0
 14 15  1  0  0  0
 15 16  1  0  0  0
 16 17  1  0  0  0
 17 18  1  0  0  0
 18 19  1  0  0  0
 19 20  1  0  0  0
 20 21  1  0  0  0
 21 22  1  0  0  0
 46 47  1  0  0  0
 47 48  1  0  0  0
 48 49  1  0  0  0
 49 50  1  0  0  0
 50 54  1  0  0  0
M  CHG 1  58  -1
M  END
> <minimizedAffinity>
-8.95399

> <CNNscore>
0.1541038156

> <CNNaffinity>
6.7017121315

> <CNN_VS>
1.0327594280

> <CNNaffinity_variance>
1.0929199457

$$$$
/media/chris/experiments/cd1a-new-docking/inputs/ligands/1onq_ligand.pdb


 62 62  0  0  0  0  0  0  0  0999 V2000
  -39.8731   60.1327   63.5267 C   0  0  0  0  0  0  0  0  0  0  0  0
  -40.5755   60.4061   62.2885 N   0  0  0  0  0  0  0  0  0  0  0  0
  -40.7601   60.5218   60.0301 O   0  0  0  0  0  0  0  0  0  0  0  0
  -40.1255   60.2636   61.0343 C   0  0  0  0  0  0  0  0  0  0  0  0
  -41.4978   60.7377   62.3804 H   0  0  0  0  0  0  0  0  0  0  0  0
  -38.7213   59.7500   60.9152 C   0  0  0  0  0  0  0  0  0  0  0  0
  -38.4160   59.6662   59.4196 C   0  0  0  0  0  0  0  0  0  0  0  0
  -37.3713   58.5834   59.1604 C   0  0  0  0  0  0  0  0  0  0  0  0
  -37.6183   57.6959   57.9646 C   0  0  0  0  0  0  0  0  0  0  0  0
  -36.3940   56.8029   57.7927 C   0  0  0  0  0  0  0  0  0  0  0  0
  -35.0849   57.5144   58.1598 C   0  0  0  0  0  0  0  0  0  0  0  0
  -33.8241   56.6478   57.9864 C   0  0  0  0  0  0  0  0  0  0  0  0
  -33.6868   55.5628   59.0772 C   0  0  0  0  0  0  0  0  0  0  0  0
  -34.2249   56.0730   60.4170 C   0  0  0  0  0  0  0  0  0  0  0  0
  -33.1590   56.4456   61.4403 C   0  0  0  0  0  0  0  0  0  0  0  0
  -33.3214   57.8698   61.9507 C   0  0  0  0  0  0  0  0  0  0  0  0
  -32.9982   58.0936   63.4298 C   0  0  0  0  0  0  0  0  0  0  0  0
  -34.2957   57.9944   64.2206 C   0  0  0  0  0  0  0  0  0  0  0  0
  -35.5957   57.7675   63.4632 C   0  0  0  0  0  0  0  0  0  0  0  0
  -36.6970   57.2524   64.4033 C   0  0  0  0  0  0  0  0  0  0  0  0
  -38.0902   57.1451   63.7564 C   0  0  0  0  0  0  0  0  0  0  0  0
  -38.0395   56.8972   62.2506 C   0  0  0  0  0  0  0  0  0  0  0  0
  -40.3439   60.8614   65.6814 O   0  0  0  0  0  0  0  0  0  0  0  0
  -40.9736   60.2586   64.5662 C   0  0  0  0  0  0  0  0  0  0  0  0
  -40.0121   61.7377   65.4308 H   0  0  0  0  0  0  0  0  0  0  0  0
  -41.5215   58.8680   64.8952 C   0  0  0  0  0  0  0  0  0  0  0  0
  -42.5084   58.6615   65.7839 C   0  0  0  0  0  0  0  0  0  0  0  0
  -42.9999   57.2415   66.0581 C   0  0  0  0  0  0  0  0  0  0  0  0
  -44.5264   57.0885   65.9928 C   0  0  0  0  0  0  0  0  0  0  0  0
  -45.3063   58.3531   65.5881 C   0  0  0  0  0  0  0  0  0  0  0  0
  -46.5838   58.5093   66.4478 C   0  0  0  0  0  0  0  0  0  0  0  0
  -47.8569   57.8420   65.8684 C   0  0  0  0  0  0  0  0  0  0  0  0
  -48.0768   58.1006   64.3593 C   0  0  0  0  0  0  0  0  0  0  0  0
  -49.2699   59.0340   64.0601 C   0  0  0  0  0  0  0  0  0  0  0  0
  -50.4968   58.3071   63.4968 C   0  0  0  0  0  0  0  0  0  0  0  0
  -50.8363   58.5960   62.0360 C   0  0  0  0  0  0  0  0  0  0  0  0
  -50.7787   57.3555   61.1229 C   0  0  0  0  0  0  0  0  0  0  0  0
  -50.4821   57.6444   59.6436 C   0  0  0  0  0  0  0  0  0  0  0  0
  -49.0123   57.3691   59.3135 C   0  0  0  0  0  0  0  0  0  0  0  0
  -48.0420   57.3935   60.4812 C   0  0  0  0  0  0  0  0  0  0  0  0
  -38.5897   60.9616   63.7610 C   0  0  0  0  0  0  0  0  0  0  0  0
  -37.6571   60.4480   64.7457 O   0  0  0  0  0  0  0  0  0  0  0  0
  -35.4907   61.0135   62.9667 O   0  0  0  0  0  0  0  0  0  0  0  0
  -35.5117   64.6849   64.9462 O   0  0  0  0  0  0  0  0  0  0  0  0
  -36.6701   62.1622   66.1501 O   0  0  0  0  0  0  0  0  0  0  0  0
  -36.4325   61.1921   65.1013 C   0  0  0  0  0  0  0  0  0  0  0  0
  -35.7515   61.9585   63.9582 C   0  0  0  0  0  0  0  0  0  0  0  0
  -34.4151   62.6180   64.3632 C   0  0  0  0  0  0  0  0  0  0  0  0
  -34.7437   63.5975   65.4558 C   0  0  0  0  0  0  0  0  0  0  0  0
  -35.4857   62.8892   66.5747 C   0  0  0  0  0  0  0  0  0  0  0  0
  -36.3205   60.5880   62.6993 H   0  0  0  0  0  0  0  0  0  0  0  0
  -35.0198   65.1224   64.2338 H   0  0  0  0  0  0  0  0  0  0  0  0
  -34.5119   64.6511   67.8635 O   0  0  0  0  0  0  0  0  0  0  0  0
  -35.7268   64.0388   67.5507 C   0  0  0  0  0  0  0  0  0  0  0  0
  -34.6676   65.3807   68.4834 H   0  0  0  0  0  0  0  0  0  0  0  0
  -33.7439   63.3767   63.3318 O   0  0  0  0  0  0  0  0  0  0  0  0
  -32.0467   63.7193   61.4033 O   0  0  0  0  0  0  0  0  0  0  0  0
  -32.5573   61.4720   62.1636 O   0  0  0  0  0  0  0  0  0  0  0  0
  -31.1443   62.9193   63.4991 O   0  0  0  0  0  0  0  0  0  0  0  0
  -32.3337   62.8765   62.6017 S   0  0  0  0  0  0  0  0  0  0  0  0
  -32.8111   63.7036   60.8064 H   0  0  0  0  0  0  0  0  0  0  0  0
  -30.9913   63.8321   63.7895 H   0  0  0  0  0  0  0  0  0  0  0  0
  2  1  1  0  0  0
  2  4  1  0  0  0
  2  5  1  0  0  0
 41 42  1  0  0  0
 41  1  1  0  0  0
 42 46  1  0  0  0
  1 24  1  0  0  0
 23 24  1  0  0  0
 23 25  1  0  0  0
 24 26  1  0  0  0
  3  4  2  0  0  0
 26 27  2  0  0  0
 27 28  1  0  0  0
 43 47  1  0  0  0
 43 51  1  0  0  0
 28 29  1  0  0  0
 56 48  1  0  0  0
 56 60  1  0  0  0
 29 30  1  0  0  0
 57 60  1  0  0  0
 57 61  1  0  0  0
 30 31  1  0  0  0
 44 49  1  0  0  0
 44 52  1  0  0  0
 31 32  1  0  0  0
 45 46  1  0  0  0
 45 50  1  0  0  0
 32 33  1  0  0  0
 53 54  1  0  0  0
 53 55  1  0  0  0
 33 34  1  0  0  0
 34 35  1  0  0  0
 35 36  1  0  0  0
 58 60  1  0  0  0
 36 37  1  0  0  0
 59 60  1  0  0  0
 59 62  1  0  0  0
 37 38  1  0  0  0
 38 39  1  0  0  0
 39 40  1  0  0  0
  4  6  1  0  0  0
  6  7  1  0  0  0
  7  8  1  0  0  0
  8  9  1  0  0  0
  9 10  1  0  0  0
 10 11  1  0  0  0
 11 12  1  0  0  0
 12 13  1  0  0  0
 13 14  1  0  0  0
 14 15  1  0  0  0
 15 16  1  0  0  0
 16 17  1  0  0  0
 17 18  1  0  0  0
 18 19  1  0  0  0
 19 20  1  0  0  0
 20 21  1  0  0  0
 21 22  1  0  0  0
 46 47  1  0  0  0
 47 48  1  0  0  0
 48 49  1  0  0  0
 49 50  1  0  0  0
 50 54  1  0  0  0
M  CHG 1  58  -1
M  END
> <minimizedAffinity>
-9.49144

> <CNNscore>
0.1531224251

> <CNNaffinity>
7.1275014877

> <CNN_VS>
1.0913803577

> <CNNaffinity_variance>
1.0928194523

$$$$
