/media/chris/experiments/cd1a-new-docking/inputs/ligands/1onq_ligand.pdb


 62 62  0  0  0  0  0  0  0  0999 V2000
  -38.4985   60.2536   64.0245 C   0  0  0  0  0  0  0  0  0  0  0  0
  -39.5967   59.4540   64.5302 N   0  0  0  0  0  0  0  0  0  0  0  0
  -40.4829   60.8133   66.1159 O   0  0  0  0  0  0  0  0  0  0  0  0
  -40.4731   59.7690   65.4937 C   0  0  0  0  0  0  0  0  0  0  0  0
  -39.7132   58.5694   64.1140 H   0  0  0  0  0  0  0  0  0  0  0  0
  -41.5065   58.7211   65.7832 C   0  0  0  0  0  0  0  0  0  0  0  0
  -42.3731   59.2687   66.9174 C   0  0  0  0  0  0  0  0  0  0  0  0
  -43.8189   58.8129   66.7357 C   0  0  0  0  0  0  0  0  0  0  0  0
  -44.0668   57.8191   65.6269 C   0  0  0  0  0  0  0  0  0  0  0  0
  -45.2746   58.3060   64.8332 C   0  0  0  0  0  0  0  0  0  0  0  0
  -46.0163   59.4559   65.5279 C   0  0  0  0  0  0  0  0  0  0  0  0
  -47.4365   59.7088   64.9897 C   0  0  0  0  0  0  0  0  0  0  0  0
  -48.2984   58.4280   64.9448 C   0  0  0  0  0  0  0  0  0  0  0  0
  -48.8538   58.2001   63.5360 C   0  0  0  0  0  0  0  0  0  0  0  0
  -50.3649   58.3479   63.4067 C   0  0  0  0  0  0  0  0  0  0  0  0
  -50.8472   58.1219   61.9815 C   0  0  0  0  0  0  0  0  0  0  0  0
  -49.8574   58.4856   60.8724 C   0  0  0  0  0  0  0  0  0  0  0  0
  -49.9854   57.4510   59.7625 C   0  0  0  0  0  0  0  0  0  0  0  0
  -48.8001   56.5420   59.4725 C   0  0  0  0  0  0  0  0  0  0  0  0
  -47.4833   57.3344   59.4859 C   0  0  0  0  0  0  0  0  0  0  0  0
  -46.9674   57.7393   58.0927 C   0  0  0  0  0  0  0  0  0  0  0  0
  -45.4696   58.0346   58.0658 C   0  0  0  0  0  0  0  0  0  0  0  0
  -40.0214   60.6828   62.3238 O   0  0  0  0  0  0  0  0  0  0  0  0
  -38.7087   60.1915   62.5214 C   0  0  0  0  0  0  0  0  0  0  0  0
  -40.0739   61.5997   62.6362 H   0  0  0  0  0  0  0  0  0  0  0  0
  -38.5573   58.7440   62.0477 C   0  0  0  0  0  0  0  0  0  0  0  0
  -37.5916   58.3482   61.2010 C   0  0  0  0  0  0  0  0  0  0  0  0
  -37.5078   56.8839   60.7743 C   0  0  0  0  0  0  0  0  0  0  0  0
  -36.6773   56.6533   59.5033 C   0  0  0  0  0  0  0  0  0  0  0  0
  -35.8019   55.3865   59.4999 C   0  0  0  0  0  0  0  0  0  0  0  0
  -34.3561   55.7166   59.9426 C   0  0  0  0  0  0  0  0  0  0  0  0
  -34.1837   56.0462   61.4469 C   0  0  0  0  0  0  0  0  0  0  0  0
  -33.0008   56.9939   61.7563 C   0  0  0  0  0  0  0  0  0  0  0  0
  -33.4400   58.4165   62.1651 C   0  0  0  0  0  0  0  0  0  0  0  0
  -32.2836   59.3112   62.6272 C   0  0  0  0  0  0  0  0  0  0  0  0
  -31.0197   59.2705   61.7709 C   0  0  0  0  0  0  0  0  0  0  0  0
  -30.3173   60.6351   61.6267 C   0  0  0  0  0  0  0  0  0  0  0  0
  -29.8478   61.2721   62.9434 C   0  0  0  0  0  0  0  0  0  0  0  0
  -30.3219   62.7243   63.0514 C   0  0  0  0  0  0  0  0  0  0  0  0
  -30.6117   63.4389   61.7434 C   0  0  0  0  0  0  0  0  0  0  0  0
  -37.0975   59.8701   64.5526 C   0  0  0  0  0  0  0  0  0  0  0  0
  -35.9630   60.4596   63.8680 O   0  0  0  0  0  0  0  0  0  0  0  0
  -33.9866   62.0530   62.5518 O   0  0  0  0  0  0  0  0  0  0  0  0
  -35.5318   65.0561   64.9999 O   0  0  0  0  0  0  0  0  0  0  0  0
  -35.8077   62.1112   65.6381 O   0  0  0  0  0  0  0  0  0  0  0  0
  -35.1329   61.4957   64.5141 C   0  0  0  0  0  0  0  0  0  0  0  0
  -34.6681   62.6484   63.6126 C   0  0  0  0  0  0  0  0  0  0  0  0
  -33.7085   63.6354   64.3127 C   0  0  0  0  0  0  0  0  0  0  0  0
  -34.4753   64.2205   65.4664 C   0  0  0  0  0  0  0  0  0  0  0  0
  -35.0155   63.1049   66.3428 C   0  0  0  0  0  0  0  0  0  0  0  0
  -34.5750   61.4286   62.0994 H   0  0  0  0  0  0  0  0  0  0  0  0
  -35.1649   65.7607   64.4430 H   0  0  0  0  0  0  0  0  0  0  0  0
  -37.0680   64.1277   67.0167 O   0  0  0  0  0  0  0  0  0  0  0  0
  -35.7514   63.8983   67.4202 C   0  0  0  0  0  0  0  0  0  0  0  0
  -37.5333   64.6317   67.7027 H   0  0  0  0  0  0  0  0  0  0  0  0
  -33.2610   64.7569   63.5178 O   0  0  0  0  0  0  0  0  0  0  0  0
  -31.4398   66.5379   63.0404 O   0  0  0  0  0  0  0  0  0  0  0  0
  -31.4424   65.3686   65.1668 O   0  0  0  0  0  0  0  0  0  0  0  0
  -33.0781   67.1020   64.7266 O   0  0  0  0  0  0  0  0  0  0  0  0
  -32.3061   65.9802   64.1207 S   0  0  0  0  0  0  0  0  0  0  0  0
  -30.9285   65.8209   62.6335 H   0  0  0  0  0  0  0  0  0  0  0  0
  -33.6444   67.5068   64.0510 H   0  0  0  0  0  0  0  0  0  0  0  0
  2  1  1  0  0  0
  2  4  1  0  0  0
  2  5  1  0  0  0
 41 42  1  0  0  0
 41  1  1  0  0  0
 42 46  1  0  0  0
  1 24  1  0  0  0
 23 24  1  0  0  0
 23 25  1  0  0  0
 24 26  1  0  0  0
  3  4  2  0  0  0
 26 27  2  0  0  0
 27 28  1  0  0  0
 43 47  1  0  0  0
 43 51  1  0  0  0
 28 29  1  0  0  0
 56 48  1  0  0  0
 56 60  1  0  0  0
 29 30  1  0  0  0
 57 60  1  0  0  0
 57 61  1  0  0  0
 30 31  1  0  0  0
 44 49  1  0  0  0
 44 52  1  0  0  0
 31 32  1  0  0  0
 45 46  1  0  0  0
 45 50  1  0  0  0
 32 33  1  0  0  0
 53 54  1  0  0  0
 53 55  1  0  0  0
 33 34  1  0  0  0
 34 35  1  0  0  0
 35 36  1  0  0  0
 58 60  1  0  0  0
 36 37  1  0  0  0
 59 60  1  0  0  0
 59 62  1  0  0  0
 37 38  1  0  0  0
 38 39  1  0  0  0
 39 40  1  0  0  0
  4  6  1  0  0  0
  6  7  1  0  0  0
  7  8  1  0  0  0
  8  9  1  0  0  0
  9 10  1  0  0  0
 10 11  1  0  0  0
 11 12  1  0  0  0
 12 13  1  0  0  0
 13 14  1  0  0  0
 14 15  1  0  0  0
 15 16  1  0  0  0
 16 17  1  0  0  0
 17 18  1  0  0  0
 18 19  1  0  0  0
 19 20  1  0  0  0
 20 21  1  0  0  0
 21 22  1  0  0  0
 46 47  1  0  0  0
 47 48  1  0  0  0
 48 49  1  0  0  0
 49 50  1  0  0  0
 50 54  1  0  0  0
M  CHG 1  58  -1
M  END
> <minimizedAffinity>
-9.52111

> <CNNscore>
0.6189524531

> <CNNaffinity>
7.2601761818

> <CNN_VS>
4.4937038422

> <CNNaffinity_variance>
0.8507339358

$$$$
/media/chris/experiments/cd1a-new-docking/inputs/ligands/1onq_ligand.pdb


 62 62  0  0  0  0  0  0  0  0999 V2000
  -38.5095   60.6731   63.2242 C   0  0  0  0  0  0  0  0  0  0  0  0
  -39.3874   59.7366   63.8973 N   0  0  0  0  0  0  0  0  0  0  0  0
  -39.6026   60.6787   65.9500 O   0  0  0  0  0  0  0  0  0  0  0  0
  -39.8536   59.7964   65.1522 C   0  0  0  0  0  0  0  0  0  0  0  0
  -39.6775   58.9598   63.3664 H   0  0  0  0  0  0  0  0  0  0  0  0
  -40.7570   58.6677   65.5514 C   0  0  0  0  0  0  0  0  0  0  0  0
  -41.9469   59.2996   66.2737 C   0  0  0  0  0  0  0  0  0  0  0  0
  -43.2444   58.9422   65.5527 C   0  0  0  0  0  0  0  0  0  0  0  0
  -44.4753   58.8293   66.4191 C   0  0  0  0  0  0  0  0  0  0  0  0
  -45.6768   58.6675   65.4938 C   0  0  0  0  0  0  0  0  0  0  0  0
  -47.0145   58.8712   66.2177 C   0  0  0  0  0  0  0  0  0  0  0  0
  -47.9739   57.6708   66.1230 C   0  0  0  0  0  0  0  0  0  0  0  0
  -49.3073   58.0214   65.4269 C   0  0  0  0  0  0  0  0  0  0  0  0
  -49.3438   59.5039   65.0452 C   0  0  0  0  0  0  0  0  0  0  0  0
  -50.0422   59.8135   63.7266 C   0  0  0  0  0  0  0  0  0  0  0  0
  -49.9091   58.6781   62.7225 C   0  0  0  0  0  0  0  0  0  0  0  0
  -51.2096   58.2027   62.0707 C   0  0  0  0  0  0  0  0  0  0  0  0
  -50.8617   57.1489   61.0281 C   0  0  0  0  0  0  0  0  0  0  0  0
  -49.4001   56.9444   60.6574 C   0  0  0  0  0  0  0  0  0  0  0  0
  -48.9898   57.8747   59.5050 C   0  0  0  0  0  0  0  0  0  0  0  0
  -47.8827   57.3129   58.5940 C   0  0  0  0  0  0  0  0  0  0  0  0
  -46.4950   57.3631   59.2287 C   0  0  0  0  0  0  0  0  0  0  0  0
  -40.4074   60.6894   61.8851 O   0  0  0  0  0  0  0  0  0  0  0  0
  -38.9975   60.6101   61.7871 C   0  0  0  0  0  0  0  0  0  0  0  0
  -40.6563   61.5345   62.2912 H   0  0  0  0  0  0  0  0  0  0  0  0
  -38.5366   59.2959   61.1523 C   0  0  0  0  0  0  0  0  0  0  0  0
  -37.9473   59.2328   59.9462 C   0  0  0  0  0  0  0  0  0  0  0  0
  -37.5163   57.8810   59.3803 C   0  0  0  0  0  0  0  0  0  0  0  0
  -36.7266   57.9801   58.0670 C   0  0  0  0  0  0  0  0  0  0  0  0
  -35.9188   56.7278   57.6789 C   0  0  0  0  0  0  0  0  0  0  0  0
  -34.4072   56.9514   57.9245 C   0  0  0  0  0  0  0  0  0  0  0  0
  -33.7547   55.9920   58.9516 C   0  0  0  0  0  0  0  0  0  0  0  0
  -34.5436   55.8483   60.2744 C   0  0  0  0  0  0  0  0  0  0  0  0
  -33.7479   56.2957   61.5197 C   0  0  0  0  0  0  0  0  0  0  0  0
  -33.8075   57.8054   61.7814 C   0  0  0  0  0  0  0  0  0  0  0  0
  -32.7732   58.3586   62.7595 C   0  0  0  0  0  0  0  0  0  0  0  0
  -31.5699   59.0403   62.0788 C   0  0  0  0  0  0  0  0  0  0  0  0
  -31.5756   60.5759   62.1241 C   0  0  0  0  0  0  0  0  0  0  0  0
  -30.2963   61.1488   61.5072 C   0  0  0  0  0  0  0  0  0  0  0  0
  -28.9903   60.7561   62.1746 C   0  0  0  0  0  0  0  0  0  0  0  0
  -36.9976   60.4562   63.4609 C   0  0  0  0  0  0  0  0  0  0  0  0
  -36.1029   61.4377   62.8783 O   0  0  0  0  0  0  0  0  0  0  0  0
  -33.8849   62.9496   61.8924 O   0  0  0  0  0  0  0  0  0  0  0  0
  -35.0277   65.6025   64.9017 O   0  0  0  0  0  0  0  0  0  0  0  0
  -35.7470   62.6636   64.9412 O   0  0  0  0  0  0  0  0  0  0  0  0
  -35.1446   62.1903   63.7122 C   0  0  0  0  0  0  0  0  0  0  0  0
  -34.4955   63.4170   63.0555 C   0  0  0  0  0  0  0  0  0  0  0  0
  -33.4175   64.0921   63.9317 C   0  0  0  0  0  0  0  0  0  0  0  0
  -34.1161   64.5436   65.1844 C   0  0  0  0  0  0  0  0  0  0  0  0
  -34.8337   63.3690   65.8244 C   0  0  0  0  0  0  0  0  0  0  0  0
  -34.5482   62.5217   61.3287 H   0  0  0  0  0  0  0  0  0  0  0  0
  -34.5490   66.3412   64.4941 H   0  0  0  0  0  0  0  0  0  0  0  0
  -36.8484   64.1397   66.8541 O   0  0  0  0  0  0  0  0  0  0  0  0
  -35.4694   64.0330   67.0438 C   0  0  0  0  0  0  0  0  0  0  0  0
  -37.2498   64.5616   67.6299 H   0  0  0  0  0  0  0  0  0  0  0  0
  -32.7925   65.2700   63.3733 O   0  0  0  0  0  0  0  0  0  0  0  0
  -31.4677   64.5888   61.2525 O   0  0  0  0  0  0  0  0  0  0  0  0
  -30.4097   64.4212   63.4300 O   0  0  0  0  0  0  0  0  0  0  0  0
  -30.7213   66.5878   62.3894 O   0  0  0  0  0  0  0  0  0  0  0  0
  -31.3245   65.2395   62.5885 S   0  0  0  0  0  0  0  0  0  0  0  0
  -31.8595   63.7082   61.3622 H   0  0  0  0  0  0  0  0  0  0  0  0
  -31.3116   67.1283   61.8414 H   0  0  0  0  0  0  0  0  0  0  0  0
  2  1  1  0  0  0
  2  4  1  0  0  0
  2  5  1  0  0  0
 41 42  1  0  0  0
 41  1  1  0  0  0
 42 46  1  0  0  0
  1 24  1  0  0  0
 23 24  1  0  0  0
 23 25  1  0  0  0
 24 26  1  0  0  0
  3  4  2  0  0  0
 26 27  2  0  0  0
 27 28  1  0  0  0
 43 47  1  0  0  0
 43 51  1  0  0  0
 28 29  1  0  0  0
 56 48  1  0  0  0
 56 60  1  0  0  0
 29 30  1  0  0  0
 57 60  1  0  0  0
 57 61  1  0  0  0
 30 31  1  0  0  0
 44 49  1  0  0  0
 44 52  1  0  0  0
 31 32  1  0  0  0
 45 46  1  0  0  0
 45 50  1  0  0  0
 32 33  1  0  0  0
 53 54  1  0  0  0
 53 55  1  0  0  0
 33 34  1  0  0  0
 34 35  1  0  0  0
 35 36  1  0  0  0
 58 60  1  0  0  0
 36 37  1  0  0  0
 59 60  1  0  0  0
 59 62  1  0  0  0
 37 38  1  0  0  0
 38 39  1  0  0  0
 39 40  1  0  0  0
  4  6  1  0  0  0
  6  7  1  0  0  0
  7  8  1  0  0  0
  8  9  1  0  0  0
  9 10  1  0  0  0
 10 11  1  0  0  0
 11 12  1  0  0  0
 12 13  1  0  0  0
 13 14  1  0  0  0
 14 15  1  0  0  0
 15 16  1  0  0  0
 16 17  1  0  0  0
 17 18  1  0  0  0
 18 19  1  0  0  0
 19 20  1  0  0  0
 20 21  1  0  0  0
 21 22  1  0  0  0
 46 47  1  0  0  0
 47 48  1  0  0  0
 48 49  1  0  0  0
 49 50  1  0  0  0
 50 54  1  0  0  0
M  CHG 1  58  -1
M  END
> <minimizedAffinity>
-9.87694

> <CNNscore>
0.6099560857

> <CNNaffinity>
7.1887636185

> <CNN_VS>
4.3848299980

> <CNNaffinity_variance>
0.9534557462

$$$$
/media/chris/experiments/cd1a-new-docking/inputs/ligands/1onq_ligand.pdb


 62 62  0  0  0  0  0  0  0  0999 V2000
  -40.1000   60.0891   65.4082 C   0  0  0  0  0  0  0  0  0  0  0  0
  -41.2235   59.1768   65.3281 N   0  0  0  0  0  0  0  0  0  0  0  0
  -42.2890   59.5619   67.2937 O   0  0  0  0  0  0  0  0  0  0  0  0
  -42.1957   58.9819   66.2294 C   0  0  0  0  0  0  0  0  0  0  0  0
  -41.2793   58.6326   64.5095 H   0  0  0  0  0  0  0  0  0  0  0  0
  -43.2283   57.9646   65.8438 C   0  0  0  0  0  0  0  0  0  0  0  0
  -44.5298   58.7334   65.6152 C   0  0  0  0  0  0  0  0  0  0  0  0
  -45.4011   58.6677   66.8672 C   0  0  0  0  0  0  0  0  0  0  0  0
  -46.8893   58.5677   66.6352 C   0  0  0  0  0  0  0  0  0  0  0  0
  -47.1105   57.6114   65.4681 C   0  0  0  0  0  0  0  0  0  0  0  0
  -48.3073   58.0094   64.5939 C   0  0  0  0  0  0  0  0  0  0  0  0
  -48.2029   59.4187   63.9827 C   0  0  0  0  0  0  0  0  0  0  0  0
  -49.5115   60.2285   64.1138 C   0  0  0  0  0  0  0  0  0  0  0  0
  -50.7301   59.3138   63.9614 C   0  0  0  0  0  0  0  0  0  0  0  0
  -51.2010   59.1004   62.5279 C   0  0  0  0  0  0  0  0  0  0  0  0
  -50.9370   57.6842   62.0383 C   0  0  0  0  0  0  0  0  0  0  0  0
  -50.8299   57.5073   60.5220 C   0  0  0  0  0  0  0  0  0  0  0  0
  -49.6951   56.5332   60.2356 C   0  0  0  0  0  0  0  0  0  0  0  0
  -48.3335   57.0927   59.8505 C   0  0  0  0  0  0  0  0  0  0  0  0
  -48.1387   57.0646   58.3262 C   0  0  0  0  0  0  0  0  0  0  0  0
  -46.7292   57.4675   57.8550 C   0  0  0  0  0  0  0  0  0  0  0  0
  -45.7192   57.5756   58.9950 C   0  0  0  0  0  0  0  0  0  0  0  0
  -41.4534   61.3542   64.0069 O   0  0  0  0  0  0  0  0  0  0  0  0
  -40.1530   60.7982   64.0659 C   0  0  0  0  0  0  0  0  0  0  0  0
  -41.5664   61.9897   64.7310 H   0  0  0  0  0  0  0  0  0  0  0  0
  -39.9084   59.7834   62.9465 C   0  0  0  0  0  0  0  0  0  0  0  0
  -39.2340   60.0814   61.8230 C   0  0  0  0  0  0  0  0  0  0  0  0
  -39.0325   59.0122   60.7508 C   0  0  0  0  0  0  0  0  0  0  0  0
  -38.2089   59.4882   59.5452 C   0  0  0  0  0  0  0  0  0  0  0  0
  -37.8820   58.4111   58.4944 C   0  0  0  0  0  0  0  0  0  0  0  0
  -36.3775   58.0497   58.5279 C   0  0  0  0  0  0  0  0  0  0  0  0
  -36.0379   56.5922   58.1259 C   0  0  0  0  0  0  0  0  0  0  0  0
  -35.5504   55.7088   59.2985 C   0  0  0  0  0  0  0  0  0  0  0  0
  -35.7498   56.3582   60.6851 C   0  0  0  0  0  0  0  0  0  0  0  0
  -34.4516   56.5160   61.4859 C   0  0  0  0  0  0  0  0  0  0  0  0
  -33.5043   57.6188   61.0183 C   0  0  0  0  0  0  0  0  0  0  0  0
  -32.4693   58.0457   62.0779 C   0  0  0  0  0  0  0  0  0  0  0  0
  -32.1774   59.5528   62.1379 C   0  0  0  0  0  0  0  0  0  0  0  0
  -30.7144   59.8151   62.5072 C   0  0  0  0  0  0  0  0  0  0  0  0
  -29.9074   60.6425   61.5225 C   0  0  0  0  0  0  0  0  0  0  0  0
  -38.7512   59.4504   65.8106 C   0  0  0  0  0  0  0  0  0  0  0  0
  -37.6755   59.5434   64.8424 O   0  0  0  0  0  0  0  0  0  0  0  0
  -35.5765   60.0019   62.9553 O   0  0  0  0  0  0  0  0  0  0  0  0
  -36.2232   63.9895   63.9946 O   0  0  0  0  0  0  0  0  0  0  0  0
  -37.0063   61.6774   65.7825 O   0  0  0  0  0  0  0  0  0  0  0  0
  -36.5920   60.5348   64.9949 C   0  0  0  0  0  0  0  0  0  0  0  0
  -36.0081   61.1032   63.6936 C   0  0  0  0  0  0  0  0  0  0  0  0
  -34.8023   62.0429   63.9131 C   0  0  0  0  0  0  0  0  0  0  0  0
  -35.3091   63.1907   64.7419 C   0  0  0  0  0  0  0  0  0  0  0  0
  -35.9618   62.6624   66.0065 C   0  0  0  0  0  0  0  0  0  0  0  0
  -36.3221   59.3995   62.8075 H   0  0  0  0  0  0  0  0  0  0  0  0
  -35.7863   64.3160   63.1924 H   0  0  0  0  0  0  0  0  0  0  0  0
  -36.3962   63.7942   68.0665 O   0  0  0  0  0  0  0  0  0  0  0  0
  -36.4054   63.9590   66.6803 C   0  0  0  0  0  0  0  0  0  0  0  0
  -36.6783   64.6190   68.4921 H   0  0  0  0  0  0  0  0  0  0  0  0
  -34.2299   62.6292   62.7221 O   0  0  0  0  0  0  0  0  0  0  0  0
  -32.9361   64.8715   62.8451 O   0  0  0  0  0  0  0  0  0  0  0  0
  -32.1439   63.1115   61.3741 O   0  0  0  0  0  0  0  0  0  0  0  0
  -31.8210   62.9357   63.7697 O   0  0  0  0  0  0  0  0  0  0  0  0
  -32.7527   63.3969   62.7017 S   0  0  0  0  0  0  0  0  0  0  0  0
  -33.5408   65.1905   62.1569 H   0  0  0  0  0  0  0  0  0  0  0  0
  -32.2103   63.1180   64.6392 H   0  0  0  0  0  0  0  0  0  0  0  0
  2  1  1  0  0  0
  2  4  1  0  0  0
  2  5  1  0  0  0
 41 42  1  0  0  0
 41  1  1  0  0  0
 42 46  1  0  0  0
  1 24  1  0  0  0
 23 24  1  0  0  0
 23 25  1  0  0  0
 24 26  1  0  0  0
  3  4  2  0  0  0
 26 27  2  0  0  0
 27 28  1  0  0  0
 43 47  1  0  0  0
 43 51  1  0  0  0
 28 29  1  0  0  0
 56 48  1  0  0  0
 56 60  1  0  0  0
 29 30  1  0  0  0
 57 60  1  0  0  0
 57 61  1  0  0  0
 30 31  1  0  0  0
 44 49  1  0  0  0
 44 52  1  0  0  0
 31 32  1  0  0  0
 45 46  1  0  0  0
 45 50  1  0  0  0
 32 33  1  0  0  0
 53 54  1  0  0  0
 53 55  1  0  0  0
 33 34  1  0  0  0
 34 35  1  0  0  0
 35 36  1  0  0  0
 58 60  1  0  0  0
 36 37  1  0  0  0
 59 60  1  0  0  0
 59 62  1  0  0  0
 37 38  1  0  0  0
 38 39  1  0  0  0
 39 40  1  0  0  0
  4  6  1  0  0  0
  6  7  1  0  0  0
  7  8  1  0  0  0
  8  9  1  0  0  0
  9 10  1  0  0  0
 10 11  1  0  0  0
 11 12  1  0  0  0
 12 13  1  0  0  0
 13 14  1  0  0  0
 14 15  1  0  0  0
 15 16  1  0  0  0
 16 17  1  0  0  0
 17 18  1  0  0  0
 18 19  1  0  0  0
 19 20  1  0  0  0
 20 21  1  0  0  0
 21 22  1  0  0  0
 46 47  1  0  0  0
 47 48  1  0  0  0
 48 49  1  0  0  0
 49 50  1  0  0  0
 50 54  1  0  0  0
M  CHG 1  58  -1
M  END
> <minimizedAffinity>
-9.62070

> <CNNscore>
0.4280765057

> <CNNaffinity>
7.2945389748

> <CNN_VS>
3.1226208210

> <CNNaffinity_variance>
0.9575260878

$$$$
/media/chris/experiments/cd1a-new-docking/inputs/ligands/1onq_ligand.pdb


 62 62  0  0  0  0  0  0  0  0999 V2000
  -40.0512   58.8975   64.5817 C   0  0  0  0  0  0  0  0  0  0  0  0
  -41.0847   58.1893   65.3107 N   0  0  0  0  0  0  0  0  0  0  0  0
  -42.8808   59.5458   65.0260 O   0  0  0  0  0  0  0  0  0  0  0  0
  -42.3670   58.5408   65.4774 C   0  0  0  0  0  0  0  0  0  0  0  0
  -40.8104   57.3449   65.7362 H   0  0  0  0  0  0  0  0  0  0  0  0
  -43.1912   57.5822   66.2844 C   0  0  0  0  0  0  0  0  0  0  0  0
  -44.5910   58.1891   66.3812 C   0  0  0  0  0  0  0  0  0  0  0  0
  -45.5946   57.1202   66.8068 C   0  0  0  0  0  0  0  0  0  0  0  0
  -46.7523   56.8854   65.8671 C   0  0  0  0  0  0  0  0  0  0  0  0
  -46.7239   57.9900   64.8159 C   0  0  0  0  0  0  0  0  0  0  0  0
  -47.9892   58.8580   64.8335 C   0  0  0  0  0  0  0  0  0  0  0  0
  -49.1781   58.2276   65.5816 C   0  0  0  0  0  0  0  0  0  0  0  0
  -50.5349   58.8507   65.1864 C   0  0  0  0  0  0  0  0  0  0  0  0
  -50.3712   59.7809   63.9810 C   0  0  0  0  0  0  0  0  0  0  0  0
  -51.2895   59.4781   62.8032 C   0  0  0  0  0  0  0  0  0  0  0  0
  -51.1365   58.0487   62.3046 C   0  0  0  0  0  0  0  0  0  0  0  0
  -49.7471   57.6615   61.7931 C   0  0  0  0  0  0  0  0  0  0  0  0
  -49.5723   58.2494   60.3994 C   0  0  0  0  0  0  0  0  0  0  0  0
  -49.9431   57.3953   59.1959 C   0  0  0  0  0  0  0  0  0  0  0  0
  -48.6867   56.8284   58.5160 C   0  0  0  0  0  0  0  0  0  0  0  0
  -47.3598   57.4038   59.0445 C   0  0  0  0  0  0  0  0  0  0  0  0
  -46.4983   58.0352   57.9534 C   0  0  0  0  0  0  0  0  0  0  0  0
  -38.1149   57.6499   64.8821 O   0  0  0  0  0  0  0  0  0  0  0  0
  -39.2190   57.7657   64.0039 C   0  0  0  0  0  0  0  0  0  0  0  0
  -38.4308   57.4198   65.7700 H   0  0  0  0  0  0  0  0  0  0  0  0
  -38.7882   58.1285   62.5807 C   0  0  0  0  0  0  0  0  0  0  0  0
  -39.3650   59.1124   61.8699 C   0  0  0  0  0  0  0  0  0  0  0  0
  -38.8783   59.4131   60.4536 C   0  0  0  0  0  0  0  0  0  0  0  0
  -37.6858   58.5531   60.0103 C   0  0  0  0  0  0  0  0  0  0  0  0
  -37.6110   58.2434   58.5037 C   0  0  0  0  0  0  0  0  0  0  0  0
  -36.2490   57.6037   58.1414 C   0  0  0  0  0  0  0  0  0  0  0  0
  -36.1612   56.0709   58.3514 C   0  0  0  0  0  0  0  0  0  0  0  0
  -35.4704   55.6507   59.6702 C   0  0  0  0  0  0  0  0  0  0  0  0
  -33.9878   56.0737   59.7527 C   0  0  0  0  0  0  0  0  0  0  0  0
  -33.5108   56.3791   61.1777 C   0  0  0  0  0  0  0  0  0  0  0  0
  -33.5160   57.8506   61.5865 C   0  0  0  0  0  0  0  0  0  0  0  0
  -32.1264   58.3997   61.9657 C   0  0  0  0  0  0  0  0  0  0  0  0
  -32.0574   59.9204   62.1721 C   0  0  0  0  0  0  0  0  0  0  0  0
  -30.7610   60.4955   61.5943 C   0  0  0  0  0  0  0  0  0  0  0  0
  -29.5827   60.5943   62.5468 C   0  0  0  0  0  0  0  0  0  0  0  0
  -39.2972   59.9836   65.3821 C   0  0  0  0  0  0  0  0  0  0  0  0
  -38.7255   61.0741   64.6157 O   0  0  0  0  0  0  0  0  0  0  0  0
  -37.1118   63.4249   64.3997 O   0  0  0  0  0  0  0  0  0  0  0  0
  -34.2549   60.9977   66.2291 O   0  0  0  0  0  0  0  0  0  0  0  0
  -36.6106   59.8879   64.6880 O   0  0  0  0  0  0  0  0  0  0  0  0
  -37.2907   61.0956   64.2680 C   0  0  0  0  0  0  0  0  0  0  0  0
  -36.4748   62.2646   64.8381 C   0  0  0  0  0  0  0  0  0  0  0  0
  -35.0116   62.2986   64.3449 C   0  0  0  0  0  0  0  0  0  0  0  0
  -34.3814   61.0146   64.8093 C   0  0  0  0  0  0  0  0  0  0  0  0
  -35.2043   59.8342   64.3259 C   0  0  0  0  0  0  0  0  0  0  0  0
  -38.0338   63.4209   64.7008 H   0  0  0  0  0  0  0  0  0  0  0  0
  -33.7266   61.7591   66.5158 H   0  0  0  0  0  0  0  0  0  0  0  0
  -35.1036   57.4702   64.6644 O   0  0  0  0  0  0  0  0  0  0  0  0
  -34.4147   58.6610   64.9021 C   0  0  0  0  0  0  0  0  0  0  0  0
  -34.6001   56.7266   65.0312 H   0  0  0  0  0  0  0  0  0  0  0  0
  -34.1889   63.3638   64.8726 O   0  0  0  0  0  0  0  0  0  0  0  0
  -33.5559   64.0982   62.4691 O   0  0  0  0  0  0  0  0  0  0  0  0
  -31.8967   64.2246   64.2355 O   0  0  0  0  0  0  0  0  0  0  0  0
  -33.6895   65.8519   64.1281 O   0  0  0  0  0  0  0  0  0  0  0  0
  -33.3355   64.4207   63.9100 S   0  0  0  0  0  0  0  0  0  0  0  0
  -33.3302   63.1686   62.3077 H   0  0  0  0  0  0  0  0  0  0  0  0
  -34.6266   65.9888   63.9181 H   0  0  0  0  0  0  0  0  0  0  0  0
  2  1  1  0  0  0
  2  4  1  0  0  0
  2  5  1  0  0  0
 41 42  1  0  0  0
 41  1  1  0  0  0
 42 46  1  0  0  0
  1 24  1  0  0  0
 23 24  1  0  0  0
 23 25  1  0  0  0
 24 26  1  0  0  0
  3  4  2  0  0  0
 26 27  2  0  0  0
 27 28  1  0  0  0
 43 47  1  0  0  0
 43 51  1  0  0  0
 28 29  1  0  0  0
 56 48  1  0  0  0
 56 60  1  0  0  0
 29 30  1  0  0  0
 57 60  1  0  0  0
 57 61  1  0  0  0
 30 31  1  0  0  0
 44 49  1  0  0  0
 44 52  1  0  0  0
 31 32  1  0  0  0
 45 46  1  0  0  0
 45 50  1  0  0  0
 32 33  1  0  0  0
 53 54  1  0  0  0
 53 55  1  0  0  0
 33 34  1  0  0  0
 34 35  1  0  0  0
 35 36  1  0  0  0
 58 60  1  0  0  0
 36 37  1  0  0  0
 59 60  1  0  0  0
 59 62  1  0  0  0
 37 38  1  0  0  0
 38 39  1  0  0  0
 39 40  1  0  0  0
  4  6  1  0  0  0
  6  7  1  0  0  0
  7  8  1  0  0  0
  8  9  1  0  0  0
  9 10  1  0  0  0
 10 11  1  0  0  0
 11 12  1  0  0  0
 12 13  1  0  0  0
 13 14  1  0  0  0
 14 15  1  0  0  0
 15 16  1  0  0  0
 16 17  1  0  0  0
 17 18  1  0  0  0
 18 19  1  0  0  0
 19 20  1  0  0  0
 20 21  1  0  0  0
 21 22  1  0  0  0
 46 47  1  0  0  0
 47 48  1  0  0  0
 48 49  1  0  0  0
 49 50  1  0  0  0
 50 54  1  0  0  0
M  CHG 1  58  -1
M  END
> <minimizedAffinity>
-9.40057

> <CNNscore>
0.3643709421

> <CNNaffinity>
7.1301803589

> <CNN_VS>
2.5980305672

> <CNNaffinity_variance>
1.1733063459

$$$$
/media/chris/experiments/cd1a-new-docking/inputs/ligands/1onq_ligand.pdb


 62 62  0  0  0  0  0  0  0  0999 V2000
  -40.1914   59.0577   64.9541 C   0  0  0  0  0  0  0  0  0  0  0  0
  -39.6824   58.3892   63.7730 N   0  0  0  0  0  0  0  0  0  0  0  0
  -37.7249   57.5226   64.5245 O   0  0  0  0  0  0  0  0  0  0  0  0
  -38.5407   57.7001   63.6409 C   0  0  0  0  0  0  0  0  0  0  0  0
  -40.2455   58.4487   62.9676 H   0  0  0  0  0  0  0  0  0  0  0  0
  -38.3021   57.1164   62.2800 C   0  0  0  0  0  0  0  0  0  0  0  0
  -37.6386   58.2139   61.4479 C   0  0  0  0  0  0  0  0  0  0  0  0
  -38.6977   58.9886   60.6672 C   0  0  0  0  0  0  0  0  0  0  0  0
  -38.3946   59.2421   59.2104 C   0  0  0  0  0  0  0  0  0  0  0  0
  -37.0735   58.5520   58.8877 C   0  0  0  0  0  0  0  0  0  0  0  0
  -37.1910   57.5621   57.7209 C   0  0  0  0  0  0  0  0  0  0  0  0
  -36.2628   56.3389   57.8336 C   0  0  0  0  0  0  0  0  0  0  0  0
  -36.4450   55.5669   59.1588 C   0  0  0  0  0  0  0  0  0  0  0  0
  -35.0859   55.2265   59.7767 C   0  0  0  0  0  0  0  0  0  0  0  0
  -34.1110   56.3936   59.8736 C   0  0  0  0  0  0  0  0  0  0  0  0
  -33.3837   56.4288   61.2096 C   0  0  0  0  0  0  0  0  0  0  0  0
  -34.0079   57.3144   62.2904 C   0  0  0  0  0  0  0  0  0  0  0  0
  -32.9393   58.2749   62.7943 C   0  0  0  0  0  0  0  0  0  0  0  0
  -32.2705   59.2099   61.7974 C   0  0  0  0  0  0  0  0  0  0  0  0
  -30.8523   59.5820   62.2585 C   0  0  0  0  0  0  0  0  0  0  0  0
  -30.2105   60.7429   61.4766 C   0  0  0  0  0  0  0  0  0  0  0  0
  -29.0464   61.3983   62.2160 C   0  0  0  0  0  0  0  0  0  0  0  0
  -41.5429   60.8054   64.2362 O   0  0  0  0  0  0  0  0  0  0  0  0
  -41.6068   59.4248   64.5424 C   0  0  0  0  0  0  0  0  0  0  0  0
  -40.9281   60.9448   63.4990 H   0  0  0  0  0  0  0  0  0  0  0  0
  -42.5632   59.1350   65.7016 C   0  0  0  0  0  0  0  0  0  0  0  0
  -43.8289   58.7211   65.5203 C   0  0  0  0  0  0  0  0  0  0  0  0
  -44.7222   58.4537   66.7301 C   0  0  0  0  0  0  0  0  0  0  0  0
  -46.1669   58.9447   66.5569 C   0  0  0  0  0  0  0  0  0  0  0  0
  -46.4731   59.6588   65.2273 C   0  0  0  0  0  0  0  0  0  0  0  0
  -47.9894   59.9364   65.0895 C   0  0  0  0  0  0  0  0  0  0  0  0
  -48.9178   58.7901   65.5644 C   0  0  0  0  0  0  0  0  0  0  0  0
  -50.4234   59.0551   65.3278 C   0  0  0  0  0  0  0  0  0  0  0  0
  -50.7055   59.9869   64.1294 C   0  0  0  0  0  0  0  0  0  0  0  0
  -51.6158   59.3646   63.0639 C   0  0  0  0  0  0  0  0  0  0  0  0
  -50.9571   58.3583   62.1226 C   0  0  0  0  0  0  0  0  0  0  0  0
  -49.6867   58.8887   61.4292 C   0  0  0  0  0  0  0  0  0  0  0  0
  -49.4011   58.2935   60.0420 C   0  0  0  0  0  0  0  0  0  0  0  0
  -48.2880   57.2440   60.1127 C   0  0  0  0  0  0  0  0  0  0  0  0
  -48.5707   55.9135   59.4379 C   0  0  0  0  0  0  0  0  0  0  0  0
  -39.3053   60.1962   65.5085 C   0  0  0  0  0  0  0  0  0  0  0  0
  -38.6228   61.0213   64.5304 O   0  0  0  0  0  0  0  0  0  0  0  0
  -36.6703   61.4630   62.4884 O   0  0  0  0  0  0  0  0  0  0  0  0
  -35.7174   64.7704   64.8448 O   0  0  0  0  0  0  0  0  0  0  0  0
  -37.1397   62.3317   65.9336 O   0  0  0  0  0  0  0  0  0  0  0  0
  -37.2422   61.4933   64.7570 C   0  0  0  0  0  0  0  0  0  0  0  0
  -36.6032   62.2889   63.6098 C   0  0  0  0  0  0  0  0  0  0  0  0
  -35.1227   62.6527   63.8564 C   0  0  0  0  0  0  0  0  0  0  0  0
  -35.1005   63.5093   65.0921 C   0  0  0  0  0  0  0  0  0  0  0  0
  -35.7915   62.7840   66.2326 C   0  0  0  0  0  0  0  0  0  0  0  0
  -37.5947   61.2238   62.3179 H   0  0  0  0  0  0  0  0  0  0  0  0
  -35.2610   65.2158   64.1138 H   0  0  0  0  0  0  0  0  0  0  0  0
  -34.3465   64.2439   67.4548 O   0  0  0  0  0  0  0  0  0  0  0  0
  -35.6694   63.8083   67.3585 C   0  0  0  0  0  0  0  0  0  0  0  0
  -34.2715   64.8944   68.1705 H   0  0  0  0  0  0  0  0  0  0  0  0
  -34.4784   63.4268   62.8193 O   0  0  0  0  0  0  0  0  0  0  0  0
  -32.1063   62.7700   63.6307 O   0  0  0  0  0  0  0  0  0  0  0  0
  -32.7055   65.1152   63.4572 O   0  0  0  0  0  0  0  0  0  0  0  0
  -32.2454   63.8233   61.4589 O   0  0  0  0  0  0  0  0  0  0  0  0
  -32.8510   63.7783   62.8200 S   0  0  0  0  0  0  0  0  0  0  0  0
  -32.4871   62.7266   64.5219 H   0  0  0  0  0  0  0  0  0  0  0  0
  -32.3360   62.9551   61.0358 H   0  0  0  0  0  0  0  0  0  0  0  0
  2  1  1  0  0  0
  2  4  1  0  0  0
  2  5  1  0  0  0
 41 42  1  0  0  0
 41  1  1  0  0  0
 42 46  1  0  0  0
  1 24  1  0  0  0
 23 24  1  0  0  0
 23 25  1  0  0  0
 24 26  1  0  0  0
  3  4  2  0  0  0
 26 27  2  0  0  0
 27 28  1  0  0  0
 43 47  1  0  0  0
 43 51  1  0  0  0
 28 29  1  0  0  0
 56 48  1  0  0  0
 56 60  1  0  0  0
 29 30  1  0  0  0
 57 60  1  0  0  0
 57 61  1  0  0  0
 30 31  1  0  0  0
 44 49  1  0  0  0
 44 52  1  0  0  0
 31 32  1  0  0  0
 45 46  1  0  0  0
 45 50  1  0  0  0
 32 33  1  0  0  0
 53 54  1  0  0  0
 53 55  1  0  0  0
 33 34  1  0  0  0
 34 35  1  0  0  0
 35 36  1  0  0  0
 58 60  1  0  0  0
 36 37  1  0  0  0
 59 60  1  0  0  0
 59 62  1  0  0  0
 37 38  1  0  0  0
 38 39  1  0  0  0
 39 40  1  0  0  0
  4  6  1  0  0  0
  6  7  1  0  0  0
  7  8  1  0  0  0
  8  9  1  0  0  0
  9 10  1  0  0  0
 10 11  1  0  0  0
 11 12  1  0  0  0
 12 13  1  0  0  0
 13 14  1  0  0  0
 14 15  1  0  0  0
 15 16  1  0  0  0
 16 17  1  0  0  0
 17 18  1  0  0  0
 18 19  1  0  0  0
 19 20  1  0  0  0
 20 21  1  0  0  0
 21 22  1  0  0  0
 46 47  1  0  0  0
 47 48  1  0  0  0
 48 49  1  0  0  0
 49 50  1  0  0  0
 50 54  1  0  0  0
M  CHG 1  58  -1
M  END
> <minimizedAffinity>
-9.90037

> <CNNscore>
0.3469356596

> <CNNaffinity>
7.0821394920

> <CNN_VS>
2.4570467472

> <CNNaffinity_variance>
1.1276925802

$$$$
/media/chris/experiments/cd1a-new-docking/inputs/ligands/1onq_ligand.pdb


 62 62  0  0  0  0  0  0  0  0999 V2000
  -37.8212   59.2064   62.6060 C   0  0  0  0  0  0  0  0  0  0  0  0
  -38.8878   59.6581   63.4775 N   0  0  0  0  0  0  0  0  0  0  0  0
  -38.2621   58.7952   65.4803 O   0  0  0  0  0  0  0  0  0  0  0  0
  -39.0323   59.4350   64.7909 C   0  0  0  0  0  0  0  0  0  0  0  0
  -39.5940   60.1958   63.0514 H   0  0  0  0  0  0  0  0  0  0  0  0
  -40.2508   60.0506   65.4121 C   0  0  0  0  0  0  0  0  0  0  0  0
  -41.4086   59.7863   64.4493 C   0  0  0  0  0  0  0  0  0  0  0  0
  -42.6089   59.2359   65.2157 C   0  0  0  0  0  0  0  0  0  0  0  0
  -42.2925   58.3842   66.4211 C   0  0  0  0  0  0  0  0  0  0  0  0
  -43.0874   57.0891   66.2916 C   0  0  0  0  0  0  0  0  0  0  0  0
  -44.4217   57.2830   65.5588 C   0  0  0  0  0  0  0  0  0  0  0  0
  -45.5465   57.8624   66.4361 C   0  0  0  0  0  0  0  0  0  0  0  0
  -46.4474   56.7714   67.0553 C   0  0  0  0  0  0  0  0  0  0  0  0
  -47.7045   56.5629   66.2059 C   0  0  0  0  0  0  0  0  0  0  0  0
  -48.1113   57.7577   65.3521 C   0  0  0  0  0  0  0  0  0  0  0  0
  -49.6017   57.7677   65.0460 C   0  0  0  0  0  0  0  0  0  0  0  0
  -50.3796   58.9905   65.5376 C   0  0  0  0  0  0  0  0  0  0  0  0
  -50.8236   59.7923   64.3217 C   0  0  0  0  0  0  0  0  0  0  0  0
  -50.3241   59.3702   62.9477 C   0  0  0  0  0  0  0  0  0  0  0  0
  -51.3818   58.5327   62.2116 C   0  0  0  0  0  0  0  0  0  0  0  0
  -50.8047   57.4653   61.2635 C   0  0  0  0  0  0  0  0  0  0  0  0
  -49.8551   58.0392   60.2146 C   0  0  0  0  0  0  0  0  0  0  0  0
  -37.6702   56.9832   63.2624 O   0  0  0  0  0  0  0  0  0  0  0  0
  -38.2543   57.7924   62.2585 C   0  0  0  0  0  0  0  0  0  0  0  0
  -38.0195   57.2415   64.1297 H   0  0  0  0  0  0  0  0  0  0  0  0
  -37.7440   57.4352   60.8605 C   0  0  0  0  0  0  0  0  0  0  0  0
  -37.0384   56.3211   60.6014 C   0  0  0  0  0  0  0  0  0  0  0  0
  -36.5633   56.0357   59.1780 C   0  0  0  0  0  0  0  0  0  0  0  0
  -35.7269   57.1673   58.5631 C   0  0  0  0  0  0  0  0  0  0  0  0
  -34.1997   56.9941   58.6574 C   0  0  0  0  0  0  0  0  0  0  0  0
  -33.8363   55.8416   59.6243 C   0  0  0  0  0  0  0  0  0  0  0  0
  -33.4722   56.2775   61.0661 C   0  0  0  0  0  0  0  0  0  0  0  0
  -33.4753   57.8089   61.2848 C   0  0  0  0  0  0  0  0  0  0  0  0
  -32.5045   58.2767   62.3906 C   0  0  0  0  0  0  0  0  0  0  0  0
  -31.9580   59.6929   62.1744 C   0  0  0  0  0  0  0  0  0  0  0  0
  -30.4745   59.7942   61.8262 C   0  0  0  0  0  0  0  0  0  0  0  0
  -29.7287   60.9109   62.5830 C   0  0  0  0  0  0  0  0  0  0  0  0
  -30.5792   62.1387   62.9427 C   0  0  0  0  0  0  0  0  0  0  0  0
  -30.3954   63.2560   61.9115 C   0  0  0  0  0  0  0  0  0  0  0  0
  -29.1978   64.1679   62.1103 C   0  0  0  0  0  0  0  0  0  0  0  0
  -36.3891   59.3846   63.1592 C   0  0  0  0  0  0  0  0  0  0  0  0
  -35.7130   60.6223   62.8213 O   0  0  0  0  0  0  0  0  0  0  0  0
  -33.8361   62.7327   62.3733 O   0  0  0  0  0  0  0  0  0  0  0  0
  -36.1272   64.6780   65.2657 O   0  0  0  0  0  0  0  0  0  0  0  0
  -36.0458   61.6663   64.9857 O   0  0  0  0  0  0  0  0  0  0  0  0
  -35.1413   61.4928   63.8679 C   0  0  0  0  0  0  0  0  0  0  0  0
  -34.7356   62.9056   63.4246 C   0  0  0  0  0  0  0  0  0  0  0  0
  -34.0370   63.7263   64.5308 C   0  0  0  0  0  0  0  0  0  0  0  0
  -35.0311   63.8526   65.6520 C   0  0  0  0  0  0  0  0  0  0  0  0
  -35.5127   62.4748   66.0691 C   0  0  0  0  0  0  0  0  0  0  0  0
  -34.2584   62.2183   61.6678 H   0  0  0  0  0  0  0  0  0  0  0  0
  -35.7974   65.5518   65.0035 H   0  0  0  0  0  0  0  0  0  0  0  0
  -36.0409   63.9468   67.8767 O   0  0  0  0  0  0  0  0  0  0  0  0
  -36.4972   62.8247   67.1827 C   0  0  0  0  0  0  0  0  0  0  0  0
  -36.6679   64.1671   68.5834 H   0  0  0  0  0  0  0  0  0  0  0  0
  -33.6579   65.0755   64.1760 O   0  0  0  0  0  0  0  0  0  0  0  0
  -32.6832   66.7900   65.8575 O   0  0  0  0  0  0  0  0  0  0  0  0
  -31.7005   66.5890   63.6477 O   0  0  0  0  0  0  0  0  0  0  0  0
  -31.2837   64.8913   65.3264 O   0  0  0  0  0  0  0  0  0  0  0  0
  -32.3022   65.8313   64.7784 S   0  0  0  0  0  0  0  0  0  0  0  0
  -33.3468   67.4111   65.5186 H   0  0  0  0  0  0  0  0  0  0  0  0
  -31.6678   64.3928   66.0646 H   0  0  0  0  0  0  0  0  0  0  0  0
  2  1  1  0  0  0
  2  4  1  0  0  0
  2  5  1  0  0  0
 41 42  1  0  0  0
 41  1  1  0  0  0
 42 46  1  0  0  0
  1 24  1  0  0  0
 23 24  1  0  0  0
 23 25  1  0  0  0
 24 26  1  0  0  0
  3  4  2  0  0  0
 26 27  2  0  0  0
 27 28  1  0  0  0
 43 47  1  0  0  0
 43 51  1  0  0  0
 28 29  1  0  0  0
 56 48  1  0  0  0
 56 60  1  0  0  0
 29 30  1  0  0  0
 57 60  1  0  0  0
 57 61  1  0  0  0
 30 31  1  0  0  0
 44 49  1  0  0  0
 44 52  1  0  0  0
 31 32  1  0  0  0
 45 46  1  0  0  0
 45 50  1  0  0  0
 32 33  1  0  0  0
 53 54  1  0  0  0
 53 55  1  0  0  0
 33 34  1  0  0  0
 34 35  1  0  0  0
 35 36  1  0  0  0
 58 60  1  0  0  0
 36 37  1  0  0  0
 59 60  1  0  0  0
 59 62  1  0  0  0
 37 38  1  0  0  0
 38 39  1  0  0  0
 39 40  1  0  0  0
  4  6  1  0  0  0
  6  7  1  0  0  0
  7  8  1  0  0  0
  8  9  1  0  0  0
  9 10  1  0  0  0
 10 11  1  0  0  0
 11 12  1  0  0  0
 12 13  1  0  0  0
 13 14  1  0  0  0
 14 15  1  0  0  0
 15 16  1  0  0  0
 16 17  1  0  0  0
 17 18  1  0  0  0
 18 19  1  0  0  0
 19 20  1  0  0  0
 20 21  1  0  0  0
 21 22  1  0  0  0
 46 47  1  0  0  0
 47 48  1  0  0  0
 48 49  1  0  0  0
 49 50  1  0  0  0
 50 54  1  0  0  0
M  CHG 1  58  -1
M  END
> <minimizedAffinity>
-9.39756

> <CNNscore>
0.3174060881

> <CNNaffinity>
6.8813886642

> <CNN_VS>
2.1841945648

> <CNNaffinity_variance>
0.6020199656

$$$$
/media/chris/experiments/cd1a-new-docking/inputs/ligands/1onq_ligand.pdb


 62 62  0  0  0  0  0  0  0  0999 V2000
  -40.0263   58.8672   64.8357 C   0  0  0  0  0  0  0  0  0  0  0  0
  -41.0797   58.3200   65.6674 N   0  0  0  0  0  0  0  0  0  0  0  0
  -42.9305   59.3013   64.7963 O   0  0  0  0  0  0  0  0  0  0  0  0
  -42.3963   58.5598   65.5979 C   0  0  0  0  0  0  0  0  0  0  0  0
  -40.7922   57.6941   66.3710 H   0  0  0  0  0  0  0  0  0  0  0  0
  -43.2322   57.8258   66.6040 C   0  0  0  0  0  0  0  0  0  0  0  0
  -44.1231   56.8689   65.8118 C   0  0  0  0  0  0  0  0  0  0  0  0
  -45.5931   57.1780   66.0851 C   0  0  0  0  0  0  0  0  0  0  0  0
  -46.3323   57.9080   64.9900 C   0  0  0  0  0  0  0  0  0  0  0  0
  -46.5704   59.3366   65.4678 C   0  0  0  0  0  0  0  0  0  0  0  0
  -47.8761   59.4871   66.2598 C   0  0  0  0  0  0  0  0  0  0  0  0
  -48.9427   58.4275   65.9279 C   0  0  0  0  0  0  0  0  0  0  0  0
  -50.3166   59.0449   65.5865 C   0  0  0  0  0  0  0  0  0  0  0  0
  -50.4250   59.3240   64.0848 C   0  0  0  0  0  0  0  0  0  0  0  0
  -50.4273   58.0854   63.1971 C   0  0  0  0  0  0  0  0  0  0  0  0
  -50.6617   58.4252   61.7326 C   0  0  0  0  0  0  0  0  0  0  0  0
  -51.0423   57.2537   60.8244 C   0  0  0  0  0  0  0  0  0  0  0  0
  -49.8346   56.9066   59.9644 C   0  0  0  0  0  0  0  0  0  0  0  0
  -48.6816   57.8970   59.8926 C   0  0  0  0  0  0  0  0  0  0  0  0
  -47.3725   57.1898   59.5076 C   0  0  0  0  0  0  0  0  0  0  0  0
  -47.5282   56.0994   58.4316 C   0  0  0  0  0  0  0  0  0  0  0  0
  -47.5285   56.6514   57.0081 C   0  0  0  0  0  0  0  0  0  0  0  0
  -37.9602   57.8646   65.1849 O   0  0  0  0  0  0  0  0  0  0  0  0
  -39.1873   57.6420   64.5154 C   0  0  0  0  0  0  0  0  0  0  0  0
  -38.1195   57.9266   66.1398 H   0  0  0  0  0  0  0  0  0  0  0  0
  -39.0059   57.5340   62.9995 C   0  0  0  0  0  0  0  0  0  0  0  0
  -37.8043   57.3931   62.4144 C   0  0  0  0  0  0  0  0  0  0  0  0
  -37.7062   57.2931   60.8933 C   0  0  0  0  0  0  0  0  0  0  0  0
  -37.6970   58.6531   60.1802 C   0  0  0  0  0  0  0  0  0  0  0  0
  -37.2076   58.6368   58.7202 C   0  0  0  0  0  0  0  0  0  0  0  0
  -37.4380   57.2471   58.0792 C   0  0  0  0  0  0  0  0  0  0  0  0
  -36.1541   56.4240   57.8044 C   0  0  0  0  0  0  0  0  0  0  0  0
  -34.8510   57.2575   57.8236 C   0  0  0  0  0  0  0  0  0  0  0  0
  -33.7299   56.6309   58.6807 C   0  0  0  0  0  0  0  0  0  0  0  0
  -34.2395   55.6487   59.7423 C   0  0  0  0  0  0  0  0  0  0  0  0
  -34.3260   56.1873   61.1688 C   0  0  0  0  0  0  0  0  0  0  0  0
  -32.9615   56.5623   61.7799 C   0  0  0  0  0  0  0  0  0  0  0  0
  -32.8570   57.9980   62.3168 C   0  0  0  0  0  0  0  0  0  0  0  0
  -34.2365   58.5455   62.6943 C   0  0  0  0  0  0  0  0  0  0  0  0
  -34.6169   58.4635   64.1619 C   0  0  0  0  0  0  0  0  0  0  0  0
  -39.2847   60.0910   65.4199 C   0  0  0  0  0  0  0  0  0  0  0  0
  -38.5731   60.9297   64.4747 O   0  0  0  0  0  0  0  0  0  0  0  0
  -36.5177   61.3308   62.5275 O   0  0  0  0  0  0  0  0  0  0  0  0
  -35.7137   64.7096   64.8376 O   0  0  0  0  0  0  0  0  0  0  0  0
  -37.1756   62.2904   65.9173 O   0  0  0  0  0  0  0  0  0  0  0  0
  -37.2098   61.4191   64.7609 C   0  0  0  0  0  0  0  0  0  0  0  0
  -36.5159   62.1878   63.6273 C   0  0  0  0  0  0  0  0  0  0  0  0
  -35.0531   62.5704   63.9418 C   0  0  0  0  0  0  0  0  0  0  0  0
  -35.1024   63.4609   65.1525 C   0  0  0  0  0  0  0  0  0  0  0  0
  -35.8483   62.7617   66.2746 C   0  0  0  0  0  0  0  0  0  0  0  0
  -37.4301   61.0794   62.3150 H   0  0  0  0  0  0  0  0  0  0  0  0
  -35.2220   65.1384   64.1197 H   0  0  0  0  0  0  0  0  0  0  0  0
  -34.4748   64.2411   67.5544 O   0  0  0  0  0  0  0  0  0  0  0  0
  -35.7931   63.8177   67.3763 C   0  0  0  0  0  0  0  0  0  0  0  0
  -34.4424   64.9118   68.2546 H   0  0  0  0  0  0  0  0  0  0  0  0
  -34.3597   63.3207   62.9191 O   0  0  0  0  0  0  0  0  0  0  0  0
  -32.5306   61.6530   62.1511 O   0  0  0  0  0  0  0  0  0  0  0  0
  -31.9765   63.3770   63.7666 O   0  0  0  0  0  0  0  0  0  0  0  0
  -32.2663   63.9450   61.4283 O   0  0  0  0  0  0  0  0  0  0  0  0
  -32.7578   63.0774   62.5360 S   0  0  0  0  0  0  0  0  0  0  0  0
  -32.8449   61.0720   62.8615 H   0  0  0  0  0  0  0  0  0  0  0  0
  -32.7706   63.7561   60.6215 H   0  0  0  0  0  0  0  0  0  0  0  0
  2  1  1  0  0  0
  2  4  1  0  0  0
  2  5  1  0  0  0
 41 42  1  0  0  0
 41  1  1  0  0  0
 42 46  1  0  0  0
  1 24  1  0  0  0
 23 24  1  0  0  0
 23 25  1  0  0  0
 24 26  1  0  0  0
  3  4  2  0  0  0
 26 27  2  0  0  0
 27 28  1  0  0  0
 43 47  1  0  0  0
 43 51  1  0  0  0
 28 29  1  0  0  0
 56 48  1  0  0  0
 56 60  1  0  0  0
 29 30  1  0  0  0
 57 60  1  0  0  0
 57 61  1  0  0  0
 30 31  1  0  0  0
 44 49  1  0  0  0
 44 52  1  0  0  0
 31 32  1  0  0  0
 45 46  1  0  0  0
 45 50  1  0  0  0
 32 33  1  0  0  0
 53 54  1  0  0  0
 53 55  1  0  0  0
 33 34  1  0  0  0
 34 35  1  0  0  0
 35 36  1  0  0  0
 58 60  1  0  0  0
 36 37  1  0  0  0
 59 60  1  0  0  0
 59 62  1  0  0  0
 37 38  1  0  0  0
 38 39  1  0  0  0
 39 40  1  0  0  0
  4  6  1  0  0  0
  6  7  1  0  0  0
  7  8  1  0  0  0
  8  9  1  0  0  0
  9 10  1  0  0  0
 10 11  1  0  0  0
 11 12  1  0  0  0
 12 13  1  0  0  0
 13 14  1  0  0  0
 14 15  1  0  0  0
 15 16  1  0  0  0
 16 17  1  0  0  0
 17 18  1  0  0  0
 18 19  1  0  0  0
 19 20  1  0  0  0
 20 21  1  0  0  0
 21 22  1  0  0  0
 46 47  1  0  0  0
 47 48  1  0  0  0
 48 49  1  0  0  0
 49 50  1  0  0  0
 50 54  1  0  0  0
M  CHG 1  58  -1
M  END
> <minimizedAffinity>
-10.24850

> <CNNscore>
0.3111631274

> <CNNaffinity>
7.0204558372

> <CNN_VS>
2.1845068932

> <CNNaffinity_variance>
1.4646809101

$$$$
/media/chris/experiments/cd1a-new-docking/inputs/ligands/1onq_ligand.pdb


 62 62  0  0  0  0  0  0  0  0999 V2000
  -40.1077   59.4019   65.0640 C   0  0  0  0  0  0  0  0  0  0  0  0
  -40.1906   59.3879   63.6169 N   0  0  0  0  0  0  0  0  0  0  0  0
  -40.8023   61.5235   63.1558 O   0  0  0  0  0  0  0  0  0  0  0  0
  -40.5158   60.3976   62.7980 C   0  0  0  0  0  0  0  0  0  0  0  0
  -39.9821   58.5299   63.1815 H   0  0  0  0  0  0  0  0  0  0  0  0
  -40.5028   60.0624   61.3361 C   0  0  0  0  0  0  0  0  0  0  0  0
  -39.0667   60.2733   60.8559 C   0  0  0  0  0  0  0  0  0  0  0  0
  -38.5585   59.0120   60.1618 C   0  0  0  0  0  0  0  0  0  0  0  0
  -37.2548   58.4513   60.6761 C   0  0  0  0  0  0  0  0  0  0  0  0
  -37.5108   57.0109   61.1070 C   0  0  0  0  0  0  0  0  0  0  0  0
  -38.0492   56.9074   62.5403 C   0  0  0  0  0  0  0  0  0  0  0  0
  -37.2720   57.7479   63.5699 C   0  0  0  0  0  0  0  0  0  0  0  0
  -35.9790   57.0570   64.0557 C   0  0  0  0  0  0  0  0  0  0  0  0
  -34.8590   58.0830   64.2505 C   0  0  0  0  0  0  0  0  0  0  0  0
  -34.1358   58.4983   62.9751 C   0  0  0  0  0  0  0  0  0  0  0  0
  -32.7874   57.8093   62.8257 C   0  0  0  0  0  0  0  0  0  0  0  0
  -32.7272   56.6653   61.8109 C   0  0  0  0  0  0  0  0  0  0  0  0
  -33.7949   56.9107   60.7534 C   0  0  0  0  0  0  0  0  0  0  0  0
  -33.9829   55.8765   59.6532 C   0  0  0  0  0  0  0  0  0  0  0  0
  -33.9682   56.5398   58.2668 C   0  0  0  0  0  0  0  0  0  0  0  0
  -35.2599   57.2971   57.9075 C   0  0  0  0  0  0  0  0  0  0  0  0
  -36.4683   56.3806   57.7318 C   0  0  0  0  0  0  0  0  0  0  0  0
  -40.9700   61.1156   66.3737 O   0  0  0  0  0  0  0  0  0  0  0  0
  -41.3876   60.1166   65.4620 C   0  0  0  0  0  0  0  0  0  0  0  0
  -40.3643   61.7279   65.9272 H   0  0  0  0  0  0  0  0  0  0  0  0
  -42.3488   59.1143   66.1054 C   0  0  0  0  0  0  0  0  0  0  0  0
  -43.6369   58.9975   65.7402 C   0  0  0  0  0  0  0  0  0  0  0  0
  -44.5335   57.9724   66.4320 C   0  0  0  0  0  0  0  0  0  0  0  0
  -45.8693   58.5472   66.9252 C   0  0  0  0  0  0  0  0  0  0  0  0
  -46.5685   59.5269   65.9646 C   0  0  0  0  0  0  0  0  0  0  0  0
  -47.4083   58.7610   64.9141 C   0  0  0  0  0  0  0  0  0  0  0  0
  -48.9432   58.9307   65.0426 C   0  0  0  0  0  0  0  0  0  0  0  0
  -49.5524   59.9537   64.0550 C   0  0  0  0  0  0  0  0  0  0  0  0
  -51.0876   59.8498   63.9272 C   0  0  0  0  0  0  0  0  0  0  0  0
  -51.5544   59.1288   62.6569 C   0  0  0  0  0  0  0  0  0  0  0  0
  -50.8150   57.8392   62.3067 C   0  0  0  0  0  0  0  0  0  0  0  0
  -50.9760   57.4050   60.8364 C   0  0  0  0  0  0  0  0  0  0  0  0
  -49.7463   56.7243   60.2165 C   0  0  0  0  0  0  0  0  0  0  0  0
  -48.5734   57.7028   60.1061 C   0  0  0  0  0  0  0  0  0  0  0  0
  -47.6462   57.5143   58.9185 C   0  0  0  0  0  0  0  0  0  0  0  0
  -38.7871   59.9513   65.6498 C   0  0  0  0  0  0  0  0  0  0  0  0
  -38.3277   61.2249   65.1300 O   0  0  0  0  0  0  0  0  0  0  0  0
  -36.4911   60.9844   62.9514 O   0  0  0  0  0  0  0  0  0  0  0  0
  -35.1017   64.6396   64.4034 O   0  0  0  0  0  0  0  0  0  0  0  0
  -36.6459   62.6739   66.1083 O   0  0  0  0  0  0  0  0  0  0  0  0
  -36.9000   61.5987   65.1719 C   0  0  0  0  0  0  0  0  0  0  0  0
  -36.2771   62.0381   63.8391 C   0  0  0  0  0  0  0  0  0  0  0  0
  -34.7576   62.3020   63.9215 C   0  0  0  0  0  0  0  0  0  0  0  0
  -34.5777   63.4166   64.9148 C   0  0  0  0  0  0  0  0  0  0  0  0
  -35.2468   63.0486   66.2267 C   0  0  0  0  0  0  0  0  0  0  0  0
  -37.4420   60.8042   62.8868 H   0  0  0  0  0  0  0  0  0  0  0  0
  -34.6610   64.8554   63.5665 H   0  0  0  0  0  0  0  0  0  0  0  0
  -33.6382   64.6926   66.8767 O   0  0  0  0  0  0  0  0  0  0  0  0
  -34.9610   64.2899   67.0688 C   0  0  0  0  0  0  0  0  0  0  0  0
  -33.4592   65.4812   67.4126 H   0  0  0  0  0  0  0  0  0  0  0  0
  -34.1237   62.7459   62.7004 O   0  0  0  0  0  0  0  0  0  0  0  0
  -32.1380   61.2511   61.9659 O   0  0  0  0  0  0  0  0  0  0  0  0
  -31.8176   62.8847   63.7316 O   0  0  0  0  0  0  0  0  0  0  0  0
  -31.9726   63.6010   61.4214 O   0  0  0  0  0  0  0  0  0  0  0  0
  -32.4857   62.6278   62.4269 S   0  0  0  0  0  0  0  0  0  0  0  0
  -32.4646   60.6026   62.6092 H   0  0  0  0  0  0  0  0  0  0  0  0
  -32.4032   63.4405   60.5672 H   0  0  0  0  0  0  0  0  0  0  0  0
  2  1  1  0  0  0
  2  4  1  0  0  0
  2  5  1  0  0  0
 41 42  1  0  0  0
 41  1  1  0  0  0
 42 46  1  0  0  0
  1 24  1  0  0  0
 23 24  1  0  0  0
 23 25  1  0  0  0
 24 26  1  0  0  0
  3  4  2  0  0  0
 26 27  2  0  0  0
 27 28  1  0  0  0
 43 47  1  0  0  0
 43 51  1  0  0  0
 28 29  1  0  0  0
 56 48  1  0  0  0
 56 60  1  0  0  0
 29 30  1  0  0  0
 57 60  1  0  0  0
 57 61  1  0  0  0
 30 31  1  0  0  0
 44 49  1  0  0  0
 44 52  1  0  0  0
 31 32  1  0  0  0
 45 46  1  0  0  0
 45 50  1  0  0  0
 32 33  1  0  0  0
 53 54  1  0  0  0
 53 55  1  0  0  0
 33 34  1  0  0  0
 34 35  1  0  0  0
 35 36  1  0  0  0
 58 60  1  0  0  0
 36 37  1  0  0  0
 59 60  1  0  0  0
 59 62  1  0  0  0
 37 38  1  0  0  0
 38 39  1  0  0  0
 39 40  1  0  0  0
  4  6  1  0  0  0
  6  7  1  0  0  0
  7  8  1  0  0  0
  8  9  1  0  0  0
  9 10  1  0  0  0
 10 11  1  0  0  0
 11 12  1  0  0  0
 12 13  1  0  0  0
 13 14  1  0  0  0
 14 15  1  0  0  0
 15 16  1  0  0  0
 16 17  1  0  0  0
 17 18  1  0  0  0
 18 19  1  0  0  0
 19 20  1  0  0  0
 20 21  1  0  0  0
 21 22  1  0  0  0
 46 47  1  0  0  0
 47 48  1  0  0  0
 48 49  1  0  0  0
 49 50  1  0  0  0
 50 54  1  0  0  0
M  CHG 1  58  -1
M  END
> <minimizedAffinity>
-9.74668

> <CNNscore>
0.2834233940

> <CNNaffinity>
7.3380384445

> <CNN_VS>
2.0797717571

> <CNNaffinity_variance>
0.9363279343

$$$$
/media/chris/experiments/cd1a-new-docking/inputs/ligands/1onq_ligand.pdb


 62 62  0  0  0  0  0  0  0  0999 V2000
  -38.7949   60.3006   65.0264 C   0  0  0  0  0  0  0  0  0  0  0  0
  -39.8275   59.8640   65.9453 N   0  0  0  0  0  0  0  0  0  0  0  0
  -41.7214   60.4815   64.8594 O   0  0  0  0  0  0  0  0  0  0  0  0
  -41.1559   59.9767   65.8097 C   0  0  0  0  0  0  0  0  0  0  0  0
  -39.5138   59.4307   66.7718 H   0  0  0  0  0  0  0  0  0  0  0  0
  -41.9624   59.4137   66.9420 C   0  0  0  0  0  0  0  0  0  0  0  0
  -43.2411   58.8479   66.3239 C   0  0  0  0  0  0  0  0  0  0  0  0
  -43.0923   57.3445   66.1024 C   0  0  0  0  0  0  0  0  0  0  0  0
  -44.2696   56.6485   65.4636 C   0  0  0  0  0  0  0  0  0  0  0  0
  -45.5147   57.4743   65.7695 C   0  0  0  0  0  0  0  0  0  0  0  0
  -46.5217   56.7243   66.6518 C   0  0  0  0  0  0  0  0  0  0  0  0
  -47.9077   56.5350   66.0086 C   0  0  0  0  0  0  0  0  0  0  0  0
  -48.6510   57.8694   65.7802 C   0  0  0  0  0  0  0  0  0  0  0  0
  -48.9117   58.0937   64.2880 C   0  0  0  0  0  0  0  0  0  0  0  0
  -50.3340   58.5140   63.9377 C   0  0  0  0  0  0  0  0  0  0  0  0
  -50.7315   58.0899   62.5316 C   0  0  0  0  0  0  0  0  0  0  0  0
  -49.9524   58.7435   61.3880 C   0  0  0  0  0  0  0  0  0  0  0  0
  -49.5553   57.6552   60.3999 C   0  0  0  0  0  0  0  0  0  0  0  0
  -48.4430   57.9457   59.4031 C   0  0  0  0  0  0  0  0  0  0  0  0
  -48.3669   56.8490   58.3290 C   0  0  0  0  0  0  0  0  0  0  0  0
  -47.0782   56.8688   57.4863 C   0  0  0  0  0  0  0  0  0  0  0  0
  -46.0393   57.8653   57.9949 C   0  0  0  0  0  0  0  0  0  0  0  0
  -37.1843   59.0239   63.9439 O   0  0  0  0  0  0  0  0  0  0  0  0
  -38.5826   59.0717   64.1591 C   0  0  0  0  0  0  0  0  0  0  0  0
  -36.7296   58.9215   64.7946 H   0  0  0  0  0  0  0  0  0  0  0  0
  -39.3620   59.2329   62.8518 C   0  0  0  0  0  0  0  0  0  0  0  0
  -38.8868   59.9144   61.7955 C   0  0  0  0  0  0  0  0  0  0  0  0
  -39.7270   60.0310   60.5252 C   0  0  0  0  0  0  0  0  0  0  0  0
  -39.0840   59.3789   59.2925 C   0  0  0  0  0  0  0  0  0  0  0  0
  -37.5472   59.2846   59.3138 C   0  0  0  0  0  0  0  0  0  0  0  0
  -37.0203   58.6095   58.0247 C   0  0  0  0  0  0  0  0  0  0  0  0
  -37.2647   57.0821   57.9304 C   0  0  0  0  0  0  0  0  0  0  0  0
  -36.0075   56.2216   58.1990 C   0  0  0  0  0  0  0  0  0  0  0  0
  -36.0616   55.4496   59.5351 C   0  0  0  0  0  0  0  0  0  0  0  0
  -36.2054   56.3534   60.7654 C   0  0  0  0  0  0  0  0  0  0  0  0
  -35.0070   57.2433   61.0885 C   0  0  0  0  0  0  0  0  0  0  0  0
  -33.6534   56.5066   61.0550 C   0  0  0  0  0  0  0  0  0  0  0  0
  -32.6480   56.9350   62.1347 C   0  0  0  0  0  0  0  0  0  0  0  0
  -33.1013   58.2232   62.8279 C   0  0  0  0  0  0  0  0  0  0  0  0
  -33.6793   58.0714   64.2237 C   0  0  0  0  0  0  0  0  0  0  0  0
  -37.5401   60.9214   65.6813 C   0  0  0  0  0  0  0  0  0  0  0  0
  -36.9615   62.0710   65.0126 O   0  0  0  0  0  0  0  0  0  0  0  0
  -35.2632   60.9585   62.9989 O   0  0  0  0  0  0  0  0  0  0  0  0
  -33.3812   64.6707   63.2755 O   0  0  0  0  0  0  0  0  0  0  0  0
  -35.0763   63.5176   65.5009 O   0  0  0  0  0  0  0  0  0  0  0  0
  -35.4986   62.2540   64.9331 C   0  0  0  0  0  0  0  0  0  0  0  0
  -34.8854   62.1924   63.5268 C   0  0  0  0  0  0  0  0  0  0  0  0
  -33.3430   62.2719   63.5185 C   0  0  0  0  0  0  0  0  0  0  0  0
  -32.9871   63.5992   64.1291 C   0  0  0  0  0  0  0  0  0  0  0  0
  -33.6385   63.7281   65.4941 C   0  0  0  0  0  0  0  0  0  0  0  0
  -36.2307   60.8906   62.9962 H   0  0  0  0  0  0  0  0  0  0  0  0
  -32.9543   64.5688   62.4104 H   0  0  0  0  0  0  0  0  0  0  0  0
  -31.8149   65.2683   65.6169 O   0  0  0  0  0  0  0  0  0  0  0  0
  -33.1688   65.1167   65.9217 C   0  0  0  0  0  0  0  0  0  0  0  0
  -31.5189   66.1511   65.8894 H   0  0  0  0  0  0  0  0  0  0  0  0
  -32.7135   62.2464   62.2174 O   0  0  0  0  0  0  0  0  0  0  0  0
  -30.3917   61.8479   63.2978 O   0  0  0  0  0  0  0  0  0  0  0  0
  -30.6256   63.5045   61.5400 O   0  0  0  0  0  0  0  0  0  0  0  0
  -30.6422   61.1421   60.9990 O   0  0  0  0  0  0  0  0  0  0  0  0
  -31.0648   62.1599   62.0024 S   0  0  0  0  0  0  0  0  0  0  0  0
  -30.6552   62.5013   63.9647 H   0  0  0  0  0  0  0  0  0  0  0  0
  -30.9247   60.2618   61.2927 H   0  0  0  0  0  0  0  0  0  0  0  0
  2  1  1  0  0  0
  2  4  1  0  0  0
  2  5  1  0  0  0
 41 42  1  0  0  0
 41  1  1  0  0  0
 42 46  1  0  0  0
  1 24  1  0  0  0
 23 24  1  0  0  0
 23 25  1  0  0  0
 24 26  1  0  0  0
  3  4  2  0  0  0
 26 27  2  0  0  0
 27 28  1  0  0  0
 43 47  1  0  0  0
 43 51  1  0  0  0
 28 29  1  0  0  0
 56 48  1  0  0  0
 56 60  1  0  0  0
 29 30  1  0  0  0
 57 60  1  0  0  0
 57 61  1  0  0  0
 30 31  1  0  0  0
 44 49  1  0  0  0
 44 52  1  0  0  0
 31 32  1  0  0  0
 45 46  1  0  0  0
 45 50  1  0  0  0
 32 33  1  0  0  0
 53 54  1  0  0  0
 53 55  1  0  0  0
 33 34  1  0  0  0
 34 35  1  0  0  0
 35 36  1  0  0  0
 58 60  1  0  0  0
 36 37  1  0  0  0
 59 60  1  0  0  0
 59 62  1  0  0  0
 37 38  1  0  0  0
 38 39  1  0  0  0
 39 40  1  0  0  0
  4  6  1  0  0  0
  6  7  1  0  0  0
  7  8  1  0  0  0
  8  9  1  0  0  0
  9 10  1  0  0  0
 10 11  1  0  0  0
 11 12  1  0  0  0
 12 13  1  0  0  0
 13 14  1  0  0  0
 14 15  1  0  0  0
 15 16  1  0  0  0
 16 17  1  0  0  0
 17 18  1  0  0  0
 18 19  1  0  0  0
 19 20  1  0  0  0
 20 21  1  0  0  0
 21 22  1  0  0  0
 46 47  1  0  0  0
 47 48  1  0  0  0
 48 49  1  0  0  0
 49 50  1  0  0  0
 50 54  1  0  0  0
M  CHG 1  58  -1
M  END
> <minimizedAffinity>
-9.23472

> <CNNscore>
0.2738413811

> <CNNaffinity>
7.0406303406

> <CNN_VS>
1.9280159473

> <CNNaffinity_variance>
1.2044332027

$$$$
