/media/chris/experiments/cd1a-new-docking/inputs/ligands/1onq_ligand.pdb


 62 62  0  0  0  0  0  0  0  0999 V2000
  -39.2041   60.0754   62.5474 C   0  0  0  0  0  0  0  0  0  0  0  0
  -39.7308   59.8948   63.8857 N   0  0  0  0  0  0  0  0  0  0  0  0
  -41.4289   61.3987   63.9344 O   0  0  0  0  0  0  0  0  0  0  0  0
  -40.7565   60.5351   64.4635 C   0  0  0  0  0  0  0  0  0  0  0  0
  -39.2788   59.2175   64.4391 H   0  0  0  0  0  0  0  0  0  0  0  0
  -41.0628   60.1106   65.8691 C   0  0  0  0  0  0  0  0  0  0  0  0
  -41.4213   58.6259   65.8049 C   0  0  0  0  0  0  0  0  0  0  0  0
  -42.9006   58.4321   66.1290 C   0  0  0  0  0  0  0  0  0  0  0  0
  -43.8699   58.7361   65.0125 C   0  0  0  0  0  0  0  0  0  0  0  0
  -45.1465   59.2796   65.6455 C   0  0  0  0  0  0  0  0  0  0  0  0
  -45.5240   58.5480   66.9406 C   0  0  0  0  0  0  0  0  0  0  0  0
  -47.0299   58.2643   67.0904 C   0  0  0  0  0  0  0  0  0  0  0  0
  -47.5665   57.2890   66.0199 C   0  0  0  0  0  0  0  0  0  0  0  0
  -48.5121   58.0116   65.0563 C   0  0  0  0  0  0  0  0  0  0  0  0
  -49.9904   57.9225   65.4151 C   0  0  0  0  0  0  0  0  0  0  0  0
  -50.7182   59.2405   65.1958 C   0  0  0  0  0  0  0  0  0  0  0  0
  -50.6237   59.8331   63.7880 C   0  0  0  0  0  0  0  0  0  0  0  0
  -51.0808   58.7739   62.7941 C   0  0  0  0  0  0  0  0  0  0  0  0
  -50.0443   58.1330   61.8829 C   0  0  0  0  0  0  0  0  0  0  0  0
  -50.7175   57.2522   60.8185 C   0  0  0  0  0  0  0  0  0  0  0  0
  -50.3356   57.5992   59.3677 C   0  0  0  0  0  0  0  0  0  0  0  0
  -49.0615   56.9026   58.8954 C   0  0  0  0  0  0  0  0  0  0  0  0
  -39.0620   57.8058   63.0211 O   0  0  0  0  0  0  0  0  0  0  0  0
  -39.3398   58.6862   61.9481 C   0  0  0  0  0  0  0  0  0  0  0  0
  -39.7166   57.9371   63.7248 H   0  0  0  0  0  0  0  0  0  0  0  0
  -38.3400   58.5296   60.7999 C   0  0  0  0  0  0  0  0  0  0  0  0
  -38.5859   58.9615   59.5512 C   0  0  0  0  0  0  0  0  0  0  0  0
  -37.5360   58.7669   58.4588 C   0  0  0  0  0  0  0  0  0  0  0  0
  -36.3100   57.9606   58.9116 C   0  0  0  0  0  0  0  0  0  0  0  0
  -35.7066   57.0158   57.8558 C   0  0  0  0  0  0  0  0  0  0  0  0
  -34.1628   56.9885   57.9615 C   0  0  0  0  0  0  0  0  0  0  0  0
  -33.5786   55.8376   58.8192 C   0  0  0  0  0  0  0  0  0  0  0  0
  -34.5195   55.3450   59.9438 C   0  0  0  0  0  0  0  0  0  0  0  0
  -34.3423   56.1070   61.2751 C   0  0  0  0  0  0  0  0  0  0  0  0
  -32.8955   56.5294   61.5572 C   0  0  0  0  0  0  0  0  0  0  0  0
  -32.7113   57.8937   62.2184 C   0  0  0  0  0  0  0  0  0  0  0  0
  -33.4203   58.0301   63.5802 C   0  0  0  0  0  0  0  0  0  0  0  0
  -34.5054   59.1154   63.6477 C   0  0  0  0  0  0  0  0  0  0  0  0
  -35.7680   58.5885   64.3356 C   0  0  0  0  0  0  0  0  0  0  0  0
  -35.9214   57.0793   64.4014 C   0  0  0  0  0  0  0  0  0  0  0  0
  -37.8119   60.7415   62.4643 C   0  0  0  0  0  0  0  0  0  0  0  0
  -37.6368   61.9729   63.2101 O   0  0  0  0  0  0  0  0  0  0  0  0
  -35.4137   63.1284   61.8317 O   0  0  0  0  0  0  0  0  0  0  0  0
  -35.0358   65.3205   65.3603 O   0  0  0  0  0  0  0  0  0  0  0  0
  -36.4718   62.6606   65.2238 O   0  0  0  0  0  0  0  0  0  0  0  0
  -36.3388   62.3189   63.8227 C   0  0  0  0  0  0  0  0  0  0  0  0
  -35.5722   63.4793   63.1718 C   0  0  0  0  0  0  0  0  0  0  0  0
  -34.1726   63.7167   63.7799 C   0  0  0  0  0  0  0  0  0  0  0  0
  -34.3951   64.0539   65.2284 C   0  0  0  0  0  0  0  0  0  0  0  0
  -35.2158   62.9616   65.8899 C   0  0  0  0  0  0  0  0  0  0  0  0
  -36.2844   62.9751   61.4324 H   0  0  0  0  0  0  0  0  0  0  0  0
  -34.4954   66.0024   64.9314 H   0  0  0  0  0  0  0  0  0  0  0  0
  -36.2526   62.7260   68.0307 O   0  0  0  0  0  0  0  0  0  0  0  0
  -35.3321   63.4948   67.3162 C   0  0  0  0  0  0  0  0  0  0  0  0
  -36.3247   63.0666   68.9360 H   0  0  0  0  0  0  0  0  0  0  0  0
  -33.4171   64.8163   63.2228 O   0  0  0  0  0  0  0  0  0  0  0  0
  -31.1720   65.9958   62.6894 O   0  0  0  0  0  0  0  0  0  0  0  0
  -31.1725   63.9720   64.0286 O   0  0  0  0  0  0  0  0  0  0  0  0
  -31.9049   66.0718   64.9923 O   0  0  0  0  0  0  0  0  0  0  0  0
  -31.8979   65.2421   63.7541 S   0  0  0  0  0  0  0  0  0  0  0  0
  -31.1571   65.4704   61.8742 H   0  0  0  0  0  0  0  0  0  0  0  0
  -32.3762   66.9024   64.8222 H   0  0  0  0  0  0  0  0  0  0  0  0
  2  1  1  0  0  0
  2  4  1  0  0  0
  2  5  1  0  0  0
 41 42  1  0  0  0
 41  1  1  0  0  0
 42 46  1  0  0  0
  1 24  1  0  0  0
 23 24  1  0  0  0
 23 25  1  0  0  0
 24 26  1  0  0  0
  3  4  2  0  0  0
 26 27  2  0  0  0
 27 28  1  0  0  0
 43 47  1  0  0  0
 43 51  1  0  0  0
 28 29  1  0  0  0
 56 48  1  0  0  0
 56 60  1  0  0  0
 29 30  1  0  0  0
 57 60  1  0  0  0
 57 61  1  0  0  0
 30 31  1  0  0  0
 44 49  1  0  0  0
 44 52  1  0  0  0
 31 32  1  0  0  0
 45 46  1  0  0  0
 45 50  1  0  0  0
 32 33  1  0  0  0
 53 54  1  0  0  0
 53 55  1  0  0  0
 33 34  1  0  0  0
 34 35  1  0  0  0
 35 36  1  0  0  0
 58 60  1  0  0  0
 36 37  1  0  0  0
 59 60  1  0  0  0
 59 62  1  0  0  0
 37 38  1  0  0  0
 38 39  1  0  0  0
 39 40  1  0  0  0
  4  6  1  0  0  0
  6  7  1  0  0  0
  7  8  1  0  0  0
  8  9  1  0  0  0
  9 10  1  0  0  0
 10 11  1  0  0  0
 11 12  1  0  0  0
 12 13  1  0  0  0
 13 14  1  0  0  0
 14 15  1  0  0  0
 15 16  1  0  0  0
 16 17  1  0  0  0
 17 18  1  0  0  0
 18 19  1  0  0  0
 19 20  1  0  0  0
 20 21  1  0  0  0
 21 22  1  0  0  0
 46 47  1  0  0  0
 47 48  1  0  0  0
 48 49  1  0  0  0
 49 50  1  0  0  0
 50 54  1  0  0  0
M  CHG 1  58  -1
M  END
> <minimizedAffinity>
-9.43614

> <CNNscore>
0.3459596932

> <CNNaffinity>
7.1277551651

> <CNN_VS>
2.4659159184

> <CNNaffinity_variance>
1.0792453289

$$$$
/media/chris/experiments/cd1a-new-docking/inputs/ligands/1onq_ligand.pdb


 62 62  0  0  0  0  0  0  0  0999 V2000
  -36.8723   60.1786   64.8767 C   0  0  0  0  0  0  0  0  0  0  0  0
  -38.2001   59.8345   64.4080 N   0  0  0  0  0  0  0  0  0  0  0  0
  -39.5067   60.5406   66.1232 O   0  0  0  0  0  0  0  0  0  0  0  0
  -39.3716   60.0276   65.0294 C   0  0  0  0  0  0  0  0  0  0  0  0
  -38.2471   59.4056   63.5231 H   0  0  0  0  0  0  0  0  0  0  0  0
  -40.5797   59.5648   64.2705 C   0  0  0  0  0  0  0  0  0  0  0  0
  -41.7965   59.9831   65.0962 C   0  0  0  0  0  0  0  0  0  0  0  0
  -42.6129   58.7522   65.4823 C   0  0  0  0  0  0  0  0  0  0  0  0
  -43.8129   59.0016   66.3635 C   0  0  0  0  0  0  0  0  0  0  0  0
  -45.0434   59.0497   65.4638 C   0  0  0  0  0  0  0  0  0  0  0  0
  -46.3384   58.7045   66.2115 C   0  0  0  0  0  0  0  0  0  0  0  0
  -47.3115   57.8171   65.4139 C   0  0  0  0  0  0  0  0  0  0  0  0
  -47.9660   58.5590   64.2280 C   0  0  0  0  0  0  0  0  0  0  0  0
  -49.4600   58.2331   64.1454 C   0  0  0  0  0  0  0  0  0  0  0  0
  -50.2680   59.1398   63.2249 C   0  0  0  0  0  0  0  0  0  0  0  0
  -50.7308   58.4203   61.9667 C   0  0  0  0  0  0  0  0  0  0  0  0
  -49.8144   58.5443   60.7472 C   0  0  0  0  0  0  0  0  0  0  0  0
  -50.1551   57.4189   59.7797 C   0  0  0  0  0  0  0  0  0  0  0  0
  -49.0414   56.8264   58.9289 C   0  0  0  0  0  0  0  0  0  0  0  0
  -47.7319   57.6092   59.1145 C   0  0  0  0  0  0  0  0  0  0  0  0
  -46.8059   57.6055   57.8842 C   0  0  0  0  0  0  0  0  0  0  0  0
  -47.3300   56.7458   56.7362 C   0  0  0  0  0  0  0  0  0  0  0  0
  -36.8545   61.8842   63.2998 O   0  0  0  0  0  0  0  0  0  0  0  0
  -36.8401   61.6872   64.7015 C   0  0  0  0  0  0  0  0  0  0  0  0
  -37.6727   61.5170   62.9301 H   0  0  0  0  0  0  0  0  0  0  0  0
  -35.5709   62.2458   65.3493 C   0  0  0  0  0  0  0  0  0  0  0  0
  -35.5217   62.6557   66.6283 C   0  0  0  0  0  0  0  0  0  0  0  0
  -34.2156   63.2026   67.2016 C   0  0  0  0  0  0  0  0  0  0  0  0
  -33.8253   64.5826   66.6523 C   0  0  0  0  0  0  0  0  0  0  0  0
  -32.7438   64.5820   65.5560 C   0  0  0  0  0  0  0  0  0  0  0  0
  -33.2873   65.2058   64.2481 C   0  0  0  0  0  0  0  0  0  0  0  0
  -32.2818   66.0918   63.4700 C   0  0  0  0  0  0  0  0  0  0  0  0
  -31.0807   65.3171   62.8784 C   0  0  0  0  0  0  0  0  0  0  0  0
  -31.4928   64.1144   62.0022 C   0  0  0  0  0  0  0  0  0  0  0  0
  -31.1367   62.7540   62.6135 C   0  0  0  0  0  0  0  0  0  0  0  0
  -31.3184   61.5408   61.7037 C   0  0  0  0  0  0  0  0  0  0  0  0
  -32.1152   60.3892   62.3478 C   0  0  0  0  0  0  0  0  0  0  0  0
  -31.6549   58.9764   61.9581 C   0  0  0  0  0  0  0  0  0  0  0  0
  -32.4812   57.9096   62.6822 C   0  0  0  0  0  0  0  0  0  0  0  0
  -32.5658   56.5503   62.0109 C   0  0  0  0  0  0  0  0  0  0  0  0
  -35.7138   59.3748   64.2437 C   0  0  0  0  0  0  0  0  0  0  0  0
  -35.5775   59.4599   62.8024 O   0  0  0  0  0  0  0  0  0  0  0  0
  -38.0533   60.2410   61.6034 O   0  0  0  0  0  0  0  0  0  0  0  0
  -36.5066   58.1899   58.3170 O   0  0  0  0  0  0  0  0  0  0  0  0
  -35.5867   57.6799   61.1541 O   0  0  0  0  0  0  0  0  0  0  0  0
  -36.3943   58.6186   61.9052 C   0  0  0  0  0  0  0  0  0  0  0  0
  -37.2509   59.3656   60.8726 C   0  0  0  0  0  0  0  0  0  0  0  0
  -38.1703   58.4416   60.0444 C   0  0  0  0  0  0  0  0  0  0  0  0
  -37.2624   57.4964   59.3068 C   0  0  0  0  0  0  0  0  0  0  0  0
  -36.3463   56.7914   60.2907 C   0  0  0  0  0  0  0  0  0  0  0  0
  -37.4918   60.8303   62.1309 H   0  0  0  0  0  0  0  0  0  0  0  0
  -37.1107   58.6323   57.7001 H   0  0  0  0  0  0  0  0  0  0  0  0
  -35.9556   54.5867   59.4538 O   0  0  0  0  0  0  0  0  0  0  0  0
  -35.5216   55.9100   59.3552 C   0  0  0  0  0  0  0  0  0  0  0  0
  -35.4303   54.0290   58.8589 H   0  0  0  0  0  0  0  0  0  0  0  0
  -38.9796   59.0897   59.0369 O   0  0  0  0  0  0  0  0  0  0  0  0
  -39.9575   61.4723   59.3253 O   0  0  0  0  0  0  0  0  0  0  0  0
  -40.6998   59.6878   60.7929 O   0  0  0  0  0  0  0  0  0  0  0  0
  -41.4749   59.7811   58.4983 O   0  0  0  0  0  0  0  0  0  0  0  0
  -40.3102   60.0235   59.3964 S   0  0  0  0  0  0  0  0  0  0  0  0
  -39.2000   61.6495   59.9047 H   0  0  0  0  0  0  0  0  0  0  0  0
  -41.2295   59.9976   57.5852 H   0  0  0  0  0  0  0  0  0  0  0  0
  2  1  1  0  0  0
  2  4  1  0  0  0
  2  5  1  0  0  0
 41 42  1  0  0  0
 41  1  1  0  0  0
 42 46  1  0  0  0
  1 24  1  0  0  0
 23 24  1  0  0  0
 23 25  1  0  0  0
 24 26  1  0  0  0
  3  4  2  0  0  0
 26 27  2  0  0  0
 27 28  1  0  0  0
 43 47  1  0  0  0
 43 51  1  0  0  0
 28 29  1  0  0  0
 56 48  1  0  0  0
 56 60  1  0  0  0
 29 30  1  0  0  0
 57 60  1  0  0  0
 57 61  1  0  0  0
 30 31  1  0  0  0
 44 49  1  0  0  0
 44 52  1  0  0  0
 31 32  1  0  0  0
 45 46  1  0  0  0
 45 50  1  0  0  0
 32 33  1  0  0  0
 53 54  1  0  0  0
 53 55  1  0  0  0
 33 34  1  0  0  0
 34 35  1  0  0  0
 35 36  1  0  0  0
 58 60  1  0  0  0
 36 37  1  0  0  0
 59 60  1  0  0  0
 59 62  1  0  0  0
 37 38  1  0  0  0
 38 39  1  0  0  0
 39 40  1  0  0  0
  4  6  1  0  0  0
  6  7  1  0  0  0
  7  8  1  0  0  0
  8  9  1  0  0  0
  9 10  1  0  0  0
 10 11  1  0  0  0
 11 12  1  0  0  0
 12 13  1  0  0  0
 13 14  1  0  0  0
 14 15  1  0  0  0
 15 16  1  0  0  0
 16 17  1  0  0  0
 17 18  1  0  0  0
 18 19  1  0  0  0
 19 20  1  0  0  0
 20 21  1  0  0  0
 21 22  1  0  0  0
 46 47  1  0  0  0
 47 48  1  0  0  0
 48 49  1  0  0  0
 49 50  1  0  0  0
 50 54  1  0  0  0
M  CHG 1  58  -1
M  END
> <minimizedAffinity>
-8.33485

> <CNNscore>
0.3394544721

> <CNNaffinity>
7.0852155685

> <CNN_VS>
2.4051082134

> <CNNaffinity_variance>
0.7248287797

$$$$
/media/chris/experiments/cd1a-new-docking/inputs/ligands/1onq_ligand.pdb


 62 62  0  0  0  0  0  0  0  0999 V2000
  -39.8932   59.1398   64.6896 C   0  0  0  0  0  0  0  0  0  0  0  0
  -40.9229   58.5620   65.5304 N   0  0  0  0  0  0  0  0  0  0  0  0
  -42.7682   59.7090   64.8771 O   0  0  0  0  0  0  0  0  0  0  0  0
  -42.2270   58.8680   65.5681 C   0  0  0  0  0  0  0  0  0  0  0  0
  -40.6275   57.8570   66.1508 H   0  0  0  0  0  0  0  0  0  0  0  0
  -43.0393   58.0772   66.5502 C   0  0  0  0  0  0  0  0  0  0  0  0
  -44.4666   58.6184   66.4672 C   0  0  0  0  0  0  0  0  0  0  0  0
  -45.3930   57.5582   65.8769 C   0  0  0  0  0  0  0  0  0  0  0  0
  -46.0724   57.9194   64.5782 C   0  0  0  0  0  0  0  0  0  0  0  0
  -47.2864   58.7783   64.9165 C   0  0  0  0  0  0  0  0  0  0  0  0
  -48.5387   57.9433   65.2156 C   0  0  0  0  0  0  0  0  0  0  0  0
  -49.8372   58.5146   64.6174 C   0  0  0  0  0  0  0  0  0  0  0  0
  -49.5807   59.6327   63.5832 C   0  0  0  0  0  0  0  0  0  0  0  0
  -49.9326   59.1540   62.1718 C   0  0  0  0  0  0  0  0  0  0  0  0
  -51.1082   58.1875   62.0929 C   0  0  0  0  0  0  0  0  0  0  0  0
  -51.0307   57.2829   60.8720 C   0  0  0  0  0  0  0  0  0  0  0  0
  -49.7697   57.4180   60.0155 C   0  0  0  0  0  0  0  0  0  0  0  0
  -49.2008   56.0248   59.7830 C   0  0  0  0  0  0  0  0  0  0  0  0
  -47.8966   55.8890   59.0111 C   0  0  0  0  0  0  0  0  0  0  0  0
  -47.8400   56.8904   57.8467 C   0  0  0  0  0  0  0  0  0  0  0  0
  -46.6303   57.8426   57.8816 C   0  0  0  0  0  0  0  0  0  0  0  0
  -45.7032   57.5981   59.0700 C   0  0  0  0  0  0  0  0  0  0  0  0
  -39.9289   56.8176   64.6473 O   0  0  0  0  0  0  0  0  0  0  0  0
  -39.1956   57.9121   64.1297 C   0  0  0  0  0  0  0  0  0  0  0  0
  -40.8442   56.8624   64.3292 H   0  0  0  0  0  0  0  0  0  0  0  0
  -37.7376   57.9011   64.5950 C   0  0  0  0  0  0  0  0  0  0  0  0
  -36.7044   57.6958   63.7603 C   0  0  0  0  0  0  0  0  0  0  0  0
  -35.2765   57.6988   64.3028 C   0  0  0  0  0  0  0  0  0  0  0  0
  -34.3969   58.8207   63.7317 C   0  0  0  0  0  0  0  0  0  0  0  0
  -32.9785   58.4023   63.3022 C   0  0  0  0  0  0  0  0  0  0  0  0
  -32.9524   58.0043   61.8069 C   0  0  0  0  0  0  0  0  0  0  0  0
  -32.9448   56.4799   61.5280 C   0  0  0  0  0  0  0  0  0  0  0  0
  -34.3072   55.9141   61.0627 C   0  0  0  0  0  0  0  0  0  0  0  0
  -35.1924   56.9523   60.3397 C   0  0  0  0  0  0  0  0  0  0  0  0
  -36.6533   56.5144   60.1802 C   0  0  0  0  0  0  0  0  0  0  0  0
  -37.7076   57.5923   60.4227 C   0  0  0  0  0  0  0  0  0  0  0  0
  -37.8770   58.5774   59.2494 C   0  0  0  0  0  0  0  0  0  0  0  0
  -38.9165   59.6866   59.4705 C   0  0  0  0  0  0  0  0  0  0  0  0
  -38.9606   60.1139   60.9403 C   0  0  0  0  0  0  0  0  0  0  0  0
  -40.3347   60.4002   61.5194 C   0  0  0  0  0  0  0  0  0  0  0  0
  -39.0010   60.2050   65.3667 C   0  0  0  0  0  0  0  0  0  0  0  0
  -38.3615   61.1672   64.4900 O   0  0  0  0  0  0  0  0  0  0  0  0
  -36.3975   61.5046   62.4391 O   0  0  0  0  0  0  0  0  0  0  0  0
  -35.3170   64.8088   64.7443 O   0  0  0  0  0  0  0  0  0  0  0  0
  -36.8278   62.4419   65.8715 O   0  0  0  0  0  0  0  0  0  0  0  0
  -36.9638   61.5904   64.7078 C   0  0  0  0  0  0  0  0  0  0  0  0
  -36.2975   62.3442   63.5478 C   0  0  0  0  0  0  0  0  0  0  0  0
  -34.8039   62.6558   63.7871 C   0  0  0  0  0  0  0  0  0  0  0  0
  -34.7473   63.5294   65.0098 C   0  0  0  0  0  0  0  0  0  0  0  0
  -35.4630   62.8476   66.1619 C   0  0  0  0  0  0  0  0  0  0  0  0
  -37.3306   61.2977   62.2733 H   0  0  0  0  0  0  0  0  0  0  0  0
  -34.8456   65.2258   64.0061 H   0  0  0  0  0  0  0  0  0  0  0  0
  -36.4450   63.8977   68.0715 O   0  0  0  0  0  0  0  0  0  0  0  0
  -35.3006   63.8835   67.2721 C   0  0  0  0  0  0  0  0  0  0  0  0
  -36.3395   64.5563   68.7756 H   0  0  0  0  0  0  0  0  0  0  0  0
  -34.1330   63.3895   62.7376 O   0  0  0  0  0  0  0  0  0  0  0  0
  -32.1103   64.1743   61.3200 O   0  0  0  0  0  0  0  0  0  0  0  0
  -32.2830   61.8430   61.9716 O   0  0  0  0  0  0  0  0  0  0  0  0
  -31.6356   63.5189   63.5985 O   0  0  0  0  0  0  0  0  0  0  0  0
  -32.5052   63.2448   62.4194 S   0  0  0  0  0  0  0  0  0  0  0  0
  -32.6665   64.0103   60.5424 H   0  0  0  0  0  0  0  0  0  0  0  0
  -31.7742   64.4313   63.8972 H   0  0  0  0  0  0  0  0  0  0  0  0
  2  1  1  0  0  0
  2  4  1  0  0  0
  2  5  1  0  0  0
 41 42  1  0  0  0
 41  1  1  0  0  0
 42 46  1  0  0  0
  1 24  1  0  0  0
 23 24  1  0  0  0
 23 25  1  0  0  0
 24 26  1  0  0  0
  3  4  2  0  0  0
 26 27  2  0  0  0
 27 28  1  0  0  0
 43 47  1  0  0  0
 43 51  1  0  0  0
 28 29  1  0  0  0
 56 48  1  0  0  0
 56 60  1  0  0  0
 29 30  1  0  0  0
 57 60  1  0  0  0
 57 61  1  0  0  0
 30 31  1  0  0  0
 44 49  1  0  0  0
 44 52  1  0  0  0
 31 32  1  0  0  0
 45 46  1  0  0  0
 45 50  1  0  0  0
 32 33  1  0  0  0
 53 54  1  0  0  0
 53 55  1  0  0  0
 33 34  1  0  0  0
 34 35  1  0  0  0
 35 36  1  0  0  0
 58 60  1  0  0  0
 36 37  1  0  0  0
 59 60  1  0  0  0
 59 62  1  0  0  0
 37 38  1  0  0  0
 38 39  1  0  0  0
 39 40  1  0  0  0
  4  6  1  0  0  0
  6  7  1  0  0  0
  7  8  1  0  0  0
  8  9  1  0  0  0
  9 10  1  0  0  0
 10 11  1  0  0  0
 11 12  1  0  0  0
 12 13  1  0  0  0
 13 14  1  0  0  0
 14 15  1  0  0  0
 15 16  1  0  0  0
 16 17  1  0  0  0
 17 18  1  0  0  0
 18 19  1  0  0  0
 19 20  1  0  0  0
 20 21  1  0  0  0
 21 22  1  0  0  0
 46 47  1  0  0  0
 47 48  1  0  0  0
 48 49  1  0  0  0
 49 50  1  0  0  0
 50 54  1  0  0  0
M  CHG 1  58  -1
M  END
> <minimizedAffinity>
-9.74284

> <CNNscore>
0.3034567237

> <CNNaffinity>
7.3314628601

> <CNN_VS>
2.2247817516

> <CNNaffinity_variance>
1.3577678204

$$$$
/media/chris/experiments/cd1a-new-docking/inputs/ligands/1onq_ligand.pdb


 62 62  0  0  0  0  0  0  0  0999 V2000
  -40.2271   58.7755   64.5989 C   0  0  0  0  0  0  0  0  0  0  0  0
  -41.2394   58.2085   65.4678 N   0  0  0  0  0  0  0  0  0  0  0  0
  -43.0709   59.4324   64.9246 O   0  0  0  0  0  0  0  0  0  0  0  0
  -42.5297   58.5556   65.5696 C   0  0  0  0  0  0  0  0  0  0  0  0
  -40.9420   57.4774   66.0563 H   0  0  0  0  0  0  0  0  0  0  0  0
  -43.3261   57.7648   66.5647 C   0  0  0  0  0  0  0  0  0  0  0  0
  -43.9934   56.6325   65.7839 C   0  0  0  0  0  0  0  0  0  0  0  0
  -45.4270   57.0185   65.4281 C   0  0  0  0  0  0  0  0  0  0  0  0
  -46.4716   56.7320   66.4795 C   0  0  0  0  0  0  0  0  0  0  0  0
  -46.8899   58.0658   67.0892 C   0  0  0  0  0  0  0  0  0  0  0  0
  -46.6342   59.2529   66.1508 C   0  0  0  0  0  0  0  0  0  0  0  0
  -47.9096   59.8630   65.5412 C   0  0  0  0  0  0  0  0  0  0  0  0
  -49.1885   59.0856   65.9225 C   0  0  0  0  0  0  0  0  0  0  0  0
  -49.7863   58.3935   64.6942 C   0  0  0  0  0  0  0  0  0  0  0  0
  -48.8689   58.3305   63.4790 C   0  0  0  0  0  0  0  0  0  0  0  0
  -49.5769   58.7484   62.1988 C   0  0  0  0  0  0  0  0  0  0  0  0
  -50.8876   58.0215   61.8889 C   0  0  0  0  0  0  0  0  0  0  0  0
  -50.6368   57.0592   60.7357 C   0  0  0  0  0  0  0  0  0  0  0  0
  -50.2239   57.6293   59.3867 C   0  0  0  0  0  0  0  0  0  0  0  0
  -48.9874   56.9008   58.8371 C   0  0  0  0  0  0  0  0  0  0  0  0
  -47.6419   57.5248   59.2513 C   0  0  0  0  0  0  0  0  0  0  0  0
  -46.7074   57.7831   58.0717 C   0  0  0  0  0  0  0  0  0  0  0  0
  -38.2277   57.8697   65.3592 O   0  0  0  0  0  0  0  0  0  0  0  0
  -39.2580   57.6192   64.4214 C   0  0  0  0  0  0  0  0  0  0  0  0
  -38.5988   57.8669   66.2555 H   0  0  0  0  0  0  0  0  0  0  0  0
  -38.7378   57.6102   62.9820 C   0  0  0  0  0  0  0  0  0  0  0  0
  -37.4805   57.2608   62.6604 C   0  0  0  0  0  0  0  0  0  0  0  0
  -37.0369   57.2784   61.1988 C   0  0  0  0  0  0  0  0  0  0  0  0
  -37.9992   58.0283   60.2660 C   0  0  0  0  0  0  0  0  0  0  0  0
  -37.3452   58.7450   59.0702 C   0  0  0  0  0  0  0  0  0  0  0  0
  -37.3496   57.8374   57.8166 C   0  0  0  0  0  0  0  0  0  0  0  0
  -36.3210   56.6785   57.8351 C   0  0  0  0  0  0  0  0  0  0  0  0
  -34.8615   57.1307   58.0764 C   0  0  0  0  0  0  0  0  0  0  0  0
  -33.9763   56.0420   58.7211 C   0  0  0  0  0  0  0  0  0  0  0  0
  -34.2880   55.7889   60.2010 C   0  0  0  0  0  0  0  0  0  0  0  0
  -33.2179   56.2299   61.1974 C   0  0  0  0  0  0  0  0  0  0  0  0
  -33.1319   57.7571   61.3881 C   0  0  0  0  0  0  0  0  0  0  0  0
  -32.9283   58.2255   62.8369 C   0  0  0  0  0  0  0  0  0  0  0  0
  -34.2036   58.8665   63.3919 C   0  0  0  0  0  0  0  0  0  0  0  0
  -34.6502   58.4009   64.7664 C   0  0  0  0  0  0  0  0  0  0  0  0
  -39.6314   60.1242   65.0625 C   0  0  0  0  0  0  0  0  0  0  0  0
  -38.8376   60.8506   64.0902 O   0  0  0  0  0  0  0  0  0  0  0  0
  -36.7876   61.1954   62.1265 O   0  0  0  0  0  0  0  0  0  0  0  0
  -35.7136   64.4012   64.5696 O   0  0  0  0  0  0  0  0  0  0  0  0
  -37.3267   62.0434   65.5667 O   0  0  0  0  0  0  0  0  0  0  0  0
  -37.4391   61.2301   64.3736 C   0  0  0  0  0  0  0  0  0  0  0  0
  -36.7093   61.9993   63.2630 C   0  0  0  0  0  0  0  0  0  0  0  0
  -35.2187   62.2641   63.5682 C   0  0  0  0  0  0  0  0  0  0  0  0
  -35.1873   63.0999   64.8179 C   0  0  0  0  0  0  0  0  0  0  0  0
  -35.9643   62.4041   65.9209 C   0  0  0  0  0  0  0  0  0  0  0  0
  -37.7185   61.0182   61.9192 H   0  0  0  0  0  0  0  0  0  0  0  0
  -35.2034   64.8268   63.8627 H   0  0  0  0  0  0  0  0  0  0  0  0
  -36.9570   64.2080   67.1350 O   0  0  0  0  0  0  0  0  0  0  0  0
  -35.8187   63.4025   67.0672 C   0  0  0  0  0  0  0  0  0  0  0  0
  -36.8621   64.8412   67.8635 H   0  0  0  0  0  0  0  0  0  0  0  0
  -34.4891   63.0099   62.5675 O   0  0  0  0  0  0  0  0  0  0  0  0
  -32.3816   63.9552   61.3922 O   0  0  0  0  0  0  0  0  0  0  0  0
  -32.4087   61.6409   62.1220 O   0  0  0  0  0  0  0  0  0  0  0  0
  -32.1558   63.4269   63.7409 O   0  0  0  0  0  0  0  0  0  0  0  0
  -32.8270   63.0256   62.4720 S   0  0  0  0  0  0  0  0  0  0  0  0
  -32.8089   63.7090   60.5569 H   0  0  0  0  0  0  0  0  0  0  0  0
  -32.4232   64.3291   63.9766 H   0  0  0  0  0  0  0  0  0  0  0  0
  2  1  1  0  0  0
  2  4  1  0  0  0
  2  5  1  0  0  0
 41 42  1  0  0  0
 41  1  1  0  0  0
 42 46  1  0  0  0
  1 24  1  0  0  0
 23 24  1  0  0  0
 23 25  1  0  0  0
 24 26  1  0  0  0
  3  4  2  0  0  0
 26 27  2  0  0  0
 27 28  1  0  0  0
 43 47  1  0  0  0
 43 51  1  0  0  0
 28 29  1  0  0  0
 56 48  1  0  0  0
 56 60  1  0  0  0
 29 30  1  0  0  0
 57 60  1  0  0  0
 57 61  1  0  0  0
 30 31  1  0  0  0
 44 49  1  0  0  0
 44 52  1  0  0  0
 31 32  1  0  0  0
 45 46  1  0  0  0
 45 50  1  0  0  0
 32 33  1  0  0  0
 53 54  1  0  0  0
 53 55  1  0  0  0
 33 34  1  0  0  0
 34 35  1  0  0  0
 35 36  1  0  0  0
 58 60  1  0  0  0
 36 37  1  0  0  0
 59 60  1  0  0  0
 59 62  1  0  0  0
 37 38  1  0  0  0
 38 39  1  0  0  0
 39 40  1  0  0  0
  4  6  1  0  0  0
  6  7  1  0  0  0
  7  8  1  0  0  0
  8  9  1  0  0  0
  9 10  1  0  0  0
 10 11  1  0  0  0
 11 12  1  0  0  0
 12 13  1  0  0  0
 13 14  1  0  0  0
 14 15  1  0  0  0
 15 16  1  0  0  0
 16 17  1  0  0  0
 17 18  1  0  0  0
 18 19  1  0  0  0
 19 20  1  0  0  0
 20 21  1  0  0  0
 21 22  1  0  0  0
 46 47  1  0  0  0
 47 48  1  0  0  0
 48 49  1  0  0  0
 49 50  1  0  0  0
 50 54  1  0  0  0
M  CHG 1  58  -1
M  END
> <minimizedAffinity>
-10.28802

> <CNNscore>
0.2818642557

> <CNNaffinity>
7.0118322372

> <CNN_VS>
1.9763848782

> <CNNaffinity_variance>
1.6758149862

$$$$
/media/chris/experiments/cd1a-new-docking/inputs/ligands/1onq_ligand.pdb


 62 62  0  0  0  0  0  0  0  0999 V2000
  -39.4863   59.3842   64.4135 C   0  0  0  0  0  0  0  0  0  0  0  0
  -38.4116   60.0308   65.1402 N   0  0  0  0  0  0  0  0  0  0  0  0
  -37.4886   61.3539   63.5449 O   0  0  0  0  0  0  0  0  0  0  0  0
  -37.5274   60.9278   64.6828 C   0  0  0  0  0  0  0  0  0  0  0  0
  -38.3199   59.7797   66.0878 H   0  0  0  0  0  0  0  0  0  0  0  0
  -36.5352   61.4185   65.6950 C   0  0  0  0  0  0  0  0  0  0  0  0
  -35.8189   62.6092   65.0576 C   0  0  0  0  0  0  0  0  0  0  0  0
  -35.7634   63.7734   66.0438 C   0  0  0  0  0  0  0  0  0  0  0  0
  -34.4177   64.0489   66.6698 C   0  0  0  0  0  0  0  0  0  0  0  0
  -33.3716   63.2771   65.8724 C   0  0  0  0  0  0  0  0  0  0  0  0
  -32.1877   64.1540   65.4429 C   0  0  0  0  0  0  0  0  0  0  0  0
  -32.2458   64.6208   63.9769 C   0  0  0  0  0  0  0  0  0  0  0  0
  -32.9260   63.5932   63.0461 C   0  0  0  0  0  0  0  0  0  0  0  0
  -32.1570   63.4663   61.7280 C   0  0  0  0  0  0  0  0  0  0  0  0
  -30.9326   62.5605   61.7801 C   0  0  0  0  0  0  0  0  0  0  0  0
  -31.1286   61.3785   62.7178 C   0  0  0  0  0  0  0  0  0  0  0  0
  -31.0881   59.9931   62.0687 C   0  0  0  0  0  0  0  0  0  0  0  0
  -32.4165   59.3007   62.3420 C   0  0  0  0  0  0  0  0  0  0  0  0
  -33.5183   60.0855   63.0388 C   0  0  0  0  0  0  0  0  0  0  0  0
  -34.7482   59.1996   63.2926 C   0  0  0  0  0  0  0  0  0  0  0  0
  -34.4778   57.9705   64.1799 C   0  0  0  0  0  0  0  0  0  0  0  0
  -35.7299   57.1443   64.4652 C   0  0  0  0  0  0  0  0  0  0  0  0
  -40.2265   60.7518   66.1392 O   0  0  0  0  0  0  0  0  0  0  0  0
  -40.7262   59.9383   65.0941 C   0  0  0  0  0  0  0  0  0  0  0  0
  -39.6956   61.4713   65.7631 H   0  0  0  0  0  0  0  0  0  0  0  0
  -41.5758   58.7795   65.6212 C   0  0  0  0  0  0  0  0  0  0  0  0
  -42.7005   58.9617   66.3340 C   0  0  0  0  0  0  0  0  0  0  0  0
  -43.4933   57.7521   66.8258 C   0  0  0  0  0  0  0  0  0  0  0  0
  -44.2502   57.0111   65.7140 C   0  0  0  0  0  0  0  0  0  0  0  0
  -45.4623   57.7548   65.1229 C   0  0  0  0  0  0  0  0  0  0  0  0
  -46.6582   57.7231   66.1047 C   0  0  0  0  0  0  0  0  0  0  0  0
  -47.9763   57.1516   65.5237 C   0  0  0  0  0  0  0  0  0  0  0  0
  -48.6173   58.0302   64.4237 C   0  0  0  0  0  0  0  0  0  0  0  0
  -50.0792   58.4265   64.7238 C   0  0  0  0  0  0  0  0  0  0  0  0
  -50.7543   59.2035   63.5873 C   0  0  0  0  0  0  0  0  0  0  0  0
  -51.1462   58.3881   62.3569 C   0  0  0  0  0  0  0  0  0  0  0  0
  -50.1309   58.4733   61.2002 C   0  0  0  0  0  0  0  0  0  0  0  0
  -50.3608   57.4785   60.0525 C   0  0  0  0  0  0  0  0  0  0  0  0
  -49.1606   56.5417   59.8881 C   0  0  0  0  0  0  0  0  0  0  0  0
  -48.5527   56.4605   58.4991 C   0  0  0  0  0  0  0  0  0  0  0  0
  -39.3795   57.8468   64.2957 C   0  0  0  0  0  0  0  0  0  0  0  0
  -39.0690   57.3175   62.9817 O   0  0  0  0  0  0  0  0  0  0  0  0
  -36.7909   56.5639   61.4260 O   0  0  0  0  0  0  0  0  0  0  0  0
  -38.8822   58.5034   58.3823 O   0  0  0  0  0  0  0  0  0  0  0  0
  -39.3619   59.0585   61.3179 O   0  0  0  0  0  0  0  0  0  0  0  0
  -38.4235   58.1557   61.9517 C   0  0  0  0  0  0  0  0  0  0  0  0
  -37.7194   57.4041   60.8127 C   0  0  0  0  0  0  0  0  0  0  0  0
  -36.9640   58.3288   59.8332 C   0  0  0  0  0  0  0  0  0  0  0  0
  -37.9995   59.2363   59.2283 C   0  0  0  0  0  0  0  0  0  0  0  0
  -38.7689   59.9434   60.3294 C   0  0  0  0  0  0  0  0  0  0  0  0
  -37.2482   55.9746   62.0462 H   0  0  0  0  0  0  0  0  0  0  0  0
  -38.3705   58.0603   57.6874 H   0  0  0  0  0  0  0  0  0  0  0  0
  -40.9179   60.0524   59.2884 O   0  0  0  0  0  0  0  0  0  0  0  0
  -39.7514   60.7844   59.5172 C   0  0  0  0  0  0  0  0  0  0  0  0
  -41.5401   60.5886   58.7724 H   0  0  0  0  0  0  0  0  0  0  0  0
  -36.3052   57.6756   58.7245 O   0  0  0  0  0  0  0  0  0  0  0  0
  -35.3312   55.3084   59.1295 O   0  0  0  0  0  0  0  0  0  0  0  0
  -34.2263   57.2394   60.0988 O   0  0  0  0  0  0  0  0  0  0  0  0
  -34.0244   56.7822   57.7272 O   0  0  0  0  0  0  0  0  0  0  0  0
  -34.9448   56.7317   58.8985 S   0  0  0  0  0  0  0  0  0  0  0  0
  -35.9314   55.2555   59.8897 H   0  0  0  0  0  0  0  0  0  0  0  0
  -34.4851   56.4528   56.9397 H   0  0  0  0  0  0  0  0  0  0  0  0
  2  1  1  0  0  0
  2  4  1  0  0  0
  2  5  1  0  0  0
 41 42  1  0  0  0
 41  1  1  0  0  0
 42 46  1  0  0  0
  1 24  1  0  0  0
 23 24  1  0  0  0
 23 25  1  0  0  0
 24 26  1  0  0  0
  3  4  2  0  0  0
 26 27  2  0  0  0
 27 28  1  0  0  0
 43 47  1  0  0  0
 43 51  1  0  0  0
 28 29  1  0  0  0
 56 48  1  0  0  0
 56 60  1  0  0  0
 29 30  1  0  0  0
 57 60  1  0  0  0
 57 61  1  0  0  0
 30 31  1  0  0  0
 44 49  1  0  0  0
 44 52  1  0  0  0
 31 32  1  0  0  0
 45 46  1  0  0  0
 45 50  1  0  0  0
 32 33  1  0  0  0
 53 54  1  0  0  0
 53 55  1  0  0  0
 33 34  1  0  0  0
 34 35  1  0  0  0
 35 36  1  0  0  0
 58 60  1  0  0  0
 36 37  1  0  0  0
 59 60  1  0  0  0
 59 62  1  0  0  0
 37 38  1  0  0  0
 38 39  1  0  0  0
 39 40  1  0  0  0
  4  6  1  0  0  0
  6  7  1  0  0  0
  7  8  1  0  0  0
  8  9  1  0  0  0
  9 10  1  0  0  0
 10 11  1  0  0  0
 11 12  1  0  0  0
 12 13  1  0  0  0
 13 14  1  0  0  0
 14 15  1  0  0  0
 15 16  1  0  0  0
 16 17  1  0  0  0
 17 18  1  0  0  0
 18 19  1  0  0  0
 19 20  1  0  0  0
 20 21  1  0  0  0
 21 22  1  0  0  0
 46 47  1  0  0  0
 47 48  1  0  0  0
 48 49  1  0  0  0
 49 50  1  0  0  0
 50 54  1  0  0  0
M  CHG 1  58  -1
M  END
> <minimizedAffinity>
-8.78854

> <CNNscore>
0.2793347836

> <CNNaffinity>
7.0269532204

> <CNN_VS>
1.9628725052

> <CNNaffinity_variance>
1.1045427322

$$$$
/media/chris/experiments/cd1a-new-docking/inputs/ligands/1onq_ligand.pdb


 62 62  0  0  0  0  0  0  0  0999 V2000
  -37.5963   59.5067   63.5184 C   0  0  0  0  0  0  0  0  0  0  0  0
  -37.2400   59.1854   62.1506 N   0  0  0  0  0  0  0  0  0  0  0  0
  -38.4775   57.3239   61.7624 O   0  0  0  0  0  0  0  0  0  0  0  0
  -37.6807   58.1670   61.3992 C   0  0  0  0  0  0  0  0  0  0  0  0
  -36.5938   59.7906   61.7200 H   0  0  0  0  0  0  0  0  0  0  0  0
  -37.1233   58.1134   60.0078 C   0  0  0  0  0  0  0  0  0  0  0  0
  -38.1890   58.7138   59.0907 C   0  0  0  0  0  0  0  0  0  0  0  0
  -38.7359   60.0022   59.7004 C   0  0  0  0  0  0  0  0  0  0  0  0
  -40.2362   60.1658   59.6703 C   0  0  0  0  0  0  0  0  0  0  0  0
  -40.7398   59.5600   58.3644 C   0  0  0  0  0  0  0  0  0  0  0  0
  -42.2709   59.4788   58.3001 C   0  0  0  0  0  0  0  0  0  0  0  0
  -42.8141   58.7658   57.0483 C   0  0  0  0  0  0  0  0  0  0  0  0
  -44.2510   58.2321   57.2373 C   0  0  0  0  0  0  0  0  0  0  0  0
  -44.6274   58.2081   58.7215 C   0  0  0  0  0  0  0  0  0  0  0  0
  -45.8685   57.3908   59.0591 C   0  0  0  0  0  0  0  0  0  0  0  0
  -46.8019   57.2395   57.8672 C   0  0  0  0  0  0  0  0  0  0  0  0
  -48.2936   57.1329   58.1923 C   0  0  0  0  0  0  0  0  0  0  0  0
  -48.4458   57.0443   59.7048 C   0  0  0  0  0  0  0  0  0  0  0  0
  -49.6532   56.3146   60.2748 C   0  0  0  0  0  0  0  0  0  0  0  0
  -50.8051   57.2928   60.5546 C   0  0  0  0  0  0  0  0  0  0  0  0
  -50.6037   58.1775   61.7987 C   0  0  0  0  0  0  0  0  0  0  0  0
  -49.8820   59.4889   61.4969 C   0  0  0  0  0  0  0  0  0  0  0  0
  -37.7096   61.7087   64.2492 O   0  0  0  0  0  0  0  0  0  0  0  0
  -38.3562   60.8130   63.3643 C   0  0  0  0  0  0  0  0  0  0  0  0
  -36.7849   61.8201   63.9780 H   0  0  0  0  0  0  0  0  0  0  0  0
  -39.8241   60.5926   63.7375 C   0  0  0  0  0  0  0  0  0  0  0  0
  -40.2149   60.1701   64.9520 C   0  0  0  0  0  0  0  0  0  0  0  0
  -41.7008   59.9733   65.2467 C   0  0  0  0  0  0  0  0  0  0  0  0
  -42.0176   59.7698   66.7355 C   0  0  0  0  0  0  0  0  0  0  0  0
  -42.6254   58.4045   67.1071 C   0  0  0  0  0  0  0  0  0  0  0  0
  -42.6598   57.4657   65.8772 C   0  0  0  0  0  0  0  0  0  0  0  0
  -43.7803   56.3953   65.8930 C   0  0  0  0  0  0  0  0  0  0  0  0
  -45.1762   56.9336   65.5001 C   0  0  0  0  0  0  0  0  0  0  0  0
  -45.1239   58.2029   64.6224 C   0  0  0  0  0  0  0  0  0  0  0  0
  -45.7517   59.4365   65.2822 C   0  0  0  0  0  0  0  0  0  0  0  0
  -46.5906   59.1759   66.5314 C   0  0  0  0  0  0  0  0  0  0  0  0
  -48.1113   59.2001   66.2804 C   0  0  0  0  0  0  0  0  0  0  0  0
  -48.7508   57.8315   66.0017 C   0  0  0  0  0  0  0  0  0  0  0  0
  -50.1623   57.9903   65.4295 C   0  0  0  0  0  0  0  0  0  0  0  0
  -50.6804   59.4112   65.2949 C   0  0  0  0  0  0  0  0  0  0  0  0
  -36.4294   59.4903   64.5317 C   0  0  0  0  0  0  0  0  0  0  0  0
  -35.1342   59.9143   64.0357 O   0  0  0  0  0  0  0  0  0  0  0  0
  -32.8063   61.1756   62.9553 O   0  0  0  0  0  0  0  0  0  0  0  0
  -34.6726   64.6347   64.3520 O   0  0  0  0  0  0  0  0  0  0  0  0
  -35.2828   61.8812   65.4481 O   0  0  0  0  0  0  0  0  0  0  0  0
  -34.4090   61.0416   64.6549 C   0  0  0  0  0  0  0  0  0  0  0  0
  -33.6733   61.9831   63.6905 C   0  0  0  0  0  0  0  0  0  0  0  0
  -32.8381   63.0704   64.4013 C   0  0  0  0  0  0  0  0  0  0  0  0
  -33.8101   63.8878   65.2066 C   0  0  0  0  0  0  0  0  0  0  0  0
  -34.6106   62.9792   66.1220 C   0  0  0  0  0  0  0  0  0  0  0  0
  -33.3143   60.4853   62.5010 H   0  0  0  0  0  0  0  0  0  0  0  0
  -34.1413   65.2073   63.7768 H   0  0  0  0  0  0  0  0  0  0  0  0
  -36.8216   63.8634   66.3294 O   0  0  0  0  0  0  0  0  0  0  0  0
  -35.5213   63.9851   66.8226 C   0  0  0  0  0  0  0  0  0  0  0  0
  -37.3980   64.5032   66.7757 H   0  0  0  0  0  0  0  0  0  0  0  0
  -32.1458   64.0026   63.5401 O   0  0  0  0  0  0  0  0  0  0  0  0
  -31.3645   62.8460   61.3564 O   0  0  0  0  0  0  0  0  0  0  0  0
  -31.7089   65.2481   61.3817 O   0  0  0  0  0  0  0  0  0  0  0  0
  -33.6095   63.7442   61.3524 O   0  0  0  0  0  0  0  0  0  0  0  0
  -32.2293   63.9453   61.8783 S   0  0  0  0  0  0  0  0  0  0  0  0
  -30.4604   62.9604   61.6887 H   0  0  0  0  0  0  0  0  0  0  0  0
  -33.9566   62.8966   61.6716 H   0  0  0  0  0  0  0  0  0  0  0  0
  2  1  1  0  0  0
  2  4  1  0  0  0
  2  5  1  0  0  0
 41 42  1  0  0  0
 41  1  1  0  0  0
 42 46  1  0  0  0
  1 24  1  0  0  0
 23 24  1  0  0  0
 23 25  1  0  0  0
 24 26  1  0  0  0
  3  4  2  0  0  0
 26 27  2  0  0  0
 27 28  1  0  0  0
 43 47  1  0  0  0
 43 51  1  0  0  0
 28 29  1  0  0  0
 56 48  1  0  0  0
 56 60  1  0  0  0
 29 30  1  0  0  0
 57 60  1  0  0  0
 57 61  1  0  0  0
 30 31  1  0  0  0
 44 49  1  0  0  0
 44 52  1  0  0  0
 31 32  1  0  0  0
 45 46  1  0  0  0
 45 50  1  0  0  0
 32 33  1  0  0  0
 53 54  1  0  0  0
 53 55  1  0  0  0
 33 34  1  0  0  0
 34 35  1  0  0  0
 35 36  1  0  0  0
 58 60  1  0  0  0
 36 37  1  0  0  0
 59 60  1  0  0  0
 59 62  1  0  0  0
 37 38  1  0  0  0
 38 39  1  0  0  0
 39 40  1  0  0  0
  4  6  1  0  0  0
  6  7  1  0  0  0
  7  8  1  0  0  0
  8  9  1  0  0  0
  9 10  1  0  0  0
 10 11  1  0  0  0
 11 12  1  0  0  0
 12 13  1  0  0  0
 13 14  1  0  0  0
 14 15  1  0  0  0
 15 16  1  0  0  0
 16 17  1  0  0  0
 17 18  1  0  0  0
 18 19  1  0  0  0
 19 20  1  0  0  0
 20 21  1  0  0  0
 21 22  1  0  0  0
 46 47  1  0  0  0
 47 48  1  0  0  0
 48 49  1  0  0  0
 49 50  1  0  0  0
 50 54  1  0  0  0
M  CHG 1  58  -1
M  END
> <minimizedAffinity>
-8.80967

> <CNNscore>
0.2577359378

> <CNNaffinity>
6.9970512390

> <CNN_VS>
1.8033915758

> <CNNaffinity_variance>
0.9549198151

$$$$
/media/chris/experiments/cd1a-new-docking/inputs/ligands/1onq_ligand.pdb


 62 62  0  0  0  0  0  0  0  0999 V2000
  -35.6269   57.8309   62.2798 C   0  0  0  0  0  0  0  0  0  0  0  0
  -36.5696   58.5633   61.4576 N   0  0  0  0  0  0  0  0  0  0  0  0
  -36.5837   57.3399   59.5470 O   0  0  0  0  0  0  0  0  0  0  0  0
  -36.9669   58.2851   60.2084 C   0  0  0  0  0  0  0  0  0  0  0  0
  -36.9675   59.3649   61.8680 H   0  0  0  0  0  0  0  0  0  0  0  0
  -37.9687   59.2400   59.6304 C   0  0  0  0  0  0  0  0  0  0  0  0
  -39.0238   59.4688   60.7129 C   0  0  0  0  0  0  0  0  0  0  0  0
  -40.2089   60.2363   60.1321 C   0  0  0  0  0  0  0  0  0  0  0  0
  -40.5997   59.8824   58.7177 C   0  0  0  0  0  0  0  0  0  0  0  0
  -42.0867   59.5435   58.7214 C   0  0  0  0  0  0  0  0  0  0  0  0
  -42.5991   59.1086   57.3418 C   0  0  0  0  0  0  0  0  0  0  0  0
  -43.9735   58.4151   57.3677 C   0  0  0  0  0  0  0  0  0  0  0  0
  -44.4220   58.0243   58.7930 C   0  0  0  0  0  0  0  0  0  0  0  0
  -45.8946   57.6042   58.7997 C   0  0  0  0  0  0  0  0  0  0  0  0
  -46.6802   57.9871   57.5513 C   0  0  0  0  0  0  0  0  0  0  0  0
  -47.2725   56.7752   56.8476 C   0  0  0  0  0  0  0  0  0  0  0  0
  -48.3040   55.9737   57.6451 C   0  0  0  0  0  0  0  0  0  0  0  0
  -49.0204   56.9283   58.5908 C   0  0  0  0  0  0  0  0  0  0  0  0
  -49.3394   56.4549   60.0013 C   0  0  0  0  0  0  0  0  0  0  0  0
  -50.6582   57.0654   60.5010 C   0  0  0  0  0  0  0  0  0  0  0  0
  -50.5007   58.0596   61.6663 C   0  0  0  0  0  0  0  0  0  0  0  0
  -49.0498   58.2579   62.0991 C   0  0  0  0  0  0  0  0  0  0  0  0
  -35.7227   56.8147   64.3665 O   0  0  0  0  0  0  0  0  0  0  0  0
  -36.2520   57.9221   63.6613 C   0  0  0  0  0  0  0  0  0  0  0  0
  -34.7581   56.8993   64.4243 H   0  0  0  0  0  0  0  0  0  0  0  0
  -37.7755   57.8500   63.5341 C   0  0  0  0  0  0  0  0  0  0  0  0
  -38.6117   58.3776   64.4444 C   0  0  0  0  0  0  0  0  0  0  0  0
  -40.1220   58.2632   64.2459 C   0  0  0  0  0  0  0  0  0  0  0  0
  -40.8253   59.6122   64.0358 C   0  0  0  0  0  0  0  0  0  0  0  0
  -42.1551   59.7952   64.7905 C   0  0  0  0  0  0  0  0  0  0  0  0
  -41.9800   59.4810   66.2958 C   0  0  0  0  0  0  0  0  0  0  0  0
  -43.0210   58.5002   66.8924 C   0  0  0  0  0  0  0  0  0  0  0  0
  -43.0457   57.1114   66.2118 C   0  0  0  0  0  0  0  0  0  0  0  0
  -44.4018   56.7680   65.5583 C   0  0  0  0  0  0  0  0  0  0  0  0
  -45.0521   57.9489   64.8275 C   0  0  0  0  0  0  0  0  0  0  0  0
  -46.5655   58.0831   64.9824 C   0  0  0  0  0  0  0  0  0  0  0  0
  -47.0273   59.4851   65.4263 C   0  0  0  0  0  0  0  0  0  0  0  0
  -48.2787   59.5108   66.3169 C   0  0  0  0  0  0  0  0  0  0  0  0
  -49.5466   59.2770   65.4906 C   0  0  0  0  0  0  0  0  0  0  0  0
  -50.3160   58.0007   65.7811 C   0  0  0  0  0  0  0  0  0  0  0  0
  -34.1500   58.2673   62.1488 C   0  0  0  0  0  0  0  0  0  0  0  0
  -33.6292   59.1171   63.2024 O   0  0  0  0  0  0  0  0  0  0  0  0
  -35.1669   60.5780   65.1204 O   0  0  0  0  0  0  0  0  0  0  0  0
  -32.1006   63.3705   64.6743 O   0  0  0  0  0  0  0  0  0  0  0  0
  -32.7442   61.2873   62.5763 O   0  0  0  0  0  0  0  0  0  0  0  0
  -33.8488   60.5771   63.1870 C   0  0  0  0  0  0  0  0  0  0  0  0
  -34.0790   61.2402   64.5527 C   0  0  0  0  0  0  0  0  0  0  0  0
  -34.4195   62.7439   64.4626 C   0  0  0  0  0  0  0  0  0  0  0  0
  -33.2356   63.4049   63.8125 C   0  0  0  0  0  0  0  0  0  0  0  0
  -32.9305   62.7259   62.4895 C   0  0  0  0  0  0  0  0  0  0  0  0
  -34.9708   59.6302   65.1850 H   0  0  0  0  0  0  0  0  0  0  0  0
  -32.3174   63.8089   65.5121 H   0  0  0  0  0  0  0  0  0  0  0  0
  -31.9008   64.8759   62.3137 O   0  0  0  0  0  0  0  0  0  0  0  0
  -31.7188   63.5246   62.0140 C   0  0  0  0  0  0  0  0  0  0  0  0
  -31.1301   65.3809   62.0106 H   0  0  0  0  0  0  0  0  0  0  0  0
  -34.6192   63.4256   65.7218 O   0  0  0  0  0  0  0  0  0  0  0  0
  -37.0150   62.5552   66.1896 O   0  0  0  0  0  0  0  0  0  0  0  0
  -36.6830   64.8827   65.5879 O   0  0  0  0  0  0  0  0  0  0  0  0
  -36.0990   64.1018   67.8068 O   0  0  0  0  0  0  0  0  0  0  0  0
  -36.1238   63.7406   66.3610 S   0  0  0  0  0  0  0  0  0  0  0  0
  -37.0438   62.3050   65.2529 H   0  0  0  0  0  0  0  0  0  0  0  0
  -35.7356   63.3623   68.3186 H   0  0  0  0  0  0  0  0  0  0  0  0
  2  1  1  0  0  0
  2  4  1  0  0  0
  2  5  1  0  0  0
 41 42  1  0  0  0
 41  1  1  0  0  0
 42 46  1  0  0  0
  1 24  1  0  0  0
 23 24  1  0  0  0
 23 25  1  0  0  0
 24 26  1  0  0  0
  3  4  2  0  0  0
 26 27  2  0  0  0
 27 28  1  0  0  0
 43 47  1  0  0  0
 43 51  1  0  0  0
 28 29  1  0  0  0
 56 48  1  0  0  0
 56 60  1  0  0  0
 29 30  1  0  0  0
 57 60  1  0  0  0
 57 61  1  0  0  0
 30 31  1  0  0  0
 44 49  1  0  0  0
 44 52  1  0  0  0
 31 32  1  0  0  0
 45 46  1  0  0  0
 45 50  1  0  0  0
 32 33  1  0  0  0
 53 54  1  0  0  0
 53 55  1  0  0  0
 33 34  1  0  0  0
 34 35  1  0  0  0
 35 36  1  0  0  0
 58 60  1  0  0  0
 36 37  1  0  0  0
 59 60  1  0  0  0
 59 62  1  0  0  0
 37 38  1  0  0  0
 38 39  1  0  0  0
 39 40  1  0  0  0
  4  6  1  0  0  0
  6  7  1  0  0  0
  7  8  1  0  0  0
  8  9  1  0  0  0
  9 10  1  0  0  0
 10 11  1  0  0  0
 11 12  1  0  0  0
 12 13  1  0  0  0
 13 14  1  0  0  0
 14 15  1  0  0  0
 15 16  1  0  0  0
 16 17  1  0  0  0
 17 18  1  0  0  0
 18 19  1  0  0  0
 19 20  1  0  0  0
 20 21  1  0  0  0
 21 22  1  0  0  0
 46 47  1  0  0  0
 47 48  1  0  0  0
 48 49  1  0  0  0
 49 50  1  0  0  0
 50 54  1  0  0  0
M  CHG 1  58  -1
M  END
> <minimizedAffinity>
-9.01536

> <CNNscore>
0.1999960840

> <CNNaffinity>
6.7860856056

> <CNN_VS>
1.3571904898

> <CNNaffinity_variance>
1.4980672598

$$$$
/media/chris/experiments/cd1a-new-docking/inputs/ligands/1onq_ligand.pdb


 62 62  0  0  0  0  0  0  0  0999 V2000
  -38.4146   60.2168   65.2322 C   0  0  0  0  0  0  0  0  0  0  0  0
  -39.6403   59.8228   65.8981 N   0  0  0  0  0  0  0  0  0  0  0  0
  -41.2107   60.9435   64.7042 O   0  0  0  0  0  0  0  0  0  0  0  0
  -40.8949   60.1924   65.6064 C   0  0  0  0  0  0  0  0  0  0  0  0
  -39.5384   59.2070   66.6595 H   0  0  0  0  0  0  0  0  0  0  0  0
  -41.9552   59.5993   66.4859 C   0  0  0  0  0  0  0  0  0  0  0  0
  -42.7198   58.5937   65.6249 C   0  0  0  0  0  0  0  0  0  0  0  0
  -44.1874   59.0022   65.5250 C   0  0  0  0  0  0  0  0  0  0  0  0
  -45.0415   58.1840   64.5871 C   0  0  0  0  0  0  0  0  0  0  0  0
  -46.4155   58.0300   65.2308 C   0  0  0  0  0  0  0  0  0  0  0  0
  -47.1856   59.3551   65.3086 C   0  0  0  0  0  0  0  0  0  0  0  0
  -48.6697   59.2479   64.9131 C   0  0  0  0  0  0  0  0  0  0  0  0
  -48.8927   59.3403   63.3877 C   0  0  0  0  0  0  0  0  0  0  0  0
  -49.9437   58.3237   62.9329 C   0  0  0  0  0  0  0  0  0  0  0  0
  -50.4159   58.4844   61.4929 C   0  0  0  0  0  0  0  0  0  0  0  0
  -50.7044   57.1470   60.8274 C   0  0  0  0  0  0  0  0  0  0  0  0
  -49.5353   56.5045   60.0773 C   0  0  0  0  0  0  0  0  0  0  0  0
  -48.5960   57.6129   59.6213 C   0  0  0  0  0  0  0  0  0  0  0  0
  -47.1838   57.2418   59.1929 C   0  0  0  0  0  0  0  0  0  0  0  0
  -46.9477   57.5917   57.7152 C   0  0  0  0  0  0  0  0  0  0  0  0
  -47.5990   56.6175   56.7163 C   0  0  0  0  0  0  0  0  0  0  0  0
  -47.4580   55.1523   57.1223 C   0  0  0  0  0  0  0  0  0  0  0  0
  -38.3810   57.9006   65.4047 O   0  0  0  0  0  0  0  0  0  0  0  0
  -37.9979   58.9397   64.5231 C   0  0  0  0  0  0  0  0  0  0  0  0
  -39.3427   57.9209   65.5298 H   0  0  0  0  0  0  0  0  0  0  0  0
  -36.4866   58.9636   64.2821 C   0  0  0  0  0  0  0  0  0  0  0  0
  -35.7385   57.8491   64.2151 C   0  0  0  0  0  0  0  0  0  0  0  0
  -34.2342   57.9567   63.9722 C   0  0  0  0  0  0  0  0  0  0  0  0
  -33.8662   58.5414   62.6007 C   0  0  0  0  0  0  0  0  0  0  0  0
  -32.7633   57.7916   61.8307 C   0  0  0  0  0  0  0  0  0  0  0  0
  -33.1389   56.3017   61.6452 C   0  0  0  0  0  0  0  0  0  0  0  0
  -34.3206   56.0325   60.6795 C   0  0  0  0  0  0  0  0  0  0  0  0
  -33.9291   56.0355   59.1830 C   0  0  0  0  0  0  0  0  0  0  0  0
  -34.6920   57.0860   58.3473 C   0  0  0  0  0  0  0  0  0  0  0  0
  -36.0409   56.5895   57.8132 C   0  0  0  0  0  0  0  0  0  0  0  0
  -37.2838   57.1959   58.4612 C   0  0  0  0  0  0  0  0  0  0  0  0
  -36.9780   58.1314   59.6475 C   0  0  0  0  0  0  0  0  0  0  0  0
  -38.2065   58.6207   60.4292 C   0  0  0  0  0  0  0  0  0  0  0  0
  -38.6921   59.9732   59.9001 C   0  0  0  0  0  0  0  0  0  0  0  0
  -40.1933   60.2007   59.9053 C   0  0  0  0  0  0  0  0  0  0  0  0
  -37.3570   60.8960   66.1316 C   0  0  0  0  0  0  0  0  0  0  0  0
  -37.0400   62.2785   65.8290 O   0  0  0  0  0  0  0  0  0  0  0  0
  -35.1644   62.2001   63.6718 O   0  0  0  0  0  0  0  0  0  0  0  0
  -34.1171   65.9626   65.1368 O   0  0  0  0  0  0  0  0  0  0  0  0
  -35.5028   63.8688   66.8255 O   0  0  0  0  0  0  0  0  0  0  0  0
  -35.6510   62.7758   65.8870 C   0  0  0  0  0  0  0  0  0  0  0  0
  -35.0537   63.2684   64.5610 C   0  0  0  0  0  0  0  0  0  0  0  0
  -33.5643   63.6642   64.6607 C   0  0  0  0  0  0  0  0  0  0  0  0
  -33.4939   64.7900   65.6552 C   0  0  0  0  0  0  0  0  0  0  0  0
  -34.1433   64.3644   66.9596 C   0  0  0  0  0  0  0  0  0  0  0  0
  -36.0951   61.9373   63.5964 H   0  0  0  0  0  0  0  0  0  0  0  0
  -33.6875   66.2162   64.3049 H   0  0  0  0  0  0  0  0  0  0  0  0
  -32.6696   66.1007   67.6855 O   0  0  0  0  0  0  0  0  0  0  0  0
  -33.9771   65.6260   67.8039 C   0  0  0  0  0  0  0  0  0  0  0  0
  -32.5665   66.9017   68.2227 H   0  0  0  0  0  0  0  0  0  0  0  0
  -32.9576   64.1621   63.4465 O   0  0  0  0  0  0  0  0  0  0  0  0
  -31.5676   63.7147   61.3054 O   0  0  0  0  0  0  0  0  0  0  0  0
  -33.9735   63.4007   61.2581 O   0  0  0  0  0  0  0  0  0  0  0  0
  -32.5541   61.7805   62.3694 O   0  0  0  0  0  0  0  0  0  0  0  0
  -32.7465   63.2306   62.0829 S   0  0  0  0  0  0  0  0  0  0  0  0
  -31.6752   64.6586   61.1091 H   0  0  0  0  0  0  0  0  0  0  0  0
  -31.7557   61.6605   62.9071 H   0  0  0  0  0  0  0  0  0  0  0  0
  2  1  1  0  0  0
  2  4  1  0  0  0
  2  5  1  0  0  0
 41 42  1  0  0  0
 41  1  1  0  0  0
 42 46  1  0  0  0
  1 24  1  0  0  0
 23 24  1  0  0  0
 23 25  1  0  0  0
 24 26  1  0  0  0
  3  4  2  0  0  0
 26 27  2  0  0  0
 27 28  1  0  0  0
 43 47  1  0  0  0
 43 51  1  0  0  0
 28 29  1  0  0  0
 56 48  1  0  0  0
 56 60  1  0  0  0
 29 30  1  0  0  0
 57 60  1  0  0  0
 57 61  1  0  0  0
 30 31  1  0  0  0
 44 49  1  0  0  0
 44 52  1  0  0  0
 31 32  1  0  0  0
 45 46  1  0  0  0
 45 50  1  0  0  0
 32 33  1  0  0  0
 53 54  1  0  0  0
 53 55  1  0  0  0
 33 34  1  0  0  0
 34 35  1  0  0  0
 35 36  1  0  0  0
 58 60  1  0  0  0
 36 37  1  0  0  0
 59 60  1  0  0  0
 59 62  1  0  0  0
 37 38  1  0  0  0
 38 39  1  0  0  0
 39 40  1  0  0  0
  4  6  1  0  0  0
  6  7  1  0  0  0
  7  8  1  0  0  0
  8  9  1  0  0  0
  9 10  1  0  0  0
 10 11  1  0  0  0
 11 12  1  0  0  0
 12 13  1  0  0  0
 13 14  1  0  0  0
 14 15  1  0  0  0
 15 16  1  0  0  0
 16 17  1  0  0  0
 17 18  1  0  0  0
 18 19  1  0  0  0
 19 20  1  0  0  0
 20 21  1  0  0  0
 21 22  1  0  0  0
 46 47  1  0  0  0
 47 48  1  0  0  0
 48 49  1  0  0  0
 49 50  1  0  0  0
 50 54  1  0  0  0
M  CHG 1  58  -1
M  END
> <minimizedAffinity>
-9.77759

> <CNNscore>
0.1942391396

> <CNNaffinity>
6.9357156754

> <CNN_VS>
1.3471873999

> <CNNaffinity_variance>
1.3143761158

$$$$
/media/chris/experiments/cd1a-new-docking/inputs/ligands/1onq_ligand.pdb


 62 62  0  0  0  0  0  0  0  0999 V2000
  -38.4051   59.2669   62.0597 C   0  0  0  0  0  0  0  0  0  0  0  0
  -39.1746   59.6620   63.2228 N   0  0  0  0  0  0  0  0  0  0  0  0
  -39.5868   57.6661   64.2197 O   0  0  0  0  0  0  0  0  0  0  0  0
  -39.6895   58.8767   64.1788 C   0  0  0  0  0  0  0  0  0  0  0  0
  -39.3394   60.6275   63.3230 H   0  0  0  0  0  0  0  0  0  0  0  0
  -40.4340   59.5971   65.2634 C   0  0  0  0  0  0  0  0  0  0  0  0
  -41.8725   59.7546   64.7705 C   0  0  0  0  0  0  0  0  0  0  0  0
  -42.7444   58.6386   65.3408 C   0  0  0  0  0  0  0  0  0  0  0  0
  -43.5049   58.9695   66.6020 C   0  0  0  0  0  0  0  0  0  0  0  0
  -44.9881   59.0077   66.2492 C   0  0  0  0  0  0  0  0  0  0  0  0
  -45.4686   57.7198   65.5669 C   0  0  0  0  0  0  0  0  0  0  0  0
  -46.3473   57.9527   64.3242 C   0  0  0  0  0  0  0  0  0  0  0  0
  -47.5824   58.8320   64.6184 C   0  0  0  0  0  0  0  0  0  0  0  0
  -48.8728   58.0256   64.4471 C   0  0  0  0  0  0  0  0  0  0  0  0
  -50.1109   58.8514   64.1196 C   0  0  0  0  0  0  0  0  0  0  0  0
  -50.8366   58.3388   62.8844 C   0  0  0  0  0  0  0  0  0  0  0  0
  -50.1106   58.5319   61.5511 C   0  0  0  0  0  0  0  0  0  0  0  0
  -50.4518   57.3539   60.6486 C   0  0  0  0  0  0  0  0  0  0  0  0
  -49.8660   57.3169   59.2447 C   0  0  0  0  0  0  0  0  0  0  0  0
  -48.4433   56.7359   59.2577 C   0  0  0  0  0  0  0  0  0  0  0  0
  -47.6677   56.9164   57.9398 C   0  0  0  0  0  0  0  0  0  0  0  0
  -46.5864   57.9919   58.0178 C   0  0  0  0  0  0  0  0  0  0  0  0
  -36.5837   58.4107   63.2196 O   0  0  0  0  0  0  0  0  0  0  0  0
  -37.7396   57.9826   62.5237 C   0  0  0  0  0  0  0  0  0  0  0  0
  -36.8463   58.9512   63.9811 H   0  0  0  0  0  0  0  0  0  0  0  0
  -37.3942   57.1221   61.3061 C   0  0  0  0  0  0  0  0  0  0  0  0
  -37.2341   57.6305   60.0723 C   0  0  0  0  0  0  0  0  0  0  0  0
  -36.8903   56.7043   58.9072 C   0  0  0  0  0  0  0  0  0  0  0  0
  -35.7176   57.1970   58.0467 C   0  0  0  0  0  0  0  0  0  0  0  0
  -34.3463   56.5752   58.3699 C   0  0  0  0  0  0  0  0  0  0  0  0
  -34.4534   55.6019   59.5685 C   0  0  0  0  0  0  0  0  0  0  0  0
  -33.5925   55.9742   60.8020 C   0  0  0  0  0  0  0  0  0  0  0  0
  -33.7419   57.4447   61.2583 C   0  0  0  0  0  0  0  0  0  0  0  0
  -32.4869   58.0028   61.9638 C   0  0  0  0  0  0  0  0  0  0  0  0
  -32.6909   59.3922   62.5797 C   0  0  0  0  0  0  0  0  0  0  0  0
  -31.7669   60.4954   62.0684 C   0  0  0  0  0  0  0  0  0  0  0  0
  -32.0498   61.8820   62.6794 C   0  0  0  0  0  0  0  0  0  0  0  0
  -31.1277   63.0113   62.1956 C   0  0  0  0  0  0  0  0  0  0  0  0
  -31.9331   64.2634   61.8371 C   0  0  0  0  0  0  0  0  0  0  0  0
  -31.3342   65.5943   62.2561 C   0  0  0  0  0  0  0  0  0  0  0  0
  -37.4849   60.3587   61.4680 C   0  0  0  0  0  0  0  0  0  0  0  0
  -37.4728   61.6372   62.1526 O   0  0  0  0  0  0  0  0  0  0  0  0
  -35.3732   63.5787   62.1574 O   0  0  0  0  0  0  0  0  0  0  0  0
  -36.6332   64.1637   66.0905 O   0  0  0  0  0  0  0  0  0  0  0  0
  -37.1617   61.6086   64.5584 O   0  0  0  0  0  0  0  0  0  0  0  0
  -36.5509   61.8948   63.2768 C   0  0  0  0  0  0  0  0  0  0  0  0
  -35.9929   63.3217   63.3798 C   0  0  0  0  0  0  0  0  0  0  0  0
  -34.9460   63.4989   64.5011 C   0  0  0  0  0  0  0  0  0  0  0  0
  -35.6509   63.1756   65.7895 C   0  0  0  0  0  0  0  0  0  0  0  0
  -36.2807   61.7974   65.6986 C   0  0  0  0  0  0  0  0  0  0  0  0
  -36.0170   63.4719   61.4397 H   0  0  0  0  0  0  0  0  0  0  0  0
  -36.2098   65.0349   66.1438 H   0  0  0  0  0  0  0  0  0  0  0  0
  -36.1577   62.3342   68.0246 O   0  0  0  0  0  0  0  0  0  0  0  0
  -36.9373   61.6756   67.0720 C   0  0  0  0  0  0  0  0  0  0  0  0
  -36.5767   62.2553   68.8959 H   0  0  0  0  0  0  0  0  0  0  0  0
  -34.4072   64.8309   64.6612 O   0  0  0  0  0  0  0  0  0  0  0  0
  -33.6582   65.3101   67.0955 O   0  0  0  0  0  0  0  0  0  0  0  0
  -32.6095   66.5063   65.2629 O   0  0  0  0  0  0  0  0  0  0  0  0
  -32.0537   64.1843   65.6798 O   0  0  0  0  0  0  0  0  0  0  0  0
  -33.1533   65.1904   65.6957 S   0  0  0  0  0  0  0  0  0  0  0  0
  -34.3759   65.9620   67.1258 H   0  0  0  0  0  0  0  0  0  0  0  0
  -32.3997   63.3228   65.9608 H   0  0  0  0  0  0  0  0  0  0  0  0
  2  1  1  0  0  0
  2  4  1  0  0  0
  2  5  1  0  0  0
 41 42  1  0  0  0
 41  1  1  0  0  0
 42 46  1  0  0  0
  1 24  1  0  0  0
 23 24  1  0  0  0
 23 25  1  0  0  0
 24 26  1  0  0  0
  3  4  2  0  0  0
 26 27  2  0  0  0
 27 28  1  0  0  0
 43 47  1  0  0  0
 43 51  1  0  0  0
 28 29  1  0  0  0
 56 48  1  0  0  0
 56 60  1  0  0  0
 29 30  1  0  0  0
 57 60  1  0  0  0
 57 61  1  0  0  0
 30 31  1  0  0  0
 44 49  1  0  0  0
 44 52  1  0  0  0
 31 32  1  0  0  0
 45 46  1  0  0  0
 45 50  1  0  0  0
 32 33  1  0  0  0
 53 54  1  0  0  0
 53 55  1  0  0  0
 33 34  1  0  0  0
 34 35  1  0  0  0
 35 36  1  0  0  0
 58 60  1  0  0  0
 36 37  1  0  0  0
 59 60  1  0  0  0
 59 62  1  0  0  0
 37 38  1  0  0  0
 38 39  1  0  0  0
 39 40  1  0  0  0
  4  6  1  0  0  0
  6  7  1  0  0  0
  7  8  1  0  0  0
  8  9  1  0  0  0
  9 10  1  0  0  0
 10 11  1  0  0  0
 11 12  1  0  0  0
 12 13  1  0  0  0
 13 14  1  0  0  0
 14 15  1  0  0  0
 15 16  1  0  0  0
 16 17  1  0  0  0
 17 18  1  0  0  0
 18 19  1  0  0  0
 19 20  1  0  0  0
 20 21  1  0  0  0
 21 22  1  0  0  0
 46 47  1  0  0  0
 47 48  1  0  0  0
 48 49  1  0  0  0
 49 50  1  0  0  0
 50 54  1  0  0  0
M  CHG 1  58  -1
M  END
> <minimizedAffinity>
-9.29470

> <CNNscore>
0.1931887567

> <CNNaffinity>
6.9556999207

> <CNN_VS>
1.3437629938

> <CNNaffinity_variance>
0.7560430169

$$$$
