/media/chris/experiments/cd1a-new-docking/inputs/ligands/1onq_ligand.pdb


 62 62  0  0  0  0  0  0  0  0999 V2000
  -38.2111   59.7586   63.2297 C   0  0  0  0  0  0  0  0  0  0  0  0
  -39.3680   59.7647   64.1030 N   0  0  0  0  0  0  0  0  0  0  0  0
  -38.5601   60.7982   65.9541 O   0  0  0  0  0  0  0  0  0  0  0  0
  -39.4633   60.2587   65.3450 C   0  0  0  0  0  0  0  0  0  0  0  0
  -40.1856   59.3551   63.7382 H   0  0  0  0  0  0  0  0  0  0  0  0
  -40.8118   60.1168   65.9860 C   0  0  0  0  0  0  0  0  0  0  0  0
  -41.4871   58.9207   65.3147 C   0  0  0  0  0  0  0  0  0  0  0  0
  -42.9470   59.2487   65.0109 C   0  0  0  0  0  0  0  0  0  0  0  0
  -43.9703   58.2749   65.5430 C   0  0  0  0  0  0  0  0  0  0  0  0
  -45.1790   58.3233   64.6142 C   0  0  0  0  0  0  0  0  0  0  0  0
  -46.4662   58.7419   65.3373 C   0  0  0  0  0  0  0  0  0  0  0  0
  -47.7214   57.9699   64.8912 C   0  0  0  0  0  0  0  0  0  0  0  0
  -49.0341   58.6401   65.3529 C   0  0  0  0  0  0  0  0  0  0  0  0
  -50.2116   58.1701   64.4940 C   0  0  0  0  0  0  0  0  0  0  0  0
  -50.7646   59.2137   63.5311 C   0  0  0  0  0  0  0  0  0  0  0  0
  -50.4135   58.9064   62.0829 C   0  0  0  0  0  0  0  0  0  0  0  0
  -51.0203   57.6270   61.5023 C   0  0  0  0  0  0  0  0  0  0  0  0
  -50.0609   57.0783   60.4548 C   0  0  0  0  0  0  0  0  0  0  0  0
  -48.6591   57.6642   60.3716 C   0  0  0  0  0  0  0  0  0  0  0  0
  -47.8416   56.9792   59.2650 C   0  0  0  0  0  0  0  0  0  0  0  0
  -48.5740   56.8510   57.9166 C   0  0  0  0  0  0  0  0  0  0  0  0
  -47.6636   56.4048   56.7749 C   0  0  0  0  0  0  0  0  0  0  0  0
  -37.3279   57.6451   62.8438 O   0  0  0  0  0  0  0  0  0  0  0  0
  -38.4003   58.4756   62.4387 C   0  0  0  0  0  0  0  0  0  0  0  0
  -37.3961   57.4701   63.7954 H   0  0  0  0  0  0  0  0  0  0  0  0
  -38.3518   58.7911   60.9419 C   0  0  0  0  0  0  0  0  0  0  0  0
  -37.7344   58.0010   60.0471 C   0  0  0  0  0  0  0  0  0  0  0  0
  -37.7294   58.3859   58.5687 C   0  0  0  0  0  0  0  0  0  0  0  0
  -36.3582   58.2400   57.8930 C   0  0  0  0  0  0  0  0  0  0  0  0
  -35.7810   56.8128   57.8578 C   0  0  0  0  0  0  0  0  0  0  0  0
  -34.2401   56.8400   57.9997 C   0  0  0  0  0  0  0  0  0  0  0  0
  -33.6744   56.0727   59.2215 C   0  0  0  0  0  0  0  0  0  0  0  0
  -34.7096   55.8136   60.3414 C   0  0  0  0  0  0  0  0  0  0  0  0
  -34.3254   56.4467   61.6962 C   0  0  0  0  0  0  0  0  0  0  0  0
  -33.5997   57.7914   61.5661 C   0  0  0  0  0  0  0  0  0  0  0  0
  -32.6067   58.1284   62.6763 C   0  0  0  0  0  0  0  0  0  0  0  0
  -31.3531   58.8805   62.1876 C   0  0  0  0  0  0  0  0  0  0  0  0
  -31.5956   60.3245   61.7225 C   0  0  0  0  0  0  0  0  0  0  0  0
  -30.3573   61.1937   61.9594 C   0  0  0  0  0  0  0  0  0  0  0  0
  -29.0306   60.4635   62.0690 C   0  0  0  0  0  0  0  0  0  0  0  0
  -36.8474   59.9554   63.9300 C   0  0  0  0  0  0  0  0  0  0  0  0
  -35.9129   60.8590   63.2870 O   0  0  0  0  0  0  0  0  0  0  0  0
  -33.8806   62.5624   62.2168 O   0  0  0  0  0  0  0  0  0  0  0  0
  -35.2989   65.2025   65.1181 O   0  0  0  0  0  0  0  0  0  0  0  0
  -35.6872   62.2067   65.2916 O   0  0  0  0  0  0  0  0  0  0  0  0
  -35.0408   61.7492   64.0789 C   0  0  0  0  0  0  0  0  0  0  0  0
  -34.5346   63.0101   63.3639 C   0  0  0  0  0  0  0  0  0  0  0  0
  -33.5348   63.8385   64.2003 C   0  0  0  0  0  0  0  0  0  0  0  0
  -34.2742   64.2647   65.4384 C   0  0  0  0  0  0  0  0  0  0  0  0
  -34.8543   63.0472   66.1351 C   0  0  0  0  0  0  0  0  0  0  0  0
  -34.4944   62.0391   61.6781 H   0  0  0  0  0  0  0  0  0  0  0  0
  -34.9069   65.9709   64.6745 H   0  0  0  0  0  0  0  0  0  0  0  0
  -36.2709   62.7184   68.0321 O   0  0  0  0  0  0  0  0  0  0  0  0
  -35.5550   63.6898   67.3301 C   0  0  0  0  0  0  0  0  0  0  0  0
  -36.7149   63.1290   68.7906 H   0  0  0  0  0  0  0  0  0  0  0  0
  -33.0467   65.0526   63.5858 O   0  0  0  0  0  0  0  0  0  0  0  0
  -31.7699   64.4674   61.4077 O   0  0  0  0  0  0  0  0  0  0  0  0
  -30.6039   64.3959   63.5348 O   0  0  0  0  0  0  0  0  0  0  0  0
  -31.1338   66.5255   62.5059 O   0  0  0  0  0  0  0  0  0  0  0  0
  -31.6182   65.1345   62.7346 S   0  0  0  0  0  0  0  0  0  0  0  0
  -32.0850   63.5591   61.5366 H   0  0  0  0  0  0  0  0  0  0  0  0
  -31.7895   67.0146   61.9845 H   0  0  0  0  0  0  0  0  0  0  0  0
  2  1  1  0  0  0
  2  4  1  0  0  0
  2  5  1  0  0  0
 41 42  1  0  0  0
 41  1  1  0  0  0
 42 46  1  0  0  0
  1 24  1  0  0  0
 23 24  1  0  0  0
 23 25  1  0  0  0
 24 26  1  0  0  0
  3  4  2  0  0  0
 26 27  2  0  0  0
 27 28  1  0  0  0
 43 47  1  0  0  0
 43 51  1  0  0  0
 28 29  1  0  0  0
 56 48  1  0  0  0
 56 60  1  0  0  0
 29 30  1  0  0  0
 57 60  1  0  0  0
 57 61  1  0  0  0
 30 31  1  0  0  0
 44 49  1  0  0  0
 44 52  1  0  0  0
 31 32  1  0  0  0
 45 46  1  0  0  0
 45 50  1  0  0  0
 32 33  1  0  0  0
 53 54  1  0  0  0
 53 55  1  0  0  0
 33 34  1  0  0  0
 34 35  1  0  0  0
 35 36  1  0  0  0
 58 60  1  0  0  0
 36 37  1  0  0  0
 59 60  1  0  0  0
 59 62  1  0  0  0
 37 38  1  0  0  0
 38 39  1  0  0  0
 39 40  1  0  0  0
  4  6  1  0  0  0
  6  7  1  0  0  0
  7  8  1  0  0  0
  8  9  1  0  0  0
  9 10  1  0  0  0
 10 11  1  0  0  0
 11 12  1  0  0  0
 12 13  1  0  0  0
 13 14  1  0  0  0
 14 15  1  0  0  0
 15 16  1  0  0  0
 16 17  1  0  0  0
 17 18  1  0  0  0
 18 19  1  0  0  0
 19 20  1  0  0  0
 20 21  1  0  0  0
 21 22  1  0  0  0
 46 47  1  0  0  0
 47 48  1  0  0  0
 48 49  1  0  0  0
 49 50  1  0  0  0
 50 54  1  0  0  0
M  CHG 1  58  -1
M  END
> <minimizedAffinity>
-9.79741

> <CNNscore>
0.5437029600

> <CNNaffinity>
7.1080856323

> <CNN_VS>
3.8646872044

> <CNNaffinity_variance>
0.8170459867

$$$$
/media/chris/experiments/cd1a-new-docking/inputs/ligands/1onq_ligand.pdb


 62 62  0  0  0  0  0  0  0  0999 V2000
  -40.0216   58.8690   64.8399 C   0  0  0  0  0  0  0  0  0  0  0  0
  -39.4613   58.2401   63.6602 N   0  0  0  0  0  0  0  0  0  0  0  0
  -37.5201   57.3786   64.4582 O   0  0  0  0  0  0  0  0  0  0  0  0
  -38.3062   57.5698   63.5508 C   0  0  0  0  0  0  0  0  0  0  0  0
  -39.9961   58.3145   62.8370 H   0  0  0  0  0  0  0  0  0  0  0  0
  -38.0109   57.0271   62.1841 C   0  0  0  0  0  0  0  0  0  0  0  0
  -38.2982   58.1586   61.1971 C   0  0  0  0  0  0  0  0  0  0  0  0
  -37.3555   58.0586   60.0002 C   0  0  0  0  0  0  0  0  0  0  0  0
  -37.8899   58.5823   58.6892 C   0  0  0  0  0  0  0  0  0  0  0  0
  -37.2400   57.7743   57.5709 C   0  0  0  0  0  0  0  0  0  0  0  0
  -36.2846   56.6949   58.0973 C   0  0  0  0  0  0  0  0  0  0  0  0
  -34.7993   56.9621   57.7921 C   0  0  0  0  0  0  0  0  0  0  0  0
  -33.8452   56.1637   58.7074 C   0  0  0  0  0  0  0  0  0  0  0  0
  -34.6228   55.4913   59.8426 C   0  0  0  0  0  0  0  0  0  0  0  0
  -34.2913   55.9992   61.2405 C   0  0  0  0  0  0  0  0  0  0  0  0
  -34.0514   57.5015   61.2670 C   0  0  0  0  0  0  0  0  0  0  0  0
  -34.4939   58.2294   62.5385 C   0  0  0  0  0  0  0  0  0  0  0  0
  -33.4160   59.2395   62.9079 C   0  0  0  0  0  0  0  0  0  0  0  0
  -31.9848   58.9737   62.4649 C   0  0  0  0  0  0  0  0  0  0  0  0
  -31.3893   60.2039   61.7621 C   0  0  0  0  0  0  0  0  0  0  0  0
  -29.8501   60.2395   61.7324 C   0  0  0  0  0  0  0  0  0  0  0  0
  -29.2409   61.0028   62.9061 C   0  0  0  0  0  0  0  0  0  0  0  0
  -41.2615   60.6924   64.1094 O   0  0  0  0  0  0  0  0  0  0  0  0
  -41.3955   59.3059   64.3612 C   0  0  0  0  0  0  0  0  0  0  0  0
  -40.5997   60.8322   63.4142 H   0  0  0  0  0  0  0  0  0  0  0  0
  -42.4286   59.0151   65.4523 C   0  0  0  0  0  0  0  0  0  0  0  0
  -43.7518   58.9880   65.2187 C   0  0  0  0  0  0  0  0  0  0  0  0
  -44.7198   58.6908   66.3625 C   0  0  0  0  0  0  0  0  0  0  0  0
  -46.1866   58.5778   65.9220 C   0  0  0  0  0  0  0  0  0  0  0  0
  -46.7991   57.1671   65.9999 C   0  0  0  0  0  0  0  0  0  0  0  0
  -48.3432   57.2336   65.9191 C   0  0  0  0  0  0  0  0  0  0  0  0
  -48.9124   58.4143   65.0923 C   0  0  0  0  0  0  0  0  0  0  0  0
  -50.4555   58.5196   65.1176 C   0  0  0  0  0  0  0  0  0  0  0  0
  -51.0124   59.6458   64.2202 C   0  0  0  0  0  0  0  0  0  0  0  0
  -51.4137   59.1761   62.8167 C   0  0  0  0  0  0  0  0  0  0  0  0
  -50.4393   58.2268   62.1224 C   0  0  0  0  0  0  0  0  0  0  0  0
  -51.0770   57.3882   60.9973 C   0  0  0  0  0  0  0  0  0  0  0  0
  -50.3289   57.4156   59.6558 C   0  0  0  0  0  0  0  0  0  0  0  0
  -48.8206   57.2522   59.8639 C   0  0  0  0  0  0  0  0  0  0  0  0
  -48.1686   56.0661   59.1756 C   0  0  0  0  0  0  0  0  0  0  0  0
  -39.1354   59.9472   65.5040 C   0  0  0  0  0  0  0  0  0  0  0  0
  -38.5825   60.9618   64.6275 O   0  0  0  0  0  0  0  0  0  0  0  0
  -36.6346   61.1494   62.5423 O   0  0  0  0  0  0  0  0  0  0  0  0
  -35.6460   64.6976   64.5000 O   0  0  0  0  0  0  0  0  0  0  0  0
  -37.0835   62.4123   65.8662 O   0  0  0  0  0  0  0  0  0  0  0  0
  -37.1973   61.4451   64.7942 C   0  0  0  0  0  0  0  0  0  0  0  0
  -36.5565   62.0981   63.5611 C   0  0  0  0  0  0  0  0  0  0  0  0
  -35.0721   62.4754   63.7599 C   0  0  0  0  0  0  0  0  0  0  0  0
  -35.0382   63.4682   64.8889 C   0  0  0  0  0  0  0  0  0  0  0  0
  -35.7305   62.8846   66.1072 C   0  0  0  0  0  0  0  0  0  0  0  0
  -37.5615   60.8999   62.4032 H   0  0  0  0  0  0  0  0  0  0  0  0
  -35.1889   65.0522   63.7213 H   0  0  0  0  0  0  0  0  0  0  0  0
  -34.3323   63.9898   67.6999 O   0  0  0  0  0  0  0  0  0  0  0  0
  -35.5958   64.0305   67.1075 C   0  0  0  0  0  0  0  0  0  0  0  0
  -34.2492   64.7186   68.3347 H   0  0  0  0  0  0  0  0  0  0  0  0
  -34.4257   63.1197   62.6388 O   0  0  0  0  0  0  0  0  0  0  0  0
  -32.2306   63.6620   61.3721 O   0  0  0  0  0  0  0  0  0  0  0  0
  -32.1280   62.9074   63.6763 O   0  0  0  0  0  0  0  0  0  0  0  0
  -32.8369   65.1678   63.1641 O   0  0  0  0  0  0  0  0  0  0  0  0
  -32.8859   63.7488   62.7107 S   0  0  0  0  0  0  0  0  0  0  0  0
  -32.2529   62.7437   61.0601 H   0  0  0  0  0  0  0  0  0  0  0  0
  -33.3290   65.7238   62.5398 H   0  0  0  0  0  0  0  0  0  0  0  0
  2  1  1  0  0  0
  2  4  1  0  0  0
  2  5  1  0  0  0
 41 42  1  0  0  0
 41  1  1  0  0  0
 42 46  1  0  0  0
  1 24  1  0  0  0
 23 24  1  0  0  0
 23 25  1  0  0  0
 24 26  1  0  0  0
  3  4  2  0  0  0
 26 27  2  0  0  0
 27 28  1  0  0  0
 43 47  1  0  0  0
 43 51  1  0  0  0
 28 29  1  0  0  0
 56 48  1  0  0  0
 56 60  1  0  0  0
 29 30  1  0  0  0
 57 60  1  0  0  0
 57 61  1  0  0  0
 30 31  1  0  0  0
 44 49  1  0  0  0
 44 52  1  0  0  0
 31 32  1  0  0  0
 45 46  1  0  0  0
 45 50  1  0  0  0
 32 33  1  0  0  0
 53 54  1  0  0  0
 53 55  1  0  0  0
 33 34  1  0  0  0
 34 35  1  0  0  0
 35 36  1  0  0  0
 58 60  1  0  0  0
 36 37  1  0  0  0
 59 60  1  0  0  0
 59 62  1  0  0  0
 37 38  1  0  0  0
 38 39  1  0  0  0
 39 40  1  0  0  0
  4  6  1  0  0  0
  6  7  1  0  0  0
  7  8  1  0  0  0
  8  9  1  0  0  0
  9 10  1  0  0  0
 10 11  1  0  0  0
 11 12  1  0  0  0
 12 13  1  0  0  0
 13 14  1  0  0  0
 14 15  1  0  0  0
 15 16  1  0  0  0
 16 17  1  0  0  0
 17 18  1  0  0  0
 18 19  1  0  0  0
 19 20  1  0  0  0
 20 21  1  0  0  0
 21 22  1  0  0  0
 46 47  1  0  0  0
 47 48  1  0  0  0
 48 49  1  0  0  0
 49 50  1  0  0  0
 50 54  1  0  0  0
M  CHG 1  58  -1
M  END
> <minimizedAffinity>
-10.10709

> <CNNscore>
0.4942051768

> <CNNaffinity>
7.1366262436

> <CNN_VS>
3.5269577503

> <CNNaffinity_variance>
0.7639043927

$$$$
/media/chris/experiments/cd1a-new-docking/inputs/ligands/1onq_ligand.pdb


 62 62  0  0  0  0  0  0  0  0999 V2000
  -34.8318   58.1322   62.5145 C   0  0  0  0  0  0  0  0  0  0  0  0
  -35.8157   57.7684   63.5149 N   0  0  0  0  0  0  0  0  0  0  0  0
  -37.5298   59.1726   63.0276 O   0  0  0  0  0  0  0  0  0  0  0  0
  -37.0384   58.2852   63.6976 C   0  0  0  0  0  0  0  0  0  0  0  0
  -35.5529   57.0523   64.1374 H   0  0  0  0  0  0  0  0  0  0  0  0
  -37.8238   57.6821   64.8242 C   0  0  0  0  0  0  0  0  0  0  0  0
  -39.2365   57.4457   64.2898 C   0  0  0  0  0  0  0  0  0  0  0  0
  -40.2344   58.3148   65.0514 C   0  0  0  0  0  0  0  0  0  0  0  0
  -40.9117   59.4022   64.2530 C   0  0  0  0  0  0  0  0  0  0  0  0
  -42.2817   59.6467   64.8769 C   0  0  0  0  0  0  0  0  0  0  0  0
  -42.3524   59.2041   66.3446 C   0  0  0  0  0  0  0  0  0  0  0  0
  -43.6932   58.5636   66.7478 C   0  0  0  0  0  0  0  0  0  0  0  0
  -43.7711   57.0618   66.3955 C   0  0  0  0  0  0  0  0  0  0  0  0
  -44.6779   56.8382   65.1818 C   0  0  0  0  0  0  0  0  0  0  0  0
  -45.6279   57.9871   64.8661 C   0  0  0  0  0  0  0  0  0  0  0  0
  -47.0256   57.7487   65.4184 C   0  0  0  0  0  0  0  0  0  0  0  0
  -47.5194   58.7610   66.4545 C   0  0  0  0  0  0  0  0  0  0  0  0
  -48.8979   59.2459   66.0264 C   0  0  0  0  0  0  0  0  0  0  0  0
  -49.8680   58.2427   65.4198 C   0  0  0  0  0  0  0  0  0  0  0  0
  -50.6754   58.8800   64.2780 C   0  0  0  0  0  0  0  0  0  0  0  0
  -49.8321   59.3168   63.0659 C   0  0  0  0  0  0  0  0  0  0  0  0
  -49.3364   58.1453   62.2213 C   0  0  0  0  0  0  0  0  0  0  0  0
  -33.0694   56.8278   61.7476 O   0  0  0  0  0  0  0  0  0  0  0  0
  -34.4766   56.7909   61.8964 C   0  0  0  0  0  0  0  0  0  0  0  0
  -32.6545   56.9200   62.6194 H   0  0  0  0  0  0  0  0  0  0  0  0
  -35.1951   56.6459   60.5527 C   0  0  0  0  0  0  0  0  0  0  0  0
  -36.1063   57.5293   60.1110 C   0  0  0  0  0  0  0  0  0  0  0  0
  -36.7808   57.3134   58.7575 C   0  0  0  0  0  0  0  0  0  0  0  0
  -37.8634   58.3521   58.4297 C   0  0  0  0  0  0  0  0  0  0  0  0
  -37.9280   59.5677   59.3726 C   0  0  0  0  0  0  0  0  0  0  0  0
  -39.3120   59.6568   60.0598 C   0  0  0  0  0  0  0  0  0  0  0  0
  -40.4198   60.3525   59.2290 C   0  0  0  0  0  0  0  0  0  0  0  0
  -41.6066   59.4318   58.8591 C   0  0  0  0  0  0  0  0  0  0  0  0
  -42.0244   59.5286   57.3759 C   0  0  0  0  0  0  0  0  0  0  0  0
  -43.2008   58.6177   57.0047 C   0  0  0  0  0  0  0  0  0  0  0  0
  -44.1941   58.3143   58.1243 C   0  0  0  0  0  0  0  0  0  0  0  0
  -45.6386   58.0898   57.6356 C   0  0  0  0  0  0  0  0  0  0  0  0
  -46.5961   57.4892   58.6761 C   0  0  0  0  0  0  0  0  0  0  0  0
  -47.2951   56.2430   58.1254 C   0  0  0  0  0  0  0  0  0  0  0  0
  -48.3688   56.4785   57.0779 C   0  0  0  0  0  0  0  0  0  0  0  0
  -33.6593   59.0033   63.0200 C   0  0  0  0  0  0  0  0  0  0  0  0
  -33.7744   60.4330   62.8054 O   0  0  0  0  0  0  0  0  0  0  0  0
  -32.8813   63.1493   62.8408 O   0  0  0  0  0  0  0  0  0  0  0  0
  -36.4779   63.7566   64.8646 O   0  0  0  0  0  0  0  0  0  0  0  0
  -35.0975   61.0670   64.7374 O   0  0  0  0  0  0  0  0  0  0  0  0
  -33.9275   61.3672   63.9385 C   0  0  0  0  0  0  0  0  0  0  0  0
  -34.0282   62.8562   63.5777 C   0  0  0  0  0  0  0  0  0  0  0  0
  -34.0674   63.7910   64.8065 C   0  0  0  0  0  0  0  0  0  0  0  0
  -35.2970   63.4114   65.5845 C   0  0  0  0  0  0  0  0  0  0  0  0
  -35.2692   61.9261   65.8968 C   0  0  0  0  0  0  0  0  0  0  0  0
  -32.8399   62.5706   62.0635 H   0  0  0  0  0  0  0  0  0  0  0  0
  -36.4750   64.7082   64.6759 H   0  0  0  0  0  0  0  0  0  0  0  0
  -36.4208   62.2096   67.9720 O   0  0  0  0  0  0  0  0  0  0  0  0
  -36.5797   61.7550   66.6617 C   0  0  0  0  0  0  0  0  0  0  0  0
  -37.2545   62.0999   68.4557 H   0  0  0  0  0  0  0  0  0  0  0  0
  -34.1902   65.2037   64.5252 O   0  0  0  0  0  0  0  0  0  0  0  0
  -31.6495   65.6015   64.2029 O   0  0  0  0  0  0  0  0  0  0  0  0
  -32.8004   66.6568   66.0607 O   0  0  0  0  0  0  0  0  0  0  0  0
  -33.0929   67.5006   63.8075 O   0  0  0  0  0  0  0  0  0  0  0  0
  -32.9152   66.2693   64.6284 S   0  0  0  0  0  0  0  0  0  0  0  0
  -31.5167   64.7964   64.7273 H   0  0  0  0  0  0  0  0  0  0  0  0
  -33.1687   67.2571   62.8716 H   0  0  0  0  0  0  0  0  0  0  0  0
  2  1  1  0  0  0
  2  4  1  0  0  0
  2  5  1  0  0  0
 41 42  1  0  0  0
 41  1  1  0  0  0
 42 46  1  0  0  0
  1 24  1  0  0  0
 23 24  1  0  0  0
 23 25  1  0  0  0
 24 26  1  0  0  0
  3  4  2  0  0  0
 26 27  2  0  0  0
 27 28  1  0  0  0
 43 47  1  0  0  0
 43 51  1  0  0  0
 28 29  1  0  0  0
 56 48  1  0  0  0
 56 60  1  0  0  0
 29 30  1  0  0  0
 57 60  1  0  0  0
 57 61  1  0  0  0
 30 31  1  0  0  0
 44 49  1  0  0  0
 44 52  1  0  0  0
 31 32  1  0  0  0
 45 46  1  0  0  0
 45 50  1  0  0  0
 32 33  1  0  0  0
 53 54  1  0  0  0
 53 55  1  0  0  0
 33 34  1  0  0  0
 34 35  1  0  0  0
 35 36  1  0  0  0
 58 60  1  0  0  0
 36 37  1  0  0  0
 59 60  1  0  0  0
 59 62  1  0  0  0
 37 38  1  0  0  0
 38 39  1  0  0  0
 39 40  1  0  0  0
  4  6  1  0  0  0
  6  7  1  0  0  0
  7  8  1  0  0  0
  8  9  1  0  0  0
  9 10  1  0  0  0
 10 11  1  0  0  0
 11 12  1  0  0  0
 12 13  1  0  0  0
 13 14  1  0  0  0
 14 15  1  0  0  0
 15 16  1  0  0  0
 16 17  1  0  0  0
 17 18  1  0  0  0
 18 19  1  0  0  0
 19 20  1  0  0  0
 20 21  1  0  0  0
 21 22  1  0  0  0
 46 47  1  0  0  0
 47 48  1  0  0  0
 48 49  1  0  0  0
 49 50  1  0  0  0
 50 54  1  0  0  0
M  CHG 1  58  -1
M  END
> <minimizedAffinity>
-8.93826

> <CNNscore>
0.4402002990

> <CNNaffinity>
7.2973785400

> <CNN_VS>
3.2123081684

> <CNNaffinity_variance>
1.0546232462

$$$$
/media/chris/experiments/cd1a-new-docking/inputs/ligands/1onq_ligand.pdb


 62 62  0  0  0  0  0  0  0  0999 V2000
  -39.9762   58.7603   64.7560 C   0  0  0  0  0  0  0  0  0  0  0  0
  -40.9989   58.1411   65.5758 N   0  0  0  0  0  0  0  0  0  0  0  0
  -42.8707   59.2339   64.9054 O   0  0  0  0  0  0  0  0  0  0  0  0
  -42.3127   58.4041   65.5967 C   0  0  0  0  0  0  0  0  0  0  0  0
  -40.6897   57.4401   66.1940 H   0  0  0  0  0  0  0  0  0  0  0  0
  -43.1131   57.5778   66.5591 C   0  0  0  0  0  0  0  0  0  0  0  0
  -44.3047   57.0303   65.7733 C   0  0  0  0  0  0  0  0  0  0  0  0
  -45.5568   57.0452   66.6468 C   0  0  0  0  0  0  0  0  0  0  0  0
  -46.2406   58.3819   66.8034 C   0  0  0  0  0  0  0  0  0  0  0  0
  -46.3949   58.9863   65.4117 C   0  0  0  0  0  0  0  0  0  0  0  0
  -47.6525   59.8556   65.2790 C   0  0  0  0  0  0  0  0  0  0  0  0
  -48.9161   59.2395   65.9070 C   0  0  0  0  0  0  0  0  0  0  0  0
  -49.7734   58.4580   64.8874 C   0  0  0  0  0  0  0  0  0  0  0  0
  -50.8567   59.3599   64.2890 C   0  0  0  0  0  0  0  0  0  0  0  0
  -51.1561   59.1171   62.8147 C   0  0  0  0  0  0  0  0  0  0  0  0
  -50.4640   57.8708   62.2828 C   0  0  0  0  0  0  0  0  0  0  0  0
  -50.9370   57.3725   60.9152 C   0  0  0  0  0  0  0  0  0  0  0  0
  -49.7831   56.6309   60.2540 C   0  0  0  0  0  0  0  0  0  0  0  0
  -48.8557   57.4030   59.3270 C   0  0  0  0  0  0  0  0  0  0  0  0
  -48.5745   56.6069   58.0428 C   0  0  0  0  0  0  0  0  0  0  0  0
  -47.2831   57.0137   57.3093 C   0  0  0  0  0  0  0  0  0  0  0  0
  -46.3588   57.8880   58.1534 C   0  0  0  0  0  0  0  0  0  0  0  0
  -37.7900   58.0510   65.0926 O   0  0  0  0  0  0  0  0  0  0  0  0
  -39.0070   57.6157   64.5153 C   0  0  0  0  0  0  0  0  0  0  0  0
  -37.9163   58.1943   66.0435 H   0  0  0  0  0  0  0  0  0  0  0  0
  -38.8761   57.3702   63.0103 C   0  0  0  0  0  0  0  0  0  0  0  0
  -37.9414   57.9658   62.2503 C   0  0  0  0  0  0  0  0  0  0  0  0
  -37.8764   57.6690   60.7532 C   0  0  0  0  0  0  0  0  0  0  0  0
  -37.4943   58.8835   59.8946 C   0  0  0  0  0  0  0  0  0  0  0  0
  -37.1365   58.5773   58.4286 C   0  0  0  0  0  0  0  0  0  0  0  0
  -37.3632   57.0800   58.1091 C   0  0  0  0  0  0  0  0  0  0  0  0
  -36.1022   56.3021   57.6547 C   0  0  0  0  0  0  0  0  0  0  0  0
  -34.7667   56.9947   58.0147 C   0  0  0  0  0  0  0  0  0  0  0  0
  -33.8884   56.1760   58.9854 C   0  0  0  0  0  0  0  0  0  0  0  0
  -34.6366   55.6848   60.2306 C   0  0  0  0  0  0  0  0  0  0  0  0
  -34.4238   56.4977   61.5058 C   0  0  0  0  0  0  0  0  0  0  0  0
  -33.5035   57.7205   61.3223 C   0  0  0  0  0  0  0  0  0  0  0  0
  -32.7625   58.1782   62.5878 C   0  0  0  0  0  0  0  0  0  0  0  0
  -32.3664   59.6541   62.4896 C   0  0  0  0  0  0  0  0  0  0  0  0
  -31.0920   59.9617   61.7236 C   0  0  0  0  0  0  0  0  0  0  0  0
  -39.3836   60.0753   65.3115 C   0  0  0  0  0  0  0  0  0  0  0  0
  -38.7009   60.9312   64.3604 O   0  0  0  0  0  0  0  0  0  0  0  0
  -36.7395   61.4642   62.3489 O   0  0  0  0  0  0  0  0  0  0  0  0
  -35.8492   64.7068   64.8173 O   0  0  0  0  0  0  0  0  0  0  0  0
  -37.2463   62.2156   65.8163 O   0  0  0  0  0  0  0  0  0  0  0  0
  -37.3286   61.4142   64.6129 C   0  0  0  0  0  0  0  0  0  0  0  0
  -36.6920   62.2545   63.4966 C   0  0  0  0  0  0  0  0  0  0  0  0
  -35.2184   62.6300   63.7665 C   0  0  0  0  0  0  0  0  0  0  0  0
  -35.2170   63.4468   65.0290 C   0  0  0  0  0  0  0  0  0  0  0  0
  -35.9066   62.6761   66.1403 C   0  0  0  0  0  0  0  0  0  0  0  0
  -37.6593   61.2183   62.1636 H   0  0  0  0  0  0  0  0  0  0  0  0
  -35.3935   65.1815   64.1045 H   0  0  0  0  0  0  0  0  0  0  0  0
  -34.4796   64.0675   67.4596 O   0  0  0  0  0  0  0  0  0  0  0  0
  -35.8068   63.6653   67.2993 C   0  0  0  0  0  0  0  0  0  0  0  0
  -34.4188   64.6958   68.1962 H   0  0  0  0  0  0  0  0  0  0  0  0
  -34.5770   63.4455   62.7597 O   0  0  0  0  0  0  0  0  0  0  0  0
  -32.3571   63.7401   61.4551 O   0  0  0  0  0  0  0  0  0  0  0  0
  -32.3062   62.8927   63.7286 O   0  0  0  0  0  0  0  0  0  0  0  0
  -32.7191   65.2446   63.3130 O   0  0  0  0  0  0  0  0  0  0  0  0
  -32.9661   63.8625   62.8127 S   0  0  0  0  0  0  0  0  0  0  0  0
  -32.5080   62.8452   61.1126 H   0  0  0  0  0  0  0  0  0  0  0  0
  -33.1461   65.8838   62.7214 H   0  0  0  0  0  0  0  0  0  0  0  0
  2  1  1  0  0  0
  2  4  1  0  0  0
  2  5  1  0  0  0
 41 42  1  0  0  0
 41  1  1  0  0  0
 42 46  1  0  0  0
  1 24  1  0  0  0
 23 24  1  0  0  0
 23 25  1  0  0  0
 24 26  1  0  0  0
  3  4  2  0  0  0
 26 27  2  0  0  0
 27 28  1  0  0  0
 43 47  1  0  0  0
 43 51  1  0  0  0
 28 29  1  0  0  0
 56 48  1  0  0  0
 56 60  1  0  0  0
 29 30  1  0  0  0
 57 60  1  0  0  0
 57 61  1  0  0  0
 30 31  1  0  0  0
 44 49  1  0  0  0
 44 52  1  0  0  0
 31 32  1  0  0  0
 45 46  1  0  0  0
 45 50  1  0  0  0
 32 33  1  0  0  0
 53 54  1  0  0  0
 53 55  1  0  0  0
 33 34  1  0  0  0
 34 35  1  0  0  0
 35 36  1  0  0  0
 58 60  1  0  0  0
 36 37  1  0  0  0
 59 60  1  0  0  0
 59 62  1  0  0  0
 37 38  1  0  0  0
 38 39  1  0  0  0
 39 40  1  0  0  0
  4  6  1  0  0  0
  6  7  1  0  0  0
  7  8  1  0  0  0
  8  9  1  0  0  0
  9 10  1  0  0  0
 10 11  1  0  0  0
 11 12  1  0  0  0
 12 13  1  0  0  0
 13 14  1  0  0  0
 14 15  1  0  0  0
 15 16  1  0  0  0
 16 17  1  0  0  0
 17 18  1  0  0  0
 18 19  1  0  0  0
 19 20  1  0  0  0
 20 21  1  0  0  0
 21 22  1  0  0  0
 46 47  1  0  0  0
 47 48  1  0  0  0
 48 49  1  0  0  0
 49 50  1  0  0  0
 50 54  1  0  0  0
M  CHG 1  58  -1
M  END
> <minimizedAffinity>
-10.33642

> <CNNscore>
0.3677267730

> <CNNaffinity>
7.0860128403

> <CNN_VS>
2.6057167053

> <CNNaffinity_variance>
1.2107503414

$$$$
/media/chris/experiments/cd1a-new-docking/inputs/ligands/1onq_ligand.pdb


 62 62  0  0  0  0  0  0  0  0999 V2000
  -36.5928   59.1274   63.1137 C   0  0  0  0  0  0  0  0  0  0  0  0
  -37.4442   59.2180   64.2833 N   0  0  0  0  0  0  0  0  0  0  0  0
  -38.0541   61.4031   64.2584 O   0  0  0  0  0  0  0  0  0  0  0  0
  -38.0871   60.2945   64.7561 C   0  0  0  0  0  0  0  0  0  0  0  0
  -37.5654   58.3849   64.7938 H   0  0  0  0  0  0  0  0  0  0  0  0
  -38.9028   60.0582   65.9924 C   0  0  0  0  0  0  0  0  0  0  0  0
  -40.3448   60.4197   65.6359 C   0  0  0  0  0  0  0  0  0  0  0  0
  -40.9642   59.3144   64.7839 C   0  0  0  0  0  0  0  0  0  0  0  0
  -41.0412   57.9489   65.4226 C   0  0  0  0  0  0  0  0  0  0  0  0
  -42.2906   57.9187   66.2967 C   0  0  0  0  0  0  0  0  0  0  0  0
  -43.1972   56.7182   65.9941 C   0  0  0  0  0  0  0  0  0  0  0  0
  -44.5228   57.0856   65.3025 C   0  0  0  0  0  0  0  0  0  0  0  0
  -44.9408   58.5523   65.5463 C   0  0  0  0  0  0  0  0  0  0  0  0
  -45.3586   58.7594   67.0050 C   0  0  0  0  0  0  0  0  0  0  0  0
  -46.6944   58.1342   67.3882 C   0  0  0  0  0  0  0  0  0  0  0  0
  -47.8150   58.5424   66.4433 C   0  0  0  0  0  0  0  0  0  0  0  0
  -48.4837   57.4068   65.6652 C   0  0  0  0  0  0  0  0  0  0  0  0
  -48.9404   57.9561   64.3204 C   0  0  0  0  0  0  0  0  0  0  0  0
  -48.3841   59.2924   63.8515 C   0  0  0  0  0  0  0  0  0  0  0  0
  -49.5110   60.3190   63.6560 C   0  0  0  0  0  0  0  0  0  0  0  0
  -50.8802   59.8764   64.2042 C   0  0  0  0  0  0  0  0  0  0  0  0
  -51.9962   59.9392   63.1640 C   0  0  0  0  0  0  0  0  0  0  0  0
  -36.4199   57.8458   61.1841 O   0  0  0  0  0  0  0  0  0  0  0  0
  -37.2917   58.0700   62.2766 C   0  0  0  0  0  0  0  0  0  0  0  0
  -35.5702   57.5121   61.5118 H   0  0  0  0  0  0  0  0  0  0  0  0
  -38.6556   58.5992   61.8269 C   0  0  0  0  0  0  0  0  0  0  0  0
  -38.7993   59.6935   61.0601 C   0  0  0  0  0  0  0  0  0  0  0  0
  -40.1964   60.1590   60.6538 C   0  0  0  0  0  0  0  0  0  0  0  0
  -40.4824   60.0289   59.1507 C   0  0  0  0  0  0  0  0  0  0  0  0
  -41.9284   59.6539   58.7773 C   0  0  0  0  0  0  0  0  0  0  0  0
  -42.0140   59.1991   57.3004 C   0  0  0  0  0  0  0  0  0  0  0  0
  -43.3491   58.5269   56.8913 C   0  0  0  0  0  0  0  0  0  0  0  0
  -44.2699   58.1707   58.0821 C   0  0  0  0  0  0  0  0  0  0  0  0
  -45.7665   58.4304   57.8048 C   0  0  0  0  0  0  0  0  0  0  0  0
  -46.5428   57.1776   57.3812 C   0  0  0  0  0  0  0  0  0  0  0  0
  -47.1448   56.3466   58.5123 C   0  0  0  0  0  0  0  0  0  0  0  0
  -48.5236   56.8440   58.9890 C   0  0  0  0  0  0  0  0  0  0  0  0
  -48.5048   57.7082   60.2590 C   0  0  0  0  0  0  0  0  0  0  0  0
  -49.8949   58.2767   60.5579 C   0  0  0  0  0  0  0  0  0  0  0  0
  -50.9872   57.2660   60.8593 C   0  0  0  0  0  0  0  0  0  0  0  0
  -35.0890   58.9135   63.4000 C   0  0  0  0  0  0  0  0  0  0  0  0
  -34.1873   59.9516   62.9392 O   0  0  0  0  0  0  0  0  0  0  0  0
  -32.7159   62.2519   62.0903 O   0  0  0  0  0  0  0  0  0  0  0  0
  -35.5586   64.2682   64.3824 O   0  0  0  0  0  0  0  0  0  0  0  0
  -34.8843   61.3477   64.7968 O   0  0  0  0  0  0  0  0  0  0  0  0
  -33.8769   61.1247   63.7804 C   0  0  0  0  0  0  0  0  0  0  0  0
  -33.7129   62.4611   63.0423 C   0  0  0  0  0  0  0  0  0  0  0  0
  -33.2737   63.6252   63.9572 C   0  0  0  0  0  0  0  0  0  0  0  0
  -34.3600   63.7856   64.9845 C   0  0  0  0  0  0  0  0  0  0  0  0
  -34.6029   62.4617   65.6864 C   0  0  0  0  0  0  0  0  0  0  0  0
  -32.9751   61.5228   61.5056 H   0  0  0  0  0  0  0  0  0  0  0  0
  -35.3809   65.1132   63.9404 H   0  0  0  0  0  0  0  0  0  0  0  0
  -35.3102   63.9021   67.4579 O   0  0  0  0  0  0  0  0  0  0  0  0
  -35.7217   62.8360   66.6559 C   0  0  0  0  0  0  0  0  0  0  0  0
  -36.0225   64.1380   68.0727 H   0  0  0  0  0  0  0  0  0  0  0  0
  -33.1308   64.9145   63.3189 O   0  0  0  0  0  0  0  0  0  0  0  0
  -31.5685   66.9800   63.2196 O   0  0  0  0  0  0  0  0  0  0  0  0
  -31.8162   65.7656   65.3060 O   0  0  0  0  0  0  0  0  0  0  0  0
  -33.5887   67.2229   64.5257 O   0  0  0  0  0  0  0  0  0  0  0  0
  -32.5349   66.2588   64.0998 S   0  0  0  0  0  0  0  0  0  0  0  0
  -30.8738   66.3672   62.9319 H   0  0  0  0  0  0  0  0  0  0  0  0
  -34.0626   67.5497   63.7449 H   0  0  0  0  0  0  0  0  0  0  0  0
  2  1  1  0  0  0
  2  4  1  0  0  0
  2  5  1  0  0  0
 41 42  1  0  0  0
 41  1  1  0  0  0
 42 46  1  0  0  0
  1 24  1  0  0  0
 23 24  1  0  0  0
 23 25  1  0  0  0
 24 26  1  0  0  0
  3  4  2  0  0  0
 26 27  2  0  0  0
 27 28  1  0  0  0
 43 47  1  0  0  0
 43 51  1  0  0  0
 28 29  1  0  0  0
 56 48  1  0  0  0
 56 60  1  0  0  0
 29 30  1  0  0  0
 57 60  1  0  0  0
 57 61  1  0  0  0
 30 31  1  0  0  0
 44 49  1  0  0  0
 44 52  1  0  0  0
 31 32  1  0  0  0
 45 46  1  0  0  0
 45 50  1  0  0  0
 32 33  1  0  0  0
 53 54  1  0  0  0
 53 55  1  0  0  0
 33 34  1  0  0  0
 34 35  1  0  0  0
 35 36  1  0  0  0
 58 60  1  0  0  0
 36 37  1  0  0  0
 59 60  1  0  0  0
 59 62  1  0  0  0
 37 38  1  0  0  0
 38 39  1  0  0  0
 39 40  1  0  0  0
  4  6  1  0  0  0
  6  7  1  0  0  0
  7  8  1  0  0  0
  8  9  1  0  0  0
  9 10  1  0  0  0
 10 11  1  0  0  0
 11 12  1  0  0  0
 12 13  1  0  0  0
 13 14  1  0  0  0
 14 15  1  0  0  0
 15 16  1  0  0  0
 16 17  1  0  0  0
 17 18  1  0  0  0
 18 19  1  0  0  0
 19 20  1  0  0  0
 20 21  1  0  0  0
 21 22  1  0  0  0
 46 47  1  0  0  0
 47 48  1  0  0  0
 48 49  1  0  0  0
 49 50  1  0  0  0
 50 54  1  0  0  0
M  CHG 1  58  -1
M  END
> <minimizedAffinity>
-8.95996

> <CNNscore>
0.3086483479

> <CNNaffinity>
7.0373167992

> <CNN_VS>
2.1720561981

> <CNNaffinity_variance>
0.7829308510

$$$$
/media/chris/experiments/cd1a-new-docking/inputs/ligands/1onq_ligand.pdb


 62 62  0  0  0  0  0  0  0  0999 V2000
  -39.4445   60.3426   64.5056 C   0  0  0  0  0  0  0  0  0  0  0  0
  -40.5988   59.5002   64.7483 N   0  0  0  0  0  0  0  0  0  0  0  0
  -41.4116   60.3552   66.6862 O   0  0  0  0  0  0  0  0  0  0  0  0
  -41.4636   59.5577   65.7703 C   0  0  0  0  0  0  0  0  0  0  0  0
  -40.7687   58.7985   64.0789 H   0  0  0  0  0  0  0  0  0  0  0  0
  -42.5671   58.5427   65.7297 C   0  0  0  0  0  0  0  0  0  0  0  0
  -43.5301   58.9039   66.8608 C   0  0  0  0  0  0  0  0  0  0  0  0
  -44.9477   58.4682   66.4980 C   0  0  0  0  0  0  0  0  0  0  0  0
  -45.6136   59.2380   65.3833 C   0  0  0  0  0  0  0  0  0  0  0  0
  -47.0568   58.7543   65.2874 C   0  0  0  0  0  0  0  0  0  0  0  0
  -48.0742   59.8552   65.6158 C   0  0  0  0  0  0  0  0  0  0  0  0
  -48.3003   60.8670   64.4775 C   0  0  0  0  0  0  0  0  0  0  0  0
  -49.1488   60.2913   63.3224 C   0  0  0  0  0  0  0  0  0  0  0  0
  -50.4560   59.6983   63.8561 C   0  0  0  0  0  0  0  0  0  0  0  0
  -51.1404   58.7044   62.9256 C   0  0  0  0  0  0  0  0  0  0  0  0
  -50.2906   58.3747   61.7073 C   0  0  0  0  0  0  0  0  0  0  0  0
  -50.8590   57.3164   60.7591 C   0  0  0  0  0  0  0  0  0  0  0  0
  -49.7432   56.8648   59.8265 C   0  0  0  0  0  0  0  0  0  0  0  0
  -48.4159   57.6079   59.8639 C   0  0  0  0  0  0  0  0  0  0  0  0
  -47.3301   56.8327   59.1010 C   0  0  0  0  0  0  0  0  0  0  0  0
  -47.8572   55.9750   57.9358 C   0  0  0  0  0  0  0  0  0  0  0  0
  -47.6241   56.6082   56.5661 C   0  0  0  0  0  0  0  0  0  0  0  0
  -40.5677   60.0179   62.4984 O   0  0  0  0  0  0  0  0  0  0  0  0
  -39.2616   60.2283   63.0019 C   0  0  0  0  0  0  0  0  0  0  0  0
  -41.1247   60.7818   62.7152 H   0  0  0  0  0  0  0  0  0  0  0  0
  -38.3283   59.0553   62.6926 C   0  0  0  0  0  0  0  0  0  0  0  0
  -38.6151   58.1135   61.7777 C   0  0  0  0  0  0  0  0  0  0  0  0
  -37.6310   56.9723   61.5271 C   0  0  0  0  0  0  0  0  0  0  0  0
  -36.4486   57.3576   60.6262 C   0  0  0  0  0  0  0  0  0  0  0  0
  -35.4876   56.2112   60.2611 C   0  0  0  0  0  0  0  0  0  0  0  0
  -34.2698   56.1901   61.2162 C   0  0  0  0  0  0  0  0  0  0  0  0
  -34.0714   57.4722   62.0638 C   0  0  0  0  0  0  0  0  0  0  0  0
  -32.5919   57.8130   62.3601 C   0  0  0  0  0  0  0  0  0  0  0  0
  -32.1301   59.1499   61.7408 C   0  0  0  0  0  0  0  0  0  0  0  0
  -30.9156   59.7691   62.4430 C   0  0  0  0  0  0  0  0  0  0  0  0
  -29.9472   60.5432   61.5512 C   0  0  0  0  0  0  0  0  0  0  0  0
  -29.4665   61.8760   62.1583 C   0  0  0  0  0  0  0  0  0  0  0  0
  -30.4888   62.5952   63.0515 C   0  0  0  0  0  0  0  0  0  0  0  0
  -30.6134   64.0719   62.6657 C   0  0  0  0  0  0  0  0  0  0  0  0
  -31.8890   64.4771   61.9486 C   0  0  0  0  0  0  0  0  0  0  0  0
  -38.2088   60.0485   65.3862 C   0  0  0  0  0  0  0  0  0  0  0  0
  -37.8195   61.0844   66.3236 O   0  0  0  0  0  0  0  0  0  0  0  0
  -35.9235   62.5411   67.8922 O   0  0  0  0  0  0  0  0  0  0  0  0
  -33.8894   62.7831   64.2585 O   0  0  0  0  0  0  0  0  0  0  0  0
  -36.8688   62.2887   64.4444 O   0  0  0  0  0  0  0  0  0  0  0  0
  -37.0838   62.2841   65.8766 C   0  0  0  0  0  0  0  0  0  0  0  0
  -35.7058   62.5086   66.5153 C   0  0  0  0  0  0  0  0  0  0  0  0
  -35.0378   63.8373   66.0983 C   0  0  0  0  0  0  0  0  0  0  0  0
  -34.8592   63.7681   64.6068 C   0  0  0  0  0  0  0  0  0  0  0  0
  -36.1920   63.4728   63.9429 C   0  0  0  0  0  0  0  0  0  0  0  0
  -36.3433   61.7129   68.1727 H   0  0  0  0  0  0  0  0  0  0  0  0
  -33.0472   62.9909   64.6927 H   0  0  0  0  0  0  0  0  0  0  0  0
  -36.4537   62.3846   61.8310 O   0  0  0  0  0  0  0  0  0  0  0  0
  -35.7924   63.4352   62.4696 C   0  0  0  0  0  0  0  0  0  0  0  0
  -36.1983   62.3628   60.8954 H   0  0  0  0  0  0  0  0  0  0  0  0
  -33.7248   64.0874   66.6491 O   0  0  0  0  0  0  0  0  0  0  0  0
  -31.4258   65.0134   65.8914 O   0  0  0  0  0  0  0  0  0  0  0  0
  -32.7554   66.2690   67.4866 O   0  0  0  0  0  0  0  0  0  0  0  0
  -33.3748   66.2336   65.1437 O   0  0  0  0  0  0  0  0  0  0  0  0
  -32.8121   65.4250   66.2623 S   0  0  0  0  0  0  0  0  0  0  0  0
  -31.0425   64.4851   66.6090 H   0  0  0  0  0  0  0  0  0  0  0  0
  -33.4154   65.6906   64.3408 H   0  0  0  0  0  0  0  0  0  0  0  0
  2  1  1  0  0  0
  2  4  1  0  0  0
  2  5  1  0  0  0
 41 42  1  0  0  0
 41  1  1  0  0  0
 42 46  1  0  0  0
  1 24  1  0  0  0
 23 24  1  0  0  0
 23 25  1  0  0  0
 24 26  1  0  0  0
  3  4  2  0  0  0
 26 27  2  0  0  0
 27 28  1  0  0  0
 43 47  1  0  0  0
 43 51  1  0  0  0
 28 29  1  0  0  0
 56 48  1  0  0  0
 56 60  1  0  0  0
 29 30  1  0  0  0
 57 60  1  0  0  0
 57 61  1  0  0  0
 30 31  1  0  0  0
 44 49  1  0  0  0
 44 52  1  0  0  0
 31 32  1  0  0  0
 45 46  1  0  0  0
 45 50  1  0  0  0
 32 33  1  0  0  0
 53 54  1  0  0  0
 53 55  1  0  0  0
 33 34  1  0  0  0
 34 35  1  0  0  0
 35 36  1  0  0  0
 58 60  1  0  0  0
 36 37  1  0  0  0
 59 60  1  0  0  0
 59 62  1  0  0  0
 37 38  1  0  0  0
 38 39  1  0  0  0
 39 40  1  0  0  0
  4  6  1  0  0  0
  6  7  1  0  0  0
  7  8  1  0  0  0
  8  9  1  0  0  0
  9 10  1  0  0  0
 10 11  1  0  0  0
 11 12  1  0  0  0
 12 13  1  0  0  0
 13 14  1  0  0  0
 14 15  1  0  0  0
 15 16  1  0  0  0
 16 17  1  0  0  0
 17 18  1  0  0  0
 18 19  1  0  0  0
 19 20  1  0  0  0
 20 21  1  0  0  0
 21 22  1  0  0  0
 46 47  1  0  0  0
 47 48  1  0  0  0
 48 49  1  0  0  0
 49 50  1  0  0  0
 50 54  1  0  0  0
M  CHG 1  58  -1
M  END
> <minimizedAffinity>
-9.72213

> <CNNscore>
0.3056972921

> <CNNaffinity>
6.6775383949

> <CNN_VS>
2.0413053036

> <CNNaffinity_variance>
0.6637619734

$$$$
/media/chris/experiments/cd1a-new-docking/inputs/ligands/1onq_ligand.pdb


 62 62  0  0  0  0  0  0  0  0999 V2000
  -35.9361   58.8728   62.4296 C   0  0  0  0  0  0  0  0  0  0  0  0
  -37.0786   59.3592   63.1773 N   0  0  0  0  0  0  0  0  0  0  0  0
  -37.2064   61.5198   62.4969 O   0  0  0  0  0  0  0  0  0  0  0  0
  -37.6129   60.5881   63.1636 C   0  0  0  0  0  0  0  0  0  0  0  0
  -37.5167   58.7054   63.7688 H   0  0  0  0  0  0  0  0  0  0  0  0
  -38.8077   60.7739   64.0510 C   0  0  0  0  0  0  0  0  0  0  0  0
  -39.9523   59.9920   63.4061 C   0  0  0  0  0  0  0  0  0  0  0  0
  -39.9191   58.5387   63.8729 C   0  0  0  0  0  0  0  0  0  0  0  0
  -40.6726   58.2330   65.1447 C   0  0  0  0  0  0  0  0  0  0  0  0
  -41.9023   59.1344   65.1798 C   0  0  0  0  0  0  0  0  0  0  0  0
  -42.5073   59.2577   66.5846 C   0  0  0  0  0  0  0  0  0  0  0  0
  -44.0100   58.9301   66.6567 C   0  0  0  0  0  0  0  0  0  0  0  0
  -44.6371   58.6793   65.2677 C   0  0  0  0  0  0  0  0  0  0  0  0
  -46.0533   59.2583   65.2020 C   0  0  0  0  0  0  0  0  0  0  0  0
  -46.8057   59.2738   66.5270 C   0  0  0  0  0  0  0  0  0  0  0  0
  -48.3147   59.2411   66.3344 C   0  0  0  0  0  0  0  0  0  0  0  0
  -48.8996   57.9156   65.8413 C   0  0  0  0  0  0  0  0  0  0  0  0
  -50.2659   58.1965   65.2306 C   0  0  0  0  0  0  0  0  0  0  0  0
  -50.4669   59.4916   64.4575 C   0  0  0  0  0  0  0  0  0  0  0  0
  -51.1825   59.2298   63.1228 C   0  0  0  0  0  0  0  0  0  0  0  0
  -50.4018   58.3322   62.1451 C   0  0  0  0  0  0  0  0  0  0  0  0
  -51.3044   57.4878   61.2485 C   0  0  0  0  0  0  0  0  0  0  0  0
  -35.3859   57.0894   61.0467 O   0  0  0  0  0  0  0  0  0  0  0  0
  -36.4793   57.6131   61.7774 C   0  0  0  0  0  0  0  0  0  0  0  0
  -34.6641   56.8714   61.6568 H   0  0  0  0  0  0  0  0  0  0  0  0
  -37.6567   57.9790   60.8706 C   0  0  0  0  0  0  0  0  0  0  0  0
  -37.5514   58.8450   59.8483 C   0  0  0  0  0  0  0  0  0  0  0  0
  -38.7747   59.1592   58.9889 C   0  0  0  0  0  0  0  0  0  0  0  0
  -39.7843   60.0987   59.6644 C   0  0  0  0  0  0  0  0  0  0  0  0
  -41.2312   60.0062   59.1457 C   0  0  0  0  0  0  0  0  0  0  0  0
  -41.2856   59.2360   57.8043 C   0  0  0  0  0  0  0  0  0  0  0  0
  -42.5574   59.4790   56.9528 C   0  0  0  0  0  0  0  0  0  0  0  0
  -43.6563   58.4056   57.1351 C   0  0  0  0  0  0  0  0  0  0  0  0
  -44.1965   58.3137   58.5786 C   0  0  0  0  0  0  0  0  0  0  0  0
  -45.5269   57.5597   58.6935 C   0  0  0  0  0  0  0  0  0  0  0  0
  -46.6403   58.0156   57.7528 C   0  0  0  0  0  0  0  0  0  0  0  0
  -47.1168   56.9257   56.7725 C   0  0  0  0  0  0  0  0  0  0  0  0
  -48.4300   56.2275   57.1576 C   0  0  0  0  0  0  0  0  0  0  0  0
  -48.8779   56.6356   58.5639 C   0  0  0  0  0  0  0  0  0  0  0  0
  -48.8073   55.5602   59.6336 C   0  0  0  0  0  0  0  0  0  0  0  0
  -34.6236   58.7352   63.2342 C   0  0  0  0  0  0  0  0  0  0  0  0
  -33.6113   59.7473   63.0012 O   0  0  0  0  0  0  0  0  0  0  0  0
  -32.1179   62.0889   62.3203 O   0  0  0  0  0  0  0  0  0  0  0  0
  -35.5570   64.0344   63.6572 O   0  0  0  0  0  0  0  0  0  0  0  0
  -34.8303   61.2193   64.4954 O   0  0  0  0  0  0  0  0  0  0  0  0
  -33.5909   61.0026   63.7781 C   0  0  0  0  0  0  0  0  0  0  0  0
  -33.3306   62.2877   62.9791 C   0  0  0  0  0  0  0  0  0  0  0  0
  -33.2033   63.5504   63.8592 C   0  0  0  0  0  0  0  0  0  0  0  0
  -34.5180   63.6991   64.5738 C   0  0  0  0  0  0  0  0  0  0  0  0
  -34.8463   62.4173   65.3177 C   0  0  0  0  0  0  0  0  0  0  0  0
  -32.1793   61.2984   61.7616 H   0  0  0  0  0  0  0  0  0  0  0  0
  -35.3269   64.8550   63.1937 H   0  0  0  0  0  0  0  0  0  0  0  0
  -36.3139   62.1303   67.1824 O   0  0  0  0  0  0  0  0  0  0  0  0
  -36.1911   62.7716   65.9484 C   0  0  0  0  0  0  0  0  0  0  0  0
  -37.1688   62.3569   67.5810 H   0  0  0  0  0  0  0  0  0  0  0  0
  -32.9852   64.7945   63.1559 O   0  0  0  0  0  0  0  0  0  0  0  0
  -30.4081   64.5819   63.3296 O   0  0  0  0  0  0  0  0  0  0  0  0
  -31.3988   66.7326   62.7986 O   0  0  0  0  0  0  0  0  0  0  0  0
  -31.3063   64.9855   61.1213 O   0  0  0  0  0  0  0  0  0  0  0  0
  -31.4985   65.2651   62.5726 S   0  0  0  0  0  0  0  0  0  0  0  0
  -30.5168   64.7529   64.2782 H   0  0  0  0  0  0  0  0  0  0  0  0
  -31.3698   64.0302   60.9649 H   0  0  0  0  0  0  0  0  0  0  0  0
  2  1  1  0  0  0
  2  4  1  0  0  0
  2  5  1  0  0  0
 41 42  1  0  0  0
 41  1  1  0  0  0
 42 46  1  0  0  0
  1 24  1  0  0  0
 23 24  1  0  0  0
 23 25  1  0  0  0
 24 26  1  0  0  0
  3  4  2  0  0  0
 26 27  2  0  0  0
 27 28  1  0  0  0
 43 47  1  0  0  0
 43 51  1  0  0  0
 28 29  1  0  0  0
 56 48  1  0  0  0
 56 60  1  0  0  0
 29 30  1  0  0  0
 57 60  1  0  0  0
 57 61  1  0  0  0
 30 31  1  0  0  0
 44 49  1  0  0  0
 44 52  1  0  0  0
 31 32  1  0  0  0
 45 46  1  0  0  0
 45 50  1  0  0  0
 32 33  1  0  0  0
 53 54  1  0  0  0
 53 55  1  0  0  0
 33 34  1  0  0  0
 34 35  1  0  0  0
 35 36  1  0  0  0
 58 60  1  0  0  0
 36 37  1  0  0  0
 59 60  1  0  0  0
 59 62  1  0  0  0
 37 38  1  0  0  0
 38 39  1  0  0  0
 39 40  1  0  0  0
  4  6  1  0  0  0
  6  7  1  0  0  0
  7  8  1  0  0  0
  8  9  1  0  0  0
  9 10  1  0  0  0
 10 11  1  0  0  0
 11 12  1  0  0  0
 12 13  1  0  0  0
 13 14  1  0  0  0
 14 15  1  0  0  0
 15 16  1  0  0  0
 16 17  1  0  0  0
 17 18  1  0  0  0
 18 19  1  0  0  0
 19 20  1  0  0  0
 20 21  1  0  0  0
 21 22  1  0  0  0
 46 47  1  0  0  0
 47 48  1  0  0  0
 48 49  1  0  0  0
 49 50  1  0  0  0
 50 54  1  0  0  0
M  CHG 1  58  -1
M  END
> <minimizedAffinity>
-8.86500

> <CNNscore>
0.3041173220

> <CNNaffinity>
6.8482079506

> <CNN_VS>
2.0826587677

> <CNNaffinity_variance>
0.8819378614

$$$$
/media/chris/experiments/cd1a-new-docking/inputs/ligands/1onq_ligand.pdb


 62 62  0  0  0  0  0  0  0  0999 V2000
  -38.7261   59.6431   60.7514 C   0  0  0  0  0  0  0  0  0  0  0  0
  -37.7815   59.3689   59.6867 N   0  0  0  0  0  0  0  0  0  0  0  0
  -37.5394   57.1179   59.8349 O   0  0  0  0  0  0  0  0  0  0  0  0
  -37.2750   58.1850   59.3160 C   0  0  0  0  0  0  0  0  0  0  0  0
  -37.4739   60.1496   59.1718 H   0  0  0  0  0  0  0  0  0  0  0  0
  -36.3188   58.2339   58.1614 C   0  0  0  0  0  0  0  0  0  0  0  0
  -35.7200   56.8329   58.0350 C   0  0  0  0  0  0  0  0  0  0  0  0
  -34.2315   56.8695   58.3730 C   0  0  0  0  0  0  0  0  0  0  0  0
  -33.7472   55.8255   59.3497 C   0  0  0  0  0  0  0  0  0  0  0  0
  -34.4514   56.0762   60.6791 C   0  0  0  0  0  0  0  0  0  0  0  0
  -34.0080   57.3844   61.3476 C   0  0  0  0  0  0  0  0  0  0  0  0
  -35.1160   58.0919   62.1491 C   0  0  0  0  0  0  0  0  0  0  0  0
  -34.9189   57.9766   63.6767 C   0  0  0  0  0  0  0  0  0  0  0  0
  -35.9605   57.0337   64.2859 C   0  0  0  0  0  0  0  0  0  0  0  0
  -37.2285   57.7124   64.7895 C   0  0  0  0  0  0  0  0  0  0  0  0
  -38.4393   57.3855   63.9279 C   0  0  0  0  0  0  0  0  0  0  0  0
  -39.7896   57.8782   64.4534 C   0  0  0  0  0  0  0  0  0  0  0  0
  -39.5330   59.0204   65.4272 C   0  0  0  0  0  0  0  0  0  0  0  0
  -40.6034   60.0885   65.5968 C   0  0  0  0  0  0  0  0  0  0  0  0
  -42.0091   59.4680   65.5662 C   0  0  0  0  0  0  0  0  0  0  0  0
  -42.3790   58.6623   66.8252 C   0  0  0  0  0  0  0  0  0  0  0  0
  -42.8782   57.2530   66.5153 C   0  0  0  0  0  0  0  0  0  0  0  0
  -40.8098   60.6358   61.0139 O   0  0  0  0  0  0  0  0  0  0  0  0
  -39.7924   60.4625   60.0450 C   0  0  0  0  0  0  0  0  0  0  0  0
  -40.4538   61.1241   61.7726 H   0  0  0  0  0  0  0  0  0  0  0  0
  -40.2899   59.6963   58.8171 C   0  0  0  0  0  0  0  0  0  0  0  0
  -41.5824   59.6609   58.4506 C   0  0  0  0  0  0  0  0  0  0  0  0
  -41.9999   58.8718   57.2110 C   0  0  0  0  0  0  0  0  0  0  0  0
  -43.5205   58.7688   57.0227 C   0  0  0  0  0  0  0  0  0  0  0  0
  -44.2956   58.1351   58.1926 C   0  0  0  0  0  0  0  0  0  0  0  0
  -45.8102   58.0760   57.8800 C   0  0  0  0  0  0  0  0  0  0  0  0
  -46.6491   57.1905   58.8358 C   0  0  0  0  0  0  0  0  0  0  0  0
  -48.0045   57.8114   59.2486 C   0  0  0  0  0  0  0  0  0  0  0  0
  -49.1808   56.8123   59.2037 C   0  0  0  0  0  0  0  0  0  0  0  0
  -49.8050   56.5309   60.5758 C   0  0  0  0  0  0  0  0  0  0  0  0
  -51.0972   57.2810   60.8919 C   0  0  0  0  0  0  0  0  0  0  0  0
  -50.9989   58.2070   62.1202 C   0  0  0  0  0  0  0  0  0  0  0  0
  -50.1053   59.4433   61.9384 C   0  0  0  0  0  0  0  0  0  0  0  0
  -49.3097   59.7389   63.2130 C   0  0  0  0  0  0  0  0  0  0  0  0
  -48.3407   58.6625   63.6690 C   0  0  0  0  0  0  0  0  0  0  0  0
  -38.1204   60.2435   62.0404 C   0  0  0  0  0  0  0  0  0  0  0  0
  -37.1326   61.2908   61.8657 O   0  0  0  0  0  0  0  0  0  0  0  0
  -35.3643   63.5374   61.8086 O   0  0  0  0  0  0  0  0  0  0  0  0
  -36.7793   64.0864   65.6939 O   0  0  0  0  0  0  0  0  0  0  0  0
  -36.8693   61.4159   64.2741 O   0  0  0  0  0  0  0  0  0  0  0  0
  -36.2854   61.7391   62.9888 C   0  0  0  0  0  0  0  0  0  0  0  0
  -35.9604   63.2390   63.0332 C   0  0  0  0  0  0  0  0  0  0  0  0
  -34.9770   63.6276   64.1589 C   0  0  0  0  0  0  0  0  0  0  0  0
  -35.6483   63.2534   65.4514 C   0  0  0  0  0  0  0  0  0  0  0  0
  -36.0522   61.7905   65.4158 C   0  0  0  0  0  0  0  0  0  0  0  0
  -35.9687   63.2994   61.0883 H   0  0  0  0  0  0  0  0  0  0  0  0
  -36.4990   65.0149   65.7126 H   0  0  0  0  0  0  0  0  0  0  0  0
  -36.0375   62.4110   67.7240 O   0  0  0  0  0  0  0  0  0  0  0  0
  -36.7088   61.6263   66.7846 C   0  0  0  0  0  0  0  0  0  0  0  0
  -36.4565   62.3050   68.5925 H   0  0  0  0  0  0  0  0  0  0  0  0
  -34.6573   65.0335   64.2646 O   0  0  0  0  0  0  0  0  0  0  0  0
  -32.6969   66.6229   63.6749 O   0  0  0  0  0  0  0  0  0  0  0  0
  -32.2233   64.4296   64.5993 O   0  0  0  0  0  0  0  0  0  0  0  0
  -33.0654   66.1983   66.0265 O   0  0  0  0  0  0  0  0  0  0  0  0
  -33.1429   65.5979   64.6645 S   0  0  0  0  0  0  0  0  0  0  0  0
  -32.7406   66.2495   62.7807 H   0  0  0  0  0  0  0  0  0  0  0  0
  -33.6623   66.9613   66.0780 H   0  0  0  0  0  0  0  0  0  0  0  0
  2  1  1  0  0  0
  2  4  1  0  0  0
  2  5  1  0  0  0
 41 42  1  0  0  0
 41  1  1  0  0  0
 42 46  1  0  0  0
  1 24  1  0  0  0
 23 24  1  0  0  0
 23 25  1  0  0  0
 24 26  1  0  0  0
  3  4  2  0  0  0
 26 27  2  0  0  0
 27 28  1  0  0  0
 43 47  1  0  0  0
 43 51  1  0  0  0
 28 29  1  0  0  0
 56 48  1  0  0  0
 56 60  1  0  0  0
 29 30  1  0  0  0
 57 60  1  0  0  0
 57 61  1  0  0  0
 30 31  1  0  0  0
 44 49  1  0  0  0
 44 52  1  0  0  0
 31 32  1  0  0  0
 45 46  1  0  0  0
 45 50  1  0  0  0
 32 33  1  0  0  0
 53 54  1  0  0  0
 53 55  1  0  0  0
 33 34  1  0  0  0
 34 35  1  0  0  0
 35 36  1  0  0  0
 58 60  1  0  0  0
 36 37  1  0  0  0
 59 60  1  0  0  0
 59 62  1  0  0  0
 37 38  1  0  0  0
 38 39  1  0  0  0
 39 40  1  0  0  0
  4  6  1  0  0  0
  6  7  1  0  0  0
  7  8  1  0  0  0
  8  9  1  0  0  0
  9 10  1  0  0  0
 10 11  1  0  0  0
 11 12  1  0  0  0
 12 13  1  0  0  0
 13 14  1  0  0  0
 14 15  1  0  0  0
 15 16  1  0  0  0
 16 17  1  0  0  0
 17 18  1  0  0  0
 18 19  1  0  0  0
 19 20  1  0  0  0
 20 21  1  0  0  0
 21 22  1  0  0  0
 46 47  1  0  0  0
 47 48  1  0  0  0
 48 49  1  0  0  0
 49 50  1  0  0  0
 50 54  1  0  0  0
M  CHG 1  58  -1
M  END
> <minimizedAffinity>
-9.37636

> <CNNscore>
0.2861436903

> <CNNaffinity>
7.0161690712

> <CNN_VS>
2.0076324940

> <CNNaffinity_variance>
1.4330327511

$$$$
/media/chris/experiments/cd1a-new-docking/inputs/ligands/1onq_ligand.pdb


 62 62  0  0  0  0  0  0  0  0999 V2000
  -39.2496   60.7234   62.1406 C   0  0  0  0  0  0  0  0  0  0  0  0
  -40.3355   59.9833   62.7523 N   0  0  0  0  0  0  0  0  0  0  0  0
  -41.1641   61.4913   64.2310 O   0  0  0  0  0  0  0  0  0  0  0  0
  -41.1795   60.3937   63.7088 C   0  0  0  0  0  0  0  0  0  0  0  0
  -40.4698   59.0648   62.4241 H   0  0  0  0  0  0  0  0  0  0  0  0
  -42.2087   59.3857   64.1265 C   0  0  0  0  0  0  0  0  0  0  0  0
  -42.3005   59.4659   65.6504 C   0  0  0  0  0  0  0  0  0  0  0  0
  -43.6123   58.8472   66.1272 C   0  0  0  0  0  0  0  0  0  0  0  0
  -44.8540   59.2650   65.3773 C   0  0  0  0  0  0  0  0  0  0  0  0
  -45.5727   57.9955   64.9325 C   0  0  0  0  0  0  0  0  0  0  0  0
  -47.0568   58.2321   64.6220 C   0  0  0  0  0  0  0  0  0  0  0  0
  -48.0225   57.6502   65.6706 C   0  0  0  0  0  0  0  0  0  0  0  0
  -49.4924   58.0545   65.4226 C   0  0  0  0  0  0  0  0  0  0  0  0
  -49.5693   59.4370   64.7685 C   0  0  0  0  0  0  0  0  0  0  0  0
  -50.9201   59.7864   64.1559 C   0  0  0  0  0  0  0  0  0  0  0  0
  -51.1830   59.0246   62.8653 C   0  0  0  0  0  0  0  0  0  0  0  0
  -49.9615   58.7577   61.9828 C   0  0  0  0  0  0  0  0  0  0  0  0
  -50.1636   57.4207   61.2825 C   0  0  0  0  0  0  0  0  0  0  0  0
  -49.8272   57.3146   59.8023 C   0  0  0  0  0  0  0  0  0  0  0  0
  -48.4351   57.8972   59.5117 C   0  0  0  0  0  0  0  0  0  0  0  0
  -47.4840   56.9393   58.7707 C   0  0  0  0  0  0  0  0  0  0  0  0
  -46.5691   57.6476   57.7743 C   0  0  0  0  0  0  0  0  0  0  0  0
  -40.3694   60.0271   60.2283 O   0  0  0  0  0  0  0  0  0  0  0  0
  -39.0776   60.0169   60.8069 C   0  0  0  0  0  0  0  0  0  0  0  0
  -40.6554   60.9439   60.0921 H   0  0  0  0  0  0  0  0  0  0  0  0
  -38.5652   58.5951   61.0488 C   0  0  0  0  0  0  0  0  0  0  0  0
  -37.6020   58.0275   60.3030 C   0  0  0  0  0  0  0  0  0  0  0  0
  -37.1455   56.6019   60.6075 C   0  0  0  0  0  0  0  0  0  0  0  0
  -36.5277   55.8764   59.4032 C   0  0  0  0  0  0  0  0  0  0  0  0
  -35.7270   56.7619   58.4306 C   0  0  0  0  0  0  0  0  0  0  0  0
  -34.2443   56.8530   58.8647 C   0  0  0  0  0  0  0  0  0  0  0  0
  -33.7715   55.7468   59.8417 C   0  0  0  0  0  0  0  0  0  0  0  0
  -33.5473   56.2360   61.2919 C   0  0  0  0  0  0  0  0  0  0  0  0
  -33.0565   57.6972   61.3819 C   0  0  0  0  0  0  0  0  0  0  0  0
  -33.4146   58.3890   62.7028 C   0  0  0  0  0  0  0  0  0  0  0  0
  -34.8850   58.7557   62.8914 C   0  0  0  0  0  0  0  0  0  0  0  0
  -35.4667   58.3291   64.2536 C   0  0  0  0  0  0  0  0  0  0  0  0
  -36.6052   57.2998   64.1861 C   0  0  0  0  0  0  0  0  0  0  0  0
  -37.8214   57.7716   64.9879 C   0  0  0  0  0  0  0  0  0  0  0  0
  -39.1807   57.3292   64.4759 C   0  0  0  0  0  0  0  0  0  0  0  0
  -37.9847   60.8919   63.0126 C   0  0  0  0  0  0  0  0  0  0  0  0
  -36.9966   61.8446   62.5442 O   0  0  0  0  0  0  0  0  0  0  0  0
  -34.6375   63.1878   61.6457 O   0  0  0  0  0  0  0  0  0  0  0  0
  -35.1406   65.3315   65.1885 O   0  0  0  0  0  0  0  0  0  0  0  0
  -36.3134   62.5763   64.7540 O   0  0  0  0  0  0  0  0  0  0  0  0
  -35.8774   62.2731   63.4067 C   0  0  0  0  0  0  0  0  0  0  0  0
  -35.0869   63.4994   62.9283 C   0  0  0  0  0  0  0  0  0  0  0  0
  -33.8593   63.8272   63.8063 C   0  0  0  0  0  0  0  0  0  0  0  0
  -34.3920   64.1184   65.1820 C   0  0  0  0  0  0  0  0  0  0  0  0
  -35.2427   62.9557   65.6603 C   0  0  0  0  0  0  0  0  0  0  0  0
  -35.3964   62.9787   61.0792 H   0  0  0  0  0  0  0  0  0  0  0  0
  -34.5789   66.0598   64.8800 H   0  0  0  0  0  0  0  0  0  0  0  0
  -36.9561   64.0139   66.9477 O   0  0  0  0  0  0  0  0  0  0  0  0
  -35.6820   63.4505   67.0366 C   0  0  0  0  0  0  0  0  0  0  0  0
  -37.2329   64.3274   67.8231 H   0  0  0  0  0  0  0  0  0  0  0  0
  -33.0937   64.9902   63.4174 O   0  0  0  0  0  0  0  0  0  0  0  0
  -30.6209   64.2176   63.4889 O   0  0  0  0  0  0  0  0  0  0  0  0
  -31.1932   66.2987   62.3796 O   0  0  0  0  0  0  0  0  0  0  0  0
  -31.6972   64.1759   61.3241 O   0  0  0  0  0  0  0  0  0  0  0  0
  -31.6317   64.8982   62.6263 S   0  0  0  0  0  0  0  0  0  0  0  0
  -30.5642   64.6746   64.3426 H   0  0  0  0  0  0  0  0  0  0  0  0
  -31.9825   63.2612   61.4757 H   0  0  0  0  0  0  0  0  0  0  0  0
  2  1  1  0  0  0
  2  4  1  0  0  0
  2  5  1  0  0  0
 41 42  1  0  0  0
 41  1  1  0  0  0
 42 46  1  0  0  0
  1 24  1  0  0  0
 23 24  1  0  0  0
 23 25  1  0  0  0
 24 26  1  0  0  0
  3  4  2  0  0  0
 26 27  2  0  0  0
 27 28  1  0  0  0
 43 47  1  0  0  0
 43 51  1  0  0  0
 28 29  1  0  0  0
 56 48  1  0  0  0
 56 60  1  0  0  0
 29 30  1  0  0  0
 57 60  1  0  0  0
 57 61  1  0  0  0
 30 31  1  0  0  0
 44 49  1  0  0  0
 44 52  1  0  0  0
 31 32  1  0  0  0
 45 46  1  0  0  0
 45 50  1  0  0  0
 32 33  1  0  0  0
 53 54  1  0  0  0
 53 55  1  0  0  0
 33 34  1  0  0  0
 34 35  1  0  0  0
 35 36  1  0  0  0
 58 60  1  0  0  0
 36 37  1  0  0  0
 59 60  1  0  0  0
 59 62  1  0  0  0
 37 38  1  0  0  0
 38 39  1  0  0  0
 39 40  1  0  0  0
  4  6  1  0  0  0
  6  7  1  0  0  0
  7  8  1  0  0  0
  8  9  1  0  0  0
  9 10  1  0  0  0
 10 11  1  0  0  0
 11 12  1  0  0  0
 12 13  1  0  0  0
 13 14  1  0  0  0
 14 15  1  0  0  0
 15 16  1  0  0  0
 16 17  1  0  0  0
 17 18  1  0  0  0
 18 19  1  0  0  0
 19 20  1  0  0  0
 20 21  1  0  0  0
 21 22  1  0  0  0
 46 47  1  0  0  0
 47 48  1  0  0  0
 48 49  1  0  0  0
 49 50  1  0  0  0
 50 54  1  0  0  0
M  CHG 1  58  -1
M  END
> <minimizedAffinity>
-9.69845

> <CNNscore>
0.2839257121

> <CNNaffinity>
7.1286191940

> <CNN_VS>
2.0239982605

> <CNNaffinity_variance>
1.0736961365

$$$$
