/media/chris/experiments/cd1a-new-docking/inputs/ligands/1onq_ligand.pdb


 62 62  0  0  0  0  0  0  0  0999 V2000
  -38.9206   59.7097   60.8463 C   0  0  0  0  0  0  0  0  0  0  0  0
  -38.0092   59.4534   59.7487 N   0  0  0  0  0  0  0  0  0  0  0  0
  -37.5115   57.2601   60.0472 O   0  0  0  0  0  0  0  0  0  0  0  0
  -37.3949   58.3043   59.4358 C   0  0  0  0  0  0  0  0  0  0  0  0
  -37.8177   60.2188   59.1598 H   0  0  0  0  0  0  0  0  0  0  0  0
  -36.5125   58.3623   58.2243 C   0  0  0  0  0  0  0  0  0  0  0  0
  -36.0625   56.9279   57.9468 C   0  0  0  0  0  0  0  0  0  0  0  0
  -34.5377   56.8512   57.9425 C   0  0  0  0  0  0  0  0  0  0  0  0
  -33.9087   56.0860   59.0815 C   0  0  0  0  0  0  0  0  0  0  0  0
  -33.5876   57.0864   60.1869 C   0  0  0  0  0  0  0  0  0  0  0  0
  -33.7550   56.4919   61.5917 C   0  0  0  0  0  0  0  0  0  0  0  0
  -34.9656   57.0394   62.3696 C   0  0  0  0  0  0  0  0  0  0  0  0
  -34.5693   57.7074   63.7046 C   0  0  0  0  0  0  0  0  0  0  0  0
  -35.7977   58.3101   64.3924 C   0  0  0  0  0  0  0  0  0  0  0  0
  -37.1210   57.6319   64.0592 C   0  0  0  0  0  0  0  0  0  0  0  0
  -38.1833   57.8871   65.1180 C   0  0  0  0  0  0  0  0  0  0  0  0
  -39.6350   57.8506   64.6348 C   0  0  0  0  0  0  0  0  0  0  0  0
  -40.3749   59.0242   65.2624 C   0  0  0  0  0  0  0  0  0  0  0  0
  -41.7848   59.3375   64.7839 C   0  0  0  0  0  0  0  0  0  0  0  0
  -42.8257   58.5254   65.5708 C   0  0  0  0  0  0  0  0  0  0  0  0
  -44.2633   59.0693   65.4777 C   0  0  0  0  0  0  0  0  0  0  0  0
  -45.2165   58.1333   64.7382 C   0  0  0  0  0  0  0  0  0  0  0  0
  -41.0396   60.6081   61.1604 O   0  0  0  0  0  0  0  0  0  0  0  0
  -40.0225   60.5156   60.1802 C   0  0  0  0  0  0  0  0  0  0  0  0
  -40.6980   61.0778   61.9373 H   0  0  0  0  0  0  0  0  0  0  0  0
  -40.4977   59.7826   58.9234 C   0  0  0  0  0  0  0  0  0  0  0  0
  -41.7956   59.6451   58.6032 C   0  0  0  0  0  0  0  0  0  0  0  0
  -42.1896   58.8979   57.3303 C   0  0  0  0  0  0  0  0  0  0  0  0
  -43.7056   58.7274   57.1536 C   0  0  0  0  0  0  0  0  0  0  0  0
  -44.4578   58.1533   58.3684 C   0  0  0  0  0  0  0  0  0  0  0  0
  -45.9151   57.7927   57.9918 C   0  0  0  0  0  0  0  0  0  0  0  0
  -46.8937   57.6599   59.1861 C   0  0  0  0  0  0  0  0  0  0  0  0
  -47.9739   56.5683   59.0014 C   0  0  0  0  0  0  0  0  0  0  0  0
  -49.4104   57.1288   58.9186 C   0  0  0  0  0  0  0  0  0  0  0  0
  -50.1751   57.0666   60.2463 C   0  0  0  0  0  0  0  0  0  0  0  0
  -50.0417   58.2863   61.1557 C   0  0  0  0  0  0  0  0  0  0  0  0
  -49.9795   57.9435   62.6573 C   0  0  0  0  0  0  0  0  0  0  0  0
  -48.6912   58.3744   63.3745 C   0  0  0  0  0  0  0  0  0  0  0  0
  -48.9684   58.7263   64.8389 C   0  0  0  0  0  0  0  0  0  0  0  0
  -50.2670   58.2018   65.4252 C   0  0  0  0  0  0  0  0  0  0  0  0
  -38.2800   60.3145   62.1162 C   0  0  0  0  0  0  0  0  0  0  0  0
  -37.3166   61.3791   61.9121 O   0  0  0  0  0  0  0  0  0  0  0  0
  -35.4533   63.5420   61.7477 O   0  0  0  0  0  0  0  0  0  0  0  0
  -36.6928   64.2191   65.6725 O   0  0  0  0  0  0  0  0  0  0  0  0
  -36.9561   61.5322   64.3063 O   0  0  0  0  0  0  0  0  0  0  0  0
  -36.4079   61.8071   62.9943 C   0  0  0  0  0  0  0  0  0  0  0  0
  -36.0149   63.2915   62.9991 C   0  0  0  0  0  0  0  0  0  0  0  0
  -34.9728   63.6538   64.0798 C   0  0  0  0  0  0  0  0  0  0  0  0
  -35.6102   63.3318   65.4032 C   0  0  0  0  0  0  0  0  0  0  0  0
  -36.0799   61.8883   65.4095 C   0  0  0  0  0  0  0  0  0  0  0  0
  -36.0949   63.3198   61.0551 H   0  0  0  0  0  0  0  0  0  0  0  0
  -36.3708   65.1341   65.6638 H   0  0  0  0  0  0  0  0  0  0  0  0
  -35.8918   62.4615   67.7225 O   0  0  0  0  0  0  0  0  0  0  0  0
  -36.6905   61.7768   66.8048 C   0  0  0  0  0  0  0  0  0  0  0  0
  -36.2817   62.3892   68.6077 H   0  0  0  0  0  0  0  0  0  0  0  0
  -34.5868   65.0453   64.1477 O   0  0  0  0  0  0  0  0  0  0  0  0
  -32.5074   66.5489   63.7836 O   0  0  0  0  0  0  0  0  0  0  0  0
  -32.2370   64.3523   64.7793 O   0  0  0  0  0  0  0  0  0  0  0  0
  -33.1727   66.1726   66.0775 O   0  0  0  0  0  0  0  0  0  0  0  0
  -33.1099   65.5562   64.7219 S   0  0  0  0  0  0  0  0  0  0  0  0
  -32.4582   66.1646   62.8943 H   0  0  0  0  0  0  0  0  0  0  0  0
  -33.7403   66.9588   66.0492 H   0  0  0  0  0  0  0  0  0  0  0  0
  2  1  1  0  0  0
  2  4  1  0  0  0
  2  5  1  0  0  0
 41 42  1  0  0  0
 41  1  1  0  0  0
 42 46  1  0  0  0
  1 24  1  0  0  0
 23 24  1  0  0  0
 23 25  1  0  0  0
 24 26  1  0  0  0
  3  4  2  0  0  0
 26 27  2  0  0  0
 27 28  1  0  0  0
 43 47  1  0  0  0
 43 51  1  0  0  0
 28 29  1  0  0  0
 56 48  1  0  0  0
 56 60  1  0  0  0
 29 30  1  0  0  0
 57 60  1  0  0  0
 57 61  1  0  0  0
 30 31  1  0  0  0
 44 49  1  0  0  0
 44 52  1  0  0  0
 31 32  1  0  0  0
 45 46  1  0  0  0
 45 50  1  0  0  0
 32 33  1  0  0  0
 53 54  1  0  0  0
 53 55  1  0  0  0
 33 34  1  0  0  0
 34 35  1  0  0  0
 35 36  1  0  0  0
 58 60  1  0  0  0
 36 37  1  0  0  0
 59 60  1  0  0  0
 59 62  1  0  0  0
 37 38  1  0  0  0
 38 39  1  0  0  0
 39 40  1  0  0  0
  4  6  1  0  0  0
  6  7  1  0  0  0
  7  8  1  0  0  0
  8  9  1  0  0  0
  9 10  1  0  0  0
 10 11  1  0  0  0
 11 12  1  0  0  0
 12 13  1  0  0  0
 13 14  1  0  0  0
 14 15  1  0  0  0
 15 16  1  0  0  0
 16 17  1  0  0  0
 17 18  1  0  0  0
 18 19  1  0  0  0
 19 20  1  0  0  0
 20 21  1  0  0  0
 21 22  1  0  0  0
 46 47  1  0  0  0
 47 48  1  0  0  0
 48 49  1  0  0  0
 49 50  1  0  0  0
 50 54  1  0  0  0
M  CHG 1  58  -1
M  END
> <minimizedAffinity>
-9.17571

> <CNNscore>
0.4288346767

> <CNNaffinity>
7.1980543137

> <CNN_VS>
3.0867753029

> <CNNaffinity_variance>
1.2025557756

$$$$
/media/chris/experiments/cd1a-new-docking/inputs/ligands/1onq_ligand.pdb


 62 62  0  0  0  0  0  0  0  0999 V2000
  -39.4158   59.1902   63.5444 C   0  0  0  0  0  0  0  0  0  0  0  0
  -40.0679   59.3475   64.8294 N   0  0  0  0  0  0  0  0  0  0  0  0
  -41.8703   60.6176   64.2948 O   0  0  0  0  0  0  0  0  0  0  0  0
  -41.1951   60.0166   65.1076 C   0  0  0  0  0  0  0  0  0  0  0  0
  -39.6280   58.9080   65.5927 H   0  0  0  0  0  0  0  0  0  0  0  0
  -41.6175   59.9838   66.5464 C   0  0  0  0  0  0  0  0  0  0  0  0
  -42.3636   58.6650   66.7492 C   0  0  0  0  0  0  0  0  0  0  0  0
  -43.8632   58.8797   66.5588 C   0  0  0  0  0  0  0  0  0  0  0  0
  -44.6859   57.6373   66.3174 C   0  0  0  0  0  0  0  0  0  0  0  0
  -46.1195   57.9451   66.7369 C   0  0  0  0  0  0  0  0  0  0  0  0
  -47.0892   56.7989   66.4200 C   0  0  0  0  0  0  0  0  0  0  0  0
  -48.2660   57.1993   65.5115 C   0  0  0  0  0  0  0  0  0  0  0  0
  -47.9418   58.4087   64.6072 C   0  0  0  0  0  0  0  0  0  0  0  0
  -48.6718   58.2911   63.2661 C   0  0  0  0  0  0  0  0  0  0  0  0
  -50.1927   58.3227   63.3547 C   0  0  0  0  0  0  0  0  0  0  0  0
  -50.8471   58.4907   61.9914 C   0  0  0  0  0  0  0  0  0  0  0  0
  -50.8713   57.2465   61.1006 C   0  0  0  0  0  0  0  0  0  0  0  0
  -50.3163   57.6284   59.7350 C   0  0  0  0  0  0  0  0  0  0  0  0
  -49.1641   56.8160   59.1628 C   0  0  0  0  0  0  0  0  0  0  0  0
  -47.8244   57.5402   59.3699 C   0  0  0  0  0  0  0  0  0  0  0  0
  -46.9561   57.6512   58.1030 C   0  0  0  0  0  0  0  0  0  0  0  0
  -47.4372   56.7592   56.9610 C   0  0  0  0  0  0  0  0  0  0  0  0
  -39.5170   57.1045   64.5620 O   0  0  0  0  0  0  0  0  0  0  0  0
  -38.6894   57.8654   63.7019 C   0  0  0  0  0  0  0  0  0  0  0  0
  -40.3814   56.9698   64.1431 H   0  0  0  0  0  0  0  0  0  0  0  0
  -37.3052   58.1150   64.3055 C   0  0  0  0  0  0  0  0  0  0  0  0
  -36.2051   57.4502   63.9131 C   0  0  0  0  0  0  0  0  0  0  0  0
  -34.8584   57.7565   64.5659 C   0  0  0  0  0  0  0  0  0  0  0  0
  -33.7541   58.1314   63.5667 C   0  0  0  0  0  0  0  0  0  0  0  0
  -34.1726   58.1444   62.0849 C   0  0  0  0  0  0  0  0  0  0  0  0
  -33.5438   56.9510   61.3261 C   0  0  0  0  0  0  0  0  0  0  0  0
  -33.5162   57.0885   59.7827 C   0  0  0  0  0  0  0  0  0  0  0  0
  -33.9642   55.8165   59.0253 C   0  0  0  0  0  0  0  0  0  0  0  0
  -35.1256   55.0656   59.7121 C   0  0  0  0  0  0  0  0  0  0  0  0
  -36.5119   55.4645   59.1925 C   0  0  0  0  0  0  0  0  0  0  0  0
  -36.5467   56.1428   57.8246 C   0  0  0  0  0  0  0  0  0  0  0  0
  -37.3470   57.4600   57.7994 C   0  0  0  0  0  0  0  0  0  0  0  0
  -36.7405   58.6104   58.6171 C   0  0  0  0  0  0  0  0  0  0  0  0
  -37.6250   58.9572   59.8182 C   0  0  0  0  0  0  0  0  0  0  0  0
  -38.9705   59.5878   59.5061 C   0  0  0  0  0  0  0  0  0  0  0  0
  -38.5755   60.3983   63.0721 C   0  0  0  0  0  0  0  0  0  0  0  0
  -38.3750   61.4645   64.0346 O   0  0  0  0  0  0  0  0  0  0  0  0
  -36.2659   62.1825   62.2421 O   0  0  0  0  0  0  0  0  0  0  0  0
  -35.5170   65.1030   65.1247 O   0  0  0  0  0  0  0  0  0  0  0  0
  -37.0142   62.5438   65.7283 O   0  0  0  0  0  0  0  0  0  0  0  0
  -37.0188   61.8867   64.4377 C   0  0  0  0  0  0  0  0  0  0  0  0
  -36.2920   62.8356   63.4738 C   0  0  0  0  0  0  0  0  0  0  0  0
  -34.8374   63.1471   63.8888 C   0  0  0  0  0  0  0  0  0  0  0  0
  -34.9178   63.8142   65.2341 C   0  0  0  0  0  0  0  0  0  0  0  0
  -35.6960   62.9362   66.1973 C   0  0  0  0  0  0  0  0  0  0  0  0
  -37.1726   61.9786   61.9650 H   0  0  0  0  0  0  0  0  0  0  0  0
  -35.0046   65.6463   64.5057 H   0  0  0  0  0  0  0  0  0  0  0  0
  -34.3890   64.3117   67.6511 O   0  0  0  0  0  0  0  0  0  0  0  0
  -35.6684   63.7846   67.4668 C   0  0  0  0  0  0  0  0  0  0  0  0
  -34.3741   64.8500   68.4579 H   0  0  0  0  0  0  0  0  0  0  0  0
  -34.1143   64.0586   63.0308 O   0  0  0  0  0  0  0  0  0  0  0  0
  -31.9929   65.1888   62.0616 O   0  0  0  0  0  0  0  0  0  0  0  0
  -32.2180   62.7748   61.9550 O   0  0  0  0  0  0  0  0  0  0  0  0
  -31.6848   63.8581   64.0566 O   0  0  0  0  0  0  0  0  0  0  0  0
  -32.4681   63.9780   62.7943 S   0  0  0  0  0  0  0  0  0  0  0  0
  -32.4923   65.2834   61.2354 H   0  0  0  0  0  0  0  0  0  0  0  0
  -31.8423   64.6389   64.6102 H   0  0  0  0  0  0  0  0  0  0  0  0
  2  1  1  0  0  0
  2  4  1  0  0  0
  2  5  1  0  0  0
 41 42  1  0  0  0
 41  1  1  0  0  0
 42 46  1  0  0  0
  1 24  1  0  0  0
 23 24  1  0  0  0
 23 25  1  0  0  0
 24 26  1  0  0  0
  3  4  2  0  0  0
 26 27  2  0  0  0
 27 28  1  0  0  0
 43 47  1  0  0  0
 43 51  1  0  0  0
 28 29  1  0  0  0
 56 48  1  0  0  0
 56 60  1  0  0  0
 29 30  1  0  0  0
 57 60  1  0  0  0
 57 61  1  0  0  0
 30 31  1  0  0  0
 44 49  1  0  0  0
 44 52  1  0  0  0
 31 32  1  0  0  0
 45 46  1  0  0  0
 45 50  1  0  0  0
 32 33  1  0  0  0
 53 54  1  0  0  0
 53 55  1  0  0  0
 33 34  1  0  0  0
 34 35  1  0  0  0
 35 36  1  0  0  0
 58 60  1  0  0  0
 36 37  1  0  0  0
 59 60  1  0  0  0
 59 62  1  0  0  0
 37 38  1  0  0  0
 38 39  1  0  0  0
 39 40  1  0  0  0
  4  6  1  0  0  0
  6  7  1  0  0  0
  7  8  1  0  0  0
  8  9  1  0  0  0
  9 10  1  0  0  0
 10 11  1  0  0  0
 11 12  1  0  0  0
 12 13  1  0  0  0
 13 14  1  0  0  0
 14 15  1  0  0  0
 15 16  1  0  0  0
 16 17  1  0  0  0
 17 18  1  0  0  0
 18 19  1  0  0  0
 19 20  1  0  0  0
 20 21  1  0  0  0
 21 22  1  0  0  0
 46 47  1  0  0  0
 47 48  1  0  0  0
 48 49  1  0  0  0
 49 50  1  0  0  0
 50 54  1  0  0  0
M  CHG 1  58  -1
M  END
> <minimizedAffinity>
-9.42008

> <CNNscore>
0.3642575145

> <CNNaffinity>
7.3296442032

> <CNN_VS>
2.6698780060

> <CNNaffinity_variance>
1.1039367914

$$$$
/media/chris/experiments/cd1a-new-docking/inputs/ligands/1onq_ligand.pdb


 62 62  0  0  0  0  0  0  0  0999 V2000
  -37.8633   59.4226   60.0212 C   0  0  0  0  0  0  0  0  0  0  0  0
  -39.1248   59.7043   59.3652 N   0  0  0  0  0  0  0  0  0  0  0  0
  -40.4953   60.1121   61.1268 O   0  0  0  0  0  0  0  0  0  0  0  0
  -40.2992   60.0149   59.9310 C   0  0  0  0  0  0  0  0  0  0  0  0
  -39.1180   59.6622   58.3816 H   0  0  0  0  0  0  0  0  0  0  0  0
  -41.4248   60.2598   58.9704 C   0  0  0  0  0  0  0  0  0  0  0  0
  -41.3891   59.1134   57.9596 C   0  0  0  0  0  0  0  0  0  0  0  0
  -42.5249   59.2713   56.9516 C   0  0  0  0  0  0  0  0  0  0  0  0
  -43.6269   58.2425   57.0272 C   0  0  0  0  0  0  0  0  0  0  0  0
  -44.4895   58.5794   58.2390 C   0  0  0  0  0  0  0  0  0  0  0  0
  -45.5187   57.4863   58.5566 C   0  0  0  0  0  0  0  0  0  0  0  0
  -46.8624   57.6509   57.8233 C   0  0  0  0  0  0  0  0  0  0  0  0
  -47.8210   56.4617   58.0522 C   0  0  0  0  0  0  0  0  0  0  0  0
  -49.1663   56.9497   58.5974 C   0  0  0  0  0  0  0  0  0  0  0  0
  -49.2331   57.0962   60.1127 C   0  0  0  0  0  0  0  0  0  0  0  0
  -50.6260   57.4729   60.5955 C   0  0  0  0  0  0  0  0  0  0  0  0
  -50.7336   57.9123   62.0575 C   0  0  0  0  0  0  0  0  0  0  0  0
  -50.3467   59.3826   62.1420 C   0  0  0  0  0  0  0  0  0  0  0  0
  -49.5744   59.8647   63.3611 C   0  0  0  0  0  0  0  0  0  0  0  0
  -48.4907   58.8510   63.7617 C   0  0  0  0  0  0  0  0  0  0  0  0
  -48.3589   58.6235   65.2790 C   0  0  0  0  0  0  0  0  0  0  0  0
  -48.0001   57.1852   65.6451 C   0  0  0  0  0  0  0  0  0  0  0  0
  -38.0155   57.3568   61.0724 O   0  0  0  0  0  0  0  0  0  0  0  0
  -37.7089   57.9259   59.8131 C   0  0  0  0  0  0  0  0  0  0  0  0
  -38.9303   57.5736   61.3110 H   0  0  0  0  0  0  0  0  0  0  0  0
  -36.2744   57.6202   59.3759 C   0  0  0  0  0  0  0  0  0  0  0  0
  -35.7443   56.3859   59.4166 C   0  0  0  0  0  0  0  0  0  0  0  0
  -34.3027   56.1623   58.9633 C   0  0  0  0  0  0  0  0  0  0  0  0
  -33.2874   56.1262   60.1149 C   0  0  0  0  0  0  0  0  0  0  0  0
  -33.8883   56.0924   61.5323 C   0  0  0  0  0  0  0  0  0  0  0  0
  -33.6417   57.4329   62.2655 C   0  0  0  0  0  0  0  0  0  0  0  0
  -34.9192   58.1844   62.7181 C   0  0  0  0  0  0  0  0  0  0  0  0
  -35.3179   57.9263   64.1901 C   0  0  0  0  0  0  0  0  0  0  0  0
  -36.6844   57.2244   64.3459 C   0  0  0  0  0  0  0  0  0  0  0  0
  -37.7497   58.0909   65.0283 C   0  0  0  0  0  0  0  0  0  0  0  0
  -39.1875   57.8821   64.5577 C   0  0  0  0  0  0  0  0  0  0  0  0
  -40.2259   58.7234   65.3258 C   0  0  0  0  0  0  0  0  0  0  0  0
  -41.6141   58.0809   65.4668 C   0  0  0  0  0  0  0  0  0  0  0  0
  -42.6624   59.1205   65.8737 C   0  0  0  0  0  0  0  0  0  0  0  0
  -44.0907   58.8452   65.4384 C   0  0  0  0  0  0  0  0  0  0  0  0
  -37.7351   59.9455   61.4700 C   0  0  0  0  0  0  0  0  0  0  0  0
  -37.2709   61.3104   61.6279 O   0  0  0  0  0  0  0  0  0  0  0  0
  -35.4951   63.5515   61.5983 O   0  0  0  0  0  0  0  0  0  0  0  0
  -36.6530   63.8567   65.5939 O   0  0  0  0  0  0  0  0  0  0  0  0
  -36.8520   61.2818   64.0173 O   0  0  0  0  0  0  0  0  0  0  0  0
  -36.3501   61.6843   62.7198 C   0  0  0  0  0  0  0  0  0  0  0  0
  -36.0129   63.1777   62.8377 C   0  0  0  0  0  0  0  0  0  0  0  0
  -34.9565   63.4917   63.9196 C   0  0  0  0  0  0  0  0  0  0  0  0
  -35.5455   63.0378   65.2266 C   0  0  0  0  0  0  0  0  0  0  0  0
  -35.9604   61.5812   65.1250 C   0  0  0  0  0  0  0  0  0  0  0  0
  -36.1463   63.3613   60.9051 H   0  0  0  0  0  0  0  0  0  0  0  0
  -36.3658   64.7814   65.6531 H   0  0  0  0  0  0  0  0  0  0  0  0
  -37.9194   61.2342   66.4500 O   0  0  0  0  0  0  0  0  0  0  0  0
  -36.5286   61.3323   66.5205 C   0  0  0  0  0  0  0  0  0  0  0  0
  -38.2778   61.0762   67.3374 H   0  0  0  0  0  0  0  0  0  0  0  0
  -34.6213   64.8872   64.0929 O   0  0  0  0  0  0  0  0  0  0  0  0
  -32.5062   66.2674   63.5106 O   0  0  0  0  0  0  0  0  0  0  0  0
  -32.2788   64.1943   64.7515 O   0  0  0  0  0  0  0  0  0  0  0  0
  -33.1252   66.1841   65.8463 O   0  0  0  0  0  0  0  0  0  0  0  0
  -33.1154   65.4119   64.5716 S   0  0  0  0  0  0  0  0  0  0  0  0
  -32.4912   65.7804   62.6717 H   0  0  0  0  0  0  0  0  0  0  0  0
  -33.6689   66.9801   65.7379 H   0  0  0  0  0  0  0  0  0  0  0  0
  2  1  1  0  0  0
  2  4  1  0  0  0
  2  5  1  0  0  0
 41 42  1  0  0  0
 41  1  1  0  0  0
 42 46  1  0  0  0
  1 24  1  0  0  0
 23 24  1  0  0  0
 23 25  1  0  0  0
 24 26  1  0  0  0
  3  4  2  0  0  0
 26 27  2  0  0  0
 27 28  1  0  0  0
 43 47  1  0  0  0
 43 51  1  0  0  0
 28 29  1  0  0  0
 56 48  1  0  0  0
 56 60  1  0  0  0
 29 30  1  0  0  0
 57 60  1  0  0  0
 57 61  1  0  0  0
 30 31  1  0  0  0
 44 49  1  0  0  0
 44 52  1  0  0  0
 31 32  1  0  0  0
 45 46  1  0  0  0
 45 50  1  0  0  0
 32 33  1  0  0  0
 53 54  1  0  0  0
 53 55  1  0  0  0
 33 34  1  0  0  0
 34 35  1  0  0  0
 35 36  1  0  0  0
 58 60  1  0  0  0
 36 37  1  0  0  0
 59 60  1  0  0  0
 59 62  1  0  0  0
 37 38  1  0  0  0
 38 39  1  0  0  0
 39 40  1  0  0  0
  4  6  1  0  0  0
  6  7  1  0  0  0
  7  8  1  0  0  0
  8  9  1  0  0  0
  9 10  1  0  0  0
 10 11  1  0  0  0
 11 12  1  0  0  0
 12 13  1  0  0  0
 13 14  1  0  0  0
 14 15  1  0  0  0
 15 16  1  0  0  0
 16 17  1  0  0  0
 17 18  1  0  0  0
 18 19  1  0  0  0
 19 20  1  0  0  0
 20 21  1  0  0  0
 21 22  1  0  0  0
 46 47  1  0  0  0
 47 48  1  0  0  0
 48 49  1  0  0  0
 49 50  1  0  0  0
 50 54  1  0  0  0
M  CHG 1  58  -1
M  END
> <minimizedAffinity>
-8.55755

> <CNNscore>
0.3560134768

> <CNNaffinity>
7.0304269791

> <CNN_VS>
2.5029268265

> <CNNaffinity_variance>
1.1083042622

$$$$
/media/chris/experiments/cd1a-new-docking/inputs/ligands/1onq_ligand.pdb


 62 62  0  0  0  0  0  0  0  0999 V2000
  -40.1607   59.0184   64.6690 C   0  0  0  0  0  0  0  0  0  0  0  0
  -41.1278   58.3322   65.5026 N   0  0  0  0  0  0  0  0  0  0  0  0
  -43.0571   59.4001   64.9689 O   0  0  0  0  0  0  0  0  0  0  0  0
  -42.4459   58.5556   65.5943 C   0  0  0  0  0  0  0  0  0  0  0  0
  -40.7720   57.6124   66.0723 H   0  0  0  0  0  0  0  0  0  0  0  0
  -43.1791   57.6624   66.5505 C   0  0  0  0  0  0  0  0  0  0  0  0
  -44.2578   56.9482   65.7360 C   0  0  0  0  0  0  0  0  0  0  0  0
  -45.6206   57.1345   66.3987 C   0  0  0  0  0  0  0  0  0  0  0  0
  -46.0497   58.5608   66.6440 C   0  0  0  0  0  0  0  0  0  0  0  0
  -46.9784   58.9651   65.5038 C   0  0  0  0  0  0  0  0  0  0  0  0
  -47.8594   57.8067   65.0174 C   0  0  0  0  0  0  0  0  0  0  0  0
  -49.3083   58.2098   64.6874 C   0  0  0  0  0  0  0  0  0  0  0  0
  -49.4550   58.8207   63.2765 C   0  0  0  0  0  0  0  0  0  0  0  0
  -50.8656   58.5839   62.7295 C   0  0  0  0  0  0  0  0  0  0  0  0
  -50.9343   57.7234   61.4737 C   0  0  0  0  0  0  0  0  0  0  0  0
  -49.5913   57.6280   60.7650 C   0  0  0  0  0  0  0  0  0  0  0  0
  -49.5883   56.8786   59.4306 C   0  0  0  0  0  0  0  0  0  0  0  0
  -48.5421   55.7749   59.5073 C   0  0  0  0  0  0  0  0  0  0  0  0
  -47.5056   55.6741   58.3980 C   0  0  0  0  0  0  0  0  0  0  0  0
  -47.5168   56.9348   57.5188 C   0  0  0  0  0  0  0  0  0  0  0  0
  -46.5431   58.0381   57.9723 C   0  0  0  0  0  0  0  0  0  0  0  0
  -45.5905   57.5864   59.0768 C   0  0  0  0  0  0  0  0  0  0  0  0
  -38.3646   57.5680   64.9267 O   0  0  0  0  0  0  0  0  0  0  0  0
  -39.4089   57.8692   64.0197 C   0  0  0  0  0  0  0  0  0  0  0  0
  -38.7435   57.2893   65.7750 H   0  0  0  0  0  0  0  0  0  0  0  0
  -38.8772   58.3173   62.6563 C   0  0  0  0  0  0  0  0  0  0  0  0
  -39.5509   59.1517   61.8463 C   0  0  0  0  0  0  0  0  0  0  0  0
  -38.9525   59.5514   60.4988 C   0  0  0  0  0  0  0  0  0  0  0  0
  -37.7505   58.6952   60.0739 C   0  0  0  0  0  0  0  0  0  0  0  0
  -37.6540   58.3819   58.5693 C   0  0  0  0  0  0  0  0  0  0  0  0
  -36.3747   57.5682   58.2587 C   0  0  0  0  0  0  0  0  0  0  0  0
  -36.5280   56.0295   58.3610 C   0  0  0  0  0  0  0  0  0  0  0  0
  -35.6157   55.3713   59.4226 C   0  0  0  0  0  0  0  0  0  0  0  0
  -34.1847   55.9507   59.4519 C   0  0  0  0  0  0  0  0  0  0  0  0
  -33.5642   55.9935   60.8535 C   0  0  0  0  0  0  0  0  0  0  0  0
  -33.3332   57.3832   61.4433 C   0  0  0  0  0  0  0  0  0  0  0  0
  -34.6213   58.0827   61.9203 C   0  0  0  0  0  0  0  0  0  0  0  0
  -35.5223   57.2412   62.8369 C   0  0  0  0  0  0  0  0  0  0  0  0
  -35.1368   57.4263   64.3074 C   0  0  0  0  0  0  0  0  0  0  0  0
  -34.6220   58.7988   64.7029 C   0  0  0  0  0  0  0  0  0  0  0  0
  -39.3130   60.0963   65.3822 C   0  0  0  0  0  0  0  0  0  0  0  0
  -38.6521   61.0682   64.5325 O   0  0  0  0  0  0  0  0  0  0  0  0
  -36.6269   61.1279   62.5147 O   0  0  0  0  0  0  0  0  0  0  0  0
  -35.4350   64.5674   64.5515 O   0  0  0  0  0  0  0  0  0  0  0  0
  -37.0886   62.3849   65.8390 O   0  0  0  0  0  0  0  0  0  0  0  0
  -37.2404   61.4413   64.7509 C   0  0  0  0  0  0  0  0  0  0  0  0
  -36.5103   62.0565   63.5483 C   0  0  0  0  0  0  0  0  0  0  0  0
  -35.0089   62.3159   63.8004 C   0  0  0  0  0  0  0  0  0  0  0  0
  -34.9367   63.2905   64.9432 C   0  0  0  0  0  0  0  0  0  0  0  0
  -35.7122   62.7486   66.1303 C   0  0  0  0  0  0  0  0  0  0  0  0
  -37.5650   60.9523   62.3421 H   0  0  0  0  0  0  0  0  0  0  0  0
  -34.9261   64.8942   63.7931 H   0  0  0  0  0  0  0  0  0  0  0  0
  -36.5081   63.7783   68.1354 O   0  0  0  0  0  0  0  0  0  0  0  0
  -35.5235   63.8698   67.1500 C   0  0  0  0  0  0  0  0  0  0  0  0
  -36.3861   64.4914   68.7816 H   0  0  0  0  0  0  0  0  0  0  0  0
  -34.2777   62.9207   62.7097 O   0  0  0  0  0  0  0  0  0  0  0  0
  -32.1977   63.4356   61.2518 O   0  0  0  0  0  0  0  0  0  0  0  0
  -32.4777   61.2182   62.1973 O   0  0  0  0  0  0  0  0  0  0  0  0
  -31.7942   63.0675   63.6071 O   0  0  0  0  0  0  0  0  0  0  0  0
  -32.6513   62.6740   62.4530 S   0  0  0  0  0  0  0  0  0  0  0  0
  -32.7451   63.1920   60.4888 H   0  0  0  0  0  0  0  0  0  0  0  0
  -31.9014   64.0158   63.7808 H   0  0  0  0  0  0  0  0  0  0  0  0
  2  1  1  0  0  0
  2  4  1  0  0  0
  2  5  1  0  0  0
 41 42  1  0  0  0
 41  1  1  0  0  0
 42 46  1  0  0  0
  1 24  1  0  0  0
 23 24  1  0  0  0
 23 25  1  0  0  0
 24 26  1  0  0  0
  3  4  2  0  0  0
 26 27  2  0  0  0
 27 28  1  0  0  0
 43 47  1  0  0  0
 43 51  1  0  0  0
 28 29  1  0  0  0
 56 48  1  0  0  0
 56 60  1  0  0  0
 29 30  1  0  0  0
 57 60  1  0  0  0
 57 61  1  0  0  0
 30 31  1  0  0  0
 44 49  1  0  0  0
 44 52  1  0  0  0
 31 32  1  0  0  0
 45 46  1  0  0  0
 45 50  1  0  0  0
 32 33  1  0  0  0
 53 54  1  0  0  0
 53 55  1  0  0  0
 33 34  1  0  0  0
 34 35  1  0  0  0
 35 36  1  0  0  0
 58 60  1  0  0  0
 36 37  1  0  0  0
 59 60  1  0  0  0
 59 62  1  0  0  0
 37 38  1  0  0  0
 38 39  1  0  0  0
 39 40  1  0  0  0
  4  6  1  0  0  0
  6  7  1  0  0  0
  7  8  1  0  0  0
  8  9  1  0  0  0
  9 10  1  0  0  0
 10 11  1  0  0  0
 11 12  1  0  0  0
 12 13  1  0  0  0
 13 14  1  0  0  0
 14 15  1  0  0  0
 15 16  1  0  0  0
 16 17  1  0  0  0
 17 18  1  0  0  0
 18 19  1  0  0  0
 19 20  1  0  0  0
 20 21  1  0  0  0
 21 22  1  0  0  0
 46 47  1  0  0  0
 47 48  1  0  0  0
 48 49  1  0  0  0
 49 50  1  0  0  0
 50 54  1  0  0  0
M  CHG 1  58  -1
M  END
> <minimizedAffinity>
-10.04216

> <CNNscore>
0.3404133320

> <CNNaffinity>
7.3742623329

> <CNN_VS>
2.5102972984

> <CNNaffinity_variance>
1.2673523426

$$$$
/media/chris/experiments/cd1a-new-docking/inputs/ligands/1onq_ligand.pdb


 62 62  0  0  0  0  0  0  0  0999 V2000
  -38.8820   59.5547   65.1425 C   0  0  0  0  0  0  0  0  0  0  0  0
  -40.1234   59.2139   65.8087 N   0  0  0  0  0  0  0  0  0  0  0  0
  -40.9865   61.2586   66.2793 O   0  0  0  0  0  0  0  0  0  0  0  0
  -41.0482   60.0449   66.3085 C   0  0  0  0  0  0  0  0  0  0  0  0
  -40.3105   58.2522   65.9061 H   0  0  0  0  0  0  0  0  0  0  0  0
  -42.2354   59.3754   66.9346 C   0  0  0  0  0  0  0  0  0  0  0  0
  -42.3816   58.0188   66.2451 C   0  0  0  0  0  0  0  0  0  0  0  0
  -43.8252   57.8176   65.7907 C   0  0  0  0  0  0  0  0  0  0  0  0
  -44.6137   59.0738   65.5102 C   0  0  0  0  0  0  0  0  0  0  0  0
  -46.0239   58.6530   65.1099 C   0  0  0  0  0  0  0  0  0  0  0  0
  -47.1112   59.4270   65.8673 C   0  0  0  0  0  0  0  0  0  0  0  0
  -48.1183   60.1550   64.9583 C   0  0  0  0  0  0  0  0  0  0  0  0
  -48.4615   59.3562   63.6817 C   0  0  0  0  0  0  0  0  0  0  0  0
  -49.6602   58.4352   63.9270 C   0  0  0  0  0  0  0  0  0  0  0  0
  -50.7881   58.5601   62.9100 C   0  0  0  0  0  0  0  0  0  0  0  0
  -50.5700   57.6720   61.6940 C   0  0  0  0  0  0  0  0  0  0  0  0
  -50.0157   58.3654   60.4473 C   0  0  0  0  0  0  0  0  0  0  0  0
  -49.7496   57.3020   59.3903 C   0  0  0  0  0  0  0  0  0  0  0  0
  -48.4163   56.5694   59.4123 C   0  0  0  0  0  0  0  0  0  0  0  0
  -47.2476   57.5485   59.2177 C   0  0  0  0  0  0  0  0  0  0  0  0
  -46.6366   57.5405   57.8042 C   0  0  0  0  0  0  0  0  0  0  0  0
  -47.4206   56.6844   56.8122 C   0  0  0  0  0  0  0  0  0  0  0  0
  -39.6387   57.4224   64.6162 O   0  0  0  0  0  0  0  0  0  0  0  0
  -38.6705   58.3728   64.2119 C   0  0  0  0  0  0  0  0  0  0  0  0
  -40.5264   57.7942   64.4960 H   0  0  0  0  0  0  0  0  0  0  0  0
  -37.2425   57.8471   64.3766 C   0  0  0  0  0  0  0  0  0  0  0  0
  -36.3670   57.7762   63.3595 C   0  0  0  0  0  0  0  0  0  0  0  0
  -34.9585   57.2380   63.6049 C   0  0  0  0  0  0  0  0  0  0  0  0
  -33.8458   58.2596   63.3285 C   0  0  0  0  0  0  0  0  0  0  0  0
  -33.0189   58.0156   62.0525 C   0  0  0  0  0  0  0  0  0  0  0  0
  -33.2657   56.5902   61.5023 C   0  0  0  0  0  0  0  0  0  0  0  0
  -33.9959   56.5250   60.1370 C   0  0  0  0  0  0  0  0  0  0  0  0
  -35.0863   55.4311   60.0534 C   0  0  0  0  0  0  0  0  0  0  0  0
  -36.1757   55.7244   58.9990 C   0  0  0  0  0  0  0  0  0  0  0  0
  -36.0395   57.1005   58.3364 C   0  0  0  0  0  0  0  0  0  0  0  0
  -37.3393   57.7526   57.8699 C   0  0  0  0  0  0  0  0  0  0  0  0
  -37.8242   58.9007   58.7770 C   0  0  0  0  0  0  0  0  0  0  0  0
  -38.1033   58.5091   60.2360 C   0  0  0  0  0  0  0  0  0  0  0  0
  -39.1574   59.4282   60.8600 C   0  0  0  0  0  0  0  0  0  0  0  0
  -40.0422   60.1949   59.8932 C   0  0  0  0  0  0  0  0  0  0  0  0
  -37.7080   59.9316   66.0744 C   0  0  0  0  0  0  0  0  0  0  0  0
  -37.6604   61.3065   66.5334 O   0  0  0  0  0  0  0  0  0  0  0  0
  -35.2729   62.4970   67.5627 O   0  0  0  0  0  0  0  0  0  0  0  0
  -34.0015   62.1144   63.6085 O   0  0  0  0  0  0  0  0  0  0  0  0
  -36.9221   62.1854   64.3961 O   0  0  0  0  0  0  0  0  0  0  0  0
  -36.8419   62.3183   65.8360 C   0  0  0  0  0  0  0  0  0  0  0  0
  -35.3456   62.3311   66.1802 C   0  0  0  0  0  0  0  0  0  0  0  0
  -34.5650   63.4839   65.5116 C   0  0  0  0  0  0  0  0  0  0  0  0
  -34.7047   63.2812   64.0281 C   0  0  0  0  0  0  0  0  0  0  0  0
  -36.1740   63.1892   63.6582 C   0  0  0  0  0  0  0  0  0  0  0  0
  -35.7586   61.7806   68.0003 H   0  0  0  0  0  0  0  0  0  0  0  0
  -33.0665   62.1944   63.8543 H   0  0  0  0  0  0  0  0  0  0  0  0
  -35.0006   63.6825   61.6349 O   0  0  0  0  0  0  0  0  0  0  0  0
  -36.0913   62.9782   62.1479 C   0  0  0  0  0  0  0  0  0  0  0  0
  -34.9504   63.5470   60.6758 H   0  0  0  0  0  0  0  0  0  0  0  0
  -33.1450   63.5275   65.7792 O   0  0  0  0  0  0  0  0  0  0  0  0
  -33.0175   65.9452   64.8543 O   0  0  0  0  0  0  0  0  0  0  0  0
  -31.2401   64.3734   64.3451 O   0  0  0  0  0  0  0  0  0  0  0  0
  -31.4008   65.3586   66.5537 O   0  0  0  0  0  0  0  0  0  0  0  0
  -32.1841   64.8332   65.3997 S   0  0  0  0  0  0  0  0  0  0  0  0
  -33.5355   65.6215   64.1007 H   0  0  0  0  0  0  0  0  0  0  0  0
  -32.0090   65.6607   67.2465 H   0  0  0  0  0  0  0  0  0  0  0  0
  2  1  1  0  0  0
  2  4  1  0  0  0
  2  5  1  0  0  0
 41 42  1  0  0  0
 41  1  1  0  0  0
 42 46  1  0  0  0
  1 24  1  0  0  0
 23 24  1  0  0  0
 23 25  1  0  0  0
 24 26  1  0  0  0
  3  4  2  0  0  0
 26 27  2  0  0  0
 27 28  1  0  0  0
 43 47  1  0  0  0
 43 51  1  0  0  0
 28 29  1  0  0  0
 56 48  1  0  0  0
 56 60  1  0  0  0
 29 30  1  0  0  0
 57 60  1  0  0  0
 57 61  1  0  0  0
 30 31  1  0  0  0
 44 49  1  0  0  0
 44 52  1  0  0  0
 31 32  1  0  0  0
 45 46  1  0  0  0
 45 50  1  0  0  0
 32 33  1  0  0  0
 53 54  1  0  0  0
 53 55  1  0  0  0
 33 34  1  0  0  0
 34 35  1  0  0  0
 35 36  1  0  0  0
 58 60  1  0  0  0
 36 37  1  0  0  0
 59 60  1  0  0  0
 59 62  1  0  0  0
 37 38  1  0  0  0
 38 39  1  0  0  0
 39 40  1  0  0  0
  4  6  1  0  0  0
  6  7  1  0  0  0
  7  8  1  0  0  0
  8  9  1  0  0  0
  9 10  1  0  0  0
 10 11  1  0  0  0
 11 12  1  0  0  0
 12 13  1  0  0  0
 13 14  1  0  0  0
 14 15  1  0  0  0
 15 16  1  0  0  0
 16 17  1  0  0  0
 17 18  1  0  0  0
 18 19  1  0  0  0
 19 20  1  0  0  0
 20 21  1  0  0  0
 21 22  1  0  0  0
 46 47  1  0  0  0
 47 48  1  0  0  0
 48 49  1  0  0  0
 49 50  1  0  0  0
 50 54  1  0  0  0
M  CHG 1  58  -1
M  END
> <minimizedAffinity>
-9.91630

> <CNNscore>
0.3331606388

> <CNNaffinity>
7.2525434494

> <CNN_VS>
2.4162619114

> <CNNaffinity_variance>
1.4568533897

$$$$
/media/chris/experiments/cd1a-new-docking/inputs/ligands/1onq_ligand.pdb


 62 62  0  0  0  0  0  0  0  0999 V2000
  -40.2165   59.4270   64.8455 C   0  0  0  0  0  0  0  0  0  0  0  0
  -39.6774   58.6433   63.7517 N   0  0  0  0  0  0  0  0  0  0  0  0
  -38.3376   57.1699   64.8385 O   0  0  0  0  0  0  0  0  0  0  0  0
  -38.8170   57.6180   63.8152 C   0  0  0  0  0  0  0  0  0  0  0  0
  -39.9813   58.8957   62.8499 H   0  0  0  0  0  0  0  0  0  0  0  0
  -38.4558   57.0059   62.4944 C   0  0  0  0  0  0  0  0  0  0  0  0
  -36.9287   57.0006   62.4223 C   0  0  0  0  0  0  0  0  0  0  0  0
  -36.3880   58.3982   62.7150 C   0  0  0  0  0  0  0  0  0  0  0  0
  -35.3852   58.4996   63.8387 C   0  0  0  0  0  0  0  0  0  0  0  0
  -34.0983   59.0757   63.2573 C   0  0  0  0  0  0  0  0  0  0  0  0
  -32.8923   58.1469   63.4507 C   0  0  0  0  0  0  0  0  0  0  0  0
  -32.2492   57.6641   62.1378 C   0  0  0  0  0  0  0  0  0  0  0  0
  -33.2750   57.4851   60.9971 C   0  0  0  0  0  0  0  0  0  0  0  0
  -33.8243   56.0557   60.9842 C   0  0  0  0  0  0  0  0  0  0  0  0
  -34.6571   55.6959   59.7598 C   0  0  0  0  0  0  0  0  0  0  0  0
  -34.1881   56.4233   58.5085 C   0  0  0  0  0  0  0  0  0  0  0  0
  -35.1926   57.3909   57.8785 C   0  0  0  0  0  0  0  0  0  0  0  0
  -36.4814   57.3318   58.6873 C   0  0  0  0  0  0  0  0  0  0  0  0
  -37.5929   58.3184   58.3614 C   0  0  0  0  0  0  0  0  0  0  0  0
  -37.9119   59.2075   59.5739 C   0  0  0  0  0  0  0  0  0  0  0  0
  -39.2944   59.8838   59.5236 C   0  0  0  0  0  0  0  0  0  0  0  0
  -39.8301   60.2661   60.9014 C   0  0  0  0  0  0  0  0  0  0  0  0
  -41.4431   61.2778   64.1631 O   0  0  0  0  0  0  0  0  0  0  0  0
  -41.5621   59.8740   64.3006 C   0  0  0  0  0  0  0  0  0  0  0  0
  -40.7364   61.4819   63.5309 H   0  0  0  0  0  0  0  0  0  0  0  0
  -42.6642   59.4826   65.2880 C   0  0  0  0  0  0  0  0  0  0  0  0
  -43.8535   58.9915   64.9003 C   0  0  0  0  0  0  0  0  0  0  0  0
  -44.9029   58.6249   65.9482 C   0  0  0  0  0  0  0  0  0  0  0  0
  -46.1524   57.9478   65.3663 C   0  0  0  0  0  0  0  0  0  0  0  0
  -47.4439   58.7854   65.4057 C   0  0  0  0  0  0  0  0  0  0  0  0
  -48.6108   57.9674   66.0095 C   0  0  0  0  0  0  0  0  0  0  0  0
  -50.0057   58.2538   65.3979 C   0  0  0  0  0  0  0  0  0  0  0  0
  -49.9612   58.9493   64.0170 C   0  0  0  0  0  0  0  0  0  0  0  0
  -50.8664   58.2810   62.9595 C   0  0  0  0  0  0  0  0  0  0  0  0
  -50.3497   58.4268   61.5232 C   0  0  0  0  0  0  0  0  0  0  0  0
  -50.6998   57.2901   60.5651 C   0  0  0  0  0  0  0  0  0  0  0  0
  -49.8969   57.3109   59.2494 C   0  0  0  0  0  0  0  0  0  0  0  0
  -48.6386   56.4298   59.2362 C   0  0  0  0  0  0  0  0  0  0  0  0
  -47.5922   56.9799   58.2628 C   0  0  0  0  0  0  0  0  0  0  0  0
  -46.3181   57.5284   58.8801 C   0  0  0  0  0  0  0  0  0  0  0  0
  -39.2836   60.5282   65.3985 C   0  0  0  0  0  0  0  0  0  0  0  0
  -38.5497   61.3076   64.4201 O   0  0  0  0  0  0  0  0  0  0  0  0
  -36.5993   61.6510   62.3573 O   0  0  0  0  0  0  0  0  0  0  0  0
  -35.3665   64.8200   64.7731 O   0  0  0  0  0  0  0  0  0  0  0  0
  -36.9522   62.4691   65.8287 O   0  0  0  0  0  0  0  0  0  0  0  0
  -37.1345   61.6694   64.6351 C   0  0  0  0  0  0  0  0  0  0  0  0
  -36.4541   62.4423   63.4961 C   0  0  0  0  0  0  0  0  0  0  0  0
  -34.9470   62.6883   63.7269 C   0  0  0  0  0  0  0  0  0  0  0  0
  -34.8425   63.5107   64.9815 C   0  0  0  0  0  0  0  0  0  0  0  0
  -35.5696   62.8118   66.1160 C   0  0  0  0  0  0  0  0  0  0  0  0
  -37.5414   61.4859   62.1964 H   0  0  0  0  0  0  0  0  0  0  0  0
  -34.8883   65.2475   64.0453 H   0  0  0  0  0  0  0  0  0  0  0  0
  -36.4671   63.7853   68.1061 O   0  0  0  0  0  0  0  0  0  0  0  0
  -35.3545   63.7969   67.2631 C   0  0  0  0  0  0  0  0  0  0  0  0
  -36.3280   64.4117   68.8336 H   0  0  0  0  0  0  0  0  0  0  0  0
  -34.2613   63.4367   62.6975 O   0  0  0  0  0  0  0  0  0  0  0  0
  -32.3314   61.8780   61.9473 O   0  0  0  0  0  0  0  0  0  0  0  0
  -31.9234   63.5504   63.6577 O   0  0  0  0  0  0  0  0  0  0  0  0
  -32.1304   64.2082   61.3342 O   0  0  0  0  0  0  0  0  0  0  0  0
  -32.6350   63.2741   62.3803 S   0  0  0  0  0  0  0  0  0  0  0  0
  -32.6531   61.2546   62.6172 H   0  0  0  0  0  0  0  0  0  0  0  0
  -32.5894   64.0349   60.4974 H   0  0  0  0  0  0  0  0  0  0  0  0
  2  1  1  0  0  0
  2  4  1  0  0  0
  2  5  1  0  0  0
 41 42  1  0  0  0
 41  1  1  0  0  0
 42 46  1  0  0  0
  1 24  1  0  0  0
 23 24  1  0  0  0
 23 25  1  0  0  0
 24 26  1  0  0  0
  3  4  2  0  0  0
 26 27  2  0  0  0
 27 28  1  0  0  0
 43 47  1  0  0  0
 43 51  1  0  0  0
 28 29  1  0  0  0
 56 48  1  0  0  0
 56 60  1  0  0  0
 29 30  1  0  0  0
 57 60  1  0  0  0
 57 61  1  0  0  0
 30 31  1  0  0  0
 44 49  1  0  0  0
 44 52  1  0  0  0
 31 32  1  0  0  0
 45 46  1  0  0  0
 45 50  1  0  0  0
 32 33  1  0  0  0
 53 54  1  0  0  0
 53 55  1  0  0  0
 33 34  1  0  0  0
 34 35  1  0  0  0
 35 36  1  0  0  0
 58 60  1  0  0  0
 36 37  1  0  0  0
 59 60  1  0  0  0
 59 62  1  0  0  0
 37 38  1  0  0  0
 38 39  1  0  0  0
 39 40  1  0  0  0
  4  6  1  0  0  0
  6  7  1  0  0  0
  7  8  1  0  0  0
  8  9  1  0  0  0
  9 10  1  0  0  0
 10 11  1  0  0  0
 11 12  1  0  0  0
 12 13  1  0  0  0
 13 14  1  0  0  0
 14 15  1  0  0  0
 15 16  1  0  0  0
 16 17  1  0  0  0
 17 18  1  0  0  0
 18 19  1  0  0  0
 19 20  1  0  0  0
 20 21  1  0  0  0
 21 22  1  0  0  0
 46 47  1  0  0  0
 47 48  1  0  0  0
 48 49  1  0  0  0
 49 50  1  0  0  0
 50 54  1  0  0  0
M  CHG 1  58  -1
M  END
> <minimizedAffinity>
-9.58561

> <CNNscore>
0.3307609558

> <CNNaffinity>
7.4004640579

> <CNN_VS>
2.4477846622

> <CNNaffinity_variance>
0.9247742891

$$$$
/media/chris/experiments/cd1a-new-docking/inputs/ligands/1onq_ligand.pdb


 62 62  0  0  0  0  0  0  0  0999 V2000
  -39.8105   59.0392   64.6787 C   0  0  0  0  0  0  0  0  0  0  0  0
  -39.8840   59.2373   63.2447 N   0  0  0  0  0  0  0  0  0  0  0  0
  -40.9865   61.2145   63.0944 O   0  0  0  0  0  0  0  0  0  0  0  0
  -40.4386   60.2595   62.5790 C   0  0  0  0  0  0  0  0  0  0  0  0
  -39.4755   58.5333   62.6908 H   0  0  0  0  0  0  0  0  0  0  0  0
  -40.3422   60.1746   61.0846 C   0  0  0  0  0  0  0  0  0  0  0  0
  -38.8613   59.9839   60.7560 C   0  0  0  0  0  0  0  0  0  0  0  0
  -38.7109   59.3534   59.3737 C   0  0  0  0  0  0  0  0  0  0  0  0
  -37.3178   58.9143   58.9928 C   0  0  0  0  0  0  0  0  0  0  0  0
  -37.4518   57.8126   57.9467 C   0  0  0  0  0  0  0  0  0  0  0  0
  -36.4387   56.6776   58.1477 C   0  0  0  0  0  0  0  0  0  0  0  0
  -34.9677   57.1314   58.1222 C   0  0  0  0  0  0  0  0  0  0  0  0
  -34.0254   56.1555   58.8607 C   0  0  0  0  0  0  0  0  0  0  0  0
  -34.4446   56.0049   60.3259 C   0  0  0  0  0  0  0  0  0  0  0  0
  -33.3317   56.2323   61.3417 C   0  0  0  0  0  0  0  0  0  0  0  0
  -33.0029   57.7075   61.5173 C   0  0  0  0  0  0  0  0  0  0  0  0
  -32.9016   58.2053   62.9609 C   0  0  0  0  0  0  0  0  0  0  0  0
  -34.2638   58.7457   63.3743 C   0  0  0  0  0  0  0  0  0  0  0  0
  -35.0151   58.0472   64.4980 C   0  0  0  0  0  0  0  0  0  0  0  0
  -36.2162   57.2601   63.9502 C   0  0  0  0  0  0  0  0  0  0  0  0
  -36.7340   57.7526   62.5862 C   0  0  0  0  0  0  0  0  0  0  0  0
  -37.6916   56.7717   61.9137 C   0  0  0  0  0  0  0  0  0  0  0  0
  -40.8986   60.5076   66.1125 O   0  0  0  0  0  0  0  0  0  0  0  0
  -41.1765   59.5093   65.1482 C   0  0  0  0  0  0  0  0  0  0  0  0
  -40.4147   61.2362   65.6933 H   0  0  0  0  0  0  0  0  0  0  0  0
  -41.9415   58.3264   65.7466 C   0  0  0  0  0  0  0  0  0  0  0  0
  -43.2825   58.2390   65.7313 C   0  0  0  0  0  0  0  0  0  0  0  0
  -43.9725   57.0251   66.3510 C   0  0  0  0  0  0  0  0  0  0  0  0
  -45.4981   57.1641   66.4571 C   0  0  0  0  0  0  0  0  0  0  0  0
  -46.2096   57.6826   65.1937 C   0  0  0  0  0  0  0  0  0  0  0  0
  -46.6532   59.1539   65.3778 C   0  0  0  0  0  0  0  0  0  0  0  0
  -48.1606   59.3586   65.6731 C   0  0  0  0  0  0  0  0  0  0  0  0
  -48.9791   58.0473   65.7284 C   0  0  0  0  0  0  0  0  0  0  0  0
  -50.4818   58.2442   65.4326 C   0  0  0  0  0  0  0  0  0  0  0  0
  -50.7953   59.5287   64.6561 C   0  0  0  0  0  0  0  0  0  0  0  0
  -51.1777   59.3496   63.1884 C   0  0  0  0  0  0  0  0  0  0  0  0
  -49.9706   59.2333   62.2368 C   0  0  0  0  0  0  0  0  0  0  0  0
  -49.5540   57.7983   61.8801 C   0  0  0  0  0  0  0  0  0  0  0  0
  -50.4904   57.1996   60.8267 C   0  0  0  0  0  0  0  0  0  0  0  0
  -50.1678   57.5178   59.3775 C   0  0  0  0  0  0  0  0  0  0  0  0
  -38.5783   59.6610   65.3743 C   0  0  0  0  0  0  0  0  0  0  0  0
  -38.2998   61.0529   65.0771 O   0  0  0  0  0  0  0  0  0  0  0  0
  -36.5631   61.4194   62.8352 O   0  0  0  0  0  0  0  0  0  0  0  0
  -35.5395   64.9169   64.8646 O   0  0  0  0  0  0  0  0  0  0  0  0
  -36.7514   62.5116   66.2434 O   0  0  0  0  0  0  0  0  0  0  0  0
  -36.9256   61.5892   65.1406 C   0  0  0  0  0  0  0  0  0  0  0  0
  -36.4286   62.3243   63.8875 C   0  0  0  0  0  0  0  0  0  0  0  0
  -34.9485   62.7576   63.9685 C   0  0  0  0  0  0  0  0  0  0  0  0
  -34.8496   63.6995   65.1366 C   0  0  0  0  0  0  0  0  0  0  0  0
  -35.4019   63.0321   66.3830 C   0  0  0  0  0  0  0  0  0  0  0  0
  -37.4882   61.1357   62.7690 H   0  0  0  0  0  0  0  0  0  0  0  0
  -35.1711   65.3258   64.0658 H   0  0  0  0  0  0  0  0  0  0  0  0
  -33.9666   64.7294   67.2622 O   0  0  0  0  0  0  0  0  0  0  0  0
  -35.2207   64.1372   67.4214 C   0  0  0  0  0  0  0  0  0  0  0  0
  -33.8541   65.4308   67.9227 H   0  0  0  0  0  0  0  0  0  0  0  0
  -34.4352   63.4792   62.8258 O   0  0  0  0  0  0  0  0  0  0  0  0
  -32.4111   63.6472   61.2159 O   0  0  0  0  0  0  0  0  0  0  0  0
  -32.0619   62.9280   63.5071 O   0  0  0  0  0  0  0  0  0  0  0  0
  -32.4906   65.2619   63.0138 O   0  0  0  0  0  0  0  0  0  0  0  0
  -32.8258   63.8601   62.6341 S   0  0  0  0  0  0  0  0  0  0  0  0
  -32.6218   62.7383   60.9504 H   0  0  0  0  0  0  0  0  0  0  0  0
  -32.9848   65.8767   62.4492 H   0  0  0  0  0  0  0  0  0  0  0  0
  2  1  1  0  0  0
  2  4  1  0  0  0
  2  5  1  0  0  0
 41 42  1  0  0  0
 41  1  1  0  0  0
 42 46  1  0  0  0
  1 24  1  0  0  0
 23 24  1  0  0  0
 23 25  1  0  0  0
 24 26  1  0  0  0
  3  4  2  0  0  0
 26 27  2  0  0  0
 27 28  1  0  0  0
 43 47  1  0  0  0
 43 51  1  0  0  0
 28 29  1  0  0  0
 56 48  1  0  0  0
 56 60  1  0  0  0
 29 30  1  0  0  0
 57 60  1  0  0  0
 57 61  1  0  0  0
 30 31  1  0  0  0
 44 49  1  0  0  0
 44 52  1  0  0  0
 31 32  1  0  0  0
 45 46  1  0  0  0
 45 50  1  0  0  0
 32 33  1  0  0  0
 53 54  1  0  0  0
 53 55  1  0  0  0
 33 34  1  0  0  0
 34 35  1  0  0  0
 35 36  1  0  0  0
 58 60  1  0  0  0
 36 37  1  0  0  0
 59 60  1  0  0  0
 59 62  1  0  0  0
 37 38  1  0  0  0
 38 39  1  0  0  0
 39 40  1  0  0  0
  4  6  1  0  0  0
  6  7  1  0  0  0
  7  8  1  0  0  0
  8  9  1  0  0  0
  9 10  1  0  0  0
 10 11  1  0  0  0
 11 12  1  0  0  0
 12 13  1  0  0  0
 13 14  1  0  0  0
 14 15  1  0  0  0
 15 16  1  0  0  0
 16 17  1  0  0  0
 17 18  1  0  0  0
 18 19  1  0  0  0
 19 20  1  0  0  0
 20 21  1  0  0  0
 21 22  1  0  0  0
 46 47  1  0  0  0
 47 48  1  0  0  0
 48 49  1  0  0  0
 49 50  1  0  0  0
 50 54  1  0  0  0
M  CHG 1  58  -1
M  END
> <minimizedAffinity>
-9.72928

> <CNNscore>
0.2641046047

> <CNNaffinity>
7.2383079529

> <CNN_VS>
1.9116704464

> <CNNaffinity_variance>
1.4284418821

$$$$
/media/chris/experiments/cd1a-new-docking/inputs/ligands/1onq_ligand.pdb


 62 62  0  0  0  0  0  0  0  0999 V2000
  -40.2220   59.1995   65.1151 C   0  0  0  0  0  0  0  0  0  0  0  0
  -39.7264   58.4068   64.0073 N   0  0  0  0  0  0  0  0  0  0  0  0
  -37.8032   57.5541   64.8566 O   0  0  0  0  0  0  0  0  0  0  0  0
  -38.6066   57.6728   63.9521 C   0  0  0  0  0  0  0  0  0  0  0  0
  -40.2817   58.4076   63.1943 H   0  0  0  0  0  0  0  0  0  0  0  0
  -38.3773   56.9560   62.6547 C   0  0  0  0  0  0  0  0  0  0  0  0
  -36.9593   57.3118   62.2077 C   0  0  0  0  0  0  0  0  0  0  0  0
  -37.0118   58.2648   61.0159 C   0  0  0  0  0  0  0  0  0  0  0  0
  -38.3858   58.7304   60.5989 C   0  0  0  0  0  0  0  0  0  0  0  0
  -38.2890   59.2183   59.1572 C   0  0  0  0  0  0  0  0  0  0  0  0
  -37.0499   58.6788   58.4304 C   0  0  0  0  0  0  0  0  0  0  0  0
  -37.3108   57.4169   57.5876 C   0  0  0  0  0  0  0  0  0  0  0  0
  -36.2058   56.3496   57.7467 C   0  0  0  0  0  0  0  0  0  0  0  0
  -36.5210   55.4168   58.9196 C   0  0  0  0  0  0  0  0  0  0  0  0
  -35.3126   54.9796   59.7387 C   0  0  0  0  0  0  0  0  0  0  0  0
  -34.0674   55.7889   59.4077 C   0  0  0  0  0  0  0  0  0  0  0  0
  -33.8034   57.0075   60.2950 C   0  0  0  0  0  0  0  0  0  0  0  0
  -33.0678   56.5370   61.5425 C   0  0  0  0  0  0  0  0  0  0  0  0
  -32.6400   57.5732   62.5713 C   0  0  0  0  0  0  0  0  0  0  0  0
  -33.5187   58.8311   62.4830 C   0  0  0  0  0  0  0  0  0  0  0  0
  -34.2354   59.2026   63.7943 C   0  0  0  0  0  0  0  0  0  0  0  0
  -34.3491   58.0354   64.7721 C   0  0  0  0  0  0  0  0  0  0  0  0
  -41.4217   61.0797   64.4660 O   0  0  0  0  0  0  0  0  0  0  0  0
  -41.5693   59.6785   64.6026 C   0  0  0  0  0  0  0  0  0  0  0  0
  -40.7253   61.2697   63.8182 H   0  0  0  0  0  0  0  0  0  0  0  0
  -42.6569   59.3091   65.6142 C   0  0  0  0  0  0  0  0  0  0  0  0
  -43.9154   59.0020   65.2562 C   0  0  0  0  0  0  0  0  0  0  0  0
  -44.9446   58.6445   66.3270 C   0  0  0  0  0  0  0  0  0  0  0  0
  -45.3464   57.1623   66.3327 C   0  0  0  0  0  0  0  0  0  0  0  0
  -46.6585   56.8303   67.0672 C   0  0  0  0  0  0  0  0  0  0  0  0
  -47.7728   56.4579   66.0597 C   0  0  0  0  0  0  0  0  0  0  0  0
  -48.1818   57.5856   65.0785 C   0  0  0  0  0  0  0  0  0  0  0  0
  -49.4507   58.3630   65.5005 C   0  0  0  0  0  0  0  0  0  0  0  0
  -50.0620   59.2109   64.3639 C   0  0  0  0  0  0  0  0  0  0  0  0
  -50.8939   58.3973   63.3653 C   0  0  0  0  0  0  0  0  0  0  0  0
  -50.5340   58.5728   61.8915 C   0  0  0  0  0  0  0  0  0  0  0  0
  -50.9897   57.4063   60.9928 C   0  0  0  0  0  0  0  0  0  0  0  0
  -49.8802   56.7535   60.1545 C   0  0  0  0  0  0  0  0  0  0  0  0
  -48.5964   57.5874   60.1965 C   0  0  0  0  0  0  0  0  0  0  0  0
  -47.6970   57.5040   58.9761 C   0  0  0  0  0  0  0  0  0  0  0  0
  -39.2516   60.2777   65.6487 C   0  0  0  0  0  0  0  0  0  0  0  0
  -38.6125   61.1221   64.6578 O   0  0  0  0  0  0  0  0  0  0  0  0
  -36.8138   61.4678   62.4619 O   0  0  0  0  0  0  0  0  0  0  0  0
  -35.4312   64.6521   64.7744 O   0  0  0  0  0  0  0  0  0  0  0  0
  -36.9262   62.2970   65.9468 O   0  0  0  0  0  0  0  0  0  0  0  0
  -37.1876   61.4919   64.7716 C   0  0  0  0  0  0  0  0  0  0  0  0
  -36.5931   62.2641   63.5850 C   0  0  0  0  0  0  0  0  0  0  0  0
  -35.0748   62.5186   63.7085 C   0  0  0  0  0  0  0  0  0  0  0  0
  -34.8869   63.3463   64.9498 C   0  0  0  0  0  0  0  0  0  0  0  0
  -35.5286   62.6479   66.1350 C   0  0  0  0  0  0  0  0  0  0  0  0
  -37.7640   61.2973   62.3682 H   0  0  0  0  0  0  0  0  0  0  0  0
  -35.0077   65.0793   64.0135 H   0  0  0  0  0  0  0  0  0  0  0  0
  -36.4342   64.0085   67.8793 O   0  0  0  0  0  0  0  0  0  0  0  0
  -35.2387   63.6383   67.2608 C   0  0  0  0  0  0  0  0  0  0  0  0
  -36.2474   64.6374   68.5938 H   0  0  0  0  0  0  0  0  0  0  0  0
  -34.4673   63.2667   62.6309 O   0  0  0  0  0  0  0  0  0  0  0  0
  -32.0677   62.3842   63.0557 O   0  0  0  0  0  0  0  0  0  0  0  0
  -32.5530   64.7390   63.3851 O   0  0  0  0  0  0  0  0  0  0  0  0
  -32.3555   63.8368   61.1443 O   0  0  0  0  0  0  0  0  0  0  0  0
  -32.8306   63.5542   62.5284 S   0  0  0  0  0  0  0  0  0  0  0  0
  -32.3638   62.1851   63.9577 H   0  0  0  0  0  0  0  0  0  0  0  0
  -32.5327   63.0689   60.5786 H   0  0  0  0  0  0  0  0  0  0  0  0
  2  1  1  0  0  0
  2  4  1  0  0  0
  2  5  1  0  0  0
 41 42  1  0  0  0
 41  1  1  0  0  0
 42 46  1  0  0  0
  1 24  1  0  0  0
 23 24  1  0  0  0
 23 25  1  0  0  0
 24 26  1  0  0  0
  3  4  2  0  0  0
 26 27  2  0  0  0
 27 28  1  0  0  0
 43 47  1  0  0  0
 43 51  1  0  0  0
 28 29  1  0  0  0
 56 48  1  0  0  0
 56 60  1  0  0  0
 29 30  1  0  0  0
 57 60  1  0  0  0
 57 61  1  0  0  0
 30 31  1  0  0  0
 44 49  1  0  0  0
 44 52  1  0  0  0
 31 32  1  0  0  0
 45 46  1  0  0  0
 45 50  1  0  0  0
 32 33  1  0  0  0
 53 54  1  0  0  0
 53 55  1  0  0  0
 33 34  1  0  0  0
 34 35  1  0  0  0
 35 36  1  0  0  0
 58 60  1  0  0  0
 36 37  1  0  0  0
 59 60  1  0  0  0
 59 62  1  0  0  0
 37 38  1  0  0  0
 38 39  1  0  0  0
 39 40  1  0  0  0
  4  6  1  0  0  0
  6  7  1  0  0  0
  7  8  1  0  0  0
  8  9  1  0  0  0
  9 10  1  0  0  0
 10 11  1  0  0  0
 11 12  1  0  0  0
 12 13  1  0  0  0
 13 14  1  0  0  0
 14 15  1  0  0  0
 15 16  1  0  0  0
 16 17  1  0  0  0
 17 18  1  0  0  0
 18 19  1  0  0  0
 19 20  1  0  0  0
 20 21  1  0  0  0
 21 22  1  0  0  0
 46 47  1  0  0  0
 47 48  1  0  0  0
 48 49  1  0  0  0
 49 50  1  0  0  0
 50 54  1  0  0  0
M  CHG 1  58  -1
M  END
> <minimizedAffinity>
-9.75787

> <CNNscore>
0.2549088001

> <CNNaffinity>
7.1704154015

> <CNN_VS>
1.8278019428

> <CNNaffinity_variance>
1.2249031067

$$$$
/media/chris/experiments/cd1a-new-docking/inputs/ligands/1onq_ligand.pdb


 62 62  0  0  0  0  0  0  0  0999 V2000
  -37.9783   59.5473   60.0765 C   0  0  0  0  0  0  0  0  0  0  0  0
  -39.0394   59.5797   59.0896 N   0  0  0  0  0  0  0  0  0  0  0  0
  -40.8411   60.1434   60.3480 O   0  0  0  0  0  0  0  0  0  0  0  0
  -40.3358   59.8612   59.2790 C   0  0  0  0  0  0  0  0  0  0  0  0
  -38.7748   59.3686   58.1651 H   0  0  0  0  0  0  0  0  0  0  0  0
  -41.1847   59.8187   58.0432 C   0  0  0  0  0  0  0  0  0  0  0  0
  -42.4637   59.0716   58.4215 C   0  0  0  0  0  0  0  0  0  0  0  0
  -43.2377   58.6914   57.1615 C   0  0  0  0  0  0  0  0  0  0  0  0
  -44.6846   58.3106   57.3612 C   0  0  0  0  0  0  0  0  0  0  0  0
  -44.8590   57.9136   58.8233 C   0  0  0  0  0  0  0  0  0  0  0  0
  -46.2939   57.4809   59.1533 C   0  0  0  0  0  0  0  0  0  0  0  0
  -47.1674   57.1941   57.9183 C   0  0  0  0  0  0  0  0  0  0  0  0
  -48.6044   56.7637   58.2861 C   0  0  0  0  0  0  0  0  0  0  0  0
  -48.9956   57.3086   59.6628 C   0  0  0  0  0  0  0  0  0  0  0  0
  -50.4879   57.5422   59.8638 C   0  0  0  0  0  0  0  0  0  0  0  0
  -50.9021   57.4086   61.3217 C   0  0  0  0  0  0  0  0  0  0  0  0
  -50.9109   58.7030   62.1382 C   0  0  0  0  0  0  0  0  0  0  0  0
  -50.4939   58.3687   63.5641 C   0  0  0  0  0  0  0  0  0  0  0  0
  -50.3290   59.5059   64.5614 C   0  0  0  0  0  0  0  0  0  0  0  0
  -48.9054   60.0826   64.5073 C   0  0  0  0  0  0  0  0  0  0  0  0
  -47.7863   59.0365   64.6643 C   0  0  0  0  0  0  0  0  0  0  0  0
  -46.5733   59.5601   65.4300 C   0  0  0  0  0  0  0  0  0  0  0  0
  -38.7363   57.9415   61.5741 O   0  0  0  0  0  0  0  0  0  0  0  0
  -37.9052   58.0732   60.4358 C   0  0  0  0  0  0  0  0  0  0  0  0
  -39.6447   58.1894   61.3415 H   0  0  0  0  0  0  0  0  0  0  0  0
  -36.4525   57.6959   60.7356 C   0  0  0  0  0  0  0  0  0  0  0  0
  -35.9899   56.4373   60.6460 C   0  0  0  0  0  0  0  0  0  0  0  0
  -34.5252   56.1413   60.9631 C   0  0  0  0  0  0  0  0  0  0  0  0
  -33.5478   57.1999   60.4315 C   0  0  0  0  0  0  0  0  0  0  0  0
  -32.7598   57.9769   61.5023 C   0  0  0  0  0  0  0  0  0  0  0  0
  -33.3879   57.7734   62.9021 C   0  0  0  0  0  0  0  0  0  0  0  0
  -34.2336   58.9611   63.4271 C   0  0  0  0  0  0  0  0  0  0  0  0
  -35.2744   58.5709   64.5027 C   0  0  0  0  0  0  0  0  0  0  0  0
  -35.9769   57.2246   64.2228 C   0  0  0  0  0  0  0  0  0  0  0  0
  -37.3304   57.0758   64.9279 C   0  0  0  0  0  0  0  0  0  0  0  0
  -38.1712   58.3456   65.0420 C   0  0  0  0  0  0  0  0  0  0  0  0
  -39.6843   58.1124   64.8627 C   0  0  0  0  0  0  0  0  0  0  0  0
  -40.4886   59.3440   64.4195 C   0  0  0  0  0  0  0  0  0  0  0  0
  -41.8477   59.3957   65.1233 C   0  0  0  0  0  0  0  0  0  0  0  0
  -42.1430   58.2751   66.1043 C   0  0  0  0  0  0  0  0  0  0  0  0
  -38.1261   60.5471   61.2460 C   0  0  0  0  0  0  0  0  0  0  0  0
  -37.0028   60.6489   62.1576 O   0  0  0  0  0  0  0  0  0  0  0  0
  -37.7918   61.8903   64.6098 O   0  0  0  0  0  0  0  0  0  0  0  0
  -33.7682   62.9820   64.7439 O   0  0  0  0  0  0  0  0  0  0  0  0
  -35.1908   62.2620   62.1723 O   0  0  0  0  0  0  0  0  0  0  0  0
  -36.5269   61.9598   62.6424 C   0  0  0  0  0  0  0  0  0  0  0  0
  -36.4947   62.1455   64.1663 C   0  0  0  0  0  0  0  0  0  0  0  0
  -36.1024   63.5721   64.6094 C   0  0  0  0  0  0  0  0  0  0  0  0
  -34.7165   63.8114   64.0770 C   0  0  0  0  0  0  0  0  0  0  0  0
  -34.6917   63.5646   62.5794 C   0  0  0  0  0  0  0  0  0  0  0  0
  -38.0557   60.9968   64.3401 H   0  0  0  0  0  0  0  0  0  0  0  0
  -33.8009   63.1558   65.6977 H   0  0  0  0  0  0  0  0  0  0  0  0
  -32.7983   64.9753   62.9524 O   0  0  0  0  0  0  0  0  0  0  0  0
  -33.2266   63.8459   62.2525 C   0  0  0  0  0  0  0  0  0  0  0  0
  -31.8678   65.1518   62.7431 H   0  0  0  0  0  0  0  0  0  0  0  0
  -36.0292   63.7958   66.0357 O   0  0  0  0  0  0  0  0  0  0  0  0
  -34.1296   62.9772   67.5974 O   0  0  0  0  0  0  0  0  0  0  0  0
  -35.4532   61.3550   66.3704 O   0  0  0  0  0  0  0  0  0  0  0  0
  -36.3886   62.4809   68.3021 O   0  0  0  0  0  0  0  0  0  0  0  0
  -35.5022   62.6426   67.1149 S   0  0  0  0  0  0  0  0  0  0  0  0
  -33.5373   63.0864   66.8370 H   0  0  0  0  0  0  0  0  0  0  0  0
  -36.4263   63.3163   68.7936 H   0  0  0  0  0  0  0  0  0  0  0  0
  2  1  1  0  0  0
  2  4  1  0  0  0
  2  5  1  0  0  0
 41 42  1  0  0  0
 41  1  1  0  0  0
 42 46  1  0  0  0
  1 24  1  0  0  0
 23 24  1  0  0  0
 23 25  1  0  0  0
 24 26  1  0  0  0
  3  4  2  0  0  0
 26 27  2  0  0  0
 27 28  1  0  0  0
 43 47  1  0  0  0
 43 51  1  0  0  0
 28 29  1  0  0  0
 56 48  1  0  0  0
 56 60  1  0  0  0
 29 30  1  0  0  0
 57 60  1  0  0  0
 57 61  1  0  0  0
 30 31  1  0  0  0
 44 49  1  0  0  0
 44 52  1  0  0  0
 31 32  1  0  0  0
 45 46  1  0  0  0
 45 50  1  0  0  0
 32 33  1  0  0  0
 53 54  1  0  0  0
 53 55  1  0  0  0
 33 34  1  0  0  0
 34 35  1  0  0  0
 35 36  1  0  0  0
 58 60  1  0  0  0
 36 37  1  0  0  0
 59 60  1  0  0  0
 59 62  1  0  0  0
 37 38  1  0  0  0
 38 39  1  0  0  0
 39 40  1  0  0  0
  4  6  1  0  0  0
  6  7  1  0  0  0
  7  8  1  0  0  0
  8  9  1  0  0  0
  9 10  1  0  0  0
 10 11  1  0  0  0
 11 12  1  0  0  0
 12 13  1  0  0  0
 13 14  1  0  0  0
 14 15  1  0  0  0
 15 16  1  0  0  0
 16 17  1  0  0  0
 17 18  1  0  0  0
 18 19  1  0  0  0
 19 20  1  0  0  0
 20 21  1  0  0  0
 21 22  1  0  0  0
 46 47  1  0  0  0
 47 48  1  0  0  0
 48 49  1  0  0  0
 49 50  1  0  0  0
 50 54  1  0  0  0
M  CHG 1  58  -1
M  END
> <minimizedAffinity>
-8.55494

> <CNNscore>
0.2184110731

> <CNNaffinity>
6.6241235733

> <CNN_VS>
1.4467819929

> <CNNaffinity_variance>
1.3386768103

$$$$
