/media/chris/experiments/cd1a-new-docking/inputs/ligands/1onq_ligand.pdb


 62 62  0  0  0  0  0  0  0  0999 V2000
  -39.1773   60.7003   61.8936 C   0  0  0  0  0  0  0  0  0  0  0  0
  -40.3112   60.0794   62.5492 N   0  0  0  0  0  0  0  0  0  0  0  0
  -40.2948   61.0876   64.5817 O   0  0  0  0  0  0  0  0  0  0  0  0
  -40.7732   60.3015   63.7873 C   0  0  0  0  0  0  0  0  0  0  0  0
  -40.8030   59.4115   62.0190 H   0  0  0  0  0  0  0  0  0  0  0  0
  -41.9807   59.4987   64.1708 C   0  0  0  0  0  0  0  0  0  0  0  0
  -41.9632   59.3913   65.6958 C   0  0  0  0  0  0  0  0  0  0  0  0
  -42.8077   58.2012   66.1445 C   0  0  0  0  0  0  0  0  0  0  0  0
  -44.2856   58.4609   66.3090 C   0  0  0  0  0  0  0  0  0  0  0  0
  -45.0242   57.5591   65.3256 C   0  0  0  0  0  0  0  0  0  0  0  0
  -46.2815   58.2199   64.7444 C   0  0  0  0  0  0  0  0  0  0  0  0
  -46.7491   59.4713   65.5099 C   0  0  0  0  0  0  0  0  0  0  0  0
  -48.0666   59.2446   66.2832 C   0  0  0  0  0  0  0  0  0  0  0  0
  -48.9145   58.1671   65.6012 C   0  0  0  0  0  0  0  0  0  0  0  0
  -50.3713   58.5466   65.3647 C   0  0  0  0  0  0  0  0  0  0  0  0
  -50.6223   59.0120   63.9379 C   0  0  0  0  0  0  0  0  0  0  0  0
  -50.0094   58.1487   62.8329 C   0  0  0  0  0  0  0  0  0  0  0  0
  -51.1156   57.7674   61.8583 C   0  0  0  0  0  0  0  0  0  0  0  0
  -50.7331   57.3673   60.4411 C   0  0  0  0  0  0  0  0  0  0  0  0
  -49.2663   56.9132   60.3749 C   0  0  0  0  0  0  0  0  0  0  0  0
  -48.5385   57.2926   59.0720 C   0  0  0  0  0  0  0  0  0  0  0  0
  -47.0172   57.2743   59.2027 C   0  0  0  0  0  0  0  0  0  0  0  0
  -40.4342   60.0034   60.0687 O   0  0  0  0  0  0  0  0  0  0  0  0
  -39.1116   59.9563   60.5708 C   0  0  0  0  0  0  0  0  0  0  0  0
  -40.6931   60.9272   59.9259 H   0  0  0  0  0  0  0  0  0  0  0  0
  -38.6398   58.5217   60.8191 C   0  0  0  0  0  0  0  0  0  0  0  0
  -37.5702   57.9866   60.2060 C   0  0  0  0  0  0  0  0  0  0  0  0
  -37.1633   56.5453   60.5070 C   0  0  0  0  0  0  0  0  0  0  0  0
  -36.4998   55.8265   59.3232 C   0  0  0  0  0  0  0  0  0  0  0  0
  -35.7581   56.7332   58.3238 C   0  0  0  0  0  0  0  0  0  0  0  0
  -34.2666   56.8743   58.7124 C   0  0  0  0  0  0  0  0  0  0  0  0
  -33.6876   55.7060   59.5498 C   0  0  0  0  0  0  0  0  0  0  0  0
  -33.3832   56.0718   61.0217 C   0  0  0  0  0  0  0  0  0  0  0  0
  -33.6176   57.5625   61.3487 C   0  0  0  0  0  0  0  0  0  0  0  0
  -33.0544   57.9926   62.7084 C   0  0  0  0  0  0  0  0  0  0  0  0
  -34.0622   58.5688   63.7008 C   0  0  0  0  0  0  0  0  0  0  0  0
  -35.5335   58.3226   63.3126 C   0  0  0  0  0  0  0  0  0  0  0  0
  -36.2486   57.2271   64.1179 C   0  0  0  0  0  0  0  0  0  0  0  0
  -37.4775   57.7882   64.8390 C   0  0  0  0  0  0  0  0  0  0  0  0
  -38.8304   57.3291   64.3246 C   0  0  0  0  0  0  0  0  0  0  0  0
  -37.8777   60.7623   62.7279 C   0  0  0  0  0  0  0  0  0  0  0  0
  -36.9052   61.7656   62.3395 O   0  0  0  0  0  0  0  0  0  0  0  0
  -34.6859   63.4052   61.5890 O   0  0  0  0  0  0  0  0  0  0  0  0
  -35.0484   64.7816   65.5098 O   0  0  0  0  0  0  0  0  0  0  0  0
  -36.1073   62.0948   64.6067 O   0  0  0  0  0  0  0  0  0  0  0  0
  -35.7516   62.0881   63.2028 C   0  0  0  0  0  0  0  0  0  0  0  0
  -35.0598   63.4319   62.9319 C   0  0  0  0  0  0  0  0  0  0  0  0
  -33.7920   63.6599   63.7841 C   0  0  0  0  0  0  0  0  0  0  0  0
  -34.2414   63.6431   65.2190 C   0  0  0  0  0  0  0  0  0  0  0  0
  -34.9965   62.3578   65.5059 C   0  0  0  0  0  0  0  0  0  0  0  0
  -35.4710   63.2626   61.0375 H   0  0  0  0  0  0  0  0  0  0  0  0
  -34.5473   65.5901   65.3197 H   0  0  0  0  0  0  0  0  0  0  0  0
  -34.2230   62.8941   67.7031 O   0  0  0  0  0  0  0  0  0  0  0  0
  -35.3631   62.5462   66.9764 C   0  0  0  0  0  0  0  0  0  0  0  0
  -34.4584   63.0132   68.6365 H   0  0  0  0  0  0  0  0  0  0  0  0
  -33.1156   64.9226   63.5895 O   0  0  0  0  0  0  0  0  0  0  0  0
  -31.8491   64.4346   61.3817 O   0  0  0  0  0  0  0  0  0  0  0  0
  -30.6508   64.3606   63.4906 O   0  0  0  0  0  0  0  0  0  0  0  0
  -31.2754   66.4906   62.5173 O   0  0  0  0  0  0  0  0  0  0  0  0
  -31.7036   65.0776   62.7211 S   0  0  0  0  0  0  0  0  0  0  0  0
  -32.1278   63.5124   61.4942 H   0  0  0  0  0  0  0  0  0  0  0  0
  -31.9565   66.9658   62.0161 H   0  0  0  0  0  0  0  0  0  0  0  0
  2  1  1  0  0  0
  2  4  1  0  0  0
  2  5  1  0  0  0
 41 42  1  0  0  0
 41  1  1  0  0  0
 42 46  1  0  0  0
  1 24  1  0  0  0
 23 24  1  0  0  0
 23 25  1  0  0  0
 24 26  1  0  0  0
  3  4  2  0  0  0
 26 27  2  0  0  0
 27 28  1  0  0  0
 43 47  1  0  0  0
 43 51  1  0  0  0
 28 29  1  0  0  0
 56 48  1  0  0  0
 56 60  1  0  0  0
 29 30  1  0  0  0
 57 60  1  0  0  0
 57 61  1  0  0  0
 30 31  1  0  0  0
 44 49  1  0  0  0
 44 52  1  0  0  0
 31 32  1  0  0  0
 45 46  1  0  0  0
 45 50  1  0  0  0
 32 33  1  0  0  0
 53 54  1  0  0  0
 53 55  1  0  0  0
 33 34  1  0  0  0
 34 35  1  0  0  0
 35 36  1  0  0  0
 58 60  1  0  0  0
 36 37  1  0  0  0
 59 60  1  0  0  0
 59 62  1  0  0  0
 37 38  1  0  0  0
 38 39  1  0  0  0
 39 40  1  0  0  0
  4  6  1  0  0  0
  6  7  1  0  0  0
  7  8  1  0  0  0
  8  9  1  0  0  0
  9 10  1  0  0  0
 10 11  1  0  0  0
 11 12  1  0  0  0
 12 13  1  0  0  0
 13 14  1  0  0  0
 14 15  1  0  0  0
 15 16  1  0  0  0
 16 17  1  0  0  0
 17 18  1  0  0  0
 18 19  1  0  0  0
 19 20  1  0  0  0
 20 21  1  0  0  0
 21 22  1  0  0  0
 46 47  1  0  0  0
 47 48  1  0  0  0
 48 49  1  0  0  0
 49 50  1  0  0  0
 50 54  1  0  0  0
M  CHG 1  58  -1
M  END
> <minimizedAffinity>
-9.85036

> <CNNscore>
0.4391923845

> <CNNaffinity>
7.2642655373

> <CNN_VS>
3.1904101372

> <CNNaffinity_variance>
0.9643014669

$$$$
/media/chris/experiments/cd1a-new-docking/inputs/ligands/1onq_ligand.pdb


 62 62  0  0  0  0  0  0  0  0999 V2000
  -38.1887   60.6253   63.2142 C   0  0  0  0  0  0  0  0  0  0  0  0
  -39.3125   60.2328   64.0413 N   0  0  0  0  0  0  0  0  0  0  0  0
  -38.6077   60.8288   66.1139 O   0  0  0  0  0  0  0  0  0  0  0  0
  -39.4431   60.3535   65.3695 C   0  0  0  0  0  0  0  0  0  0  0  0
  -40.0747   59.8271   63.5684 H   0  0  0  0  0  0  0  0  0  0  0  0
  -40.7422   59.8562   65.9303 C   0  0  0  0  0  0  0  0  0  0  0  0
  -40.9369   58.4418   65.3838 C   0  0  0  0  0  0  0  0  0  0  0  0
  -42.3204   57.9211   65.7656 C   0  0  0  0  0  0  0  0  0  0  0  0
  -43.4924   58.7571   65.3115 C   0  0  0  0  0  0  0  0  0  0  0  0
  -44.4867   58.8223   66.4661 C   0  0  0  0  0  0  0  0  0  0  0  0
  -45.9085   58.4243   66.0473 C   0  0  0  0  0  0  0  0  0  0  0  0
  -46.9143   59.5900   66.0381 C   0  0  0  0  0  0  0  0  0  0  0  0
  -48.1237   59.3322   65.1129 C   0  0  0  0  0  0  0  0  0  0  0  0
  -49.1224   58.3831   65.7815 C   0  0  0  0  0  0  0  0  0  0  0  0
  -50.4993   58.3326   65.1303 C   0  0  0  0  0  0  0  0  0  0  0  0
  -50.8148   59.5991   64.3482 C   0  0  0  0  0  0  0  0  0  0  0  0
  -51.4296   59.3959   62.9616 C   0  0  0  0  0  0  0  0  0  0  0  0
  -50.4673   58.5554   62.1330 C   0  0  0  0  0  0  0  0  0  0  0  0
  -51.0364   57.4637   61.2391 C   0  0  0  0  0  0  0  0  0  0  0  0
  -50.3504   57.4661   59.8638 C   0  0  0  0  0  0  0  0  0  0  0  0
  -48.8457   57.7909   59.9012 C   0  0  0  0  0  0  0  0  0  0  0  0
  -48.0176   56.9273   58.9524 C   0  0  0  0  0  0  0  0  0  0  0  0
  -40.0035   60.4799   61.7718 O   0  0  0  0  0  0  0  0  0  0  0  0
  -38.6227   60.1741   61.8302 C   0  0  0  0  0  0  0  0  0  0  0  0
  -40.1273   61.4368   61.8710 H   0  0  0  0  0  0  0  0  0  0  0  0
  -38.3572   58.6744   61.6795 C   0  0  0  0  0  0  0  0  0  0  0  0
  -37.5920   58.1613   60.7010 C   0  0  0  0  0  0  0  0  0  0  0  0
  -37.3757   56.6515   60.6176 C   0  0  0  0  0  0  0  0  0  0  0  0
  -36.7230   56.1884   59.3070 C   0  0  0  0  0  0  0  0  0  0  0  0
  -36.0035   57.2831   58.4976 C   0  0  0  0  0  0  0  0  0  0  0  0
  -34.4988   56.9545   58.3456 C   0  0  0  0  0  0  0  0  0  0  0  0
  -34.0010   55.7379   59.1664 C   0  0  0  0  0  0  0  0  0  0  0  0
  -33.1163   56.1114   60.3791 C   0  0  0  0  0  0  0  0  0  0  0  0
  -33.9211   56.4013   61.6646 C   0  0  0  0  0  0  0  0  0  0  0  0
  -34.0858   57.8955   61.9665 C   0  0  0  0  0  0  0  0  0  0  0  0
  -32.9433   58.5549   62.7362 C   0  0  0  0  0  0  0  0  0  0  0  0
  -31.9232   59.2838   61.8394 C   0  0  0  0  0  0  0  0  0  0  0  0
  -30.8222   60.0494   62.5888 C   0  0  0  0  0  0  0  0  0  0  0  0
  -29.7806   60.6079   61.6150 C   0  0  0  0  0  0  0  0  0  0  0  0
  -28.3770   60.7967   62.1628 C   0  0  0  0  0  0  0  0  0  0  0  0
  -36.8027   60.1480   63.7043 C   0  0  0  0  0  0  0  0  0  0  0  0
  -35.6490   60.8300   63.1500 O   0  0  0  0  0  0  0  0  0  0  0  0
  -33.5067   62.4587   62.1832 O   0  0  0  0  0  0  0  0  0  0  0  0
  -35.0998   65.2299   64.8630 O   0  0  0  0  0  0  0  0  0  0  0  0
  -35.5570   62.2495   65.1152 O   0  0  0  0  0  0  0  0  0  0  0  0
  -34.8256   61.7357   63.9756 C   0  0  0  0  0  0  0  0  0  0  0  0
  -34.2407   62.9603   63.2573 C   0  0  0  0  0  0  0  0  0  0  0  0
  -33.2947   63.8041   64.1396 C   0  0  0  0  0  0  0  0  0  0  0  0
  -34.1215   64.2890   65.2983 C   0  0  0  0  0  0  0  0  0  0  0  0
  -34.7777   63.1082   65.9909 C   0  0  0  0  0  0  0  0  0  0  0  0
  -34.0857   61.9250   61.6169 H   0  0  0  0  0  0  0  0  0  0  0  0
  -34.6595   65.9745   64.4242 H   0  0  0  0  0  0  0  0  0  0  0  0
  -36.8953   63.9411   66.7228 O   0  0  0  0  0  0  0  0  0  0  0  0
  -35.5584   63.8071   67.1018 C   0  0  0  0  0  0  0  0  0  0  0  0
  -37.3889   64.3852   67.4299 H   0  0  0  0  0  0  0  0  0  0  0  0
  -32.7368   64.9858   63.5216 O   0  0  0  0  0  0  0  0  0  0  0  0
  -30.2131   64.4045   63.4220 O   0  0  0  0  0  0  0  0  0  0  0  0
  -31.0304   66.3878   62.2872 O   0  0  0  0  0  0  0  0  0  0  0  0
  -31.4473   64.1903   61.3539 O   0  0  0  0  0  0  0  0  0  0  0  0
  -31.3376   64.9702   62.6193 S   0  0  0  0  0  0  0  0  0  0  0  0
  -30.1261   64.9004   64.2510 H   0  0  0  0  0  0  0  0  0  0  0  0
  -31.6476   63.2641   61.5612 H   0  0  0  0  0  0  0  0  0  0  0  0
  2  1  1  0  0  0
  2  4  1  0  0  0
  2  5  1  0  0  0
 41 42  1  0  0  0
 41  1  1  0  0  0
 42 46  1  0  0  0
  1 24  1  0  0  0
 23 24  1  0  0  0
 23 25  1  0  0  0
 24 26  1  0  0  0
  3  4  2  0  0  0
 26 27  2  0  0  0
 27 28  1  0  0  0
 43 47  1  0  0  0
 43 51  1  0  0  0
 28 29  1  0  0  0
 56 48  1  0  0  0
 56 60  1  0  0  0
 29 30  1  0  0  0
 57 60  1  0  0  0
 57 61  1  0  0  0
 30 31  1  0  0  0
 44 49  1  0  0  0
 44 52  1  0  0  0
 31 32  1  0  0  0
 45 46  1  0  0  0
 45 50  1  0  0  0
 32 33  1  0  0  0
 53 54  1  0  0  0
 53 55  1  0  0  0
 33 34  1  0  0  0
 34 35  1  0  0  0
 35 36  1  0  0  0
 58 60  1  0  0  0
 36 37  1  0  0  0
 59 60  1  0  0  0
 59 62  1  0  0  0
 37 38  1  0  0  0
 38 39  1  0  0  0
 39 40  1  0  0  0
  4  6  1  0  0  0
  6  7  1  0  0  0
  7  8  1  0  0  0
  8  9  1  0  0  0
  9 10  1  0  0  0
 10 11  1  0  0  0
 11 12  1  0  0  0
 12 13  1  0  0  0
 13 14  1  0  0  0
 14 15  1  0  0  0
 15 16  1  0  0  0
 16 17  1  0  0  0
 17 18  1  0  0  0
 18 19  1  0  0  0
 19 20  1  0  0  0
 20 21  1  0  0  0
 21 22  1  0  0  0
 46 47  1  0  0  0
 47 48  1  0  0  0
 48 49  1  0  0  0
 49 50  1  0  0  0
 50 54  1  0  0  0
M  CHG 1  58  -1
M  END
> <minimizedAffinity>
-9.95050

> <CNNscore>
0.4328009188

> <CNNaffinity>
6.9964418411

> <CNN_VS>
3.0280663967

> <CNNaffinity_variance>
0.6672224998

$$$$
/media/chris/experiments/cd1a-new-docking/inputs/ligands/1onq_ligand.pdb


 62 62  0  0  0  0  0  0  0  0999 V2000
  -38.9016   59.5195   60.8563 C   0  0  0  0  0  0  0  0  0  0  0  0
  -37.9586   58.9193   59.9335 N   0  0  0  0  0  0  0  0  0  0  0  0
  -37.6477   56.8638   60.8423 O   0  0  0  0  0  0  0  0  0  0  0  0
  -37.4200   57.6933   59.9832 C   0  0  0  0  0  0  0  0  0  0  0  0
  -37.6790   59.4825   59.1760 H   0  0  0  0  0  0  0  0  0  0  0  0
  -36.4759   57.3658   58.8647 C   0  0  0  0  0  0  0  0  0  0  0  0
  -35.0680   57.4111   59.4587 C   0  0  0  0  0  0  0  0  0  0  0  0
  -34.7315   56.0698   60.1058 C   0  0  0  0  0  0  0  0  0  0  0  0
  -33.9545   56.1332   61.3984 C   0  0  0  0  0  0  0  0  0  0  0  0
  -33.3514   57.5299   61.5054 C   0  0  0  0  0  0  0  0  0  0  0  0
  -33.5942   58.1772   62.8755 C   0  0  0  0  0  0  0  0  0  0  0  0
  -35.0669   58.5270   63.1573 C   0  0  0  0  0  0  0  0  0  0  0  0
  -35.5812   57.9333   64.4871 C   0  0  0  0  0  0  0  0  0  0  0  0
  -36.9991   57.3797   64.3188 C   0  0  0  0  0  0  0  0  0  0  0  0
  -38.0661   58.0740   65.1565 C   0  0  0  0  0  0  0  0  0  0  0  0
  -39.4754   57.7109   64.7123 C   0  0  0  0  0  0  0  0  0  0  0  0
  -40.4922   58.8546   64.7050 C   0  0  0  0  0  0  0  0  0  0  0  0
  -41.3650   58.7231   65.9459 C   0  0  0  0  0  0  0  0  0  0  0  0
  -42.7228   58.0493   65.8146 C   0  0  0  0  0  0  0  0  0  0  0  0
  -43.7425   58.9912   65.1552 C   0  0  0  0  0  0  0  0  0  0  0  0
  -45.1210   59.0209   65.8409 C   0  0  0  0  0  0  0  0  0  0  0  0
  -46.2575   58.5570   64.9326 C   0  0  0  0  0  0  0  0  0  0  0  0
  -40.7080   60.9787   60.7962 O   0  0  0  0  0  0  0  0  0  0  0  0
  -39.6979   60.4499   59.9574 C   0  0  0  0  0  0  0  0  0  0  0  0
  -40.2985   61.4759   61.5215 H   0  0  0  0  0  0  0  0  0  0  0  0
  -40.2788   59.6509   58.7884 C   0  0  0  0  0  0  0  0  0  0  0  0
  -41.5788   59.6897   58.4498 C   0  0  0  0  0  0  0  0  0  0  0  0
  -42.0820   58.8614   57.2690 C   0  0  0  0  0  0  0  0  0  0  0  0
  -43.6125   58.8032   57.1577 C   0  0  0  0  0  0  0  0  0  0  0  0
  -44.3455   58.1869   58.3635 C   0  0  0  0  0  0  0  0  0  0  0  0
  -45.8541   58.0184   58.0617 C   0  0  0  0  0  0  0  0  0  0  0  0
  -46.7055   57.4657   59.2327 C   0  0  0  0  0  0  0  0  0  0  0  0
  -47.7075   56.3615   58.8212 C   0  0  0  0  0  0  0  0  0  0  0  0
  -49.1855   56.7709   58.9999 C   0  0  0  0  0  0  0  0  0  0  0  0
  -49.7555   56.4386   60.3840 C   0  0  0  0  0  0  0  0  0  0  0  0
  -50.9264   57.3000   60.8525 C   0  0  0  0  0  0  0  0  0  0  0  0
  -50.5107   58.4973   61.7300 C   0  0  0  0  0  0  0  0  0  0  0  0
  -49.7900   58.1323   63.0367 C   0  0  0  0  0  0  0  0  0  0  0  0
  -50.4666   58.7934   64.2409 C   0  0  0  0  0  0  0  0  0  0  0  0
  -50.2346   58.1367   65.5903 C   0  0  0  0  0  0  0  0  0  0  0  0
  -38.2841   60.1363   62.1319 C   0  0  0  0  0  0  0  0  0  0  0  0
  -37.3447   61.2238   61.9367 O   0  0  0  0  0  0  0  0  0  0  0  0
  -35.4957   63.3990   61.7732 O   0  0  0  0  0  0  0  0  0  0  0  0
  -36.7935   64.1102   65.6730 O   0  0  0  0  0  0  0  0  0  0  0  0
  -37.0180   61.4063   64.3336 O   0  0  0  0  0  0  0  0  0  0  0  0
  -36.4540   61.6708   63.0261 C   0  0  0  0  0  0  0  0  0  0  0  0
  -36.0723   63.1581   63.0196 C   0  0  0  0  0  0  0  0  0  0  0  0
  -35.0477   63.5404   64.1101 C   0  0  0  0  0  0  0  0  0  0  0  0
  -35.7006   63.2283   65.4283 C   0  0  0  0  0  0  0  0  0  0  0  0
  -36.1595   61.7814   65.4444 C   0  0  0  0  0  0  0  0  0  0  0  0
  -36.1261   63.1641   61.0744 H   0  0  0  0  0  0  0  0  0  0  0  0
  -36.4782   65.0274   65.6583 H   0  0  0  0  0  0  0  0  0  0  0  0
  -36.0008   62.3718   67.7553 O   0  0  0  0  0  0  0  0  0  0  0  0
  -36.7881   61.6807   66.8325 C   0  0  0  0  0  0  0  0  0  0  0  0
  -36.4021   62.3064   68.6359 H   0  0  0  0  0  0  0  0  0  0  0  0
  -34.6732   64.9355   64.1675 O   0  0  0  0  0  0  0  0  0  0  0  0
  -32.9408   64.9427   66.0951 O   0  0  0  0  0  0  0  0  0  0  0  0
  -33.2602   66.9472   64.7651 O   0  0  0  0  0  0  0  0  0  0  0  0
  -32.0504   65.0569   63.8500 O   0  0  0  0  0  0  0  0  0  0  0  0
  -33.1925   65.4614   64.7180 S   0  0  0  0  0  0  0  0  0  0  0  0
  -33.6751   65.1967   66.6756 H   0  0  0  0  0  0  0  0  0  0  0  0
  -31.9989   64.0890   63.8136 H   0  0  0  0  0  0  0  0  0  0  0  0
  2  1  1  0  0  0
  2  4  1  0  0  0
  2  5  1  0  0  0
 41 42  1  0  0  0
 41  1  1  0  0  0
 42 46  1  0  0  0
  1 24  1  0  0  0
 23 24  1  0  0  0
 23 25  1  0  0  0
 24 26  1  0  0  0
  3  4  2  0  0  0
 26 27  2  0  0  0
 27 28  1  0  0  0
 43 47  1  0  0  0
 43 51  1  0  0  0
 28 29  1  0  0  0
 56 48  1  0  0  0
 56 60  1  0  0  0
 29 30  1  0  0  0
 57 60  1  0  0  0
 57 61  1  0  0  0
 30 31  1  0  0  0
 44 49  1  0  0  0
 44 52  1  0  0  0
 31 32  1  0  0  0
 45 46  1  0  0  0
 45 50  1  0  0  0
 32 33  1  0  0  0
 53 54  1  0  0  0
 53 55  1  0  0  0
 33 34  1  0  0  0
 34 35  1  0  0  0
 35 36  1  0  0  0
 58 60  1  0  0  0
 36 37  1  0  0  0
 59 60  1  0  0  0
 59 62  1  0  0  0
 37 38  1  0  0  0
 38 39  1  0  0  0
 39 40  1  0  0  0
  4  6  1  0  0  0
  6  7  1  0  0  0
  7  8  1  0  0  0
  8  9  1  0  0  0
  9 10  1  0  0  0
 10 11  1  0  0  0
 11 12  1  0  0  0
 12 13  1  0  0  0
 13 14  1  0  0  0
 14 15  1  0  0  0
 15 16  1  0  0  0
 16 17  1  0  0  0
 17 18  1  0  0  0
 18 19  1  0  0  0
 19 20  1  0  0  0
 20 21  1  0  0  0
 21 22  1  0  0  0
 46 47  1  0  0  0
 47 48  1  0  0  0
 48 49  1  0  0  0
 49 50  1  0  0  0
 50 54  1  0  0  0
M  CHG 1  58  -1
M  END
> <minimizedAffinity>
-9.12794

> <CNNscore>
0.4123829007

> <CNNaffinity>
7.1893510818

> <CNN_VS>
2.9647655487

> <CNNaffinity_variance>
1.0572289228

$$$$
/media/chris/experiments/cd1a-new-docking/inputs/ligands/1onq_ligand.pdb


 62 62  0  0  0  0  0  0  0  0999 V2000
  -40.0621   59.1142   64.9385 C   0  0  0  0  0  0  0  0  0  0  0  0
  -39.5065   58.3593   63.8328 N   0  0  0  0  0  0  0  0  0  0  0  0
  -37.5794   57.5600   64.7244 O   0  0  0  0  0  0  0  0  0  0  0  0
  -38.3601   57.6664   63.7986 C   0  0  0  0  0  0  0  0  0  0  0  0
  -40.0376   58.3551   63.0039 H   0  0  0  0  0  0  0  0  0  0  0  0
  -38.0677   56.9813   62.4968 C   0  0  0  0  0  0  0  0  0  0  0  0
  -38.5772   57.9098   61.3943 C   0  0  0  0  0  0  0  0  0  0  0  0
  -37.4379   58.7897   60.8858 C   0  0  0  0  0  0  0  0  0  0  0  0
  -37.6564   59.4491   59.5456 C   0  0  0  0  0  0  0  0  0  0  0  0
  -37.6818   58.3491   58.4896 C   0  0  0  0  0  0  0  0  0  0  0  0
  -36.3617   58.2404   57.7147 C   0  0  0  0  0  0  0  0  0  0  0  0
  -35.6982   56.8530   57.7876 C   0  0  0  0  0  0  0  0  0  0  0  0
  -36.6354   55.7689   58.3637 C   0  0  0  0  0  0  0  0  0  0  0  0
  -36.0039   55.1062   59.5914 C   0  0  0  0  0  0  0  0  0  0  0  0
  -34.5226   55.4012   59.7932 C   0  0  0  0  0  0  0  0  0  0  0  0
  -34.2473   56.0928   61.1203 C   0  0  0  0  0  0  0  0  0  0  0  0
  -33.9611   57.5944   61.0478 C   0  0  0  0  0  0  0  0  0  0  0  0
  -33.9937   58.1538   62.4637 C   0  0  0  0  0  0  0  0  0  0  0  0
  -33.0108   59.2539   62.8361 C   0  0  0  0  0  0  0  0  0  0  0  0
  -31.9152   59.3970   61.7678 C   0  0  0  0  0  0  0  0  0  0  0  0
  -30.5760   59.9439   62.2958 C   0  0  0  0  0  0  0  0  0  0  0  0
  -30.0385   61.1167   61.4790 C   0  0  0  0  0  0  0  0  0  0  0  0
  -41.2205   61.0190   64.2861 O   0  0  0  0  0  0  0  0  0  0  0  0
  -41.3784   59.6148   64.3692 C   0  0  0  0  0  0  0  0  0  0  0  0
  -40.4893   61.2270   63.6837 H   0  0  0  0  0  0  0  0  0  0  0  0
  -42.5203   59.2174   65.3076 C   0  0  0  0  0  0  0  0  0  0  0  0
  -43.8134   59.2530   64.9428 C   0  0  0  0  0  0  0  0  0  0  0  0
  -44.8959   58.8412   65.9388 C   0  0  0  0  0  0  0  0  0  0  0  0
  -46.2882   59.3995   65.6098 C   0  0  0  0  0  0  0  0  0  0  0  0
  -47.4645   58.4314   65.8342 C   0  0  0  0  0  0  0  0  0  0  0  0
  -48.0746   57.9860   64.4833 C   0  0  0  0  0  0  0  0  0  0  0  0
  -48.8189   59.0940   63.6960 C   0  0  0  0  0  0  0  0  0  0  0  0
  -50.3553   59.0749   63.8748 C   0  0  0  0  0  0  0  0  0  0  0  0
  -51.1191   58.6350   62.6071 C   0  0  0  0  0  0  0  0  0  0  0  0
  -50.2150   58.4013   61.3910 C   0  0  0  0  0  0  0  0  0  0  0  0
  -50.4334   57.0933   60.6333 C   0  0  0  0  0  0  0  0  0  0  0  0
  -49.2318   56.6623   59.7695 C   0  0  0  0  0  0  0  0  0  0  0  0
  -47.9345   57.4481   60.0137 C   0  0  0  0  0  0  0  0  0  0  0  0
  -47.0129   57.3813   58.7927 C   0  0  0  0  0  0  0  0  0  0  0  0
  -47.6464   56.9167   57.4932 C   0  0  0  0  0  0  0  0  0  0  0  0
  -39.1218   60.1703   65.5626 C   0  0  0  0  0  0  0  0  0  0  0  0
  -38.5254   61.1271   64.6504 O   0  0  0  0  0  0  0  0  0  0  0  0
  -36.6186   61.5254   62.5570 O   0  0  0  0  0  0  0  0  0  0  0  0
  -35.6098   64.8773   64.8256 O   0  0  0  0  0  0  0  0  0  0  0  0
  -37.0101   62.4627   65.9939 O   0  0  0  0  0  0  0  0  0  0  0  0
  -37.1397   61.6014   64.8369 C   0  0  0  0  0  0  0  0  0  0  0  0
  -36.5256   62.3732   63.6600 C   0  0  0  0  0  0  0  0  0  0  0  0
  -35.0395   62.7396   63.8663 C   0  0  0  0  0  0  0  0  0  0  0  0
  -34.9888   63.6205   65.0841 C   0  0  0  0  0  0  0  0  0  0  0  0
  -35.6550   62.9188   66.2537 C   0  0  0  0  0  0  0  0  0  0  0  0
  -37.5468   61.2842   62.4119 H   0  0  0  0  0  0  0  0  0  0  0  0
  -35.1693   65.3074   64.0760 H   0  0  0  0  0  0  0  0  0  0  0  0
  -34.1683   64.3478   67.4626 O   0  0  0  0  0  0  0  0  0  0  0  0
  -35.5067   63.9650   67.3562 C   0  0  0  0  0  0  0  0  0  0  0  0
  -34.0768   65.0122   68.1633 H   0  0  0  0  0  0  0  0  0  0  0  0
  -34.4177   63.4920   62.8000 O   0  0  0  0  0  0  0  0  0  0  0  0
  -32.2556   63.9855   61.4589 O   0  0  0  0  0  0  0  0  0  0  0  0
  -32.0942   62.9921   63.6671 O   0  0  0  0  0  0  0  0  0  0  0  0
  -32.6340   65.3424   63.4241 O   0  0  0  0  0  0  0  0  0  0  0  0
  -32.8281   63.9859   62.8376 S   0  0  0  0  0  0  0  0  0  0  0  0
  -32.3728   63.1090   61.0604 H   0  0  0  0  0  0  0  0  0  0  0  0
  -33.1096   65.9970   62.8890 H   0  0  0  0  0  0  0  0  0  0  0  0
  2  1  1  0  0  0
  2  4  1  0  0  0
  2  5  1  0  0  0
 41 42  1  0  0  0
 41  1  1  0  0  0
 42 46  1  0  0  0
  1 24  1  0  0  0
 23 24  1  0  0  0
 23 25  1  0  0  0
 24 26  1  0  0  0
  3  4  2  0  0  0
 26 27  2  0  0  0
 27 28  1  0  0  0
 43 47  1  0  0  0
 43 51  1  0  0  0
 28 29  1  0  0  0
 56 48  1  0  0  0
 56 60  1  0  0  0
 29 30  1  0  0  0
 57 60  1  0  0  0
 57 61  1  0  0  0
 30 31  1  0  0  0
 44 49  1  0  0  0
 44 52  1  0  0  0
 31 32  1  0  0  0
 45 46  1  0  0  0
 45 50  1  0  0  0
 32 33  1  0  0  0
 53 54  1  0  0  0
 53 55  1  0  0  0
 33 34  1  0  0  0
 34 35  1  0  0  0
 35 36  1  0  0  0
 58 60  1  0  0  0
 36 37  1  0  0  0
 59 60  1  0  0  0
 59 62  1  0  0  0
 37 38  1  0  0  0
 38 39  1  0  0  0
 39 40  1  0  0  0
  4  6  1  0  0  0
  6  7  1  0  0  0
  7  8  1  0  0  0
  8  9  1  0  0  0
  9 10  1  0  0  0
 10 11  1  0  0  0
 11 12  1  0  0  0
 12 13  1  0  0  0
 13 14  1  0  0  0
 14 15  1  0  0  0
 15 16  1  0  0  0
 16 17  1  0  0  0
 17 18  1  0  0  0
 18 19  1  0  0  0
 19 20  1  0  0  0
 20 21  1  0  0  0
 21 22  1  0  0  0
 46 47  1  0  0  0
 47 48  1  0  0  0
 48 49  1  0  0  0
 49 50  1  0  0  0
 50 54  1  0  0  0
M  CHG 1  58  -1
M  END
> <minimizedAffinity>
-9.78822

> <CNNscore>
0.3460461497

> <CNNaffinity>
7.1283760071

> <CNN_VS>
2.4667470455

> <CNNaffinity_variance>
1.0616365671

$$$$
/media/chris/experiments/cd1a-new-docking/inputs/ligands/1onq_ligand.pdb


 62 62  0  0  0  0  0  0  0  0999 V2000
  -38.7419   59.8190   62.4962 C   0  0  0  0  0  0  0  0  0  0  0  0
  -40.0146   59.5096   63.1173 N   0  0  0  0  0  0  0  0  0  0  0  0
  -39.4451   59.3382   65.3068 O   0  0  0  0  0  0  0  0  0  0  0  0
  -40.2711   59.3000   64.4157 C   0  0  0  0  0  0  0  0  0  0  0  0
  -40.7864   59.4456   62.5096 H   0  0  0  0  0  0  0  0  0  0  0  0
  -41.7052   59.0072   64.7431 C   0  0  0  0  0  0  0  0  0  0  0  0
  -41.7260   58.5022   66.1860 C   0  0  0  0  0  0  0  0  0  0  0  0
  -42.8973   59.1266   66.9402 C   0  0  0  0  0  0  0  0  0  0  0  0
  -44.2691   58.8704   66.3648 C   0  0  0  0  0  0  0  0  0  0  0  0
  -44.4736   57.3598   66.3164 C   0  0  0  0  0  0  0  0  0  0  0  0
  -45.9496   56.9571   66.4373 C   0  0  0  0  0  0  0  0  0  0  0  0
  -46.8391   58.0130   67.1188 C   0  0  0  0  0  0  0  0  0  0  0  0
  -48.0628   58.4093   66.2640 C   0  0  0  0  0  0  0  0  0  0  0  0
  -47.8440   59.7759   65.6086 C   0  0  0  0  0  0  0  0  0  0  0  0
  -48.6096   59.9984   64.3099 C   0  0  0  0  0  0  0  0  0  0  0  0
  -48.9848   58.6900   63.6297 C   0  0  0  0  0  0  0  0  0  0  0  0
  -50.4807   58.3749   63.5599 C   0  0  0  0  0  0  0  0  0  0  0  0
  -50.9274   58.5057   62.1100 C   0  0  0  0  0  0  0  0  0  0  0  0
  -49.8654   58.6459   61.0295 C   0  0  0  0  0  0  0  0  0  0  0  0
  -49.8624   57.4224   60.0995 C   0  0  0  0  0  0  0  0  0  0  0  0
  -48.5055   57.1304   59.4327 C   0  0  0  0  0  0  0  0  0  0  0  0
  -48.2590   55.6430   59.1908 C   0  0  0  0  0  0  0  0  0  0  0  0
  -36.9338   58.8577   63.5928 O   0  0  0  0  0  0  0  0  0  0  0  0
  -37.9624   58.5279   62.6780 C   0  0  0  0  0  0  0  0  0  0  0  0
  -37.3269   59.1381   64.4340 H   0  0  0  0  0  0  0  0  0  0  0  0
  -37.4079   58.0757   61.3251 C   0  0  0  0  0  0  0  0  0  0  0  0
  -37.3873   56.7896   60.9355 C   0  0  0  0  0  0  0  0  0  0  0  0
  -36.8155   56.4184   59.5685 C   0  0  0  0  0  0  0  0  0  0  0  0
  -35.2903   56.5686   59.4709 C   0  0  0  0  0  0  0  0  0  0  0  0
  -34.4693   55.6392   60.3838 C   0  0  0  0  0  0  0  0  0  0  0  0
  -33.4245   56.4458   61.1919 C   0  0  0  0  0  0  0  0  0  0  0  0
  -33.9906   57.2474   62.3912 C   0  0  0  0  0  0  0  0  0  0  0  0
  -33.2800   58.5982   62.6422 C   0  0  0  0  0  0  0  0  0  0  0  0
  -31.9605   58.7573   61.8563 C   0  0  0  0  0  0  0  0  0  0  0  0
  -31.4061   60.1868   61.8628 C   0  0  0  0  0  0  0  0  0  0  0  0
  -30.0396   60.3740   62.5189 C   0  0  0  0  0  0  0  0  0  0  0  0
  -29.3093   61.6610   62.0872 C   0  0  0  0  0  0  0  0  0  0  0  0
  -30.1960   62.9104   61.9742 C   0  0  0  0  0  0  0  0  0  0  0  0
  -29.3477   64.1846   61.9295 C   0  0  0  0  0  0  0  0  0  0  0  0
  -29.9808   65.3943   61.2649 C   0  0  0  0  0  0  0  0  0  0  0  0
  -38.0640   61.1209   62.9801 C   0  0  0  0  0  0  0  0  0  0  0  0
  -36.7566   61.4157   62.4259 O   0  0  0  0  0  0  0  0  0  0  0  0
  -34.9363   63.5050   61.7200 O   0  0  0  0  0  0  0  0  0  0  0  0
  -35.4204   64.5665   65.7247 O   0  0  0  0  0  0  0  0  0  0  0  0
  -35.9571   61.7749   64.6880 O   0  0  0  0  0  0  0  0  0  0  0  0
  -35.6591   61.9156   63.2777 C   0  0  0  0  0  0  0  0  0  0  0  0
  -35.2584   63.3834   63.0711 C   0  0  0  0  0  0  0  0  0  0  0  0
  -34.0307   63.8144   63.9032 C   0  0  0  0  0  0  0  0  0  0  0  0
  -34.4146   63.6303   65.3454 C   0  0  0  0  0  0  0  0  0  0  0  0
  -34.8883   62.2061   65.5731 C   0  0  0  0  0  0  0  0  0  0  0  0
  -35.6972   63.2380   61.1809 H   0  0  0  0  0  0  0  0  0  0  0  0
  -35.0972   65.4681   65.5712 H   0  0  0  0  0  0  0  0  0  0  0  0
  -34.2001   62.8614   67.7664 O   0  0  0  0  0  0  0  0  0  0  0  0
  -35.2306   62.2373   67.0610 C   0  0  0  0  0  0  0  0  0  0  0  0
  -34.4199   62.8800   68.7110 H   0  0  0  0  0  0  0  0  0  0  0  0
  -33.6261   65.1957   63.7682 O   0  0  0  0  0  0  0  0  0  0  0  0
  -32.8579   66.4952   65.8749 O   0  0  0  0  0  0  0  0  0  0  0  0
  -31.7714   66.9163   63.7462 O   0  0  0  0  0  0  0  0  0  0  0  0
  -31.2947   64.8837   64.9772 O   0  0  0  0  0  0  0  0  0  0  0  0
  -32.3592   65.8631   64.6177 S   0  0  0  0  0  0  0  0  0  0  0  0
  -33.5528   67.1370   65.6605 H   0  0  0  0  0  0  0  0  0  0  0  0
  -31.6695   64.1930   65.5458 H   0  0  0  0  0  0  0  0  0  0  0  0
  2  1  1  0  0  0
  2  4  1  0  0  0
  2  5  1  0  0  0
 41 42  1  0  0  0
 41  1  1  0  0  0
 42 46  1  0  0  0
  1 24  1  0  0  0
 23 24  1  0  0  0
 23 25  1  0  0  0
 24 26  1  0  0  0
  3  4  2  0  0  0
 26 27  2  0  0  0
 27 28  1  0  0  0
 43 47  1  0  0  0
 43 51  1  0  0  0
 28 29  1  0  0  0
 56 48  1  0  0  0
 56 60  1  0  0  0
 29 30  1  0  0  0
 57 60  1  0  0  0
 57 61  1  0  0  0
 30 31  1  0  0  0
 44 49  1  0  0  0
 44 52  1  0  0  0
 31 32  1  0  0  0
 45 46  1  0  0  0
 45 50  1  0  0  0
 32 33  1  0  0  0
 53 54  1  0  0  0
 53 55  1  0  0  0
 33 34  1  0  0  0
 34 35  1  0  0  0
 35 36  1  0  0  0
 58 60  1  0  0  0
 36 37  1  0  0  0
 59 60  1  0  0  0
 59 62  1  0  0  0
 37 38  1  0  0  0
 38 39  1  0  0  0
 39 40  1  0  0  0
  4  6  1  0  0  0
  6  7  1  0  0  0
  7  8  1  0  0  0
  8  9  1  0  0  0
  9 10  1  0  0  0
 10 11  1  0  0  0
 11 12  1  0  0  0
 12 13  1  0  0  0
 13 14  1  0  0  0
 14 15  1  0  0  0
 15 16  1  0  0  0
 16 17  1  0  0  0
 17 18  1  0  0  0
 18 19  1  0  0  0
 19 20  1  0  0  0
 20 21  1  0  0  0
 21 22  1  0  0  0
 46 47  1  0  0  0
 47 48  1  0  0  0
 48 49  1  0  0  0
 49 50  1  0  0  0
 50 54  1  0  0  0
M  CHG 1  58  -1
M  END
> <minimizedAffinity>
-9.08011

> <CNNscore>
0.3400385976

> <CNNaffinity>
6.7442464828

> <CNN_VS>
2.2933042049

> <CNNaffinity_variance>
0.8213616610

$$$$
/media/chris/experiments/cd1a-new-docking/inputs/ligands/1onq_ligand.pdb


 62 62  0  0  0  0  0  0  0  0999 V2000
  -39.6907   58.7008   63.8713 C   0  0  0  0  0  0  0  0  0  0  0  0
  -40.5061   58.5914   65.0647 N   0  0  0  0  0  0  0  0  0  0  0  0
  -42.3499   59.7825   64.4906 O   0  0  0  0  0  0  0  0  0  0  0  0
  -41.7207   59.1124   65.2862 C   0  0  0  0  0  0  0  0  0  0  0  0
  -40.1196   58.0695   65.8044 H   0  0  0  0  0  0  0  0  0  0  0  0
  -42.3087   58.8094   66.6323 C   0  0  0  0  0  0  0  0  0  0  0  0
  -42.8110   57.3669   66.5710 C   0  0  0  0  0  0  0  0  0  0  0  0
  -44.2723   57.3418   66.1296 C   0  0  0  0  0  0  0  0  0  0  0  0
  -45.1380   58.4696   66.6369 C   0  0  0  0  0  0  0  0  0  0  0  0
  -45.8117   59.1125   65.4292 C   0  0  0  0  0  0  0  0  0  0  0  0
  -46.8848   58.2135   64.8005 C   0  0  0  0  0  0  0  0  0  0  0  0
  -47.9579   57.7235   65.7900 C   0  0  0  0  0  0  0  0  0  0  0  0
  -49.1304   58.7169   65.9445 C   0  0  0  0  0  0  0  0  0  0  0  0
  -50.3354   58.2630   65.1155 C   0  0  0  0  0  0  0  0  0  0  0  0
  -50.5083   58.9809   63.7825 C   0  0  0  0  0  0  0  0  0  0  0  0
  -49.9562   58.1742   62.6165 C   0  0  0  0  0  0  0  0  0  0  0  0
  -50.9728   57.7459   61.5557 C   0  0  0  0  0  0  0  0  0  0  0  0
  -50.2897   56.7675   60.6097 C   0  0  0  0  0  0  0  0  0  0  0  0
  -49.5351   57.3197   59.4095 C   0  0  0  0  0  0  0  0  0  0  0  0
  -48.0223   57.0948   59.5601 C   0  0  0  0  0  0  0  0  0  0  0  0
  -47.1630   57.7938   58.4904 C   0  0  0  0  0  0  0  0  0  0  0  0
  -47.0835   57.0178   57.1777 C   0  0  0  0  0  0  0  0  0  0  0  0
  -38.1585   57.8236   65.3808 O   0  0  0  0  0  0  0  0  0  0  0  0
  -38.6581   57.6054   64.0745 C   0  0  0  0  0  0  0  0  0  0  0  0
  -38.8803   57.7327   66.0224 H   0  0  0  0  0  0  0  0  0  0  0  0
  -37.5658   57.7347   63.0103 C   0  0  0  0  0  0  0  0  0  0  0  0
  -36.2582   57.8167   63.3098 C   0  0  0  0  0  0  0  0  0  0  0  0
  -35.2281   57.9451   62.1892 C   0  0  0  0  0  0  0  0  0  0  0  0
  -33.7821   57.6955   62.6423 C   0  0  0  0  0  0  0  0  0  0  0  0
  -32.9688   56.7220   61.7694 C   0  0  0  0  0  0  0  0  0  0  0  0
  -33.8997   55.7018   61.0709 C   0  0  0  0  0  0  0  0  0  0  0  0
  -33.7152   55.5798   59.5371 C   0  0  0  0  0  0  0  0  0  0  0  0
  -33.7141   56.9341   58.7896 C   0  0  0  0  0  0  0  0  0  0  0  0
  -34.9277   57.1241   57.8541 C   0  0  0  0  0  0  0  0  0  0  0  0
  -36.1455   56.2773   58.2424 C   0  0  0  0  0  0  0  0  0  0  0  0
  -37.0779   56.8825   59.2897 C   0  0  0  0  0  0  0  0  0  0  0  0
  -37.1165   58.4235   59.2774 C   0  0  0  0  0  0  0  0  0  0  0  0
  -38.4779   59.0415   58.9246 C   0  0  0  0  0  0  0  0  0  0  0  0
  -39.0364   59.8491   60.0997 C   0  0  0  0  0  0  0  0  0  0  0  0
  -40.4512   60.3780   59.9437 C   0  0  0  0  0  0  0  0  0  0  0  0
  -39.1573   60.1170   63.5569 C   0  0  0  0  0  0  0  0  0  0  0  0
  -38.7077   60.9061   64.6877 O   0  0  0  0  0  0  0  0  0  0  0  0
  -36.8765   61.1395   62.5038 O   0  0  0  0  0  0  0  0  0  0  0  0
  -35.7290   64.6066   64.5189 O   0  0  0  0  0  0  0  0  0  0  0  0
  -37.1212   62.2948   65.8875 O   0  0  0  0  0  0  0  0  0  0  0  0
  -37.3086   61.3659   64.7922 C   0  0  0  0  0  0  0  0  0  0  0  0
  -36.7280   62.0521   63.5473 C   0  0  0  0  0  0  0  0  0  0  0  0
  -35.2295   62.4037   63.6748 C   0  0  0  0  0  0  0  0  0  0  0  0
  -35.1184   63.3573   64.8322 C   0  0  0  0  0  0  0  0  0  0  0  0
  -35.7502   62.7415   66.0676 C   0  0  0  0  0  0  0  0  0  0  0  0
  -37.8133   60.9065   62.4088 H   0  0  0  0  0  0  0  0  0  0  0  0
  -35.3109   64.9815   63.7281 H   0  0  0  0  0  0  0  0  0  0  0  0
  -36.4864   63.7256   68.1178 O   0  0  0  0  0  0  0  0  0  0  0  0
  -35.5433   63.8512   67.0961 C   0  0  0  0  0  0  0  0  0  0  0  0
  -36.3528   64.4314   68.7696 H   0  0  0  0  0  0  0  0  0  0  0  0
  -34.6374   63.0773   62.5409 O   0  0  0  0  0  0  0  0  0  0  0  0
  -32.5559   63.7358   61.1443 O   0  0  0  0  0  0  0  0  0  0  0  0
  -32.2597   62.6996   63.3186 O   0  0  0  0  0  0  0  0  0  0  0  0
  -32.9488   65.0176   63.1565 O   0  0  0  0  0  0  0  0  0  0  0  0
  -33.0802   63.6667   62.5404 S   0  0  0  0  0  0  0  0  0  0  0  0
  -32.6333   62.8640   60.7263 H   0  0  0  0  0  0  0  0  0  0  0  0
  -33.4810   65.6548   62.6550 H   0  0  0  0  0  0  0  0  0  0  0  0
  2  1  1  0  0  0
  2  4  1  0  0  0
  2  5  1  0  0  0
 41 42  1  0  0  0
 41  1  1  0  0  0
 42 46  1  0  0  0
  1 24  1  0  0  0
 23 24  1  0  0  0
 23 25  1  0  0  0
 24 26  1  0  0  0
  3  4  2  0  0  0
 26 27  2  0  0  0
 27 28  1  0  0  0
 43 47  1  0  0  0
 43 51  1  0  0  0
 28 29  1  0  0  0
 56 48  1  0  0  0
 56 60  1  0  0  0
 29 30  1  0  0  0
 57 60  1  0  0  0
 57 61  1  0  0  0
 30 31  1  0  0  0
 44 49  1  0  0  0
 44 52  1  0  0  0
 31 32  1  0  0  0
 45 46  1  0  0  0
 45 50  1  0  0  0
 32 33  1  0  0  0
 53 54  1  0  0  0
 53 55  1  0  0  0
 33 34  1  0  0  0
 34 35  1  0  0  0
 35 36  1  0  0  0
 58 60  1  0  0  0
 36 37  1  0  0  0
 59 60  1  0  0  0
 59 62  1  0  0  0
 37 38  1  0  0  0
 38 39  1  0  0  0
 39 40  1  0  0  0
  4  6  1  0  0  0
  6  7  1  0  0  0
  7  8  1  0  0  0
  8  9  1  0  0  0
  9 10  1  0  0  0
 10 11  1  0  0  0
 11 12  1  0  0  0
 12 13  1  0  0  0
 13 14  1  0  0  0
 14 15  1  0  0  0
 15 16  1  0  0  0
 16 17  1  0  0  0
 17 18  1  0  0  0
 18 19  1  0  0  0
 19 20  1  0  0  0
 20 21  1  0  0  0
 21 22  1  0  0  0
 46 47  1  0  0  0
 47 48  1  0  0  0
 48 49  1  0  0  0
 49 50  1  0  0  0
 50 54  1  0  0  0
M  CHG 1  58  -1
M  END
> <minimizedAffinity>
-10.09176

> <CNNscore>
0.3305121064

> <CNNaffinity>
7.3549451828

> <CNN_VS>
2.4308984280

> <CNNaffinity_variance>
1.1186778545

$$$$
/media/chris/experiments/cd1a-new-docking/inputs/ligands/1onq_ligand.pdb


 62 62  0  0  0  0  0  0  0  0999 V2000
  -39.0802   60.3216   63.9793 C   0  0  0  0  0  0  0  0  0  0  0  0
  -40.2364   59.7470   64.6381 N   0  0  0  0  0  0  0  0  0  0  0  0
  -39.6483   57.5624   64.8096 O   0  0  0  0  0  0  0  0  0  0  0  0
  -40.4359   58.4702   64.9926 C   0  0  0  0  0  0  0  0  0  0  0  0
  -40.9659   60.3726   64.8516 H   0  0  0  0  0  0  0  0  0  0  0  0
  -41.7445   58.1940   65.6716 C   0  0  0  0  0  0  0  0  0  0  0  0
  -42.6212   59.4248   65.4400 C   0  0  0  0  0  0  0  0  0  0  0  0
  -44.0361   58.9936   65.0620 C   0  0  0  0  0  0  0  0  0  0  0  0
  -44.6754   57.9589   65.9561 C   0  0  0  0  0  0  0  0  0  0  0  0
  -45.8711   58.6150   66.6385 C   0  0  0  0  0  0  0  0  0  0  0  0
  -46.7039   59.4744   65.6778 C   0  0  0  0  0  0  0  0  0  0  0  0
  -48.2132   59.4812   65.9825 C   0  0  0  0  0  0  0  0  0  0  0  0
  -48.8686   58.0946   65.8004 C   0  0  0  0  0  0  0  0  0  0  0  0
  -50.3265   58.2407   65.3552 C   0  0  0  0  0  0  0  0  0  0  0  0
  -50.7112   59.6266   64.8517 C   0  0  0  0  0  0  0  0  0  0  0  0
  -51.3985   59.5777   63.4951 C   0  0  0  0  0  0  0  0  0  0  0  0
  -50.5079   59.2151   62.3044 C   0  0  0  0  0  0  0  0  0  0  0  0
  -50.9676   57.8698   61.7588 C   0  0  0  0  0  0  0  0  0  0  0  0
  -50.0119   57.0726   60.8836 C   0  0  0  0  0  0  0  0  0  0  0  0
  -50.0955   57.5308   59.4190 C   0  0  0  0  0  0  0  0  0  0  0  0
  -48.9573   57.0114   58.5214 C   0  0  0  0  0  0  0  0  0  0  0  0
  -47.5663   57.3226   59.0691 C   0  0  0  0  0  0  0  0  0  0  0  0
  -40.8543   60.0206   62.5105 O   0  0  0  0  0  0  0  0  0  0  0  0
  -39.6413   60.7399   62.6311 C   0  0  0  0  0  0  0  0  0  0  0  0
  -41.4571   60.2810   63.2245 H   0  0  0  0  0  0  0  0  0  0  0  0
  -38.6423   60.3745   61.5307 C   0  0  0  0  0  0  0  0  0  0  0  0
  -38.9359   59.5312   60.5263 C   0  0  0  0  0  0  0  0  0  0  0  0
  -37.8826   59.2159   59.4658 C   0  0  0  0  0  0  0  0  0  0  0  0
  -37.5138   57.7277   59.3791 C   0  0  0  0  0  0  0  0  0  0  0  0
  -37.4251   56.9835   60.7242 C   0  0  0  0  0  0  0  0  0  0  0  0
  -36.0922   57.3043   61.4426 C   0  0  0  0  0  0  0  0  0  0  0  0
  -34.8111   57.0180   60.6190 C   0  0  0  0  0  0  0  0  0  0  0  0
  -33.7893   56.1034   61.3347 C   0  0  0  0  0  0  0  0  0  0  0  0
  -32.6184   56.8739   61.9825 C   0  0  0  0  0  0  0  0  0  0  0  0
  -32.6324   58.3789   61.6899 C   0  0  0  0  0  0  0  0  0  0  0  0
  -31.4768   59.1875   62.2757 C   0  0  0  0  0  0  0  0  0  0  0  0
  -31.3439   60.6060   61.6872 C   0  0  0  0  0  0  0  0  0  0  0  0
  -29.9048   61.1252   61.5486 C   0  0  0  0  0  0  0  0  0  0  0  0
  -28.9792   60.4595   62.5709 C   0  0  0  0  0  0  0  0  0  0  0  0
  -27.5095   60.3771   62.1980 C   0  0  0  0  0  0  0  0  0  0  0  0
  -37.8130   59.4366   63.9668 C   0  0  0  0  0  0  0  0  0  0  0  0
  -36.9467   59.5286   65.1263 O   0  0  0  0  0  0  0  0  0  0  0  0
  -35.0926   60.1729   63.0468 O   0  0  0  0  0  0  0  0  0  0  0  0
  -35.7645   64.0705   64.3720 O   0  0  0  0  0  0  0  0  0  0  0  0
  -36.2548   61.6382   66.1040 O   0  0  0  0  0  0  0  0  0  0  0  0
  -35.8902   60.5563   65.2129 C   0  0  0  0  0  0  0  0  0  0  0  0
  -35.4784   61.2153   63.8885 C   0  0  0  0  0  0  0  0  0  0  0  0
  -34.2910   62.1934   64.0251 C   0  0  0  0  0  0  0  0  0  0  0  0
  -34.7430   63.2744   64.9677 C   0  0  0  0  0  0  0  0  0  0  0  0
  -35.2286   62.6543   66.2654 C   0  0  0  0  0  0  0  0  0  0  0  0
  -35.8274   59.5473   62.9491 H   0  0  0  0  0  0  0  0  0  0  0  0
  -35.4334   64.4561   63.5459 H   0  0  0  0  0  0  0  0  0  0  0  0
  -37.0168   64.0947   66.9298 O   0  0  0  0  0  0  0  0  0  0  0  0
  -35.6409   63.8945   67.0555 C   0  0  0  0  0  0  0  0  0  0  0  0
  -37.2761   64.8827   67.4324 H   0  0  0  0  0  0  0  0  0  0  0  0
  -33.8789   62.8640   62.8125 O   0  0  0  0  0  0  0  0  0  0  0  0
  -32.1307   64.1147   61.3646 O   0  0  0  0  0  0  0  0  0  0  0  0
  -31.5546   63.4456   63.6250 O   0  0  0  0  0  0  0  0  0  0  0  0
  -33.0312   65.3307   63.2506 O   0  0  0  0  0  0  0  0  0  0  0  0
  -32.6425   63.9779   62.7603 S   0  0  0  0  0  0  0  0  0  0  0  0
  -31.8722   63.2426   61.0280 H   0  0  0  0  0  0  0  0  0  0  0  0
  -33.7406   65.6854   62.6921 H   0  0  0  0  0  0  0  0  0  0  0  0
  2  1  1  0  0  0
  2  4  1  0  0  0
  2  5  1  0  0  0
 41 42  1  0  0  0
 41  1  1  0  0  0
 42 46  1  0  0  0
  1 24  1  0  0  0
 23 24  1  0  0  0
 23 25  1  0  0  0
 24 26  1  0  0  0
  3  4  2  0  0  0
 26 27  2  0  0  0
 27 28  1  0  0  0
 43 47  1  0  0  0
 43 51  1  0  0  0
 28 29  1  0  0  0
 56 48  1  0  0  0
 56 60  1  0  0  0
 29 30  1  0  0  0
 57 60  1  0  0  0
 57 61  1  0  0  0
 30 31  1  0  0  0
 44 49  1  0  0  0
 44 52  1  0  0  0
 31 32  1  0  0  0
 45 46  1  0  0  0
 45 50  1  0  0  0
 32 33  1  0  0  0
 53 54  1  0  0  0
 53 55  1  0  0  0
 33 34  1  0  0  0
 34 35  1  0  0  0
 35 36  1  0  0  0
 58 60  1  0  0  0
 36 37  1  0  0  0
 59 60  1  0  0  0
 59 62  1  0  0  0
 37 38  1  0  0  0
 38 39  1  0  0  0
 39 40  1  0  0  0
  4  6  1  0  0  0
  6  7  1  0  0  0
  7  8  1  0  0  0
  8  9  1  0  0  0
  9 10  1  0  0  0
 10 11  1  0  0  0
 11 12  1  0  0  0
 12 13  1  0  0  0
 13 14  1  0  0  0
 14 15  1  0  0  0
 15 16  1  0  0  0
 16 17  1  0  0  0
 17 18  1  0  0  0
 18 19  1  0  0  0
 19 20  1  0  0  0
 20 21  1  0  0  0
 21 22  1  0  0  0
 46 47  1  0  0  0
 47 48  1  0  0  0
 48 49  1  0  0  0
 49 50  1  0  0  0
 50 54  1  0  0  0
M  CHG 1  58  -1
M  END
> <minimizedAffinity>
-9.81188

> <CNNscore>
0.3276697397

> <CNNaffinity>
6.8879332542

> <CNN_VS>
2.2569673061

> <CNNaffinity_variance>
0.5399354696

$$$$
/media/chris/experiments/cd1a-new-docking/inputs/ligands/1onq_ligand.pdb


 62 62  0  0  0  0  0  0  0  0999 V2000
  -40.2019   58.7370   64.7070 C   0  0  0  0  0  0  0  0  0  0  0  0
  -41.1987   58.1087   65.5513 N   0  0  0  0  0  0  0  0  0  0  0  0
  -43.0898   59.2106   64.9537 O   0  0  0  0  0  0  0  0  0  0  0  0
  -42.5109   58.3723   65.6169 C   0  0  0  0  0  0  0  0  0  0  0  0
  -40.8709   57.4002   66.1510 H   0  0  0  0  0  0  0  0  0  0  0  0
  -43.2813   57.5350   66.5942 C   0  0  0  0  0  0  0  0  0  0  0  0
  -44.4774   56.9672   65.8299 C   0  0  0  0  0  0  0  0  0  0  0  0
  -45.7501   57.1305   66.6571 C   0  0  0  0  0  0  0  0  0  0  0  0
  -46.3459   58.5171   66.6910 C   0  0  0  0  0  0  0  0  0  0  0  0
  -46.5861   58.9507   65.2487 C   0  0  0  0  0  0  0  0  0  0  0  0
  -48.0625   59.2523   64.9583 C   0  0  0  0  0  0  0  0  0  0  0  0
  -49.0534   58.4389   65.8109 C   0  0  0  0  0  0  0  0  0  0  0  0
  -50.4647   58.3682   65.1874 C   0  0  0  0  0  0  0  0  0  0  0  0
  -50.8117   59.6846   64.4861 C   0  0  0  0  0  0  0  0  0  0  0  0
  -51.5730   59.5355   63.1745 C   0  0  0  0  0  0  0  0  0  0  0  0
  -50.9156   58.5342   62.2362 C   0  0  0  0  0  0  0  0  0  0  0  0
  -49.7755   59.0746   61.3701 C   0  0  0  0  0  0  0  0  0  0  0  0
  -48.7293   57.9780   61.2225 C   0  0  0  0  0  0  0  0  0  0  0  0
  -48.5654   57.3039   59.8683 C   0  0  0  0  0  0  0  0  0  0  0  0
  -47.0873   57.2637   59.4495 C   0  0  0  0  0  0  0  0  0  0  0  0
  -46.8081   57.8132   58.0384 C   0  0  0  0  0  0  0  0  0  0  0  0
  -47.1876   56.8395   56.9250 C   0  0  0  0  0  0  0  0  0  0  0  0
  -38.1192   57.8333   65.1981 O   0  0  0  0  0  0  0  0  0  0  0  0
  -39.2592   57.5871   64.3961 C   0  0  0  0  0  0  0  0  0  0  0  0
  -38.3734   57.8201   66.1341 H   0  0  0  0  0  0  0  0  0  0  0  0
  -38.9260   57.5946   62.9023 C   0  0  0  0  0  0  0  0  0  0  0  0
  -37.7904   57.0772   62.4032 C   0  0  0  0  0  0  0  0  0  0  0  0
  -37.5304   57.1242   60.8987 C   0  0  0  0  0  0  0  0  0  0  0  0
  -37.8940   58.4662   60.2466 C   0  0  0  0  0  0  0  0  0  0  0  0
  -37.2651   58.7283   58.8657 C   0  0  0  0  0  0  0  0  0  0  0  0
  -37.5069   57.5305   57.9158 C   0  0  0  0  0  0  0  0  0  0  0  0
  -36.3064   56.5647   57.7498 C   0  0  0  0  0  0  0  0  0  0  0  0
  -34.9234   57.2464   57.8731 C   0  0  0  0  0  0  0  0  0  0  0  0
  -33.8677   56.3765   58.5893 C   0  0  0  0  0  0  0  0  0  0  0  0
  -34.4171   55.6074   59.7967 C   0  0  0  0  0  0  0  0  0  0  0  0
  -33.9203   56.0645   61.1666 C   0  0  0  0  0  0  0  0  0  0  0  0
  -33.6747   57.5829   61.2686 C   0  0  0  0  0  0  0  0  0  0  0  0
  -33.0441   58.0570   62.5868 C   0  0  0  0  0  0  0  0  0  0  0  0
  -34.0329   58.8995   63.3976 C   0  0  0  0  0  0  0  0  0  0  0  0
  -34.7356   58.1971   64.5459 C   0  0  0  0  0  0  0  0  0  0  0  0
  -39.5690   60.0287   65.2725 C   0  0  0  0  0  0  0  0  0  0  0  0
  -38.8328   60.8542   64.3346 O   0  0  0  0  0  0  0  0  0  0  0  0
  -36.8077   61.2113   62.3475 O   0  0  0  0  0  0  0  0  0  0  0  0
  -35.7572   64.4546   64.7509 O   0  0  0  0  0  0  0  0  0  0  0  0
  -37.3252   62.0824   65.7851 O   0  0  0  0  0  0  0  0  0  0  0  0
  -37.4374   61.2567   64.6006 C   0  0  0  0  0  0  0  0  0  0  0  0
  -36.7301   62.0265   63.4759 C   0  0  0  0  0  0  0  0  0  0  0  0
  -35.2406   62.3160   63.7637 C   0  0  0  0  0  0  0  0  0  0  0  0
  -35.2093   63.1635   65.0056 C   0  0  0  0  0  0  0  0  0  0  0  0
  -35.9649   62.4663   66.1224 C   0  0  0  0  0  0  0  0  0  0  0  0
  -37.7379   61.0186   62.1511 H   0  0  0  0  0  0  0  0  0  0  0  0
  -35.2604   64.8812   64.0353 H   0  0  0  0  0  0  0  0  0  0  0  0
  -34.4777   63.8139   67.4209 O   0  0  0  0  0  0  0  0  0  0  0  0
  -35.8228   63.4771   67.2583 C   0  0  0  0  0  0  0  0  0  0  0  0
  -34.3901   64.4558   68.1427 H   0  0  0  0  0  0  0  0  0  0  0  0
  -34.5321   63.0634   62.7492 O   0  0  0  0  0  0  0  0  0  0  0  0
  -32.3267   64.0038   63.7335 O   0  0  0  0  0  0  0  0  0  0  0  0
  -32.5431   63.7250   61.3325 O   0  0  0  0  0  0  0  0  0  0  0  0
  -32.2120   61.7939   62.7592 O   0  0  0  0  0  0  0  0  0  0  0  0
  -32.8710   63.1267   62.6550 S   0  0  0  0  0  0  0  0  0  0  0  0
  -32.7447   64.8775   63.6815 H   0  0  0  0  0  0  0  0  0  0  0  0
  -32.4207   61.3963   63.6191 H   0  0  0  0  0  0  0  0  0  0  0  0
  2  1  1  0  0  0
  2  4  1  0  0  0
  2  5  1  0  0  0
 41 42  1  0  0  0
 41  1  1  0  0  0
 42 46  1  0  0  0
  1 24  1  0  0  0
 23 24  1  0  0  0
 23 25  1  0  0  0
 24 26  1  0  0  0
  3  4  2  0  0  0
 26 27  2  0  0  0
 27 28  1  0  0  0
 43 47  1  0  0  0
 43 51  1  0  0  0
 28 29  1  0  0  0
 56 48  1  0  0  0
 56 60  1  0  0  0
 29 30  1  0  0  0
 57 60  1  0  0  0
 57 61  1  0  0  0
 30 31  1  0  0  0
 44 49  1  0  0  0
 44 52  1  0  0  0
 31 32  1  0  0  0
 45 46  1  0  0  0
 45 50  1  0  0  0
 32 33  1  0  0  0
 53 54  1  0  0  0
 53 55  1  0  0  0
 33 34  1  0  0  0
 34 35  1  0  0  0
 35 36  1  0  0  0
 58 60  1  0  0  0
 36 37  1  0  0  0
 59 60  1  0  0  0
 59 62  1  0  0  0
 37 38  1  0  0  0
 38 39  1  0  0  0
 39 40  1  0  0  0
  4  6  1  0  0  0
  6  7  1  0  0  0
  7  8  1  0  0  0
  8  9  1  0  0  0
  9 10  1  0  0  0
 10 11  1  0  0  0
 11 12  1  0  0  0
 12 13  1  0  0  0
 13 14  1  0  0  0
 14 15  1  0  0  0
 15 16  1  0  0  0
 16 17  1  0  0  0
 17 18  1  0  0  0
 18 19  1  0  0  0
 19 20  1  0  0  0
 20 21  1  0  0  0
 21 22  1  0  0  0
 46 47  1  0  0  0
 47 48  1  0  0  0
 48 49  1  0  0  0
 49 50  1  0  0  0
 50 54  1  0  0  0
M  CHG 1  58  -1
M  END
> <minimizedAffinity>
-10.25325

> <CNNscore>
0.3129831553

> <CNNaffinity>
7.0414781570

> <CNN_VS>
2.2038640976

> <CNNaffinity_variance>
1.5440114737

$$$$
/media/chris/experiments/cd1a-new-docking/inputs/ligands/1onq_ligand.pdb


 62 62  0  0  0  0  0  0  0  0999 V2000
  -37.5495   59.3572   62.0640 C   0  0  0  0  0  0  0  0  0  0  0  0
  -38.8109   59.6918   61.4331 N   0  0  0  0  0  0  0  0  0  0  0  0
  -38.1949   59.9921   59.2702 O   0  0  0  0  0  0  0  0  0  0  0  0
  -39.0407   59.9732   60.1433 C   0  0  0  0  0  0  0  0  0  0  0  0
  -39.5965   59.7152   62.0259 H   0  0  0  0  0  0  0  0  0  0  0  0
  -40.4698   60.2733   59.8009 C   0  0  0  0  0  0  0  0  0  0  0  0
  -40.7323   59.6335   58.4375 C   0  0  0  0  0  0  0  0  0  0  0  0
  -42.2305   59.4115   58.2454 C   0  0  0  0  0  0  0  0  0  0  0  0
  -42.6546   58.8764   56.8991 C   0  0  0  0  0  0  0  0  0  0  0  0
  -44.0027   58.1870   57.0812 C   0  0  0  0  0  0  0  0  0  0  0  0
  -44.4382   58.1151   58.5510 C   0  0  0  0  0  0  0  0  0  0  0  0
  -45.9074   57.7026   58.7555 C   0  0  0  0  0  0  0  0  0  0  0  0
  -46.7171   57.6937   57.4404 C   0  0  0  0  0  0  0  0  0  0  0  0
  -47.7527   56.5656   57.4515 C   0  0  0  0  0  0  0  0  0  0  0  0
  -47.6417   55.5998   58.6251 C   0  0  0  0  0  0  0  0  0  0  0  0
  -48.6812   55.8771   59.7011 C   0  0  0  0  0  0  0  0  0  0  0  0
  -49.6752   57.0012   59.4001 C   0  0  0  0  0  0  0  0  0  0  0  0
  -49.4562   58.1144   60.4158 C   0  0  0  0  0  0  0  0  0  0  0  0
  -49.5761   57.7849   61.8963 C   0  0  0  0  0  0  0  0  0  0  0  0
  -50.9396   58.2283   62.4496 C   0  0  0  0  0  0  0  0  0  0  0  0
  -51.0740   59.7454   62.6764 C   0  0  0  0  0  0  0  0  0  0  0  0
  -51.6237   60.1036   64.0552 C   0  0  0  0  0  0  0  0  0  0  0  0
  -37.8908   57.0964   61.6541 O   0  0  0  0  0  0  0  0  0  0  0  0
  -37.8531   58.0228   62.7236 C   0  0  0  0  0  0  0  0  0  0  0  0
  -37.0246   57.0702   61.2183 H   0  0  0  0  0  0  0  0  0  0  0  0
  -39.1938   58.1129   63.4561 C   0  0  0  0  0  0  0  0  0  0  0  0
  -39.2953   58.1410   64.7960 C   0  0  0  0  0  0  0  0  0  0  0  0
  -40.6716   58.2307   65.4525 C   0  0  0  0  0  0  0  0  0  0  0  0
  -41.1375   59.6683   65.7258 C   0  0  0  0  0  0  0  0  0  0  0  0
  -42.0207   59.8569   66.9730 C   0  0  0  0  0  0  0  0  0  0  0  0
  -43.1820   58.8338   66.9835 C   0  0  0  0  0  0  0  0  0  0  0  0
  -44.4301   59.2410   66.1602 C   0  0  0  0  0  0  0  0  0  0  0  0
  -44.6020   58.4543   64.8395 C   0  0  0  0  0  0  0  0  0  0  0  0
  -45.3575   57.1185   65.0102 C   0  0  0  0  0  0  0  0  0  0  0  0
  -45.6901   56.7789   66.4680 C   0  0  0  0  0  0  0  0  0  0  0  0
  -47.1744   56.7333   66.8249 C   0  0  0  0  0  0  0  0  0  0  0  0
  -48.1145   56.8926   65.6138 C   0  0  0  0  0  0  0  0  0  0  0  0
  -48.9895   58.1553   65.6259 C   0  0  0  0  0  0  0  0  0  0  0  0
  -48.1755   59.3845   66.0399 C   0  0  0  0  0  0  0  0  0  0  0  0
  -47.9140   60.4171   64.9577 C   0  0  0  0  0  0  0  0  0  0  0  0
  -36.9404   60.4593   62.9602 C   0  0  0  0  0  0  0  0  0  0  0  0
  -35.8774   60.0507   63.8582 O   0  0  0  0  0  0  0  0  0  0  0  0
  -33.5980   61.3326   62.7012 O   0  0  0  0  0  0  0  0  0  0  0  0
  -35.0882   64.6554   64.7352 O   0  0  0  0  0  0  0  0  0  0  0  0
  -35.7551   61.8111   65.5229 O   0  0  0  0  0  0  0  0  0  0  0  0
  -35.0225   61.0460   64.5353 C   0  0  0  0  0  0  0  0  0  0  0  0
  -34.3319   62.0734   63.6268 C   0  0  0  0  0  0  0  0  0  0  0  0
  -33.3609   63.0113   64.3768 C   0  0  0  0  0  0  0  0  0  0  0  0
  -34.1913   63.7576   65.3843 C   0  0  0  0  0  0  0  0  0  0  0  0
  -34.9491   62.7726   66.2560 C   0  0  0  0  0  0  0  0  0  0  0  0
  -34.1927   60.7365   62.2196 H   0  0  0  0  0  0  0  0  0  0  0  0
  -34.5838   65.2745   64.1846 H   0  0  0  0  0  0  0  0  0  0  0  0
  -36.9655   64.0029   66.6224 O   0  0  0  0  0  0  0  0  0  0  0  0
  -35.7174   63.7165   67.1785 C   0  0  0  0  0  0  0  0  0  0  0  0
  -37.4513   64.6025   67.2100 H   0  0  0  0  0  0  0  0  0  0  0  0
  -32.7035   64.0175   63.5736 O   0  0  0  0  0  0  0  0  0  0  0  0
  -30.4043   64.0038   64.7695 O   0  0  0  0  0  0  0  0  0  0  0  0
  -30.7634   65.4870   62.8826 O   0  0  0  0  0  0  0  0  0  0  0  0
  -30.4521   63.1105   62.5232 O   0  0  0  0  0  0  0  0  0  0  0  0
  -31.0488   64.1327   63.4291 S   0  0  0  0  0  0  0  0  0  0  0  0
  -30.7806   64.6625   65.3739 H   0  0  0  0  0  0  0  0  0  0  0  0
  -30.6336   62.2238   62.8722 H   0  0  0  0  0  0  0  0  0  0  0  0
  2  1  1  0  0  0
  2  4  1  0  0  0
  2  5  1  0  0  0
 41 42  1  0  0  0
 41  1  1  0  0  0
 42 46  1  0  0  0
  1 24  1  0  0  0
 23 24  1  0  0  0
 23 25  1  0  0  0
 24 26  1  0  0  0
  3  4  2  0  0  0
 26 27  2  0  0  0
 27 28  1  0  0  0
 43 47  1  0  0  0
 43 51  1  0  0  0
 28 29  1  0  0  0
 56 48  1  0  0  0
 56 60  1  0  0  0
 29 30  1  0  0  0
 57 60  1  0  0  0
 57 61  1  0  0  0
 30 31  1  0  0  0
 44 49  1  0  0  0
 44 52  1  0  0  0
 31 32  1  0  0  0
 45 46  1  0  0  0
 45 50  1  0  0  0
 32 33  1  0  0  0
 53 54  1  0  0  0
 53 55  1  0  0  0
 33 34  1  0  0  0
 34 35  1  0  0  0
 35 36  1  0  0  0
 58 60  1  0  0  0
 36 37  1  0  0  0
 59 60  1  0  0  0
 59 62  1  0  0  0
 37 38  1  0  0  0
 38 39  1  0  0  0
 39 40  1  0  0  0
  4  6  1  0  0  0
  6  7  1  0  0  0
  7  8  1  0  0  0
  8  9  1  0  0  0
  9 10  1  0  0  0
 10 11  1  0  0  0
 11 12  1  0  0  0
 12 13  1  0  0  0
 13 14  1  0  0  0
 14 15  1  0  0  0
 15 16  1  0  0  0
 16 17  1  0  0  0
 17 18  1  0  0  0
 18 19  1  0  0  0
 19 20  1  0  0  0
 20 21  1  0  0  0
 21 22  1  0  0  0
 46 47  1  0  0  0
 47 48  1  0  0  0
 48 49  1  0  0  0
 49 50  1  0  0  0
 50 54  1  0  0  0
M  CHG 1  58  -1
M  END
> <minimizedAffinity>
-9.45279

> <CNNscore>
0.2334416807

> <CNNaffinity>
6.8833990097

> <CNN_VS>
1.6068722010

> <CNNaffinity_variance>
1.1620872021

$$$$
