/media/chris/experiments/cd1a-new-docking/inputs/ligands/1onq_ligand.pdb


 62 62  0  0  0  0  0  0  0  0999 V2000
  -38.1043   59.8718   59.7373 C   0  0  0  0  0  0  0  0  0  0  0  0
  -39.4671   59.4714   59.4482 N   0  0  0  0  0  0  0  0  0  0  0  0
  -40.6239   61.3732   59.8870 O   0  0  0  0  0  0  0  0  0  0  0  0
  -40.5818   60.2098   59.5371 C   0  0  0  0  0  0  0  0  0  0  0  0
  -39.5889   58.5413   59.1495 H   0  0  0  0  0  0  0  0  0  0  0  0
  -41.8480   59.5014   59.1567 C   0  0  0  0  0  0  0  0  0  0  0  0
  -41.8694   59.4425   57.6292 C   0  0  0  0  0  0  0  0  0  0  0  0
  -43.1425   58.7481   57.1518 C   0  0  0  0  0  0  0  0  0  0  0  0
  -44.0968   58.2970   58.2308 C   0  0  0  0  0  0  0  0  0  0  0  0
  -45.4988   58.2851   57.6306 C   0  0  0  0  0  0  0  0  0  0  0  0
  -46.3587   57.1278   58.1557 C   0  0  0  0  0  0  0  0  0  0  0  0
  -47.3616   57.5320   59.2518 C   0  0  0  0  0  0  0  0  0  0  0  0
  -48.8014   57.0604   58.9518 C   0  0  0  0  0  0  0  0  0  0  0  0
  -49.8162   57.8791   59.7549 C   0  0  0  0  0  0  0  0  0  0  0  0
  -50.5639   57.1024   60.8318 C   0  0  0  0  0  0  0  0  0  0  0  0
  -51.0717   58.0044   61.9468 C   0  0  0  0  0  0  0  0  0  0  0  0
  -50.4245   59.3883   62.0378 C   0  0  0  0  0  0  0  0  0  0  0  0
  -50.1224   59.6770   63.5020 C   0  0  0  0  0  0  0  0  0  0  0  0
  -48.8884   60.4989   63.8438 C   0  0  0  0  0  0  0  0  0  0  0  0
  -47.9308   59.7039   64.7454 C   0  0  0  0  0  0  0  0  0  0  0  0
  -47.8787   58.1941   64.4475 C   0  0  0  0  0  0  0  0  0  0  0  0
  -48.0886   57.3264   65.6862 C   0  0  0  0  0  0  0  0  0  0  0  0
  -38.2377   58.1973   58.1328 O   0  0  0  0  0  0  0  0  0  0  0  0
  -37.2885   58.8680   58.9408 C   0  0  0  0  0  0  0  0  0  0  0  0
  -38.6650   58.8346   57.5393 H   0  0  0  0  0  0  0  0  0  0  0  0
  -36.5756   57.9158   59.9040 C   0  0  0  0  0  0  0  0  0  0  0  0
  -35.7393   56.9481   59.4914 C   0  0  0  0  0  0  0  0  0  0  0  0
  -35.0666   56.0367   60.5162 C   0  0  0  0  0  0  0  0  0  0  0  0
  -33.6084   56.4114   60.8187 C   0  0  0  0  0  0  0  0  0  0  0  0
  -33.3298   56.9019   62.2515 C   0  0  0  0  0  0  0  0  0  0  0  0
  -33.7983   58.3659   62.4316 C   0  0  0  0  0  0  0  0  0  0  0  0
  -34.7824   58.6063   63.6044 C   0  0  0  0  0  0  0  0  0  0  0  0
  -35.5877   57.3534   64.0224 C   0  0  0  0  0  0  0  0  0  0  0  0
  -37.0758   57.4113   63.6146 C   0  0  0  0  0  0  0  0  0  0  0  0
  -37.9765   58.0833   64.6579 C   0  0  0  0  0  0  0  0  0  0  0  0
  -39.4314   57.6195   64.6872 C   0  0  0  0  0  0  0  0  0  0  0  0
  -40.4558   58.7710   64.6675 C   0  0  0  0  0  0  0  0  0  0  0  0
  -41.6484   58.6028   65.6212 C   0  0  0  0  0  0  0  0  0  0  0  0
  -42.8711   59.3726   65.1137 C   0  0  0  0  0  0  0  0  0  0  0  0
  -44.1726   58.5948   65.0323 C   0  0  0  0  0  0  0  0  0  0  0  0
  -37.7587   60.0237   61.2360 C   0  0  0  0  0  0  0  0  0  0  0  0
  -37.5904   61.3774   61.7284 O   0  0  0  0  0  0  0  0  0  0  0  0
  -35.5387   63.3673   61.6385 O   0  0  0  0  0  0  0  0  0  0  0  0
  -36.7168   64.0115   65.5877 O   0  0  0  0  0  0  0  0  0  0  0  0
  -37.2206   61.4107   64.1258 O   0  0  0  0  0  0  0  0  0  0  0  0
  -36.6481   61.6821   62.8235 C   0  0  0  0  0  0  0  0  0  0  0  0
  -36.1223   63.1235   62.8811 C   0  0  0  0  0  0  0  0  0  0  0  0
  -35.0530   63.3506   63.9721 C   0  0  0  0  0  0  0  0  0  0  0  0
  -35.7186   63.0401   65.2844 C   0  0  0  0  0  0  0  0  0  0  0  0
  -36.3171   61.6458   65.2394 C   0  0  0  0  0  0  0  0  0  0  0  0
  -36.1969   63.2293   60.9395 H   0  0  0  0  0  0  0  0  0  0  0  0
  -36.3133   64.8933   65.6113 H   0  0  0  0  0  0  0  0  0  0  0  0
  -36.1428   62.2252   67.5519 O   0  0  0  0  0  0  0  0  0  0  0  0
  -36.9371   61.5397   66.6310 C   0  0  0  0  0  0  0  0  0  0  0  0
  -36.5386   62.1563   68.4347 H   0  0  0  0  0  0  0  0  0  0  0  0
  -34.5427   64.6982   64.0895 O   0  0  0  0  0  0  0  0  0  0  0  0
  -33.0979   65.5292   66.0741 O   0  0  0  0  0  0  0  0  0  0  0  0
  -32.4885   66.1479   63.8082 O   0  0  0  0  0  0  0  0  0  0  0  0
  -32.0761   63.8983   64.6104 O   0  0  0  0  0  0  0  0  0  0  0  0
  -33.0196   65.0511   64.6621 S   0  0  0  0  0  0  0  0  0  0  0  0
  -33.7086   66.2808   66.1276 H   0  0  0  0  0  0  0  0  0  0  0  0
  -32.4150   63.1781   65.1647 H   0  0  0  0  0  0  0  0  0  0  0  0
  2  1  1  0  0  0
  2  4  1  0  0  0
  2  5  1  0  0  0
 41 42  1  0  0  0
 41  1  1  0  0  0
 42 46  1  0  0  0
  1 24  1  0  0  0
 23 24  1  0  0  0
 23 25  1  0  0  0
 24 26  1  0  0  0
  3  4  2  0  0  0
 26 27  2  0  0  0
 27 28  1  0  0  0
 43 47  1  0  0  0
 43 51  1  0  0  0
 28 29  1  0  0  0
 56 48  1  0  0  0
 56 60  1  0  0  0
 29 30  1  0  0  0
 57 60  1  0  0  0
 57 61  1  0  0  0
 30 31  1  0  0  0
 44 49  1  0  0  0
 44 52  1  0  0  0
 31 32  1  0  0  0
 45 46  1  0  0  0
 45 50  1  0  0  0
 32 33  1  0  0  0
 53 54  1  0  0  0
 53 55  1  0  0  0
 33 34  1  0  0  0
 34 35  1  0  0  0
 35 36  1  0  0  0
 58 60  1  0  0  0
 36 37  1  0  0  0
 59 60  1  0  0  0
 59 62  1  0  0  0
 37 38  1  0  0  0
 38 39  1  0  0  0
 39 40  1  0  0  0
  4  6  1  0  0  0
  6  7  1  0  0  0
  7  8  1  0  0  0
  8  9  1  0  0  0
  9 10  1  0  0  0
 10 11  1  0  0  0
 11 12  1  0  0  0
 12 13  1  0  0  0
 13 14  1  0  0  0
 14 15  1  0  0  0
 15 16  1  0  0  0
 16 17  1  0  0  0
 17 18  1  0  0  0
 18 19  1  0  0  0
 19 20  1  0  0  0
 20 21  1  0  0  0
 21 22  1  0  0  0
 46 47  1  0  0  0
 47 48  1  0  0  0
 48 49  1  0  0  0
 49 50  1  0  0  0
 50 54  1  0  0  0
M  CHG 1  58  -1
M  END
> <minimizedAffinity>
-8.71999

> <CNNscore>
0.3540029228

> <CNNaffinity>
7.0621657372

> <CNN_VS>
2.5000274181

> <CNNaffinity_variance>
1.3854855299

$$$$
/media/chris/experiments/cd1a-new-docking/inputs/ligands/1onq_ligand.pdb


 62 62  0  0  0  0  0  0  0  0999 V2000
  -37.7546   59.6416   59.9325 C   0  0  0  0  0  0  0  0  0  0  0  0
  -38.8385   59.2174   59.0685 N   0  0  0  0  0  0  0  0  0  0  0  0
  -40.4237   60.7846   59.4912 O   0  0  0  0  0  0  0  0  0  0  0  0
  -40.0413   59.7868   58.9116 C   0  0  0  0  0  0  0  0  0  0  0  0
  -38.6700   58.4106   58.5302 H   0  0  0  0  0  0  0  0  0  0  0  0
  -40.9454   59.1062   57.9271 C   0  0  0  0  0  0  0  0  0  0  0  0
  -42.3730   59.5022   58.3042 C   0  0  0  0  0  0  0  0  0  0  0  0
  -43.3730   58.7040   57.4712 C   0  0  0  0  0  0  0  0  0  0  0  0
  -44.4334   57.9574   58.2435 C   0  0  0  0  0  0  0  0  0  0  0  0
  -45.7888   58.3575   57.6700 C   0  0  0  0  0  0  0  0  0  0  0  0
  -46.6733   57.1478   57.3397 C   0  0  0  0  0  0  0  0  0  0  0  0
  -48.0438   57.1563   58.0411 C   0  0  0  0  0  0  0  0  0  0  0  0
  -47.9483   56.8390   59.5497 C   0  0  0  0  0  0  0  0  0  0  0  0
  -49.2817   56.2976   60.0731 C   0  0  0  0  0  0  0  0  0  0  0  0
  -50.4465   57.2777   60.0063 C   0  0  0  0  0  0  0  0  0  0  0  0
  -51.0076   57.6024   61.3828 C   0  0  0  0  0  0  0  0  0  0  0  0
  -50.4931   58.8899   62.0306 C   0  0  0  0  0  0  0  0  0  0  0  0
  -50.8567   58.8569   63.5089 C   0  0  0  0  0  0  0  0  0  0  0  0
  -49.8822   58.2152   64.4855 C   0  0  0  0  0  0  0  0  0  0  0  0
  -49.8646   58.9730   65.8224 C   0  0  0  0  0  0  0  0  0  0  0  0
  -48.4985   59.5770   66.1962 C   0  0  0  0  0  0  0  0  0  0  0  0
  -47.8114   60.2842   65.0303 C   0  0  0  0  0  0  0  0  0  0  0  0
  -37.7544   57.3385   59.6298 O   0  0  0  0  0  0  0  0  0  0  0  0
  -36.8950   58.3924   60.0226 C   0  0  0  0  0  0  0  0  0  0  0  0
  -38.0475   57.4836   58.7165 H   0  0  0  0  0  0  0  0  0  0  0  0
  -36.3949   58.2237   61.4592 C   0  0  0  0  0  0  0  0  0  0  0  0
  -35.5534   57.2440   61.8310 C   0  0  0  0  0  0  0  0  0  0  0  0
  -35.1007   57.1422   63.2863 C   0  0  0  0  0  0  0  0  0  0  0  0
  -36.0240   57.8666   64.2767 C   0  0  0  0  0  0  0  0  0  0  0  0
  -37.1533   57.0125   64.8820 C   0  0  0  0  0  0  0  0  0  0  0  0
  -38.4199   57.8684   65.1238 C   0  0  0  0  0  0  0  0  0  0  0  0
  -39.4057   57.9432   63.9304 C   0  0  0  0  0  0  0  0  0  0  0  0
  -40.5229   59.0001   64.0970 C   0  0  0  0  0  0  0  0  0  0  0  0
  -41.0526   59.1161   65.5427 C   0  0  0  0  0  0  0  0  0  0  0  0
  -42.0600   58.0237   65.9210 C   0  0  0  0  0  0  0  0  0  0  0  0
  -43.4419   58.5065   66.3566 C   0  0  0  0  0  0  0  0  0  0  0  0
  -44.4396   58.6792   65.1944 C   0  0  0  0  0  0  0  0  0  0  0  0
  -45.3835   57.4901   64.9597 C   0  0  0  0  0  0  0  0  0  0  0  0
  -45.9615   56.9774   66.2820 C   0  0  0  0  0  0  0  0  0  0  0  0
  -47.2205   56.1341   66.1865 C   0  0  0  0  0  0  0  0  0  0  0  0
  -38.1830   60.2951   61.2660 C   0  0  0  0  0  0  0  0  0  0  0  0
  -37.5799   61.5752   61.5837 O   0  0  0  0  0  0  0  0  0  0  0  0
  -35.3133   63.3189   61.5816 O   0  0  0  0  0  0  0  0  0  0  0  0
  -36.3983   63.8792   65.5700 O   0  0  0  0  0  0  0  0  0  0  0  0
  -37.2018   61.4361   63.9759 O   0  0  0  0  0  0  0  0  0  0  0  0
  -36.6056   61.7102   62.6848 C   0  0  0  0  0  0  0  0  0  0  0  0
  -35.9175   63.0766   62.8146 C   0  0  0  0  0  0  0  0  0  0  0  0
  -34.8260   63.1204   63.9064 C   0  0  0  0  0  0  0  0  0  0  0  0
  -35.5192   62.8176   65.2062 C   0  0  0  0  0  0  0  0  0  0  0  0
  -36.2741   61.5056   65.0922 C   0  0  0  0  0  0  0  0  0  0  0  0
  -35.9851   63.2951   60.8822 H   0  0  0  0  0  0  0  0  0  0  0  0
  -35.8960   64.7063   65.6370 H   0  0  0  0  0  0  0  0  0  0  0  0
  -38.2151   60.9463   66.3704 O   0  0  0  0  0  0  0  0  0  0  0  0
  -36.8982   61.3961   66.4818 C   0  0  0  0  0  0  0  0  0  0  0  0
  -38.6091   60.8778   67.2540 H   0  0  0  0  0  0  0  0  0  0  0  0
  -34.1640   64.3923   64.0910 O   0  0  0  0  0  0  0  0  0  0  0  0
  -31.6831   63.6427   64.0926 O   0  0  0  0  0  0  0  0  0  0  0  0
  -32.2188   66.0086   64.1586 O   0  0  0  0  0  0  0  0  0  0  0  0
  -32.4665   64.7596   62.0963 O   0  0  0  0  0  0  0  0  0  0  0  0
  -32.6090   64.6949   63.5786 S   0  0  0  0  0  0  0  0  0  0  0  0
  -31.7619   63.5859   65.0576 H   0  0  0  0  0  0  0  0  0  0  0  0
  -32.7190   63.9066   61.7098 H   0  0  0  0  0  0  0  0  0  0  0  0
  2  1  1  0  0  0
  2  4  1  0  0  0
  2  5  1  0  0  0
 41 42  1  0  0  0
 41  1  1  0  0  0
 42 46  1  0  0  0
  1 24  1  0  0  0
 23 24  1  0  0  0
 23 25  1  0  0  0
 24 26  1  0  0  0
  3  4  2  0  0  0
 26 27  2  0  0  0
 27 28  1  0  0  0
 43 47  1  0  0  0
 43 51  1  0  0  0
 28 29  1  0  0  0
 56 48  1  0  0  0
 56 60  1  0  0  0
 29 30  1  0  0  0
 57 60  1  0  0  0
 57 61  1  0  0  0
 30 31  1  0  0  0
 44 49  1  0  0  0
 44 52  1  0  0  0
 31 32  1  0  0  0
 45 46  1  0  0  0
 45 50  1  0  0  0
 32 33  1  0  0  0
 53 54  1  0  0  0
 53 55  1  0  0  0
 33 34  1  0  0  0
 34 35  1  0  0  0
 35 36  1  0  0  0
 58 60  1  0  0  0
 36 37  1  0  0  0
 59 60  1  0  0  0
 59 62  1  0  0  0
 37 38  1  0  0  0
 38 39  1  0  0  0
 39 40  1  0  0  0
  4  6  1  0  0  0
  6  7  1  0  0  0
  7  8  1  0  0  0
  8  9  1  0  0  0
  9 10  1  0  0  0
 10 11  1  0  0  0
 11 12  1  0  0  0
 12 13  1  0  0  0
 13 14  1  0  0  0
 14 15  1  0  0  0
 15 16  1  0  0  0
 16 17  1  0  0  0
 17 18  1  0  0  0
 18 19  1  0  0  0
 19 20  1  0  0  0
 20 21  1  0  0  0
 21 22  1  0  0  0
 46 47  1  0  0  0
 47 48  1  0  0  0
 48 49  1  0  0  0
 49 50  1  0  0  0
 50 54  1  0  0  0
M  CHG 1  58  -1
M  END
> <minimizedAffinity>
-8.49451

> <CNNscore>
0.3426428139

> <CNNaffinity>
7.0517058372

> <CNN_VS>
2.4162163734

> <CNNaffinity_variance>
1.0850903988

$$$$
/media/chris/experiments/cd1a-new-docking/inputs/ligands/1onq_ligand.pdb


 62 62  0  0  0  0  0  0  0  0999 V2000
  -40.0355   59.0496   64.5136 C   0  0  0  0  0  0  0  0  0  0  0  0
  -40.0818   59.1663   63.0695 N   0  0  0  0  0  0  0  0  0  0  0  0
  -40.7435   61.3181   62.7879 O   0  0  0  0  0  0  0  0  0  0  0  0
  -40.4157   60.2377   62.3373 C   0  0  0  0  0  0  0  0  0  0  0  0
  -39.8377   58.3576   62.5638 H   0  0  0  0  0  0  0  0  0  0  0  0
  -40.3562   60.0385   60.8518 C   0  0  0  0  0  0  0  0  0  0  0  0
  -38.8766   60.0720   60.4690 C   0  0  0  0  0  0  0  0  0  0  0  0
  -38.6645   59.3467   59.1424 C   0  0  0  0  0  0  0  0  0  0  0  0
  -37.3238   58.6778   58.9589 C   0  0  0  0  0  0  0  0  0  0  0  0
  -37.4672   57.6592   57.8329 C   0  0  0  0  0  0  0  0  0  0  0  0
  -36.3305   56.6285   57.8174 C   0  0  0  0  0  0  0  0  0  0  0  0
  -34.9352   57.2221   58.0843 C   0  0  0  0  0  0  0  0  0  0  0  0
  -33.9897   56.2341   58.8024 C   0  0  0  0  0  0  0  0  0  0  0  0
  -34.5036   55.9218   60.2107 C   0  0  0  0  0  0  0  0  0  0  0  0
  -33.4950   56.1484   61.3303 C   0  0  0  0  0  0  0  0  0  0  0  0
  -33.1576   57.6205   61.5142 C   0  0  0  0  0  0  0  0  0  0  0  0
  -32.8934   58.0739   62.9519 C   0  0  0  0  0  0  0  0  0  0  0  0
  -34.1103   58.8500   63.4373 C   0  0  0  0  0  0  0  0  0  0  0  0
  -34.9821   58.2355   64.5223 C   0  0  0  0  0  0  0  0  0  0  0  0
  -36.0489   57.3122   63.9130 C   0  0  0  0  0  0  0  0  0  0  0  0
  -36.7208   57.8641   62.6422 C   0  0  0  0  0  0  0  0  0  0  0  0
  -37.6282   56.8500   61.9496 C   0  0  0  0  0  0  0  0  0  0  0  0
  -41.0441   60.7540   65.7276 O   0  0  0  0  0  0  0  0  0  0  0  0
  -41.3751   59.6285   64.9355 C   0  0  0  0  0  0  0  0  0  0  0  0
  -40.5519   61.3942   65.1901 H   0  0  0  0  0  0  0  0  0  0  0  0
  -42.1557   58.5761   65.7265 C   0  0  0  0  0  0  0  0  0  0  0  0
  -43.3973   58.1833   65.3947 C   0  0  0  0  0  0  0  0  0  0  0  0
  -44.1110   57.1271   66.2364 C   0  0  0  0  0  0  0  0  0  0  0  0
  -45.5864   57.4480   66.5163 C   0  0  0  0  0  0  0  0  0  0  0  0
  -46.0108   58.9065   66.2635 C   0  0  0  0  0  0  0  0  0  0  0  0
  -47.3220   58.9626   65.4433 C   0  0  0  0  0  0  0  0  0  0  0  0
  -48.2691   57.7495   65.6254 C   0  0  0  0  0  0  0  0  0  0  0  0
  -49.7729   58.1109   65.6021 C   0  0  0  0  0  0  0  0  0  0  0  0
  -50.1669   59.0394   64.4330 C   0  0  0  0  0  0  0  0  0  0  0  0
  -50.8746   58.3160   63.2810 C   0  0  0  0  0  0  0  0  0  0  0  0
  -50.1879   58.3904   61.9188 C   0  0  0  0  0  0  0  0  0  0  0  0
  -50.7867   57.4399   60.8634 C   0  0  0  0  0  0  0  0  0  0  0  0
  -49.8757   57.1356   59.6644 C   0  0  0  0  0  0  0  0  0  0  0  0
  -48.5223   57.8372   59.8101 C   0  0  0  0  0  0  0  0  0  0  0  0
  -47.3168   57.1008   59.2533 C   0  0  0  0  0  0  0  0  0  0  0  0
  -38.7749   59.6360   65.1888 C   0  0  0  0  0  0  0  0  0  0  0  0
  -38.3636   60.9578   64.7567 O   0  0  0  0  0  0  0  0  0  0  0  0
  -36.4591   61.1873   62.6359 O   0  0  0  0  0  0  0  0  0  0  0  0
  -35.3686   64.6486   64.6925 O   0  0  0  0  0  0  0  0  0  0  0  0
  -36.8137   62.3400   66.0107 O   0  0  0  0  0  0  0  0  0  0  0  0
  -36.9672   61.4129   64.9087 C   0  0  0  0  0  0  0  0  0  0  0  0
  -36.3428   62.0984   63.6849 C   0  0  0  0  0  0  0  0  0  0  0  0
  -34.8483   62.4448   63.8631 C   0  0  0  0  0  0  0  0  0  0  0  0
  -34.7730   63.3968   65.0248 C   0  0  0  0  0  0  0  0  0  0  0  0
  -35.4480   62.7819   66.2374 C   0  0  0  0  0  0  0  0  0  0  0  0
  -37.3930   60.9577   62.5091 H   0  0  0  0  0  0  0  0  0  0  0  0
  -34.9228   65.0229   63.9165 H   0  0  0  0  0  0  0  0  0  0  0  0
  -36.4044   63.9546   68.0878 O   0  0  0  0  0  0  0  0  0  0  0  0
  -35.2722   63.8899   67.2735 C   0  0  0  0  0  0  0  0  0  0  0  0
  -36.2903   64.6590   68.7448 H   0  0  0  0  0  0  0  0  0  0  0  0
  -34.2160   63.1176   62.7507 O   0  0  0  0  0  0  0  0  0  0  0  0
  -31.8046   63.2889   63.6848 O   0  0  0  0  0  0  0  0  0  0  0  0
  -32.2813   64.0955   61.4463 O   0  0  0  0  0  0  0  0  0  0  0  0
  -32.1489   61.7149   61.8819 O   0  0  0  0  0  0  0  0  0  0  0  0
  -32.5831   63.0279   62.4380 S   0  0  0  0  0  0  0  0  0  0  0  0
  -32.0740   64.1409   64.0619 H   0  0  0  0  0  0  0  0  0  0  0  0
  -32.3422   61.0127   62.5225 H   0  0  0  0  0  0  0  0  0  0  0  0
  2  1  1  0  0  0
  2  4  1  0  0  0
  2  5  1  0  0  0
 41 42  1  0  0  0
 41  1  1  0  0  0
 42 46  1  0  0  0
  1 24  1  0  0  0
 23 24  1  0  0  0
 23 25  1  0  0  0
 24 26  1  0  0  0
  3  4  2  0  0  0
 26 27  2  0  0  0
 27 28  1  0  0  0
 43 47  1  0  0  0
 43 51  1  0  0  0
 28 29  1  0  0  0
 56 48  1  0  0  0
 56 60  1  0  0  0
 29 30  1  0  0  0
 57 60  1  0  0  0
 57 61  1  0  0  0
 30 31  1  0  0  0
 44 49  1  0  0  0
 44 52  1  0  0  0
 31 32  1  0  0  0
 45 46  1  0  0  0
 45 50  1  0  0  0
 32 33  1  0  0  0
 53 54  1  0  0  0
 53 55  1  0  0  0
 33 34  1  0  0  0
 34 35  1  0  0  0
 35 36  1  0  0  0
 58 60  1  0  0  0
 36 37  1  0  0  0
 59 60  1  0  0  0
 59 62  1  0  0  0
 37 38  1  0  0  0
 38 39  1  0  0  0
 39 40  1  0  0  0
  4  6  1  0  0  0
  6  7  1  0  0  0
  7  8  1  0  0  0
  8  9  1  0  0  0
  9 10  1  0  0  0
 10 11  1  0  0  0
 11 12  1  0  0  0
 12 13  1  0  0  0
 13 14  1  0  0  0
 14 15  1  0  0  0
 15 16  1  0  0  0
 16 17  1  0  0  0
 17 18  1  0  0  0
 18 19  1  0  0  0
 19 20  1  0  0  0
 20 21  1  0  0  0
 21 22  1  0  0  0
 46 47  1  0  0  0
 47 48  1  0  0  0
 48 49  1  0  0  0
 49 50  1  0  0  0
 50 54  1  0  0  0
M  CHG 1  58  -1
M  END
> <minimizedAffinity>
-9.66656

> <CNNscore>
0.3246139884

> <CNNaffinity>
7.4293632507

> <CNN_VS>
2.4116752148

> <CNNaffinity_variance>
1.1926294565

$$$$
/media/chris/experiments/cd1a-new-docking/inputs/ligands/1onq_ligand.pdb


 62 62  0  0  0  0  0  0  0  0999 V2000
  -39.8265   58.7785   63.9367 C   0  0  0  0  0  0  0  0  0  0  0  0
  -40.7536   58.7909   65.0509 N   0  0  0  0  0  0  0  0  0  0  0  0
  -42.3087   60.2905   64.3579 O   0  0  0  0  0  0  0  0  0  0  0  0
  -41.8772   59.5091   65.1831 C   0  0  0  0  0  0  0  0  0  0  0  0
  -40.5300   58.1979   65.8042 H   0  0  0  0  0  0  0  0  0  0  0  0
  -42.6278   59.2891   66.4629 C   0  0  0  0  0  0  0  0  0  0  0  0
  -43.5265   58.0737   66.2347 C   0  0  0  0  0  0  0  0  0  0  0  0
  -44.9904   58.4649   66.4226 C   0  0  0  0  0  0  0  0  0  0  0  0
  -45.5758   59.3710   65.3668 C   0  0  0  0  0  0  0  0  0  0  0  0
  -47.0662   59.5139   65.6570 C   0  0  0  0  0  0  0  0  0  0  0  0
  -47.9331   58.6198   64.7604 C   0  0  0  0  0  0  0  0  0  0  0  0
  -49.1915   58.0626   65.4507 C   0  0  0  0  0  0  0  0  0  0  0  0
  -50.4231   58.9799   65.2850 C   0  0  0  0  0  0  0  0  0  0  0  0
  -50.3879   59.6916   63.9295 C   0  0  0  0  0  0  0  0  0  0  0  0
  -51.1774   59.0066   62.8207 C   0  0  0  0  0  0  0  0  0  0  0  0
  -50.2776   58.4744   61.7153 C   0  0  0  0  0  0  0  0  0  0  0  0
  -50.8109   57.2687   60.9380 C   0  0  0  0  0  0  0  0  0  0  0  0
  -49.7980   56.9129   59.8582 C   0  0  0  0  0  0  0  0  0  0  0  0
  -48.5477   57.7690   59.7205 C   0  0  0  0  0  0  0  0  0  0  0  0
  -47.3532   56.9255   59.2476 C   0  0  0  0  0  0  0  0  0  0  0  0
  -46.7764   57.3440   57.8826 C   0  0  0  0  0  0  0  0  0  0  0  0
  -47.5433   56.7604   56.6982 C   0  0  0  0  0  0  0  0  0  0  0  0
  -38.4444   57.9169   65.5929 O   0  0  0  0  0  0  0  0  0  0  0  0
  -38.9039   57.6235   64.2866 C   0  0  0  0  0  0  0  0  0  0  0  0
  -39.1987   57.9453   66.2022 H   0  0  0  0  0  0  0  0  0  0  0  0
  -37.7592   57.5638   63.2725 C   0  0  0  0  0  0  0  0  0  0  0  0
  -36.4646   57.5291   63.6313 C   0  0  0  0  0  0  0  0  0  0  0  0
  -35.3793   57.4711   62.5579 C   0  0  0  0  0  0  0  0  0  0  0  0
  -34.0916   58.2181   62.9347 C   0  0  0  0  0  0  0  0  0  0  0  0
  -32.7915   57.6476   62.3387 C   0  0  0  0  0  0  0  0  0  0  0  0
  -33.0963   56.4699   61.3820 C   0  0  0  0  0  0  0  0  0  0  0  0
  -33.2907   56.8589   59.8945 C   0  0  0  0  0  0  0  0  0  0  0  0
  -33.9608   55.7611   59.0351 C   0  0  0  0  0  0  0  0  0  0  0  0
  -35.1737   55.0950   59.7201 C   0  0  0  0  0  0  0  0  0  0  0  0
  -36.5213   55.7106   59.3248 C   0  0  0  0  0  0  0  0  0  0  0  0
  -36.5269   56.5525   58.0505 C   0  0  0  0  0  0  0  0  0  0  0  0
  -36.9382   58.0213   58.2727 C   0  0  0  0  0  0  0  0  0  0  0  0
  -37.5370   58.3319   59.6529 C   0  0  0  0  0  0  0  0  0  0  0  0
  -38.1030   59.7542   59.6992 C   0  0  0  0  0  0  0  0  0  0  0  0
  -39.6051   59.8773   59.8836 C   0  0  0  0  0  0  0  0  0  0  0  0
  -39.1595   60.1340   63.6105 C   0  0  0  0  0  0  0  0  0  0  0  0
  -38.7035   60.9206   64.7404 O   0  0  0  0  0  0  0  0  0  0  0  0
  -36.7760   60.9250   62.6280 O   0  0  0  0  0  0  0  0  0  0  0  0
  -35.5227   64.4438   64.4844 O   0  0  0  0  0  0  0  0  0  0  0  0
  -37.0929   62.2952   65.9244 O   0  0  0  0  0  0  0  0  0  0  0  0
  -37.2866   61.3124   64.8783 C   0  0  0  0  0  0  0  0  0  0  0  0
  -36.6200   61.8904   63.6217 C   0  0  0  0  0  0  0  0  0  0  0  0
  -35.1108   62.1705   63.7932 C   0  0  0  0  0  0  0  0  0  0  0  0
  -34.9943   63.1856   64.8966 C   0  0  0  0  0  0  0  0  0  0  0  0
  -35.7078   62.6798   66.1373 C   0  0  0  0  0  0  0  0  0  0  0  0
  -37.7196   60.7359   62.5062 H   0  0  0  0  0  0  0  0  0  0  0  0
  -35.0533   64.7476   63.6917 H   0  0  0  0  0  0  0  0  0  0  0  0
  -36.4615   63.8144   68.1016 O   0  0  0  0  0  0  0  0  0  0  0  0
  -35.4822   63.8379   67.1070 C   0  0  0  0  0  0  0  0  0  0  0  0
  -36.3160   64.5508   68.7160 H   0  0  0  0  0  0  0  0  0  0  0  0
  -34.4377   62.7421   62.6486 O   0  0  0  0  0  0  0  0  0  0  0  0
  -32.3805   63.6226   61.3411 O   0  0  0  0  0  0  0  0  0  0  0  0
  -32.4265   61.3138   62.0867 O   0  0  0  0  0  0  0  0  0  0  0  0
  -32.0266   63.1002   63.6752 O   0  0  0  0  0  0  0  0  0  0  0  0
  -32.7846   62.7111   62.4522 S   0  0  0  0  0  0  0  0  0  0  0  0
  -32.8645   63.3843   60.5350 H   0  0  0  0  0  0  0  0  0  0  0  0
  -32.2544   64.0105   63.9207 H   0  0  0  0  0  0  0  0  0  0  0  0
  2  1  1  0  0  0
  2  4  1  0  0  0
  2  5  1  0  0  0
 41 42  1  0  0  0
 41  1  1  0  0  0
 42 46  1  0  0  0
  1 24  1  0  0  0
 23 24  1  0  0  0
 23 25  1  0  0  0
 24 26  1  0  0  0
  3  4  2  0  0  0
 26 27  2  0  0  0
 27 28  1  0  0  0
 43 47  1  0  0  0
 43 51  1  0  0  0
 28 29  1  0  0  0
 56 48  1  0  0  0
 56 60  1  0  0  0
 29 30  1  0  0  0
 57 60  1  0  0  0
 57 61  1  0  0  0
 30 31  1  0  0  0
 44 49  1  0  0  0
 44 52  1  0  0  0
 31 32  1  0  0  0
 45 46  1  0  0  0
 45 50  1  0  0  0
 32 33  1  0  0  0
 53 54  1  0  0  0
 53 55  1  0  0  0
 33 34  1  0  0  0
 34 35  1  0  0  0
 35 36  1  0  0  0
 58 60  1  0  0  0
 36 37  1  0  0  0
 59 60  1  0  0  0
 59 62  1  0  0  0
 37 38  1  0  0  0
 38 39  1  0  0  0
 39 40  1  0  0  0
  4  6  1  0  0  0
  6  7  1  0  0  0
  7  8  1  0  0  0
  8  9  1  0  0  0
  9 10  1  0  0  0
 10 11  1  0  0  0
 11 12  1  0  0  0
 12 13  1  0  0  0
 13 14  1  0  0  0
 14 15  1  0  0  0
 15 16  1  0  0  0
 16 17  1  0  0  0
 17 18  1  0  0  0
 18 19  1  0  0  0
 19 20  1  0  0  0
 20 21  1  0  0  0
 21 22  1  0  0  0
 46 47  1  0  0  0
 47 48  1  0  0  0
 48 49  1  0  0  0
 49 50  1  0  0  0
 50 54  1  0  0  0
M  CHG 1  58  -1
M  END
> <minimizedAffinity>
-10.04249

> <CNNscore>
0.2970262766

> <CNNaffinity>
7.3046479225

> <CNN_VS>
2.1696724892

> <CNNaffinity_variance>
0.9487026930

$$$$
/media/chris/experiments/cd1a-new-docking/inputs/ligands/1onq_ligand.pdb


 62 62  0  0  0  0  0  0  0  0999 V2000
  -38.6672   60.4014   63.0676 C   0  0  0  0  0  0  0  0  0  0  0  0
  -39.2218   60.1461   64.3823 N   0  0  0  0  0  0  0  0  0  0  0  0
  -41.4527   60.1757   63.9705 O   0  0  0  0  0  0  0  0  0  0  0  0
  -40.5123   60.0545   64.7313 C   0  0  0  0  0  0  0  0  0  0  0  0
  -38.5691   60.0251   65.1093 H   0  0  0  0  0  0  0  0  0  0  0  0
  -40.7618   59.7712   66.1830 C   0  0  0  0  0  0  0  0  0  0  0  0
  -42.2633   59.5212   66.3238 C   0  0  0  0  0  0  0  0  0  0  0  0
  -42.5391   58.0206   66.3813 C   0  0  0  0  0  0  0  0  0  0  0  0
  -43.8809   57.5720   65.8552 C   0  0  0  0  0  0  0  0  0  0  0  0
  -44.5551   58.7834   65.2196 C   0  0  0  0  0  0  0  0  0  0  0  0
  -46.0331   58.9129   65.6115 C   0  0  0  0  0  0  0  0  0  0  0  0
  -47.0160   58.3629   64.5618 C   0  0  0  0  0  0  0  0  0  0  0  0
  -48.4602   58.2431   65.0963 C   0  0  0  0  0  0  0  0  0  0  0  0
  -49.4158   59.1070   64.2684 C   0  0  0  0  0  0  0  0  0  0  0  0
  -50.7196   58.4263   63.8699 C   0  0  0  0  0  0  0  0  0  0  0  0
  -51.0740   58.6671   62.4100 C   0  0  0  0  0  0  0  0  0  0  0  0
  -50.5025   57.6630   61.4063 C   0  0  0  0  0  0  0  0  0  0  0  0
  -49.4437   58.3730   60.5734 C   0  0  0  0  0  0  0  0  0  0  0  0
  -48.2901   57.5562   60.0102 C   0  0  0  0  0  0  0  0  0  0  0  0
  -48.7460   56.7200   58.8040 C   0  0  0  0  0  0  0  0  0  0  0  0
  -47.7423   56.6828   57.6369 C   0  0  0  0  0  0  0  0  0  0  0  0
  -47.5860   55.2953   57.0187 C   0  0  0  0  0  0  0  0  0  0  0  0
  -39.4157   58.2777   62.4969 O   0  0  0  0  0  0  0  0  0  0  0  0
  -38.2171   59.0199   62.6244 C   0  0  0  0  0  0  0  0  0  0  0  0
  -39.9777   58.6851   61.8193 H   0  0  0  0  0  0  0  0  0  0  0  0
  -37.2819   58.4280   63.6815 C   0  0  0  0  0  0  0  0  0  0  0  0
  -36.2996   57.5598   63.3859 C   0  0  0  0  0  0  0  0  0  0  0  0
  -35.4080   57.0127   64.4992 C   0  0  0  0  0  0  0  0  0  0  0  0
  -34.1101   57.8076   64.7033 C   0  0  0  0  0  0  0  0  0  0  0  0
  -33.5714   58.5355   63.4579 C   0  0  0  0  0  0  0  0  0  0  0  0
  -32.4672   57.6993   62.7676 C   0  0  0  0  0  0  0  0  0  0  0  0
  -32.9767   56.5871   61.8162 C   0  0  0  0  0  0  0  0  0  0  0  0
  -33.7441   57.1132   60.5804 C   0  0  0  0  0  0  0  0  0  0  0  0
  -33.9867   56.0371   59.5000 C   0  0  0  0  0  0  0  0  0  0  0  0
  -35.2049   55.1479   59.7764 C   0  0  0  0  0  0  0  0  0  0  0  0
  -36.5573   55.7071   59.3393 C   0  0  0  0  0  0  0  0  0  0  0  0
  -36.5807   56.2253   57.8879 C   0  0  0  0  0  0  0  0  0  0  0  0
  -37.0800   57.6679   57.7157 C   0  0  0  0  0  0  0  0  0  0  0  0
  -37.2339   58.3621   59.0720 C   0  0  0  0  0  0  0  0  0  0  0  0
  -38.4218   59.2958   59.2216 C   0  0  0  0  0  0  0  0  0  0  0  0
  -37.6203   61.5361   62.9955 C   0  0  0  0  0  0  0  0  0  0  0  0
  -36.2270   61.1341   63.0056 O   0  0  0  0  0  0  0  0  0  0  0  0
  -33.4381   61.7058   62.7348 O   0  0  0  0  0  0  0  0  0  0  0  0
  -34.3225   64.7153   65.4844 O   0  0  0  0  0  0  0  0  0  0  0  0
  -36.0252   62.2355   65.1578 O   0  0  0  0  0  0  0  0  0  0  0  0
  -35.3250   61.5263   64.1068 C   0  0  0  0  0  0  0  0  0  0  0  0
  -34.1302   62.4095   63.7197 C   0  0  0  0  0  0  0  0  0  0  0  0
  -33.1602   62.6881   64.8889 C   0  0  0  0  0  0  0  0  0  0  0  0
  -33.9606   63.4125   65.9358 C   0  0  0  0  0  0  0  0  0  0  0  0
  -35.1936   62.6018   66.2917 C   0  0  0  0  0  0  0  0  0  0  0  0
  -34.0329   61.5215   61.9910 H   0  0  0  0  0  0  0  0  0  0  0  0
  -33.5211   65.2149   65.2628 H   0  0  0  0  0  0  0  0  0  0  0  0
  -36.8879   64.2263   66.7433 O   0  0  0  0  0  0  0  0  0  0  0  0
  -35.8531   63.5003   67.3357 C   0  0  0  0  0  0  0  0  0  0  0  0
  -37.3050   64.7961   67.4083 H   0  0  0  0  0  0  0  0  0  0  0  0
  -32.0306   63.5384   64.5870 O   0  0  0  0  0  0  0  0  0  0  0  0
  -31.0426   63.6912   62.1960 O   0  0  0  0  0  0  0  0  0  0  0  0
  -31.2414   65.7020   63.5397 O   0  0  0  0  0  0  0  0  0  0  0  0
  -33.2093   64.7109   62.5300 O   0  0  0  0  0  0  0  0  0  0  0  0
  -31.8999   64.4173   63.1789 S   0  0  0  0  0  0  0  0  0  0  0  0
  -30.1844   63.4911   62.6012 H   0  0  0  0  0  0  0  0  0  0  0  0
  -33.6458   63.8782   62.2915 H   0  0  0  0  0  0  0  0  0  0  0  0
  2  1  1  0  0  0
  2  4  1  0  0  0
  2  5  1  0  0  0
 41 42  1  0  0  0
 41  1  1  0  0  0
 42 46  1  0  0  0
  1 24  1  0  0  0
 23 24  1  0  0  0
 23 25  1  0  0  0
 24 26  1  0  0  0
  3  4  2  0  0  0
 26 27  2  0  0  0
 27 28  1  0  0  0
 43 47  1  0  0  0
 43 51  1  0  0  0
 28 29  1  0  0  0
 56 48  1  0  0  0
 56 60  1  0  0  0
 29 30  1  0  0  0
 57 60  1  0  0  0
 57 61  1  0  0  0
 30 31  1  0  0  0
 44 49  1  0  0  0
 44 52  1  0  0  0
 31 32  1  0  0  0
 45 46  1  0  0  0
 45 50  1  0  0  0
 32 33  1  0  0  0
 53 54  1  0  0  0
 53 55  1  0  0  0
 33 34  1  0  0  0
 34 35  1  0  0  0
 35 36  1  0  0  0
 58 60  1  0  0  0
 36 37  1  0  0  0
 59 60  1  0  0  0
 59 62  1  0  0  0
 37 38  1  0  0  0
 38 39  1  0  0  0
 39 40  1  0  0  0
  4  6  1  0  0  0
  6  7  1  0  0  0
  7  8  1  0  0  0
  8  9  1  0  0  0
  9 10  1  0  0  0
 10 11  1  0  0  0
 11 12  1  0  0  0
 12 13  1  0  0  0
 13 14  1  0  0  0
 14 15  1  0  0  0
 15 16  1  0  0  0
 16 17  1  0  0  0
 17 18  1  0  0  0
 18 19  1  0  0  0
 19 20  1  0  0  0
 20 21  1  0  0  0
 21 22  1  0  0  0
 46 47  1  0  0  0
 47 48  1  0  0  0
 48 49  1  0  0  0
 49 50  1  0  0  0
 50 54  1  0  0  0
M  CHG 1  58  -1
M  END
> <minimizedAffinity>
-9.29931

> <CNNscore>
0.2472437322

> <CNNaffinity>
6.9595708847

> <CNN_VS>
1.7207102776

> <CNNaffinity_variance>
1.1736319065

$$$$
/media/chris/experiments/cd1a-new-docking/inputs/ligands/1onq_ligand.pdb


 62 62  0  0  0  0  0  0  0  0999 V2000
  -40.1385   58.8514   64.7789 C   0  0  0  0  0  0  0  0  0  0  0  0
  -41.2581   58.3509   65.5516 N   0  0  0  0  0  0  0  0  0  0  0  0
  -42.9637   59.6530   64.8146 O   0  0  0  0  0  0  0  0  0  0  0  0
  -42.5330   58.7626   65.5214 C   0  0  0  0  0  0  0  0  0  0  0  0
  -41.0569   57.6172   66.1764 H   0  0  0  0  0  0  0  0  0  0  0  0
  -43.4616   58.0304   66.4440 C   0  0  0  0  0  0  0  0  0  0  0  0
  -44.0897   56.9044   65.6227 C   0  0  0  0  0  0  0  0  0  0  0  0
  -45.3739   57.3963   64.9595 C   0  0  0  0  0  0  0  0  0  0  0  0
  -46.3160   58.1820   65.8391 C   0  0  0  0  0  0  0  0  0  0  0  0
  -46.8278   59.3655   65.0247 C   0  0  0  0  0  0  0  0  0  0  0  0
  -48.2627   59.7638   65.3950 C   0  0  0  0  0  0  0  0  0  0  0  0
  -49.1208   58.6055   65.9357 C   0  0  0  0  0  0  0  0  0  0  0  0
  -50.3954   58.3607   65.0983 C   0  0  0  0  0  0  0  0  0  0  0  0
  -50.7197   59.5853   64.2380 C   0  0  0  0  0  0  0  0  0  0  0  0
  -51.0140   59.2849   62.7733 C   0  0  0  0  0  0  0  0  0  0  0  0
  -50.5715   57.8859   62.3707 C   0  0  0  0  0  0  0  0  0  0  0  0
  -51.0847   57.3826   61.0195 C   0  0  0  0  0  0  0  0  0  0  0  0
  -49.8884   56.9205   60.1984 C   0  0  0  0  0  0  0  0  0  0  0  0
  -48.7474   57.8979   59.9582 C   0  0  0  0  0  0  0  0  0  0  0  0
  -47.5079   57.1722   59.4114 C   0  0  0  0  0  0  0  0  0  0  0  0
  -47.0803   57.6137   57.9996 C   0  0  0  0  0  0  0  0  0  0  0  0
  -47.4975   56.6316   56.9074 C   0  0  0  0  0  0  0  0  0  0  0  0
  -38.0555   58.1187   65.5000 O   0  0  0  0  0  0  0  0  0  0  0  0
  -39.1847   57.6691   64.7743 C   0  0  0  0  0  0  0  0  0  0  0  0
  -38.3204   58.3375   66.4072 H   0  0  0  0  0  0  0  0  0  0  0  0
  -38.8344   57.3059   63.3294 C   0  0  0  0  0  0  0  0  0  0  0  0
  -38.5582   58.2262   62.3898 C   0  0  0  0  0  0  0  0  0  0  0  0
  -38.2182   57.7829   60.9681 C   0  0  0  0  0  0  0  0  0  0  0  0
  -37.8878   58.9429   60.0175 C   0  0  0  0  0  0  0  0  0  0  0  0
  -37.8153   58.5797   58.5229 C   0  0  0  0  0  0  0  0  0  0  0  0
  -36.4472   57.9435   58.1780 C   0  0  0  0  0  0  0  0  0  0  0  0
  -36.4781   56.4199   57.8964 C   0  0  0  0  0  0  0  0  0  0  0  0
  -36.5419   55.5418   59.1683 C   0  0  0  0  0  0  0  0  0  0  0  0
  -35.2207   54.8047   59.4768 C   0  0  0  0  0  0  0  0  0  0  0  0
  -33.9788   55.6998   59.3887 C   0  0  0  0  0  0  0  0  0  0  0  0
  -33.4652   56.2675   60.7103 C   0  0  0  0  0  0  0  0  0  0  0  0
  -34.2796   57.4664   61.2350 C   0  0  0  0  0  0  0  0  0  0  0  0
  -34.8931   57.2805   62.6311 C   0  0  0  0  0  0  0  0  0  0  0  0
  -35.0194   58.6218   63.3593 C   0  0  0  0  0  0  0  0  0  0  0  0
  -34.6473   58.6284   64.8314 C   0  0  0  0  0  0  0  0  0  0  0  0
  -39.5667   60.2114   65.2395 C   0  0  0  0  0  0  0  0  0  0  0  0
  -38.7856   60.9494   64.2657 O   0  0  0  0  0  0  0  0  0  0  0  0
  -36.7475   61.2966   62.2900 O   0  0  0  0  0  0  0  0  0  0  0  0
  -35.6752   64.5157   64.7161 O   0  0  0  0  0  0  0  0  0  0  0  0
  -37.2723   62.1542   65.7299 O   0  0  0  0  0  0  0  0  0  0  0  0
  -37.3874   61.3361   64.5403 C   0  0  0  0  0  0  0  0  0  0  0  0
  -36.6670   62.1048   63.4233 C   0  0  0  0  0  0  0  0  0  0  0  0
  -35.1759   62.3773   63.7197 C   0  0  0  0  0  0  0  0  0  0  0  0
  -35.1418   63.2177   64.9663 C   0  0  0  0  0  0  0  0  0  0  0  0
  -35.9098   62.5222   66.0757 C   0  0  0  0  0  0  0  0  0  0  0  0
  -37.6787   61.1145   62.0883 H   0  0  0  0  0  0  0  0  0  0  0  0
  -35.1707   64.9412   64.0052 H   0  0  0  0  0  0  0  0  0  0  0  0
  -34.4156   63.8514   67.3851 O   0  0  0  0  0  0  0  0  0  0  0  0
  -35.7627   63.5254   67.2178 C   0  0  0  0  0  0  0  0  0  0  0  0
  -34.3249   64.4884   68.1109 H   0  0  0  0  0  0  0  0  0  0  0  0
  -34.4549   63.1230   62.7126 O   0  0  0  0  0  0  0  0  0  0  0  0
  -32.3761   63.8729   61.3587 O   0  0  0  0  0  0  0  0  0  0  0  0
  -32.5094   61.5947   62.1837 O   0  0  0  0  0  0  0  0  0  0  0  0
  -32.0215   63.4161   63.7065 O   0  0  0  0  0  0  0  0  0  0  0  0
  -32.8065   63.0172   62.5038 S   0  0  0  0  0  0  0  0  0  0  0  0
  -32.8772   63.6274   60.5654 H   0  0  0  0  0  0  0  0  0  0  0  0
  -32.2094   64.3428   63.9224 H   0  0  0  0  0  0  0  0  0  0  0  0
  2  1  1  0  0  0
  2  4  1  0  0  0
  2  5  1  0  0  0
 41 42  1  0  0  0
 41  1  1  0  0  0
 42 46  1  0  0  0
  1 24  1  0  0  0
 23 24  1  0  0  0
 23 25  1  0  0  0
 24 26  1  0  0  0
  3  4  2  0  0  0
 26 27  2  0  0  0
 27 28  1  0  0  0
 43 47  1  0  0  0
 43 51  1  0  0  0
 28 29  1  0  0  0
 56 48  1  0  0  0
 56 60  1  0  0  0
 29 30  1  0  0  0
 57 60  1  0  0  0
 57 61  1  0  0  0
 30 31  1  0  0  0
 44 49  1  0  0  0
 44 52  1  0  0  0
 31 32  1  0  0  0
 45 46  1  0  0  0
 45 50  1  0  0  0
 32 33  1  0  0  0
 53 54  1  0  0  0
 53 55  1  0  0  0
 33 34  1  0  0  0
 34 35  1  0  0  0
 35 36  1  0  0  0
 58 60  1  0  0  0
 36 37  1  0  0  0
 59 60  1  0  0  0
 59 62  1  0  0  0
 37 38  1  0  0  0
 38 39  1  0  0  0
 39 40  1  0  0  0
  4  6  1  0  0  0
  6  7  1  0  0  0
  7  8  1  0  0  0
  8  9  1  0  0  0
  9 10  1  0  0  0
 10 11  1  0  0  0
 11 12  1  0  0  0
 12 13  1  0  0  0
 13 14  1  0  0  0
 14 15  1  0  0  0
 15 16  1  0  0  0
 16 17  1  0  0  0
 17 18  1  0  0  0
 18 19  1  0  0  0
 19 20  1  0  0  0
 20 21  1  0  0  0
 21 22  1  0  0  0
 46 47  1  0  0  0
 47 48  1  0  0  0
 48 49  1  0  0  0
 49 50  1  0  0  0
 50 54  1  0  0  0
M  CHG 1  58  -1
M  END
> <minimizedAffinity>
-10.19996

> <CNNscore>
0.2440272421

> <CNNaffinity>
7.1002731323

> <CNN_VS>
1.7326600552

> <CNNaffinity_variance>
1.2071714401

$$$$
/media/chris/experiments/cd1a-new-docking/inputs/ligands/1onq_ligand.pdb


 62 62  0  0  0  0  0  0  0  0999 V2000
  -38.0268   59.5602   59.4674 C   0  0  0  0  0  0  0  0  0  0  0  0
  -39.4299   59.2608   59.2606 N   0  0  0  0  0  0  0  0  0  0  0  0
  -40.3917   61.3013   59.5038 O   0  0  0  0  0  0  0  0  0  0  0  0
  -40.4686   60.1069   59.2905 C   0  0  0  0  0  0  0  0  0  0  0  0
  -39.6468   58.3186   59.0750 H   0  0  0  0  0  0  0  0  0  0  0  0
  -41.8069   59.4833   59.0263 C   0  0  0  0  0  0  0  0  0  0  0  0
  -41.9216   59.3299   57.5097 C   0  0  0  0  0  0  0  0  0  0  0  0
  -43.2673   58.7053   57.1489 C   0  0  0  0  0  0  0  0  0  0  0  0
  -44.1301   58.2723   58.3092 C   0  0  0  0  0  0  0  0  0  0  0  0
  -45.5645   58.1650   57.8020 C   0  0  0  0  0  0  0  0  0  0  0  0
  -46.3941   57.1371   58.5829 C   0  0  0  0  0  0  0  0  0  0  0  0
  -47.6222   57.7285   59.2990 C   0  0  0  0  0  0  0  0  0  0  0  0
  -48.9079   56.9052   59.0650 C   0  0  0  0  0  0  0  0  0  0  0  0
  -49.7773   56.8916   60.3255 C   0  0  0  0  0  0  0  0  0  0  0  0
  -49.7590   58.1822   61.1355 C   0  0  0  0  0  0  0  0  0  0  0  0
  -50.8333   58.2030   62.2128 C   0  0  0  0  0  0  0  0  0  0  0  0
  -51.1778   59.5777   62.7905 C   0  0  0  0  0  0  0  0  0  0  0  0
  -50.9058   59.5460   64.2884 C   0  0  0  0  0  0  0  0  0  0  0  0
  -50.4260   58.2453   64.9152 C   0  0  0  0  0  0  0  0  0  0  0  0
  -49.2433   58.4957   65.8641 C   0  0  0  0  0  0  0  0  0  0  0  0
  -47.9264   57.8232   65.4346 C   0  0  0  0  0  0  0  0  0  0  0  0
  -47.4344   58.2797   64.0631 C   0  0  0  0  0  0  0  0  0  0  0  0
  -38.3487   58.0929   57.6956 O   0  0  0  0  0  0  0  0  0  0  0  0
  -37.3363   58.5410   58.5776 C   0  0  0  0  0  0  0  0  0  0  0  0
  -38.6720   58.8401   57.1682 H   0  0  0  0  0  0  0  0  0  0  0  0
  -36.7812   57.4066   59.4422 C   0  0  0  0  0  0  0  0  0  0  0  0
  -35.4708   57.1183   59.5182 C   0  0  0  0  0  0  0  0  0  0  0  0
  -34.9955   55.9683   60.4042 C   0  0  0  0  0  0  0  0  0  0  0  0
  -34.1412   56.4163   61.5991 C   0  0  0  0  0  0  0  0  0  0  0  0
  -34.0766   57.9358   61.8397 C   0  0  0  0  0  0  0  0  0  0  0  0
  -34.6526   58.2967   63.2301 C   0  0  0  0  0  0  0  0  0  0  0  0
  -35.4211   57.1562   63.9444 C   0  0  0  0  0  0  0  0  0  0  0  0
  -36.8804   57.5112   64.3152 C   0  0  0  0  0  0  0  0  0  0  0  0
  -37.8746   57.3356   63.1470 C   0  0  0  0  0  0  0  0  0  0  0  0
  -39.3388   57.5607   63.5428 C   0  0  0  0  0  0  0  0  0  0  0  0
  -39.5758   58.1505   64.9315 C   0  0  0  0  0  0  0  0  0  0  0  0
  -41.0046   57.9344   65.4678 C   0  0  0  0  0  0  0  0  0  0  0  0
  -41.6198   59.1389   66.1963 C   0  0  0  0  0  0  0  0  0  0  0  0
  -43.1241   58.9443   66.4073 C   0  0  0  0  0  0  0  0  0  0  0  0
  -44.0109   59.1750   65.1966 C   0  0  0  0  0  0  0  0  0  0  0  0
  -37.5705   59.6258   60.9426 C   0  0  0  0  0  0  0  0  0  0  0  0
  -38.2975   60.5364   61.8061 O   0  0  0  0  0  0  0  0  0  0  0  0
  -38.3949   60.9160   64.6388 O   0  0  0  0  0  0  0  0  0  0  0  0
  -34.3581   61.8342   64.1283 O   0  0  0  0  0  0  0  0  0  0  0  0
  -36.3828   62.0238   61.8877 O   0  0  0  0  0  0  0  0  0  0  0  0
  -37.6022   61.6067   62.5484 C   0  0  0  0  0  0  0  0  0  0  0  0
  -37.2119   61.2806   63.9971 C   0  0  0  0  0  0  0  0  0  0  0  0
  -36.5960   62.4755   64.7576 C   0  0  0  0  0  0  0  0  0  0  0  0
  -35.3481   62.8528   64.0080 C   0  0  0  0  0  0  0  0  0  0  0  0
  -35.6831   63.1116   62.5502 C   0  0  0  0  0  0  0  0  0  0  0  0
  -38.7967   60.1653   64.1740 H   0  0  0  0  0  0  0  0  0  0  0  0
  -34.1597   61.6854   65.0661 H   0  0  0  0  0  0  0  0  0  0  0  0
  -33.6317   64.2952   62.8734 O   0  0  0  0  0  0  0  0  0  0  0  0
  -34.3086   63.4596   61.9831 C   0  0  0  0  0  0  0  0  0  0  0  0
  -32.7592   64.5148   62.5109 H   0  0  0  0  0  0  0  0  0  0  0  0
  -36.1841   62.2166   66.1190 O   0  0  0  0  0  0  0  0  0  0  0  0
  -36.3435   63.9322   68.0550 O   0  0  0  0  0  0  0  0  0  0  0  0
  -34.9240   64.4103   66.1458 O   0  0  0  0  0  0  0  0  0  0  0  0
  -34.2286   62.7871   67.8059 O   0  0  0  0  0  0  0  0  0  0  0  0
  -35.3975   63.3393   67.0640 S   0  0  0  0  0  0  0  0  0  0  0  0
  -37.1123   64.2974   67.5898 H   0  0  0  0  0  0  0  0  0  0  0  0
  -34.5285   62.0877   68.4073 H   0  0  0  0  0  0  0  0  0  0  0  0
  2  1  1  0  0  0
  2  4  1  0  0  0
  2  5  1  0  0  0
 41 42  1  0  0  0
 41  1  1  0  0  0
 42 46  1  0  0  0
  1 24  1  0  0  0
 23 24  1  0  0  0
 23 25  1  0  0  0
 24 26  1  0  0  0
  3  4  2  0  0  0
 26 27  2  0  0  0
 27 28  1  0  0  0
 43 47  1  0  0  0
 43 51  1  0  0  0
 28 29  1  0  0  0
 56 48  1  0  0  0
 56 60  1  0  0  0
 29 30  1  0  0  0
 57 60  1  0  0  0
 57 61  1  0  0  0
 30 31  1  0  0  0
 44 49  1  0  0  0
 44 52  1  0  0  0
 31 32  1  0  0  0
 45 46  1  0  0  0
 45 50  1  0  0  0
 32 33  1  0  0  0
 53 54  1  0  0  0
 53 55  1  0  0  0
 33 34  1  0  0  0
 34 35  1  0  0  0
 35 36  1  0  0  0
 58 60  1  0  0  0
 36 37  1  0  0  0
 59 60  1  0  0  0
 59 62  1  0  0  0
 37 38  1  0  0  0
 38 39  1  0  0  0
 39 40  1  0  0  0
  4  6  1  0  0  0
  6  7  1  0  0  0
  7  8  1  0  0  0
  8  9  1  0  0  0
  9 10  1  0  0  0
 10 11  1  0  0  0
 11 12  1  0  0  0
 12 13  1  0  0  0
 13 14  1  0  0  0
 14 15  1  0  0  0
 15 16  1  0  0  0
 16 17  1  0  0  0
 17 18  1  0  0  0
 18 19  1  0  0  0
 19 20  1  0  0  0
 20 21  1  0  0  0
 21 22  1  0  0  0
 46 47  1  0  0  0
 47 48  1  0  0  0
 48 49  1  0  0  0
 49 50  1  0  0  0
 50 54  1  0  0  0
M  CHG 1  58  -1
M  END
> <minimizedAffinity>
-8.93124

> <CNNscore>
0.2307282090

> <CNNaffinity>
6.9069046974

> <CNN_VS>
1.5936177969

> <CNNaffinity_variance>
1.5265802145

$$$$
/media/chris/experiments/cd1a-new-docking/inputs/ligands/1onq_ligand.pdb


 62 62  0  0  0  0  0  0  0  0999 V2000
  -39.4490   59.3657   65.5640 C   0  0  0  0  0  0  0  0  0  0  0  0
  -39.1219   58.8517   64.2487 N   0  0  0  0  0  0  0  0  0  0  0  0
  -39.4349   60.6750   62.9352 O   0  0  0  0  0  0  0  0  0  0  0  0
  -39.1353   59.5057   63.0791 C   0  0  0  0  0  0  0  0  0  0  0  0
  -38.8571   57.9043   64.2097 H   0  0  0  0  0  0  0  0  0  0  0  0
  -38.7335   58.6887   61.8871 C   0  0  0  0  0  0  0  0  0  0  0  0
  -38.0575   59.6509   60.9103 C   0  0  0  0  0  0  0  0  0  0  0  0
  -38.4529   59.3027   59.4773 C   0  0  0  0  0  0  0  0  0  0  0  0
  -37.3452   58.7901   58.5893 C   0  0  0  0  0  0  0  0  0  0  0  0
  -37.2850   57.2752   58.7556 C   0  0  0  0  0  0  0  0  0  0  0  0
  -36.2167   56.6233   57.8676 C   0  0  0  0  0  0  0  0  0  0  0  0
  -34.8386   57.3071   57.9310 C   0  0  0  0  0  0  0  0  0  0  0  0
  -33.6975   56.3268   58.2811 C   0  0  0  0  0  0  0  0  0  0  0  0
  -34.1030   55.4204   59.4469 C   0  0  0  0  0  0  0  0  0  0  0  0
  -34.3236   56.1362   60.7739 C   0  0  0  0  0  0  0  0  0  0  0  0
  -33.0144   56.5154   61.4501 C   0  0  0  0  0  0  0  0  0  0  0  0
  -32.6610   58.0044   61.4409 C   0  0  0  0  0  0  0  0  0  0  0  0
  -32.6317   58.4954   62.8820 C   0  0  0  0  0  0  0  0  0  0  0  0
  -33.7859   59.3496   63.3850 C   0  0  0  0  0  0  0  0  0  0  0  0
  -34.6452   58.5729   64.3952 C   0  0  0  0  0  0  0  0  0  0  0  0
  -35.6844   57.6315   63.7590 C   0  0  0  0  0  0  0  0  0  0  0  0
  -36.4918   56.8409   64.7859 C   0  0  0  0  0  0  0  0  0  0  0  0
  -41.0993   60.8717   66.1997 O   0  0  0  0  0  0  0  0  0  0  0  0
  -40.9262   59.6945   65.4330 C   0  0  0  0  0  0  0  0  0  0  0  0
  -40.5585   61.5843   65.8246 H   0  0  0  0  0  0  0  0  0  0  0  0
  -41.7553   58.5271   65.9736 C   0  0  0  0  0  0  0  0  0  0  0  0
  -43.0212   58.2892   65.5903 C   0  0  0  0  0  0  0  0  0  0  0  0
  -43.7831   57.1025   66.1775 C   0  0  0  0  0  0  0  0  0  0  0  0
  -45.0936   56.7809   65.4444 C   0  0  0  0  0  0  0  0  0  0  0  0
  -45.5606   57.8330   64.4215 C   0  0  0  0  0  0  0  0  0  0  0  0
  -46.8400   58.5498   64.9160 C   0  0  0  0  0  0  0  0  0  0  0  0
  -48.1218   57.6789   64.9331 C   0  0  0  0  0  0  0  0  0  0  0  0
  -49.3877   58.4245   65.4172 C   0  0  0  0  0  0  0  0  0  0  0  0
  -50.4790   58.5569   64.3329 C   0  0  0  0  0  0  0  0  0  0  0  0
  -49.9823   58.2475   62.9156 C   0  0  0  0  0  0  0  0  0  0  0  0
  -51.0532   57.8553   61.8996 C   0  0  0  0  0  0  0  0  0  0  0  0
  -50.4886   57.3985   60.5400 C   0  0  0  0  0  0  0  0  0  0  0  0
  -49.1562   58.0463   60.1334 C   0  0  0  0  0  0  0  0  0  0  0  0
  -48.3271   57.0981   59.2624 C   0  0  0  0  0  0  0  0  0  0  0  0
  -46.8412   57.3954   59.1664 C   0  0  0  0  0  0  0  0  0  0  0  0
  -38.5251   60.4882   66.0887 C   0  0  0  0  0  0  0  0  0  0  0  0
  -37.1926   60.5501   65.5196 O   0  0  0  0  0  0  0  0  0  0  0  0
  -36.0399   62.2591   67.5016 O   0  0  0  0  0  0  0  0  0  0  0  0
  -33.1124   62.8006   64.5800 O   0  0  0  0  0  0  0  0  0  0  0  0
  -35.9238   61.8836   63.9393 O   0  0  0  0  0  0  0  0  0  0  0  0
  -36.5337   61.8440   65.2524 C   0  0  0  0  0  0  0  0  0  0  0  0
  -35.4383   62.2620   66.2438 C   0  0  0  0  0  0  0  0  0  0  0  0
  -34.8699   63.6740   65.9813 C   0  0  0  0  0  0  0  0  0  0  0  0
  -34.2677   63.6354   64.6039 C   0  0  0  0  0  0  0  0  0  0  0  0
  -35.3033   63.1540   63.6038 C   0  0  0  0  0  0  0  0  0  0  0  0
  -36.4034   61.3784   67.6840 H   0  0  0  0  0  0  0  0  0  0  0  0
  -32.4652   63.1257   65.2252 H   0  0  0  0  0  0  0  0  0  0  0  0
  -35.3125   63.6243   61.2602 O   0  0  0  0  0  0  0  0  0  0  0  0
  -34.5008   63.1782   62.3048 C   0  0  0  0  0  0  0  0  0  0  0  0
  -34.8005   63.6386   60.4364 H   0  0  0  0  0  0  0  0  0  0  0  0
  -33.8148   64.1081   66.8691 O   0  0  0  0  0  0  0  0  0  0  0  0
  -32.6717   66.2513   67.7729 O   0  0  0  0  0  0  0  0  0  0  0  0
  -33.5161   66.2134   65.4982 O   0  0  0  0  0  0  0  0  0  0  0  0
  -31.4737   65.0356   66.0603 O   0  0  0  0  0  0  0  0  0  0  0  0
  -32.8307   65.4124   66.5484 S   0  0  0  0  0  0  0  0  0  0  0  0
  -33.5462   66.5067   68.1058 H   0  0  0  0  0  0  0  0  0  0  0  0
  -31.0196   64.5127   66.7393 H   0  0  0  0  0  0  0  0  0  0  0  0
  2  1  1  0  0  0
  2  4  1  0  0  0
  2  5  1  0  0  0
 41 42  1  0  0  0
 41  1  1  0  0  0
 42 46  1  0  0  0
  1 24  1  0  0  0
 23 24  1  0  0  0
 23 25  1  0  0  0
 24 26  1  0  0  0
  3  4  2  0  0  0
 26 27  2  0  0  0
 27 28  1  0  0  0
 43 47  1  0  0  0
 43 51  1  0  0  0
 28 29  1  0  0  0
 56 48  1  0  0  0
 56 60  1  0  0  0
 29 30  1  0  0  0
 57 60  1  0  0  0
 57 61  1  0  0  0
 30 31  1  0  0  0
 44 49  1  0  0  0
 44 52  1  0  0  0
 31 32  1  0  0  0
 45 46  1  0  0  0
 45 50  1  0  0  0
 32 33  1  0  0  0
 53 54  1  0  0  0
 53 55  1  0  0  0
 33 34  1  0  0  0
 34 35  1  0  0  0
 35 36  1  0  0  0
 58 60  1  0  0  0
 36 37  1  0  0  0
 59 60  1  0  0  0
 59 62  1  0  0  0
 37 38  1  0  0  0
 38 39  1  0  0  0
 39 40  1  0  0  0
  4  6  1  0  0  0
  6  7  1  0  0  0
  7  8  1  0  0  0
  8  9  1  0  0  0
  9 10  1  0  0  0
 10 11  1  0  0  0
 11 12  1  0  0  0
 12 13  1  0  0  0
 13 14  1  0  0  0
 14 15  1  0  0  0
 15 16  1  0  0  0
 16 17  1  0  0  0
 17 18  1  0  0  0
 18 19  1  0  0  0
 19 20  1  0  0  0
 20 21  1  0  0  0
 21 22  1  0  0  0
 46 47  1  0  0  0
 47 48  1  0  0  0
 48 49  1  0  0  0
 49 50  1  0  0  0
 50 54  1  0  0  0
M  CHG 1  58  -1
M  END
> <minimizedAffinity>
-9.45415

> <CNNscore>
0.2252341360

> <CNNaffinity>
7.0917825699

> <CNN_VS>
1.5973114967

> <CNNaffinity_variance>
1.0835907459

$$$$
/media/chris/experiments/cd1a-new-docking/inputs/ligands/1onq_ligand.pdb


 62 62  0  0  0  0  0  0  0  0999 V2000
  -37.5748   60.5081   65.1420 C   0  0  0  0  0  0  0  0  0  0  0  0
  -38.7605   60.0726   65.8531 N   0  0  0  0  0  0  0  0  0  0  0  0
  -40.4137   60.6167   64.3976 O   0  0  0  0  0  0  0  0  0  0  0  0
  -40.0379   60.1508   65.4557 C   0  0  0  0  0  0  0  0  0  0  0  0
  -38.6084   59.6691   66.7381 H   0  0  0  0  0  0  0  0  0  0  0  0
  -41.0419   59.5999   66.4242 C   0  0  0  0  0  0  0  0  0  0  0  0
  -42.1005   58.8802   65.5884 C   0  0  0  0  0  0  0  0  0  0  0  0
  -43.4797   59.0746   66.2138 C   0  0  0  0  0  0  0  0  0  0  0  0
  -44.6594   58.8771   65.2931 C   0  0  0  0  0  0  0  0  0  0  0  0
  -45.8564   58.4886   66.1546 C   0  0  0  0  0  0  0  0  0  0  0  0
  -47.0444   59.4449   65.9849 C   0  0  0  0  0  0  0  0  0  0  0  0
  -48.4097   58.7427   65.8687 C   0  0  0  0  0  0  0  0  0  0  0  0
  -48.5957   58.0109   64.5214 C   0  0  0  0  0  0  0  0  0  0  0  0
  -48.3458   58.9647   63.3497 C   0  0  0  0  0  0  0  0  0  0  0  0
  -49.5468   59.8064   62.9358 C   0  0  0  0  0  0  0  0  0  0  0  0
  -50.1379   59.3555   61.6084 C   0  0  0  0  0  0  0  0  0  0  0  0
  -50.7654   57.9596   61.5927 C   0  0  0  0  0  0  0  0  0  0  0  0
  -50.4235   57.2992   60.2639 C   0  0  0  0  0  0  0  0  0  0  0  0
  -49.6497   55.9893   60.2783 C   0  0  0  0  0  0  0  0  0  0  0  0
  -48.3358   56.1184   59.4915 C   0  0  0  0  0  0  0  0  0  0  0  0
  -47.7062   57.5232   59.5257 C   0  0  0  0  0  0  0  0  0  0  0  0
  -46.9363   57.8712   58.2539 C   0  0  0  0  0  0  0  0  0  0  0  0
  -35.4606   59.6323   64.7431 O   0  0  0  0  0  0  0  0  0  0  0  0
  -36.7926   59.2160   64.9803 C   0  0  0  0  0  0  0  0  0  0  0  0
  -35.1367   60.1316   65.5092 H   0  0  0  0  0  0  0  0  0  0  0  0
  -37.3658   58.4199   63.8056 C   0  0  0  0  0  0  0  0  0  0  0  0
  -37.3660   58.8777   62.5420 C   0  0  0  0  0  0  0  0  0  0  0  0
  -37.9586   58.0224   61.4236 C   0  0  0  0  0  0  0  0  0  0  0  0
  -38.8751   58.7985   60.4667 C   0  0  0  0  0  0  0  0  0  0  0  0
  -38.1713   59.4928   59.2861 C   0  0  0  0  0  0  0  0  0  0  0  0
  -36.9688   58.6528   58.7926 C   0  0  0  0  0  0  0  0  0  0  0  0
  -37.3333   57.4201   57.9270 C   0  0  0  0  0  0  0  0  0  0  0  0
  -36.1398   56.4841   57.6233 C   0  0  0  0  0  0  0  0  0  0  0  0
  -34.7694   57.0901   57.9959 C   0  0  0  0  0  0  0  0  0  0  0  0
  -33.9774   56.2517   59.0065 C   0  0  0  0  0  0  0  0  0  0  0  0
  -34.7663   55.7172   60.2001 C   0  0  0  0  0  0  0  0  0  0  0  0
  -34.5635   56.5255   61.4968 C   0  0  0  0  0  0  0  0  0  0  0  0
  -33.0998   56.7884   61.8823 C   0  0  0  0  0  0  0  0  0  0  0  0
  -32.9150   58.2192   62.3959 C   0  0  0  0  0  0  0  0  0  0  0  0
  -31.9578   59.0994   61.6121 C   0  0  0  0  0  0  0  0  0  0  0  0
  -36.8262   61.7069   65.7675 C   0  0  0  0  0  0  0  0  0  0  0  0
  -36.0276   62.5145   64.8657 O   0  0  0  0  0  0  0  0  0  0  0  0
  -33.6990   61.5197   63.5369 O   0  0  0  0  0  0  0  0  0  0  0  0
  -32.3921   65.4532   64.0043 O   0  0  0  0  0  0  0  0  0  0  0  0
  -34.5384   64.2171   65.7423 O   0  0  0  0  0  0  0  0  0  0  0  0
  -34.6354   62.8798   65.1947 C   0  0  0  0  0  0  0  0  0  0  0  0
  -33.6293   62.8196   64.0365 C   0  0  0  0  0  0  0  0  0  0  0  0
  -32.1718   63.0966   64.4658 C   0  0  0  0  0  0  0  0  0  0  0  0
  -32.1572   64.4908   65.0293 C   0  0  0  0  0  0  0  0  0  0  0  0
  -33.1946   64.6103   66.1311 C   0  0  0  0  0  0  0  0  0  0  0  0
  -34.6091   61.3276   63.2617 H   0  0  0  0  0  0  0  0  0  0  0  0
  -31.7191   65.3591   63.3120 H   0  0  0  0  0  0  0  0  0  0  0  0
  -32.7622   66.1395   67.9168 O   0  0  0  0  0  0  0  0  0  0  0  0
  -33.0243   66.0698   66.5473 C   0  0  0  0  0  0  0  0  0  0  0  0
  -32.6546   67.0673   68.1785 H   0  0  0  0  0  0  0  0  0  0  0  0
  -31.1852   63.0800   63.4093 O   0  0  0  0  0  0  0  0  0  0  0  0
  -30.9285   62.4290   60.9138 O   0  0  0  0  0  0  0  0  0  0  0  0
  -30.9308   64.7720   61.5456 O   0  0  0  0  0  0  0  0  0  0  0  0
  -33.0002   63.5104   61.5343 O   0  0  0  0  0  0  0  0  0  0  0  0
  -31.5396   63.4428   61.8234 S   0  0  0  0  0  0  0  0  0  0  0  0
  -29.9761   62.3709   61.0876 H   0  0  0  0  0  0  0  0  0  0  0  0
  -33.4053   62.6473   61.7129 H   0  0  0  0  0  0  0  0  0  0  0  0
  2  1  1  0  0  0
  2  4  1  0  0  0
  2  5  1  0  0  0
 41 42  1  0  0  0
 41  1  1  0  0  0
 42 46  1  0  0  0
  1 24  1  0  0  0
 23 24  1  0  0  0
 23 25  1  0  0  0
 24 26  1  0  0  0
  3  4  2  0  0  0
 26 27  2  0  0  0
 27 28  1  0  0  0
 43 47  1  0  0  0
 43 51  1  0  0  0
 28 29  1  0  0  0
 56 48  1  0  0  0
 56 60  1  0  0  0
 29 30  1  0  0  0
 57 60  1  0  0  0
 57 61  1  0  0  0
 30 31  1  0  0  0
 44 49  1  0  0  0
 44 52  1  0  0  0
 31 32  1  0  0  0
 45 46  1  0  0  0
 45 50  1  0  0  0
 32 33  1  0  0  0
 53 54  1  0  0  0
 53 55  1  0  0  0
 33 34  1  0  0  0
 34 35  1  0  0  0
 35 36  1  0  0  0
 58 60  1  0  0  0
 36 37  1  0  0  0
 59 60  1  0  0  0
 59 62  1  0  0  0
 37 38  1  0  0  0
 38 39  1  0  0  0
 39 40  1  0  0  0
  4  6  1  0  0  0
  6  7  1  0  0  0
  7  8  1  0  0  0
  8  9  1  0  0  0
  9 10  1  0  0  0
 10 11  1  0  0  0
 11 12  1  0  0  0
 12 13  1  0  0  0
 13 14  1  0  0  0
 14 15  1  0  0  0
 15 16  1  0  0  0
 16 17  1  0  0  0
 17 18  1  0  0  0
 18 19  1  0  0  0
 19 20  1  0  0  0
 20 21  1  0  0  0
 21 22  1  0  0  0
 46 47  1  0  0  0
 47 48  1  0  0  0
 48 49  1  0  0  0
 49 50  1  0  0  0
 50 54  1  0  0  0
M  CHG 1  58  -1
M  END
> <minimizedAffinity>
-9.14790

> <CNNscore>
0.2142975777

> <CNNaffinity>
6.7970252037

> <CNN_VS>
1.4565860033

> <CNNaffinity_variance>
1.0261952877

$$$$
