/media/chris/experiments/cd1a-new-docking/inputs/ligands/1onq_ligand.pdb


 62 62  0  0  0  0  0  0  0  0999 V2000
  -38.2814   59.7006   60.5515 C   0  0  0  0  0  0  0  0  0  0  0  0
  -39.6079   59.8533   59.9874 N   0  0  0  0  0  0  0  0  0  0  0  0
  -39.3880   58.8316   57.9736 O   0  0  0  0  0  0  0  0  0  0  0  0
  -40.0530   59.4307   58.7961 C   0  0  0  0  0  0  0  0  0  0  0  0
  -40.2635   60.3262   60.5493 H   0  0  0  0  0  0  0  0  0  0  0  0
  -41.4922   59.7390   58.5072 C   0  0  0  0  0  0  0  0  0  0  0  0
  -41.8602   58.9506   57.2501 C   0  0  0  0  0  0  0  0  0  0  0  0
  -43.3785   58.8565   57.1194 C   0  0  0  0  0  0  0  0  0  0  0  0
  -44.1091   58.2508   58.2932 C   0  0  0  0  0  0  0  0  0  0  0  0
  -45.5839   58.1531   57.9175 C   0  0  0  0  0  0  0  0  0  0  0  0
  -46.4097   57.3789   58.9535 C   0  0  0  0  0  0  0  0  0  0  0  0
  -47.9331   57.5029   58.7683 C   0  0  0  0  0  0  0  0  0  0  0  0
  -48.6932   57.6211   60.1076 C   0  0  0  0  0  0  0  0  0  0  0  0
  -50.0569   56.9302   60.0175 C   0  0  0  0  0  0  0  0  0  0  0  0
  -51.0698   57.3626   61.0707 C   0  0  0  0  0  0  0  0  0  0  0  0
  -50.4356   58.1981   62.1729 C   0  0  0  0  0  0  0  0  0  0  0  0
  -51.3881   59.0934   62.9687 C   0  0  0  0  0  0  0  0  0  0  0  0
  -50.6657   59.5568   64.2265 C   0  0  0  0  0  0  0  0  0  0  0  0
  -50.5224   58.5822   65.3862 C   0  0  0  0  0  0  0  0  0  0  0  0
  -49.0426   58.3564   65.7349 C   0  0  0  0  0  0  0  0  0  0  0  0
  -48.0493   59.0272   64.7683 C   0  0  0  0  0  0  0  0  0  0  0  0
  -46.6552   58.4055   64.8075 C   0  0  0  0  0  0  0  0  0  0  0  0
  -38.6384   57.6993   61.6753 O   0  0  0  0  0  0  0  0  0  0  0  0
  -38.0632   58.1989   60.4824 C   0  0  0  0  0  0  0  0  0  0  0  0
  -39.5865   57.9042   61.6877 H   0  0  0  0  0  0  0  0  0  0  0  0
  -36.5629   57.9079   60.3997 C   0  0  0  0  0  0  0  0  0  0  0  0
  -36.0650   56.6690   60.2466 C   0  0  0  0  0  0  0  0  0  0  0  0
  -34.5535   56.4607   60.1737 C   0  0  0  0  0  0  0  0  0  0  0  0
  -33.8608   56.4484   61.5441 C   0  0  0  0  0  0  0  0  0  0  0  0
  -32.9030   57.6228   61.8173 C   0  0  0  0  0  0  0  0  0  0  0  0
  -32.9706   58.0527   63.3025 C   0  0  0  0  0  0  0  0  0  0  0  0
  -34.2893   58.7442   63.7320 C   0  0  0  0  0  0  0  0  0  0  0  0
  -35.2413   57.8402   64.5501 C   0  0  0  0  0  0  0  0  0  0  0  0
  -36.6868   57.8153   64.0080 C   0  0  0  0  0  0  0  0  0  0  0  0
  -37.7521   57.6422   65.0973 C   0  0  0  0  0  0  0  0  0  0  0  0
  -38.8750   58.6771   65.1087 C   0  0  0  0  0  0  0  0  0  0  0  0
  -40.2900   58.0657   65.1020 C   0  0  0  0  0  0  0  0  0  0  0  0
  -41.3294   58.8106   65.9533 C   0  0  0  0  0  0  0  0  0  0  0  0
  -42.7490   58.3404   65.6237 C   0  0  0  0  0  0  0  0  0  0  0  0
  -43.2282   57.0884   66.3368 C   0  0  0  0  0  0  0  0  0  0  0  0
  -38.0590   60.3787   61.9224 C   0  0  0  0  0  0  0  0  0  0  0  0
  -37.1559   61.5133   61.9455 O   0  0  0  0  0  0  0  0  0  0  0  0
  -35.0653   63.4616   62.0492 O   0  0  0  0  0  0  0  0  0  0  0  0
  -36.5626   64.0989   65.8899 O   0  0  0  0  0  0  0  0  0  0  0  0
  -36.9911   61.5202   64.3659 O   0  0  0  0  0  0  0  0  0  0  0  0
  -36.3045   61.7901   63.1195 C   0  0  0  0  0  0  0  0  0  0  0  0
  -35.7573   63.2200   63.2353 C   0  0  0  0  0  0  0  0  0  0  0  0
  -34.7806   63.4169   64.4155 C   0  0  0  0  0  0  0  0  0  0  0  0
  -35.5616   63.1097   65.6633 C   0  0  0  0  0  0  0  0  0  0  0  0
  -36.1814   61.7283   65.5544 C   0  0  0  0  0  0  0  0  0  0  0  0
  -35.6641   63.3423   61.2955 H   0  0  0  0  0  0  0  0  0  0  0  0
  -36.1454   64.9720   65.9560 H   0  0  0  0  0  0  0  0  0  0  0  0
  -36.1941   62.2870   67.8784 O   0  0  0  0  0  0  0  0  0  0  0  0
  -36.9197   61.6240   66.8872 C   0  0  0  0  0  0  0  0  0  0  0  0
  -36.6650   62.2194   68.7237 H   0  0  0  0  0  0  0  0  0  0  0  0
  -34.2558   64.7528   64.5884 O   0  0  0  0  0  0  0  0  0  0  0  0
  -33.2821   65.6180   66.8290 O   0  0  0  0  0  0  0  0  0  0  0  0
  -32.1491   66.1445   64.7486 O   0  0  0  0  0  0  0  0  0  0  0  0
  -32.0007   63.9149   65.6871 O   0  0  0  0  0  0  0  0  0  0  0  0
  -32.8955   65.0900   65.4871 S   0  0  0  0  0  0  0  0  0  0  0  0
  -33.8657   66.3848   66.7189 H   0  0  0  0  0  0  0  0  0  0  0  0
  -32.4796   63.2220   66.1682 H   0  0  0  0  0  0  0  0  0  0  0  0
  2  1  1  0  0  0
  2  4  1  0  0  0
  2  5  1  0  0  0
 41 42  1  0  0  0
 41  1  1  0  0  0
 42 46  1  0  0  0
  1 24  1  0  0  0
 23 24  1  0  0  0
 23 25  1  0  0  0
 24 26  1  0  0  0
  3  4  2  0  0  0
 26 27  2  0  0  0
 27 28  1  0  0  0
 43 47  1  0  0  0
 43 51  1  0  0  0
 28 29  1  0  0  0
 56 48  1  0  0  0
 56 60  1  0  0  0
 29 30  1  0  0  0
 57 60  1  0  0  0
 57 61  1  0  0  0
 30 31  1  0  0  0
 44 49  1  0  0  0
 44 52  1  0  0  0
 31 32  1  0  0  0
 45 46  1  0  0  0
 45 50  1  0  0  0
 32 33  1  0  0  0
 53 54  1  0  0  0
 53 55  1  0  0  0
 33 34  1  0  0  0
 34 35  1  0  0  0
 35 36  1  0  0  0
 58 60  1  0  0  0
 36 37  1  0  0  0
 59 60  1  0  0  0
 59 62  1  0  0  0
 37 38  1  0  0  0
 38 39  1  0  0  0
 39 40  1  0  0  0
  4  6  1  0  0  0
  6  7  1  0  0  0
  7  8  1  0  0  0
  8  9  1  0  0  0
  9 10  1  0  0  0
 10 11  1  0  0  0
 11 12  1  0  0  0
 12 13  1  0  0  0
 13 14  1  0  0  0
 14 15  1  0  0  0
 15 16  1  0  0  0
 16 17  1  0  0  0
 17 18  1  0  0  0
 18 19  1  0  0  0
 19 20  1  0  0  0
 20 21  1  0  0  0
 21 22  1  0  0  0
 46 47  1  0  0  0
 47 48  1  0  0  0
 48 49  1  0  0  0
 49 50  1  0  0  0
 50 54  1  0  0  0
M  CHG 1  58  -1
M  END
> <minimizedAffinity>
-9.08355

> <CNNscore>
0.4910432398

> <CNNaffinity>
7.1489472389

> <CNN_VS>
3.5104422569

> <CNNaffinity_variance>
0.9174984097

$$$$
/media/chris/experiments/cd1a-new-docking/inputs/ligands/1onq_ligand.pdb


 62 62  0  0  0  0  0  0  0  0999 V2000
  -39.3151   59.7385   65.0128 C   0  0  0  0  0  0  0  0  0  0  0  0
  -40.3114   59.1248   65.8683 N   0  0  0  0  0  0  0  0  0  0  0  0
  -42.2430   59.6513   64.8011 O   0  0  0  0  0  0  0  0  0  0  0  0
  -41.6426   59.1209   65.7154 C   0  0  0  0  0  0  0  0  0  0  0  0
  -39.9671   58.6521   66.6603 H   0  0  0  0  0  0  0  0  0  0  0  0
  -42.4043   58.3845   66.7772 C   0  0  0  0  0  0  0  0  0  0  0  0
  -42.8634   57.0691   66.1477 C   0  0  0  0  0  0  0  0  0  0  0  0
  -44.3887   57.0123   66.1124 C   0  0  0  0  0  0  0  0  0  0  0  0
  -45.0402   57.4731   64.8311 C   0  0  0  0  0  0  0  0  0  0  0  0
  -46.0853   58.5219   65.1967 C   0  0  0  0  0  0  0  0  0  0  0  0
  -47.4012   58.3406   64.4284 C   0  0  0  0  0  0  0  0  0  0  0  0
  -48.5191   59.3111   64.8515 C   0  0  0  0  0  0  0  0  0  0  0  0
  -49.8744   58.6050   65.0754 C   0  0  0  0  0  0  0  0  0  0  0  0
  -51.0229   59.4517   64.5196 C   0  0  0  0  0  0  0  0  0  0  0  0
  -51.0493   59.5860   63.0019 C   0  0  0  0  0  0  0  0  0  0  0  0
  -51.0109   58.2355   62.3021 C   0  0  0  0  0  0  0  0  0  0  0  0
  -49.7737   57.9588   61.4448 C   0  0  0  0  0  0  0  0  0  0  0  0
  -50.1601   56.9633   60.3594 C   0  0  0  0  0  0  0  0  0  0  0  0
  -49.4396   57.0275   59.0207 C   0  0  0  0  0  0  0  0  0  0  0  0
  -48.2924   56.0062   58.9644 C   0  0  0  0  0  0  0  0  0  0  0  0
  -47.1395   56.3925   58.0196 C   0  0  0  0  0  0  0  0  0  0  0  0
  -46.8311   57.8880   58.0232 C   0  0  0  0  0  0  0  0  0  0  0  0
  -37.4910   58.6399   64.0848 O   0  0  0  0  0  0  0  0  0  0  0  0
  -38.9054   58.5909   64.1058 C   0  0  0  0  0  0  0  0  0  0  0  0
  -37.1493   58.5019   64.9821 H   0  0  0  0  0  0  0  0  0  0  0  0
  -39.5105   58.8023   62.7160 C   0  0  0  0  0  0  0  0  0  0  0  0
  -39.5224   59.9950   62.0967 C   0  0  0  0  0  0  0  0  0  0  0  0
  -40.1470   60.1246   60.7087 C   0  0  0  0  0  0  0  0  0  0  0  0
  -39.1423   59.9691   59.5579 C   0  0  0  0  0  0  0  0  0  0  0  0
  -38.0543   58.8989   59.7630 C   0  0  0  0  0  0  0  0  0  0  0  0
  -37.1891   58.7439   58.4892 C   0  0  0  0  0  0  0  0  0  0  0  0
  -37.3714   57.4088   57.7237 C   0  0  0  0  0  0  0  0  0  0  0  0
  -36.1628   56.4490   57.8275 C   0  0  0  0  0  0  0  0  0  0  0  0
  -36.2304   55.5003   59.0438 C   0  0  0  0  0  0  0  0  0  0  0  0
  -34.9721   55.5285   59.9199 C   0  0  0  0  0  0  0  0  0  0  0  0
  -34.4773   56.9108   60.3399 C   0  0  0  0  0  0  0  0  0  0  0  0
  -35.1813   57.4745   61.5900 C   0  0  0  0  0  0  0  0  0  0  0  0
  -34.2747   57.6882   62.8117 C   0  0  0  0  0  0  0  0  0  0  0  0
  -32.7983   57.5390   62.4336 C   0  0  0  0  0  0  0  0  0  0  0  0
  -32.0126   58.8267   62.2589 C   0  0  0  0  0  0  0  0  0  0  0  0
  -38.1816   60.4918   65.7452 C   0  0  0  0  0  0  0  0  0  0  0  0
  -37.6178   61.6393   65.0605 O   0  0  0  0  0  0  0  0  0  0  0  0
  -35.8061   60.8529   62.9925 O   0  0  0  0  0  0  0  0  0  0  0  0
  -34.1054   64.5779   63.7868 O   0  0  0  0  0  0  0  0  0  0  0  0
  -35.8174   63.0920   65.7910 O   0  0  0  0  0  0  0  0  0  0  0  0
  -36.1629   61.8909   65.0590 C   0  0  0  0  0  0  0  0  0  0  0  0
  -35.5024   62.0275   63.6797 C   0  0  0  0  0  0  0  0  0  0  0  0
  -33.9656   62.1710   63.7392 C   0  0  0  0  0  0  0  0  0  0  0  0
  -33.6907   63.4272   64.5189 C   0  0  0  0  0  0  0  0  0  0  0  0
  -34.3912   63.3608   65.8639 C   0  0  0  0  0  0  0  0  0  0  0  0
  -36.7690   60.7458   62.9452 H   0  0  0  0  0  0  0  0  0  0  0  0
  -33.6465   64.6004   62.9325 H   0  0  0  0  0  0  0  0  0  0  0  0
  -34.2106   64.6737   67.8532 O   0  0  0  0  0  0  0  0  0  0  0  0
  -33.9995   64.7050   66.4737 C   0  0  0  0  0  0  0  0  0  0  0  0
  -33.9611   65.5285   68.2380 H   0  0  0  0  0  0  0  0  0  0  0  0
  -33.2938   62.3311   62.4692 O   0  0  0  0  0  0  0  0  0  0  0  0
  -31.6561   64.2700   61.9445 O   0  0  0  0  0  0  0  0  0  0  0  0
  -31.1036   62.0134   61.2434 O   0  0  0  0  0  0  0  0  0  0  0  0
  -30.9122   62.6469   63.5749 O   0  0  0  0  0  0  0  0  0  0  0  0
  -31.7112   62.8288   62.3299 S   0  0  0  0  0  0  0  0  0  0  0  0
  -32.1716   64.4081   61.1345 H   0  0  0  0  0  0  0  0  0  0  0  0
  -31.3016   63.1754   64.2891 H   0  0  0  0  0  0  0  0  0  0  0  0
  2  1  1  0  0  0
  2  4  1  0  0  0
  2  5  1  0  0  0
 41 42  1  0  0  0
 41  1  1  0  0  0
 42 46  1  0  0  0
  1 24  1  0  0  0
 23 24  1  0  0  0
 23 25  1  0  0  0
 24 26  1  0  0  0
  3  4  2  0  0  0
 26 27  2  0  0  0
 27 28  1  0  0  0
 43 47  1  0  0  0
 43 51  1  0  0  0
 28 29  1  0  0  0
 56 48  1  0  0  0
 56 60  1  0  0  0
 29 30  1  0  0  0
 57 60  1  0  0  0
 57 61  1  0  0  0
 30 31  1  0  0  0
 44 49  1  0  0  0
 44 52  1  0  0  0
 31 32  1  0  0  0
 45 46  1  0  0  0
 45 50  1  0  0  0
 32 33  1  0  0  0
 53 54  1  0  0  0
 53 55  1  0  0  0
 33 34  1  0  0  0
 34 35  1  0  0  0
 35 36  1  0  0  0
 58 60  1  0  0  0
 36 37  1  0  0  0
 59 60  1  0  0  0
 59 62  1  0  0  0
 37 38  1  0  0  0
 38 39  1  0  0  0
 39 40  1  0  0  0
  4  6  1  0  0  0
  6  7  1  0  0  0
  7  8  1  0  0  0
  8  9  1  0  0  0
  9 10  1  0  0  0
 10 11  1  0  0  0
 11 12  1  0  0  0
 12 13  1  0  0  0
 13 14  1  0  0  0
 14 15  1  0  0  0
 15 16  1  0  0  0
 16 17  1  0  0  0
 17 18  1  0  0  0
 18 19  1  0  0  0
 19 20  1  0  0  0
 20 21  1  0  0  0
 21 22  1  0  0  0
 46 47  1  0  0  0
 47 48  1  0  0  0
 48 49  1  0  0  0
 49 50  1  0  0  0
 50 54  1  0  0  0
M  CHG 1  58  -1
M  END
> <minimizedAffinity>
-9.75040

> <CNNscore>
0.4391371906

> <CNNaffinity>
7.1501684189

> <CNN_VS>
3.1399049759

> <CNNaffinity_variance>
1.4292367697

$$$$
/media/chris/experiments/cd1a-new-docking/inputs/ligands/1onq_ligand.pdb


 62 62  0  0  0  0  0  0  0  0999 V2000
  -40.1880   59.1553   65.0358 C   0  0  0  0  0  0  0  0  0  0  0  0
  -39.7356   58.4219   63.8702 N   0  0  0  0  0  0  0  0  0  0  0  0
  -37.8559   57.4139   64.6435 O   0  0  0  0  0  0  0  0  0  0  0  0
  -38.6544   57.6388   63.7549 C   0  0  0  0  0  0  0  0  0  0  0  0
  -40.2919   58.5102   63.0627 H   0  0  0  0  0  0  0  0  0  0  0  0
  -38.4646   57.0081   62.4072 C   0  0  0  0  0  0  0  0  0  0  0  0
  -37.0188   57.2889   61.9973 C   0  0  0  0  0  0  0  0  0  0  0  0
  -36.9662   58.4975   61.0658 C   0  0  0  0  0  0  0  0  0  0  0  0
  -38.2927   59.1352   60.7310 C   0  0  0  0  0  0  0  0  0  0  0  0
  -38.4357   59.1315   59.2126 C   0  0  0  0  0  0  0  0  0  0  0  0
  -37.1363   58.7412   58.4956 C   0  0  0  0  0  0  0  0  0  0  0  0
  -37.2579   57.4937   57.6014 C   0  0  0  0  0  0  0  0  0  0  0  0
  -36.1030   56.4899   57.8108 C   0  0  0  0  0  0  0  0  0  0  0  0
  -36.5017   55.4110   58.8216 C   0  0  0  0  0  0  0  0  0  0  0  0
  -35.3829   54.9502   59.7482 C   0  0  0  0  0  0  0  0  0  0  0  0
  -34.0752   55.6811   59.4820 C   0  0  0  0  0  0  0  0  0  0  0  0
  -33.8020   56.9075   60.3557 C   0  0  0  0  0  0  0  0  0  0  0  0
  -32.9323   56.4724   61.5275 C   0  0  0  0  0  0  0  0  0  0  0  0
  -32.6376   57.4787   62.6302 C   0  0  0  0  0  0  0  0  0  0  0  0
  -33.4240   58.7808   62.4107 C   0  0  0  0  0  0  0  0  0  0  0  0
  -34.2470   59.2424   63.6274 C   0  0  0  0  0  0  0  0  0  0  0  0
  -34.4459   58.1472   64.6727 C   0  0  0  0  0  0  0  0  0  0  0  0
  -41.4048   61.0720   64.5449 O   0  0  0  0  0  0  0  0  0  0  0  0
  -41.5503   59.6650   64.5979 C   0  0  0  0  0  0  0  0  0  0  0  0
  -40.7292   61.3027   63.8883 H   0  0  0  0  0  0  0  0  0  0  0  0
  -42.6054   59.2324   65.6187 C   0  0  0  0  0  0  0  0  0  0  0  0
  -43.9092   59.1098   65.3163 C   0  0  0  0  0  0  0  0  0  0  0  0
  -44.9015   58.6734   66.3926 C   0  0  0  0  0  0  0  0  0  0  0  0
  -46.3487   59.1061   66.1163 C   0  0  0  0  0  0  0  0  0  0  0  0
  -46.9907   58.5141   64.8480 C   0  0  0  0  0  0  0  0  0  0  0  0
  -48.1741   59.3901   64.3712 C   0  0  0  0  0  0  0  0  0  0  0  0
  -49.5819   58.7882   64.6110 C   0  0  0  0  0  0  0  0  0  0  0  0
  -50.7412   59.6455   64.0508 C   0  0  0  0  0  0  0  0  0  0  0  0
  -51.3504   59.0843   62.7478 C   0  0  0  0  0  0  0  0  0  0  0  0
  -50.5957   57.8744   62.1840 C   0  0  0  0  0  0  0  0  0  0  0  0
  -51.1188   57.3123   60.8639 C   0  0  0  0  0  0  0  0  0  0  0  0
  -50.1496   57.4924   59.6789 C   0  0  0  0  0  0  0  0  0  0  0  0
  -48.6728   57.6721   60.0622 C   0  0  0  0  0  0  0  0  0  0  0  0
  -47.7518   57.0480   59.0100 C   0  0  0  0  0  0  0  0  0  0  0  0
  -46.3001   57.4924   59.0345 C   0  0  0  0  0  0  0  0  0  0  0  0
  -39.1942   60.2004   65.5917 C   0  0  0  0  0  0  0  0  0  0  0  0
  -38.5394   61.0537   64.6189 O   0  0  0  0  0  0  0  0  0  0  0  0
  -36.6227   61.6166   62.5727 O   0  0  0  0  0  0  0  0  0  0  0  0
  -35.7574   64.8881   65.0116 O   0  0  0  0  0  0  0  0  0  0  0  0
  -37.0871   62.3741   66.0448 O   0  0  0  0  0  0  0  0  0  0  0  0
  -37.1732   61.5653   64.8464 C   0  0  0  0  0  0  0  0  0  0  0  0
  -36.5723   62.4131   63.7161 C   0  0  0  0  0  0  0  0  0  0  0  0
  -35.1022   62.8195   63.9596 C   0  0  0  0  0  0  0  0  0  0  0  0
  -35.0965   63.6421   65.2185 C   0  0  0  0  0  0  0  0  0  0  0  0
  -35.7519   62.8629   66.3443 C   0  0  0  0  0  0  0  0  0  0  0  0
  -37.5403   61.3512   62.4038 H   0  0  0  0  0  0  0  0  0  0  0  0
  -35.3233   65.3684   64.2893 H   0  0  0  0  0  0  0  0  0  0  0  0
  -34.3476   64.3461   67.5859 O   0  0  0  0  0  0  0  0  0  0  0  0
  -35.6530   63.8596   67.4972 C   0  0  0  0  0  0  0  0  0  0  0  0
  -34.2874   64.9788   68.3187 H   0  0  0  0  0  0  0  0  0  0  0  0
  -34.4942   63.6429   62.9387 O   0  0  0  0  0  0  0  0  0  0  0  0
  -32.6862   65.4625   63.3089 O   0  0  0  0  0  0  0  0  0  0  0  0
  -32.4053   63.8413   61.5252 O   0  0  0  0  0  0  0  0  0  0  0  0
  -32.0465   63.1902   63.8320 O   0  0  0  0  0  0  0  0  0  0  0  0
  -32.8756   64.0326   62.9240 S   0  0  0  0  0  0  0  0  0  0  0  0
  -33.2193   66.0272   62.7277 H   0  0  0  0  0  0  0  0  0  0  0  0
  -32.3465   63.3089   64.7468 H   0  0  0  0  0  0  0  0  0  0  0  0
  2  1  1  0  0  0
  2  4  1  0  0  0
  2  5  1  0  0  0
 41 42  1  0  0  0
 41  1  1  0  0  0
 42 46  1  0  0  0
  1 24  1  0  0  0
 23 24  1  0  0  0
 23 25  1  0  0  0
 24 26  1  0  0  0
  3  4  2  0  0  0
 26 27  2  0  0  0
 27 28  1  0  0  0
 43 47  1  0  0  0
 43 51  1  0  0  0
 28 29  1  0  0  0
 56 48  1  0  0  0
 56 60  1  0  0  0
 29 30  1  0  0  0
 57 60  1  0  0  0
 57 61  1  0  0  0
 30 31  1  0  0  0
 44 49  1  0  0  0
 44 52  1  0  0  0
 31 32  1  0  0  0
 45 46  1  0  0  0
 45 50  1  0  0  0
 32 33  1  0  0  0
 53 54  1  0  0  0
 53 55  1  0  0  0
 33 34  1  0  0  0
 34 35  1  0  0  0
 35 36  1  0  0  0
 58 60  1  0  0  0
 36 37  1  0  0  0
 59 60  1  0  0  0
 59 62  1  0  0  0
 37 38  1  0  0  0
 38 39  1  0  0  0
 39 40  1  0  0  0
  4  6  1  0  0  0
  6  7  1  0  0  0
  7  8  1  0  0  0
  8  9  1  0  0  0
  9 10  1  0  0  0
 10 11  1  0  0  0
 11 12  1  0  0  0
 12 13  1  0  0  0
 13 14  1  0  0  0
 14 15  1  0  0  0
 15 16  1  0  0  0
 16 17  1  0  0  0
 17 18  1  0  0  0
 18 19  1  0  0  0
 19 20  1  0  0  0
 20 21  1  0  0  0
 21 22  1  0  0  0
 46 47  1  0  0  0
 47 48  1  0  0  0
 48 49  1  0  0  0
 49 50  1  0  0  0
 50 54  1  0  0  0
M  CHG 1  58  -1
M  END
> <minimizedAffinity>
-9.85785

> <CNNscore>
0.3621704280

> <CNNaffinity>
7.2683525085

> <CNN_VS>
2.6323823929

> <CNNaffinity_variance>
1.2535336018

$$$$
/media/chris/experiments/cd1a-new-docking/inputs/ligands/1onq_ligand.pdb


 62 62  0  0  0  0  0  0  0  0999 V2000
  -38.9353   59.5328   65.0447 C   0  0  0  0  0  0  0  0  0  0  0  0
  -40.1574   59.1881   65.7438 N   0  0  0  0  0  0  0  0  0  0  0  0
  -41.0182   61.2301   66.2303 O   0  0  0  0  0  0  0  0  0  0  0  0
  -41.0730   60.0162   66.2648 C   0  0  0  0  0  0  0  0  0  0  0  0
  -40.3371   58.2258   65.8489 H   0  0  0  0  0  0  0  0  0  0  0  0
  -42.2404   59.3429   66.9234 C   0  0  0  0  0  0  0  0  0  0  0  0
  -42.8607   58.4237   65.8710 C   0  0  0  0  0  0  0  0  0  0  0  0
  -44.2114   58.9785   65.4249 C   0  0  0  0  0  0  0  0  0  0  0  0
  -45.1111   58.0187   64.6850 C   0  0  0  0  0  0  0  0  0  0  0  0
  -45.4576   56.8818   65.6407 C   0  0  0  0  0  0  0  0  0  0  0  0
  -46.8455   57.0429   66.2752 C   0  0  0  0  0  0  0  0  0  0  0  0
  -47.9460   57.4726   65.2879 C   0  0  0  0  0  0  0  0  0  0  0  0
  -48.6575   58.7762   65.7120 C   0  0  0  0  0  0  0  0  0  0  0  0
  -50.1690   58.6616   65.4950 C   0  0  0  0  0  0  0  0  0  0  0  0
  -50.6182   58.7230   64.0401 C   0  0  0  0  0  0  0  0  0  0  0  0
  -49.7855   59.6967   63.2194 C   0  0  0  0  0  0  0  0  0  0  0  0
  -49.8902   59.5537   61.6993 C   0  0  0  0  0  0  0  0  0  0  0  0
  -49.4394   58.1491   61.3216 C   0  0  0  0  0  0  0  0  0  0  0  0
  -50.1607   57.4311   60.1904 C   0  0  0  0  0  0  0  0  0  0  0  0
  -49.2235   57.2124   58.9921 C   0  0  0  0  0  0  0  0  0  0  0  0
  -47.7408   57.5136   59.2778 C   0  0  0  0  0  0  0  0  0  0  0  0
  -46.8988   57.6569   58.0120 C   0  0  0  0  0  0  0  0  0  0  0  0
  -39.6560   57.3755   64.5731 O   0  0  0  0  0  0  0  0  0  0  0  0
  -38.7496   58.3556   64.1027 C   0  0  0  0  0  0  0  0  0  0  0  0
  -40.5617   57.7178   64.5140 H   0  0  0  0  0  0  0  0  0  0  0  0
  -37.2973   57.8773   64.1693 C   0  0  0  0  0  0  0  0  0  0  0  0
  -36.3488   58.2965   63.3144 C   0  0  0  0  0  0  0  0  0  0  0  0
  -34.9206   57.7708   63.4461 C   0  0  0  0  0  0  0  0  0  0  0  0
  -33.8634   58.6730   62.7932 C   0  0  0  0  0  0  0  0  0  0  0  0
  -32.8375   57.9560   61.8962 C   0  0  0  0  0  0  0  0  0  0  0  0
  -33.2154   56.4667   61.7113 C   0  0  0  0  0  0  0  0  0  0  0  0
  -33.8026   56.1000   60.3248 C   0  0  0  0  0  0  0  0  0  0  0  0
  -35.3139   55.7707   60.3439 C   0  0  0  0  0  0  0  0  0  0  0  0
  -36.0083   55.9780   58.9805 C   0  0  0  0  0  0  0  0  0  0  0  0
  -35.6811   57.3220   58.3187 C   0  0  0  0  0  0  0  0  0  0  0  0
  -36.8107   57.9703   57.5211 C   0  0  0  0  0  0  0  0  0  0  0  0
  -38.0212   58.3900   58.3782 C   0  0  0  0  0  0  0  0  0  0  0  0
  -37.6880   59.2555   59.6029 C   0  0  0  0  0  0  0  0  0  0  0  0
  -38.8120   59.1951   60.6411 C   0  0  0  0  0  0  0  0  0  0  0  0
  -39.9748   60.1493   60.4335 C   0  0  0  0  0  0  0  0  0  0  0  0
  -37.7358   59.9057   65.9452 C   0  0  0  0  0  0  0  0  0  0  0  0
  -37.7266   61.2502   66.4887 O   0  0  0  0  0  0  0  0  0  0  0  0
  -35.5877   62.6995   67.7142 O   0  0  0  0  0  0  0  0  0  0  0  0
  -33.8941   62.3839   63.9153 O   0  0  0  0  0  0  0  0  0  0  0  0
  -36.8711   62.1647   64.4109 O   0  0  0  0  0  0  0  0  0  0  0  0
  -36.9495   62.3296   65.8477 C   0  0  0  0  0  0  0  0  0  0  0  0
  -35.5043   62.5034   66.3362 C   0  0  0  0  0  0  0  0  0  0  0  0
  -34.7818   63.7196   65.7161 C   0  0  0  0  0  0  0  0  0  0  0  0
  -34.7508   63.4784   64.2321 C   0  0  0  0  0  0  0  0  0  0  0  0
  -36.1587   63.2280   63.7228 C   0  0  0  0  0  0  0  0  0  0  0  0
  -36.0396   61.9440   68.1215 H   0  0  0  0  0  0  0  0  0  0  0  0
  -33.0016   62.5646   64.2493 H   0  0  0  0  0  0  0  0  0  0  0  0
  -34.8314   63.7906   61.8162 O   0  0  0  0  0  0  0  0  0  0  0  0
  -35.9041   63.0012   62.2342 C   0  0  0  0  0  0  0  0  0  0  0  0
  -34.6718   63.6448   60.8706 H   0  0  0  0  0  0  0  0  0  0  0  0
  -33.4076   63.9150   66.1204 O   0  0  0  0  0  0  0  0  0  0  0  0
  -33.4499   66.3360   65.1965 O   0  0  0  0  0  0  0  0  0  0  0  0
  -31.3846   65.0637   65.1261 O   0  0  0  0  0  0  0  0  0  0  0  0
  -32.1801   65.9816   67.2234 O   0  0  0  0  0  0  0  0  0  0  0  0
  -32.5980   65.3580   65.9358 S   0  0  0  0  0  0  0  0  0  0  0  0
  -33.7320   65.9470   64.3540 H   0  0  0  0  0  0  0  0  0  0  0  0
  -32.9656   66.1769   67.7580 H   0  0  0  0  0  0  0  0  0  0  0  0
  2  1  1  0  0  0
  2  4  1  0  0  0
  2  5  1  0  0  0
 41 42  1  0  0  0
 41  1  1  0  0  0
 42 46  1  0  0  0
  1 24  1  0  0  0
 23 24  1  0  0  0
 23 25  1  0  0  0
 24 26  1  0  0  0
  3  4  2  0  0  0
 26 27  2  0  0  0
 27 28  1  0  0  0
 43 47  1  0  0  0
 43 51  1  0  0  0
 28 29  1  0  0  0
 56 48  1  0  0  0
 56 60  1  0  0  0
 29 30  1  0  0  0
 57 60  1  0  0  0
 57 61  1  0  0  0
 30 31  1  0  0  0
 44 49  1  0  0  0
 44 52  1  0  0  0
 31 32  1  0  0  0
 45 46  1  0  0  0
 45 50  1  0  0  0
 32 33  1  0  0  0
 53 54  1  0  0  0
 53 55  1  0  0  0
 33 34  1  0  0  0
 34 35  1  0  0  0
 35 36  1  0  0  0
 58 60  1  0  0  0
 36 37  1  0  0  0
 59 60  1  0  0  0
 59 62  1  0  0  0
 37 38  1  0  0  0
 38 39  1  0  0  0
 39 40  1  0  0  0
  4  6  1  0  0  0
  6  7  1  0  0  0
  7  8  1  0  0  0
  8  9  1  0  0  0
  9 10  1  0  0  0
 10 11  1  0  0  0
 11 12  1  0  0  0
 12 13  1  0  0  0
 13 14  1  0  0  0
 14 15  1  0  0  0
 15 16  1  0  0  0
 16 17  1  0  0  0
 17 18  1  0  0  0
 18 19  1  0  0  0
 19 20  1  0  0  0
 20 21  1  0  0  0
 21 22  1  0  0  0
 46 47  1  0  0  0
 47 48  1  0  0  0
 48 49  1  0  0  0
 49 50  1  0  0  0
 50 54  1  0  0  0
M  CHG 1  58  -1
M  END
> <minimizedAffinity>
-9.60732

> <CNNscore>
0.3374249041

> <CNNaffinity>
7.2400665283

> <CNN_VS>
2.4429788589

> <CNNaffinity_variance>
1.3599456549

$$$$
/media/chris/experiments/cd1a-new-docking/inputs/ligands/1onq_ligand.pdb


 62 62  0  0  0  0  0  0  0  0999 V2000
  -40.0919   59.1207   64.7882 C   0  0  0  0  0  0  0  0  0  0  0  0
  -41.2035   58.7181   65.6269 N   0  0  0  0  0  0  0  0  0  0  0  0
  -42.9448   59.8064   64.6620 O   0  0  0  0  0  0  0  0  0  0  0  0
  -42.4920   59.0688   65.5157 C   0  0  0  0  0  0  0  0  0  0  0  0
  -40.9846   58.1116   66.3709 H   0  0  0  0  0  0  0  0  0  0  0  0
  -43.4065   58.4715   66.5436 C   0  0  0  0  0  0  0  0  0  0  0  0
  -43.9014   57.1457   65.9651 C   0  0  0  0  0  0  0  0  0  0  0  0
  -45.4226   57.1684   65.8365 C   0  0  0  0  0  0  0  0  0  0  0  0
  -46.0432   58.5116   65.5380 C   0  0  0  0  0  0  0  0  0  0  0  0
  -47.1468   58.7476   66.5638 C   0  0  0  0  0  0  0  0  0  0  0  0
  -48.3652   59.4662   65.9691 C   0  0  0  0  0  0  0  0  0  0  0  0
  -48.0541   60.3087   64.7185 C   0  0  0  0  0  0  0  0  0  0  0  0
  -49.2421   60.3840   63.7344 C   0  0  0  0  0  0  0  0  0  0  0  0
  -50.2796   59.3049   64.0567 C   0  0  0  0  0  0  0  0  0  0  0  0
  -50.8662   58.5916   62.8445 C   0  0  0  0  0  0  0  0  0  0  0  0
  -49.7987   57.9009   62.0087 C   0  0  0  0  0  0  0  0  0  0  0  0
  -49.7295   58.3115   60.5361 C   0  0  0  0  0  0  0  0  0  0  0  0
  -49.7245   57.0460   59.6892 C   0  0  0  0  0  0  0  0  0  0  0  0
  -48.3926   56.3740   59.3897 C   0  0  0  0  0  0  0  0  0  0  0  0
  -47.2473   57.3989   59.3903 C   0  0  0  0  0  0  0  0  0  0  0  0
  -46.7232   57.7716   57.9912 C   0  0  0  0  0  0  0  0  0  0  0  0
  -47.2007   56.8221   56.8948 C   0  0  0  0  0  0  0  0  0  0  0  0
  -40.2979   56.8181   65.0138 O   0  0  0  0  0  0  0  0  0  0  0  0
  -39.4888   57.7888   64.3762 C   0  0  0  0  0  0  0  0  0  0  0  0
  -41.2090   56.8928   64.6894 H   0  0  0  0  0  0  0  0  0  0  0  0
  -38.0334   57.7246   64.8452 C   0  0  0  0  0  0  0  0  0  0  0  0
  -37.0022   57.5256   64.0064 C   0  0  0  0  0  0  0  0  0  0  0  0
  -35.5768   57.4732   64.5530 C   0  0  0  0  0  0  0  0  0  0  0  0
  -34.7551   58.7390   64.2691 C   0  0  0  0  0  0  0  0  0  0  0  0
  -34.0662   58.7917   62.8930 C   0  0  0  0  0  0  0  0  0  0  0  0
  -32.8310   57.8597   62.8610 C   0  0  0  0  0  0  0  0  0  0  0  0
  -32.8601   56.7595   61.7701 C   0  0  0  0  0  0  0  0  0  0  0  0
  -34.2782   56.4089   61.2615 C   0  0  0  0  0  0  0  0  0  0  0  0
  -34.5174   56.7936   59.7853 C   0  0  0  0  0  0  0  0  0  0  0  0
  -35.9703   56.6157   59.3282 C   0  0  0  0  0  0  0  0  0  0  0  0
  -37.0073   56.4494   60.4369 C   0  0  0  0  0  0  0  0  0  0  0  0
  -37.8720   57.7025   60.6782 C   0  0  0  0  0  0  0  0  0  0  0  0
  -37.7914   58.7750   59.5814 C   0  0  0  0  0  0  0  0  0  0  0  0
  -38.8642   59.8491   59.7826 C   0  0  0  0  0  0  0  0  0  0  0  0
  -39.5754   59.8499   61.1242 C   0  0  0  0  0  0  0  0  0  0  0  0
  -39.1330   60.1622   65.4085 C   0  0  0  0  0  0  0  0  0  0  0  0
  -38.5134   61.0997   64.4917 O   0  0  0  0  0  0  0  0  0  0  0  0
  -36.5485   61.2032   62.4167 O   0  0  0  0  0  0  0  0  0  0  0  0
  -35.4251   64.7114   64.3736 O   0  0  0  0  0  0  0  0  0  0  0  0
  -36.9625   62.4896   65.7361 O   0  0  0  0  0  0  0  0  0  0  0  0
  -37.1104   61.5259   64.6650 C   0  0  0  0  0  0  0  0  0  0  0  0
  -36.4369   62.1498   63.4344 C   0  0  0  0  0  0  0  0  0  0  0  0
  -34.9392   62.4662   63.6403 C   0  0  0  0  0  0  0  0  0  0  0  0
  -34.8705   63.4588   64.7679 C   0  0  0  0  0  0  0  0  0  0  0  0
  -35.5927   62.9064   65.9835 C   0  0  0  0  0  0  0  0  0  0  0  0
  -37.4842   60.9917   62.2730 H   0  0  0  0  0  0  0  0  0  0  0  0
  -34.9498   65.0454   63.5969 H   0  0  0  0  0  0  0  0  0  0  0  0
  -36.3378   63.9083   68.0217 O   0  0  0  0  0  0  0  0  0  0  0  0
  -35.4162   64.0478   66.9825 C   0  0  0  0  0  0  0  0  0  0  0  0
  -36.2237   64.6344   68.6547 H   0  0  0  0  0  0  0  0  0  0  0  0
  -34.2610   63.0812   62.5215 O   0  0  0  0  0  0  0  0  0  0  0  0
  -32.2038   64.0407   61.2709 O   0  0  0  0  0  0  0  0  0  0  0  0
  -32.2094   61.7128   61.9567 O   0  0  0  0  0  0  0  0  0  0  0  0
  -31.8755   63.4660   63.5965 O   0  0  0  0  0  0  0  0  0  0  0  0
  -32.6049   63.0920   62.3517 S   0  0  0  0  0  0  0  0  0  0  0  0
  -32.6694   63.8125   60.4512 H   0  0  0  0  0  0  0  0  0  0  0  0
  -32.1276   64.3645   63.8614 H   0  0  0  0  0  0  0  0  0  0  0  0
  2  1  1  0  0  0
  2  4  1  0  0  0
  2  5  1  0  0  0
 41 42  1  0  0  0
 41  1  1  0  0  0
 42 46  1  0  0  0
  1 24  1  0  0  0
 23 24  1  0  0  0
 23 25  1  0  0  0
 24 26  1  0  0  0
  3  4  2  0  0  0
 26 27  2  0  0  0
 27 28  1  0  0  0
 43 47  1  0  0  0
 43 51  1  0  0  0
 28 29  1  0  0  0
 56 48  1  0  0  0
 56 60  1  0  0  0
 29 30  1  0  0  0
 57 60  1  0  0  0
 57 61  1  0  0  0
 30 31  1  0  0  0
 44 49  1  0  0  0
 44 52  1  0  0  0
 31 32  1  0  0  0
 45 46  1  0  0  0
 45 50  1  0  0  0
 32 33  1  0  0  0
 53 54  1  0  0  0
 53 55  1  0  0  0
 33 34  1  0  0  0
 34 35  1  0  0  0
 35 36  1  0  0  0
 58 60  1  0  0  0
 36 37  1  0  0  0
 59 60  1  0  0  0
 59 62  1  0  0  0
 37 38  1  0  0  0
 38 39  1  0  0  0
 39 40  1  0  0  0
  4  6  1  0  0  0
  6  7  1  0  0  0
  7  8  1  0  0  0
  8  9  1  0  0  0
  9 10  1  0  0  0
 10 11  1  0  0  0
 11 12  1  0  0  0
 12 13  1  0  0  0
 13 14  1  0  0  0
 14 15  1  0  0  0
 15 16  1  0  0  0
 16 17  1  0  0  0
 17 18  1  0  0  0
 18 19  1  0  0  0
 19 20  1  0  0  0
 20 21  1  0  0  0
 21 22  1  0  0  0
 46 47  1  0  0  0
 47 48  1  0  0  0
 48 49  1  0  0  0
 49 50  1  0  0  0
 50 54  1  0  0  0
M  CHG 1  58  -1
M  END
> <minimizedAffinity>
-9.86522

> <CNNscore>
0.2945593297

> <CNNaffinity>
7.3412604332

> <CNN_VS>
2.1624367237

> <CNNaffinity_variance>
1.1825954914

$$$$
/media/chris/experiments/cd1a-new-docking/inputs/ligands/1onq_ligand.pdb


 62 62  0  0  0  0  0  0  0  0999 V2000
  -40.0583   59.2069   64.9513 C   0  0  0  0  0  0  0  0  0  0  0  0
  -39.4132   58.4718   63.8814 N   0  0  0  0  0  0  0  0  0  0  0  0
  -37.7925   57.3389   64.9938 O   0  0  0  0  0  0  0  0  0  0  0  0
  -38.3753   57.6285   63.9670 C   0  0  0  0  0  0  0  0  0  0  0  0
  -39.7837   58.6091   62.9797 H   0  0  0  0  0  0  0  0  0  0  0  0
  -37.9433   57.0151   62.6682 C   0  0  0  0  0  0  0  0  0  0  0  0
  -36.4158   57.0743   62.6481 C   0  0  0  0  0  0  0  0  0  0  0  0
  -35.9504   58.5282   62.6239 C   0  0  0  0  0  0  0  0  0  0  0  0
  -34.6915   58.8348   63.3982 C   0  0  0  0  0  0  0  0  0  0  0  0
  -33.5287   58.8208   62.4115 C   0  0  0  0  0  0  0  0  0  0  0  0
  -32.6202   57.5960   62.5830 C   0  0  0  0  0  0  0  0  0  0  0  0
  -32.9365   56.4349   61.6227 C   0  0  0  0  0  0  0  0  0  0  0  0
  -33.6506   56.8989   60.3342 C   0  0  0  0  0  0  0  0  0  0  0  0
  -33.9712   55.7026   59.4337 C   0  0  0  0  0  0  0  0  0  0  0  0
  -35.3200   55.0427   59.6939 C   0  0  0  0  0  0  0  0  0  0  0  0
  -36.4856   55.9290   59.2804 C   0  0  0  0  0  0  0  0  0  0  0  0
  -36.4018   56.5372   57.8786 C   0  0  0  0  0  0  0  0  0  0  0  0
  -36.6642   58.0329   57.9927 C   0  0  0  0  0  0  0  0  0  0  0  0
  -38.0393   58.4995   58.4472 C   0  0  0  0  0  0  0  0  0  0  0  0
  -37.9243   59.5012   59.6072 C   0  0  0  0  0  0  0  0  0  0  0  0
  -39.1786   59.5964   60.4952 C   0  0  0  0  0  0  0  0  0  0  0  0
  -40.3011   60.4203   59.8685 C   0  0  0  0  0  0  0  0  0  0  0  0
  -41.4958   60.8378   64.1332 O   0  0  0  0  0  0  0  0  0  0  0  0
  -41.4511   59.4475   64.3947 C   0  0  0  0  0  0  0  0  0  0  0  0
  -40.8227   61.0645   63.4726 H   0  0  0  0  0  0  0  0  0  0  0  0
  -42.4922   59.0220   65.4327 C   0  0  0  0  0  0  0  0  0  0  0  0
  -43.8006   59.3062   65.3159 C   0  0  0  0  0  0  0  0  0  0  0  0
  -44.7777   58.8469   66.3965 C   0  0  0  0  0  0  0  0  0  0  0  0
  -46.2508   58.9014   65.9665 C   0  0  0  0  0  0  0  0  0  0  0  0
  -46.7388   57.7195   65.1085 C   0  0  0  0  0  0  0  0  0  0  0  0
  -48.2824   57.7221   64.9970 C   0  0  0  0  0  0  0  0  0  0  0  0
  -48.8655   58.6536   63.9043 C   0  0  0  0  0  0  0  0  0  0  0  0
  -50.3575   58.3992   63.5851 C   0  0  0  0  0  0  0  0  0  0  0  0
  -50.7439   58.7380   62.1291 C   0  0  0  0  0  0  0  0  0  0  0  0
  -51.0590   57.5067   61.2711 C   0  0  0  0  0  0  0  0  0  0  0  0
  -50.2809   57.3831   59.9628 C   0  0  0  0  0  0  0  0  0  0  0  0
  -48.7825   57.7212   60.0914 C   0  0  0  0  0  0  0  0  0  0  0  0
  -47.8254   56.7152   59.4342 C   0  0  0  0  0  0  0  0  0  0  0  0
  -47.3921   57.1947   58.0459 C   0  0  0  0  0  0  0  0  0  0  0  0
  -46.1031   57.9947   57.9797 C   0  0  0  0  0  0  0  0  0  0  0  0
  -39.2875   60.4426   65.4689 C   0  0  0  0  0  0  0  0  0  0  0  0
  -38.6110   61.2493   64.4713 O   0  0  0  0  0  0  0  0  0  0  0  0
  -36.7781   61.7326   62.3303 O   0  0  0  0  0  0  0  0  0  0  0  0
  -35.4903   64.8173   64.8253 O   0  0  0  0  0  0  0  0  0  0  0  0
  -36.9680   62.3836   65.8495 O   0  0  0  0  0  0  0  0  0  0  0  0
  -37.1947   61.6347   64.6307 C   0  0  0  0  0  0  0  0  0  0  0  0
  -36.5912   62.4746   63.4959 C   0  0  0  0  0  0  0  0  0  0  0  0
  -35.0797   62.7459   63.6610 C   0  0  0  0  0  0  0  0  0  0  0  0
  -34.9282   63.5129   64.9456 C   0  0  0  0  0  0  0  0  0  0  0  0
  -35.5802   62.7460   66.0819 C   0  0  0  0  0  0  0  0  0  0  0  0
  -37.7236   61.5523   62.2099 H   0  0  0  0  0  0  0  0  0  0  0  0
  -35.0601   65.2887   64.0948 H   0  0  0  0  0  0  0  0  0  0  0  0
  -36.5064   63.8489   67.9895 O   0  0  0  0  0  0  0  0  0  0  0  0
  -35.3272   63.6828   67.2611 C   0  0  0  0  0  0  0  0  0  0  0  0
  -36.3431   64.4442   68.7378 H   0  0  0  0  0  0  0  0  0  0  0  0
  -34.4648   63.5565   62.6340 O   0  0  0  0  0  0  0  0  0  0  0  0
  -32.3154   63.7916   61.2051 O   0  0  0  0  0  0  0  0  0  0  0  0
  -32.1660   62.8884   63.4525 O   0  0  0  0  0  0  0  0  0  0  0  0
  -32.5033   65.2644   63.1135 O   0  0  0  0  0  0  0  0  0  0  0  0
  -32.8374   63.9060   62.5991 S   0  0  0  0  0  0  0  0  0  0  0  0
  -32.5239   62.9122   60.8529 H   0  0  0  0  0  0  0  0  0  0  0  0
  -32.9372   65.9345   62.5625 H   0  0  0  0  0  0  0  0  0  0  0  0
  2  1  1  0  0  0
  2  4  1  0  0  0
  2  5  1  0  0  0
 41 42  1  0  0  0
 41  1  1  0  0  0
 42 46  1  0  0  0
  1 24  1  0  0  0
 23 24  1  0  0  0
 23 25  1  0  0  0
 24 26  1  0  0  0
  3  4  2  0  0  0
 26 27  2  0  0  0
 27 28  1  0  0  0
 43 47  1  0  0  0
 43 51  1  0  0  0
 28 29  1  0  0  0
 56 48  1  0  0  0
 56 60  1  0  0  0
 29 30  1  0  0  0
 57 60  1  0  0  0
 57 61  1  0  0  0
 30 31  1  0  0  0
 44 49  1  0  0  0
 44 52  1  0  0  0
 31 32  1  0  0  0
 45 46  1  0  0  0
 45 50  1  0  0  0
 32 33  1  0  0  0
 53 54  1  0  0  0
 53 55  1  0  0  0
 33 34  1  0  0  0
 34 35  1  0  0  0
 35 36  1  0  0  0
 58 60  1  0  0  0
 36 37  1  0  0  0
 59 60  1  0  0  0
 59 62  1  0  0  0
 37 38  1  0  0  0
 38 39  1  0  0  0
 39 40  1  0  0  0
  4  6  1  0  0  0
  6  7  1  0  0  0
  7  8  1  0  0  0
  8  9  1  0  0  0
  9 10  1  0  0  0
 10 11  1  0  0  0
 11 12  1  0  0  0
 12 13  1  0  0  0
 13 14  1  0  0  0
 14 15  1  0  0  0
 15 16  1  0  0  0
 16 17  1  0  0  0
 17 18  1  0  0  0
 18 19  1  0  0  0
 19 20  1  0  0  0
 20 21  1  0  0  0
 21 22  1  0  0  0
 46 47  1  0  0  0
 47 48  1  0  0  0
 48 49  1  0  0  0
 49 50  1  0  0  0
 50 54  1  0  0  0
M  CHG 1  58  -1
M  END
> <minimizedAffinity>
-9.79569

> <CNNscore>
0.2805578709

> <CNNaffinity>
7.3381857872

> <CNN_VS>
2.0587856770

> <CNNaffinity_variance>
1.0730783939

$$$$
/media/chris/experiments/cd1a-new-docking/inputs/ligands/1onq_ligand.pdb


 62 62  0  0  0  0  0  0  0  0999 V2000
  -40.1124   58.8490   64.6369 C   0  0  0  0  0  0  0  0  0  0  0  0
  -41.1138   58.2120   65.4691 N   0  0  0  0  0  0  0  0  0  0  0  0
  -42.9778   59.4032   64.9649 O   0  0  0  0  0  0  0  0  0  0  0  0
  -42.4150   58.5145   65.5742 C   0  0  0  0  0  0  0  0  0  0  0  0
  -40.7988   57.4641   66.0264 H   0  0  0  0  0  0  0  0  0  0  0  0
  -43.1948   57.6548   66.5244 C   0  0  0  0  0  0  0  0  0  0  0  0
  -44.1481   56.8192   65.6699 C   0  0  0  0  0  0  0  0  0  0  0  0
  -45.5950   57.1513   66.0264 C   0  0  0  0  0  0  0  0  0  0  0  0
  -46.3707   57.9310   64.9925 C   0  0  0  0  0  0  0  0  0  0  0  0
  -46.7302   59.2799   65.6065 C   0  0  0  0  0  0  0  0  0  0  0  0
  -48.2126   59.3808   65.9899 C   0  0  0  0  0  0  0  0  0  0  0  0
  -49.0326   58.1144   65.6826 C   0  0  0  0  0  0  0  0  0  0  0  0
  -50.5034   58.4231   65.3265 C   0  0  0  0  0  0  0  0  0  0  0  0
  -50.5915   59.6439   64.4062 C   0  0  0  0  0  0  0  0  0  0  0  0
  -51.3639   59.4213   63.1116 C   0  0  0  0  0  0  0  0  0  0  0  0
  -50.4959   58.8158   62.0184 C   0  0  0  0  0  0  0  0  0  0  0  0
  -51.0264   57.5332   61.3737 C   0  0  0  0  0  0  0  0  0  0  0  0
  -50.1880   57.2408   60.1366 C   0  0  0  0  0  0  0  0  0  0  0  0
  -49.3922   55.9449   60.0845 C   0  0  0  0  0  0  0  0  0  0  0  0
  -48.1981   56.0714   59.1252 C   0  0  0  0  0  0  0  0  0  0  0  0
  -47.2778   57.2735   59.4062 C   0  0  0  0  0  0  0  0  0  0  0  0
  -46.7448   57.9355   58.1376 C   0  0  0  0  0  0  0  0  0  0  0  0
  -38.0126   57.9712   65.1015 O   0  0  0  0  0  0  0  0  0  0  0  0
  -39.1648   57.7038   64.3241 C   0  0  0  0  0  0  0  0  0  0  0  0
  -38.2494   57.9683   66.0421 H   0  0  0  0  0  0  0  0  0  0  0  0
  -38.8591   57.6940   62.8245 C   0  0  0  0  0  0  0  0  0  0  0  0
  -37.9285   56.8969   62.2724 C   0  0  0  0  0  0  0  0  0  0  0  0
  -37.6815   56.9469   60.7658 C   0  0  0  0  0  0  0  0  0  0  0  0
  -37.5791   58.3706   60.1995 C   0  0  0  0  0  0  0  0  0  0  0  0
  -37.1467   58.4719   58.7251 C   0  0  0  0  0  0  0  0  0  0  0  0
  -36.4091   57.1864   58.2794 C   0  0  0  0  0  0  0  0  0  0  0  0
  -34.9265   57.3812   57.8726 C   0  0  0  0  0  0  0  0  0  0  0  0
  -33.9250   56.5555   58.7140 C   0  0  0  0  0  0  0  0  0  0  0  0
  -34.6036   55.5708   59.6906 C   0  0  0  0  0  0  0  0  0  0  0  0
  -34.3511   55.8936   61.1682 C   0  0  0  0  0  0  0  0  0  0  0  0
  -33.0058   56.5388   61.4941 C   0  0  0  0  0  0  0  0  0  0  0  0
  -33.1193   57.9548   62.0926 C   0  0  0  0  0  0  0  0  0  0  0  0
  -34.5528   58.4459   62.3454 C   0  0  0  0  0  0  0  0  0  0  0  0
  -34.7564   58.8136   63.8179 C   0  0  0  0  0  0  0  0  0  0  0  0
  -34.1131   57.8921   64.8391 C   0  0  0  0  0  0  0  0  0  0  0  0
  -39.4866   60.1378   65.2170 C   0  0  0  0  0  0  0  0  0  0  0  0
  -38.7512   60.9756   64.2893 O   0  0  0  0  0  0  0  0  0  0  0  0
  -36.7165   61.3427   62.3139 O   0  0  0  0  0  0  0  0  0  0  0  0
  -35.6890   64.5846   64.7292 O   0  0  0  0  0  0  0  0  0  0  0  0
  -37.2553   62.2056   65.7504 O   0  0  0  0  0  0  0  0  0  0  0  0
  -37.3585   61.3818   64.5636 C   0  0  0  0  0  0  0  0  0  0  0  0
  -36.6476   62.1560   63.4444 C   0  0  0  0  0  0  0  0  0  0  0  0
  -35.1604   62.4495   63.7408 C   0  0  0  0  0  0  0  0  0  0  0  0
  -35.1386   63.2946   64.9845 C   0  0  0  0  0  0  0  0  0  0  0  0
  -35.8981   62.5930   66.0959 C   0  0  0  0  0  0  0  0  0  0  0  0
  -37.6450   61.1475   62.1121 H   0  0  0  0  0  0  0  0  0  0  0  0
  -35.1896   65.0141   64.0172 H   0  0  0  0  0  0  0  0  0  0  0  0
  -34.4157   63.8737   67.4654 O   0  0  0  0  0  0  0  0  0  0  0  0
  -35.7653   63.6021   67.2344 C   0  0  0  0  0  0  0  0  0  0  0  0
  -34.3340   64.5147   68.1889 H   0  0  0  0  0  0  0  0  0  0  0  0
  -34.4487   63.2010   62.7316 O   0  0  0  0  0  0  0  0  0  0  0  0
  -32.5245   61.5485   62.1991 O   0  0  0  0  0  0  0  0  0  0  0  0
  -32.0944   63.4697   63.6180 O   0  0  0  0  0  0  0  0  0  0  0  0
  -32.3471   63.7542   61.2244 O   0  0  0  0  0  0  0  0  0  0  0  0
  -32.8276   62.9946   62.4133 S   0  0  0  0  0  0  0  0  0  0  0  0
  -32.8307   61.0372   62.9643 H   0  0  0  0  0  0  0  0  0  0  0  0
  -32.8203   63.4506   60.4338 H   0  0  0  0  0  0  0  0  0  0  0  0
  2  1  1  0  0  0
  2  4  1  0  0  0
  2  5  1  0  0  0
 41 42  1  0  0  0
 41  1  1  0  0  0
 42 46  1  0  0  0
  1 24  1  0  0  0
 23 24  1  0  0  0
 23 25  1  0  0  0
 24 26  1  0  0  0
  3  4  2  0  0  0
 26 27  2  0  0  0
 27 28  1  0  0  0
 43 47  1  0  0  0
 43 51  1  0  0  0
 28 29  1  0  0  0
 56 48  1  0  0  0
 56 60  1  0  0  0
 29 30  1  0  0  0
 57 60  1  0  0  0
 57 61  1  0  0  0
 30 31  1  0  0  0
 44 49  1  0  0  0
 44 52  1  0  0  0
 31 32  1  0  0  0
 45 46  1  0  0  0
 45 50  1  0  0  0
 32 33  1  0  0  0
 53 54  1  0  0  0
 53 55  1  0  0  0
 33 34  1  0  0  0
 34 35  1  0  0  0
 35 36  1  0  0  0
 58 60  1  0  0  0
 36 37  1  0  0  0
 59 60  1  0  0  0
 59 62  1  0  0  0
 37 38  1  0  0  0
 38 39  1  0  0  0
 39 40  1  0  0  0
  4  6  1  0  0  0
  6  7  1  0  0  0
  7  8  1  0  0  0
  8  9  1  0  0  0
  9 10  1  0  0  0
 10 11  1  0  0  0
 11 12  1  0  0  0
 12 13  1  0  0  0
 13 14  1  0  0  0
 14 15  1  0  0  0
 15 16  1  0  0  0
 16 17  1  0  0  0
 17 18  1  0  0  0
 18 19  1  0  0  0
 19 20  1  0  0  0
 20 21  1  0  0  0
 21 22  1  0  0  0
 46 47  1  0  0  0
 47 48  1  0  0  0
 48 49  1  0  0  0
 49 50  1  0  0  0
 50 54  1  0  0  0
M  CHG 1  58  -1
M  END
> <minimizedAffinity>
-10.25181

> <CNNscore>
0.2697885334

> <CNNaffinity>
7.0009069443

> <CNN_VS>
1.8887643814

> <CNNaffinity_variance>
1.3689934015

$$$$
/media/chris/experiments/cd1a-new-docking/inputs/ligands/1onq_ligand.pdb


 62 62  0  0  0  0  0  0  0  0999 V2000
  -38.6124   60.6844   62.7107 C   0  0  0  0  0  0  0  0  0  0  0  0
  -39.1034   60.1620   63.9706 N   0  0  0  0  0  0  0  0  0  0  0  0
  -41.1311   61.1652   64.1427 O   0  0  0  0  0  0  0  0  0  0  0  0
  -40.2709   60.4226   64.5744 C   0  0  0  0  0  0  0  0  0  0  0  0
  -38.5045   59.5382   64.4412 H   0  0  0  0  0  0  0  0  0  0  0  0
  -40.4877   59.7115   65.8772 C   0  0  0  0  0  0  0  0  0  0  0  0
  -41.4849   58.5873   65.5965 C   0  0  0  0  0  0  0  0  0  0  0  0
  -42.4698   58.4621   66.7565 C   0  0  0  0  0  0  0  0  0  0  0  0
  -43.8759   58.9405   66.4874 C   0  0  0  0  0  0  0  0  0  0  0  0
  -44.1705   58.6984   65.0108 C   0  0  0  0  0  0  0  0  0  0  0  0
  -45.1391   57.5302   64.7832 C   0  0  0  0  0  0  0  0  0  0  0  0
  -46.4974   57.6882   65.4908 C   0  0  0  0  0  0  0  0  0  0  0  0
  -47.5605   58.3725   64.6038 C   0  0  0  0  0  0  0  0  0  0  0  0
  -48.5436   59.1751   65.4608 C   0  0  0  0  0  0  0  0  0  0  0  0
  -50.0150   58.9569   65.1297 C   0  0  0  0  0  0  0  0  0  0  0  0
  -50.4703   59.7949   63.9442 C   0  0  0  0  0  0  0  0  0  0  0  0
  -51.4046   59.1003   62.9508 C   0  0  0  0  0  0  0  0  0  0  0  0
  -50.5600   58.5459   61.8115 C   0  0  0  0  0  0  0  0  0  0  0  0
  -51.0936   57.3633   61.0166 C   0  0  0  0  0  0  0  0  0  0  0  0
  -49.9441   56.5606   60.3868 C   0  0  0  0  0  0  0  0  0  0  0  0
  -49.3614   57.1796   59.1031 C   0  0  0  0  0  0  0  0  0  0  0  0
  -47.8987   57.5948   59.2429 C   0  0  0  0  0  0  0  0  0  0  0  0
  -39.0952   58.4327   62.4067 O   0  0  0  0  0  0  0  0  0  0  0  0
  -39.1221   59.6634   61.7080 C   0  0  0  0  0  0  0  0  0  0  0  0
  -39.6890   58.4823   63.1720 H   0  0  0  0  0  0  0  0  0  0  0  0
  -38.2030   59.6522   60.4844 C   0  0  0  0  0  0  0  0  0  0  0  0
  -38.0876   58.5928   59.6654 C   0  0  0  0  0  0  0  0  0  0  0  0
  -37.1467   58.6596   58.4639 C   0  0  0  0  0  0  0  0  0  0  0  0
  -37.2552   57.4522   57.5214 C   0  0  0  0  0  0  0  0  0  0  0  0
  -36.2216   56.3337   57.7493 C   0  0  0  0  0  0  0  0  0  0  0  0
  -34.8556   56.9259   58.1718 C   0  0  0  0  0  0  0  0  0  0  0  0
  -33.9623   55.9880   59.0227 C   0  0  0  0  0  0  0  0  0  0  0  0
  -33.8765   56.3786   60.5169 C   0  0  0  0  0  0  0  0  0  0  0  0
  -35.2469   56.4048   61.2279 C   0  0  0  0  0  0  0  0  0  0  0  0
  -35.5007   57.6849   62.0331 C   0  0  0  0  0  0  0  0  0  0  0  0
  -35.1203   57.6348   63.5113 C   0  0  0  0  0  0  0  0  0  0  0  0
  -33.7352   58.2358   63.8218 C   0  0  0  0  0  0  0  0  0  0  0  0
  -33.2361   59.2847   62.8164 C   0  0  0  0  0  0  0  0  0  0  0  0
  -31.9120   58.8508   62.1810 C   0  0  0  0  0  0  0  0  0  0  0  0
  -30.8214   59.9048   62.1068 C   0  0  0  0  0  0  0  0  0  0  0  0
  -37.1029   61.0138   62.6696 C   0  0  0  0  0  0  0  0  0  0  0  0
  -36.7221   62.2221   61.9637 O   0  0  0  0  0  0  0  0  0  0  0  0
  -37.0914   63.6457   64.4161 O   0  0  0  0  0  0  0  0  0  0  0  0
  -33.0255   62.8424   64.8870 O   0  0  0  0  0  0  0  0  0  0  0  0
  -34.3941   62.8666   62.1884 O   0  0  0  0  0  0  0  0  0  0  0  0
  -35.7618   63.1794   62.5480 C   0  0  0  0  0  0  0  0  0  0  0  0
  -35.7817   63.3076   64.0779 C   0  0  0  0  0  0  0  0  0  0  0  0
  -34.8415   64.4063   64.6207 C   0  0  0  0  0  0  0  0  0  0  0  0
  -33.4517   64.0161   64.1994 C   0  0  0  0  0  0  0  0  0  0  0  0
  -33.4100   63.8073   62.6964 C   0  0  0  0  0  0  0  0  0  0  0  0
  -37.6973   62.9656   64.0826 H   0  0  0  0  0  0  0  0  0  0  0  0
  -33.0599   62.9977   65.8438 H   0  0  0  0  0  0  0  0  0  0  0  0
  -31.4859   63.9558   61.2859 O   0  0  0  0  0  0  0  0  0  0  0  0
  -31.9485   63.4166   62.4875 C   0  0  0  0  0  0  0  0  0  0  0  0
  -30.5577   63.7062   61.1556 H   0  0  0  0  0  0  0  0  0  0  0  0
  -34.7997   64.5521   66.0583 O   0  0  0  0  0  0  0  0  0  0  0  0
  -34.1189   62.8995   67.9351 O   0  0  0  0  0  0  0  0  0  0  0  0
  -35.7540   62.2191   66.2760 O   0  0  0  0  0  0  0  0  0  0  0  0
  -36.3732   63.7682   68.0342 O   0  0  0  0  0  0  0  0  0  0  0  0
  -35.2780   63.3548   67.1117 S   0  0  0  0  0  0  0  0  0  0  0  0
  -33.3947   62.6258   67.3507 H   0  0  0  0  0  0  0  0  0  0  0  0
  -36.0712   64.5087   68.5833 H   0  0  0  0  0  0  0  0  0  0  0  0
  2  1  1  0  0  0
  2  4  1  0  0  0
  2  5  1  0  0  0
 41 42  1  0  0  0
 41  1  1  0  0  0
 42 46  1  0  0  0
  1 24  1  0  0  0
 23 24  1  0  0  0
 23 25  1  0  0  0
 24 26  1  0  0  0
  3  4  2  0  0  0
 26 27  2  0  0  0
 27 28  1  0  0  0
 43 47  1  0  0  0
 43 51  1  0  0  0
 28 29  1  0  0  0
 56 48  1  0  0  0
 56 60  1  0  0  0
 29 30  1  0  0  0
 57 60  1  0  0  0
 57 61  1  0  0  0
 30 31  1  0  0  0
 44 49  1  0  0  0
 44 52  1  0  0  0
 31 32  1  0  0  0
 45 46  1  0  0  0
 45 50  1  0  0  0
 32 33  1  0  0  0
 53 54  1  0  0  0
 53 55  1  0  0  0
 33 34  1  0  0  0
 34 35  1  0  0  0
 35 36  1  0  0  0
 58 60  1  0  0  0
 36 37  1  0  0  0
 59 60  1  0  0  0
 59 62  1  0  0  0
 37 38  1  0  0  0
 38 39  1  0  0  0
 39 40  1  0  0  0
  4  6  1  0  0  0
  6  7  1  0  0  0
  7  8  1  0  0  0
  8  9  1  0  0  0
  9 10  1  0  0  0
 10 11  1  0  0  0
 11 12  1  0  0  0
 12 13  1  0  0  0
 13 14  1  0  0  0
 14 15  1  0  0  0
 15 16  1  0  0  0
 16 17  1  0  0  0
 17 18  1  0  0  0
 18 19  1  0  0  0
 19 20  1  0  0  0
 20 21  1  0  0  0
 21 22  1  0  0  0
 46 47  1  0  0  0
 47 48  1  0  0  0
 48 49  1  0  0  0
 49 50  1  0  0  0
 50 54  1  0  0  0
M  CHG 1  58  -1
M  END
> <minimizedAffinity>
-9.73965

> <CNNscore>
0.2460556030

> <CNNaffinity>
6.8383040428

> <CNN_VS>
1.6826030016

> <CNNaffinity_variance>
1.4322828054

$$$$
/media/chris/experiments/cd1a-new-docking/inputs/ligands/1onq_ligand.pdb


 62 62  0  0  0  0  0  0  0  0999 V2000
  -39.4156   59.3018   64.2808 C   0  0  0  0  0  0  0  0  0  0  0  0
  -38.3420   60.0942   64.8471 N   0  0  0  0  0  0  0  0  0  0  0  0
  -37.5899   61.2372   63.0373 O   0  0  0  0  0  0  0  0  0  0  0  0
  -37.5396   60.9659   64.2212 C   0  0  0  0  0  0  0  0  0  0  0  0
  -38.1826   59.9773   65.8116 H   0  0  0  0  0  0  0  0  0  0  0  0
  -36.5230   61.6381   65.0957 C   0  0  0  0  0  0  0  0  0  0  0  0
  -36.0515   62.8788   64.3370 C   0  0  0  0  0  0  0  0  0  0  0  0
  -36.0510   64.0898   65.2668 C   0  0  0  0  0  0  0  0  0  0  0  0
  -35.2843   63.9347   66.5577 C   0  0  0  0  0  0  0  0  0  0  0  0
  -33.9104   64.5653   66.3565 C   0  0  0  0  0  0  0  0  0  0  0  0
  -32.9344   63.6378   65.6202 C   0  0  0  0  0  0  0  0  0  0  0  0
  -31.5898   64.2946   65.2578 C   0  0  0  0  0  0  0  0  0  0  0  0
  -31.2437   64.1661   63.7581 C   0  0  0  0  0  0  0  0  0  0  0  0
  -32.4905   63.8067   62.9449 C   0  0  0  0  0  0  0  0  0  0  0  0
  -32.2937   62.6970   61.9192 C   0  0  0  0  0  0  0  0  0  0  0  0
  -30.8464   62.2343   61.8398 C   0  0  0  0  0  0  0  0  0  0  0  0
  -30.5536   60.8454   62.4118 C   0  0  0  0  0  0  0  0  0  0  0  0
  -31.4431   59.8385   61.6950 C   0  0  0  0  0  0  0  0  0  0  0  0
  -32.3326   58.9279   62.5285 C   0  0  0  0  0  0  0  0  0  0  0  0
  -33.5815   59.6778   63.0185 C   0  0  0  0  0  0  0  0  0  0  0  0
  -34.8194   58.7868   63.2296 C   0  0  0  0  0  0  0  0  0  0  0  0
  -34.7875   58.0101   64.5439 C   0  0  0  0  0  0  0  0  0  0  0  0
  -40.0757   60.5281   66.1398 O   0  0  0  0  0  0  0  0  0  0  0  0
  -40.6203   59.7499   65.0904 C   0  0  0  0  0  0  0  0  0  0  0  0
  -39.6130   61.2949   65.7673 H   0  0  0  0  0  0  0  0  0  0  0  0
  -41.3665   58.5197   65.6120 C   0  0  0  0  0  0  0  0  0  0  0  0
  -42.6817   58.5241   65.8884 C   0  0  0  0  0  0  0  0  0  0  0  0
  -43.3539   57.2543   66.4072 C   0  0  0  0  0  0  0  0  0  0  0  0
  -44.8006   57.0751   65.9247 C   0  0  0  0  0  0  0  0  0  0  0  0
  -45.2572   58.0394   64.8143 C   0  0  0  0  0  0  0  0  0  0  0  0
  -46.3647   58.9884   65.3321 C   0  0  0  0  0  0  0  0  0  0  0  0
  -47.7400   58.8444   64.6326 C   0  0  0  0  0  0  0  0  0  0  0  0
  -48.7231   57.8952   65.3573 C   0  0  0  0  0  0  0  0  0  0  0  0
  -50.2036   58.3063   65.2054 C   0  0  0  0  0  0  0  0  0  0  0  0
  -50.4192   59.5065   64.2757 C   0  0  0  0  0  0  0  0  0  0  0  0
  -51.3733   59.2853   63.1040 C   0  0  0  0  0  0  0  0  0  0  0  0
  -50.8948   58.2178   62.1001 C   0  0  0  0  0  0  0  0  0  0  0  0
  -49.8079   58.6822   61.1188 C   0  0  0  0  0  0  0  0  0  0  0  0
  -49.7475   57.7676   59.8921 C   0  0  0  0  0  0  0  0  0  0  0  0
  -48.4441   57.0210   59.6700 C   0  0  0  0  0  0  0  0  0  0  0  0
  -39.1505   57.7811   64.2021 C   0  0  0  0  0  0  0  0  0  0  0  0
  -38.8437   57.2436   62.8905 O   0  0  0  0  0  0  0  0  0  0  0  0
  -36.5314   56.5861   61.3419 O   0  0  0  0  0  0  0  0  0  0  0  0
  -38.7481   58.3149   58.2603 O   0  0  0  0  0  0  0  0  0  0  0  0
  -39.2475   58.9189   61.1829 O   0  0  0  0  0  0  0  0  0  0  0  0
  -38.2540   58.0910   61.8349 C   0  0  0  0  0  0  0  0  0  0  0  0
  -37.5112   57.3526   60.7122 C   0  0  0  0  0  0  0  0  0  0  0  0
  -36.8167   58.2942   59.7039 C   0  0  0  0  0  0  0  0  0  0  0  0
  -37.9073   59.1216   59.0814 C   0  0  0  0  0  0  0  0  0  0  0  0
  -38.7130   59.8108   60.1678 C   0  0  0  0  0  0  0  0  0  0  0  0
  -36.9499   55.9874   61.9801 H   0  0  0  0  0  0  0  0  0  0  0  0
  -38.2139   57.8848   57.5744 H   0  0  0  0  0  0  0  0  0  0  0  0
  -40.8853   59.7785   59.1710 O   0  0  0  0  0  0  0  0  0  0  0  0
  -39.7475   60.5695   59.3395 C   0  0  0  0  0  0  0  0  0  0  0  0
  -41.5406   60.2626   58.6446 H   0  0  0  0  0  0  0  0  0  0  0  0
  -36.1248   57.6521   58.6090 O   0  0  0  0  0  0  0  0  0  0  0  0
  -33.9201   57.3329   59.9336 O   0  0  0  0  0  0  0  0  0  0  0  0
  -33.9485   56.9283   57.5409 O   0  0  0  0  0  0  0  0  0  0  0  0
  -34.9488   55.3266   59.0602 O   0  0  0  0  0  0  0  0  0  0  0  0
  -34.7218   56.7771   58.8034 S   0  0  0  0  0  0  0  0  0  0  0  0
  -33.7620   58.2781   59.7837 H   0  0  0  0  0  0  0  0  0  0  0  0
  -35.4526   55.2187   59.8820 H   0  0  0  0  0  0  0  0  0  0  0  0
  2  1  1  0  0  0
  2  4  1  0  0  0
  2  5  1  0  0  0
 41 42  1  0  0  0
 41  1  1  0  0  0
 42 46  1  0  0  0
  1 24  1  0  0  0
 23 24  1  0  0  0
 23 25  1  0  0  0
 24 26  1  0  0  0
  3  4  2  0  0  0
 26 27  2  0  0  0
 27 28  1  0  0  0
 43 47  1  0  0  0
 43 51  1  0  0  0
 28 29  1  0  0  0
 56 48  1  0  0  0
 56 60  1  0  0  0
 29 30  1  0  0  0
 57 60  1  0  0  0
 57 61  1  0  0  0
 30 31  1  0  0  0
 44 49  1  0  0  0
 44 52  1  0  0  0
 31 32  1  0  0  0
 45 46  1  0  0  0
 45 50  1  0  0  0
 32 33  1  0  0  0
 53 54  1  0  0  0
 53 55  1  0  0  0
 33 34  1  0  0  0
 34 35  1  0  0  0
 35 36  1  0  0  0
 58 60  1  0  0  0
 36 37  1  0  0  0
 59 60  1  0  0  0
 59 62  1  0  0  0
 37 38  1  0  0  0
 38 39  1  0  0  0
 39 40  1  0  0  0
  4  6  1  0  0  0
  6  7  1  0  0  0
  7  8  1  0  0  0
  8  9  1  0  0  0
  9 10  1  0  0  0
 10 11  1  0  0  0
 11 12  1  0  0  0
 12 13  1  0  0  0
 13 14  1  0  0  0
 14 15  1  0  0  0
 15 16  1  0  0  0
 16 17  1  0  0  0
 17 18  1  0  0  0
 18 19  1  0  0  0
 19 20  1  0  0  0
 20 21  1  0  0  0
 21 22  1  0  0  0
 46 47  1  0  0  0
 47 48  1  0  0  0
 48 49  1  0  0  0
 49 50  1  0  0  0
 50 54  1  0  0  0
M  CHG 1  58  -1
M  END
> <minimizedAffinity>
-8.94713

> <CNNscore>
0.2431031764

> <CNNaffinity>
6.8959593773

> <CNN_VS>
1.6764296293

> <CNNaffinity_variance>
1.2812502384

$$$$
