/media/chris/experiments/cd1a-new-docking/inputs/ligands/1onq_ligand.pdb


 62 62  0  0  0  0  0  0  0  0999 V2000
  -39.0535   60.5826   61.8896 C   0  0  0  0  0  0  0  0  0  0  0  0
  -40.0874   59.8703   62.6141 N   0  0  0  0  0  0  0  0  0  0  0  0
  -40.6719   61.3747   64.2088 O   0  0  0  0  0  0  0  0  0  0  0  0
  -40.7937   60.2905   63.6726 C   0  0  0  0  0  0  0  0  0  0  0  0
  -40.2968   58.9653   62.2881 H   0  0  0  0  0  0  0  0  0  0  0  0
  -41.8055   59.3130   64.1928 C   0  0  0  0  0  0  0  0  0  0  0  0
  -41.6345   59.2795   65.7116 C   0  0  0  0  0  0  0  0  0  0  0  0
  -42.9979   59.1546   66.3872 C   0  0  0  0  0  0  0  0  0  0  0  0
  -44.0450   58.3752   65.6292 C   0  0  0  0  0  0  0  0  0  0  0  0
  -45.4031   58.7240   66.2290 C   0  0  0  0  0  0  0  0  0  0  0  0
  -46.4384   59.1145   65.1658 C   0  0  0  0  0  0  0  0  0  0  0  0
  -47.6096   58.1243   65.0301 C   0  0  0  0  0  0  0  0  0  0  0  0
  -48.8520   58.5489   65.8434 C   0  0  0  0  0  0  0  0  0  0  0  0
  -50.1346   58.2736   65.0532 C   0  0  0  0  0  0  0  0  0  0  0  0
  -50.2438   59.0105   63.7238 C   0  0  0  0  0  0  0  0  0  0  0  0
  -50.7097   58.1012   62.5963 C   0  0  0  0  0  0  0  0  0  0  0  0
  -49.6568   57.7420   61.5452 C   0  0  0  0  0  0  0  0  0  0  0  0
  -50.3703   57.4910   60.2237 C   0  0  0  0  0  0  0  0  0  0  0  0
  -49.5365   57.1454   58.9988 C   0  0  0  0  0  0  0  0  0  0  0  0
  -48.1266   56.6874   59.4047 C   0  0  0  0  0  0  0  0  0  0  0  0
  -47.6245   55.4341   58.6643 C   0  0  0  0  0  0  0  0  0  0  0  0
  -47.8195   55.5073   57.1517 C   0  0  0  0  0  0  0  0  0  0  0  0
  -40.3741   59.9651   60.0811 O   0  0  0  0  0  0  0  0  0  0  0  0
  -39.0408   59.8719   60.5471 C   0  0  0  0  0  0  0  0  0  0  0  0
  -40.6129   60.8985   59.9687 H   0  0  0  0  0  0  0  0  0  0  0  0
  -38.5996   58.4200   60.7463 C   0  0  0  0  0  0  0  0  0  0  0  0
  -37.4779   57.9150   60.2049 C   0  0  0  0  0  0  0  0  0  0  0  0
  -37.1065   56.4538   60.4500 C   0  0  0  0  0  0  0  0  0  0  0  0
  -36.4331   55.7737   59.2491 C   0  0  0  0  0  0  0  0  0  0  0  0
  -35.9165   56.7206   58.1502 C   0  0  0  0  0  0  0  0  0  0  0  0
  -34.3851   56.9129   58.2660 C   0  0  0  0  0  0  0  0  0  0  0  0
  -33.7482   56.3784   59.5738 C   0  0  0  0  0  0  0  0  0  0  0  0
  -33.5427   57.4557   60.6646 C   0  0  0  0  0  0  0  0  0  0  0  0
  -33.0547   56.8838   62.0132 C   0  0  0  0  0  0  0  0  0  0  0  0
  -33.2516   57.8386   63.1968 C   0  0  0  0  0  0  0  0  0  0  0  0
  -34.5225   58.6852   63.1723 C   0  0  0  0  0  0  0  0  0  0  0  0
  -35.5076   58.3685   64.3147 C   0  0  0  0  0  0  0  0  0  0  0  0
  -36.6084   57.3546   63.9678 C   0  0  0  0  0  0  0  0  0  0  0  0
  -37.8566   57.5833   64.8250 C   0  0  0  0  0  0  0  0  0  0  0  0
  -37.9744   58.9396   65.4976 C   0  0  0  0  0  0  0  0  0  0  0  0
  -37.7000   60.7188   62.6232 C   0  0  0  0  0  0  0  0  0  0  0  0
  -36.9704   61.9545   62.4132 O   0  0  0  0  0  0  0  0  0  0  0  0
  -34.6422   63.3803   61.5622 O   0  0  0  0  0  0  0  0  0  0  0  0
  -35.0809   65.2585   65.2606 O   0  0  0  0  0  0  0  0  0  0  0  0
  -36.2427   62.5312   64.6544 O   0  0  0  0  0  0  0  0  0  0  0  0
  -35.8351   62.3298   63.2794 C   0  0  0  0  0  0  0  0  0  0  0  0
  -35.0648   63.5945   62.8735 C   0  0  0  0  0  0  0  0  0  0  0  0
  -33.8201   63.8694   63.7454 C   0  0  0  0  0  0  0  0  0  0  0  0
  -34.3236   64.0559   65.1501 C   0  0  0  0  0  0  0  0  0  0  0  0
  -35.1545   62.8541   65.5618 C   0  0  0  0  0  0  0  0  0  0  0  0
  -35.4124   63.2056   60.9988 H   0  0  0  0  0  0  0  0  0  0  0  0
  -34.5317   66.0121   64.9933 H   0  0  0  0  0  0  0  0  0  0  0  0
  -34.4681   63.7781   67.6566 O   0  0  0  0  0  0  0  0  0  0  0  0
  -35.5661   63.2444   66.9796 C   0  0  0  0  0  0  0  0  0  0  0  0
  -34.7321   64.0251   68.5567 H   0  0  0  0  0  0  0  0  0  0  0  0
  -33.0722   65.0643   63.4247 O   0  0  0  0  0  0  0  0  0  0  0  0
  -30.5726   64.3856   63.5144 O   0  0  0  0  0  0  0  0  0  0  0  0
  -31.2120   66.4581   62.4259 O   0  0  0  0  0  0  0  0  0  0  0  0
  -31.6228   64.3321   61.3371 O   0  0  0  0  0  0  0  0  0  0  0  0
  -31.5991   65.0388   62.6493 S   0  0  0  0  0  0  0  0  0  0  0  0
  -30.5427   64.8330   64.3746 H   0  0  0  0  0  0  0  0  0  0  0  0
  -31.8745   63.4053   61.4736 H   0  0  0  0  0  0  0  0  0  0  0  0
  2  1  1  0  0  0
  2  4  1  0  0  0
  2  5  1  0  0  0
 41 42  1  0  0  0
 41  1  1  0  0  0
 42 46  1  0  0  0
  1 24  1  0  0  0
 23 24  1  0  0  0
 23 25  1  0  0  0
 24 26  1  0  0  0
  3  4  2  0  0  0
 26 27  2  0  0  0
 27 28  1  0  0  0
 43 47  1  0  0  0
 43 51  1  0  0  0
 28 29  1  0  0  0
 56 48  1  0  0  0
 56 60  1  0  0  0
 29 30  1  0  0  0
 57 60  1  0  0  0
 57 61  1  0  0  0
 30 31  1  0  0  0
 44 49  1  0  0  0
 44 52  1  0  0  0
 31 32  1  0  0  0
 45 46  1  0  0  0
 45 50  1  0  0  0
 32 33  1  0  0  0
 53 54  1  0  0  0
 53 55  1  0  0  0
 33 34  1  0  0  0
 34 35  1  0  0  0
 35 36  1  0  0  0
 58 60  1  0  0  0
 36 37  1  0  0  0
 59 60  1  0  0  0
 59 62  1  0  0  0
 37 38  1  0  0  0
 38 39  1  0  0  0
 39 40  1  0  0  0
  4  6  1  0  0  0
  6  7  1  0  0  0
  7  8  1  0  0  0
  8  9  1  0  0  0
  9 10  1  0  0  0
 10 11  1  0  0  0
 11 12  1  0  0  0
 12 13  1  0  0  0
 13 14  1  0  0  0
 14 15  1  0  0  0
 15 16  1  0  0  0
 16 17  1  0  0  0
 17 18  1  0  0  0
 18 19  1  0  0  0
 19 20  1  0  0  0
 20 21  1  0  0  0
 21 22  1  0  0  0
 46 47  1  0  0  0
 47 48  1  0  0  0
 48 49  1  0  0  0
 49 50  1  0  0  0
 50 54  1  0  0  0
M  CHG 1  58  -1
M  END
> <minimizedAffinity>
-9.70301

> <CNNscore>
0.4721902311

> <CNNaffinity>
7.3616600037

> <CNN_VS>
3.4761040211

> <CNNaffinity_variance>
0.7200969458

$$$$
/media/chris/experiments/cd1a-new-docking/inputs/ligands/1onq_ligand.pdb


 62 62  0  0  0  0  0  0  0  0999 V2000
  -39.0087   59.1723   64.9787 C   0  0  0  0  0  0  0  0  0  0  0  0
  -40.2018   58.9661   65.7756 N   0  0  0  0  0  0  0  0  0  0  0  0
  -41.2491   60.9701   65.5898 O   0  0  0  0  0  0  0  0  0  0  0  0
  -41.1941   59.8335   66.0175 C   0  0  0  0  0  0  0  0  0  0  0  0
  -40.2947   58.0783   66.1909 H   0  0  0  0  0  0  0  0  0  0  0  0
  -42.3026   59.3096   66.8815 C   0  0  0  0  0  0  0  0  0  0  0  0
  -43.3893   58.8036   65.9327 C   0  0  0  0  0  0  0  0  0  0  0  0
  -43.4181   57.2771   65.9395 C   0  0  0  0  0  0  0  0  0  0  0  0
  -44.6803   56.6351   65.4169 C   0  0  0  0  0  0  0  0  0  0  0  0
  -45.7905   56.9145   66.4245 C   0  0  0  0  0  0  0  0  0  0  0  0
  -47.1006   57.3538   65.7570 C   0  0  0  0  0  0  0  0  0  0  0  0
  -46.9183   58.3708   64.6154 C   0  0  0  0  0  0  0  0  0  0  0  0
  -48.2251   59.1122   64.2576 C   0  0  0  0  0  0  0  0  0  0  0  0
  -49.4422   58.3449   64.7822 C   0  0  0  0  0  0  0  0  0  0  0  0
  -50.7927   58.9151   64.3657 C   0  0  0  0  0  0  0  0  0  0  0  0
  -50.8425   59.2575   62.8840 C   0  0  0  0  0  0  0  0  0  0  0  0
  -50.9134   58.0687   61.9226 C   0  0  0  0  0  0  0  0  0  0  0  0
  -49.9087   58.3023   60.8025 C   0  0  0  0  0  0  0  0  0  0  0  0
  -49.9499   57.3918   59.5842 C   0  0  0  0  0  0  0  0  0  0  0  0
  -49.0686   56.1504   59.7954 C   0  0  0  0  0  0  0  0  0  0  0  0
  -47.8749   56.0427   58.8287 C   0  0  0  0  0  0  0  0  0  0  0  0
  -47.3606   57.3985   58.3504 C   0  0  0  0  0  0  0  0  0  0  0  0
  -37.5877   57.3394   64.8486 O   0  0  0  0  0  0  0  0  0  0  0  0
  -38.8114   57.8171   64.3214 C   0  0  0  0  0  0  0  0  0  0  0  0
  -37.6662   57.2418   65.8105 H   0  0  0  0  0  0  0  0  0  0  0  0
  -38.7549   57.9940   62.8023 C   0  0  0  0  0  0  0  0  0  0  0  0
  -39.1245   59.1282   62.1832 C   0  0  0  0  0  0  0  0  0  0  0  0
  -39.0397   59.2260   60.6611 C   0  0  0  0  0  0  0  0  0  0  0  0
  -37.9172   58.3781   60.0453 C   0  0  0  0  0  0  0  0  0  0  0  0
  -37.5414   58.7237   58.5926 C   0  0  0  0  0  0  0  0  0  0  0  0
  -37.1569   57.4474   57.8061 C   0  0  0  0  0  0  0  0  0  0  0  0
  -35.7272   56.9117   58.0723 C   0  0  0  0  0  0  0  0  0  0  0  0
  -35.6741   55.6945   59.0253 C   0  0  0  0  0  0  0  0  0  0  0  0
  -34.3077   55.5143   59.7214 C   0  0  0  0  0  0  0  0  0  0  0  0
  -33.9926   56.6022   60.7550 C   0  0  0  0  0  0  0  0  0  0  0  0
  -35.1107   56.9365   61.7402 C   0  0  0  0  0  0  0  0  0  0  0  0
  -34.7419   58.0355   62.7561 C   0  0  0  0  0  0  0  0  0  0  0  0
  -33.2525   58.1135   63.1244 C   0  0  0  0  0  0  0  0  0  0  0  0
  -32.6647   59.4775   62.7515 C   0  0  0  0  0  0  0  0  0  0  0  0
  -31.6420   59.4879   61.6291 C   0  0  0  0  0  0  0  0  0  0  0  0
  -37.7986   59.7677   65.7337 C   0  0  0  0  0  0  0  0  0  0  0  0
  -37.9675   61.1002   66.2806 O   0  0  0  0  0  0  0  0  0  0  0  0
  -36.0549   62.5447   67.8404 O   0  0  0  0  0  0  0  0  0  0  0  0
  -33.8824   62.4805   64.2802 O   0  0  0  0  0  0  0  0  0  0  0  0
  -36.8884   62.1482   64.3774 O   0  0  0  0  0  0  0  0  0  0  0  0
  -37.1545   62.2344   65.7984 C   0  0  0  0  0  0  0  0  0  0  0  0
  -35.7902   62.4245   66.4767 C   0  0  0  0  0  0  0  0  0  0  0  0
  -35.0389   63.6923   66.0148 C   0  0  0  0  0  0  0  0  0  0  0  0
  -34.8110   63.5311   64.5372 C   0  0  0  0  0  0  0  0  0  0  0  0
  -36.1329   63.2668   63.8393 C   0  0  0  0  0  0  0  0  0  0  0  0
  -36.5274   61.7557   68.1488 H   0  0  0  0  0  0  0  0  0  0  0  0
  -33.0466   62.6694   64.7346 H   0  0  0  0  0  0  0  0  0  0  0  0
  -34.5907   63.9631   62.1510 O   0  0  0  0  0  0  0  0  0  0  0  0
  -35.6834   63.1268   62.3866 C   0  0  0  0  0  0  0  0  0  0  0  0
  -34.3072   63.8724   61.2278 H   0  0  0  0  0  0  0  0  0  0  0  0
  -33.7351   63.9062   66.6015 O   0  0  0  0  0  0  0  0  0  0  0  0
  -32.8329   66.0981   67.6495 O   0  0  0  0  0  0  0  0  0  0  0  0
  -33.5543   66.0875   65.3326 O   0  0  0  0  0  0  0  0  0  0  0  0
  -31.4471   65.0663   65.9580 O   0  0  0  0  0  0  0  0  0  0  0  0
  -32.8550   65.3030   66.3861 S   0  0  0  0  0  0  0  0  0  0  0  0
  -33.7423   66.2624   67.9442 H   0  0  0  0  0  0  0  0  0  0  0  0
  -30.9835   64.5552   66.6396 H   0  0  0  0  0  0  0  0  0  0  0  0
  2  1  1  0  0  0
  2  4  1  0  0  0
  2  5  1  0  0  0
 41 42  1  0  0  0
 41  1  1  0  0  0
 42 46  1  0  0  0
  1 24  1  0  0  0
 23 24  1  0  0  0
 23 25  1  0  0  0
 24 26  1  0  0  0
  3  4  2  0  0  0
 26 27  2  0  0  0
 27 28  1  0  0  0
 43 47  1  0  0  0
 43 51  1  0  0  0
 28 29  1  0  0  0
 56 48  1  0  0  0
 56 60  1  0  0  0
 29 30  1  0  0  0
 57 60  1  0  0  0
 57 61  1  0  0  0
 30 31  1  0  0  0
 44 49  1  0  0  0
 44 52  1  0  0  0
 31 32  1  0  0  0
 45 46  1  0  0  0
 45 50  1  0  0  0
 32 33  1  0  0  0
 53 54  1  0  0  0
 53 55  1  0  0  0
 33 34  1  0  0  0
 34 35  1  0  0  0
 35 36  1  0  0  0
 58 60  1  0  0  0
 36 37  1  0  0  0
 59 60  1  0  0  0
 59 62  1  0  0  0
 37 38  1  0  0  0
 38 39  1  0  0  0
 39 40  1  0  0  0
  4  6  1  0  0  0
  6  7  1  0  0  0
  7  8  1  0  0  0
  8  9  1  0  0  0
  9 10  1  0  0  0
 10 11  1  0  0  0
 11 12  1  0  0  0
 12 13  1  0  0  0
 13 14  1  0  0  0
 14 15  1  0  0  0
 15 16  1  0  0  0
 16 17  1  0  0  0
 17 18  1  0  0  0
 18 19  1  0  0  0
 19 20  1  0  0  0
 20 21  1  0  0  0
 21 22  1  0  0  0
 46 47  1  0  0  0
 47 48  1  0  0  0
 48 49  1  0  0  0
 49 50  1  0  0  0
 50 54  1  0  0  0
M  CHG 1  58  -1
M  END
> <minimizedAffinity>
-9.75823

> <CNNscore>
0.3452526927

> <CNNaffinity>
7.3096551895

> <CNN_VS>
2.5236780643

> <CNNaffinity_variance>
1.0396130085

$$$$
/media/chris/experiments/cd1a-new-docking/inputs/ligands/1onq_ligand.pdb


 62 62  0  0  0  0  0  0  0  0999 V2000
  -40.1704   59.1736   64.9449 C   0  0  0  0  0  0  0  0  0  0  0  0
  -39.7274   58.4990   63.7408 N   0  0  0  0  0  0  0  0  0  0  0  0
  -37.8295   57.4728   64.4425 O   0  0  0  0  0  0  0  0  0  0  0  0
  -38.6414   57.7316   63.5755 C   0  0  0  0  0  0  0  0  0  0  0  0
  -40.2949   58.6198   62.9455 H   0  0  0  0  0  0  0  0  0  0  0  0
  -38.4641   57.1658   62.1977 C   0  0  0  0  0  0  0  0  0  0  0  0
  -37.7762   58.2509   61.3690 C   0  0  0  0  0  0  0  0  0  0  0  0
  -38.8209   59.0826   60.6288 C   0  0  0  0  0  0  0  0  0  0  0  0
  -38.5580   59.3254   59.1623 C   0  0  0  0  0  0  0  0  0  0  0  0
  -37.2240   58.6710   58.8188 C   0  0  0  0  0  0  0  0  0  0  0  0
  -37.3574   57.5778   57.7502 C   0  0  0  0  0  0  0  0  0  0  0  0
  -36.3189   56.4473   57.8692 C   0  0  0  0  0  0  0  0  0  0  0  0
  -34.8786   56.9725   58.0562 C   0  0  0  0  0  0  0  0  0  0  0  0
  -33.9922   55.9009   58.6976 C   0  0  0  0  0  0  0  0  0  0  0  0
  -33.2904   56.3280   59.9810 C   0  0  0  0  0  0  0  0  0  0  0  0
  -34.1022   55.9902   61.2227 C   0  0  0  0  0  0  0  0  0  0  0  0
  -34.9492   57.1265   61.8005 C   0  0  0  0  0  0  0  0  0  0  0  0
  -34.7513   57.1471   63.3101 C   0  0  0  0  0  0  0  0  0  0  0  0
  -33.8514   58.2155   63.9133 C   0  0  0  0  0  0  0  0  0  0  0  0
  -33.8511   59.4863   63.0489 C   0  0  0  0  0  0  0  0  0  0  0  0
  -32.4891   59.8289   62.4176 C   0  0  0  0  0  0  0  0  0  0  0  0
  -31.5598   58.6236   62.2949 C   0  0  0  0  0  0  0  0  0  0  0  0
  -41.3440   61.0869   64.3470 O   0  0  0  0  0  0  0  0  0  0  0  0
  -41.5386   59.6990   64.5455 C   0  0  0  0  0  0  0  0  0  0  0  0
  -40.7052   61.2245   63.6301 H   0  0  0  0  0  0  0  0  0  0  0  0
  -42.5392   59.4117   65.6674 C   0  0  0  0  0  0  0  0  0  0  0  0
  -43.7918   58.9816   65.4386 C   0  0  0  0  0  0  0  0  0  0  0  0
  -44.7317   58.7180   66.6135 C   0  0  0  0  0  0  0  0  0  0  0  0
  -46.1030   58.1640   66.2004 C   0  0  0  0  0  0  0  0  0  0  0  0
  -47.2879   59.1355   66.3534 C   0  0  0  0  0  0  0  0  0  0  0  0
  -47.4564   60.0012   65.0815 C   0  0  0  0  0  0  0  0  0  0  0  0
  -48.8622   59.9546   64.4309 C   0  0  0  0  0  0  0  0  0  0  0  0
  -49.3874   58.5253   64.1591 C   0  0  0  0  0  0  0  0  0  0  0  0
  -50.7440   58.4955   63.4224 C   0  0  0  0  0  0  0  0  0  0  0  0
  -50.6233   58.6299   61.8997 C   0  0  0  0  0  0  0  0  0  0  0  0
  -51.0037   57.3958   61.0844 C   0  0  0  0  0  0  0  0  0  0  0  0
  -49.9716   57.0167   60.0042 C   0  0  0  0  0  0  0  0  0  0  0  0
  -48.7256   57.9135   59.9457 C   0  0  0  0  0  0  0  0  0  0  0  0
  -47.5327   57.1592   59.3517 C   0  0  0  0  0  0  0  0  0  0  0  0
  -46.9005   57.7653   58.1113 C   0  0  0  0  0  0  0  0  0  0  0  0
  -39.1745   60.1941   65.5410 C   0  0  0  0  0  0  0  0  0  0  0  0
  -38.5413   61.1041   64.6060 O   0  0  0  0  0  0  0  0  0  0  0  0
  -36.6010   61.5537   62.5540 O   0  0  0  0  0  0  0  0  0  0  0  0
  -35.6724   64.8836   64.8882 O   0  0  0  0  0  0  0  0  0  0  0  0
  -37.0662   62.4370   65.9961 O   0  0  0  0  0  0  0  0  0  0  0  0
  -37.1647   61.5910   64.8247 C   0  0  0  0  0  0  0  0  0  0  0  0
  -36.5380   62.3865   63.6705 C   0  0  0  0  0  0  0  0  0  0  0  0
  -35.0603   62.7664   63.9095 C   0  0  0  0  0  0  0  0  0  0  0  0
  -35.0419   63.6302   65.1403 C   0  0  0  0  0  0  0  0  0  0  0  0
  -35.7214   62.9044   66.2874 C   0  0  0  0  0  0  0  0  0  0  0  0
  -37.5237   61.3043   62.3884 H   0  0  0  0  0  0  0  0  0  0  0  0
  -35.2231   65.3294   64.1531 H   0  0  0  0  0  0  0  0  0  0  0  0
  -34.2750   64.3389   67.5378 O   0  0  0  0  0  0  0  0  0  0  0  0
  -35.6052   63.9363   67.4071 C   0  0  0  0  0  0  0  0  0  0  0  0
  -34.2039   64.9941   68.2495 H   0  0  0  0  0  0  0  0  0  0  0  0
  -34.4276   63.5410   62.8655 O   0  0  0  0  0  0  0  0  0  0  0  0
  -32.0484   62.9375   63.6975 O   0  0  0  0  0  0  0  0  0  0  0  0
  -32.6820   65.2691   63.4715 O   0  0  0  0  0  0  0  0  0  0  0  0
  -32.1966   63.9414   61.5028 O   0  0  0  0  0  0  0  0  0  0  0  0
  -32.8057   63.9168   62.8630 S   0  0  0  0  0  0  0  0  0  0  0  0
  -32.4312   62.9077   64.5882 H   0  0  0  0  0  0  0  0  0  0  0  0
  -32.2729   63.0631   61.0985 H   0  0  0  0  0  0  0  0  0  0  0  0
  2  1  1  0  0  0
  2  4  1  0  0  0
  2  5  1  0  0  0
 41 42  1  0  0  0
 41  1  1  0  0  0
 42 46  1  0  0  0
  1 24  1  0  0  0
 23 24  1  0  0  0
 23 25  1  0  0  0
 24 26  1  0  0  0
  3  4  2  0  0  0
 26 27  2  0  0  0
 27 28  1  0  0  0
 43 47  1  0  0  0
 43 51  1  0  0  0
 28 29  1  0  0  0
 56 48  1  0  0  0
 56 60  1  0  0  0
 29 30  1  0  0  0
 57 60  1  0  0  0
 57 61  1  0  0  0
 30 31  1  0  0  0
 44 49  1  0  0  0
 44 52  1  0  0  0
 31 32  1  0  0  0
 45 46  1  0  0  0
 45 50  1  0  0  0
 32 33  1  0  0  0
 53 54  1  0  0  0
 53 55  1  0  0  0
 33 34  1  0  0  0
 34 35  1  0  0  0
 35 36  1  0  0  0
 58 60  1  0  0  0
 36 37  1  0  0  0
 59 60  1  0  0  0
 59 62  1  0  0  0
 37 38  1  0  0  0
 38 39  1  0  0  0
 39 40  1  0  0  0
  4  6  1  0  0  0
  6  7  1  0  0  0
  7  8  1  0  0  0
  8  9  1  0  0  0
  9 10  1  0  0  0
 10 11  1  0  0  0
 11 12  1  0  0  0
 12 13  1  0  0  0
 13 14  1  0  0  0
 14 15  1  0  0  0
 15 16  1  0  0  0
 16 17  1  0  0  0
 17 18  1  0  0  0
 18 19  1  0  0  0
 19 20  1  0  0  0
 20 21  1  0  0  0
 21 22  1  0  0  0
 46 47  1  0  0  0
 47 48  1  0  0  0
 48 49  1  0  0  0
 49 50  1  0  0  0
 50 54  1  0  0  0
M  CHG 1  58  -1
M  END
> <minimizedAffinity>
-9.49056

> <CNNscore>
0.3386886418

> <CNNaffinity>
7.2729864120

> <CNN_VS>
2.4632778168

> <CNNaffinity_variance>
1.1616532803

$$$$
/media/chris/experiments/cd1a-new-docking/inputs/ligands/1onq_ligand.pdb


 62 62  0  0  0  0  0  0  0  0999 V2000
  -40.2793   58.8711   64.7104 C   0  0  0  0  0  0  0  0  0  0  0  0
  -41.3168   58.2744   65.5283 N   0  0  0  0  0  0  0  0  0  0  0  0
  -43.1651   59.3994   64.8459 O   0  0  0  0  0  0  0  0  0  0  0  0
  -42.6254   58.5621   65.5427 C   0  0  0  0  0  0  0  0  0  0  0  0
  -41.0234   57.5702   66.1506 H   0  0  0  0  0  0  0  0  0  0  0  0
  -43.4453   57.7546   66.5049 C   0  0  0  0  0  0  0  0  0  0  0  0
  -44.3943   56.9054   65.6590 C   0  0  0  0  0  0  0  0  0  0  0  0
  -45.8424   57.2145   66.0308 C   0  0  0  0  0  0  0  0  0  0  0  0
  -46.7025   57.7859   64.9298 C   0  0  0  0  0  0  0  0  0  0  0  0
  -46.7631   59.2966   65.1296 C   0  0  0  0  0  0  0  0  0  0  0  0
  -48.1967   59.8427   65.0923 C   0  0  0  0  0  0  0  0  0  0  0  0
  -49.1923   59.0659   65.9731 C   0  0  0  0  0  0  0  0  0  0  0  0
  -50.4310   58.5766   65.1910 C   0  0  0  0  0  0  0  0  0  0  0  0
  -50.9216   59.6588   64.2248 C   0  0  0  0  0  0  0  0  0  0  0  0
  -51.1888   59.1806   62.8028 C   0  0  0  0  0  0  0  0  0  0  0  0
  -50.0085   59.4348   61.8769 C   0  0  0  0  0  0  0  0  0  0  0  0
  -49.1869   58.2047   61.4839 C   0  0  0  0  0  0  0  0  0  0  0  0
  -49.7281   57.6732   60.1637 C   0  0  0  0  0  0  0  0  0  0  0  0
  -48.7844   56.9177   59.2397 C   0  0  0  0  0  0  0  0  0  0  0  0
  -47.4320   57.6392   59.1257 C   0  0  0  0  0  0  0  0  0  0  0  0
  -46.8357   57.6572   57.7061 C   0  0  0  0  0  0  0  0  0  0  0  0
  -47.3292   56.5091   56.8289 C   0  0  0  0  0  0  0  0  0  0  0  0
  -38.3197   57.7748   65.3053 O   0  0  0  0  0  0  0  0  0  0  0  0
  -39.3907   57.6830   64.3843 C   0  0  0  0  0  0  0  0  0  0  0  0
  -38.6637   57.7032   66.2094 H   0  0  0  0  0  0  0  0  0  0  0  0
  -38.9146   57.7892   62.9337 C   0  0  0  0  0  0  0  0  0  0  0  0
  -38.0151   56.9483   62.3951 C   0  0  0  0  0  0  0  0  0  0  0  0
  -37.5898   57.1210   60.9382 C   0  0  0  0  0  0  0  0  0  0  0  0
  -37.4313   58.5861   60.5064 C   0  0  0  0  0  0  0  0  0  0  0  0
  -38.1566   58.9800   59.2064 C   0  0  0  0  0  0  0  0  0  0  0  0
  -37.7118   58.0741   58.0330 C   0  0  0  0  0  0  0  0  0  0  0  0
  -36.1853   58.0366   57.7679 C   0  0  0  0  0  0  0  0  0  0  0  0
  -35.5565   56.6282   57.8849 C   0  0  0  0  0  0  0  0  0  0  0  0
  -34.1275   56.6365   58.4697 C   0  0  0  0  0  0  0  0  0  0  0  0
  -33.9904   55.8471   59.7770 C   0  0  0  0  0  0  0  0  0  0  0  0
  -34.1828   56.6437   61.0658 C   0  0  0  0  0  0  0  0  0  0  0  0
  -32.8752   56.9130   61.8362 C   0  0  0  0  0  0  0  0  0  0  0  0
  -32.9502   58.0371   62.8807 C   0  0  0  0  0  0  0  0  0  0  0  0
  -34.3826   58.5590   63.0248 C   0  0  0  0  0  0  0  0  0  0  0  0
  -35.0368   58.3697   64.3820 C   0  0  0  0  0  0  0  0  0  0  0  0
  -39.5907   60.1167   65.3129 C   0  0  0  0  0  0  0  0  0  0  0  0
  -38.8571   60.9617   64.3903 O   0  0  0  0  0  0  0  0  0  0  0  0
  -36.8540   61.3118   62.3797 O   0  0  0  0  0  0  0  0  0  0  0  0
  -35.6976   64.4862   64.8260 O   0  0  0  0  0  0  0  0  0  0  0  0
  -37.3018   62.1296   65.8402 O   0  0  0  0  0  0  0  0  0  0  0  0
  -37.4494   61.3288   64.6426 C   0  0  0  0  0  0  0  0  0  0  0  0
  -36.7421   62.1040   63.5217 C   0  0  0  0  0  0  0  0  0  0  0  0
  -35.2426   62.3557   63.7922 C   0  0  0  0  0  0  0  0  0  0  0  0
  -35.1744   63.1790   65.0487 C   0  0  0  0  0  0  0  0  0  0  0  0
  -35.9286   62.4777   66.1639 C   0  0  0  0  0  0  0  0  0  0  0  0
  -37.7911   61.1430   62.1939 H   0  0  0  0  0  0  0  0  0  0  0  0
  -35.2020   64.9152   64.1109 H   0  0  0  0  0  0  0  0  0  0  0  0
  -34.3933   63.7681   67.4644 O   0  0  0  0  0  0  0  0  0  0  0  0
  -35.7476   63.4638   67.3158 C   0  0  0  0  0  0  0  0  0  0  0  0
  -34.2811   64.3944   68.1966 H   0  0  0  0  0  0  0  0  0  0  0  0
  -34.5328   63.1063   62.7810 O   0  0  0  0  0  0  0  0  0  0  0  0
  -32.4970   63.7381   61.3067 O   0  0  0  0  0  0  0  0  0  0  0  0
  -32.6276   61.5189   62.2798 O   0  0  0  0  0  0  0  0  0  0  0  0
  -32.0604   63.4257   63.6642 O   0  0  0  0  0  0  0  0  0  0  0  0
  -32.8948   62.9631   62.5191 S   0  0  0  0  0  0  0  0  0  0  0  0
  -33.0305   63.4502   60.5495 H   0  0  0  0  0  0  0  0  0  0  0  0
  -32.2284   64.3669   63.8272 H   0  0  0  0  0  0  0  0  0  0  0  0
  2  1  1  0  0  0
  2  4  1  0  0  0
  2  5  1  0  0  0
 41 42  1  0  0  0
 41  1  1  0  0  0
 42 46  1  0  0  0
  1 24  1  0  0  0
 23 24  1  0  0  0
 23 25  1  0  0  0
 24 26  1  0  0  0
  3  4  2  0  0  0
 26 27  2  0  0  0
 27 28  1  0  0  0
 43 47  1  0  0  0
 43 51  1  0  0  0
 28 29  1  0  0  0
 56 48  1  0  0  0
 56 60  1  0  0  0
 29 30  1  0  0  0
 57 60  1  0  0  0
 57 61  1  0  0  0
 30 31  1  0  0  0
 44 49  1  0  0  0
 44 52  1  0  0  0
 31 32  1  0  0  0
 45 46  1  0  0  0
 45 50  1  0  0  0
 32 33  1  0  0  0
 53 54  1  0  0  0
 53 55  1  0  0  0
 33 34  1  0  0  0
 34 35  1  0  0  0
 35 36  1  0  0  0
 58 60  1  0  0  0
 36 37  1  0  0  0
 59 60  1  0  0  0
 59 62  1  0  0  0
 37 38  1  0  0  0
 38 39  1  0  0  0
 39 40  1  0  0  0
  4  6  1  0  0  0
  6  7  1  0  0  0
  7  8  1  0  0  0
  8  9  1  0  0  0
  9 10  1  0  0  0
 10 11  1  0  0  0
 11 12  1  0  0  0
 12 13  1  0  0  0
 13 14  1  0  0  0
 14 15  1  0  0  0
 15 16  1  0  0  0
 16 17  1  0  0  0
 17 18  1  0  0  0
 18 19  1  0  0  0
 19 20  1  0  0  0
 20 21  1  0  0  0
 21 22  1  0  0  0
 46 47  1  0  0  0
 47 48  1  0  0  0
 48 49  1  0  0  0
 49 50  1  0  0  0
 50 54  1  0  0  0
M  CHG 1  58  -1
M  END
> <minimizedAffinity>
-10.29217

> <CNNscore>
0.3080746233

> <CNNaffinity>
7.0756392479

> <CNN_VS>
2.1798248291

> <CNNaffinity_variance>
1.3492376804

$$$$
/media/chris/experiments/cd1a-new-docking/inputs/ligands/1onq_ligand.pdb


 62 62  0  0  0  0  0  0  0  0999 V2000
  -40.2183   59.2545   64.8704 C   0  0  0  0  0  0  0  0  0  0  0  0
  -40.2938   59.3901   63.4292 N   0  0  0  0  0  0  0  0  0  0  0  0
  -41.0569   61.5134   63.1915 O   0  0  0  0  0  0  0  0  0  0  0  0
  -40.6880   60.4558   62.7190 C   0  0  0  0  0  0  0  0  0  0  0  0
  -40.0217   58.6010   62.9072 H   0  0  0  0  0  0  0  0  0  0  0  0
  -40.6442   60.2815   61.2299 C   0  0  0  0  0  0  0  0  0  0  0  0
  -39.1661   60.2216   60.8439 C   0  0  0  0  0  0  0  0  0  0  0  0
  -39.0236   59.7604   59.3956 C   0  0  0  0  0  0  0  0  0  0  0  0
  -37.9884   58.6923   59.1383 C   0  0  0  0  0  0  0  0  0  0  0  0
  -37.2962   58.3929   60.4638 C   0  0  0  0  0  0  0  0  0  0  0  0
  -37.6343   56.9984   61.0077 C   0  0  0  0  0  0  0  0  0  0  0  0
  -37.8911   56.9568   62.5253 C   0  0  0  0  0  0  0  0  0  0  0  0
  -37.0482   57.9895   63.3053 C   0  0  0  0  0  0  0  0  0  0  0  0
  -36.0229   57.2854   64.1987 C   0  0  0  0  0  0  0  0  0  0  0  0
  -34.6272   57.8971   64.1846 C   0  0  0  0  0  0  0  0  0  0  0  0
  -34.2370   58.4130   62.8074 C   0  0  0  0  0  0  0  0  0  0  0  0
  -33.1273   57.6398   62.0909 C   0  0  0  0  0  0  0  0  0  0  0  0
  -33.7112   56.3266   61.5878 C   0  0  0  0  0  0  0  0  0  0  0  0
  -33.4860   55.9377   60.1342 C   0  0  0  0  0  0  0  0  0  0  0  0
  -34.8230   55.7966   59.3892 C   0  0  0  0  0  0  0  0  0  0  0  0
  -34.9854   56.7415   58.1843 C   0  0  0  0  0  0  0  0  0  0  0  0
  -33.6597   57.2971   57.6692 C   0  0  0  0  0  0  0  0  0  0  0  0
  -41.2409   60.8083   66.2616 O   0  0  0  0  0  0  0  0  0  0  0  0
  -41.5624   59.7972   65.3248 C   0  0  0  0  0  0  0  0  0  0  0  0
  -40.7251   61.5031   65.8233 H   0  0  0  0  0  0  0  0  0  0  0  0
  -42.3791   58.6662   65.9544 C   0  0  0  0  0  0  0  0  0  0  0  0
  -43.6163   58.3401   65.5430 C   0  0  0  0  0  0  0  0  0  0  0  0
  -44.3676   57.1978   66.2241 C   0  0  0  0  0  0  0  0  0  0  0  0
  -45.7371   56.8945   65.5991 C   0  0  0  0  0  0  0  0  0  0  0  0
  -46.4874   58.1068   65.0174 C   0  0  0  0  0  0  0  0  0  0  0  0
  -47.9722   57.7589   64.7531 C   0  0  0  0  0  0  0  0  0  0  0  0
  -48.6857   58.6543   63.7087 C   0  0  0  0  0  0  0  0  0  0  0  0
  -50.2278   58.5322   63.7177 C   0  0  0  0  0  0  0  0  0  0  0  0
  -50.8756   58.7879   62.3397 C   0  0  0  0  0  0  0  0  0  0  0  0
  -50.9844   57.5327   61.4657 C   0  0  0  0  0  0  0  0  0  0  0  0
  -50.2673   57.5883   60.1184 C   0  0  0  0  0  0  0  0  0  0  0  0
  -48.7310   57.5207   60.2239 C   0  0  0  0  0  0  0  0  0  0  0  0
  -47.9992   57.1823   58.9162 C   0  0  0  0  0  0  0  0  0  0  0  0
  -46.4832   57.3194   59.0833 C   0  0  0  0  0  0  0  0  0  0  0  0
  -45.7484   58.0701   57.9868 C   0  0  0  0  0  0  0  0  0  0  0  0
  -38.9588   59.8596   65.5309 C   0  0  0  0  0  0  0  0  0  0  0  0
  -38.4405   61.0793   64.9419 O   0  0  0  0  0  0  0  0  0  0  0  0
  -36.5601   61.0797   62.7874 O   0  0  0  0  0  0  0  0  0  0  0  0
  -35.1884   64.5360   64.6771 O   0  0  0  0  0  0  0  0  0  0  0  0
  -36.7741   62.3965   66.1137 O   0  0  0  0  0  0  0  0  0  0  0  0
  -37.0125   61.4373   65.0551 C   0  0  0  0  0  0  0  0  0  0  0  0
  -36.3608   62.0233   63.7943 C   0  0  0  0  0  0  0  0  0  0  0  0
  -34.8425   62.2672   63.9369 C   0  0  0  0  0  0  0  0  0  0  0  0
  -34.6792   63.2593   65.0551 C   0  0  0  0  0  0  0  0  0  0  0  0
  -35.3765   62.7470   66.3024 C   0  0  0  0  0  0  0  0  0  0  0  0
  -37.5102   60.9135   62.6834 H   0  0  0  0  0  0  0  0  0  0  0  0
  -34.7298   64.8437   63.8796 H   0  0  0  0  0  0  0  0  0  0  0  0
  -36.2519   64.1363   68.0392 O   0  0  0  0  0  0  0  0  0  0  0  0
  -35.1038   63.8819   67.2871 C   0  0  0  0  0  0  0  0  0  0  0  0
  -36.0762   64.8574   68.6638 H   0  0  0  0  0  0  0  0  0  0  0  0
  -34.1821   62.8445   62.7878 O   0  0  0  0  0  0  0  0  0  0  0  0
  -32.1261   63.6325   61.4208 O   0  0  0  0  0  0  0  0  0  0  0  0
  -32.3234   61.2962   62.0467 O   0  0  0  0  0  0  0  0  0  0  0  0
  -31.7029   62.9537   63.7026 O   0  0  0  0  0  0  0  0  0  0  0  0
  -32.5486   62.6947   62.5028 S   0  0  0  0  0  0  0  0  0  0  0  0
  -32.6665   63.4785   60.6302 H   0  0  0  0  0  0  0  0  0  0  0  0
  -31.8435   63.8639   64.0068 H   0  0  0  0  0  0  0  0  0  0  0  0
  2  1  1  0  0  0
  2  4  1  0  0  0
  2  5  1  0  0  0
 41 42  1  0  0  0
 41  1  1  0  0  0
 42 46  1  0  0  0
  1 24  1  0  0  0
 23 24  1  0  0  0
 23 25  1  0  0  0
 24 26  1  0  0  0
  3  4  2  0  0  0
 26 27  2  0  0  0
 27 28  1  0  0  0
 43 47  1  0  0  0
 43 51  1  0  0  0
 28 29  1  0  0  0
 56 48  1  0  0  0
 56 60  1  0  0  0
 29 30  1  0  0  0
 57 60  1  0  0  0
 57 61  1  0  0  0
 30 31  1  0  0  0
 44 49  1  0  0  0
 44 52  1  0  0  0
 31 32  1  0  0  0
 45 46  1  0  0  0
 45 50  1  0  0  0
 32 33  1  0  0  0
 53 54  1  0  0  0
 53 55  1  0  0  0
 33 34  1  0  0  0
 34 35  1  0  0  0
 35 36  1  0  0  0
 58 60  1  0  0  0
 36 37  1  0  0  0
 59 60  1  0  0  0
 59 62  1  0  0  0
 37 38  1  0  0  0
 38 39  1  0  0  0
 39 40  1  0  0  0
  4  6  1  0  0  0
  6  7  1  0  0  0
  7  8  1  0  0  0
  8  9  1  0  0  0
  9 10  1  0  0  0
 10 11  1  0  0  0
 11 12  1  0  0  0
 12 13  1  0  0  0
 13 14  1  0  0  0
 14 15  1  0  0  0
 15 16  1  0  0  0
 16 17  1  0  0  0
 17 18  1  0  0  0
 18 19  1  0  0  0
 19 20  1  0  0  0
 20 21  1  0  0  0
 21 22  1  0  0  0
 46 47  1  0  0  0
 47 48  1  0  0  0
 48 49  1  0  0  0
 49 50  1  0  0  0
 50 54  1  0  0  0
M  CHG 1  58  -1
M  END
> <minimizedAffinity>
-9.89763

> <CNNscore>
0.2933904231

> <CNNaffinity>
7.4982481003

> <CNN_VS>
2.1999142170

> <CNNaffinity_variance>
1.0163319111

$$$$
/media/chris/experiments/cd1a-new-docking/inputs/ligands/1onq_ligand.pdb


 62 62  0  0  0  0  0  0  0  0999 V2000
  -39.7538   59.0142   64.4943 C   0  0  0  0  0  0  0  0  0  0  0  0
  -41.0118   58.4064   64.8803 N   0  0  0  0  0  0  0  0  0  0  0  0
  -41.6214   59.6689   66.6642 O   0  0  0  0  0  0  0  0  0  0  0  0
  -41.8229   58.7548   65.8885 C   0  0  0  0  0  0  0  0  0  0  0  0
  -41.3072   57.6426   64.3339 H   0  0  0  0  0  0  0  0  0  0  0  0
  -43.0663   57.9266   66.0220 C   0  0  0  0  0  0  0  0  0  0  0  0
  -44.2454   58.8842   65.8489 C   0  0  0  0  0  0  0  0  0  0  0  0
  -45.2230   58.7229   67.0105 C   0  0  0  0  0  0  0  0  0  0  0  0
  -46.6893   58.7668   66.6545 C   0  0  0  0  0  0  0  0  0  0  0  0
  -46.8424   59.6824   65.4444 C   0  0  0  0  0  0  0  0  0  0  0  0
  -48.3101   59.9550   65.0889 C   0  0  0  0  0  0  0  0  0  0  0  0
  -49.3128   59.0081   65.7735 C   0  0  0  0  0  0  0  0  0  0  0  0
  -50.5628   58.7311   64.9097 C   0  0  0  0  0  0  0  0  0  0  0  0
  -50.7746   59.8545   63.8906 C   0  0  0  0  0  0  0  0  0  0  0  0
  -50.8699   59.3992   62.4395 C   0  0  0  0  0  0  0  0  0  0  0  0
  -50.7471   57.8892   62.2990 C   0  0  0  0  0  0  0  0  0  0  0  0
  -50.9981   57.3229   60.8994 C   0  0  0  0  0  0  0  0  0  0  0  0
  -49.8936   57.8236   59.9786 C   0  0  0  0  0  0  0  0  0  0  0  0
  -49.0925   56.8060   59.1800 C   0  0  0  0  0  0  0  0  0  0  0  0
  -47.7714   57.4141   58.6829 C   0  0  0  0  0  0  0  0  0  0  0  0
  -47.3347   56.9369   57.2855 C   0  0  0  0  0  0  0  0  0  0  0  0
  -47.4580   55.4267   57.0969 C   0  0  0  0  0  0  0  0  0  0  0  0
  -38.1936   59.4043   66.1704 O   0  0  0  0  0  0  0  0  0  0  0  0
  -38.7613   58.3418   65.4272 C   0  0  0  0  0  0  0  0  0  0  0  0
  -38.8885   59.8507   66.6789 H   0  0  0  0  0  0  0  0  0  0  0  0
  -37.7143   57.5932   64.5992 C   0  0  0  0  0  0  0  0  0  0  0  0
  -36.4849   58.0807   64.3601 C   0  0  0  0  0  0  0  0  0  0  0  0
  -35.4960   57.2722   63.5224 C   0  0  0  0  0  0  0  0  0  0  0  0
  -34.4200   58.1257   62.8354 C   0  0  0  0  0  0  0  0  0  0  0  0
  -33.9221   57.6024   61.4754 C   0  0  0  0  0  0  0  0  0  0  0  0
  -34.3451   56.1285   61.2655 C   0  0  0  0  0  0  0  0  0  0  0  0
  -34.3044   55.6311   59.7983 C   0  0  0  0  0  0  0  0  0  0  0  0
  -33.7240   56.6576   58.7973 C   0  0  0  0  0  0  0  0  0  0  0  0
  -34.7669   57.2037   57.7983 C   0  0  0  0  0  0  0  0  0  0  0  0
  -36.1578   56.5769   57.9528 C   0  0  0  0  0  0  0  0  0  0  0  0
  -37.3425   57.5330   57.8304 C   0  0  0  0  0  0  0  0  0  0  0  0
  -37.3645   58.6424   58.9002 C   0  0  0  0  0  0  0  0  0  0  0  0
  -37.3564   58.1492   60.3552 C   0  0  0  0  0  0  0  0  0  0  0  0
  -38.6402   58.5597   61.0820 C   0  0  0  0  0  0  0  0  0  0  0  0
  -39.4008   59.7362   60.4965 C   0  0  0  0  0  0  0  0  0  0  0  0
  -39.7446   60.5593   64.4573 C   0  0  0  0  0  0  0  0  0  0  0  0
  -38.8111   61.1801   63.5372 O   0  0  0  0  0  0  0  0  0  0  0  0
  -36.6465   61.6601   61.7312 O   0  0  0  0  0  0  0  0  0  0  0  0
  -35.5687   64.4895   64.6003 O   0  0  0  0  0  0  0  0  0  0  0  0
  -37.3317   62.1097   65.2202 O   0  0  0  0  0  0  0  0  0  0  0  0
  -37.4148   61.4535   63.9317 C   0  0  0  0  0  0  0  0  0  0  0  0
  -36.5948   62.3153   62.9609 C   0  0  0  0  0  0  0  0  0  0  0  0
  -35.1127   62.4680   63.3671 C   0  0  0  0  0  0  0  0  0  0  0  0
  -35.1124   63.1435   64.7107 C   0  0  0  0  0  0  0  0  0  0  0  0
  -35.9760   62.3578   65.6809 C   0  0  0  0  0  0  0  0  0  0  0  0
  -37.5718   61.5551   61.4595 H   0  0  0  0  0  0  0  0  0  0  0  0
  -35.0039   64.9722   63.9767 H   0  0  0  0  0  0  0  0  0  0  0  0
  -36.9359   64.0726   67.0414 O   0  0  0  0  0  0  0  0  0  0  0  0
  -35.8492   63.2014   66.9475 C   0  0  0  0  0  0  0  0  0  0  0  0
  -36.8531   64.6073   67.8466 H   0  0  0  0  0  0  0  0  0  0  0  0
  -34.2996   63.2933   62.5023 O   0  0  0  0  0  0  0  0  0  0  0  0
  -32.3192   61.6994   61.9980 O   0  0  0  0  0  0  0  0  0  0  0  0
  -32.0659   63.4275   63.6827 O   0  0  0  0  0  0  0  0  0  0  0  0
  -32.0389   64.0060   61.3293 O   0  0  0  0  0  0  0  0  0  0  0  0
  -32.6515   63.1112   62.3518 S   0  0  0  0  0  0  0  0  0  0  0  0
  -32.7103   61.1011   62.6537 H   0  0  0  0  0  0  0  0  0  0  0  0
  -32.4153   63.8064   60.4579 H   0  0  0  0  0  0  0  0  0  0  0  0
  2  1  1  0  0  0
  2  4  1  0  0  0
  2  5  1  0  0  0
 41 42  1  0  0  0
 41  1  1  0  0  0
 42 46  1  0  0  0
  1 24  1  0  0  0
 23 24  1  0  0  0
 23 25  1  0  0  0
 24 26  1  0  0  0
  3  4  2  0  0  0
 26 27  2  0  0  0
 27 28  1  0  0  0
 43 47  1  0  0  0
 43 51  1  0  0  0
 28 29  1  0  0  0
 56 48  1  0  0  0
 56 60  1  0  0  0
 29 30  1  0  0  0
 57 60  1  0  0  0
 57 61  1  0  0  0
 30 31  1  0  0  0
 44 49  1  0  0  0
 44 52  1  0  0  0
 31 32  1  0  0  0
 45 46  1  0  0  0
 45 50  1  0  0  0
 32 33  1  0  0  0
 53 54  1  0  0  0
 53 55  1  0  0  0
 33 34  1  0  0  0
 34 35  1  0  0  0
 35 36  1  0  0  0
 58 60  1  0  0  0
 36 37  1  0  0  0
 59 60  1  0  0  0
 59 62  1  0  0  0
 37 38  1  0  0  0
 38 39  1  0  0  0
 39 40  1  0  0  0
  4  6  1  0  0  0
  6  7  1  0  0  0
  7  8  1  0  0  0
  8  9  1  0  0  0
  9 10  1  0  0  0
 10 11  1  0  0  0
 11 12  1  0  0  0
 12 13  1  0  0  0
 13 14  1  0  0  0
 14 15  1  0  0  0
 15 16  1  0  0  0
 16 17  1  0  0  0
 17 18  1  0  0  0
 18 19  1  0  0  0
 19 20  1  0  0  0
 20 21  1  0  0  0
 21 22  1  0  0  0
 46 47  1  0  0  0
 47 48  1  0  0  0
 48 49  1  0  0  0
 49 50  1  0  0  0
 50 54  1  0  0  0
M  CHG 1  58  -1
M  END
> <minimizedAffinity>
-10.02682

> <CNNscore>
0.2571201026

> <CNNaffinity>
7.0805983543

> <CNN_VS>
1.8205641508

> <CNNaffinity_variance>
1.1312595606

$$$$
/media/chris/experiments/cd1a-new-docking/inputs/ligands/1onq_ligand.pdb


 62 62  0  0  0  0  0  0  0  0999 V2000
  -40.2975   59.2239   65.0537 C   0  0  0  0  0  0  0  0  0  0  0  0
  -39.6981   58.4757   63.9664 N   0  0  0  0  0  0  0  0  0  0  0  0
  -37.9540   57.4546   64.9976 O   0  0  0  0  0  0  0  0  0  0  0  0
  -38.6204   57.6802   64.0062 C   0  0  0  0  0  0  0  0  0  0  0  0
  -40.1373   58.5628   63.0897 H   0  0  0  0  0  0  0  0  0  0  0  0
  -38.2550   57.0359   62.7019 C   0  0  0  0  0  0  0  0  0  0  0  0
  -36.7284   56.9594   62.6692 C   0  0  0  0  0  0  0  0  0  0  0  0
  -36.1446   58.3306   62.3375 C   0  0  0  0  0  0  0  0  0  0  0  0
  -35.1800   58.9029   63.3477 C   0  0  0  0  0  0  0  0  0  0  0  0
  -34.2288   57.7848   63.7613 C   0  0  0  0  0  0  0  0  0  0  0  0
  -32.8147   57.9693   63.1947 C   0  0  0  0  0  0  0  0  0  0  0  0
  -32.6815   57.6196   61.7011 C   0  0  0  0  0  0  0  0  0  0  0  0
  -33.2944   56.2463   61.3491 C   0  0  0  0  0  0  0  0  0  0  0  0
  -34.0052   56.3037   59.9938 C   0  0  0  0  0  0  0  0  0  0  0  0
  -35.1946   55.3622   59.8491 C   0  0  0  0  0  0  0  0  0  0  0  0
  -36.2878   55.9447   58.9656 C   0  0  0  0  0  0  0  0  0  0  0  0
  -35.8467   57.0281   57.9786 C   0  0  0  0  0  0  0  0  0  0  0  0
  -36.8510   58.1706   58.0465 C   0  0  0  0  0  0  0  0  0  0  0  0
  -37.8077   58.2316   59.2280 C   0  0  0  0  0  0  0  0  0  0  0  0
  -38.1001   59.6875   59.6243 C   0  0  0  0  0  0  0  0  0  0  0  0
  -39.5969   60.0422   59.6929 C   0  0  0  0  0  0  0  0  0  0  0  0
  -40.0890   60.3137   61.1127 C   0  0  0  0  0  0  0  0  0  0  0  0
  -41.7028   60.8448   64.1631 O   0  0  0  0  0  0  0  0  0  0  0  0
  -41.7045   59.4811   64.5422 C   0  0  0  0  0  0  0  0  0  0  0  0
  -41.0540   60.9829   63.4553 H   0  0  0  0  0  0  0  0  0  0  0  0
  -42.7103   59.1944   65.6596 C   0  0  0  0  0  0  0  0  0  0  0  0
  -44.0059   58.9236   65.4264 C   0  0  0  0  0  0  0  0  0  0  0  0
  -44.9479   58.6488   66.5971 C   0  0  0  0  0  0  0  0  0  0  0  0
  -46.1564   57.7751   66.2307 C   0  0  0  0  0  0  0  0  0  0  0  0
  -46.6565   57.9036   64.7800 C   0  0  0  0  0  0  0  0  0  0  0  0
  -47.9838   58.6977   64.7248 C   0  0  0  0  0  0  0  0  0  0  0  0
  -48.7191   58.6634   63.3610 C   0  0  0  0  0  0  0  0  0  0  0  0
  -50.2126   58.2724   63.4562 C   0  0  0  0  0  0  0  0  0  0  0  0
  -50.9887   58.4721   62.1364 C   0  0  0  0  0  0  0  0  0  0  0  0
  -50.9118   57.2708   61.1866 C   0  0  0  0  0  0  0  0  0  0  0  0
  -50.4516   57.5701   59.7614 C   0  0  0  0  0  0  0  0  0  0  0  0
  -49.0922   56.9411   59.3975 C   0  0  0  0  0  0  0  0  0  0  0  0
  -47.8690   57.6022   60.0508 C   0  0  0  0  0  0  0  0  0  0  0  0
  -46.5969   57.3215   59.2459 C   0  0  0  0  0  0  0  0  0  0  0  0
  -46.5970   57.7847   57.7998 C   0  0  0  0  0  0  0  0  0  0  0  0
  -39.4934   60.4510   65.5400 C   0  0  0  0  0  0  0  0  0  0  0  0
  -38.7573   61.1857   64.5293 O   0  0  0  0  0  0  0  0  0  0  0  0
  -36.8896   61.5639   62.3971 O   0  0  0  0  0  0  0  0  0  0  0  0
  -35.4341   64.5637   64.9032 O   0  0  0  0  0  0  0  0  0  0  0  0
  -37.0567   62.2194   65.9165 O   0  0  0  0  0  0  0  0  0  0  0  0
  -37.3215   61.4870   64.6955 C   0  0  0  0  0  0  0  0  0  0  0  0
  -36.6646   62.2918   63.5648 C   0  0  0  0  0  0  0  0  0  0  0  0
  -35.1407   62.4735   63.7370 C   0  0  0  0  0  0  0  0  0  0  0  0
  -34.9500   63.2283   65.0236 C   0  0  0  0  0  0  0  0  0  0  0  0
  -35.6509   62.4992   66.1556 C   0  0  0  0  0  0  0  0  0  0  0  0
  -37.8436   61.4397   62.2723 H   0  0  0  0  0  0  0  0  0  0  0  0
  -34.9736   65.0101   64.1755 H   0  0  0  0  0  0  0  0  0  0  0  0
  -36.5402   63.9438   67.8396 O   0  0  0  0  0  0  0  0  0  0  0  0
  -35.3486   63.4177   67.3376 C   0  0  0  0  0  0  0  0  0  0  0  0
  -36.3455   64.5267   68.5901 H   0  0  0  0  0  0  0  0  0  0  0  0
  -34.4746   63.2482   62.7142 O   0  0  0  0  0  0  0  0  0  0  0  0
  -32.4967   63.8989   61.1711 O   0  0  0  0  0  0  0  0  0  0  0  0
  -32.5177   61.7179   62.2350 O   0  0  0  0  0  0  0  0  0  0  0  0
  -31.9995   63.7007   63.5290 O   0  0  0  0  0  0  0  0  0  0  0  0
  -32.8380   63.1591   62.4221 S   0  0  0  0  0  0  0  0  0  0  0  0
  -33.0336   63.5594   60.4380 H   0  0  0  0  0  0  0  0  0  0  0  0
  -32.2020   64.6405   63.6578 H   0  0  0  0  0  0  0  0  0  0  0  0
  2  1  1  0  0  0
  2  4  1  0  0  0
  2  5  1  0  0  0
 41 42  1  0  0  0
 41  1  1  0  0  0
 42 46  1  0  0  0
  1 24  1  0  0  0
 23 24  1  0  0  0
 23 25  1  0  0  0
 24 26  1  0  0  0
  3  4  2  0  0  0
 26 27  2  0  0  0
 27 28  1  0  0  0
 43 47  1  0  0  0
 43 51  1  0  0  0
 28 29  1  0  0  0
 56 48  1  0  0  0
 56 60  1  0  0  0
 29 30  1  0  0  0
 57 60  1  0  0  0
 57 61  1  0  0  0
 30 31  1  0  0  0
 44 49  1  0  0  0
 44 52  1  0  0  0
 31 32  1  0  0  0
 45 46  1  0  0  0
 45 50  1  0  0  0
 32 33  1  0  0  0
 53 54  1  0  0  0
 53 55  1  0  0  0
 33 34  1  0  0  0
 34 35  1  0  0  0
 35 36  1  0  0  0
 58 60  1  0  0  0
 36 37  1  0  0  0
 59 60  1  0  0  0
 59 62  1  0  0  0
 37 38  1  0  0  0
 38 39  1  0  0  0
 39 40  1  0  0  0
  4  6  1  0  0  0
  6  7  1  0  0  0
  7  8  1  0  0  0
  8  9  1  0  0  0
  9 10  1  0  0  0
 10 11  1  0  0  0
 11 12  1  0  0  0
 12 13  1  0  0  0
 13 14  1  0  0  0
 14 15  1  0  0  0
 15 16  1  0  0  0
 16 17  1  0  0  0
 17 18  1  0  0  0
 18 19  1  0  0  0
 19 20  1  0  0  0
 20 21  1  0  0  0
 21 22  1  0  0  0
 46 47  1  0  0  0
 47 48  1  0  0  0
 48 49  1  0  0  0
 49 50  1  0  0  0
 50 54  1  0  0  0
M  CHG 1  58  -1
M  END
> <minimizedAffinity>
-9.74038

> <CNNscore>
0.2520799041

> <CNNaffinity>
7.3735170364

> <CNN_VS>
1.8587154150

> <CNNaffinity_variance>
0.9958459735

$$$$
/media/chris/experiments/cd1a-new-docking/inputs/ligands/1onq_ligand.pdb


 62 62  0  0  0  0  0  0  0  0999 V2000
  -40.2957   59.0950   64.7679 C   0  0  0  0  0  0  0  0  0  0  0  0
  -41.2288   58.2640   65.5026 N   0  0  0  0  0  0  0  0  0  0  0  0
  -43.1640   59.4310   65.3016 O   0  0  0  0  0  0  0  0  0  0  0  0
  -42.5356   58.4746   65.7115 C   0  0  0  0  0  0  0  0  0  0  0  0
  -40.8562   57.4427   65.8974 H   0  0  0  0  0  0  0  0  0  0  0  0
  -43.2324   57.4145   66.5118 C   0  0  0  0  0  0  0  0  0  0  0  0
  -44.4771   57.0195   65.7169 C   0  0  0  0  0  0  0  0  0  0  0  0
  -45.6924   56.9730   66.6399 C   0  0  0  0  0  0  0  0  0  0  0  0
  -46.1530   58.2980   67.1974 C   0  0  0  0  0  0  0  0  0  0  0  0
  -46.6407   59.1457   66.0271 C   0  0  0  0  0  0  0  0  0  0  0  0
  -48.1453   59.4398   66.0943 C   0  0  0  0  0  0  0  0  0  0  0  0
  -49.0207   58.4367   65.3210 C   0  0  0  0  0  0  0  0  0  0  0  0
  -50.4228   58.9937   64.9904 C   0  0  0  0  0  0  0  0  0  0  0  0
  -50.8079   58.6638   63.5454 C   0  0  0  0  0  0  0  0  0  0  0  0
  -50.0626   59.4605   62.4814 C   0  0  0  0  0  0  0  0  0  0  0  0
  -49.4151   58.5638   61.4367 C   0  0  0  0  0  0  0  0  0  0  0  0
  -50.3514   57.5950   60.7106 C   0  0  0  0  0  0  0  0  0  0  0  0
  -49.5352   56.8279   59.6791 C   0  0  0  0  0  0  0  0  0  0  0  0
  -48.0179   56.9303   59.7268 C   0  0  0  0  0  0  0  0  0  0  0  0
  -47.4132   56.7964   58.3202 C   0  0  0  0  0  0  0  0  0  0  0  0
  -46.6388   58.0366   57.8372 C   0  0  0  0  0  0  0  0  0  0  0  0
  -45.1728   58.0374   58.2640 C   0  0  0  0  0  0  0  0  0  0  0  0
  -40.6510   60.9562   66.1115 O   0  0  0  0  0  0  0  0  0  0  0  0
  -39.6841   59.9530   65.8621 C   0  0  0  0  0  0  0  0  0  0  0  0
  -41.4720   60.5439   66.4226 H   0  0  0  0  0  0  0  0  0  0  0  0
  -38.3599   60.5388   65.3664 C   0  0  0  0  0  0  0  0  0  0  0  0
  -37.3617   60.8943   66.1932 C   0  0  0  0  0  0  0  0  0  0  0  0
  -36.0696   61.4733   65.6201 C   0  0  0  0  0  0  0  0  0  0  0  0
  -35.4408   62.5713   66.4903 C   0  0  0  0  0  0  0  0  0  0  0  0
  -33.9371   62.8181   66.2685 C   0  0  0  0  0  0  0  0  0  0  0  0
  -33.6644   64.3108   65.9641 C   0  0  0  0  0  0  0  0  0  0  0  0
  -32.3149   64.6071   65.2621 C   0  0  0  0  0  0  0  0  0  0  0  0
  -32.4565   65.2579   63.8660 C   0  0  0  0  0  0  0  0  0  0  0  0
  -31.9736   64.3538   62.7113 C   0  0  0  0  0  0  0  0  0  0  0  0
  -32.9486   63.2228   62.3630 C   0  0  0  0  0  0  0  0  0  0  0  0
  -32.5227   61.8168   62.7805 C   0  0  0  0  0  0  0  0  0  0  0  0
  -31.3266   61.2622   61.9820 C   0  0  0  0  0  0  0  0  0  0  0  0
  -31.1010   59.7478   62.1078 C   0  0  0  0  0  0  0  0  0  0  0  0
  -32.3876   59.0336   62.5316 C   0  0  0  0  0  0  0  0  0  0  0  0
  -32.4398   57.5357   62.2885 C   0  0  0  0  0  0  0  0  0  0  0  0
  -40.8832   59.8339   63.5441 C   0  0  0  0  0  0  0  0  0  0  0  0
  -40.0452   59.8989   62.3623 O   0  0  0  0  0  0  0  0  0  0  0  0
  -39.2671   59.1990   59.7011 O   0  0  0  0  0  0  0  0  0  0  0  0
  -35.5695   58.5403   61.5155 O   0  0  0  0  0  0  0  0  0  0  0  0
  -38.1800   58.5060   63.0451 O   0  0  0  0  0  0  0  0  0  0  0  0
  -39.1437   58.7867   62.0011 C   0  0  0  0  0  0  0  0  0  0  0  0
  -38.3328   58.9664   60.7096 C   0  0  0  0  0  0  0  0  0  0  0  0
  -37.4998   57.7250   60.3223 C   0  0  0  0  0  0  0  0  0  0  0  0
  -36.5368   57.4950   61.4541 C   0  0  0  0  0  0  0  0  0  0  0  0
  -37.2984   57.3858   62.7626 C   0  0  0  0  0  0  0  0  0  0  0  0
  -39.8006   59.9768   59.9277 H   0  0  0  0  0  0  0  0  0  0  0  0
  -35.0955   58.5922   60.6708 H   0  0  0  0  0  0  0  0  0  0  0  0
  -35.7174   58.4040   64.2381 O   0  0  0  0  0  0  0  0  0  0  0  0
  -36.1593   57.1705   63.7566 C   0  0  0  0  0  0  0  0  0  0  0  0
  -34.9940   58.2645   64.8691 H   0  0  0  0  0  0  0  0  0  0  0  0
  -36.6944   57.8488   59.1282 O   0  0  0  0  0  0  0  0  0  0  0  0
  -35.7674   55.4389   59.3508 O   0  0  0  0  0  0  0  0  0  0  0  0
  -34.6438   57.0241   57.8971 O   0  0  0  0  0  0  0  0  0  0  0  0
  -36.7429   56.0218   57.2165 O   0  0  0  0  0  0  0  0  0  0  0  0
  -35.9709   56.5514   58.3763 S   0  0  0  0  0  0  0  0  0  0  0  0
  -35.2657   55.7653   60.1141 H   0  0  0  0  0  0  0  0  0  0  0  0
  -37.6102   55.7112   57.5202 H   0  0  0  0  0  0  0  0  0  0  0  0
  2  1  1  0  0  0
  2  4  1  0  0  0
  2  5  1  0  0  0
 41 42  1  0  0  0
 41  1  1  0  0  0
 42 46  1  0  0  0
  1 24  1  0  0  0
 23 24  1  0  0  0
 23 25  1  0  0  0
 24 26  1  0  0  0
  3  4  2  0  0  0
 26 27  2  0  0  0
 27 28  1  0  0  0
 43 47  1  0  0  0
 43 51  1  0  0  0
 28 29  1  0  0  0
 56 48  1  0  0  0
 56 60  1  0  0  0
 29 30  1  0  0  0
 57 60  1  0  0  0
 57 61  1  0  0  0
 30 31  1  0  0  0
 44 49  1  0  0  0
 44 52  1  0  0  0
 31 32  1  0  0  0
 45 46  1  0  0  0
 45 50  1  0  0  0
 32 33  1  0  0  0
 53 54  1  0  0  0
 53 55  1  0  0  0
 33 34  1  0  0  0
 34 35  1  0  0  0
 35 36  1  0  0  0
 58 60  1  0  0  0
 36 37  1  0  0  0
 59 60  1  0  0  0
 59 62  1  0  0  0
 37 38  1  0  0  0
 38 39  1  0  0  0
 39 40  1  0  0  0
  4  6  1  0  0  0
  6  7  1  0  0  0
  7  8  1  0  0  0
  8  9  1  0  0  0
  9 10  1  0  0  0
 10 11  1  0  0  0
 11 12  1  0  0  0
 12 13  1  0  0  0
 13 14  1  0  0  0
 14 15  1  0  0  0
 15 16  1  0  0  0
 16 17  1  0  0  0
 17 18  1  0  0  0
 18 19  1  0  0  0
 19 20  1  0  0  0
 20 21  1  0  0  0
 21 22  1  0  0  0
 46 47  1  0  0  0
 47 48  1  0  0  0
 48 49  1  0  0  0
 49 50  1  0  0  0
 50 54  1  0  0  0
M  CHG 1  58  -1
M  END
> <minimizedAffinity>
-9.40131

> <CNNscore>
0.2099228352

> <CNNaffinity>
6.8893485069

> <CNN_VS>
1.4462316036

> <CNNaffinity_variance>
1.2630641460

$$$$
/media/chris/experiments/cd1a-new-docking/inputs/ligands/1onq_ligand.pdb


 62 62  0  0  0  0  0  0  0  0999 V2000
  -38.6671   59.6698   62.0170 C   0  0  0  0  0  0  0  0  0  0  0  0
  -39.7648   59.9259   61.1057 N   0  0  0  0  0  0  0  0  0  0  0  0
  -38.7895   59.5977   59.0837 O   0  0  0  0  0  0  0  0  0  0  0  0
  -39.7559   59.8761   59.7666 C   0  0  0  0  0  0  0  0  0  0  0  0
  -40.6237   60.1665   61.5223 H   0  0  0  0  0  0  0  0  0  0  0  0
  -41.0670   60.1881   59.1082 C   0  0  0  0  0  0  0  0  0  0  0  0
  -41.2104   59.2091   57.9427 C   0  0  0  0  0  0  0  0  0  0  0  0
  -42.4758   59.5248   57.1491 C   0  0  0  0  0  0  0  0  0  0  0  0
  -43.4347   58.3769   56.9453 C   0  0  0  0  0  0  0  0  0  0  0  0
  -44.3224   58.2929   58.1825 C   0  0  0  0  0  0  0  0  0  0  0  0
  -45.8154   58.2132   57.8369 C   0  0  0  0  0  0  0  0  0  0  0  0
  -46.4930   56.8971   58.2604 C   0  0  0  0  0  0  0  0  0  0  0  0
  -47.5642   57.0985   59.3547 C   0  0  0  0  0  0  0  0  0  0  0  0
  -48.9493   56.7046   58.8335 C   0  0  0  0  0  0  0  0  0  0  0  0
  -50.0918   57.5991   59.2989 C   0  0  0  0  0  0  0  0  0  0  0  0
  -49.7348   58.3874   60.5503 C   0  0  0  0  0  0  0  0  0  0  0  0
  -49.9588   57.6686   61.8829 C   0  0  0  0  0  0  0  0  0  0  0  0
  -51.1712   58.2916   62.5614 C   0  0  0  0  0  0  0  0  0  0  0  0
  -51.0694   59.7236   63.0653 C   0  0  0  0  0  0  0  0  0  0  0  0
  -50.2086   59.7995   64.3364 C   0  0  0  0  0  0  0  0  0  0  0  0
  -50.4825   58.6828   65.3606 C   0  0  0  0  0  0  0  0  0  0  0  0
  -49.2312   57.8982   65.7480 C   0  0  0  0  0  0  0  0  0  0  0  0
  -39.7882   58.9220   63.9090 O   0  0  0  0  0  0  0  0  0  0  0  0
  -39.1334   58.4271   62.7558 C   0  0  0  0  0  0  0  0  0  0  0  0
  -40.5477   59.4633   63.6424 H   0  0  0  0  0  0  0  0  0  0  0  0
  -37.9211   57.5617   63.1077 C   0  0  0  0  0  0  0  0  0  0  0  0
  -37.2335   57.6969   64.2546 C   0  0  0  0  0  0  0  0  0  0  0  0
  -36.0328   56.7943   64.5320 C   0  0  0  0  0  0  0  0  0  0  0  0
  -34.6797   57.5153   64.4445 C   0  0  0  0  0  0  0  0  0  0  0  0
  -34.7476   59.0506   64.3473 C   0  0  0  0  0  0  0  0  0  0  0  0
  -33.7885   59.5746   63.2515 C   0  0  0  0  0  0  0  0  0  0  0  0
  -32.7860   58.5317   62.6957 C   0  0  0  0  0  0  0  0  0  0  0  0
  -33.2382   57.8574   61.3790 C   0  0  0  0  0  0  0  0  0  0  0  0
  -33.1051   56.3192   61.3955 C   0  0  0  0  0  0  0  0  0  0  0  0
  -34.4062   55.5827   61.0552 C   0  0  0  0  0  0  0  0  0  0  0  0
  -35.5538   56.4496   60.5413 C   0  0  0  0  0  0  0  0  0  0  0  0
  -36.3718   55.7981   59.4089 C   0  0  0  0  0  0  0  0  0  0  0  0
  -36.3075   56.5213   58.0551 C   0  0  0  0  0  0  0  0  0  0  0  0
  -35.1492   57.5224   58.0210 C   0  0  0  0  0  0  0  0  0  0  0  0
  -33.7810   56.9604   57.6780 C   0  0  0  0  0  0  0  0  0  0  0  0
  -38.2236   60.8729   62.8799 C   0  0  0  0  0  0  0  0  0  0  0  0
  -37.1403   61.6822   62.3558 O   0  0  0  0  0  0  0  0  0  0  0  0
  -35.0131   63.4181   61.5562 O   0  0  0  0  0  0  0  0  0  0  0  0
  -35.5190   64.9510   65.4024 O   0  0  0  0  0  0  0  0  0  0  0  0
  -36.3990   62.1652   64.6147 O   0  0  0  0  0  0  0  0  0  0  0  0
  -36.0219   62.1148   63.2172 C   0  0  0  0  0  0  0  0  0  0  0  0
  -35.4087   63.4843   62.8916 C   0  0  0  0  0  0  0  0  0  0  0  0
  -34.1705   63.8291   63.7478 C   0  0  0  0  0  0  0  0  0  0  0  0
  -34.6401   63.8517   65.1762 C   0  0  0  0  0  0  0  0  0  0  0  0
  -35.3202   62.5374   65.5143 C   0  0  0  0  0  0  0  0  0  0  0  0
  -35.7796   63.2020   61.0023 H   0  0  0  0  0  0  0  0  0  0  0  0
  -35.0650   65.7789   65.1804 H   0  0  0  0  0  0  0  0  0  0  0  0
  -34.6139   63.2189   67.6938 O   0  0  0  0  0  0  0  0  0  0  0  0
  -35.7201   62.7713   66.9694 C   0  0  0  0  0  0  0  0  0  0  0  0
  -34.8705   63.3667   68.6175 H   0  0  0  0  0  0  0  0  0  0  0  0
  -33.5689   65.1204   63.5020 O   0  0  0  0  0  0  0  0  0  0  0  0
  -31.6070   64.8150   61.8363 O   0  0  0  0  0  0  0  0  0  0  0  0
  -31.2157   64.5228   64.2134 O   0  0  0  0  0  0  0  0  0  0  0  0
  -31.4933   66.7455   63.2878 O   0  0  0  0  0  0  0  0  0  0  0  0
  -31.9454   65.3281   63.1969 S   0  0  0  0  0  0  0  0  0  0  0  0
  -31.8943   63.8919   61.7582 H   0  0  0  0  0  0  0  0  0  0  0  0
  -31.9644   67.2781   62.6280 H   0  0  0  0  0  0  0  0  0  0  0  0
  2  1  1  0  0  0
  2  4  1  0  0  0
  2  5  1  0  0  0
 41 42  1  0  0  0
 41  1  1  0  0  0
 42 46  1  0  0  0
  1 24  1  0  0  0
 23 24  1  0  0  0
 23 25  1  0  0  0
 24 26  1  0  0  0
  3  4  2  0  0  0
 26 27  2  0  0  0
 27 28  1  0  0  0
 43 47  1  0  0  0
 43 51  1  0  0  0
 28 29  1  0  0  0
 56 48  1  0  0  0
 56 60  1  0  0  0
 29 30  1  0  0  0
 57 60  1  0  0  0
 57 61  1  0  0  0
 30 31  1  0  0  0
 44 49  1  0  0  0
 44 52  1  0  0  0
 31 32  1  0  0  0
 45 46  1  0  0  0
 45 50  1  0  0  0
 32 33  1  0  0  0
 53 54  1  0  0  0
 53 55  1  0  0  0
 33 34  1  0  0  0
 34 35  1  0  0  0
 35 36  1  0  0  0
 58 60  1  0  0  0
 36 37  1  0  0  0
 59 60  1  0  0  0
 59 62  1  0  0  0
 37 38  1  0  0  0
 38 39  1  0  0  0
 39 40  1  0  0  0
  4  6  1  0  0  0
  6  7  1  0  0  0
  7  8  1  0  0  0
  8  9  1  0  0  0
  9 10  1  0  0  0
 10 11  1  0  0  0
 11 12  1  0  0  0
 12 13  1  0  0  0
 13 14  1  0  0  0
 14 15  1  0  0  0
 15 16  1  0  0  0
 16 17  1  0  0  0
 17 18  1  0  0  0
 18 19  1  0  0  0
 19 20  1  0  0  0
 20 21  1  0  0  0
 21 22  1  0  0  0
 46 47  1  0  0  0
 47 48  1  0  0  0
 48 49  1  0  0  0
 49 50  1  0  0  0
 50 54  1  0  0  0
M  CHG 1  58  -1
M  END
> <minimizedAffinity>
-8.99572

> <CNNscore>
0.1928156912

> <CNNaffinity>
6.4512038231

> <CNN_VS>
1.2438932657

> <CNNaffinity_variance>
0.8377045393

$$$$
