/media/chris/experiments/cd1a-new-docking/inputs/ligands/1onq_ligand.pdb


 62 62  0  0  0  0  0  0  0  0999 V2000
  -38.9424   59.9285   62.6103 C   0  0  0  0  0  0  0  0  0  0  0  0
  -39.5781   59.6655   63.8862 N   0  0  0  0  0  0  0  0  0  0  0  0
  -41.1406   61.3075   63.9856 O   0  0  0  0  0  0  0  0  0  0  0  0
  -40.5844   60.3372   64.4621 C   0  0  0  0  0  0  0  0  0  0  0  0
  -39.2268   58.8978   64.3926 H   0  0  0  0  0  0  0  0  0  0  0  0
  -41.0268   59.8054   65.7931 C   0  0  0  0  0  0  0  0  0  0  0  0
  -41.4616   58.3587   65.5588 C   0  0  0  0  0  0  0  0  0  0  0  0
  -42.5399   57.9683   66.5669 C   0  0  0  0  0  0  0  0  0  0  0  0
  -43.8562   57.5110   65.9866 C   0  0  0  0  0  0  0  0  0  0  0  0
  -44.9447   58.4280   66.5345 C   0  0  0  0  0  0  0  0  0  0  0  0
  -45.7932   59.0683   65.4277 C   0  0  0  0  0  0  0  0  0  0  0  0
  -46.5234   58.0566   64.5256 C   0  0  0  0  0  0  0  0  0  0  0  0
  -48.0371   57.9722   64.8208 C   0  0  0  0  0  0  0  0  0  0  0  0
  -48.8347   58.7687   63.7842 C   0  0  0  0  0  0  0  0  0  0  0  0
  -50.3491   58.6765   63.9258 C   0  0  0  0  0  0  0  0  0  0  0  0
  -51.0478   58.5437   62.5806 C   0  0  0  0  0  0  0  0  0  0  0  0
  -50.1344   58.4568   61.3557 C   0  0  0  0  0  0  0  0  0  0  0  0
  -50.4855   57.1888   60.5893 C   0  0  0  0  0  0  0  0  0  0  0  0
  -49.3549   56.3393   60.0277 C   0  0  0  0  0  0  0  0  0  0  0  0
  -48.9130   56.8544   58.6488 C   0  0  0  0  0  0  0  0  0  0  0  0
  -47.7154   57.8217   58.6822 C   0  0  0  0  0  0  0  0  0  0  0  0
  -46.4935   57.2458   59.3942 C   0  0  0  0  0  0  0  0  0  0  0  0
  -39.0576   57.6199   62.8405 O   0  0  0  0  0  0  0  0  0  0  0  0
  -39.1668   58.6300   61.8548 C   0  0  0  0  0  0  0  0  0  0  0  0
  -39.7475   57.7462   63.5106 H   0  0  0  0  0  0  0  0  0  0  0  0
  -38.1031   58.4881   60.7635 C   0  0  0  0  0  0  0  0  0  0  0  0
  -38.2960   58.8928   59.4965 C   0  0  0  0  0  0  0  0  0  0  0  0
  -37.1842   58.7155   58.4642 C   0  0  0  0  0  0  0  0  0  0  0  0
  -37.2707   57.3996   57.6772 C   0  0  0  0  0  0  0  0  0  0  0  0
  -36.0653   56.4531   57.8267 C   0  0  0  0  0  0  0  0  0  0  0  0
  -36.2664   55.4924   59.0234 C   0  0  0  0  0  0  0  0  0  0  0  0
  -35.5405   55.9018   60.3299 C   0  0  0  0  0  0  0  0  0  0  0  0
  -34.1971   56.6351   60.1050 C   0  0  0  0  0  0  0  0  0  0  0  0
  -33.3397   56.7588   61.3831 C   0  0  0  0  0  0  0  0  0  0  0  0
  -33.7859   57.8881   62.3194 C   0  0  0  0  0  0  0  0  0  0  0  0
  -32.6830   58.8151   62.8263 C   0  0  0  0  0  0  0  0  0  0  0  0
  -31.8333   59.4478   61.7065 C   0  0  0  0  0  0  0  0  0  0  0  0
  -30.4088   59.8526   62.1149 C   0  0  0  0  0  0  0  0  0  0  0  0
  -30.2070   61.3646   61.9805 C   0  0  0  0  0  0  0  0  0  0  0  0
  -31.4645   62.2036   61.8382 C   0  0  0  0  0  0  0  0  0  0  0  0
  -37.4907   60.4536   62.6856 C   0  0  0  0  0  0  0  0  0  0  0  0
  -37.3242   61.8511   63.0355 O   0  0  0  0  0  0  0  0  0  0  0  0
  -34.9864   63.0327   61.8886 O   0  0  0  0  0  0  0  0  0  0  0  0
  -35.2169   65.4911   65.2504 O   0  0  0  0  0  0  0  0  0  0  0  0
  -36.4901   62.7488   65.1294 O   0  0  0  0  0  0  0  0  0  0  0  0
  -36.1440   62.3156   63.7914 C   0  0  0  0  0  0  0  0  0  0  0  0
  -35.3495   63.4690   63.1621 C   0  0  0  0  0  0  0  0  0  0  0  0
  -34.0630   63.8310   63.9360 C   0  0  0  0  0  0  0  0  0  0  0  0
  -34.5042   64.2579   65.3089 C   0  0  0  0  0  0  0  0  0  0  0  0
  -35.3570   63.1698   65.9358 C   0  0  0  0  0  0  0  0  0  0  0  0
  -35.7833   62.8004   61.3869 H   0  0  0  0  0  0  0  0  0  0  0  0
  -34.6545   66.1708   64.8473 H   0  0  0  0  0  0  0  0  0  0  0  0
  -34.5601   64.3935   67.8281 O   0  0  0  0  0  0  0  0  0  0  0  0
  -35.6993   63.7964   67.2857 C   0  0  0  0  0  0  0  0  0  0  0  0
  -34.7801   64.7907   68.6853 H   0  0  0  0  0  0  0  0  0  0  0  0
  -33.2899   64.9300   63.4027 O   0  0  0  0  0  0  0  0  0  0  0  0
  -31.9525   66.5891   64.8778 O   0  0  0  0  0  0  0  0  0  0  0  0
  -30.9560   65.7281   62.8395 O   0  0  0  0  0  0  0  0  0  0  0  0
  -31.1311   64.3163   64.8017 O   0  0  0  0  0  0  0  0  0  0  0  0
  -31.8074   65.3829   64.0102 S   0  0  0  0  0  0  0  0  0  0  0  0
  -32.3917   67.2954   64.3787 H   0  0  0  0  0  0  0  0  0  0  0  0
  -31.6797   64.0850   65.5676 H   0  0  0  0  0  0  0  0  0  0  0  0
  2  1  1  0  0  0
  2  4  1  0  0  0
  2  5  1  0  0  0
 41 42  1  0  0  0
 41  1  1  0  0  0
 42 46  1  0  0  0
  1 24  1  0  0  0
 23 24  1  0  0  0
 23 25  1  0  0  0
 24 26  1  0  0  0
  3  4  2  0  0  0
 26 27  2  0  0  0
 27 28  1  0  0  0
 43 47  1  0  0  0
 43 51  1  0  0  0
 28 29  1  0  0  0
 56 48  1  0  0  0
 56 60  1  0  0  0
 29 30  1  0  0  0
 57 60  1  0  0  0
 57 61  1  0  0  0
 30 31  1  0  0  0
 44 49  1  0  0  0
 44 52  1  0  0  0
 31 32  1  0  0  0
 45 46  1  0  0  0
 45 50  1  0  0  0
 32 33  1  0  0  0
 53 54  1  0  0  0
 53 55  1  0  0  0
 33 34  1  0  0  0
 34 35  1  0  0  0
 35 36  1  0  0  0
 58 60  1  0  0  0
 36 37  1  0  0  0
 59 60  1  0  0  0
 59 62  1  0  0  0
 37 38  1  0  0  0
 38 39  1  0  0  0
 39 40  1  0  0  0
  4  6  1  0  0  0
  6  7  1  0  0  0
  7  8  1  0  0  0
  8  9  1  0  0  0
  9 10  1  0  0  0
 10 11  1  0  0  0
 11 12  1  0  0  0
 12 13  1  0  0  0
 13 14  1  0  0  0
 14 15  1  0  0  0
 15 16  1  0  0  0
 16 17  1  0  0  0
 17 18  1  0  0  0
 18 19  1  0  0  0
 19 20  1  0  0  0
 20 21  1  0  0  0
 21 22  1  0  0  0
 46 47  1  0  0  0
 47 48  1  0  0  0
 48 49  1  0  0  0
 49 50  1  0  0  0
 50 54  1  0  0  0
M  CHG 1  58  -1
M  END
> <minimizedAffinity>
-9.53201

> <CNNscore>
0.6526291966

> <CNNaffinity>
7.3582053185

> <CNN_VS>
4.8021798134

> <CNNaffinity_variance>
1.0364391804

$$$$
/media/chris/experiments/cd1a-new-docking/inputs/ligands/1onq_ligand.pdb


 62 62  0  0  0  0  0  0  0  0999 V2000
  -37.2155   59.2894   62.3747 C   0  0  0  0  0  0  0  0  0  0  0  0
  -38.5279   59.1868   62.9815 N   0  0  0  0  0  0  0  0  0  0  0  0
  -38.7103   61.1760   64.0573 O   0  0  0  0  0  0  0  0  0  0  0  0
  -39.1584   60.0901   63.7445 C   0  0  0  0  0  0  0  0  0  0  0  0
  -39.0169   58.3493   62.8121 H   0  0  0  0  0  0  0  0  0  0  0  0
  -40.5231   59.6846   64.2168 C   0  0  0  0  0  0  0  0  0  0  0  0
  -40.3849   59.3450   65.7009 C   0  0  0  0  0  0  0  0  0  0  0  0
  -41.4319   60.1066   66.5101 C   0  0  0  0  0  0  0  0  0  0  0  0
  -42.4446   59.2629   67.2456 C   0  0  0  0  0  0  0  0  0  0  0  0
  -42.3525   57.8450   66.6916 C   0  0  0  0  0  0  0  0  0  0  0  0
  -43.6844   57.3456   66.1160 C   0  0  0  0  0  0  0  0  0  0  0  0
  -44.2282   58.1944   64.9523 C   0  0  0  0  0  0  0  0  0  0  0  0
  -45.6728   57.8164   64.5573 C   0  0  0  0  0  0  0  0  0  0  0  0
  -46.2464   56.7838   65.5318 C   0  0  0  0  0  0  0  0  0  0  0  0
  -47.2588   57.3319   66.5302 C   0  0  0  0  0  0  0  0  0  0  0  0
  -47.1840   58.8465   66.6557 C   0  0  0  0  0  0  0  0  0  0  0  0
  -48.4543   59.6143   66.2829 C   0  0  0  0  0  0  0  0  0  0  0  0
  -48.1935   60.3628   64.9827 C   0  0  0  0  0  0  0  0  0  0  0  0
  -48.7240   59.7745   63.6836 C   0  0  0  0  0  0  0  0  0  0  0  0
  -49.8434   58.7576   63.9572 C   0  0  0  0  0  0  0  0  0  0  0  0
  -51.1661   59.0517   63.2261 C   0  0  0  0  0  0  0  0  0  0  0  0
  -51.8885   60.2874   63.7580 C   0  0  0  0  0  0  0  0  0  0  0  0
  -36.0612   58.2804   60.6296 O   0  0  0  0  0  0  0  0  0  0  0  0
  -37.3823   58.4968   61.0896 C   0  0  0  0  0  0  0  0  0  0  0  0
  -35.5709   57.7620   61.2868 H   0  0  0  0  0  0  0  0  0  0  0  0
  -38.2128   59.3119   60.0954 C   0  0  0  0  0  0  0  0  0  0  0  0
  -39.5446   59.4579   60.2010 C   0  0  0  0  0  0  0  0  0  0  0  0
  -40.3028   60.2875   59.1665 C   0  0  0  0  0  0  0  0  0  0  0  0
  -41.6552   59.6858   58.7574 C   0  0  0  0  0  0  0  0  0  0  0  0
  -41.7540   59.1977   57.3003 C   0  0  0  0  0  0  0  0  0  0  0  0
  -43.1335   58.5502   57.0303 C   0  0  0  0  0  0  0  0  0  0  0  0
  -44.1289   58.5942   58.2172 C   0  0  0  0  0  0  0  0  0  0  0  0
  -45.1850   57.4640   58.2004 C   0  0  0  0  0  0  0  0  0  0  0  0
  -46.5206   57.8767   57.5449 C   0  0  0  0  0  0  0  0  0  0  0  0
  -47.1357   56.7880   56.6574 C   0  0  0  0  0  0  0  0  0  0  0  0
  -48.5464   56.3362   57.0293 C   0  0  0  0  0  0  0  0  0  0  0  0
  -48.8123   56.3001   58.5472 C   0  0  0  0  0  0  0  0  0  0  0  0
  -49.7960   57.3604   59.0649 C   0  0  0  0  0  0  0  0  0  0  0  0
  -49.3467   57.9116   60.4211 C   0  0  0  0  0  0  0  0  0  0  0  0
  -47.9127   57.6208   60.8266 C   0  0  0  0  0  0  0  0  0  0  0  0
  -36.0285   58.9042   63.2865 C   0  0  0  0  0  0  0  0  0  0  0  0
  -34.8062   59.6658   63.1158 O   0  0  0  0  0  0  0  0  0  0  0  0
  -33.0048   61.7993   62.4993 O   0  0  0  0  0  0  0  0  0  0  0  0
  -35.8599   64.0896   64.4997 O   0  0  0  0  0  0  0  0  0  0  0  0
  -35.5596   61.1076   64.9156 O   0  0  0  0  0  0  0  0  0  0  0  0
  -34.4707   60.7868   64.0162 C   0  0  0  0  0  0  0  0  0  0  0  0
  -34.0775   62.1058   63.3355 C   0  0  0  0  0  0  0  0  0  0  0  0
  -33.6244   63.2028   64.3236 C   0  0  0  0  0  0  0  0  0  0  0  0
  -34.7994   63.4699   65.2233 C   0  0  0  0  0  0  0  0  0  0  0  0
  -35.2648   62.1725   65.8592 C   0  0  0  0  0  0  0  0  0  0  0  0
  -33.2714   61.1105   61.8706 H   0  0  0  0  0  0  0  0  0  0  0  0
  -35.5412   64.9151   64.1025 H   0  0  0  0  0  0  0  0  0  0  0  0
  -36.0809   62.6642   68.0514 O   0  0  0  0  0  0  0  0  0  0  0  0
  -36.4420   62.6565   66.7030 C   0  0  0  0  0  0  0  0  0  0  0  0
  -36.8302   62.9719   68.5851 H   0  0  0  0  0  0  0  0  0  0  0  0
  -33.2688   64.4760   63.7384 O   0  0  0  0  0  0  0  0  0  0  0  0
  -33.1653   66.5134   65.3371 O   0  0  0  0  0  0  0  0  0  0  0  0
  -31.6484   66.3970   63.4464 O   0  0  0  0  0  0  0  0  0  0  0  0
  -31.2765   65.0050   65.3953 O   0  0  0  0  0  0  0  0  0  0  0  0
  -32.3177   65.6025   64.5120 S   0  0  0  0  0  0  0  0  0  0  0  0
  -33.8502   66.9124   64.7780 H   0  0  0  0  0  0  0  0  0  0  0  0
  -31.7044   64.4850   66.0935 H   0  0  0  0  0  0  0  0  0  0  0  0
  2  1  1  0  0  0
  2  4  1  0  0  0
  2  5  1  0  0  0
 41 42  1  0  0  0
 41  1  1  0  0  0
 42 46  1  0  0  0
  1 24  1  0  0  0
 23 24  1  0  0  0
 23 25  1  0  0  0
 24 26  1  0  0  0
  3  4  2  0  0  0
 26 27  2  0  0  0
 27 28  1  0  0  0
 43 47  1  0  0  0
 43 51  1  0  0  0
 28 29  1  0  0  0
 56 48  1  0  0  0
 56 60  1  0  0  0
 29 30  1  0  0  0
 57 60  1  0  0  0
 57 61  1  0  0  0
 30 31  1  0  0  0
 44 49  1  0  0  0
 44 52  1  0  0  0
 31 32  1  0  0  0
 45 46  1  0  0  0
 45 50  1  0  0  0
 32 33  1  0  0  0
 53 54  1  0  0  0
 53 55  1  0  0  0
 33 34  1  0  0  0
 34 35  1  0  0  0
 35 36  1  0  0  0
 58 60  1  0  0  0
 36 37  1  0  0  0
 59 60  1  0  0  0
 59 62  1  0  0  0
 37 38  1  0  0  0
 38 39  1  0  0  0
 39 40  1  0  0  0
  4  6  1  0  0  0
  6  7  1  0  0  0
  7  8  1  0  0  0
  8  9  1  0  0  0
  9 10  1  0  0  0
 10 11  1  0  0  0
 11 12  1  0  0  0
 12 13  1  0  0  0
 13 14  1  0  0  0
 14 15  1  0  0  0
 15 16  1  0  0  0
 16 17  1  0  0  0
 17 18  1  0  0  0
 18 19  1  0  0  0
 19 20  1  0  0  0
 20 21  1  0  0  0
 21 22  1  0  0  0
 46 47  1  0  0  0
 47 48  1  0  0  0
 48 49  1  0  0  0
 49 50  1  0  0  0
 50 54  1  0  0  0
M  CHG 1  58  -1
M  END
> <minimizedAffinity>
-8.75908

> <CNNscore>
0.4058713913

> <CNNaffinity>
7.2149171829

> <CNN_VS>
2.9283285141

> <CNNaffinity_variance>
0.7546804547

$$$$
/media/chris/experiments/cd1a-new-docking/inputs/ligands/1onq_ligand.pdb


 62 62  0  0  0  0  0  0  0  0999 V2000
  -38.6735   60.3971   61.5328 C   0  0  0  0  0  0  0  0  0  0  0  0
  -39.9169   60.4508   62.2759 N   0  0  0  0  0  0  0  0  0  0  0  0
  -39.2177   61.1369   64.3224 O   0  0  0  0  0  0  0  0  0  0  0  0
  -40.0996   60.7992   63.5569 C   0  0  0  0  0  0  0  0  0  0  0  0
  -40.7281   60.1999   61.7776 H   0  0  0  0  0  0  0  0  0  0  0  0
  -41.5220   60.7607   64.0315 C   0  0  0  0  0  0  0  0  0  0  0  0
  -41.7055   59.4199   64.7425 C   0  0  0  0  0  0  0  0  0  0  0  0
  -41.6979   59.6262   66.2553 C   0  0  0  0  0  0  0  0  0  0  0  0
  -42.4864   58.6259   67.0652 C   0  0  0  0  0  0  0  0  0  0  0  0
  -43.1563   57.6666   66.0870 C   0  0  0  0  0  0  0  0  0  0  0  0
  -44.6346   57.4199   66.4166 C   0  0  0  0  0  0  0  0  0  0  0  0
  -45.5098   58.6861   66.3826 C   0  0  0  0  0  0  0  0  0  0  0  0
  -46.9777   58.4122   66.7774 C   0  0  0  0  0  0  0  0  0  0  0  0
  -47.5863   57.3326   65.8780 C   0  0  0  0  0  0  0  0  0  0  0  0
  -48.5388   57.8479   64.8059 C   0  0  0  0  0  0  0  0  0  0  0  0
  -49.9249   58.1443   65.3593 C   0  0  0  0  0  0  0  0  0  0  0  0
  -50.7888   59.0974   64.5301 C   0  0  0  0  0  0  0  0  0  0  0  0
  -50.7057   58.6679   63.0716 C   0  0  0  0  0  0  0  0  0  0  0  0
  -50.1065   59.6337   62.0599 C   0  0  0  0  0  0  0  0  0  0  0  0
  -49.7017   58.8994   60.7719 C   0  0  0  0  0  0  0  0  0  0  0  0
  -49.0069   57.5445   61.0006 C   0  0  0  0  0  0  0  0  0  0  0  0
  -49.6520   56.3967   60.2274 C   0  0  0  0  0  0  0  0  0  0  0  0
  -38.8737   58.0942   61.7618 O   0  0  0  0  0  0  0  0  0  0  0  0
  -38.8043   59.0944   60.7625 C   0  0  0  0  0  0  0  0  0  0  0  0
  -39.6577   58.2423   62.3135 H   0  0  0  0  0  0  0  0  0  0  0  0
  -37.5853   58.9181   59.8540 C   0  0  0  0  0  0  0  0  0  0  0  0
  -37.6248   58.2267   58.7022 C   0  0  0  0  0  0  0  0  0  0  0  0
  -36.3635   58.0954   57.8506 C   0  0  0  0  0  0  0  0  0  0  0  0
  -35.7243   56.6999   57.8975 C   0  0  0  0  0  0  0  0  0  0  0  0
  -34.2127   56.6686   58.1895 C   0  0  0  0  0  0  0  0  0  0  0  0
  -33.9072   55.7648   59.4081 C   0  0  0  0  0  0  0  0  0  0  0  0
  -34.1812   56.4053   60.7924 C   0  0  0  0  0  0  0  0  0  0  0  0
  -32.9515   56.4367   61.7303 C   0  0  0  0  0  0  0  0  0  0  0  0
  -32.5919   57.8527   62.2300 C   0  0  0  0  0  0  0  0  0  0  0  0
  -33.8128   58.7297   62.5321 C   0  0  0  0  0  0  0  0  0  0  0  0
  -34.0843   59.0175   64.0072 C   0  0  0  0  0  0  0  0  0  0  0  0
  -35.5013   58.6260   64.4709 C   0  0  0  0  0  0  0  0  0  0  0  0
  -35.9089   57.1744   64.1763 C   0  0  0  0  0  0  0  0  0  0  0  0
  -37.3413   56.8999   64.6432 C   0  0  0  0  0  0  0  0  0  0  0  0
  -38.1149   58.0895   65.1836 C   0  0  0  0  0  0  0  0  0  0  0  0
  -37.3887   60.5902   62.3700 C   0  0  0  0  0  0  0  0  0  0  0  0
  -36.8610   61.9389   62.4458 O   0  0  0  0  0  0  0  0  0  0  0  0
  -34.5053   63.3448   61.6387 O   0  0  0  0  0  0  0  0  0  0  0  0
  -34.9106   65.1185   65.3922 O   0  0  0  0  0  0  0  0  0  0  0  0
  -36.1241   62.4336   64.7036 O   0  0  0  0  0  0  0  0  0  0  0  0
  -35.7194   62.2661   63.3232 C   0  0  0  0  0  0  0  0  0  0  0  0
  -34.9247   63.5274   62.9559 C   0  0  0  0  0  0  0  0  0  0  0  0
  -33.6756   63.7519   63.8360 C   0  0  0  0  0  0  0  0  0  0  0  0
  -34.1764   63.9054   65.2456 C   0  0  0  0  0  0  0  0  0  0  0  0
  -35.0307   62.7080   65.6205 C   0  0  0  0  0  0  0  0  0  0  0  0
  -35.2781   63.2021   61.0702 H   0  0  0  0  0  0  0  0  0  0  0  0
  -34.3469   65.8692   65.1479 H   0  0  0  0  0  0  0  0  0  0  0  0
  -36.3572   62.1270   67.5221 O   0  0  0  0  0  0  0  0  0  0  0  0
  -35.4359   63.0631   67.0494 C   0  0  0  0  0  0  0  0  0  0  0  0
  -36.6130   62.3548   68.4297 H   0  0  0  0  0  0  0  0  0  0  0  0
  -32.9047   64.9413   63.5517 O   0  0  0  0  0  0  0  0  0  0  0  0
  -31.0139   66.2801   62.3897 O   0  0  0  0  0  0  0  0  0  0  0  0
  -31.5414   64.0397   61.6204 O   0  0  0  0  0  0  0  0  0  0  0  0
  -30.3280   64.3628   63.6935 O   0  0  0  0  0  0  0  0  0  0  0  0
  -31.4083   64.9068   62.8226 S   0  0  0  0  0  0  0  0  0  0  0  0
  -31.7064   66.6511   61.8209 H   0  0  0  0  0  0  0  0  0  0  0  0
  -30.2343   64.9225   64.4802 H   0  0  0  0  0  0  0  0  0  0  0  0
  2  1  1  0  0  0
  2  4  1  0  0  0
  2  5  1  0  0  0
 41 42  1  0  0  0
 41  1  1  0  0  0
 42 46  1  0  0  0
  1 24  1  0  0  0
 23 24  1  0  0  0
 23 25  1  0  0  0
 24 26  1  0  0  0
  3  4  2  0  0  0
 26 27  2  0  0  0
 27 28  1  0  0  0
 43 47  1  0  0  0
 43 51  1  0  0  0
 28 29  1  0  0  0
 56 48  1  0  0  0
 56 60  1  0  0  0
 29 30  1  0  0  0
 57 60  1  0  0  0
 57 61  1  0  0  0
 30 31  1  0  0  0
 44 49  1  0  0  0
 44 52  1  0  0  0
 31 32  1  0  0  0
 45 46  1  0  0  0
 45 50  1  0  0  0
 32 33  1  0  0  0
 53 54  1  0  0  0
 53 55  1  0  0  0
 33 34  1  0  0  0
 34 35  1  0  0  0
 35 36  1  0  0  0
 58 60  1  0  0  0
 36 37  1  0  0  0
 59 60  1  0  0  0
 59 62  1  0  0  0
 37 38  1  0  0  0
 38 39  1  0  0  0
 39 40  1  0  0  0
  4  6  1  0  0  0
  6  7  1  0  0  0
  7  8  1  0  0  0
  8  9  1  0  0  0
  9 10  1  0  0  0
 10 11  1  0  0  0
 11 12  1  0  0  0
 12 13  1  0  0  0
 13 14  1  0  0  0
 14 15  1  0  0  0
 15 16  1  0  0  0
 16 17  1  0  0  0
 17 18  1  0  0  0
 18 19  1  0  0  0
 19 20  1  0  0  0
 20 21  1  0  0  0
 21 22  1  0  0  0
 46 47  1  0  0  0
 47 48  1  0  0  0
 48 49  1  0  0  0
 49 50  1  0  0  0
 50 54  1  0  0  0
M  CHG 1  58  -1
M  END
> <minimizedAffinity>
-9.27588

> <CNNscore>
0.4058491886

> <CNNaffinity>
7.2251520157

> <CNN_VS>
2.9323220253

> <CNNaffinity_variance>
1.1137834787

$$$$
/media/chris/experiments/cd1a-new-docking/inputs/ligands/1onq_ligand.pdb


 62 62  0  0  0  0  0  0  0  0999 V2000
  -37.5068   60.6779   65.1753 C   0  0  0  0  0  0  0  0  0  0  0  0
  -38.6657   60.0664   65.7951 N   0  0  0  0  0  0  0  0  0  0  0  0
  -40.3558   60.8048   64.4738 O   0  0  0  0  0  0  0  0  0  0  0  0
  -39.9495   60.1642   65.4237 C   0  0  0  0  0  0  0  0  0  0  0  0
  -38.4875   59.5102   66.5876 H   0  0  0  0  0  0  0  0  0  0  0  0
  -40.9194   59.3986   66.2740 C   0  0  0  0  0  0  0  0  0  0  0  0
  -41.8509   58.6612   65.3119 C   0  0  0  0  0  0  0  0  0  0  0  0
  -42.5824   57.5420   66.0490 C   0  0  0  0  0  0  0  0  0  0  0  0
  -44.0794   57.4924   65.8622 C   0  0  0  0  0  0  0  0  0  0  0  0
  -44.4637   58.6262   64.9174 C   0  0  0  0  0  0  0  0  0  0  0  0
  -45.5652   59.5280   65.4904 C   0  0  0  0  0  0  0  0  0  0  0  0
  -46.6348   58.7790   66.3062 C   0  0  0  0  0  0  0  0  0  0  0  0
  -48.0728   59.0777   65.8283 C   0  0  0  0  0  0  0  0  0  0  0  0
  -48.0817   60.2498   64.8427 C   0  0  0  0  0  0  0  0  0  0  0  0
  -48.9953   60.0710   63.6362 C   0  0  0  0  0  0  0  0  0  0  0  0
  -50.4548   59.9114   64.0358 C   0  0  0  0  0  0  0  0  0  0  0  0
  -51.3468   59.1700   63.0373 C   0  0  0  0  0  0  0  0  0  0  0  0
  -50.4493   58.4763   62.0214 C   0  0  0  0  0  0  0  0  0  0  0  0
  -51.0669   57.4488   61.0843 C   0  0  0  0  0  0  0  0  0  0  0  0
  -49.9801   56.5988   60.4074 C   0  0  0  0  0  0  0  0  0  0  0  0
  -49.4643   57.1668   59.0724 C   0  0  0  0  0  0  0  0  0  0  0  0
  -47.9424   57.1385   58.9517 C   0  0  0  0  0  0  0  0  0  0  0  0
  -35.3830   59.8726   64.6887 O   0  0  0  0  0  0  0  0  0  0  0  0
  -36.7414   59.4766   64.6475 C   0  0  0  0  0  0  0  0  0  0  0  0
  -35.1288   60.0607   65.6057 H   0  0  0  0  0  0  0  0  0  0  0  0
  -37.2080   59.1639   63.2237 C   0  0  0  0  0  0  0  0  0  0  0  0
  -37.8257   58.0175   62.8912 C   0  0  0  0  0  0  0  0  0  0  0  0
  -38.2605   57.7796   61.4464 C   0  0  0  0  0  0  0  0  0  0  0  0
  -38.9614   58.9844   60.8017 C   0  0  0  0  0  0  0  0  0  0  0  0
  -38.4902   59.3483   59.3817 C   0  0  0  0  0  0  0  0  0  0  0  0
  -37.1630   58.6283   59.0420 C   0  0  0  0  0  0  0  0  0  0  0  0
  -37.2217   57.6723   57.8238 C   0  0  0  0  0  0  0  0  0  0  0  0
  -36.2744   56.4538   57.9286 C   0  0  0  0  0  0  0  0  0  0  0  0
  -34.7781   56.8265   57.8517 C   0  0  0  0  0  0  0  0  0  0  0  0
  -34.0147   56.5911   59.1605 C   0  0  0  0  0  0  0  0  0  0  0  0
  -34.8409   56.0723   60.3356 C   0  0  0  0  0  0  0  0  0  0  0  0
  -34.2863   56.4740   61.7165 C   0  0  0  0  0  0  0  0  0  0  0  0
  -33.9927   57.9715   61.8939 C   0  0  0  0  0  0  0  0  0  0  0  0
  -32.6033   58.1915   62.4989 C   0  0  0  0  0  0  0  0  0  0  0  0
  -31.7719   59.3080   61.8925 C   0  0  0  0  0  0  0  0  0  0  0  0
  -36.7245   61.6726   66.0626 C   0  0  0  0  0  0  0  0  0  0  0  0
  -36.3358   62.9256   65.4443 O   0  0  0  0  0  0  0  0  0  0  0  0
  -34.7860   62.4344   63.0919 O   0  0  0  0  0  0  0  0  0  0  0  0
  -33.2286   66.2043   63.9643 O   0  0  0  0  0  0  0  0  0  0  0  0
  -34.5457   64.4481   66.0468 O   0  0  0  0  0  0  0  0  0  0  0  0
  -34.9142   63.2838   65.2684 C   0  0  0  0  0  0  0  0  0  0  0  0
  -34.4634   63.5728   63.8293 C   0  0  0  0  0  0  0  0  0  0  0  0
  -32.9458   63.8249   63.6935 C   0  0  0  0  0  0  0  0  0  0  0  0
  -32.6437   65.0353   64.5332 C   0  0  0  0  0  0  0  0  0  0  0  0
  -33.1432   64.8156   65.9496 C   0  0  0  0  0  0  0  0  0  0  0  0
  -35.7374   62.2602   63.1656 H   0  0  0  0  0  0  0  0  0  0  0  0
  -32.8962   66.3253   63.0611 H   0  0  0  0  0  0  0  0  0  0  0  0
  -32.9379   66.0372   67.9939 O   0  0  0  0  0  0  0  0  0  0  0  0
  -32.7551   66.1350   66.6134 C   0  0  0  0  0  0  0  0  0  0  0  0
  -32.6909   66.8763   68.4131 H   0  0  0  0  0  0  0  0  0  0  0  0
  -32.4700   64.1299   62.3629 O   0  0  0  0  0  0  0  0  0  0  0  0
  -30.5865   65.0178   60.8197 O   0  0  0  0  0  0  0  0  0  0  0  0
  -30.6176   62.6726   61.4430 O   0  0  0  0  0  0  0  0  0  0  0  0
  -29.9252   64.3516   63.0479 O   0  0  0  0  0  0  0  0  0  0  0  0
  -30.8643   64.0576   61.9286 S   0  0  0  0  0  0  0  0  0  0  0  0
  -31.1895   64.8414   60.0807 H   0  0  0  0  0  0  0  0  0  0  0  0
  -30.0792   65.2533   63.3708 H   0  0  0  0  0  0  0  0  0  0  0  0
  2  1  1  0  0  0
  2  4  1  0  0  0
  2  5  1  0  0  0
 41 42  1  0  0  0
 41  1  1  0  0  0
 42 46  1  0  0  0
  1 24  1  0  0  0
 23 24  1  0  0  0
 23 25  1  0  0  0
 24 26  1  0  0  0
  3  4  2  0  0  0
 26 27  2  0  0  0
 27 28  1  0  0  0
 43 47  1  0  0  0
 43 51  1  0  0  0
 28 29  1  0  0  0
 56 48  1  0  0  0
 56 60  1  0  0  0
 29 30  1  0  0  0
 57 60  1  0  0  0
 57 61  1  0  0  0
 30 31  1  0  0  0
 44 49  1  0  0  0
 44 52  1  0  0  0
 31 32  1  0  0  0
 45 46  1  0  0  0
 45 50  1  0  0  0
 32 33  1  0  0  0
 53 54  1  0  0  0
 53 55  1  0  0  0
 33 34  1  0  0  0
 34 35  1  0  0  0
 35 36  1  0  0  0
 58 60  1  0  0  0
 36 37  1  0  0  0
 59 60  1  0  0  0
 59 62  1  0  0  0
 37 38  1  0  0  0
 38 39  1  0  0  0
 39 40  1  0  0  0
  4  6  1  0  0  0
  6  7  1  0  0  0
  7  8  1  0  0  0
  8  9  1  0  0  0
  9 10  1  0  0  0
 10 11  1  0  0  0
 11 12  1  0  0  0
 12 13  1  0  0  0
 13 14  1  0  0  0
 14 15  1  0  0  0
 15 16  1  0  0  0
 16 17  1  0  0  0
 17 18  1  0  0  0
 18 19  1  0  0  0
 19 20  1  0  0  0
 20 21  1  0  0  0
 21 22  1  0  0  0
 46 47  1  0  0  0
 47 48  1  0  0  0
 48 49  1  0  0  0
 49 50  1  0  0  0
 50 54  1  0  0  0
M  CHG 1  58  -1
M  END
> <minimizedAffinity>
-9.86443

> <CNNscore>
0.3792823553

> <CNNaffinity>
7.0134735107

> <CNN_VS>
2.6600868702

> <CNNaffinity_variance>
0.9080481529

$$$$
/media/chris/experiments/cd1a-new-docking/inputs/ligands/1onq_ligand.pdb


 62 62  0  0  0  0  0  0  0  0999 V2000
  -40.1319   58.8125   64.7128 C   0  0  0  0  0  0  0  0  0  0  0  0
  -41.1724   58.2378   65.5424 N   0  0  0  0  0  0  0  0  0  0  0  0
  -43.0079   59.3869   64.8656 O   0  0  0  0  0  0  0  0  0  0  0  0
  -42.4763   58.5461   65.5644 C   0  0  0  0  0  0  0  0  0  0  0  0
  -40.8855   57.5335   66.1675 H   0  0  0  0  0  0  0  0  0  0  0  0
  -43.3015   57.7583   66.5382 C   0  0  0  0  0  0  0  0  0  0  0  0
  -44.1623   56.8072   65.7068 C   0  0  0  0  0  0  0  0  0  0  0  0
  -45.6416   57.1105   65.9322 C   0  0  0  0  0  0  0  0  0  0  0  0
  -46.3382   57.8716   64.8305 C   0  0  0  0  0  0  0  0  0  0  0  0
  -46.6594   59.2637   65.3641 C   0  0  0  0  0  0  0  0  0  0  0  0
  -48.1649   59.4933   65.5535 C   0  0  0  0  0  0  0  0  0  0  0  0
  -49.0379   58.2696   65.2207 C   0  0  0  0  0  0  0  0  0  0  0  0
  -50.4907   58.6490   64.8589 C   0  0  0  0  0  0  0  0  0  0  0  0
  -50.6039   58.9959   63.3717 C   0  0  0  0  0  0  0  0  0  0  0  0
  -50.0191   57.9583   62.4211 C   0  0  0  0  0  0  0  0  0  0  0  0
  -50.9865   57.5857   61.3073 C   0  0  0  0  0  0  0  0  0  0  0  0
  -50.3678   57.3767   59.9231 C   0  0  0  0  0  0  0  0  0  0  0  0
  -48.9293   57.8742   59.9649 C   0  0  0  0  0  0  0  0  0  0  0  0
  -47.8125   56.9078   59.5987 C   0  0  0  0  0  0  0  0  0  0  0  0
  -46.7604   57.5937   58.7129 C   0  0  0  0  0  0  0  0  0  0  0  0
  -46.8302   57.2083   57.2238 C   0  0  0  0  0  0  0  0  0  0  0  0
  -47.5698   55.8962   56.9735 C   0  0  0  0  0  0  0  0  0  0  0  0
  -38.0891   57.8407   65.2406 O   0  0  0  0  0  0  0  0  0  0  0  0
  -39.2327   57.6198   64.4362 C   0  0  0  0  0  0  0  0  0  0  0  0
  -38.3498   57.8597   66.1748 H   0  0  0  0  0  0  0  0  0  0  0  0
  -38.8897   57.5786   62.9452 C   0  0  0  0  0  0  0  0  0  0  0  0
  -37.7101   57.1358   62.4775 C   0  0  0  0  0  0  0  0  0  0  0  0
  -37.4435   57.1270   60.9735 C   0  0  0  0  0  0  0  0  0  0  0  0
  -38.0547   58.3217   60.2269 C   0  0  0  0  0  0  0  0  0  0  0  0
  -37.3565   58.7136   58.9116 C   0  0  0  0  0  0  0  0  0  0  0  0
  -37.5104   57.5947   57.8535 C   0  0  0  0  0  0  0  0  0  0  0  0
  -36.3175   56.6106   57.7527 C   0  0  0  0  0  0  0  0  0  0  0  0
  -34.9304   57.2796   57.8990 C   0  0  0  0  0  0  0  0  0  0  0  0
  -33.8743   56.3719   58.5660 C   0  0  0  0  0  0  0  0  0  0  0  0
  -34.4138   55.5664   59.7540 C   0  0  0  0  0  0  0  0  0  0  0  0
  -34.0292   56.0766   61.1411 C   0  0  0  0  0  0  0  0  0  0  0  0
  -33.5684   57.5474   61.1615 C   0  0  0  0  0  0  0  0  0  0  0  0
  -33.0947   58.0663   62.5277 C   0  0  0  0  0  0  0  0  0  0  0  0
  -34.2435   58.7299   63.2923 C   0  0  0  0  0  0  0  0  0  0  0  0
  -34.6902   58.0423   64.5703 C   0  0  0  0  0  0  0  0  0  0  0  0
  -39.4566   60.0832   65.2768 C   0  0  0  0  0  0  0  0  0  0  0  0
  -38.7279   60.9048   64.3297 O   0  0  0  0  0  0  0  0  0  0  0  0
  -36.6830   61.2047   62.3535 O   0  0  0  0  0  0  0  0  0  0  0  0
  -35.6922   64.5495   64.6403 O   0  0  0  0  0  0  0  0  0  0  0  0
  -37.2495   62.2037   65.7484 O   0  0  0  0  0  0  0  0  0  0  0  0
  -37.3397   61.3315   64.5957 C   0  0  0  0  0  0  0  0  0  0  0  0
  -36.6266   62.0640   63.4500 C   0  0  0  0  0  0  0  0  0  0  0  0
  -35.1435   62.3794   63.7434 C   0  0  0  0  0  0  0  0  0  0  0  0
  -35.1350   63.2749   64.9515 C   0  0  0  0  0  0  0  0  0  0  0  0
  -35.8971   62.6142   66.0860 C   0  0  0  0  0  0  0  0  0  0  0  0
  -37.6088   60.9952   62.1542 H   0  0  0  0  0  0  0  0  0  0  0  0
  -35.1911   64.9530   63.9144 H   0  0  0  0  0  0  0  0  0  0  0  0
  -34.4312   63.9479   67.4224 O   0  0  0  0  0  0  0  0  0  0  0  0
  -35.7781   63.6698   67.1831 C   0  0  0  0  0  0  0  0  0  0  0  0
  -34.3584   64.6185   68.1195 H   0  0  0  0  0  0  0  0  0  0  0  0
  -34.4302   63.0938   62.7087 O   0  0  0  0  0  0  0  0  0  0  0  0
  -32.3775   63.7210   61.2559 O   0  0  0  0  0  0  0  0  0  0  0  0
  -32.5057   61.5145   62.2580 O   0  0  0  0  0  0  0  0  0  0  0  0
  -31.9738   63.4447   63.6238 O   0  0  0  0  0  0  0  0  0  0  0  0
  -32.7875   62.9598   62.4731 S   0  0  0  0  0  0  0  0  0  0  0  0
  -32.8975   63.4185   60.4950 H   0  0  0  0  0  0  0  0  0  0  0  0
  -32.1514   64.3869   63.7711 H   0  0  0  0  0  0  0  0  0  0  0  0
  2  1  1  0  0  0
  2  4  1  0  0  0
  2  5  1  0  0  0
 41 42  1  0  0  0
 41  1  1  0  0  0
 42 46  1  0  0  0
  1 24  1  0  0  0
 23 24  1  0  0  0
 23 25  1  0  0  0
 24 26  1  0  0  0
  3  4  2  0  0  0
 26 27  2  0  0  0
 27 28  1  0  0  0
 43 47  1  0  0  0
 43 51  1  0  0  0
 28 29  1  0  0  0
 56 48  1  0  0  0
 56 60  1  0  0  0
 29 30  1  0  0  0
 57 60  1  0  0  0
 57 61  1  0  0  0
 30 31  1  0  0  0
 44 49  1  0  0  0
 44 52  1  0  0  0
 31 32  1  0  0  0
 45 46  1  0  0  0
 45 50  1  0  0  0
 32 33  1  0  0  0
 53 54  1  0  0  0
 53 55  1  0  0  0
 33 34  1  0  0  0
 34 35  1  0  0  0
 35 36  1  0  0  0
 58 60  1  0  0  0
 36 37  1  0  0  0
 59 60  1  0  0  0
 59 62  1  0  0  0
 37 38  1  0  0  0
 38 39  1  0  0  0
 39 40  1  0  0  0
  4  6  1  0  0  0
  6  7  1  0  0  0
  7  8  1  0  0  0
  8  9  1  0  0  0
  9 10  1  0  0  0
 10 11  1  0  0  0
 11 12  1  0  0  0
 12 13  1  0  0  0
 13 14  1  0  0  0
 14 15  1  0  0  0
 15 16  1  0  0  0
 16 17  1  0  0  0
 17 18  1  0  0  0
 18 19  1  0  0  0
 19 20  1  0  0  0
 20 21  1  0  0  0
 21 22  1  0  0  0
 46 47  1  0  0  0
 47 48  1  0  0  0
 48 49  1  0  0  0
 49 50  1  0  0  0
 50 54  1  0  0  0
M  CHG 1  58  -1
M  END
> <minimizedAffinity>
-10.44259

> <CNNscore>
0.3366629481

> <CNNaffinity>
7.1100311279

> <CNN_VS>
2.3936841488

> <CNNaffinity_variance>
1.4763425589

$$$$
/media/chris/experiments/cd1a-new-docking/inputs/ligands/1onq_ligand.pdb


 62 62  0  0  0  0  0  0  0  0999 V2000
  -36.3468   59.9193   64.4569 C   0  0  0  0  0  0  0  0  0  0  0  0
  -37.2075   59.4882   63.3732 N   0  0  0  0  0  0  0  0  0  0  0  0
  -37.2616   57.2402   63.6753 O   0  0  0  0  0  0  0  0  0  0  0  0
  -37.5898   58.2407   63.0678 C   0  0  0  0  0  0  0  0  0  0  0  0
  -37.5543   60.2005   62.7888 H   0  0  0  0  0  0  0  0  0  0  0  0
  -38.4995   58.1251   61.8808 C   0  0  0  0  0  0  0  0  0  0  0  0
  -37.6755   58.5389   60.6615 C   0  0  0  0  0  0  0  0  0  0  0  0
  -38.3676   59.6858   59.9288 C   0  0  0  0  0  0  0  0  0  0  0  0
  -39.8264   59.8964   60.2543 C   0  0  0  0  0  0  0  0  0  0  0  0
  -40.5457   60.2302   58.9515 C   0  0  0  0  0  0  0  0  0  0  0  0
  -41.8794   59.4859   58.8029 C   0  0  0  0  0  0  0  0  0  0  0  0
  -42.2548   59.1453   57.3491 C   0  0  0  0  0  0  0  0  0  0  0  0
  -43.6787   58.5614   57.2178 C   0  0  0  0  0  0  0  0  0  0  0  0
  -44.2975   58.3313   58.5995 C   0  0  0  0  0  0  0  0  0  0  0  0
  -45.5966   57.5348   58.5998 C   0  0  0  0  0  0  0  0  0  0  0  0
  -46.2767   57.5388   57.2386 C   0  0  0  0  0  0  0  0  0  0  0  0
  -47.4752   56.5997   57.0844 C   0  0  0  0  0  0  0  0  0  0  0  0
  -47.5365   55.7010   58.3121 C   0  0  0  0  0  0  0  0  0  0  0  0
  -48.6753   55.8959   59.3024 C   0  0  0  0  0  0  0  0  0  0  0  0
  -49.4927   57.1516   58.9601 C   0  0  0  0  0  0  0  0  0  0  0  0
  -49.9852   57.9461   60.1836 C   0  0  0  0  0  0  0  0  0  0  0  0
  -51.0748   57.2248   60.9735 C   0  0  0  0  0  0  0  0  0  0  0  0
  -36.3636   61.4880   66.1700 O   0  0  0  0  0  0  0  0  0  0  0  0
  -37.2164   60.9264   65.1896 C   0  0  0  0  0  0  0  0  0  0  0  0
  -35.6205   61.9344   65.7347 H   0  0  0  0  0  0  0  0  0  0  0  0
  -38.4137   60.2044   65.8121 C   0  0  0  0  0  0  0  0  0  0  0  0
  -39.6881   60.5062   65.5103 C   0  0  0  0  0  0  0  0  0  0  0  0
  -40.8291   59.7392   66.1758 C   0  0  0  0  0  0  0  0  0  0  0  0
  -41.5755   58.7890   65.2280 C   0  0  0  0  0  0  0  0  0  0  0  0
  -42.1098   57.4939   65.8671 C   0  0  0  0  0  0  0  0  0  0  0  0
  -43.4488   57.7542   66.5982 C   0  0  0  0  0  0  0  0  0  0  0  0
  -44.5803   58.3421   65.7175 C   0  0  0  0  0  0  0  0  0  0  0  0
  -45.5123   57.2785   65.0904 C   0  0  0  0  0  0  0  0  0  0  0  0
  -46.7705   56.9845   65.9358 C   0  0  0  0  0  0  0  0  0  0  0  0
  -47.2280   58.1691   66.7952 C   0  0  0  0  0  0  0  0  0  0  0  0
  -48.1348   59.1872   66.1068 C   0  0  0  0  0  0  0  0  0  0  0  0
  -49.5953   58.7199   65.9508 C   0  0  0  0  0  0  0  0  0  0  0  0
  -50.0156   58.3516   64.5198 C   0  0  0  0  0  0  0  0  0  0  0  0
  -50.4011   59.6002   63.7214 C   0  0  0  0  0  0  0  0  0  0  0  0
  -49.2996   60.2400   62.8949 C   0  0  0  0  0  0  0  0  0  0  0  0
  -34.9338   60.3861   64.0393 C   0  0  0  0  0  0  0  0  0  0  0  0
  -34.8642   61.3728   62.9787 O   0  0  0  0  0  0  0  0  0  0  0  0
  -34.4973   63.3124   65.0476 O   0  0  0  0  0  0  0  0  0  0  0  0
  -30.4600   62.6109   64.2691 O   0  0  0  0  0  0  0  0  0  0  0  0
  -32.6455   62.0374   62.2566 O   0  0  0  0  0  0  0  0  0  0  0  0
  -33.8345   62.4309   62.9839 C   0  0  0  0  0  0  0  0  0  0  0  0
  -33.3539   62.8993   64.3650 C   0  0  0  0  0  0  0  0  0  0  0  0
  -32.3671   64.0860   64.3088 C   0  0  0  0  0  0  0  0  0  0  0  0
  -31.1722   63.6031   63.5339 C   0  0  0  0  0  0  0  0  0  0  0  0
  -31.6176   63.0622   62.1874 C   0  0  0  0  0  0  0  0  0  0  0  0
  -35.1299   62.5785   65.0927 H   0  0  0  0  0  0  0  0  0  0  0  0
  -30.1853   62.9771   65.1243 H   0  0  0  0  0  0  0  0  0  0  0  0
  -30.2610   61.2360   61.4537 O   0  0  0  0  0  0  0  0  0  0  0  0
  -30.2849   62.6258   61.5828 C   0  0  0  0  0  0  0  0  0  0  0  0
  -29.4137   60.9614   61.0696 H   0  0  0  0  0  0  0  0  0  0  0  0
  -31.8604   64.5503   65.5806 O   0  0  0  0  0  0  0  0  0  0  0  0
  -31.6925   66.1488   67.6139 O   0  0  0  0  0  0  0  0  0  0  0  0
  -33.8719   65.3844   66.8687 O   0  0  0  0  0  0  0  0  0  0  0  0
  -32.6719   67.0673   65.6031 O   0  0  0  0  0  0  0  0  0  0  0  0
  -32.5249   65.8274   66.4169 S   0  0  0  0  0  0  0  0  0  0  0  0
  -31.5858   65.3521   68.1568 H   0  0  0  0  0  0  0  0  0  0  0  0
  -31.7978   67.3634   65.3042 H   0  0  0  0  0  0  0  0  0  0  0  0
  2  1  1  0  0  0
  2  4  1  0  0  0
  2  5  1  0  0  0
 41 42  1  0  0  0
 41  1  1  0  0  0
 42 46  1  0  0  0
  1 24  1  0  0  0
 23 24  1  0  0  0
 23 25  1  0  0  0
 24 26  1  0  0  0
  3  4  2  0  0  0
 26 27  2  0  0  0
 27 28  1  0  0  0
 43 47  1  0  0  0
 43 51  1  0  0  0
 28 29  1  0  0  0
 56 48  1  0  0  0
 56 60  1  0  0  0
 29 30  1  0  0  0
 57 60  1  0  0  0
 57 61  1  0  0  0
 30 31  1  0  0  0
 44 49  1  0  0  0
 44 52  1  0  0  0
 31 32  1  0  0  0
 45 46  1  0  0  0
 45 50  1  0  0  0
 32 33  1  0  0  0
 53 54  1  0  0  0
 53 55  1  0  0  0
 33 34  1  0  0  0
 34 35  1  0  0  0
 35 36  1  0  0  0
 58 60  1  0  0  0
 36 37  1  0  0  0
 59 60  1  0  0  0
 59 62  1  0  0  0
 37 38  1  0  0  0
 38 39  1  0  0  0
 39 40  1  0  0  0
  4  6  1  0  0  0
  6  7  1  0  0  0
  7  8  1  0  0  0
  8  9  1  0  0  0
  9 10  1  0  0  0
 10 11  1  0  0  0
 11 12  1  0  0  0
 12 13  1  0  0  0
 13 14  1  0  0  0
 14 15  1  0  0  0
 15 16  1  0  0  0
 16 17  1  0  0  0
 17 18  1  0  0  0
 18 19  1  0  0  0
 19 20  1  0  0  0
 20 21  1  0  0  0
 21 22  1  0  0  0
 46 47  1  0  0  0
 47 48  1  0  0  0
 48 49  1  0  0  0
 49 50  1  0  0  0
 50 54  1  0  0  0
M  CHG 1  58  -1
M  END
> <minimizedAffinity>
-8.50919

> <CNNscore>
0.3165538907

> <CNNaffinity>
6.7288618088

> <CNN_VS>
2.1300473213

> <CNNaffinity_variance>
0.6324083209

$$$$
/media/chris/experiments/cd1a-new-docking/inputs/ligands/1onq_ligand.pdb


 62 62  0  0  0  0  0  0  0  0999 V2000
  -37.6877   59.4641   60.3230 C   0  0  0  0  0  0  0  0  0  0  0  0
  -38.8086   59.8084   59.4709 N   0  0  0  0  0  0  0  0  0  0  0  0
  -40.4799   60.0963   60.9780 O   0  0  0  0  0  0  0  0  0  0  0  0
  -40.0677   60.0879   59.8344 C   0  0  0  0  0  0  0  0  0  0  0  0
  -38.6217   59.8409   58.5048 H   0  0  0  0  0  0  0  0  0  0  0  0
  -40.9991   60.4174   58.7058 C   0  0  0  0  0  0  0  0  0  0  0  0
  -41.7839   59.1405   58.4048 C   0  0  0  0  0  0  0  0  0  0  0  0
  -42.4846   59.2649   57.0540 C   0  0  0  0  0  0  0  0  0  0  0  0
  -43.6862   58.3754   56.8455 C   0  0  0  0  0  0  0  0  0  0  0  0
  -44.4435   58.3067   58.1674 C   0  0  0  0  0  0  0  0  0  0  0  0
  -45.9634   58.2152   57.9761 C   0  0  0  0  0  0  0  0  0  0  0  0
  -46.6365   57.0936   58.7881 C   0  0  0  0  0  0  0  0  0  0  0  0
  -47.7409   56.3592   57.9966 C   0  0  0  0  0  0  0  0  0  0  0  0
  -49.1284   56.8278   58.4441 C   0  0  0  0  0  0  0  0  0  0  0  0
  -49.1734   57.4941   59.8138 C   0  0  0  0  0  0  0  0  0  0  0  0
  -50.3730   57.0449   60.6352 C   0  0  0  0  0  0  0  0  0  0  0  0
  -50.9142   58.0610   61.6437 C   0  0  0  0  0  0  0  0  0  0  0  0
  -49.8198   59.0818   61.9245 C   0  0  0  0  0  0  0  0  0  0  0  0
  -49.7367   59.6985   63.3131 C   0  0  0  0  0  0  0  0  0  0  0  0
  -50.7780   59.0739   64.2552 C   0  0  0  0  0  0  0  0  0  0  0  0
  -50.2661   58.8004   65.6814 C   0  0  0  0  0  0  0  0  0  0  0  0
  -49.0637   57.8601   65.7216 C   0  0  0  0  0  0  0  0  0  0  0  0
  -38.1817   57.4581   61.3849 O   0  0  0  0  0  0  0  0  0  0  0  0
  -37.6185   57.9529   60.1843 C   0  0  0  0  0  0  0  0  0  0  0  0
  -39.1040   57.7506   61.4540 H   0  0  0  0  0  0  0  0  0  0  0  0
  -36.1588   57.5259   60.0132 C   0  0  0  0  0  0  0  0  0  0  0  0
  -35.6306   56.4585   60.6361 C   0  0  0  0  0  0  0  0  0  0  0  0
  -34.1631   56.0976   60.4139 C   0  0  0  0  0  0  0  0  0  0  0  0
  -33.2420   56.4969   61.5760 C   0  0  0  0  0  0  0  0  0  0  0  0
  -33.4607   57.9113   62.1441 C   0  0  0  0  0  0  0  0  0  0  0  0
  -33.1472   57.9491   63.6593 C   0  0  0  0  0  0  0  0  0  0  0  0
  -34.3739   58.1533   64.5839 C   0  0  0  0  0  0  0  0  0  0  0  0
  -35.7337   58.1301   63.8467 C   0  0  0  0  0  0  0  0  0  0  0  0
  -36.7900   57.2330   64.5275 C   0  0  0  0  0  0  0  0  0  0  0  0
  -37.9586   58.0124   65.1425 C   0  0  0  0  0  0  0  0  0  0  0  0
  -39.3469   57.6796   64.6001 C   0  0  0  0  0  0  0  0  0  0  0  0
  -40.2275   58.9163   64.3329 C   0  0  0  0  0  0  0  0  0  0  0  0
  -41.0582   59.3999   65.5312 C   0  0  0  0  0  0  0  0  0  0  0  0
  -42.4216   58.7038   65.5719 C   0  0  0  0  0  0  0  0  0  0  0  0
  -42.5635   57.5534   66.5527 C   0  0  0  0  0  0  0  0  0  0  0  0
  -37.7430   60.0342   61.7585 C   0  0  0  0  0  0  0  0  0  0  0  0
  -37.2947   61.4027   61.9302 O   0  0  0  0  0  0  0  0  0  0  0  0
  -35.5191   63.6437   61.9778 O   0  0  0  0  0  0  0  0  0  0  0  0
  -36.9145   64.0011   65.8924 O   0  0  0  0  0  0  0  0  0  0  0  0
  -37.0200   61.4056   64.3406 O   0  0  0  0  0  0  0  0  0  0  0  0
  -36.4409   61.7912   63.0704 C   0  0  0  0  0  0  0  0  0  0  0  0
  -36.1106   63.2860   63.1887 C   0  0  0  0  0  0  0  0  0  0  0  0
  -35.1208   63.6144   64.3278 C   0  0  0  0  0  0  0  0  0  0  0  0
  -35.7874   63.1776   65.6031 C   0  0  0  0  0  0  0  0  0  0  0  0
  -36.1964   61.7197   65.4958 C   0  0  0  0  0  0  0  0  0  0  0  0
  -36.1277   63.4442   61.2493 H   0  0  0  0  0  0  0  0  0  0  0  0
  -36.6309   64.9265   65.9565 H   0  0  0  0  0  0  0  0  0  0  0  0
  -36.1901   62.2491   67.8267 O   0  0  0  0  0  0  0  0  0  0  0  0
  -36.8474   61.4890   66.8577 C   0  0  0  0  0  0  0  0  0  0  0  0
  -36.6054   62.1008   68.6907 H   0  0  0  0  0  0  0  0  0  0  0  0
  -34.7959   65.0121   64.5026 O   0  0  0  0  0  0  0  0  0  0  0  0
  -32.2775   64.5466   64.1042 O   0  0  0  0  0  0  0  0  0  0  0  0
  -32.9640   65.8445   66.0364 O   0  0  0  0  0  0  0  0  0  0  0  0
  -33.0043   66.8357   63.8251 O   0  0  0  0  0  0  0  0  0  0  0  0
  -33.2341   65.5815   64.5968 S   0  0  0  0  0  0  0  0  0  0  0  0
  -32.4125   63.7214   64.5959 H   0  0  0  0  0  0  0  0  0  0  0  0
  -33.1781   66.6732   62.8847 H   0  0  0  0  0  0  0  0  0  0  0  0
  2  1  1  0  0  0
  2  4  1  0  0  0
  2  5  1  0  0  0
 41 42  1  0  0  0
 41  1  1  0  0  0
 42 46  1  0  0  0
  1 24  1  0  0  0
 23 24  1  0  0  0
 23 25  1  0  0  0
 24 26  1  0  0  0
  3  4  2  0  0  0
 26 27  2  0  0  0
 27 28  1  0  0  0
 43 47  1  0  0  0
 43 51  1  0  0  0
 28 29  1  0  0  0
 56 48  1  0  0  0
 56 60  1  0  0  0
 29 30  1  0  0  0
 57 60  1  0  0  0
 57 61  1  0  0  0
 30 31  1  0  0  0
 44 49  1  0  0  0
 44 52  1  0  0  0
 31 32  1  0  0  0
 45 46  1  0  0  0
 45 50  1  0  0  0
 32 33  1  0  0  0
 53 54  1  0  0  0
 53 55  1  0  0  0
 33 34  1  0  0  0
 34 35  1  0  0  0
 35 36  1  0  0  0
 58 60  1  0  0  0
 36 37  1  0  0  0
 59 60  1  0  0  0
 59 62  1  0  0  0
 37 38  1  0  0  0
 38 39  1  0  0  0
 39 40  1  0  0  0
  4  6  1  0  0  0
  6  7  1  0  0  0
  7  8  1  0  0  0
  8  9  1  0  0  0
  9 10  1  0  0  0
 10 11  1  0  0  0
 11 12  1  0  0  0
 12 13  1  0  0  0
 13 14  1  0  0  0
 14 15  1  0  0  0
 15 16  1  0  0  0
 16 17  1  0  0  0
 17 18  1  0  0  0
 18 19  1  0  0  0
 19 20  1  0  0  0
 20 21  1  0  0  0
 21 22  1  0  0  0
 46 47  1  0  0  0
 47 48  1  0  0  0
 48 49  1  0  0  0
 49 50  1  0  0  0
 50 54  1  0  0  0
M  CHG 1  58  -1
M  END
> <minimizedAffinity>
-8.95397

> <CNNscore>
0.2988956869

> <CNNaffinity>
6.8791379929

> <CNN_VS>
2.0561447144

> <CNNaffinity_variance>
1.0256887674

$$$$
/media/chris/experiments/cd1a-new-docking/inputs/ligands/1onq_ligand.pdb


 62 62  0  0  0  0  0  0  0  0999 V2000
  -35.2893   58.0245   61.7996 C   0  0  0  0  0  0  0  0  0  0  0  0
  -36.1466   57.5962   62.8871 N   0  0  0  0  0  0  0  0  0  0  0  0
  -37.2912   59.4957   63.3657 O   0  0  0  0  0  0  0  0  0  0  0  0
  -37.0460   58.3219   63.5653 C   0  0  0  0  0  0  0  0  0  0  0  0
  -36.0568   56.6551   63.1617 H   0  0  0  0  0  0  0  0  0  0  0  0
  -37.7864   57.5794   64.6379 C   0  0  0  0  0  0  0  0  0  0  0  0
  -39.2370   57.4713   64.1677 C   0  0  0  0  0  0  0  0  0  0  0  0
  -40.1169   58.4306   64.9657 C   0  0  0  0  0  0  0  0  0  0  0  0
  -40.7930   59.5242   64.1749 C   0  0  0  0  0  0  0  0  0  0  0  0
  -41.9363   60.0681   65.0252 C   0  0  0  0  0  0  0  0  0  0  0  0
  -41.8612   59.6050   66.4862 C   0  0  0  0  0  0  0  0  0  0  0  0
  -43.1730   59.0091   67.0288 C   0  0  0  0  0  0  0  0  0  0  0  0
  -43.9616   58.2206   65.9601 C   0  0  0  0  0  0  0  0  0  0  0  0
  -45.3992   58.7383   65.8586 C   0  0  0  0  0  0  0  0  0  0  0  0
  -46.3308   57.8908   65.0007 C   0  0  0  0  0  0  0  0  0  0  0  0
  -47.6911   57.6888   65.6519 C   0  0  0  0  0  0  0  0  0  0  0  0
  -48.9072   57.9319   64.7551 C   0  0  0  0  0  0  0  0  0  0  0  0
  -48.4080   58.3700   63.3849 C   0  0  0  0  0  0  0  0  0  0  0  0
  -49.3809   58.3546   62.2151 C   0  0  0  0  0  0  0  0  0  0  0  0
  -50.8317   58.2360   62.7082 C   0  0  0  0  0  0  0  0  0  0  0  0
  -51.5930   59.5725   62.7801 C   0  0  0  0  0  0  0  0  0  0  0  0
  -51.6193   60.1779   64.1816 C   0  0  0  0  0  0  0  0  0  0  0  0
  -34.6188   57.1802   59.7421 O   0  0  0  0  0  0  0  0  0  0  0  0
  -35.6727   57.0713   60.6808 C   0  0  0  0  0  0  0  0  0  0  0  0
  -33.7871   56.9007   60.1559 H   0  0  0  0  0  0  0  0  0  0  0  0
  -37.0181   57.4987   60.0894 C   0  0  0  0  0  0  0  0  0  0  0  0
  -37.2123   58.6897   59.4978 C   0  0  0  0  0  0  0  0  0  0  0  0
  -38.5867   59.0426   58.9323 C   0  0  0  0  0  0  0  0  0  0  0  0
  -39.4319   59.9278   59.8598 C   0  0  0  0  0  0  0  0  0  0  0  0
  -40.8725   60.2011   59.3897 C   0  0  0  0  0  0  0  0  0  0  0  0
  -41.2379   59.2994   58.1861 C   0  0  0  0  0  0  0  0  0  0  0  0
  -42.6124   59.5922   57.5330 C   0  0  0  0  0  0  0  0  0  0  0  0
  -43.4691   58.3318   57.2680 C   0  0  0  0  0  0  0  0  0  0  0  0
  -44.8937   58.4184   57.8572 C   0  0  0  0  0  0  0  0  0  0  0  0
  -45.1419   57.4486   59.0188 C   0  0  0  0  0  0  0  0  0  0  0  0
  -46.4539   57.6328   59.7784 C   0  0  0  0  0  0  0  0  0  0  0  0
  -47.6557   56.9126   59.1357 C   0  0  0  0  0  0  0  0  0  0  0  0
  -47.3862   55.4719   58.6758 C   0  0  0  0  0  0  0  0  0  0  0  0
  -47.5953   55.3285   57.1656 C   0  0  0  0  0  0  0  0  0  0  0  0
  -47.7337   56.6190   56.3776 C   0  0  0  0  0  0  0  0  0  0  0  0
  -33.7860   58.1357   62.1411 C   0  0  0  0  0  0  0  0  0  0  0  0
  -33.4289   59.0560   63.2035 O   0  0  0  0  0  0  0  0  0  0  0  0
  -35.1308   60.4284   65.0466 O   0  0  0  0  0  0  0  0  0  0  0  0
  -32.3440   63.4891   64.5324 O   0  0  0  0  0  0  0  0  0  0  0  0
  -32.7495   61.2783   62.5067 O   0  0  0  0  0  0  0  0  0  0  0  0
  -33.7890   60.4861   63.1306 C   0  0  0  0  0  0  0  0  0  0  0  0
  -34.1039   61.1726   64.4674 C   0  0  0  0  0  0  0  0  0  0  0  0
  -34.5874   62.6316   64.3168 C   0  0  0  0  0  0  0  0  0  0  0  0
  -33.4634   63.3812   63.6564 C   0  0  0  0  0  0  0  0  0  0  0  0
  -33.0732   62.6877   62.3637 C   0  0  0  0  0  0  0  0  0  0  0  0
  -34.8445   59.5074   65.1492 H   0  0  0  0  0  0  0  0  0  0  0  0
  -32.6153   63.9344   65.3504 H   0  0  0  0  0  0  0  0  0  0  0  0
  -30.7168   63.0877   62.3343 O   0  0  0  0  0  0  0  0  0  0  0  0
  -31.9377   63.5831   61.8729 C   0  0  0  0  0  0  0  0  0  0  0  0
  -29.9973   63.6581   62.0213 H   0  0  0  0  0  0  0  0  0  0  0  0
  -34.8719   63.3358   65.5469 O   0  0  0  0  0  0  0  0  0  0  0  0
  -35.9054   62.2450   67.6586 O   0  0  0  0  0  0  0  0  0  0  0  0
  -37.1809   62.3026   65.5949 O   0  0  0  0  0  0  0  0  0  0  0  0
  -36.9104   64.3155   66.9176 O   0  0  0  0  0  0  0  0  0  0  0  0
  -36.2393   63.0667   66.4577 S   0  0  0  0  0  0  0  0  0  0  0  0
  -35.4669   61.4263   67.3785 H   0  0  0  0  0  0  0  0  0  0  0  0
  -36.3033   64.8201   67.4812 H   0  0  0  0  0  0  0  0  0  0  0  0
  2  1  1  0  0  0
  2  4  1  0  0  0
  2  5  1  0  0  0
 41 42  1  0  0  0
 41  1  1  0  0  0
 42 46  1  0  0  0
  1 24  1  0  0  0
 23 24  1  0  0  0
 23 25  1  0  0  0
 24 26  1  0  0  0
  3  4  2  0  0  0
 26 27  2  0  0  0
 27 28  1  0  0  0
 43 47  1  0  0  0
 43 51  1  0  0  0
 28 29  1  0  0  0
 56 48  1  0  0  0
 56 60  1  0  0  0
 29 30  1  0  0  0
 57 60  1  0  0  0
 57 61  1  0  0  0
 30 31  1  0  0  0
 44 49  1  0  0  0
 44 52  1  0  0  0
 31 32  1  0  0  0
 45 46  1  0  0  0
 45 50  1  0  0  0
 32 33  1  0  0  0
 53 54  1  0  0  0
 53 55  1  0  0  0
 33 34  1  0  0  0
 34 35  1  0  0  0
 35 36  1  0  0  0
 58 60  1  0  0  0
 36 37  1  0  0  0
 59 60  1  0  0  0
 59 62  1  0  0  0
 37 38  1  0  0  0
 38 39  1  0  0  0
 39 40  1  0  0  0
  4  6  1  0  0  0
  6  7  1  0  0  0
  7  8  1  0  0  0
  8  9  1  0  0  0
  9 10  1  0  0  0
 10 11  1  0  0  0
 11 12  1  0  0  0
 12 13  1  0  0  0
 13 14  1  0  0  0
 14 15  1  0  0  0
 15 16  1  0  0  0
 16 17  1  0  0  0
 17 18  1  0  0  0
 18 19  1  0  0  0
 19 20  1  0  0  0
 20 21  1  0  0  0
 21 22  1  0  0  0
 46 47  1  0  0  0
 47 48  1  0  0  0
 48 49  1  0  0  0
 49 50  1  0  0  0
 50 54  1  0  0  0
M  CHG 1  58  -1
M  END
> <minimizedAffinity>
-8.86975

> <CNNscore>
0.2800675631

> <CNNaffinity>
6.9762396812

> <CNN_VS>
1.9538184404

> <CNNaffinity_variance>
1.1574521065

$$$$
/media/chris/experiments/cd1a-new-docking/inputs/ligands/1onq_ligand.pdb


 62 62  0  0  0  0  0  0  0  0999 V2000
  -39.7861   60.0982   65.0036 C   0  0  0  0  0  0  0  0  0  0  0  0
  -40.7571   59.0836   65.3625 N   0  0  0  0  0  0  0  0  0  0  0  0
  -41.9016   60.0942   67.0407 O   0  0  0  0  0  0  0  0  0  0  0  0
  -41.7036   59.1437   66.3092 C   0  0  0  0  0  0  0  0  0  0  0  0
  -40.7161   58.2461   64.8466 H   0  0  0  0  0  0  0  0  0  0  0  0
  -42.5638   57.9208   66.4294 C   0  0  0  0  0  0  0  0  0  0  0  0
  -43.6965   58.0864   65.4162 C   0  0  0  0  0  0  0  0  0  0  0  0
  -45.0419   57.8313   66.0915 C   0  0  0  0  0  0  0  0  0  0  0  0
  -46.2615   58.3115   65.3429 C   0  0  0  0  0  0  0  0  0  0  0  0
  -47.4303   58.3188   66.3226 C   0  0  0  0  0  0  0  0  0  0  0  0
  -48.5784   57.4005   65.8829 C   0  0  0  0  0  0  0  0  0  0  0  0
  -49.9196   58.1247   65.6659 C   0  0  0  0  0  0  0  0  0  0  0  0
  -49.8309   59.2494   64.6110 C   0  0  0  0  0  0  0  0  0  0  0  0
  -51.2302   59.6813   64.1632 C   0  0  0  0  0  0  0  0  0  0  0  0
  -51.5910   59.3126   62.7294 C   0  0  0  0  0  0  0  0  0  0  0  0
  -50.5610   58.3904   62.0938 C   0  0  0  0  0  0  0  0  0  0  0  0
  -51.0939   57.4097   61.0466 C   0  0  0  0  0  0  0  0  0  0  0  0
  -49.9081   56.8471   60.2746 C   0  0  0  0  0  0  0  0  0  0  0  0
  -48.5965   57.6183   60.2890 C   0  0  0  0  0  0  0  0  0  0  0  0
  -47.5253   56.8967   59.4560 C   0  0  0  0  0  0  0  0  0  0  0  0
  -47.1906   57.5791   58.1169 C   0  0  0  0  0  0  0  0  0  0  0  0
  -47.4746   56.6981   56.9025 C   0  0  0  0  0  0  0  0  0  0  0  0
  -41.1567   60.3736   63.1485 O   0  0  0  0  0  0  0  0  0  0  0  0
  -39.8172   60.0638   63.4853 C   0  0  0  0  0  0  0  0  0  0  0  0
  -41.3743   61.2618   63.4723 H   0  0  0  0  0  0  0  0  0  0  0  0
  -39.4084   58.6705   63.0013 C   0  0  0  0  0  0  0  0  0  0  0  0
  -38.5118   58.4704   62.0204 C   0  0  0  0  0  0  0  0  0  0  0  0
  -38.1572   57.0473   61.5933 C   0  0  0  0  0  0  0  0  0  0  0  0
  -37.1852   56.9785   60.4064 C   0  0  0  0  0  0  0  0  0  0  0  0
  -37.5449   57.8628   59.1981 C   0  0  0  0  0  0  0  0  0  0  0  0
  -36.3246   58.0368   58.2622 C   0  0  0  0  0  0  0  0  0  0  0  0
  -35.5682   56.7306   57.9114 C   0  0  0  0  0  0  0  0  0  0  0  0
  -34.1035   56.6940   58.4078 C   0  0  0  0  0  0  0  0  0  0  0  0
  -33.8287   55.5780   59.4388 C   0  0  0  0  0  0  0  0  0  0  0  0
  -33.4085   56.1007   60.8178 C   0  0  0  0  0  0  0  0  0  0  0  0
  -33.5577   57.6043   61.0398 C   0  0  0  0  0  0  0  0  0  0  0  0
  -32.9294   58.1084   62.3540 C   0  0  0  0  0  0  0  0  0  0  0  0
  -33.6392   57.6503   63.6371 C   0  0  0  0  0  0  0  0  0  0  0  0
  -35.1511   57.5409   63.4198 C   0  0  0  0  0  0  0  0  0  0  0  0
  -35.9569   56.9523   64.5643 C   0  0  0  0  0  0  0  0  0  0  0  0
  -38.4025   59.9642   65.6794 C   0  0  0  0  0  0  0  0  0  0  0  0
  -37.2464   60.0190   64.8056 O   0  0  0  0  0  0  0  0  0  0  0  0
  -35.1760   60.7151   62.9601 O   0  0  0  0  0  0  0  0  0  0  0  0
  -35.5837   64.4715   64.7270 O   0  0  0  0  0  0  0  0  0  0  0  0
  -36.4409   61.9111   66.0928 O   0  0  0  0  0  0  0  0  0  0  0  0
  -36.1084   60.9135   65.0970 C   0  0  0  0  0  0  0  0  0  0  0  0
  -35.5294   61.6820   63.9004 C   0  0  0  0  0  0  0  0  0  0  0  0
  -34.2703   62.5077   64.2439 C   0  0  0  0  0  0  0  0  0  0  0  0
  -34.6939   63.5073   65.2845 C   0  0  0  0  0  0  0  0  0  0  0  0
  -35.3403   62.7881   66.4546 C   0  0  0  0  0  0  0  0  0  0  0  0
  -35.9560   60.1857   62.7318 H   0  0  0  0  0  0  0  0  0  0  0  0
  -35.1513   64.9182   63.9825 H   0  0  0  0  0  0  0  0  0  0  0  0
  -37.0326   64.3160   67.1723 O   0  0  0  0  0  0  0  0  0  0  0  0
  -35.6972   63.9592   67.3674 C   0  0  0  0  0  0  0  0  0  0  0  0
  -37.2567   65.0599   67.7531 H   0  0  0  0  0  0  0  0  0  0  0  0
  -33.6990   63.2742   63.1595 O   0  0  0  0  0  0  0  0  0  0  0  0
  -32.2479   61.4866   61.9695 O   0  0  0  0  0  0  0  0  0  0  0  0
  -31.2020   63.0517   63.5011 O   0  0  0  0  0  0  0  0  0  0  0  0
  -31.8928   63.7813   61.2955 O   0  0  0  0  0  0  0  0  0  0  0  0
  -32.2414   62.9012   62.4467 S   0  0  0  0  0  0  0  0  0  0  0  0
  -32.4733   60.8978   62.7066 H   0  0  0  0  0  0  0  0  0  0  0  0
  -32.5656   63.6893   60.6028 H   0  0  0  0  0  0  0  0  0  0  0  0
  2  1  1  0  0  0
  2  4  1  0  0  0
  2  5  1  0  0  0
 41 42  1  0  0  0
 41  1  1  0  0  0
 42 46  1  0  0  0
  1 24  1  0  0  0
 23 24  1  0  0  0
 23 25  1  0  0  0
 24 26  1  0  0  0
  3  4  2  0  0  0
 26 27  2  0  0  0
 27 28  1  0  0  0
 43 47  1  0  0  0
 43 51  1  0  0  0
 28 29  1  0  0  0
 56 48  1  0  0  0
 56 60  1  0  0  0
 29 30  1  0  0  0
 57 60  1  0  0  0
 57 61  1  0  0  0
 30 31  1  0  0  0
 44 49  1  0  0  0
 44 52  1  0  0  0
 31 32  1  0  0  0
 45 46  1  0  0  0
 45 50  1  0  0  0
 32 33  1  0  0  0
 53 54  1  0  0  0
 53 55  1  0  0  0
 33 34  1  0  0  0
 34 35  1  0  0  0
 35 36  1  0  0  0
 58 60  1  0  0  0
 36 37  1  0  0  0
 59 60  1  0  0  0
 59 62  1  0  0  0
 37 38  1  0  0  0
 38 39  1  0  0  0
 39 40  1  0  0  0
  4  6  1  0  0  0
  6  7  1  0  0  0
  7  8  1  0  0  0
  8  9  1  0  0  0
  9 10  1  0  0  0
 10 11  1  0  0  0
 11 12  1  0  0  0
 12 13  1  0  0  0
 13 14  1  0  0  0
 14 15  1  0  0  0
 15 16  1  0  0  0
 16 17  1  0  0  0
 17 18  1  0  0  0
 18 19  1  0  0  0
 19 20  1  0  0  0
 20 21  1  0  0  0
 21 22  1  0  0  0
 46 47  1  0  0  0
 47 48  1  0  0  0
 48 49  1  0  0  0
 49 50  1  0  0  0
 50 54  1  0  0  0
M  CHG 1  58  -1
M  END
> <minimizedAffinity>
-9.72788

> <CNNscore>
0.2450074553

> <CNNaffinity>
7.0465860367

> <CNN_VS>
1.7264660597

> <CNNaffinity_variance>
1.0036228895

$$$$
