/media/chris/experiments/cd1a-new-docking/inputs/ligands/1onq_ligand.pdb


 62 62  0  0  0  0  0  0  0  0999 V2000
  -39.4104   58.9951   63.6679 C   0  0  0  0  0  0  0  0  0  0  0  0
  -40.1770   58.9034   64.8948 N   0  0  0  0  0  0  0  0  0  0  0  0
  -42.1726   59.7871   64.2748 O   0  0  0  0  0  0  0  0  0  0  0  0
  -41.4435   59.2856   65.1083 C   0  0  0  0  0  0  0  0  0  0  0  0
  -39.7089   58.5116   65.6672 H   0  0  0  0  0  0  0  0  0  0  0  0
  -41.9559   59.0470   66.4977 C   0  0  0  0  0  0  0  0  0  0  0  0
  -43.4531   58.7678   66.3654 C   0  0  0  0  0  0  0  0  0  0  0  0
  -43.6863   57.2791   66.1197 C   0  0  0  0  0  0  0  0  0  0  0  0
  -44.9980   56.9115   65.4696 C   0  0  0  0  0  0  0  0  0  0  0  0
  -45.4547   58.1095   64.6436 C   0  0  0  0  0  0  0  0  0  0  0  0
  -46.9818   58.1970   64.5201 C   0  0  0  0  0  0  0  0  0  0  0  0
  -47.6195   59.3264   65.3497 C   0  0  0  0  0  0  0  0  0  0  0  0
  -49.0815   59.0271   65.7476 C   0  0  0  0  0  0  0  0  0  0  0  0
  -49.8057   58.2823   64.6224 C   0  0  0  0  0  0  0  0  0  0  0  0
  -50.8607   59.0973   63.8842 C   0  0  0  0  0  0  0  0  0  0  0  0
  -50.8843   58.7957   62.3931 C   0  0  0  0  0  0  0  0  0  0  0  0
  -49.8608   57.7705   61.8995 C   0  0  0  0  0  0  0  0  0  0  0  0
  -50.4152   57.1116   60.6435 C   0  0  0  0  0  0  0  0  0  0  0  0
  -49.5343   57.0466   59.4046 C   0  0  0  0  0  0  0  0  0  0  0  0
  -48.5897   55.8357   59.4644 C   0  0  0  0  0  0  0  0  0  0  0  0
  -47.8490   55.5380   58.1476 C   0  0  0  0  0  0  0  0  0  0  0  0
  -47.6158   56.7806   57.2915 C   0  0  0  0  0  0  0  0  0  0  0  0
  -38.4567   57.5451   65.2118 O   0  0  0  0  0  0  0  0  0  0  0  0
  -38.3711   57.9015   63.8446 C   0  0  0  0  0  0  0  0  0  0  0  0
  -39.3444   57.2034   65.4018 H   0  0  0  0  0  0  0  0  0  0  0  0
  -36.9904   58.4502   63.4771 C   0  0  0  0  0  0  0  0  0  0  0  0
  -35.9329   58.3849   64.3040 C   0  0  0  0  0  0  0  0  0  0  0  0
  -34.5868   58.9570   63.8636 C   0  0  0  0  0  0  0  0  0  0  0  0
  -33.4946   57.8956   63.6672 C   0  0  0  0  0  0  0  0  0  0  0  0
  -32.5876   58.0921   62.4383 C   0  0  0  0  0  0  0  0  0  0  0  0
  -33.2620   57.5320   61.1627 C   0  0  0  0  0  0  0  0  0  0  0  0
  -34.3361   56.4419   61.4063 C   0  0  0  0  0  0  0  0  0  0  0  0
  -34.7510   55.6659   60.1341 C   0  0  0  0  0  0  0  0  0  0  0  0
  -34.0022   56.1194   58.8623 C   0  0  0  0  0  0  0  0  0  0  0  0
  -34.8452   56.9961   57.9285 C   0  0  0  0  0  0  0  0  0  0  0  0
  -36.3477   56.7225   57.9257 C   0  0  0  0  0  0  0  0  0  0  0  0
  -37.2138   57.9829   58.1186 C   0  0  0  0  0  0  0  0  0  0  0  0
  -37.6489   58.2635   59.5650 C   0  0  0  0  0  0  0  0  0  0  0  0
  -38.0727   59.7247   59.7380 C   0  0  0  0  0  0  0  0  0  0  0  0
  -39.5661   59.9915   59.8026 C   0  0  0  0  0  0  0  0  0  0  0  0
  -38.8894   60.4062   63.3124 C   0  0  0  0  0  0  0  0  0  0  0  0
  -38.5099   61.2562   64.4245 O   0  0  0  0  0  0  0  0  0  0  0  0
  -36.5602   61.6480   62.3697 O   0  0  0  0  0  0  0  0  0  0  0  0
  -35.3965   64.8279   64.8054 O   0  0  0  0  0  0  0  0  0  0  0  0
  -36.9395   62.4413   65.8440 O   0  0  0  0  0  0  0  0  0  0  0  0
  -37.1026   61.6442   64.6458 C   0  0  0  0  0  0  0  0  0  0  0  0
  -36.4339   62.4361   63.5129 C   0  0  0  0  0  0  0  0  0  0  0  0
  -34.9325   62.7101   63.7498 C   0  0  0  0  0  0  0  0  0  0  0  0
  -34.8479   63.5280   65.0088 C   0  0  0  0  0  0  0  0  0  0  0  0
  -35.5647   62.8093   66.1375 C   0  0  0  0  0  0  0  0  0  0  0  0
  -37.4984   61.4654   62.2048 H   0  0  0  0  0  0  0  0  0  0  0  0
  -34.9247   65.2683   64.0814 H   0  0  0  0  0  0  0  0  0  0  0  0
  -36.5350   63.8445   68.0610 O   0  0  0  0  0  0  0  0  0  0  0  0
  -35.3723   63.7923   67.2901 C   0  0  0  0  0  0  0  0  0  0  0  0
  -36.4103   64.4694   68.7924 H   0  0  0  0  0  0  0  0  0  0  0  0
  -34.2585   63.4770   62.7263 O   0  0  0  0  0  0  0  0  0  0  0  0
  -32.3420   61.9101   61.9588 O   0  0  0  0  0  0  0  0  0  0  0  0
  -31.9024   63.6049   63.6391 O   0  0  0  0  0  0  0  0  0  0  0  0
  -32.1553   64.2324   61.3117 O   0  0  0  0  0  0  0  0  0  0  0  0
  -32.6385   63.3115   62.3795 S   0  0  0  0  0  0  0  0  0  0  0  0
  -32.6500   61.2952   62.6429 H   0  0  0  0  0  0  0  0  0  0  0  0
  -32.6304   64.0478   60.4863 H   0  0  0  0  0  0  0  0  0  0  0  0
  2  1  1  0  0  0
  2  4  1  0  0  0
  2  5  1  0  0  0
 41 42  1  0  0  0
 41  1  1  0  0  0
 42 46  1  0  0  0
  1 24  1  0  0  0
 23 24  1  0  0  0
 23 25  1  0  0  0
 24 26  1  0  0  0
  3  4  2  0  0  0
 26 27  2  0  0  0
 27 28  1  0  0  0
 43 47  1  0  0  0
 43 51  1  0  0  0
 28 29  1  0  0  0
 56 48  1  0  0  0
 56 60  1  0  0  0
 29 30  1  0  0  0
 57 60  1  0  0  0
 57 61  1  0  0  0
 30 31  1  0  0  0
 44 49  1  0  0  0
 44 52  1  0  0  0
 31 32  1  0  0  0
 45 46  1  0  0  0
 45 50  1  0  0  0
 32 33  1  0  0  0
 53 54  1  0  0  0
 53 55  1  0  0  0
 33 34  1  0  0  0
 34 35  1  0  0  0
 35 36  1  0  0  0
 58 60  1  0  0  0
 36 37  1  0  0  0
 59 60  1  0  0  0
 59 62  1  0  0  0
 37 38  1  0  0  0
 38 39  1  0  0  0
 39 40  1  0  0  0
  4  6  1  0  0  0
  6  7  1  0  0  0
  7  8  1  0  0  0
  8  9  1  0  0  0
  9 10  1  0  0  0
 10 11  1  0  0  0
 11 12  1  0  0  0
 12 13  1  0  0  0
 13 14  1  0  0  0
 14 15  1  0  0  0
 15 16  1  0  0  0
 16 17  1  0  0  0
 17 18  1  0  0  0
 18 19  1  0  0  0
 19 20  1  0  0  0
 20 21  1  0  0  0
 21 22  1  0  0  0
 46 47  1  0  0  0
 47 48  1  0  0  0
 48 49  1  0  0  0
 49 50  1  0  0  0
 50 54  1  0  0  0
M  CHG 1  58  -1
M  END
> <minimizedAffinity>
-9.99805

> <CNNscore>
0.5273884535

> <CNNaffinity>
7.4583511353

> <CNN_VS>
3.9334483147

> <CNNaffinity_variance>
1.2648912668

$$$$
/media/chris/experiments/cd1a-new-docking/inputs/ligands/1onq_ligand.pdb


 62 62  0  0  0  0  0  0  0  0999 V2000
  -36.9626   57.7427   64.0052 C   0  0  0  0  0  0  0  0  0  0  0  0
  -36.4824   57.1134   62.7909 N   0  0  0  0  0  0  0  0  0  0  0  0
  -35.0751   58.6892   61.9640 O   0  0  0  0  0  0  0  0  0  0  0  0
  -35.6143   57.6019   61.8946 C   0  0  0  0  0  0  0  0  0  0  0  0
  -36.8383   56.2153   62.6011 H   0  0  0  0  0  0  0  0  0  0  0  0
  -35.3122   56.6943   60.7392 C   0  0  0  0  0  0  0  0  0  0  0  0
  -36.6335   56.4776   60.0014 C   0  0  0  0  0  0  0  0  0  0  0  0
  -36.5909   57.1698   58.6412 C   0  0  0  0  0  0  0  0  0  0  0  0
  -37.3839   58.4486   58.5225 C   0  0  0  0  0  0  0  0  0  0  0  0
  -38.3227   58.5218   59.7222 C   0  0  0  0  0  0  0  0  0  0  0  0
  -38.6886   59.9630   60.1017 C   0  0  0  0  0  0  0  0  0  0  0  0
  -40.2008   60.2141   60.2462 C   0  0  0  0  0  0  0  0  0  0  0  0
  -40.9062   60.4286   58.8891 C   0  0  0  0  0  0  0  0  0  0  0  0
  -41.7391   59.1998   58.5132 C   0  0  0  0  0  0  0  0  0  0  0  0
  -42.2673   59.1913   57.0838 C   0  0  0  0  0  0  0  0  0  0  0  0
  -43.6182   58.5002   56.9716 C   0  0  0  0  0  0  0  0  0  0  0  0
  -44.3336   58.2065   58.2922 C   0  0  0  0  0  0  0  0  0  0  0  0
  -45.8240   58.0787   58.0077 C   0  0  0  0  0  0  0  0  0  0  0  0
  -46.7443   57.6224   59.1303 C   0  0  0  0  0  0  0  0  0  0  0  0
  -48.0185   56.9733   58.5672 C   0  0  0  0  0  0  0  0  0  0  0  0
  -47.9109   56.5245   57.0981 C   0  0  0  0  0  0  0  0  0  0  0  0
  -47.4682   55.0716   56.9413 C   0  0  0  0  0  0  0  0  0  0  0  0
  -37.9233   59.6315   63.0540 O   0  0  0  0  0  0  0  0  0  0  0  0
  -38.2782   58.3585   63.5609 C   0  0  0  0  0  0  0  0  0  0  0  0
  -37.3266   59.5232   62.2970 H   0  0  0  0  0  0  0  0  0  0  0  0
  -39.2221   58.4585   64.7615 C   0  0  0  0  0  0  0  0  0  0  0  0
  -40.5477   58.6421   64.6370 C   0  0  0  0  0  0  0  0  0  0  0  0
  -41.4233   58.7327   65.8854 C   0  0  0  0  0  0  0  0  0  0  0  0
  -42.7801   58.0273   65.7457 C   0  0  0  0  0  0  0  0  0  0  0  0
  -43.9577   58.9252   65.3237 C   0  0  0  0  0  0  0  0  0  0  0  0
  -45.0584   58.0938   64.6216 C   0  0  0  0  0  0  0  0  0  0  0  0
  -46.4948   58.6629   64.7408 C   0  0  0  0  0  0  0  0  0  0  0  0
  -47.5500   57.6287   65.1985 C   0  0  0  0  0  0  0  0  0  0  0  0
  -48.6780   58.2370   66.0597 C   0  0  0  0  0  0  0  0  0  0  0  0
  -50.0589   58.1855   65.3951 C   0  0  0  0  0  0  0  0  0  0  0  0
  -50.5059   59.4568   64.6765 C   0  0  0  0  0  0  0  0  0  0  0  0
  -51.1770   59.2016   63.3125 C   0  0  0  0  0  0  0  0  0  0  0  0
  -50.6171   58.0107   62.5197 C   0  0  0  0  0  0  0  0  0  0  0  0
  -49.5353   58.4652   61.5357 C   0  0  0  0  0  0  0  0  0  0  0  0
  -49.6305   59.8979   61.0419 C   0  0  0  0  0  0  0  0  0  0  0  0
  -35.9556   58.6768   64.7140 C   0  0  0  0  0  0  0  0  0  0  0  0
  -36.1046   60.0979   64.4662 O   0  0  0  0  0  0  0  0  0  0  0  0
  -33.6330   60.8174   63.2210 O   0  0  0  0  0  0  0  0  0  0  0  0
  -34.6793   64.6319   64.5451 O   0  0  0  0  0  0  0  0  0  0  0  0
  -35.7730   62.1017   65.7930 O   0  0  0  0  0  0  0  0  0  0  0  0
  -35.1328   61.0738   64.9986 C   0  0  0  0  0  0  0  0  0  0  0  0
  -34.2763   61.8104   63.9586 C   0  0  0  0  0  0  0  0  0  0  0  0
  -33.2000   62.7279   64.5791 C   0  0  0  0  0  0  0  0  0  0  0  0
  -33.9400   63.7546   65.3911 C   0  0  0  0  0  0  0  0  0  0  0  0
  -34.8560   63.0617   66.3838 C   0  0  0  0  0  0  0  0  0  0  0  0
  -34.2947   60.2304   62.8230 H   0  0  0  0  0  0  0  0  0  0  0  0
  -34.0758   65.0632   63.9201 H   0  0  0  0  0  0  0  0  0  0  0  0
  -36.5376   63.8136   67.9070 O   0  0  0  0  0  0  0  0  0  0  0  0
  -35.5036   64.2565   67.0801 C   0  0  0  0  0  0  0  0  0  0  0  0
  -36.9472   64.5742   68.3481 H   0  0  0  0  0  0  0  0  0  0  0  0
  -32.3821   63.4680   63.6446 O   0  0  0  0  0  0  0  0  0  0  0  0
  -34.1124   63.5214   61.7159 O   0  0  0  0  0  0  0  0  0  0  0  0
  -32.0978   62.1892   61.4802 O   0  0  0  0  0  0  0  0  0  0  0  0
  -31.9927   64.6030   61.2877 O   0  0  0  0  0  0  0  0  0  0  0  0
  -32.6479   63.4701   62.0010 S   0  0  0  0  0  0  0  0  0  0  0  0
  -34.5566   62.7901   62.1728 H   0  0  0  0  0  0  0  0  0  0  0  0
  -32.3458   65.4426   61.6213 H   0  0  0  0  0  0  0  0  0  0  0  0
  2  1  1  0  0  0
  2  4  1  0  0  0
  2  5  1  0  0  0
 41 42  1  0  0  0
 41  1  1  0  0  0
 42 46  1  0  0  0
  1 24  1  0  0  0
 23 24  1  0  0  0
 23 25  1  0  0  0
 24 26  1  0  0  0
  3  4  2  0  0  0
 26 27  2  0  0  0
 27 28  1  0  0  0
 43 47  1  0  0  0
 43 51  1  0  0  0
 28 29  1  0  0  0
 56 48  1  0  0  0
 56 60  1  0  0  0
 29 30  1  0  0  0
 57 60  1  0  0  0
 57 61  1  0  0  0
 30 31  1  0  0  0
 44 49  1  0  0  0
 44 52  1  0  0  0
 31 32  1  0  0  0
 45 46  1  0  0  0
 45 50  1  0  0  0
 32 33  1  0  0  0
 53 54  1  0  0  0
 53 55  1  0  0  0
 33 34  1  0  0  0
 34 35  1  0  0  0
 35 36  1  0  0  0
 58 60  1  0  0  0
 36 37  1  0  0  0
 59 60  1  0  0  0
 59 62  1  0  0  0
 37 38  1  0  0  0
 38 39  1  0  0  0
 39 40  1  0  0  0
  4  6  1  0  0  0
  6  7  1  0  0  0
  7  8  1  0  0  0
  8  9  1  0  0  0
  9 10  1  0  0  0
 10 11  1  0  0  0
 11 12  1  0  0  0
 12 13  1  0  0  0
 13 14  1  0  0  0
 14 15  1  0  0  0
 15 16  1  0  0  0
 16 17  1  0  0  0
 17 18  1  0  0  0
 18 19  1  0  0  0
 19 20  1  0  0  0
 20 21  1  0  0  0
 21 22  1  0  0  0
 46 47  1  0  0  0
 47 48  1  0  0  0
 48 49  1  0  0  0
 49 50  1  0  0  0
 50 54  1  0  0  0
M  CHG 1  58  -1
M  END
> <minimizedAffinity>
-8.96484

> <CNNscore>
0.3385768235

> <CNNaffinity>
7.0811185837

> <CNN_VS>
2.3975026608

> <CNNaffinity_variance>
0.6538134813

$$$$
/media/chris/experiments/cd1a-new-docking/inputs/ligands/1onq_ligand.pdb


 62 62  0  0  0  0  0  0  0  0999 V2000
  -39.9008   58.6617   63.9469 C   0  0  0  0  0  0  0  0  0  0  0  0
  -40.6218   58.6771   65.2043 N   0  0  0  0  0  0  0  0  0  0  0  0
  -42.5044   59.8195   64.6580 O   0  0  0  0  0  0  0  0  0  0  0  0
  -41.8156   59.2267   65.4656 C   0  0  0  0  0  0  0  0  0  0  0  0
  -40.1793   58.2280   65.9604 H   0  0  0  0  0  0  0  0  0  0  0  0
  -42.2980   59.0629   66.8764 C   0  0  0  0  0  0  0  0  0  0  0  0
  -43.7726   58.6695   66.7872 C   0  0  0  0  0  0  0  0  0  0  0  0
  -43.8993   57.2283   66.2994 C   0  0  0  0  0  0  0  0  0  0  0  0
  -45.2001   56.8688   65.6233 C   0  0  0  0  0  0  0  0  0  0  0  0
  -45.4990   57.9527   64.5929 C   0  0  0  0  0  0  0  0  0  0  0  0
  -46.9689   58.3933   64.6051 C   0  0  0  0  0  0  0  0  0  0  0  0
  -47.6573   58.2608   65.9759 C   0  0  0  0  0  0  0  0  0  0  0  0
  -49.1963   58.1863   65.8702 C   0  0  0  0  0  0  0  0  0  0  0  0
  -49.6341   58.1143   64.4044 C   0  0  0  0  0  0  0  0  0  0  0  0
  -50.7807   59.0446   64.0273 C   0  0  0  0  0  0  0  0  0  0  0  0
  -51.1753   58.9108   62.5640 C   0  0  0  0  0  0  0  0  0  0  0  0
  -50.0577   58.5007   61.6023 C   0  0  0  0  0  0  0  0  0  0  0  0
  -50.6035   57.4297   60.6676 C   0  0  0  0  0  0  0  0  0  0  0  0
  -50.0072   57.3057   59.2732 C   0  0  0  0  0  0  0  0  0  0  0  0
  -48.6680   56.5528   59.3128 C   0  0  0  0  0  0  0  0  0  0  0  0
  -47.4249   57.4613   59.3323 C   0  0  0  0  0  0  0  0  0  0  0  0
  -46.7949   57.6525   57.9546 C   0  0  0  0  0  0  0  0  0  0  0  0
  -38.2127   57.9319   65.3658 O   0  0  0  0  0  0  0  0  0  0  0  0
  -38.8726   57.5656   64.1684 C   0  0  0  0  0  0  0  0  0  0  0  0
  -38.8522   57.9496   66.0950 H   0  0  0  0  0  0  0  0  0  0  0  0
  -37.9166   57.5186   62.9742 C   0  0  0  0  0  0  0  0  0  0  0  0
  -38.3393   57.4400   61.7008 C   0  0  0  0  0  0  0  0  0  0  0  0
  -37.3210   57.3963   60.5630 C   0  0  0  0  0  0  0  0  0  0  0  0
  -37.5953   58.4114   59.4440 C   0  0  0  0  0  0  0  0  0  0  0  0
  -37.3020   57.9222   58.0136 C   0  0  0  0  0  0  0  0  0  0  0  0
  -36.2701   56.7687   58.0285 C   0  0  0  0  0  0  0  0  0  0  0  0
  -34.7880   57.2051   57.9081 C   0  0  0  0  0  0  0  0  0  0  0  0
  -33.7983   56.3093   58.6895 C   0  0  0  0  0  0  0  0  0  0  0  0
  -34.4567   55.5214   59.8427 C   0  0  0  0  0  0  0  0  0  0  0  0
  -33.9820   55.9524   61.2355 C   0  0  0  0  0  0  0  0  0  0  0  0
  -32.9755   57.1003   61.2762 C   0  0  0  0  0  0  0  0  0  0  0  0
  -32.8405   57.7655   62.6601 C   0  0  0  0  0  0  0  0  0  0  0  0
  -33.5946   59.0938   62.8246 C   0  0  0  0  0  0  0  0  0  0  0  0
  -34.5738   59.0283   64.0001 C   0  0  0  0  0  0  0  0  0  0  0  0
  -34.7123   57.6824   64.6893 C   0  0  0  0  0  0  0  0  0  0  0  0
  -39.3717   60.0319   63.4660 C   0  0  0  0  0  0  0  0  0  0  0  0
  -38.8918   60.9378   64.4918 O   0  0  0  0  0  0  0  0  0  0  0  0
  -37.1195   61.3922   62.2942 O   0  0  0  0  0  0  0  0  0  0  0  0
  -35.6441   64.3965   64.7834 O   0  0  0  0  0  0  0  0  0  0  0  0
  -37.1650   61.9976   65.8263 O   0  0  0  0  0  0  0  0  0  0  0  0
  -37.4587   61.2744   64.6063 C   0  0  0  0  0  0  0  0  0  0  0  0
  -36.8676   62.1106   63.4623 C   0  0  0  0  0  0  0  0  0  0  0  0
  -35.3432   62.3300   63.5776 C   0  0  0  0  0  0  0  0  0  0  0  0
  -35.1217   63.0727   64.8662 C   0  0  0  0  0  0  0  0  0  0  0  0
  -35.7587   62.3110   66.0144 C   0  0  0  0  0  0  0  0  0  0  0  0
  -38.0740   61.2448   62.2047 H   0  0  0  0  0  0  0  0  0  0  0  0
  -35.2241   64.8642   64.0447 H   0  0  0  0  0  0  0  0  0  0  0  0
  -36.5873   63.8974   67.5987 O   0  0  0  0  0  0  0  0  0  0  0  0
  -35.4339   63.2216   67.1964 C   0  0  0  0  0  0  0  0  0  0  0  0
  -36.3785   64.4750   68.3495 H   0  0  0  0  0  0  0  0  0  0  0  0
  -34.7379   63.1350   62.5406 O   0  0  0  0  0  0  0  0  0  0  0  0
  -32.5927   63.7160   61.2074 O   0  0  0  0  0  0  0  0  0  0  0  0
  -32.4016   62.6244   63.3663 O   0  0  0  0  0  0  0  0  0  0  0  0
  -32.9714   64.9765   63.2357 O   0  0  0  0  0  0  0  0  0  0  0  0
  -33.1541   63.6461   62.5890 S   0  0  0  0  0  0  0  0  0  0  0  0
  -32.7027   62.8574   60.7698 H   0  0  0  0  0  0  0  0  0  0  0  0
  -33.4591   65.6492   62.7350 H   0  0  0  0  0  0  0  0  0  0  0  0
  2  1  1  0  0  0
  2  4  1  0  0  0
  2  5  1  0  0  0
 41 42  1  0  0  0
 41  1  1  0  0  0
 42 46  1  0  0  0
  1 24  1  0  0  0
 23 24  1  0  0  0
 23 25  1  0  0  0
 24 26  1  0  0  0
  3  4  2  0  0  0
 26 27  2  0  0  0
 27 28  1  0  0  0
 43 47  1  0  0  0
 43 51  1  0  0  0
 28 29  1  0  0  0
 56 48  1  0  0  0
 56 60  1  0  0  0
 29 30  1  0  0  0
 57 60  1  0  0  0
 57 61  1  0  0  0
 30 31  1  0  0  0
 44 49  1  0  0  0
 44 52  1  0  0  0
 31 32  1  0  0  0
 45 46  1  0  0  0
 45 50  1  0  0  0
 32 33  1  0  0  0
 53 54  1  0  0  0
 53 55  1  0  0  0
 33 34  1  0  0  0
 34 35  1  0  0  0
 35 36  1  0  0  0
 58 60  1  0  0  0
 36 37  1  0  0  0
 59 60  1  0  0  0
 59 62  1  0  0  0
 37 38  1  0  0  0
 38 39  1  0  0  0
 39 40  1  0  0  0
  4  6  1  0  0  0
  6  7  1  0  0  0
  7  8  1  0  0  0
  8  9  1  0  0  0
  9 10  1  0  0  0
 10 11  1  0  0  0
 11 12  1  0  0  0
 12 13  1  0  0  0
 13 14  1  0  0  0
 14 15  1  0  0  0
 15 16  1  0  0  0
 16 17  1  0  0  0
 17 18  1  0  0  0
 18 19  1  0  0  0
 19 20  1  0  0  0
 20 21  1  0  0  0
 21 22  1  0  0  0
 46 47  1  0  0  0
 47 48  1  0  0  0
 48 49  1  0  0  0
 49 50  1  0  0  0
 50 54  1  0  0  0
M  CHG 1  58  -1
M  END
> <minimizedAffinity>
-10.12630

> <CNNscore>
0.3379168510

> <CNNaffinity>
7.1813821793

> <CNN_VS>
2.4267101288

> <CNNaffinity_variance>
1.5038573742

$$$$
/media/chris/experiments/cd1a-new-docking/inputs/ligands/1onq_ligand.pdb


 62 62  0  0  0  0  0  0  0  0999 V2000
  -40.1989   59.2170   64.9477 C   0  0  0  0  0  0  0  0  0  0  0  0
  -39.7336   58.4059   63.8401 N   0  0  0  0  0  0  0  0  0  0  0  0
  -37.7888   57.5651   64.6514 O   0  0  0  0  0  0  0  0  0  0  0  0
  -38.6161   57.6701   63.7669 C   0  0  0  0  0  0  0  0  0  0  0  0
  -40.3104   58.3942   63.0423 H   0  0  0  0  0  0  0  0  0  0  0  0
  -38.4220   56.9320   62.4757 C   0  0  0  0  0  0  0  0  0  0  0  0
  -37.0249   57.2969   61.9737 C   0  0  0  0  0  0  0  0  0  0  0  0
  -37.1070   58.4885   61.0228 C   0  0  0  0  0  0  0  0  0  0  0  0
  -38.4918   58.8781   60.5655 C   0  0  0  0  0  0  0  0  0  0  0  0
  -38.4335   59.1008   59.0578 C   0  0  0  0  0  0  0  0  0  0  0  0
  -37.1070   58.6375   58.4408 C   0  0  0  0  0  0  0  0  0  0  0  0
  -37.1964   57.3026   57.6789 C   0  0  0  0  0  0  0  0  0  0  0  0
  -36.1363   56.2773   58.1379 C   0  0  0  0  0  0  0  0  0  0  0  0
  -34.7239   56.7979   57.8559 C   0  0  0  0  0  0  0  0  0  0  0  0
  -33.8348   56.9481   59.0843 C   0  0  0  0  0  0  0  0  0  0  0  0
  -34.1811   55.9443   60.1740 C   0  0  0  0  0  0  0  0  0  0  0  0
  -33.7088   56.2972   61.5863 C   0  0  0  0  0  0  0  0  0  0  0  0
  -32.7293   57.4587   61.4840 C   0  0  0  0  0  0  0  0  0  0  0  0
  -32.5099   58.3374   62.7066 C   0  0  0  0  0  0  0  0  0  0  0  0
  -33.6529   59.3522   62.8668 C   0  0  0  0  0  0  0  0  0  0  0  0
  -34.6509   59.0179   63.9908 C   0  0  0  0  0  0  0  0  0  0  0  0
  -34.1549   57.9237   64.9332 C   0  0  0  0  0  0  0  0  0  0  0  0
  -41.2809   61.1989   64.4026 O   0  0  0  0  0  0  0  0  0  0  0  0
  -41.4946   59.7997   64.4099 C   0  0  0  0  0  0  0  0  0  0  0  0
  -40.5423   61.4101   63.8104 H   0  0  0  0  0  0  0  0  0  0  0  0
  -42.6509   59.3976   65.3283 C   0  0  0  0  0  0  0  0  0  0  0  0
  -43.8026   58.8777   64.8705 C   0  0  0  0  0  0  0  0  0  0  0  0
  -44.9108   58.5023   65.8524 C   0  0  0  0  0  0  0  0  0  0  0  0
  -46.1639   59.3831   65.7421 C   0  0  0  0  0  0  0  0  0  0  0  0
  -47.4931   58.7006   66.1142 C   0  0  0  0  0  0  0  0  0  0  0  0
  -48.0341   57.8675   64.9272 C   0  0  0  0  0  0  0  0  0  0  0  0
  -49.3645   58.3743   64.3151 C   0  0  0  0  0  0  0  0  0  0  0  0
  -49.2006   59.5633   63.3394 C   0  0  0  0  0  0  0  0  0  0  0  0
  -50.0036   59.4034   62.0304 C   0  0  0  0  0  0  0  0  0  0  0  0
  -51.0615   58.2947   62.0861 C   0  0  0  0  0  0  0  0  0  0  0  0
  -51.0352   57.2836   60.9418 C   0  0  0  0  0  0  0  0  0  0  0  0
  -49.6189   56.8169   60.5515 C   0  0  0  0  0  0  0  0  0  0  0  0
  -49.1297   57.2903   59.1743 C   0  0  0  0  0  0  0  0  0  0  0  0
  -47.6009   57.3675   59.1306 C   0  0  0  0  0  0  0  0  0  0  0  0
  -46.9680   57.4487   57.7528 C   0  0  0  0  0  0  0  0  0  0  0  0
  -39.1672   60.2144   65.5218 C   0  0  0  0  0  0  0  0  0  0  0  0
  -38.5651   61.1383   64.5799 O   0  0  0  0  0  0  0  0  0  0  0  0
  -36.7507   61.6158   62.4220 O   0  0  0  0  0  0  0  0  0  0  0  0
  -35.5594   64.8129   64.8217 O   0  0  0  0  0  0  0  0  0  0  0  0
  -36.9577   62.3649   65.9206 O   0  0  0  0  0  0  0  0  0  0  0  0
  -37.1616   61.5732   64.7251 C   0  0  0  0  0  0  0  0  0  0  0  0
  -36.5863   62.3978   63.5646 C   0  0  0  0  0  0  0  0  0  0  0  0
  -35.0842   62.7219   63.7187 C   0  0  0  0  0  0  0  0  0  0  0  0
  -34.9558   63.5312   64.9795 C   0  0  0  0  0  0  0  0  0  0  0  0
  -35.5818   62.7780   66.1394 C   0  0  0  0  0  0  0  0  0  0  0  0
  -37.6900   61.4021   62.3088 H   0  0  0  0  0  0  0  0  0  0  0  0
  -35.1451   65.2758   64.0768 H   0  0  0  0  0  0  0  0  0  0  0  0
  -36.5299   63.8776   68.0381 O   0  0  0  0  0  0  0  0  0  0  0  0
  -35.3577   63.7570   67.2897 C   0  0  0  0  0  0  0  0  0  0  0  0
  -36.3850   64.4998   68.7681 H   0  0  0  0  0  0  0  0  0  0  0  0
  -34.4965   63.5208   62.6668 O   0  0  0  0  0  0  0  0  0  0  0  0
  -32.3918   63.6576   61.1607 O   0  0  0  0  0  0  0  0  0  0  0  0
  -32.1835   62.8451   63.4378 O   0  0  0  0  0  0  0  0  0  0  0  0
  -32.4916   65.2110   63.0109 O   0  0  0  0  0  0  0  0  0  0  0  0
  -32.8654   63.8388   62.5648 S   0  0  0  0  0  0  0  0  0  0  0  0
  -32.6266   62.7684   60.8524 H   0  0  0  0  0  0  0  0  0  0  0  0
  -32.9321   65.8656   62.4468 H   0  0  0  0  0  0  0  0  0  0  0  0
  2  1  1  0  0  0
  2  4  1  0  0  0
  2  5  1  0  0  0
 41 42  1  0  0  0
 41  1  1  0  0  0
 42 46  1  0  0  0
  1 24  1  0  0  0
 23 24  1  0  0  0
 23 25  1  0  0  0
 24 26  1  0  0  0
  3  4  2  0  0  0
 26 27  2  0  0  0
 27 28  1  0  0  0
 43 47  1  0  0  0
 43 51  1  0  0  0
 28 29  1  0  0  0
 56 48  1  0  0  0
 56 60  1  0  0  0
 29 30  1  0  0  0
 57 60  1  0  0  0
 57 61  1  0  0  0
 30 31  1  0  0  0
 44 49  1  0  0  0
 44 52  1  0  0  0
 31 32  1  0  0  0
 45 46  1  0  0  0
 45 50  1  0  0  0
 32 33  1  0  0  0
 53 54  1  0  0  0
 53 55  1  0  0  0
 33 34  1  0  0  0
 34 35  1  0  0  0
 35 36  1  0  0  0
 58 60  1  0  0  0
 36 37  1  0  0  0
 59 60  1  0  0  0
 59 62  1  0  0  0
 37 38  1  0  0  0
 38 39  1  0  0  0
 39 40  1  0  0  0
  4  6  1  0  0  0
  6  7  1  0  0  0
  7  8  1  0  0  0
  8  9  1  0  0  0
  9 10  1  0  0  0
 10 11  1  0  0  0
 11 12  1  0  0  0
 12 13  1  0  0  0
 13 14  1  0  0  0
 14 15  1  0  0  0
 15 16  1  0  0  0
 16 17  1  0  0  0
 17 18  1  0  0  0
 18 19  1  0  0  0
 19 20  1  0  0  0
 20 21  1  0  0  0
 21 22  1  0  0  0
 46 47  1  0  0  0
 47 48  1  0  0  0
 48 49  1  0  0  0
 49 50  1  0  0  0
 50 54  1  0  0  0
M  CHG 1  58  -1
M  END
> <minimizedAffinity>
-9.76535

> <CNNscore>
0.3146112859

> <CNNaffinity>
7.2461662292

> <CNN_VS>
2.2797257900

> <CNNaffinity_variance>
1.1191570759

$$$$
/media/chris/experiments/cd1a-new-docking/inputs/ligands/1onq_ligand.pdb


 62 62  0  0  0  0  0  0  0  0999 V2000
  -40.0891   59.2764   64.5291 C   0  0  0  0  0  0  0  0  0  0  0  0
  -40.0578   59.2741   63.0799 N   0  0  0  0  0  0  0  0  0  0  0  0
  -40.7723   61.3702   62.5863 O   0  0  0  0  0  0  0  0  0  0  0  0
  -40.3846   60.2698   62.2447 C   0  0  0  0  0  0  0  0  0  0  0  0
  -39.7594   58.4369   62.6565 H   0  0  0  0  0  0  0  0  0  0  0  0
  -40.2352   59.9535   60.7861 C   0  0  0  0  0  0  0  0  0  0  0  0
  -38.7734   60.2260   60.4311 C   0  0  0  0  0  0  0  0  0  0  0  0
  -38.3067   59.2478   59.3559 C   0  0  0  0  0  0  0  0  0  0  0  0
  -37.7826   57.9208   59.8487 C   0  0  0  0  0  0  0  0  0  0  0  0
  -36.8826   58.1976   61.0484 C   0  0  0  0  0  0  0  0  0  0  0  0
  -37.2024   57.2978   62.2497 C   0  0  0  0  0  0  0  0  0  0  0  0
  -36.7958   57.8921   63.6106 C   0  0  0  0  0  0  0  0  0  0  0  0
  -35.7343   57.0427   64.3436 C   0  0  0  0  0  0  0  0  0  0  0  0
  -34.4789   57.8730   64.6257 C   0  0  0  0  0  0  0  0  0  0  0  0
  -34.3088   59.1046   63.7445 C   0  0  0  0  0  0  0  0  0  0  0  0
  -33.1142   58.9852   62.8098 C   0  0  0  0  0  0  0  0  0  0  0  0
  -32.7109   57.5628   62.4145 C   0  0  0  0  0  0  0  0  0  0  0  0
  -33.3962   57.2226   61.0979 C   0  0  0  0  0  0  0  0  0  0  0  0
  -34.0884   55.8743   60.9631 C   0  0  0  0  0  0  0  0  0  0  0  0
  -34.2840   55.5020   59.4849 C   0  0  0  0  0  0  0  0  0  0  0  0
  -33.9194   56.6202   58.4910 C   0  0  0  0  0  0  0  0  0  0  0  0
  -35.1330   57.2195   57.7842 C   0  0  0  0  0  0  0  0  0  0  0  0
  -41.1423   60.9876   65.6946 O   0  0  0  0  0  0  0  0  0  0  0  0
  -41.4381   59.9066   64.8300 C   0  0  0  0  0  0  0  0  0  0  0  0
  -40.5670   61.6200   65.2364 H   0  0  0  0  0  0  0  0  0  0  0  0
  -42.3457   58.8686   65.4942 C   0  0  0  0  0  0  0  0  0  0  0  0
  -43.6556   58.7562   65.2152 C   0  0  0  0  0  0  0  0  0  0  0  0
  -44.4951   57.6938   65.9223 C   0  0  0  0  0  0  0  0  0  0  0  0
  -46.0081   57.9455   65.8472 C   0  0  0  0  0  0  0  0  0  0  0  0
  -46.4272   59.3715   65.4446 C   0  0  0  0  0  0  0  0  0  0  0  0
  -47.8698   59.3824   64.8839 C   0  0  0  0  0  0  0  0  0  0  0  0
  -48.7982   58.2655   65.4244 C   0  0  0  0  0  0  0  0  0  0  0  0
  -50.2894   58.4475   65.0556 C   0  0  0  0  0  0  0  0  0  0  0  0
  -50.5702   59.7213   64.2293 C   0  0  0  0  0  0  0  0  0  0  0  0
  -51.1762   59.4411   62.8489 C   0  0  0  0  0  0  0  0  0  0  0  0
  -50.9410   58.0418   62.2840 C   0  0  0  0  0  0  0  0  0  0  0  0
  -49.7583   57.9550   61.2992 C   0  0  0  0  0  0  0  0  0  0  0  0
  -50.1087   57.4265   59.8999 C   0  0  0  0  0  0  0  0  0  0  0  0
  -48.8426   57.1391   59.0879 C   0  0  0  0  0  0  0  0  0  0  0  0
  -48.2863   55.7293   59.1809 C   0  0  0  0  0  0  0  0  0  0  0  0
  -38.8550   59.8990   65.2206 C   0  0  0  0  0  0  0  0  0  0  0  0
  -38.3822   61.1624   64.6882 O   0  0  0  0  0  0  0  0  0  0  0  0
  -36.5299   61.3881   62.5214 O   0  0  0  0  0  0  0  0  0  0  0  0
  -35.2615   64.7476   64.6434 O   0  0  0  0  0  0  0  0  0  0  0  0
  -36.7504   62.4527   65.9364 O   0  0  0  0  0  0  0  0  0  0  0  0
  -36.9669   61.5642   64.8133 C   0  0  0  0  0  0  0  0  0  0  0  0
  -36.3526   62.2634   63.5921 C   0  0  0  0  0  0  0  0  0  0  0  0
  -34.8425   62.5526   63.7373 C   0  0  0  0  0  0  0  0  0  0  0  0
  -34.7016   63.4668   64.9229 C   0  0  0  0  0  0  0  0  0  0  0  0
  -35.3643   62.8403   66.1364 C   0  0  0  0  0  0  0  0  0  0  0  0
  -37.4744   61.1947   62.4147 H   0  0  0  0  0  0  0  0  0  0  0  0
  -34.8243   65.1290   63.8661 H   0  0  0  0  0  0  0  0  0  0  0  0
  -36.2459   64.0231   68.0171 O   0  0  0  0  0  0  0  0  0  0  0  0
  -35.1210   63.9105   67.1981 C   0  0  0  0  0  0  0  0  0  0  0  0
  -36.0888   64.7033   68.6906 H   0  0  0  0  0  0  0  0  0  0  0  0
  -34.2177   63.2355   62.6268 O   0  0  0  0  0  0  0  0  0  0  0  0
  -31.8487   62.1910   62.5101 O   0  0  0  0  0  0  0  0  0  0  0  0
  -32.1872   64.2564   63.7383 O   0  0  0  0  0  0  0  0  0  0  0  0
  -32.1669   64.2685   61.3146 O   0  0  0  0  0  0  0  0  0  0  0  0
  -32.5765   63.4945   62.5208 S   0  0  0  0  0  0  0  0  0  0  0  0
  -32.1030   61.6723   63.2893 H   0  0  0  0  0  0  0  0  0  0  0  0
  -32.4171   63.7786   60.5157 H   0  0  0  0  0  0  0  0  0  0  0  0
  2  1  1  0  0  0
  2  4  1  0  0  0
  2  5  1  0  0  0
 41 42  1  0  0  0
 41  1  1  0  0  0
 42 46  1  0  0  0
  1 24  1  0  0  0
 23 24  1  0  0  0
 23 25  1  0  0  0
 24 26  1  0  0  0
  3  4  2  0  0  0
 26 27  2  0  0  0
 27 28  1  0  0  0
 43 47  1  0  0  0
 43 51  1  0  0  0
 28 29  1  0  0  0
 56 48  1  0  0  0
 56 60  1  0  0  0
 29 30  1  0  0  0
 57 60  1  0  0  0
 57 61  1  0  0  0
 30 31  1  0  0  0
 44 49  1  0  0  0
 44 52  1  0  0  0
 31 32  1  0  0  0
 45 46  1  0  0  0
 45 50  1  0  0  0
 32 33  1  0  0  0
 53 54  1  0  0  0
 53 55  1  0  0  0
 33 34  1  0  0  0
 34 35  1  0  0  0
 35 36  1  0  0  0
 58 60  1  0  0  0
 36 37  1  0  0  0
 59 60  1  0  0  0
 59 62  1  0  0  0
 37 38  1  0  0  0
 38 39  1  0  0  0
 39 40  1  0  0  0
  4  6  1  0  0  0
  6  7  1  0  0  0
  7  8  1  0  0  0
  8  9  1  0  0  0
  9 10  1  0  0  0
 10 11  1  0  0  0
 11 12  1  0  0  0
 12 13  1  0  0  0
 13 14  1  0  0  0
 14 15  1  0  0  0
 15 16  1  0  0  0
 16 17  1  0  0  0
 17 18  1  0  0  0
 18 19  1  0  0  0
 19 20  1  0  0  0
 20 21  1  0  0  0
 21 22  1  0  0  0
 46 47  1  0  0  0
 47 48  1  0  0  0
 48 49  1  0  0  0
 49 50  1  0  0  0
 50 54  1  0  0  0
M  CHG 1  58  -1
M  END
> <minimizedAffinity>
-9.50893

> <CNNscore>
0.2744349241

> <CNNaffinity>
7.2976083755

> <CNN_VS>
2.0027186871

> <CNNaffinity_variance>
0.9859679341

$$$$
/media/chris/experiments/cd1a-new-docking/inputs/ligands/1onq_ligand.pdb


 62 62  0  0  0  0  0  0  0  0999 V2000
  -39.4783   59.6744   65.3854 C   0  0  0  0  0  0  0  0  0  0  0  0
  -39.2859   59.7488   63.9506 N   0  0  0  0  0  0  0  0  0  0  0  0
  -40.7861   61.3422   63.3524 O   0  0  0  0  0  0  0  0  0  0  0  0
  -39.9195   60.5372   63.0717 C   0  0  0  0  0  0  0  0  0  0  0  0
  -38.6050   59.1449   63.5751 H   0  0  0  0  0  0  0  0  0  0  0  0
  -39.4832   60.3814   61.6451 C   0  0  0  0  0  0  0  0  0  0  0  0
  -37.9626   60.2258   61.6716 C   0  0  0  0  0  0  0  0  0  0  0  0
  -37.5458   59.0291   60.8200 C   0  0  0  0  0  0  0  0  0  0  0  0
  -38.2510   57.7275   61.1145 C   0  0  0  0  0  0  0  0  0  0  0  0
  -37.9093   57.3322   62.5473 C   0  0  0  0  0  0  0  0  0  0  0  0
  -36.4118   57.0625   62.7470 C   0  0  0  0  0  0  0  0  0  0  0  0
  -35.9239   57.2468   64.1956 C   0  0  0  0  0  0  0  0  0  0  0  0
  -34.9290   58.4181   64.3495 C   0  0  0  0  0  0  0  0  0  0  0  0
  -34.5811   59.0143   62.9825 C   0  0  0  0  0  0  0  0  0  0  0  0
  -33.1076   58.9374   62.6015 C   0  0  0  0  0  0  0  0  0  0  0  0
  -32.4978   57.5813   62.9244 C   0  0  0  0  0  0  0  0  0  0  0  0
  -32.3422   56.6176   61.7458 C   0  0  0  0  0  0  0  0  0  0  0  0
  -33.7253   56.1108   61.3599 C   0  0  0  0  0  0  0  0  0  0  0  0
  -34.1541   56.1991   59.9027 C   0  0  0  0  0  0  0  0  0  0  0  0
  -35.3997   55.3372   59.6428 C   0  0  0  0  0  0  0  0  0  0  0  0
  -36.3325   55.8780   58.5435 C   0  0  0  0  0  0  0  0  0  0  0  0
  -35.9505   57.2753   58.0607 C   0  0  0  0  0  0  0  0  0  0  0  0
  -40.9984   61.0195   66.5148 O   0  0  0  0  0  0  0  0  0  0  0  0
  -40.9551   59.9956   65.5384 C   0  0  0  0  0  0  0  0  0  0  0  0
  -40.5142   61.7953   66.1915 H   0  0  0  0  0  0  0  0  0  0  0  0
  -41.7035   58.7384   65.9874 C   0  0  0  0  0  0  0  0  0  0  0  0
  -42.9934   58.5083   65.6882 C   0  0  0  0  0  0  0  0  0  0  0  0
  -43.6701   57.2283   66.1748 C   0  0  0  0  0  0  0  0  0  0  0  0
  -45.1818   57.1843   65.9082 C   0  0  0  0  0  0  0  0  0  0  0  0
  -45.7114   58.2217   64.9009 C   0  0  0  0  0  0  0  0  0  0  0  0
  -47.2201   58.4846   65.1251 C   0  0  0  0  0  0  0  0  0  0  0  0
  -48.1485   58.0397   63.9669 C   0  0  0  0  0  0  0  0  0  0  0  0
  -49.5244   58.7463   63.9508 C   0  0  0  0  0  0  0  0  0  0  0  0
  -50.0687   59.0062   62.5295 C   0  0  0  0  0  0  0  0  0  0  0  0
  -51.0861   57.9609   62.0568 C   0  0  0  0  0  0  0  0  0  0  0  0
  -50.7915   57.2968   60.7135 C   0  0  0  0  0  0  0  0  0  0  0  0
  -49.3182   56.8822   60.5300 C   0  0  0  0  0  0  0  0  0  0  0  0
  -48.5150   57.7396   59.5402 C   0  0  0  0  0  0  0  0  0  0  0  0
  -47.3103   56.9671   58.9952 C   0  0  0  0  0  0  0  0  0  0  0  0
  -46.3121   57.7642   58.1744 C   0  0  0  0  0  0  0  0  0  0  0  0
  -38.4889   60.5053   66.2336 C   0  0  0  0  0  0  0  0  0  0  0  0
  -37.1274   60.5919   65.7418 O   0  0  0  0  0  0  0  0  0  0  0  0
  -35.9661   62.4117   67.6171 O   0  0  0  0  0  0  0  0  0  0  0  0
  -33.1496   62.9219   64.5830 O   0  0  0  0  0  0  0  0  0  0  0  0
  -35.9503   61.8980   64.0703 O   0  0  0  0  0  0  0  0  0  0  0  0
  -36.5172   61.8930   65.4030 C   0  0  0  0  0  0  0  0  0  0  0  0
  -35.4045   62.3822   66.3413 C   0  0  0  0  0  0  0  0  0  0  0  0
  -34.8881   63.7985   66.0057 C   0  0  0  0  0  0  0  0  0  0  0  0
  -34.3285   63.7227   64.6120 C   0  0  0  0  0  0  0  0  0  0  0  0
  -35.3797   63.1716   63.6656 C   0  0  0  0  0  0  0  0  0  0  0  0
  -36.2964   61.5288   67.8455 H   0  0  0  0  0  0  0  0  0  0  0  0
  -32.4927   63.2914   65.1936 H   0  0  0  0  0  0  0  0  0  0  0  0
  -35.4587   63.6109   61.3174 O   0  0  0  0  0  0  0  0  0  0  0  0
  -34.6195   63.1676   62.3412 C   0  0  0  0  0  0  0  0  0  0  0  0
  -34.9736   63.6075   60.4774 H   0  0  0  0  0  0  0  0  0  0  0  0
  -33.8195   64.2985   66.8411 O   0  0  0  0  0  0  0  0  0  0  0  0
  -31.4951   65.0312   65.9595 O   0  0  0  0  0  0  0  0  0  0  0  0
  -32.6374   66.4008   67.6052 O   0  0  0  0  0  0  0  0  0  0  0  0
  -33.3755   66.3990   65.2965 O   0  0  0  0  0  0  0  0  0  0  0  0
  -32.8234   65.5557   66.3945 S   0  0  0  0  0  0  0  0  0  0  0  0
  -31.1194   64.4788   66.6628 H   0  0  0  0  0  0  0  0  0  0  0  0
  -33.5000   65.8555   64.5028 H   0  0  0  0  0  0  0  0  0  0  0  0
  2  1  1  0  0  0
  2  4  1  0  0  0
  2  5  1  0  0  0
 41 42  1  0  0  0
 41  1  1  0  0  0
 42 46  1  0  0  0
  1 24  1  0  0  0
 23 24  1  0  0  0
 23 25  1  0  0  0
 24 26  1  0  0  0
  3  4  2  0  0  0
 26 27  2  0  0  0
 27 28  1  0  0  0
 43 47  1  0  0  0
 43 51  1  0  0  0
 28 29  1  0  0  0
 56 48  1  0  0  0
 56 60  1  0  0  0
 29 30  1  0  0  0
 57 60  1  0  0  0
 57 61  1  0  0  0
 30 31  1  0  0  0
 44 49  1  0  0  0
 44 52  1  0  0  0
 31 32  1  0  0  0
 45 46  1  0  0  0
 45 50  1  0  0  0
 32 33  1  0  0  0
 53 54  1  0  0  0
 53 55  1  0  0  0
 33 34  1  0  0  0
 34 35  1  0  0  0
 35 36  1  0  0  0
 58 60  1  0  0  0
 36 37  1  0  0  0
 59 60  1  0  0  0
 59 62  1  0  0  0
 37 38  1  0  0  0
 38 39  1  0  0  0
 39 40  1  0  0  0
  4  6  1  0  0  0
  6  7  1  0  0  0
  7  8  1  0  0  0
  8  9  1  0  0  0
  9 10  1  0  0  0
 10 11  1  0  0  0
 11 12  1  0  0  0
 12 13  1  0  0  0
 13 14  1  0  0  0
 14 15  1  0  0  0
 15 16  1  0  0  0
 16 17  1  0  0  0
 17 18  1  0  0  0
 18 19  1  0  0  0
 19 20  1  0  0  0
 20 21  1  0  0  0
 21 22  1  0  0  0
 46 47  1  0  0  0
 47 48  1  0  0  0
 48 49  1  0  0  0
 49 50  1  0  0  0
 50 54  1  0  0  0
M  CHG 1  58  -1
M  END
> <minimizedAffinity>
-9.25190

> <CNNscore>
0.2651555240

> <CNNaffinity>
7.2512979507

> <CNN_VS>
1.9227217436

> <CNNaffinity_variance>
1.0837543011

$$$$
/media/chris/experiments/cd1a-new-docking/inputs/ligands/1onq_ligand.pdb


 62 62  0  0  0  0  0  0  0  0999 V2000
  -39.9178   59.2621   64.8753 C   0  0  0  0  0  0  0  0  0  0  0  0
  -40.0008   59.3874   63.4336 N   0  0  0  0  0  0  0  0  0  0  0  0
  -40.8092   61.4928   63.1858 O   0  0  0  0  0  0  0  0  0  0  0  0
  -40.4196   60.4404   62.7184 C   0  0  0  0  0  0  0  0  0  0  0  0
  -39.7138   58.6011   62.9154 H   0  0  0  0  0  0  0  0  0  0  0  0
  -40.3770   60.2580   61.2302 C   0  0  0  0  0  0  0  0  0  0  0  0
  -38.9024   60.1143   60.8532 C   0  0  0  0  0  0  0  0  0  0  0  0
  -38.7777   59.5138   59.4551 C   0  0  0  0  0  0  0  0  0  0  0  0
  -37.4431   58.8959   59.1152 C   0  0  0  0  0  0  0  0  0  0  0  0
  -37.6391   58.0284   57.8762 C   0  0  0  0  0  0  0  0  0  0  0  0
  -36.7462   56.7804   57.8788 C   0  0  0  0  0  0  0  0  0  0  0  0
  -35.5271   56.8773   58.8141 C   0  0  0  0  0  0  0  0  0  0  0  0
  -35.2099   55.5444   59.5271 C   0  0  0  0  0  0  0  0  0  0  0  0
  -34.4781   55.7993   60.8479 C   0  0  0  0  0  0  0  0  0  0  0  0
  -33.6213   57.0592   60.8778 C   0  0  0  0  0  0  0  0  0  0  0  0
  -32.7538   57.1381   62.1253 C   0  0  0  0  0  0  0  0  0  0  0  0
  -32.8157   58.4543   62.9036 C   0  0  0  0  0  0  0  0  0  0  0  0
  -34.2687   58.7208   63.2730 C   0  0  0  0  0  0  0  0  0  0  0  0
  -34.8751   57.9599   64.4429 C   0  0  0  0  0  0  0  0  0  0  0  0
  -36.1826   57.2661   64.0291 C   0  0  0  0  0  0  0  0  0  0  0  0
  -36.8211   57.8220   62.7429 C   0  0  0  0  0  0  0  0  0  0  0  0
  -37.8381   56.8722   62.1142 C   0  0  0  0  0  0  0  0  0  0  0  0
  -40.7725   60.9754   66.1905 O   0  0  0  0  0  0  0  0  0  0  0  0
  -41.2014   59.9285   65.3399 C   0  0  0  0  0  0  0  0  0  0  0  0
  -40.2293   61.6004   65.6854 H   0  0  0  0  0  0  0  0  0  0  0  0
  -42.0663   58.9038   66.0776 C   0  0  0  0  0  0  0  0  0  0  0  0
  -42.8936   58.0539   65.4455 C   0  0  0  0  0  0  0  0  0  0  0  0
  -43.7256   57.0601   66.2540 C   0  0  0  0  0  0  0  0  0  0  0  0
  -45.2300   57.1180   65.9517 C   0  0  0  0  0  0  0  0  0  0  0  0
  -46.0846   57.8973   66.9684 C   0  0  0  0  0  0  0  0  0  0  0  0
  -46.5079   59.2701   66.3923 C   0  0  0  0  0  0  0  0  0  0  0  0
  -48.0079   59.3997   66.0255 C   0  0  0  0  0  0  0  0  0  0  0  0
  -48.7544   58.0487   65.9244 C   0  0  0  0  0  0  0  0  0  0  0  0
  -50.2434   58.1929   65.5423 C   0  0  0  0  0  0  0  0  0  0  0  0
  -50.5570   59.4670   64.7488 C   0  0  0  0  0  0  0  0  0  0  0  0
  -51.1766   59.2623   63.3680 C   0  0  0  0  0  0  0  0  0  0  0  0
  -50.5803   58.0767   62.5839 C   0  0  0  0  0  0  0  0  0  0  0  0
  -49.9831   58.4318   61.2137 C   0  0  0  0  0  0  0  0  0  0  0  0
  -50.3291   57.3659   60.1702 C   0  0  0  0  0  0  0  0  0  0  0  0
  -49.2278   56.9951   59.1928 C   0  0  0  0  0  0  0  0  0  0  0  0
  -38.6001   59.7591   65.5120 C   0  0  0  0  0  0  0  0  0  0  0  0
  -38.2417   61.1423   65.2639 O   0  0  0  0  0  0  0  0  0  0  0  0
  -36.4986   61.1323   62.9971 O   0  0  0  0  0  0  0  0  0  0  0  0
  -35.2097   64.7478   64.6297 O   0  0  0  0  0  0  0  0  0  0  0  0
  -36.5832   62.6035   66.2639 O   0  0  0  0  0  0  0  0  0  0  0  0
  -36.8317   61.5805   65.2693 C   0  0  0  0  0  0  0  0  0  0  0  0
  -36.2915   62.1352   63.9433 C   0  0  0  0  0  0  0  0  0  0  0  0
  -34.7833   62.4657   63.9777 C   0  0  0  0  0  0  0  0  0  0  0  0
  -34.6080   63.5206   65.0348 C   0  0  0  0  0  0  0  0  0  0  0  0
  -35.1986   63.0364   66.3468 C   0  0  0  0  0  0  0  0  0  0  0  0
  -37.4424   60.9112   62.9614 H   0  0  0  0  0  0  0  0  0  0  0  0
  -34.8183   65.0384   63.7911 H   0  0  0  0  0  0  0  0  0  0  0  0
  -33.6584   64.7451   66.9957 O   0  0  0  0  0  0  0  0  0  0  0  0
  -34.9304   64.2327   67.2571 C   0  0  0  0  0  0  0  0  0  0  0  0
  -33.4905   65.5048   67.5750 H   0  0  0  0  0  0  0  0  0  0  0  0
  -34.2271   63.0179   62.7629 O   0  0  0  0  0  0  0  0  0  0  0  0
  -32.3101   64.0702   61.3719 O   0  0  0  0  0  0  0  0  0  0  0  0
  -32.1976   61.7243   61.9828 O   0  0  0  0  0  0  0  0  0  0  0  0
  -31.7684   63.4382   63.6420 O   0  0  0  0  0  0  0  0  0  0  0  0
  -32.5925   63.0799   62.4529 S   0  0  0  0  0  0  0  0  0  0  0  0
  -32.8386   63.8528   60.5881 H   0  0  0  0  0  0  0  0  0  0  0  0
  -32.0195   64.3212   63.9553 H   0  0  0  0  0  0  0  0  0  0  0  0
  2  1  1  0  0  0
  2  4  1  0  0  0
  2  5  1  0  0  0
 41 42  1  0  0  0
 41  1  1  0  0  0
 42 46  1  0  0  0
  1 24  1  0  0  0
 23 24  1  0  0  0
 23 25  1  0  0  0
 24 26  1  0  0  0
  3  4  2  0  0  0
 26 27  2  0  0  0
 27 28  1  0  0  0
 43 47  1  0  0  0
 43 51  1  0  0  0
 28 29  1  0  0  0
 56 48  1  0  0  0
 56 60  1  0  0  0
 29 30  1  0  0  0
 57 60  1  0  0  0
 57 61  1  0  0  0
 30 31  1  0  0  0
 44 49  1  0  0  0
 44 52  1  0  0  0
 31 32  1  0  0  0
 45 46  1  0  0  0
 45 50  1  0  0  0
 32 33  1  0  0  0
 53 54  1  0  0  0
 53 55  1  0  0  0
 33 34  1  0  0  0
 34 35  1  0  0  0
 35 36  1  0  0  0
 58 60  1  0  0  0
 36 37  1  0  0  0
 59 60  1  0  0  0
 59 62  1  0  0  0
 37 38  1  0  0  0
 38 39  1  0  0  0
 39 40  1  0  0  0
  4  6  1  0  0  0
  6  7  1  0  0  0
  7  8  1  0  0  0
  8  9  1  0  0  0
  9 10  1  0  0  0
 10 11  1  0  0  0
 11 12  1  0  0  0
 12 13  1  0  0  0
 13 14  1  0  0  0
 14 15  1  0  0  0
 15 16  1  0  0  0
 16 17  1  0  0  0
 17 18  1  0  0  0
 18 19  1  0  0  0
 19 20  1  0  0  0
 20 21  1  0  0  0
 21 22  1  0  0  0
 46 47  1  0  0  0
 47 48  1  0  0  0
 48 49  1  0  0  0
 49 50  1  0  0  0
 50 54  1  0  0  0
M  CHG 1  58  -1
M  END
> <minimizedAffinity>
-9.61721

> <CNNscore>
0.2639040053

> <CNNaffinity>
7.2634582520

> <CNN_VS>
1.9168556929

> <CNNaffinity_variance>
1.4438062906

$$$$
/media/chris/experiments/cd1a-new-docking/inputs/ligands/1onq_ligand.pdb


 62 62  0  0  0  0  0  0  0  0999 V2000
  -36.3097   60.3899   62.7255 C   0  0  0  0  0  0  0  0  0  0  0  0
  -37.6728   60.3888   62.2323 N   0  0  0  0  0  0  0  0  0  0  0  0
  -37.3992   59.7181   60.0823 O   0  0  0  0  0  0  0  0  0  0  0  0
  -38.1075   60.0695   61.0057 C   0  0  0  0  0  0  0  0  0  0  0  0
  -38.3654   60.6559   62.8791 H   0  0  0  0  0  0  0  0  0  0  0  0
  -39.5920   60.1612   60.8113 C   0  0  0  0  0  0  0  0  0  0  0  0
  -39.8290   60.2109   59.3018 C   0  0  0  0  0  0  0  0  0  0  0  0
  -41.2754   59.8357   58.9884 C   0  0  0  0  0  0  0  0  0  0  0  0
  -41.5046   59.1068   57.6866 C   0  0  0  0  0  0  0  0  0  0  0  0
  -42.9025   59.4685   57.1959 C   0  0  0  0  0  0  0  0  0  0  0  0
  -43.9077   58.3224   57.3721 C   0  0  0  0  0  0  0  0  0  0  0  0
  -44.4370   58.1611   58.8089 C   0  0  0  0  0  0  0  0  0  0  0  0
  -45.8659   57.5771   58.8604 C   0  0  0  0  0  0  0  0  0  0  0  0
  -46.5649   57.7400   57.5076 C   0  0  0  0  0  0  0  0  0  0  0  0
  -47.5934   56.6645   57.1794 C   0  0  0  0  0  0  0  0  0  0  0  0
  -48.3703   56.2146   58.4078 C   0  0  0  0  0  0  0  0  0  0  0  0
  -49.4734   57.1606   58.8879 C   0  0  0  0  0  0  0  0  0  0  0  0
  -49.8077   56.8080   60.3310 C   0  0  0  0  0  0  0  0  0  0  0  0
  -51.1140   57.3171   60.9223 C   0  0  0  0  0  0  0  0  0  0  0  0
  -50.8974   57.8698   62.3399 C   0  0  0  0  0  0  0  0  0  0  0  0
  -50.8196   59.4055   62.4216 C   0  0  0  0  0  0  0  0  0  0  0  0
  -49.3895   59.9401   62.3959 C   0  0  0  0  0  0  0  0  0  0  0  0
  -36.0969   58.0957   62.4305 O   0  0  0  0  0  0  0  0  0  0  0  0
  -36.2215   59.0618   63.4575 C   0  0  0  0  0  0  0  0  0  0  0  0
  -35.2837   58.2609   61.9282 H   0  0  0  0  0  0  0  0  0  0  0  0
  -37.4887   58.8572   64.2910 C   0  0  0  0  0  0  0  0  0  0  0  0
  -38.4012   57.9098   64.0151 C   0  0  0  0  0  0  0  0  0  0  0  0
  -39.6418   57.7697   64.8953 C   0  0  0  0  0  0  0  0  0  0  0  0
  -40.1210   59.0932   65.5092 C   0  0  0  0  0  0  0  0  0  0  0  0
  -41.6396   59.3424   65.4536 C   0  0  0  0  0  0  0  0  0  0  0  0
  -42.2649   59.2420   66.8658 C   0  0  0  0  0  0  0  0  0  0  0  0
  -42.9261   57.8814   67.2016 C   0  0  0  0  0  0  0  0  0  0  0  0
  -43.1642   56.9724   65.9729 C   0  0  0  0  0  0  0  0  0  0  0  0
  -44.6413   56.9105   65.5274 C   0  0  0  0  0  0  0  0  0  0  0  0
  -45.0792   58.1055   64.6723 C   0  0  0  0  0  0  0  0  0  0  0  0
  -45.5911   59.3254   65.4355 C   0  0  0  0  0  0  0  0  0  0  0  0
  -47.0947   59.6017   65.2379 C   0  0  0  0  0  0  0  0  0  0  0  0
  -48.0236   58.9335   66.2629 C   0  0  0  0  0  0  0  0  0  0  0  0
  -48.9473   57.9164   65.5868 C   0  0  0  0  0  0  0  0  0  0  0  0
  -50.4210   58.0019   65.9423 C   0  0  0  0  0  0  0  0  0  0  0  0
  -35.8869   61.6522   63.5108 C   0  0  0  0  0  0  0  0  0  0  0  0
  -35.6518   62.8522   62.7310 O   0  0  0  0  0  0  0  0  0  0  0  0
  -34.5516   65.1506   64.0287 O   0  0  0  0  0  0  0  0  0  0  0  0
  -31.1215   62.7813   64.1686 O   0  0  0  0  0  0  0  0  0  0  0  0
  -33.3494   62.3313   62.1713 O   0  0  0  0  0  0  0  0  0  0  0  0
  -34.2868   63.3767   62.5261 C   0  0  0  0  0  0  0  0  0  0  0  0
  -33.6639   64.1222   63.7151 C   0  0  0  0  0  0  0  0  0  0  0  0
  -32.2872   64.7483   63.4024 C   0  0  0  0  0  0  0  0  0  0  0  0
  -31.3797   63.6067   63.0354 C   0  0  0  0  0  0  0  0  0  0  0  0
  -31.9992   62.7997   61.9088 C   0  0  0  0  0  0  0  0  0  0  0  0
  -35.4235   64.7754   64.2286 H   0  0  0  0  0  0  0  0  0  0  0  0
  -30.7267   63.3161   64.8749 H   0  0  0  0  0  0  0  0  0  0  0  0
  -31.5094   60.4609   61.9643 O   0  0  0  0  0  0  0  0  0  0  0  0
  -30.9471   61.7119   61.7043 C   0  0  0  0  0  0  0  0  0  0  0  0
  -30.8394   59.7717   61.8337 H   0  0  0  0  0  0  0  0  0  0  0  0
  -31.6415   65.4394   64.4958 O   0  0  0  0  0  0  0  0  0  0  0  0
  -31.1801   65.7519   67.0268 O   0  0  0  0  0  0  0  0  0  0  0  0
  -32.8608   64.1574   66.3043 O   0  0  0  0  0  0  0  0  0  0  0  0
  -33.3206   66.5356   66.2203 O   0  0  0  0  0  0  0  0  0  0  0  0
  -32.2682   65.4961   66.0372 S   0  0  0  0  0  0  0  0  0  0  0  0
  -30.4846   65.0837   66.9226 H   0  0  0  0  0  0  0  0  0  0  0  0
  -32.9426   67.4122   66.0480 H   0  0  0  0  0  0  0  0  0  0  0  0
  2  1  1  0  0  0
  2  4  1  0  0  0
  2  5  1  0  0  0
 41 42  1  0  0  0
 41  1  1  0  0  0
 42 46  1  0  0  0
  1 24  1  0  0  0
 23 24  1  0  0  0
 23 25  1  0  0  0
 24 26  1  0  0  0
  3  4  2  0  0  0
 26 27  2  0  0  0
 27 28  1  0  0  0
 43 47  1  0  0  0
 43 51  1  0  0  0
 28 29  1  0  0  0
 56 48  1  0  0  0
 56 60  1  0  0  0
 29 30  1  0  0  0
 57 60  1  0  0  0
 57 61  1  0  0  0
 30 31  1  0  0  0
 44 49  1  0  0  0
 44 52  1  0  0  0
 31 32  1  0  0  0
 45 46  1  0  0  0
 45 50  1  0  0  0
 32 33  1  0  0  0
 53 54  1  0  0  0
 53 55  1  0  0  0
 33 34  1  0  0  0
 34 35  1  0  0  0
 35 36  1  0  0  0
 58 60  1  0  0  0
 36 37  1  0  0  0
 59 60  1  0  0  0
 59 62  1  0  0  0
 37 38  1  0  0  0
 38 39  1  0  0  0
 39 40  1  0  0  0
  4  6  1  0  0  0
  6  7  1  0  0  0
  7  8  1  0  0  0
  8  9  1  0  0  0
  9 10  1  0  0  0
 10 11  1  0  0  0
 11 12  1  0  0  0
 12 13  1  0  0  0
 13 14  1  0  0  0
 14 15  1  0  0  0
 15 16  1  0  0  0
 16 17  1  0  0  0
 17 18  1  0  0  0
 18 19  1  0  0  0
 19 20  1  0  0  0
 20 21  1  0  0  0
 21 22  1  0  0  0
 46 47  1  0  0  0
 47 48  1  0  0  0
 48 49  1  0  0  0
 49 50  1  0  0  0
 50 54  1  0  0  0
M  CHG 1  58  -1
M  END
> <minimizedAffinity>
-8.80805

> <CNNscore>
0.2636705935

> <CNNaffinity>
6.5179862976

> <CNN_VS>
1.7186013460

> <CNNaffinity_variance>
0.7332246900

$$$$
/media/chris/experiments/cd1a-new-docking/inputs/ligands/1onq_ligand.pdb


 62 62  0  0  0  0  0  0  0  0999 V2000
  -39.1867   60.5990   61.7209 C   0  0  0  0  0  0  0  0  0  0  0  0
  -40.2907   59.9821   62.4292 N   0  0  0  0  0  0  0  0  0  0  0  0
  -40.4918   61.3186   64.2515 O   0  0  0  0  0  0  0  0  0  0  0  0
  -40.8437   60.3619   63.5892 C   0  0  0  0  0  0  0  0  0  0  0  0
  -40.6830   59.1847   62.0054 H   0  0  0  0  0  0  0  0  0  0  0  0
  -41.9871   59.5123   64.0589 C   0  0  0  0  0  0  0  0  0  0  0  0
  -41.5742   58.9417   65.4157 C   0  0  0  0  0  0  0  0  0  0  0  0
  -40.5146   57.8590   65.2256 C   0  0  0  0  0  0  0  0  0  0  0  0
  -39.0788   58.3053   65.3586 C   0  0  0  0  0  0  0  0  0  0  0  0
  -38.2765   57.6087   64.2645 C   0  0  0  0  0  0  0  0  0  0  0  0
  -36.8292   57.3185   64.6840 C   0  0  0  0  0  0  0  0  0  0  0  0
  -35.8703   58.5109   64.5131 C   0  0  0  0  0  0  0  0  0  0  0  0
  -34.4073   58.0757   64.2772 C   0  0  0  0  0  0  0  0  0  0  0  0
  -33.8024   58.8349   63.0927 C   0  0  0  0  0  0  0  0  0  0  0  0
  -33.3717   57.9626   61.9197 C   0  0  0  0  0  0  0  0  0  0  0  0
  -34.5131   57.1110   61.3839 C   0  0  0  0  0  0  0  0  0  0  0  0
  -35.8356   57.8403   61.1362 C   0  0  0  0  0  0  0  0  0  0  0  0
  -36.8217   56.8467   60.5367 C   0  0  0  0  0  0  0  0  0  0  0  0
  -36.2777   55.6674   59.7440 C   0  0  0  0  0  0  0  0  0  0  0  0
  -36.2811   55.9693   58.2371 C   0  0  0  0  0  0  0  0  0  0  0  0
  -35.4876   57.2264   57.8359 C   0  0  0  0  0  0  0  0  0  0  0  0
  -33.9780   57.0006   57.7957 C   0  0  0  0  0  0  0  0  0  0  0  0
  -38.0240   60.3202   59.7294 O   0  0  0  0  0  0  0  0  0  0  0  0
  -39.1675   59.8351   60.4081 C   0  0  0  0  0  0  0  0  0  0  0  0
  -37.2302   60.1205   60.2498 H   0  0  0  0  0  0  0  0  0  0  0  0
  -40.4591   60.1189   59.6376 C   0  0  0  0  0  0  0  0  0  0  0  0
  -40.8145   59.4440   58.5310 C   0  0  0  0  0  0  0  0  0  0  0  0
  -42.1207   59.7878   57.8175 C   0  0  0  0  0  0  0  0  0  0  0  0
  -42.6636   58.6548   56.9345 C   0  0  0  0  0  0  0  0  0  0  0  0
  -44.1365   58.2729   57.1711 C   0  0  0  0  0  0  0  0  0  0  0  0
  -44.4475   58.1955   58.6853 C   0  0  0  0  0  0  0  0  0  0  0  0
  -45.8125   57.5582   59.0487 C   0  0  0  0  0  0  0  0  0  0  0  0
  -46.8277   57.5270   57.8821 C   0  0  0  0  0  0  0  0  0  0  0  0
  -47.9499   56.4827   58.0678 C   0  0  0  0  0  0  0  0  0  0  0  0
  -49.2833   57.0840   58.5277 C   0  0  0  0  0  0  0  0  0  0  0  0
  -49.3095   57.6546   59.9441 C   0  0  0  0  0  0  0  0  0  0  0  0
  -50.4530   57.1046   60.8193 C   0  0  0  0  0  0  0  0  0  0  0  0
  -50.9867   58.0743   61.8846 C   0  0  0  0  0  0  0  0  0  0  0  0
  -49.9967   58.2164   63.0442 C   0  0  0  0  0  0  0  0  0  0  0  0
  -50.5760   58.6578   64.3765 C   0  0  0  0  0  0  0  0  0  0  0  0
  -37.8563   60.6810   62.5035 C   0  0  0  0  0  0  0  0  0  0  0  0
  -36.9858   61.7969   62.1870 O   0  0  0  0  0  0  0  0  0  0  0  0
  -34.7344   63.4169   61.4914 O   0  0  0  0  0  0  0  0  0  0  0  0
  -35.4844   65.1383   65.2160 O   0  0  0  0  0  0  0  0  0  0  0  0
  -36.4084   62.3536   64.4766 O   0  0  0  0  0  0  0  0  0  0  0  0
  -35.9234   62.2269   63.1178 C   0  0  0  0  0  0  0  0  0  0  0  0
  -35.2324   63.5574   62.7861 C   0  0  0  0  0  0  0  0  0  0  0  0
  -34.0537   63.8952   63.7252 C   0  0  0  0  0  0  0  0  0  0  0  0
  -34.6345   63.9989   65.1083 C   0  0  0  0  0  0  0  0  0  0  0  0
  -35.3910   62.7266   65.4447 C   0  0  0  0  0  0  0  0  0  0  0  0
  -35.4622   63.2042   60.8864 H   0  0  0  0  0  0  0  0  0  0  0  0
  -34.9816   65.9385   64.9974 H   0  0  0  0  0  0  0  0  0  0  0  0
  -37.0163   63.8694   66.7733 O   0  0  0  0  0  0  0  0  0  0  0  0
  -35.8962   63.0399   66.8512 C   0  0  0  0  0  0  0  0  0  0  0  0
  -37.3353   64.0669   67.6678 H   0  0  0  0  0  0  0  0  0  0  0  0
  -33.3837   65.1517   63.4754 O   0  0  0  0  0  0  0  0  0  0  0  0
  -31.8708   66.5470   65.0505 O   0  0  0  0  0  0  0  0  0  0  0  0
  -31.0872   65.9889   62.8226 O   0  0  0  0  0  0  0  0  0  0  0  0
  -31.1271   64.2992   64.5598 O   0  0  0  0  0  0  0  0  0  0  0  0
  -31.8399   65.4838   64.0028 S   0  0  0  0  0  0  0  0  0  0  0  0
  -32.3318   67.3276   64.7055 H   0  0  0  0  0  0  0  0  0  0  0  0
  -31.6114   63.9632   65.3302 H   0  0  0  0  0  0  0  0  0  0  0  0
  2  1  1  0  0  0
  2  4  1  0  0  0
  2  5  1  0  0  0
 41 42  1  0  0  0
 41  1  1  0  0  0
 42 46  1  0  0  0
  1 24  1  0  0  0
 23 24  1  0  0  0
 23 25  1  0  0  0
 24 26  1  0  0  0
  3  4  2  0  0  0
 26 27  2  0  0  0
 27 28  1  0  0  0
 43 47  1  0  0  0
 43 51  1  0  0  0
 28 29  1  0  0  0
 56 48  1  0  0  0
 56 60  1  0  0  0
 29 30  1  0  0  0
 57 60  1  0  0  0
 57 61  1  0  0  0
 30 31  1  0  0  0
 44 49  1  0  0  0
 44 52  1  0  0  0
 31 32  1  0  0  0
 45 46  1  0  0  0
 45 50  1  0  0  0
 32 33  1  0  0  0
 53 54  1  0  0  0
 53 55  1  0  0  0
 33 34  1  0  0  0
 34 35  1  0  0  0
 35 36  1  0  0  0
 58 60  1  0  0  0
 36 37  1  0  0  0
 59 60  1  0  0  0
 59 62  1  0  0  0
 37 38  1  0  0  0
 38 39  1  0  0  0
 39 40  1  0  0  0
  4  6  1  0  0  0
  6  7  1  0  0  0
  7  8  1  0  0  0
  8  9  1  0  0  0
  9 10  1  0  0  0
 10 11  1  0  0  0
 11 12  1  0  0  0
 12 13  1  0  0  0
 13 14  1  0  0  0
 14 15  1  0  0  0
 15 16  1  0  0  0
 16 17  1  0  0  0
 17 18  1  0  0  0
 18 19  1  0  0  0
 19 20  1  0  0  0
 20 21  1  0  0  0
 21 22  1  0  0  0
 46 47  1  0  0  0
 47 48  1  0  0  0
 48 49  1  0  0  0
 49 50  1  0  0  0
 50 54  1  0  0  0
M  CHG 1  58  -1
M  END
> <minimizedAffinity>
-9.00167

> <CNNscore>
0.2607739866

> <CNNaffinity>
7.0975289345

> <CNN_VS>
1.8508509398

> <CNNaffinity_variance>
0.8821817636

$$$$
