/media/chris/experiments/cd1a-new-docking/inputs/ligands/1onq_ligand.pdb


 62 62  0  0  0  0  0  0  0  0999 V2000
  -36.9694   59.5102   63.3892 C   0  0  0  0  0  0  0  0  0  0  0  0
  -35.9206   59.3041   62.4102 N   0  0  0  0  0  0  0  0  0  0  0  0
  -34.7504   58.0793   60.9008 O   0  0  0  0  0  0  0  0  0  0  0  0
  -35.6562   58.1969   61.7031 C   0  0  0  0  0  0  0  0  0  0  0  0
  -35.3289   60.0731   62.2440 H   0  0  0  0  0  0  0  0  0  0  0  0
  -36.5732   57.0392   61.9646 C   0  0  0  0  0  0  0  0  0  0  0  0
  -37.7567   57.1997   61.0103 C   0  0  0  0  0  0  0  0  0  0  0  0
  -37.2522   57.4367   59.5889 C   0  0  0  0  0  0  0  0  0  0  0  0
  -37.9950   58.4770   58.7861 C   0  0  0  0  0  0  0  0  0  0  0  0
  -38.4117   59.5877   59.7446 C   0  0  0  0  0  0  0  0  0  0  0  0
  -39.9038   59.9311   59.6414 C   0  0  0  0  0  0  0  0  0  0  0  0
  -40.5380   59.5912   58.2802 C   0  0  0  0  0  0  0  0  0  0  0  0
  -42.0800   59.5238   58.3364 C   0  0  0  0  0  0  0  0  0  0  0  0
  -42.6350   58.8139   57.0982 C   0  0  0  0  0  0  0  0  0  0  0  0
  -44.1060   58.4251   57.1830 C   0  0  0  0  0  0  0  0  0  0  0  0
  -44.5332   58.0886   58.6041 C   0  0  0  0  0  0  0  0  0  0  0  0
  -45.9844   57.6351   58.7790 C   0  0  0  0  0  0  0  0  0  0  0  0
  -46.6070   57.4889   57.3971 C   0  0  0  0  0  0  0  0  0  0  0  0
  -47.7750   56.5297   57.2212 C   0  0  0  0  0  0  0  0  0  0  0  0
  -48.9134   56.8645   58.1980 C   0  0  0  0  0  0  0  0  0  0  0  0
  -48.8902   56.0547   59.5074 C   0  0  0  0  0  0  0  0  0  0  0  0
  -49.9877   56.4607   60.4882 C   0  0  0  0  0  0  0  0  0  0  0  0
  -37.0229   61.8322   63.3586 O   0  0  0  0  0  0  0  0  0  0  0  0
  -37.7109   60.7131   62.8317 C   0  0  0  0  0  0  0  0  0  0  0  0
  -36.1049   61.8244   63.0453 H   0  0  0  0  0  0  0  0  0  0  0  0
  -39.1706   60.6656   63.2893 C   0  0  0  0  0  0  0  0  0  0  0  0
  -39.8715   59.5226   63.3827 C   0  0  0  0  0  0  0  0  0  0  0  0
  -41.3263   59.5587   63.8471 C   0  0  0  0  0  0  0  0  0  0  0  0
  -41.5254   60.2244   65.2165 C   0  0  0  0  0  0  0  0  0  0  0  0
  -41.9173   59.2786   66.3667 C   0  0  0  0  0  0  0  0  0  0  0  0
  -42.3404   57.8940   65.8193 C   0  0  0  0  0  0  0  0  0  0  0  0
  -43.8688   57.6683   65.7006 C   0  0  0  0  0  0  0  0  0  0  0  0
  -44.7253   58.7581   66.3874 C   0  0  0  0  0  0  0  0  0  0  0  0
  -45.9748   58.2013   67.1036 C   0  0  0  0  0  0  0  0  0  0  0  0
  -46.4006   56.8123   66.6130 C   0  0  0  0  0  0  0  0  0  0  0  0
  -47.8273   56.6968   66.0802 C   0  0  0  0  0  0  0  0  0  0  0  0
  -48.4882   58.0524   65.7619 C   0  0  0  0  0  0  0  0  0  0  0  0
  -50.0244   58.0482   65.7627 C   0  0  0  0  0  0  0  0  0  0  0  0
  -50.5777   59.0762   64.7717 C   0  0  0  0  0  0  0  0  0  0  0  0
  -50.7367   58.6115   63.3350 C   0  0  0  0  0  0  0  0  0  0  0  0
  -36.5002   59.5960   64.8594 C   0  0  0  0  0  0  0  0  0  0  0  0
  -35.0763   59.7653   65.0765 O   0  0  0  0  0  0  0  0  0  0  0  0
  -33.4374   61.1402   63.1790 O   0  0  0  0  0  0  0  0  0  0  0  0
  -35.6052   64.4529   64.4923 O   0  0  0  0  0  0  0  0  0  0  0  0
  -35.2927   61.9347   66.1405 O   0  0  0  0  0  0  0  0  0  0  0  0
  -34.4856   61.1045   65.2706 C   0  0  0  0  0  0  0  0  0  0  0  0
  -34.2458   61.9282   63.9972 C   0  0  0  0  0  0  0  0  0  0  0  0
  -33.5193   63.2670   64.2521 C   0  0  0  0  0  0  0  0  0  0  0  0
  -34.4111   64.0620   65.1655 C   0  0  0  0  0  0  0  0  0  0  0  0
  -34.7316   63.2486   66.4063 C   0  0  0  0  0  0  0  0  0  0  0  0
  -33.8783   60.2935   63.0078 H   0  0  0  0  0  0  0  0  0  0  0  0
  -35.3775   64.9706   63.7042 H   0  0  0  0  0  0  0  0  0  0  0  0
  -36.9664   63.9861   66.8249 O   0  0  0  0  0  0  0  0  0  0  0  0
  -35.6338   64.2128   67.1734 C   0  0  0  0  0  0  0  0  0  0  0  0
  -37.5372   64.5996   67.3133 H   0  0  0  0  0  0  0  0  0  0  0  0
  -33.2922   64.0968   63.0903 O   0  0  0  0  0  0  0  0  0  0  0  0
  -31.4144   64.6864   61.4039 O   0  0  0  0  0  0  0  0  0  0  0  0
  -30.8564   64.3205   63.7371 O   0  0  0  0  0  0  0  0  0  0  0  0
  -31.9470   66.3736   63.0518 O   0  0  0  0  0  0  0  0  0  0  0  0
  -31.8637   64.9050   62.8106 S   0  0  0  0  0  0  0  0  0  0  0  0
  -31.3542   63.7342   61.2281 H   0  0  0  0  0  0  0  0  0  0  0  0
  -32.6019   66.7632   62.4516 H   0  0  0  0  0  0  0  0  0  0  0  0
  2  1  1  0  0  0
  2  4  1  0  0  0
  2  5  1  0  0  0
 41 42  1  0  0  0
 41  1  1  0  0  0
 42 46  1  0  0  0
  1 24  1  0  0  0
 23 24  1  0  0  0
 23 25  1  0  0  0
 24 26  1  0  0  0
  3  4  2  0  0  0
 26 27  2  0  0  0
 27 28  1  0  0  0
 43 47  1  0  0  0
 43 51  1  0  0  0
 28 29  1  0  0  0
 56 48  1  0  0  0
 56 60  1  0  0  0
 29 30  1  0  0  0
 57 60  1  0  0  0
 57 61  1  0  0  0
 30 31  1  0  0  0
 44 49  1  0  0  0
 44 52  1  0  0  0
 31 32  1  0  0  0
 45 46  1  0  0  0
 45 50  1  0  0  0
 32 33  1  0  0  0
 53 54  1  0  0  0
 53 55  1  0  0  0
 33 34  1  0  0  0
 34 35  1  0  0  0
 35 36  1  0  0  0
 58 60  1  0  0  0
 36 37  1  0  0  0
 59 60  1  0  0  0
 59 62  1  0  0  0
 37 38  1  0  0  0
 38 39  1  0  0  0
 39 40  1  0  0  0
  4  6  1  0  0  0
  6  7  1  0  0  0
  7  8  1  0  0  0
  8  9  1  0  0  0
  9 10  1  0  0  0
 10 11  1  0  0  0
 11 12  1  0  0  0
 12 13  1  0  0  0
 13 14  1  0  0  0
 14 15  1  0  0  0
 15 16  1  0  0  0
 16 17  1  0  0  0
 17 18  1  0  0  0
 18 19  1  0  0  0
 19 20  1  0  0  0
 20 21  1  0  0  0
 21 22  1  0  0  0
 46 47  1  0  0  0
 47 48  1  0  0  0
 48 49  1  0  0  0
 49 50  1  0  0  0
 50 54  1  0  0  0
M  CHG 1  58  -1
M  END
> <minimizedAffinity>
-8.80030

> <CNNscore>
0.4058183730

> <CNNaffinity>
7.2582521439

> <CNN_VS>
2.9455320835

> <CNNaffinity_variance>
0.5561067462

$$$$
/media/chris/experiments/cd1a-new-docking/inputs/ligands/1onq_ligand.pdb


 62 62  0  0  0  0  0  0  0  0999 V2000
  -39.9135   59.9422   64.1722 C   0  0  0  0  0  0  0  0  0  0  0  0
  -40.2392   60.4375   62.8494 N   0  0  0  0  0  0  0  0  0  0  0  0
  -40.1812   60.3910   60.5818 O   0  0  0  0  0  0  0  0  0  0  0  0
  -39.8865   59.9219   61.6639 C   0  0  0  0  0  0  0  0  0  0  0  0
  -40.7877   61.2544   62.8181 H   0  0  0  0  0  0  0  0  0  0  0  0
  -39.0580   58.6735   61.7326 C   0  0  0  0  0  0  0  0  0  0  0  0
  -37.6934   59.0259   61.1402 C   0  0  0  0  0  0  0  0  0  0  0  0
  -37.3634   58.0771   59.9904 C   0  0  0  0  0  0  0  0  0  0  0  0
  -37.4264   58.6686   58.6032 C   0  0  0  0  0  0  0  0  0  0  0  0
  -37.3490   57.5165   57.6069 C   0  0  0  0  0  0  0  0  0  0  0  0
  -36.2901   56.4733   57.9880 C   0  0  0  0  0  0  0  0  0  0  0  0
  -34.8378   56.9503   57.8037 C   0  0  0  0  0  0  0  0  0  0  0  0
  -33.8318   56.1595   58.6688 C   0  0  0  0  0  0  0  0  0  0  0  0
  -34.5515   55.4430   59.8149 C   0  0  0  0  0  0  0  0  0  0  0  0
  -34.3856   56.0893   61.1849 C   0  0  0  0  0  0  0  0  0  0  0  0
  -33.6083   57.3956   61.1165 C   0  0  0  0  0  0  0  0  0  0  0  0
  -32.5785   57.6226   62.2256 C   0  0  0  0  0  0  0  0  0  0  0  0
  -32.5483   59.1101   62.5498 C   0  0  0  0  0  0  0  0  0  0  0  0
  -33.7428   59.7252   63.2639 C   0  0  0  0  0  0  0  0  0  0  0  0
  -34.3440   58.7398   64.2787 C   0  0  0  0  0  0  0  0  0  0  0  0
  -35.8234   58.3918   64.0317 C   0  0  0  0  0  0  0  0  0  0  0  0
  -36.1811   56.9606   64.4253 C   0  0  0  0  0  0  0  0  0  0  0  0
  -40.8554   60.8934   66.0705 O   0  0  0  0  0  0  0  0  0  0  0  0
  -41.2160   60.1381   64.9290 C   0  0  0  0  0  0  0  0  0  0  0  0
  -40.4933   61.7488   65.7911 H   0  0  0  0  0  0  0  0  0  0  0  0
  -41.7964   58.7718   65.3012 C   0  0  0  0  0  0  0  0  0  0  0  0
  -43.0816   58.5935   65.6517 C   0  0  0  0  0  0  0  0  0  0  0  0
  -43.5850   57.1967   66.0109 C   0  0  0  0  0  0  0  0  0  0  0  0
  -44.9721   56.8696   65.4387 C   0  0  0  0  0  0  0  0  0  0  0  0
  -45.5343   57.8887   64.4305 C   0  0  0  0  0  0  0  0  0  0  0  0
  -46.6074   58.7843   65.0953 C   0  0  0  0  0  0  0  0  0  0  0  0
  -48.0475   58.2122   65.0819 C   0  0  0  0  0  0  0  0  0  0  0  0
  -48.9620   58.8237   63.9945 C   0  0  0  0  0  0  0  0  0  0  0  0
  -49.4023   57.8100   62.9162 C   0  0  0  0  0  0  0  0  0  0  0  0
  -50.7603   58.1337   62.2817 C   0  0  0  0  0  0  0  0  0  0  0  0
  -51.1314   57.3245   61.0408 C   0  0  0  0  0  0  0  0  0  0  0  0
  -49.9226   56.7010   60.3156 C   0  0  0  0  0  0  0  0  0  0  0  0
  -49.1873   57.6373   59.3447 C   0  0  0  0  0  0  0  0  0  0  0  0
  -48.3990   56.8394   58.3021 C   0  0  0  0  0  0  0  0  0  0  0  0
  -47.0644   57.4226   57.8729 C   0  0  0  0  0  0  0  0  0  0  0  0
  -38.6366   60.5357   64.8095 C   0  0  0  0  0  0  0  0  0  0  0  0
  -37.9817   61.6019   64.0763 O   0  0  0  0  0  0  0  0  0  0  0  0
  -35.9546   62.2707   62.1734 O   0  0  0  0  0  0  0  0  0  0  0  0
  -35.0614   65.2483   64.9545 O   0  0  0  0  0  0  0  0  0  0  0  0
  -36.5396   62.7103   65.6817 O   0  0  0  0  0  0  0  0  0  0  0  0
  -36.6066   62.0258   64.4072 C   0  0  0  0  0  0  0  0  0  0  0  0
  -35.9213   62.9501   63.3905 C   0  0  0  0  0  0  0  0  0  0  0  0
  -34.4478   63.2628   63.7312 C   0  0  0  0  0  0  0  0  0  0  0  0
  -34.4631   63.9591   65.0640 C   0  0  0  0  0  0  0  0  0  0  0  0
  -35.1995   63.1060   66.0808 C   0  0  0  0  0  0  0  0  0  0  0  0
  -36.8741   62.0654   61.9427 H   0  0  0  0  0  0  0  0  0  0  0  0
  -34.5760   65.7756   64.3009 H   0  0  0  0  0  0  0  0  0  0  0  0
  -36.3156   63.9230   68.0302 O   0  0  0  0  0  0  0  0  0  0  0  0
  -35.1099   63.9811   67.3291 C   0  0  0  0  0  0  0  0  0  0  0  0
  -36.2561   64.4795   68.8224 H   0  0  0  0  0  0  0  0  0  0  0  0
  -33.7613   64.1521   62.8213 O   0  0  0  0  0  0  0  0  0  0  0  0
  -31.6663   62.6590   62.5065 O   0  0  0  0  0  0  0  0  0  0  0  0
  -31.4628   64.7764   63.6746 O   0  0  0  0  0  0  0  0  0  0  0  0
  -31.7044   64.7324   61.2634 O   0  0  0  0  0  0  0  0  0  0  0  0
  -32.1224   64.0802   62.5367 S   0  0  0  0  0  0  0  0  0  0  0  0
  -31.9299   62.2173   63.3290 H   0  0  0  0  0  0  0  0  0  0  0  0
  -32.1301   64.2845   60.5157 H   0  0  0  0  0  0  0  0  0  0  0  0
  2  1  1  0  0  0
  2  4  1  0  0  0
  2  5  1  0  0  0
 41 42  1  0  0  0
 41  1  1  0  0  0
 42 46  1  0  0  0
  1 24  1  0  0  0
 23 24  1  0  0  0
 23 25  1  0  0  0
 24 26  1  0  0  0
  3  4  2  0  0  0
 26 27  2  0  0  0
 27 28  1  0  0  0
 43 47  1  0  0  0
 43 51  1  0  0  0
 28 29  1  0  0  0
 56 48  1  0  0  0
 56 60  1  0  0  0
 29 30  1  0  0  0
 57 60  1  0  0  0
 57 61  1  0  0  0
 30 31  1  0  0  0
 44 49  1  0  0  0
 44 52  1  0  0  0
 31 32  1  0  0  0
 45 46  1  0  0  0
 45 50  1  0  0  0
 32 33  1  0  0  0
 53 54  1  0  0  0
 53 55  1  0  0  0
 33 34  1  0  0  0
 34 35  1  0  0  0
 35 36  1  0  0  0
 58 60  1  0  0  0
 36 37  1  0  0  0
 59 60  1  0  0  0
 59 62  1  0  0  0
 37 38  1  0  0  0
 38 39  1  0  0  0
 39 40  1  0  0  0
  4  6  1  0  0  0
  6  7  1  0  0  0
  7  8  1  0  0  0
  8  9  1  0  0  0
  9 10  1  0  0  0
 10 11  1  0  0  0
 11 12  1  0  0  0
 12 13  1  0  0  0
 13 14  1  0  0  0
 14 15  1  0  0  0
 15 16  1  0  0  0
 16 17  1  0  0  0
 17 18  1  0  0  0
 18 19  1  0  0  0
 19 20  1  0  0  0
 20 21  1  0  0  0
 21 22  1  0  0  0
 46 47  1  0  0  0
 47 48  1  0  0  0
 48 49  1  0  0  0
 49 50  1  0  0  0
 50 54  1  0  0  0
M  CHG 1  58  -1
M  END
> <minimizedAffinity>
-9.56731

> <CNNscore>
0.3412414789

> <CNNaffinity>
7.2539634705

> <CNN_VS>
2.4753532410

> <CNNaffinity_variance>
1.3496668339

$$$$
/media/chris/experiments/cd1a-new-docking/inputs/ligands/1onq_ligand.pdb


 62 62  0  0  0  0  0  0  0  0999 V2000
  -37.0790   59.1497   63.4604 C   0  0  0  0  0  0  0  0  0  0  0  0
  -37.6972   59.4728   64.7311 N   0  0  0  0  0  0  0  0  0  0  0  0
  -39.2019   60.5339   66.0567 O   0  0  0  0  0  0  0  0  0  0  0  0
  -38.7324   60.2918   64.9618 C   0  0  0  0  0  0  0  0  0  0  0  0
  -37.3082   59.0362   65.5231 H   0  0  0  0  0  0  0  0  0  0  0  0
  -39.3160   60.9410   63.7423 C   0  0  0  0  0  0  0  0  0  0  0  0
  -40.8287   60.9893   63.9588 C   0  0  0  0  0  0  0  0  0  0  0  0
  -41.4064   59.5766   63.9195 C   0  0  0  0  0  0  0  0  0  0  0  0
  -42.7337   59.3833   64.6119 C   0  0  0  0  0  0  0  0  0  0  0  0
  -42.4821   59.4409   66.1150 C   0  0  0  0  0  0  0  0  0  0  0  0
  -42.2377   58.0559   66.7289 C   0  0  0  0  0  0  0  0  0  0  0  0
  -43.0931   56.9325   66.1149 C   0  0  0  0  0  0  0  0  0  0  0  0
  -44.5652   56.9763   66.5801 C   0  0  0  0  0  0  0  0  0  0  0  0
  -45.5130   56.9253   65.3784 C   0  0  0  0  0  0  0  0  0  0  0  0
  -46.4106   58.1455   65.2127 C   0  0  0  0  0  0  0  0  0  0  0  0
  -47.7765   57.7849   64.6473 C   0  0  0  0  0  0  0  0  0  0  0  0
  -48.9116   57.6562   65.6657 C   0  0  0  0  0  0  0  0  0  0  0  0
  -49.4654   59.0479   65.9393 C   0  0  0  0  0  0  0  0  0  0  0  0
  -49.6599   59.9988   64.7674 C   0  0  0  0  0  0  0  0  0  0  0  0
  -51.0553   59.8278   64.1463 C   0  0  0  0  0  0  0  0  0  0  0  0
  -51.0571   59.1867   62.7463 C   0  0  0  0  0  0  0  0  0  0  0  0
  -50.0575   59.8284   61.7869 C   0  0  0  0  0  0  0  0  0  0  0  0
  -36.8634   56.8764   63.0348 O   0  0  0  0  0  0  0  0  0  0  0  0
  -37.8360   57.9047   63.0310 C   0  0  0  0  0  0  0  0  0  0  0  0
  -36.5119   56.7671   63.9323 H   0  0  0  0  0  0  0  0  0  0  0  0
  -38.4327   58.1290   61.6396 C   0  0  0  0  0  0  0  0  0  0  0  0
  -38.3029   59.2842   60.9650 C   0  0  0  0  0  0  0  0  0  0  0  0
  -38.9292   59.4302   59.5795 C   0  0  0  0  0  0  0  0  0  0  0  0
  -40.1707   60.3336   59.5506 C   0  0  0  0  0  0  0  0  0  0  0  0
  -41.4851   59.6469   59.1358 C   0  0  0  0  0  0  0  0  0  0  0  0
  -41.5979   59.5623   57.5945 C   0  0  0  0  0  0  0  0  0  0  0  0
  -42.9200   58.9558   57.0601 C   0  0  0  0  0  0  0  0  0  0  0  0
  -43.8758   58.4474   58.1650 C   0  0  0  0  0  0  0  0  0  0  0  0
  -45.3564   58.4045   57.7289 C   0  0  0  0  0  0  0  0  0  0  0  0
  -45.7874   57.0570   57.1374 C   0  0  0  0  0  0  0  0  0  0  0  0
  -47.2879   56.7723   57.1389 C   0  0  0  0  0  0  0  0  0  0  0  0
  -47.6655   55.4074   57.7473 C   0  0  0  0  0  0  0  0  0  0  0  0
  -48.2580   55.4632   59.1635 C   0  0  0  0  0  0  0  0  0  0  0  0
  -48.5494   56.9074   59.5812 C   0  0  0  0  0  0  0  0  0  0  0  0
  -49.9825   57.3816   59.4176 C   0  0  0  0  0  0  0  0  0  0  0  0
  -35.5359   59.0616   63.4742 C   0  0  0  0  0  0  0  0  0  0  0  0
  -34.8163   60.2148   62.9684 O   0  0  0  0  0  0  0  0  0  0  0  0
  -32.9609   62.2802   62.2836 O   0  0  0  0  0  0  0  0  0  0  0  0
  -35.5652   64.6422   64.5281 O   0  0  0  0  0  0  0  0  0  0  0  0
  -35.3793   61.6392   64.8497 O   0  0  0  0  0  0  0  0  0  0  0  0
  -34.3690   61.2942   63.8711 C   0  0  0  0  0  0  0  0  0  0  0  0
  -33.9600   62.6121   63.1978 C   0  0  0  0  0  0  0  0  0  0  0  0
  -33.3907   63.6597   64.1794 C   0  0  0  0  0  0  0  0  0  0  0  0
  -34.4894   63.9552   65.1628 C   0  0  0  0  0  0  0  0  0  0  0  0
  -34.9723   62.6634   65.7969 C   0  0  0  0  0  0  0  0  0  0  0  0
  -33.3011   61.6218   61.6577 H   0  0  0  0  0  0  0  0  0  0  0  0
  -35.2348   65.4630   64.1304 H   0  0  0  0  0  0  0  0  0  0  0  0
  -36.2182   62.2980   67.8039 O   0  0  0  0  0  0  0  0  0  0  0  0
  -36.0666   63.1770   66.7300 C   0  0  0  0  0  0  0  0  0  0  0  0
  -36.9136   62.6265   68.3949 H   0  0  0  0  0  0  0  0  0  0  0  0
  -33.0150   64.9310   63.6028 O   0  0  0  0  0  0  0  0  0  0  0  0
  -31.7266   64.7530   61.3609 O   0  0  0  0  0  0  0  0  0  0  0  0
  -30.5654   64.3176   63.4468 O   0  0  0  0  0  0  0  0  0  0  0  0
  -31.1148   66.5903   62.8086 O   0  0  0  0  0  0  0  0  0  0  0  0
  -31.5853   65.1762   62.7856 S   0  0  0  0  0  0  0  0  0  0  0  0
  -32.0327   63.8331   61.3258 H   0  0  0  0  0  0  0  0  0  0  0  0
  -31.7741   67.1575   62.3792 H   0  0  0  0  0  0  0  0  0  0  0  0
  2  1  1  0  0  0
  2  4  1  0  0  0
  2  5  1  0  0  0
 41 42  1  0  0  0
 41  1  1  0  0  0
 42 46  1  0  0  0
  1 24  1  0  0  0
 23 24  1  0  0  0
 23 25  1  0  0  0
 24 26  1  0  0  0
  3  4  2  0  0  0
 26 27  2  0  0  0
 27 28  1  0  0  0
 43 47  1  0  0  0
 43 51  1  0  0  0
 28 29  1  0  0  0
 56 48  1  0  0  0
 56 60  1  0  0  0
 29 30  1  0  0  0
 57 60  1  0  0  0
 57 61  1  0  0  0
 30 31  1  0  0  0
 44 49  1  0  0  0
 44 52  1  0  0  0
 31 32  1  0  0  0
 45 46  1  0  0  0
 45 50  1  0  0  0
 32 33  1  0  0  0
 53 54  1  0  0  0
 53 55  1  0  0  0
 33 34  1  0  0  0
 34 35  1  0  0  0
 35 36  1  0  0  0
 58 60  1  0  0  0
 36 37  1  0  0  0
 59 60  1  0  0  0
 59 62  1  0  0  0
 37 38  1  0  0  0
 38 39  1  0  0  0
 39 40  1  0  0  0
  4  6  1  0  0  0
  6  7  1  0  0  0
  7  8  1  0  0  0
  8  9  1  0  0  0
  9 10  1  0  0  0
 10 11  1  0  0  0
 11 12  1  0  0  0
 12 13  1  0  0  0
 13 14  1  0  0  0
 14 15  1  0  0  0
 15 16  1  0  0  0
 16 17  1  0  0  0
 17 18  1  0  0  0
 18 19  1  0  0  0
 19 20  1  0  0  0
 20 21  1  0  0  0
 21 22  1  0  0  0
 46 47  1  0  0  0
 47 48  1  0  0  0
 48 49  1  0  0  0
 49 50  1  0  0  0
 50 54  1  0  0  0
M  CHG 1  58  -1
M  END
> <minimizedAffinity>
-8.58024

> <CNNscore>
0.2879022062

> <CNNaffinity>
7.0667734146

> <CNN_VS>
2.0345396996

> <CNNaffinity_variance>
0.8704811931

$$$$
/media/chris/experiments/cd1a-new-docking/inputs/ligands/1onq_ligand.pdb


 62 62  0  0  0  0  0  0  0  0999 V2000
  -40.2680   59.1294   64.9314 C   0  0  0  0  0  0  0  0  0  0  0  0
  -39.8354   58.4346   63.7351 N   0  0  0  0  0  0  0  0  0  0  0  0
  -38.4742   57.0535   62.5573 O   0  0  0  0  0  0  0  0  0  0  0  0
  -38.7965   57.6000   63.5943 C   0  0  0  0  0  0  0  0  0  0  0  0
  -40.3714   58.5960   62.9253 H   0  0  0  0  0  0  0  0  0  0  0  0
  -37.9972   57.3608   64.8406 C   0  0  0  0  0  0  0  0  0  0  0  0
  -36.5638   57.0803   64.3891 C   0  0  0  0  0  0  0  0  0  0  0  0
  -35.7620   58.3793   64.3616 C   0  0  0  0  0  0  0  0  0  0  0  0
  -34.2604   58.2332   64.4105 C   0  0  0  0  0  0  0  0  0  0  0  0
  -33.7160   58.6090   63.0363 C   0  0  0  0  0  0  0  0  0  0  0  0
  -32.5597   57.7046   62.5890 C   0  0  0  0  0  0  0  0  0  0  0  0
  -32.9887   56.5237   61.6991 C   0  0  0  0  0  0  0  0  0  0  0  0
  -34.4514   56.6362   61.2161 C   0  0  0  0  0  0  0  0  0  0  0  0
  -34.7102   55.6782   60.0498 C   0  0  0  0  0  0  0  0  0  0  0  0
  -34.0976   56.1008   58.7200 C   0  0  0  0  0  0  0  0  0  0  0  0
  -34.9817   57.0807   57.9627 C   0  0  0  0  0  0  0  0  0  0  0  0
  -36.4482   56.6741   57.8002 C   0  0  0  0  0  0  0  0  0  0  0  0
  -37.3160   57.8801   58.1332 C   0  0  0  0  0  0  0  0  0  0  0  0
  -37.5219   58.2491   59.5950 C   0  0  0  0  0  0  0  0  0  0  0  0
  -37.9475   59.7191   59.7365 C   0  0  0  0  0  0  0  0  0  0  0  0
  -39.4619   59.9615   59.5990 C   0  0  0  0  0  0  0  0  0  0  0  0
  -40.1469   60.2722   60.9277 C   0  0  0  0  0  0  0  0  0  0  0  0
  -41.4722   61.0494   64.4220 O   0  0  0  0  0  0  0  0  0  0  0  0
  -41.6395   59.6484   64.5350 C   0  0  0  0  0  0  0  0  0  0  0  0
  -40.8228   61.2424   63.7278 H   0  0  0  0  0  0  0  0  0  0  0  0
  -42.6552   59.2744   65.6171 C   0  0  0  0  0  0  0  0  0  0  0  0
  -43.9361   58.9714   65.3454 C   0  0  0  0  0  0  0  0  0  0  0  0
  -44.8894   58.6089   66.4825 C   0  0  0  0  0  0  0  0  0  0  0  0
  -46.3368   59.0665   66.2500 C   0  0  0  0  0  0  0  0  0  0  0  0
  -46.8527   58.9368   64.8050 C   0  0  0  0  0  0  0  0  0  0  0  0
  -47.9972   57.8981   64.7216 C   0  0  0  0  0  0  0  0  0  0  0  0
  -49.0395   57.9686   65.8661 C   0  0  0  0  0  0  0  0  0  0  0  0
  -50.4779   58.2867   65.3941 C   0  0  0  0  0  0  0  0  0  0  0  0
  -50.5931   59.6159   64.6169 C   0  0  0  0  0  0  0  0  0  0  0  0
  -51.4835   59.5283   63.3716 C   0  0  0  0  0  0  0  0  0  0  0  0
  -51.0365   58.5417   62.2949 C   0  0  0  0  0  0  0  0  0  0  0  0
  -49.7040   58.9163   61.6169 C   0  0  0  0  0  0  0  0  0  0  0  0
  -49.5088   58.3535   60.2009 C   0  0  0  0  0  0  0  0  0  0  0  0
  -48.2829   57.4380   60.1372 C   0  0  0  0  0  0  0  0  0  0  0  0
  -48.4596   56.1232   59.3985 C   0  0  0  0  0  0  0  0  0  0  0  0
  -39.2669   60.1597   65.5016 C   0  0  0  0  0  0  0  0  0  0  0  0
  -38.5888   61.0062   64.5387 O   0  0  0  0  0  0  0  0  0  0  0  0
  -36.5919   61.2858   62.5111 O   0  0  0  0  0  0  0  0  0  0  0  0
  -35.6085   64.7063   64.6864 O   0  0  0  0  0  0  0  0  0  0  0  0
  -37.1023   62.3663   65.8899 O   0  0  0  0  0  0  0  0  0  0  0  0
  -37.2025   61.4621   64.7630 C   0  0  0  0  0  0  0  0  0  0  0  0
  -36.5264   62.1750   63.5830 C   0  0  0  0  0  0  0  0  0  0  0  0
  -35.0429   62.5220   63.8354 C   0  0  0  0  0  0  0  0  0  0  0  0
  -35.0235   63.4496   65.0189 C   0  0  0  0  0  0  0  0  0  0  0  0
  -35.7499   62.8075   66.1869 C   0  0  0  0  0  0  0  0  0  0  0  0
  -37.5182   61.0561   62.3376 H   0  0  0  0  0  0  0  0  0  0  0  0
  -35.1298   65.0982   63.9392 H   0  0  0  0  0  0  0  0  0  0  0  0
  -34.2843   64.2519   67.4030 O   0  0  0  0  0  0  0  0  0  0  0  0
  -35.6252   63.8939   67.2527 C   0  0  0  0  0  0  0  0  0  0  0  0
  -34.2078   64.9420   68.0804 H   0  0  0  0  0  0  0  0  0  0  0  0
  -34.3639   63.2199   62.7669 O   0  0  0  0  0  0  0  0  0  0  0  0
  -32.3609   63.8326   61.2404 O   0  0  0  0  0  0  0  0  0  0  0  0
  -32.4939   61.6105   62.2067 O   0  0  0  0  0  0  0  0  0  0  0  0
  -31.8645   63.5031   63.5837 O   0  0  0  0  0  0  0  0  0  0  0  0
  -32.7357   63.0569   62.4597 S   0  0  0  0  0  0  0  0  0  0  0  0
  -32.9186   63.5553   60.4967 H   0  0  0  0  0  0  0  0  0  0  0  0
  -32.0158   64.4457   63.7556 H   0  0  0  0  0  0  0  0  0  0  0  0
  2  1  1  0  0  0
  2  4  1  0  0  0
  2  5  1  0  0  0
 41 42  1  0  0  0
 41  1  1  0  0  0
 42 46  1  0  0  0
  1 24  1  0  0  0
 23 24  1  0  0  0
 23 25  1  0  0  0
 24 26  1  0  0  0
  3  4  2  0  0  0
 26 27  2  0  0  0
 27 28  1  0  0  0
 43 47  1  0  0  0
 43 51  1  0  0  0
 28 29  1  0  0  0
 56 48  1  0  0  0
 56 60  1  0  0  0
 29 30  1  0  0  0
 57 60  1  0  0  0
 57 61  1  0  0  0
 30 31  1  0  0  0
 44 49  1  0  0  0
 44 52  1  0  0  0
 31 32  1  0  0  0
 45 46  1  0  0  0
 45 50  1  0  0  0
 32 33  1  0  0  0
 53 54  1  0  0  0
 53 55  1  0  0  0
 33 34  1  0  0  0
 34 35  1  0  0  0
 35 36  1  0  0  0
 58 60  1  0  0  0
 36 37  1  0  0  0
 59 60  1  0  0  0
 59 62  1  0  0  0
 37 38  1  0  0  0
 38 39  1  0  0  0
 39 40  1  0  0  0
  4  6  1  0  0  0
  6  7  1  0  0  0
  7  8  1  0  0  0
  8  9  1  0  0  0
  9 10  1  0  0  0
 10 11  1  0  0  0
 11 12  1  0  0  0
 12 13  1  0  0  0
 13 14  1  0  0  0
 14 15  1  0  0  0
 15 16  1  0  0  0
 16 17  1  0  0  0
 17 18  1  0  0  0
 18 19  1  0  0  0
 19 20  1  0  0  0
 20 21  1  0  0  0
 21 22  1  0  0  0
 46 47  1  0  0  0
 47 48  1  0  0  0
 48 49  1  0  0  0
 49 50  1  0  0  0
 50 54  1  0  0  0
M  CHG 1  58  -1
M  END
> <minimizedAffinity>
-10.03243

> <CNNscore>
0.2640304565

> <CNNaffinity>
7.1757135391

> <CNN_VS>
1.8946069479

> <CNNaffinity_variance>
1.5818382502

$$$$
/media/chris/experiments/cd1a-new-docking/inputs/ligands/1onq_ligand.pdb


 62 62  0  0  0  0  0  0  0  0999 V2000
  -39.9633   58.9740   64.5209 C   0  0  0  0  0  0  0  0  0  0  0  0
  -40.5158   59.5626   65.7248 N   0  0  0  0  0  0  0  0  0  0  0  0
  -42.1722   59.9765   67.2190 O   0  0  0  0  0  0  0  0  0  0  0  0
  -41.7615   59.4468   66.2047 C   0  0  0  0  0  0  0  0  0  0  0  0
  -39.8991   60.1165   66.2559 H   0  0  0  0  0  0  0  0  0  0  0  0
  -42.6835   58.5929   65.3859 C   0  0  0  0  0  0  0  0  0  0  0  0
  -43.0609   57.3986   66.2625 C   0  0  0  0  0  0  0  0  0  0  0  0
  -44.5696   57.3796   66.4964 C   0  0  0  0  0  0  0  0  0  0  0  0
  -45.4076   56.8149   65.3751 C   0  0  0  0  0  0  0  0  0  0  0  0
  -46.1151   57.9826   64.6955 C   0  0  0  0  0  0  0  0  0  0  0  0
  -47.6348   57.9593   64.9071 C   0  0  0  0  0  0  0  0  0  0  0  0
  -48.3421   59.2813   64.5570 C   0  0  0  0  0  0  0  0  0  0  0  0
  -48.8957   59.3026   63.1153 C   0  0  0  0  0  0  0  0  0  0  0  0
  -49.5704   57.9703   62.7762 C   0  0  0  0  0  0  0  0  0  0  0  0
  -50.9734   58.0880   62.1933 C   0  0  0  0  0  0  0  0  0  0  0  0
  -51.1044   57.3745   60.8557 C   0  0  0  0  0  0  0  0  0  0  0  0
  -49.9357   56.4686   60.4610 C   0  0  0  0  0  0  0  0  0  0  0  0
  -49.3135   57.0228   59.1866 C   0  0  0  0  0  0  0  0  0  0  0  0
  -48.0138   57.8071   59.2909 C   0  0  0  0  0  0  0  0  0  0  0  0
  -46.9790   57.2940   58.2769 C   0  0  0  0  0  0  0  0  0  0  0  0
  -47.5848   56.6751   57.0038 C   0  0  0  0  0  0  0  0  0  0  0  0
  -47.4079   55.1605   56.9254 C   0  0  0  0  0  0  0  0  0  0  0  0
  -38.3541   58.6721   66.1686 O   0  0  0  0  0  0  0  0  0  0  0  0
  -38.9386   57.9966   65.0706 C   0  0  0  0  0  0  0  0  0  0  0  0
  -39.0355   58.8588   66.8332 H   0  0  0  0  0  0  0  0  0  0  0  0
  -37.9135   57.6712   63.9817 C   0  0  0  0  0  0  0  0  0  0  0  0
  -36.6077   57.4827   64.2385 C   0  0  0  0  0  0  0  0  0  0  0  0
  -35.6466   57.1619   63.0955 C   0  0  0  0  0  0  0  0  0  0  0  0
  -34.5737   58.2363   62.8654 C   0  0  0  0  0  0  0  0  0  0  0  0
  -33.1587   57.7106   62.5611 C   0  0  0  0  0  0  0  0  0  0  0  0
  -33.2153   56.5222   61.5711 C   0  0  0  0  0  0  0  0  0  0  0  0
  -33.6631   56.8808   60.1316 C   0  0  0  0  0  0  0  0  0  0  0  0
  -34.2123   55.6825   59.3221 C   0  0  0  0  0  0  0  0  0  0  0  0
  -35.7488   55.5450   59.3880 C   0  0  0  0  0  0  0  0  0  0  0  0
  -36.4771   56.1724   58.1932 C   0  0  0  0  0  0  0  0  0  0  0  0
  -37.1686   57.5087   58.4550 C   0  0  0  0  0  0  0  0  0  0  0  0
  -37.1173   57.9623   59.9272 C   0  0  0  0  0  0  0  0  0  0  0  0
  -38.4108   58.5946   60.4630 C   0  0  0  0  0  0  0  0  0  0  0  0
  -38.8577   59.7638   59.5809 C   0  0  0  0  0  0  0  0  0  0  0  0
  -40.2855   60.2447   59.7696 C   0  0  0  0  0  0  0  0  0  0  0  0
  -39.4718   59.9783   63.4538 C   0  0  0  0  0  0  0  0  0  0  0  0
  -38.9322   61.2322   63.9437 O   0  0  0  0  0  0  0  0  0  0  0  0
  -36.8068   61.5278   62.0535 O   0  0  0  0  0  0  0  0  0  0  0  0
  -35.3533   64.2119   64.8963 O   0  0  0  0  0  0  0  0  0  0  0  0
  -37.3053   62.0006   65.5709 O   0  0  0  0  0  0  0  0  0  0  0  0
  -37.5017   61.3696   64.2822 C   0  0  0  0  0  0  0  0  0  0  0  0
  -36.6442   62.1616   63.2847 C   0  0  0  0  0  0  0  0  0  0  0  0
  -35.1391   62.1705   63.6306 C   0  0  0  0  0  0  0  0  0  0  0  0
  -35.0212   62.8280   64.9779 C   0  0  0  0  0  0  0  0  0  0  0  0
  -35.9148   62.1158   65.9771 C   0  0  0  0  0  0  0  0  0  0  0  0
  -37.7480   61.5128   61.8194 H   0  0  0  0  0  0  0  0  0  0  0  0
  -34.7712   64.6467   64.2535 H   0  0  0  0  0  0  0  0  0  0  0  0
  -34.3089   62.8453   67.5903 O   0  0  0  0  0  0  0  0  0  0  0  0
  -35.6585   62.9298   67.2435 C   0  0  0  0  0  0  0  0  0  0  0  0
  -34.1487   63.3630   68.3947 H   0  0  0  0  0  0  0  0  0  0  0  0
  -34.2877   62.9257   62.7391 O   0  0  0  0  0  0  0  0  0  0  0  0
  -32.0951   63.4432   61.4577 O   0  0  0  0  0  0  0  0  0  0  0  0
  -32.4588   61.2194   62.3588 O   0  0  0  0  0  0  0  0  0  0  0  0
  -31.8840   63.0540   63.8347 O   0  0  0  0  0  0  0  0  0  0  0  0
  -32.6469   62.6738   62.6120 S   0  0  0  0  0  0  0  0  0  0  0  0
  -32.5803   63.2084   60.6512 H   0  0  0  0  0  0  0  0  0  0  0  0
  -32.0011   64.0013   64.0074 H   0  0  0  0  0  0  0  0  0  0  0  0
  2  1  1  0  0  0
  2  4  1  0  0  0
  2  5  1  0  0  0
 41 42  1  0  0  0
 41  1  1  0  0  0
 42 46  1  0  0  0
  1 24  1  0  0  0
 23 24  1  0  0  0
 23 25  1  0  0  0
 24 26  1  0  0  0
  3  4  2  0  0  0
 26 27  2  0  0  0
 27 28  1  0  0  0
 43 47  1  0  0  0
 43 51  1  0  0  0
 28 29  1  0  0  0
 56 48  1  0  0  0
 56 60  1  0  0  0
 29 30  1  0  0  0
 57 60  1  0  0  0
 57 61  1  0  0  0
 30 31  1  0  0  0
 44 49  1  0  0  0
 44 52  1  0  0  0
 31 32  1  0  0  0
 45 46  1  0  0  0
 45 50  1  0  0  0
 32 33  1  0  0  0
 53 54  1  0  0  0
 53 55  1  0  0  0
 33 34  1  0  0  0
 34 35  1  0  0  0
 35 36  1  0  0  0
 58 60  1  0  0  0
 36 37  1  0  0  0
 59 60  1  0  0  0
 59 62  1  0  0  0
 37 38  1  0  0  0
 38 39  1  0  0  0
 39 40  1  0  0  0
  4  6  1  0  0  0
  6  7  1  0  0  0
  7  8  1  0  0  0
  8  9  1  0  0  0
  9 10  1  0  0  0
 10 11  1  0  0  0
 11 12  1  0  0  0
 12 13  1  0  0  0
 13 14  1  0  0  0
 14 15  1  0  0  0
 15 16  1  0  0  0
 16 17  1  0  0  0
 17 18  1  0  0  0
 18 19  1  0  0  0
 19 20  1  0  0  0
 20 21  1  0  0  0
 21 22  1  0  0  0
 46 47  1  0  0  0
 47 48  1  0  0  0
 48 49  1  0  0  0
 49 50  1  0  0  0
 50 54  1  0  0  0
M  CHG 1  58  -1
M  END
> <minimizedAffinity>
-9.90783

> <CNNscore>
0.2312121242

> <CNNaffinity>
7.3586511612

> <CNN_VS>
1.7014093399

> <CNNaffinity_variance>
1.0540603399

$$$$
/media/chris/experiments/cd1a-new-docking/inputs/ligands/1onq_ligand.pdb


 62 62  0  0  0  0  0  0  0  0999 V2000
  -40.2321   58.9114   65.0769 C   0  0  0  0  0  0  0  0  0  0  0  0
  -41.1202   58.2927   66.0411 N   0  0  0  0  0  0  0  0  0  0  0  0
  -43.1532   57.7981   66.9185 O   0  0  0  0  0  0  0  0  0  0  0  0
  -42.4593   58.3294   66.0734 C   0  0  0  0  0  0  0  0  0  0  0  0
  -40.6855   57.7821   66.7619 H   0  0  0  0  0  0  0  0  0  0  0  0
  -43.1030   59.1053   64.9629 C   0  0  0  0  0  0  0  0  0  0  0  0
  -44.5893   59.2028   65.3072 C   0  0  0  0  0  0  0  0  0  0  0  0
  -45.3536   58.0572   64.6480 C   0  0  0  0  0  0  0  0  0  0  0  0
  -46.5910   57.5828   65.3707 C   0  0  0  0  0  0  0  0  0  0  0  0
  -46.8548   58.5523   66.5180 C   0  0  0  0  0  0  0  0  0  0  0  0
  -48.2073   59.2662   66.3920 C   0  0  0  0  0  0  0  0  0  0  0  0
  -48.8167   59.2210   64.9788 C   0  0  0  0  0  0  0  0  0  0  0  0
  -50.2780   58.7212   64.9707 C   0  0  0  0  0  0  0  0  0  0  0  0
  -51.2026   59.7658   64.3388 C   0  0  0  0  0  0  0  0  0  0  0  0
  -51.5511   59.5180   62.8762 C   0  0  0  0  0  0  0  0  0  0  0  0
  -50.8964   58.2566   62.3325 C   0  0  0  0  0  0  0  0  0  0  0  0
  -49.9500   58.4500   61.1455 C   0  0  0  0  0  0  0  0  0  0  0  0
  -50.2538   57.3717   60.1142 C   0  0  0  0  0  0  0  0  0  0  0  0
  -49.0927   56.6121   59.4896 C   0  0  0  0  0  0  0  0  0  0  0  0
  -47.9730   57.5740   59.0615 C   0  0  0  0  0  0  0  0  0  0  0  0
  -47.2395   57.1661   57.7706 C   0  0  0  0  0  0  0  0  0  0  0  0
  -47.9265   56.0282   57.0193 C   0  0  0  0  0  0  0  0  0  0  0  0
  -38.2224   57.7876   65.3834 O   0  0  0  0  0  0  0  0  0  0  0  0
  -39.3971   57.7374   64.5952 C   0  0  0  0  0  0  0  0  0  0  0  0
  -38.4555   57.6771   66.3184 H   0  0  0  0  0  0  0  0  0  0  0  0
  -39.0984   57.9060   63.1037 C   0  0  0  0  0  0  0  0  0  0  0  0
  -38.1531   57.1981   62.4619 C   0  0  0  0  0  0  0  0  0  0  0  0
  -37.9144   57.4255   60.9704 C   0  0  0  0  0  0  0  0  0  0  0  0
  -38.2731   58.8399   60.4919 C   0  0  0  0  0  0  0  0  0  0  0  0
  -38.3277   59.0331   58.9652 C   0  0  0  0  0  0  0  0  0  0  0  0
  -37.0109   58.5592   58.3042 C   0  0  0  0  0  0  0  0  0  0  0  0
  -37.1136   57.2419   57.4946 C   0  0  0  0  0  0  0  0  0  0  0  0
  -36.0671   56.1730   57.8887 C   0  0  0  0  0  0  0  0  0  0  0  0
  -34.6196   56.7094   57.9238 C   0  0  0  0  0  0  0  0  0  0  0  0
  -33.7939   56.1821   59.1035 C   0  0  0  0  0  0  0  0  0  0  0  0
  -34.5565   55.9497   60.4061 C   0  0  0  0  0  0  0  0  0  0  0  0
  -33.8441   56.5032   61.6558 C   0  0  0  0  0  0  0  0  0  0  0  0
  -34.4463   57.7918   62.2361 C   0  0  0  0  0  0  0  0  0  0  0  0
  -34.8569   57.5969   63.6985 C   0  0  0  0  0  0  0  0  0  0  0  0
  -34.7500   58.8155   64.5980 C   0  0  0  0  0  0  0  0  0  0  0  0
  -39.4664   60.1562   65.5801 C   0  0  0  0  0  0  0  0  0  0  0  0
  -38.7451   60.9212   64.5812 O   0  0  0  0  0  0  0  0  0  0  0  0
  -36.7403   61.1558   62.5556 O   0  0  0  0  0  0  0  0  0  0  0  0
  -35.6939   64.5633   64.7218 O   0  0  0  0  0  0  0  0  0  0  0  0
  -37.2344   62.2564   65.9303 O   0  0  0  0  0  0  0  0  0  0  0  0
  -37.3506   61.3509   64.8061 C   0  0  0  0  0  0  0  0  0  0  0  0
  -36.6591   62.0469   63.6249 C   0  0  0  0  0  0  0  0  0  0  0  0
  -35.1695   62.3658   63.8785 C   0  0  0  0  0  0  0  0  0  0  0  0
  -35.1339   63.2966   65.0591 C   0  0  0  0  0  0  0  0  0  0  0  0
  -35.8742   62.6723   66.2279 C   0  0  0  0  0  0  0  0  0  0  0  0
  -37.6706   60.9435   62.3815 H   0  0  0  0  0  0  0  0  0  0  0  0
  -35.2067   64.9435   63.9741 H   0  0  0  0  0  0  0  0  0  0  0  0
  -34.3790   64.0584   67.4756 O   0  0  0  0  0  0  0  0  0  0  0  0
  -35.7300   63.7594   67.2906 C   0  0  0  0  0  0  0  0  0  0  0  0
  -34.2901   64.7490   68.1508 H   0  0  0  0  0  0  0  0  0  0  0  0
  -34.4756   63.0471   62.8087 O   0  0  0  0  0  0  0  0  0  0  0  0
  -32.4116   63.8273   61.4491 O   0  0  0  0  0  0  0  0  0  0  0  0
  -32.5543   61.5212   62.1912 O   0  0  0  0  0  0  0  0  0  0  0  0
  -32.0236   63.2801   63.7720 O   0  0  0  0  0  0  0  0  0  0  0  0
  -32.8320   62.9337   62.5686 S   0  0  0  0  0  0  0  0  0  0  0  0
  -32.9281   63.6161   60.6555 H   0  0  0  0  0  0  0  0  0  0  0  0
  -32.1985   64.1999   64.0252 H   0  0  0  0  0  0  0  0  0  0  0  0
  2  1  1  0  0  0
  2  4  1  0  0  0
  2  5  1  0  0  0
 41 42  1  0  0  0
 41  1  1  0  0  0
 42 46  1  0  0  0
  1 24  1  0  0  0
 23 24  1  0  0  0
 23 25  1  0  0  0
 24 26  1  0  0  0
  3  4  2  0  0  0
 26 27  2  0  0  0
 27 28  1  0  0  0
 43 47  1  0  0  0
 43 51  1  0  0  0
 28 29  1  0  0  0
 56 48  1  0  0  0
 56 60  1  0  0  0
 29 30  1  0  0  0
 57 60  1  0  0  0
 57 61  1  0  0  0
 30 31  1  0  0  0
 44 49  1  0  0  0
 44 52  1  0  0  0
 31 32  1  0  0  0
 45 46  1  0  0  0
 45 50  1  0  0  0
 32 33  1  0  0  0
 53 54  1  0  0  0
 53 55  1  0  0  0
 33 34  1  0  0  0
 34 35  1  0  0  0
 35 36  1  0  0  0
 58 60  1  0  0  0
 36 37  1  0  0  0
 59 60  1  0  0  0
 59 62  1  0  0  0
 37 38  1  0  0  0
 38 39  1  0  0  0
 39 40  1  0  0  0
  4  6  1  0  0  0
  6  7  1  0  0  0
  7  8  1  0  0  0
  8  9  1  0  0  0
  9 10  1  0  0  0
 10 11  1  0  0  0
 11 12  1  0  0  0
 12 13  1  0  0  0
 13 14  1  0  0  0
 14 15  1  0  0  0
 15 16  1  0  0  0
 16 17  1  0  0  0
 17 18  1  0  0  0
 18 19  1  0  0  0
 19 20  1  0  0  0
 20 21  1  0  0  0
 21 22  1  0  0  0
 46 47  1  0  0  0
 47 48  1  0  0  0
 48 49  1  0  0  0
 49 50  1  0  0  0
 50 54  1  0  0  0
M  CHG 1  58  -1
M  END
> <minimizedAffinity>
-10.36749

> <CNNscore>
0.2182746232

> <CNNaffinity>
7.0624923706

> <CNN_VS>
1.5415629148

> <CNNaffinity_variance>
1.2173427343

$$$$
/media/chris/experiments/cd1a-new-docking/inputs/ligands/1onq_ligand.pdb


 62 62  0  0  0  0  0  0  0  0999 V2000
  -36.0924   57.9184   62.3390 C   0  0  0  0  0  0  0  0  0  0  0  0
  -36.7767   57.4214   63.5163 N   0  0  0  0  0  0  0  0  0  0  0  0
  -38.3350   57.5156   65.1626 O   0  0  0  0  0  0  0  0  0  0  0  0
  -37.8078   57.9755   64.1684 C   0  0  0  0  0  0  0  0  0  0  0  0
  -36.4422   56.5709   63.8823 H   0  0  0  0  0  0  0  0  0  0  0  0
  -38.3080   59.2663   63.5910 C   0  0  0  0  0  0  0  0  0  0  0  0
  -39.6821   58.9689   62.9907 C   0  0  0  0  0  0  0  0  0  0  0  0
  -40.6226   60.1472   63.2319 C   0  0  0  0  0  0  0  0  0  0  0  0
  -41.0476   60.3748   64.6623 C   0  0  0  0  0  0  0  0  0  0  0  0
  -42.2249   59.4479   64.9463 C   0  0  0  0  0  0  0  0  0  0  0  0
  -41.8888   58.3608   65.9758 C   0  0  0  0  0  0  0  0  0  0  0  0
  -43.0052   57.3214   66.1851 C   0  0  0  0  0  0  0  0  0  0  0  0
  -44.3021   57.6717   65.4230 C   0  0  0  0  0  0  0  0  0  0  0  0
  -45.4767   56.8390   65.9447 C   0  0  0  0  0  0  0  0  0  0  0  0
  -46.4688   57.5988   66.8168 C   0  0  0  0  0  0  0  0  0  0  0  0
  -46.4366   59.0976   66.5563 C   0  0  0  0  0  0  0  0  0  0  0  0
  -47.7320   59.7140   66.0231 C   0  0  0  0  0  0  0  0  0  0  0  0
  -48.0170   59.1118   64.6538 C   0  0  0  0  0  0  0  0  0  0  0  0
  -49.1534   58.1088   64.5205 C   0  0  0  0  0  0  0  0  0  0  0  0
  -50.4482   58.6595   65.1387 C   0  0  0  0  0  0  0  0  0  0  0  0
  -51.1239   59.7739   64.3187 C   0  0  0  0  0  0  0  0  0  0  0  0
  -51.4018   59.3749   62.8713 C   0  0  0  0  0  0  0  0  0  0  0  0
  -35.1379   56.5967   60.6846 O   0  0  0  0  0  0  0  0  0  0  0  0
  -36.3850   56.8426   61.3073 C   0  0  0  0  0  0  0  0  0  0  0  0
  -34.5057   56.2711   61.3443 H   0  0  0  0  0  0  0  0  0  0  0  0
  -37.4315   57.3604   60.3178 C   0  0  0  0  0  0  0  0  0  0  0  0
  -37.6016   58.6663   60.0489 C   0  0  0  0  0  0  0  0  0  0  0  0
  -38.6697   59.1037   59.0484 C   0  0  0  0  0  0  0  0  0  0  0  0
  -39.6067   60.1989   59.5785 C   0  0  0  0  0  0  0  0  0  0  0  0
  -41.0989   60.0186   59.2440 C   0  0  0  0  0  0  0  0  0  0  0  0
  -41.2743   59.2401   57.9179 C   0  0  0  0  0  0  0  0  0  0  0  0
  -42.5814   59.5409   57.1418 C   0  0  0  0  0  0  0  0  0  0  0  0
  -43.6615   58.4410   57.2698 C   0  0  0  0  0  0  0  0  0  0  0  0
  -44.2471   58.3130   58.6927 C   0  0  0  0  0  0  0  0  0  0  0  0
  -45.5705   57.5403   58.7490 C   0  0  0  0  0  0  0  0  0  0  0  0
  -46.6751   58.0321   57.8161 C   0  0  0  0  0  0  0  0  0  0  0  0
  -47.2979   56.9237   56.9446 C   0  0  0  0  0  0  0  0  0  0  0  0
  -48.6545   56.3923   57.4318 C   0  0  0  0  0  0  0  0  0  0  0  0
  -48.8505   56.6718   58.9247 C   0  0  0  0  0  0  0  0  0  0  0  0
  -50.0783   57.4802   59.3048 C   0  0  0  0  0  0  0  0  0  0  0  0
  -34.6109   58.3076   62.5448 C   0  0  0  0  0  0  0  0  0  0  0  0
  -34.3272   59.2292   63.6282 O   0  0  0  0  0  0  0  0  0  0  0  0
  -35.8641   61.0865   65.1662 O   0  0  0  0  0  0  0  0  0  0  0  0
  -32.4431   63.4405   64.7729 O   0  0  0  0  0  0  0  0  0  0  0  0
  -33.1169   61.1890   62.8670 O   0  0  0  0  0  0  0  0  0  0  0  0
  -34.3597   60.6903   63.4184 C   0  0  0  0  0  0  0  0  0  0  0  0
  -34.6483   61.5451   64.6608 C   0  0  0  0  0  0  0  0  0  0  0  0
  -34.7868   63.0531   64.3578 C   0  0  0  0  0  0  0  0  0  0  0  0
  -33.4675   63.4894   63.7828 C   0  0  0  0  0  0  0  0  0  0  0  0
  -33.1116   62.6162   62.5933 C   0  0  0  0  0  0  0  0  0  0  0  0
  -35.7959   60.1392   65.3627 H   0  0  0  0  0  0  0  0  0  0  0  0
  -32.6907   64.0044   65.5224 H   0  0  0  0  0  0  0  0  0  0  0  0
  -31.9702   64.2341   61.2543 O   0  0  0  0  0  0  0  0  0  0  0  0
  -31.7663   63.2074   62.1779 C   0  0  0  0  0  0  0  0  0  0  0  0
  -31.1144   64.6079   60.9921 H   0  0  0  0  0  0  0  0  0  0  0  0
  -35.0314   63.9092   65.4967 O   0  0  0  0  0  0  0  0  0  0  0  0
  -36.1927   62.6553   67.4452 O   0  0  0  0  0  0  0  0  0  0  0  0
  -34.8148   64.5951   67.9224 O   0  0  0  0  0  0  0  0  0  0  0  0
  -33.7834   62.4807   67.3397 O   0  0  0  0  0  0  0  0  0  0  0  0
  -34.9417   63.3800   67.0727 S   0  0  0  0  0  0  0  0  0  0  0  0
  -36.9590   63.2261   67.2780 H   0  0  0  0  0  0  0  0  0  0  0  0
  -33.8581   61.6853   66.7896 H   0  0  0  0  0  0  0  0  0  0  0  0
  2  1  1  0  0  0
  2  4  1  0  0  0
  2  5  1  0  0  0
 41 42  1  0  0  0
 41  1  1  0  0  0
 42 46  1  0  0  0
  1 24  1  0  0  0
 23 24  1  0  0  0
 23 25  1  0  0  0
 24 26  1  0  0  0
  3  4  2  0  0  0
 26 27  2  0  0  0
 27 28  1  0  0  0
 43 47  1  0  0  0
 43 51  1  0  0  0
 28 29  1  0  0  0
 56 48  1  0  0  0
 56 60  1  0  0  0
 29 30  1  0  0  0
 57 60  1  0  0  0
 57 61  1  0  0  0
 30 31  1  0  0  0
 44 49  1  0  0  0
 44 52  1  0  0  0
 31 32  1  0  0  0
 45 46  1  0  0  0
 45 50  1  0  0  0
 32 33  1  0  0  0
 53 54  1  0  0  0
 53 55  1  0  0  0
 33 34  1  0  0  0
 34 35  1  0  0  0
 35 36  1  0  0  0
 58 60  1  0  0  0
 36 37  1  0  0  0
 59 60  1  0  0  0
 59 62  1  0  0  0
 37 38  1  0  0  0
 38 39  1  0  0  0
 39 40  1  0  0  0
  4  6  1  0  0  0
  6  7  1  0  0  0
  7  8  1  0  0  0
  8  9  1  0  0  0
  9 10  1  0  0  0
 10 11  1  0  0  0
 11 12  1  0  0  0
 12 13  1  0  0  0
 13 14  1  0  0  0
 14 15  1  0  0  0
 15 16  1  0  0  0
 16 17  1  0  0  0
 17 18  1  0  0  0
 18 19  1  0  0  0
 19 20  1  0  0  0
 20 21  1  0  0  0
 21 22  1  0  0  0
 46 47  1  0  0  0
 47 48  1  0  0  0
 48 49  1  0  0  0
 49 50  1  0  0  0
 50 54  1  0  0  0
M  CHG 1  58  -1
M  END
> <minimizedAffinity>
-8.87693

> <CNNscore>
0.2173419446

> <CNNaffinity>
6.8644094467

> <CNN_VS>
1.4919240475

> <CNNaffinity_variance>
1.1204092503

$$$$
/media/chris/experiments/cd1a-new-docking/inputs/ligands/1onq_ligand.pdb


 62 62  0  0  0  0  0  0  0  0999 V2000
  -40.1932   59.9023   62.9267 C   0  0  0  0  0  0  0  0  0  0  0  0
  -40.4039   60.6309   61.6914 N   0  0  0  0  0  0  0  0  0  0  0  0
  -40.1119   61.0165   59.4748 O   0  0  0  0  0  0  0  0  0  0  0  0
  -39.9085   60.3585   60.4765 C   0  0  0  0  0  0  0  0  0  0  0  0
  -40.9829   61.4247   61.7527 H   0  0  0  0  0  0  0  0  0  0  0  0
  -39.0354   59.1412   60.4022 C   0  0  0  0  0  0  0  0  0  0  0  0
  -37.8820   59.4919   59.4620 C   0  0  0  0  0  0  0  0  0  0  0  0
  -37.0124   58.2603   59.2214 C   0  0  0  0  0  0  0  0  0  0  0  0
  -37.0976   57.6467   57.8449 C   0  0  0  0  0  0  0  0  0  0  0  0
  -36.6377   56.1969   57.9574 C   0  0  0  0  0  0  0  0  0  0  0  0
  -36.4812   55.7357   59.4126 C   0  0  0  0  0  0  0  0  0  0  0  0
  -35.1184   55.0927   59.7288 C   0  0  0  0  0  0  0  0  0  0  0  0
  -33.9280   56.0287   59.4251 C   0  0  0  0  0  0  0  0  0  0  0  0
  -33.7379   57.0447   60.5550 C   0  0  0  0  0  0  0  0  0  0  0  0
  -32.9448   56.5363   61.7528 C   0  0  0  0  0  0  0  0  0  0  0  0
  -32.6303   57.6430   62.7487 C   0  0  0  0  0  0  0  0  0  0  0  0
  -33.2905   58.9969   62.4779 C   0  0  0  0  0  0  0  0  0  0  0  0
  -34.4164   59.1871   63.4852 C   0  0  0  0  0  0  0  0  0  0  0  0
  -34.6852   58.0819   64.4959 C   0  0  0  0  0  0  0  0  0  0  0  0
  -36.0651   57.4468   64.2623 C   0  0  0  0  0  0  0  0  0  0  0  0
  -36.4841   57.3557   62.7834 C   0  0  0  0  0  0  0  0  0  0  0  0
  -37.9328   56.9126   62.5923 C   0  0  0  0  0  0  0  0  0  0  0  0
  -41.1491   61.6047   64.1850 O   0  0  0  0  0  0  0  0  0  0  0  0
  -41.4123   60.2843   63.7484 C   0  0  0  0  0  0  0  0  0  0  0  0
  -41.0622   62.1886   63.4153 H   0  0  0  0  0  0  0  0  0  0  0  0
  -41.5610   59.3089   64.9183 C   0  0  0  0  0  0  0  0  0  0  0  0
  -42.7522   58.8629   65.3526 C   0  0  0  0  0  0  0  0  0  0  0  0
  -42.8172   57.8902   66.5286 C   0  0  0  0  0  0  0  0  0  0  0  0
  -43.9374   56.8464   66.4106 C   0  0  0  0  0  0  0  0  0  0  0  0
  -45.0351   57.1607   65.3775 C   0  0  0  0  0  0  0  0  0  0  0  0
  -46.3143   57.6813   66.0762 C   0  0  0  0  0  0  0  0  0  0  0  0
  -46.6944   59.1484   65.7531 C   0  0  0  0  0  0  0  0  0  0  0  0
  -47.9191   59.2944   64.8195 C   0  0  0  0  0  0  0  0  0  0  0  0
  -48.8407   58.0556   64.8114 C   0  0  0  0  0  0  0  0  0  0  0  0
  -50.3161   58.3815   65.0731 C   0  0  0  0  0  0  0  0  0  0  0  0
  -50.8386   59.6745   64.4507 C   0  0  0  0  0  0  0  0  0  0  0  0
  -51.5450   59.4759   63.0952 C   0  0  0  0  0  0  0  0  0  0  0  0
  -50.6298   59.0554   61.9353 C   0  0  0  0  0  0  0  0  0  0  0  0
  -50.9833   57.6510   61.4373 C   0  0  0  0  0  0  0  0  0  0  0  0
  -50.3089   57.2001   60.1538 C   0  0  0  0  0  0  0  0  0  0  0  0
  -38.8111   60.1011   63.5894 C   0  0  0  0  0  0  0  0  0  0  0  0
  -38.3854   61.4711   63.8022 O   0  0  0  0  0  0  0  0  0  0  0  0
  -36.3772   62.2884   61.9376 O   0  0  0  0  0  0  0  0  0  0  0  0
  -35.2854   64.8559   65.0384 O   0  0  0  0  0  0  0  0  0  0  0  0
  -36.8570   62.3099   65.4891 O   0  0  0  0  0  0  0  0  0  0  0  0
  -36.9852   61.7934   64.1422 C   0  0  0  0  0  0  0  0  0  0  0  0
  -36.2842   62.8084   63.2279 C   0  0  0  0  0  0  0  0  0  0  0  0
  -34.7904   63.0153   63.5611 C   0  0  0  0  0  0  0  0  0  0  0  0
  -34.7425   63.5396   64.9697 C   0  0  0  0  0  0  0  0  0  0  0  0
  -35.4914   62.5972   65.8944 C   0  0  0  0  0  0  0  0  0  0  0  0
  -37.3102   62.1516   61.7106 H   0  0  0  0  0  0  0  0  0  0  0  0
  -34.7929   65.4403   64.4410 H   0  0  0  0  0  0  0  0  0  0  0  0
  -36.5470   63.8856   67.6087 O   0  0  0  0  0  0  0  0  0  0  0  0
  -35.3328   63.3050   67.2382 C   0  0  0  0  0  0  0  0  0  0  0  0
  -36.4436   64.3345   68.4624 H   0  0  0  0  0  0  0  0  0  0  0  0
  -34.0873   63.9823   62.7484 O   0  0  0  0  0  0  0  0  0  0  0  0
  -31.9592   64.2087   61.2863 O   0  0  0  0  0  0  0  0  0  0  0  0
  -31.8952   62.8409   63.2899 O   0  0  0  0  0  0  0  0  0  0  0  0
  -31.8838   65.2584   63.4631 O   0  0  0  0  0  0  0  0  0  0  0  0
  -32.4272   64.0992   62.6997 S   0  0  0  0  0  0  0  0  0  0  0  0
  -32.3037   63.4611   60.7729 H   0  0  0  0  0  0  0  0  0  0  0  0
  -32.2257   66.0835   63.0848 H   0  0  0  0  0  0  0  0  0  0  0  0
  2  1  1  0  0  0
  2  4  1  0  0  0
  2  5  1  0  0  0
 41 42  1  0  0  0
 41  1  1  0  0  0
 42 46  1  0  0  0
  1 24  1  0  0  0
 23 24  1  0  0  0
 23 25  1  0  0  0
 24 26  1  0  0  0
  3  4  2  0  0  0
 26 27  2  0  0  0
 27 28  1  0  0  0
 43 47  1  0  0  0
 43 51  1  0  0  0
 28 29  1  0  0  0
 56 48  1  0  0  0
 56 60  1  0  0  0
 29 30  1  0  0  0
 57 60  1  0  0  0
 57 61  1  0  0  0
 30 31  1  0  0  0
 44 49  1  0  0  0
 44 52  1  0  0  0
 31 32  1  0  0  0
 45 46  1  0  0  0
 45 50  1  0  0  0
 32 33  1  0  0  0
 53 54  1  0  0  0
 53 55  1  0  0  0
 33 34  1  0  0  0
 34 35  1  0  0  0
 35 36  1  0  0  0
 58 60  1  0  0  0
 36 37  1  0  0  0
 59 60  1  0  0  0
 59 62  1  0  0  0
 37 38  1  0  0  0
 38 39  1  0  0  0
 39 40  1  0  0  0
  4  6  1  0  0  0
  6  7  1  0  0  0
  7  8  1  0  0  0
  8  9  1  0  0  0
  9 10  1  0  0  0
 10 11  1  0  0  0
 11 12  1  0  0  0
 12 13  1  0  0  0
 13 14  1  0  0  0
 14 15  1  0  0  0
 15 16  1  0  0  0
 16 17  1  0  0  0
 17 18  1  0  0  0
 18 19  1  0  0  0
 19 20  1  0  0  0
 20 21  1  0  0  0
 21 22  1  0  0  0
 46 47  1  0  0  0
 47 48  1  0  0  0
 48 49  1  0  0  0
 49 50  1  0  0  0
 50 54  1  0  0  0
M  CHG 1  58  -1
M  END
> <minimizedAffinity>
-9.65418

> <CNNscore>
0.2167056799

> <CNNaffinity>
7.2547926903

> <CNN_VS>
1.5721547604

> <CNNaffinity_variance>
1.2927836180

$$$$
/media/chris/experiments/cd1a-new-docking/inputs/ligands/1onq_ligand.pdb


 62 62  0  0  0  0  0  0  0  0999 V2000
  -39.1790   59.4504   64.5308 C   0  0  0  0  0  0  0  0  0  0  0  0
  -39.9173   60.1018   65.5946 N   0  0  0  0  0  0  0  0  0  0  0  0
  -41.7291   60.4192   66.9229 O   0  0  0  0  0  0  0  0  0  0  0  0
  -41.1547   59.8274   66.0297 C   0  0  0  0  0  0  0  0  0  0  0  0
  -39.4519   60.8372   66.0546 H   0  0  0  0  0  0  0  0  0  0  0  0
  -41.8440   58.6990   65.3219 C   0  0  0  0  0  0  0  0  0  0  0  0
  -42.5669   57.8893   66.3984 C   0  0  0  0  0  0  0  0  0  0  0  0
  -44.0719   58.1306   66.3098 C   0  0  0  0  0  0  0  0  0  0  0  0
  -44.5768   58.7007   65.0065 C   0  0  0  0  0  0  0  0  0  0  0  0
  -46.0801   58.4511   64.9460 C   0  0  0  0  0  0  0  0  0  0  0  0
  -46.8993   59.6313   65.4853 C   0  0  0  0  0  0  0  0  0  0  0  0
  -48.1860   59.2221   66.2251 C   0  0  0  0  0  0  0  0  0  0  0  0
  -48.8656   57.9810   65.6061 C   0  0  0  0  0  0  0  0  0  0  0  0
  -50.3618   58.2322   65.3978 C   0  0  0  0  0  0  0  0  0  0  0  0
  -50.7059   59.5532   64.7206 C   0  0  0  0  0  0  0  0  0  0  0  0
  -50.3875   59.5393   63.2327 C   0  0  0  0  0  0  0  0  0  0  0  0
  -50.8317   58.2933   62.4630 C   0  0  0  0  0  0  0  0  0  0  0  0
  -49.5987   57.6563   61.8366 C   0  0  0  0  0  0  0  0  0  0  0  0
  -49.1582   58.1225   60.4568 C   0  0  0  0  0  0  0  0  0  0  0  0
  -48.4528   56.9907   59.6931 C   0  0  0  0  0  0  0  0  0  0  0  0
  -46.9660   57.2538   59.3911 C   0  0  0  0  0  0  0  0  0  0  0  0
  -46.7362   57.9567   58.0552 C   0  0  0  0  0  0  0  0  0  0  0  0
  -37.7292   59.6000   66.3395 O   0  0  0  0  0  0  0  0  0  0  0  0
  -38.0822   58.7211   65.2876 C   0  0  0  0  0  0  0  0  0  0  0  0
  -38.4986   59.7441   66.9123 H   0  0  0  0  0  0  0  0  0  0  0  0
  -36.9083   58.4509   64.3434 C   0  0  0  0  0  0  0  0  0  0  0  0
  -35.6245   58.6114   64.7072 C   0  0  0  0  0  0  0  0  0  0  0  0
  -34.5084   58.3216   63.7054 C   0  0  0  0  0  0  0  0  0  0  0  0
  -34.9804   57.5802   62.4462 C   0  0  0  0  0  0  0  0  0  0  0  0
  -33.9939   56.5463   61.8724 C   0  0  0  0  0  0  0  0  0  0  0  0
  -33.5200   56.9646   60.4596 C   0  0  0  0  0  0  0  0  0  0  0  0
  -33.6887   55.8868   59.3591 C   0  0  0  0  0  0  0  0  0  0  0  0
  -34.3764   56.3985   58.0714 C   0  0  0  0  0  0  0  0  0  0  0  0
  -35.5054   57.4177   58.3375 C   0  0  0  0  0  0  0  0  0  0  0  0
  -36.8426   56.7723   58.7206 C   0  0  0  0  0  0  0  0  0  0  0  0
  -37.1394   56.6800   60.2159 C   0  0  0  0  0  0  0  0  0  0  0  0
  -38.0980   57.7709   60.7323 C   0  0  0  0  0  0  0  0  0  0  0  0
  -37.8153   59.1894   60.2148 C   0  0  0  0  0  0  0  0  0  0  0  0
  -38.9627   59.6924   59.3341 C   0  0  0  0  0  0  0  0  0  0  0  0
  -40.1908   60.2146   60.0583 C   0  0  0  0  0  0  0  0  0  0  0  0
  -38.7371   60.3683   63.3684 C   0  0  0  0  0  0  0  0  0  0  0  0
  -38.2985   61.7033   63.7274 O   0  0  0  0  0  0  0  0  0  0  0  0
  -36.2410   62.5457   61.9290 O   0  0  0  0  0  0  0  0  0  0  0  0
  -35.1315   64.9487   65.1528 O   0  0  0  0  0  0  0  0  0  0  0  0
  -36.7755   62.4285   65.4708 O   0  0  0  0  0  0  0  0  0  0  0  0
  -36.8960   61.9734   64.1012 C   0  0  0  0  0  0  0  0  0  0  0  0
  -36.1547   63.0076   63.2417 C   0  0  0  0  0  0  0  0  0  0  0  0
  -34.6615   63.1603   63.6049 C   0  0  0  0  0  0  0  0  0  0  0  0
  -34.6219   63.6226   65.0354 C   0  0  0  0  0  0  0  0  0  0  0  0
  -35.4093   62.6618   65.9077 C   0  0  0  0  0  0  0  0  0  0  0  0
  -37.1736   62.4435   61.6828 H   0  0  0  0  0  0  0  0  0  0  0  0
  -34.6148   65.5448   64.5883 H   0  0  0  0  0  0  0  0  0  0  0  0
  -36.4886   63.7921   67.7164 O   0  0  0  0  0  0  0  0  0  0  0  0
  -35.2534   63.3073   67.2829 C   0  0  0  0  0  0  0  0  0  0  0  0
  -36.3869   64.2014   68.5898 H   0  0  0  0  0  0  0  0  0  0  0  0
  -33.9209   64.1420   62.8449 O   0  0  0  0  0  0  0  0  0  0  0  0
  -31.8575   64.4996   61.3178 O   0  0  0  0  0  0  0  0  0  0  0  0
  -31.8249   62.7313   62.9794 O   0  0  0  0  0  0  0  0  0  0  0  0
  -31.5710   65.0448   63.6559 O   0  0  0  0  0  0  0  0  0  0  0  0
  -32.2618   64.1273   62.7058 S   0  0  0  0  0  0  0  0  0  0  0  0
  -32.2982   63.9120   60.6841 H   0  0  0  0  0  0  0  0  0  0  0  0
  -31.8502   65.9578   63.4845 H   0  0  0  0  0  0  0  0  0  0  0  0
  2  1  1  0  0  0
  2  4  1  0  0  0
  2  5  1  0  0  0
 41 42  1  0  0  0
 41  1  1  0  0  0
 42 46  1  0  0  0
  1 24  1  0  0  0
 23 24  1  0  0  0
 23 25  1  0  0  0
 24 26  1  0  0  0
  3  4  2  0  0  0
 26 27  2  0  0  0
 27 28  1  0  0  0
 43 47  1  0  0  0
 43 51  1  0  0  0
 28 29  1  0  0  0
 56 48  1  0  0  0
 56 60  1  0  0  0
 29 30  1  0  0  0
 57 60  1  0  0  0
 57 61  1  0  0  0
 30 31  1  0  0  0
 44 49  1  0  0  0
 44 52  1  0  0  0
 31 32  1  0  0  0
 45 46  1  0  0  0
 45 50  1  0  0  0
 32 33  1  0  0  0
 53 54  1  0  0  0
 53 55  1  0  0  0
 33 34  1  0  0  0
 34 35  1  0  0  0
 35 36  1  0  0  0
 58 60  1  0  0  0
 36 37  1  0  0  0
 59 60  1  0  0  0
 59 62  1  0  0  0
 37 38  1  0  0  0
 38 39  1  0  0  0
 39 40  1  0  0  0
  4  6  1  0  0  0
  6  7  1  0  0  0
  7  8  1  0  0  0
  8  9  1  0  0  0
  9 10  1  0  0  0
 10 11  1  0  0  0
 11 12  1  0  0  0
 12 13  1  0  0  0
 13 14  1  0  0  0
 14 15  1  0  0  0
 15 16  1  0  0  0
 16 17  1  0  0  0
 17 18  1  0  0  0
 18 19  1  0  0  0
 19 20  1  0  0  0
 20 21  1  0  0  0
 21 22  1  0  0  0
 46 47  1  0  0  0
 47 48  1  0  0  0
 48 49  1  0  0  0
 49 50  1  0  0  0
 50 54  1  0  0  0
M  CHG 1  58  -1
M  END
> <minimizedAffinity>
-9.34603

> <CNNscore>
0.2049728632

> <CNNaffinity>
7.1998643875

> <CNN_VS>
1.4757767916

> <CNNaffinity_variance>
1.0110342503

$$$$
