/media/chris/experiments/cd1a-new-docking/inputs/ligands/1onq_ligand.pdb


 62 62  0  0  0  0  0  0  0  0999 V2000
  -37.6681   59.3599   62.9585 C   0  0  0  0  0  0  0  0  0  0  0  0
  -38.8425   59.8014   63.6845 N   0  0  0  0  0  0  0  0  0  0  0  0
  -40.2365   60.4166   62.0035 O   0  0  0  0  0  0  0  0  0  0  0  0
  -39.9919   60.2768   63.1861 C   0  0  0  0  0  0  0  0  0  0  0  0
  -38.7889   59.7449   64.6659 H   0  0  0  0  0  0  0  0  0  0  0  0
  -41.0271   60.6428   64.2080 C   0  0  0  0  0  0  0  0  0  0  0  0
  -40.8327   59.6852   65.3838 C   0  0  0  0  0  0  0  0  0  0  0  0
  -42.1855   59.3295   65.9958 C   0  0  0  0  0  0  0  0  0  0  0  0
  -42.6257   57.8937   65.8432 C   0  0  0  0  0  0  0  0  0  0  0  0
  -44.0269   57.7762   66.4335 C   0  0  0  0  0  0  0  0  0  0  0  0
  -44.9343   58.9515   66.0458 C   0  0  0  0  0  0  0  0  0  0  0  0
  -46.2018   58.5434   65.2728 C   0  0  0  0  0  0  0  0  0  0  0  0
  -47.1922   57.7270   66.1321 C   0  0  0  0  0  0  0  0  0  0  0  0
  -48.5549   57.6304   65.4401 C   0  0  0  0  0  0  0  0  0  0  0  0
  -49.4866   58.8114   65.6829 C   0  0  0  0  0  0  0  0  0  0  0  0
  -49.7214   59.6303   64.4222 C   0  0  0  0  0  0  0  0  0  0  0  0
  -51.1839   59.8648   64.0370 C   0  0  0  0  0  0  0  0  0  0  0  0
  -51.4311   59.2080   62.6857 C   0  0  0  0  0  0  0  0  0  0  0  0
  -50.6774   57.9304   62.3469 C   0  0  0  0  0  0  0  0  0  0  0  0
  -51.1482   57.3545   61.0019 C   0  0  0  0  0  0  0  0  0  0  0  0
  -50.0998   57.4227   59.8761 C   0  0  0  0  0  0  0  0  0  0  0  0
  -48.6869   57.7031   60.3827 C   0  0  0  0  0  0  0  0  0  0  0  0
  -36.9391   57.1724   63.2402 O   0  0  0  0  0  0  0  0  0  0  0  0
  -37.9950   57.9086   62.6513 C   0  0  0  0  0  0  0  0  0  0  0  0
  -36.9346   57.3238   64.1984 H   0  0  0  0  0  0  0  0  0  0  0  0
  -38.0585   57.7133   61.1347 C   0  0  0  0  0  0  0  0  0  0  0  0
  -37.7227   58.6751   60.2582 C   0  0  0  0  0  0  0  0  0  0  0  0
  -37.8141   58.4023   58.7580 C   0  0  0  0  0  0  0  0  0  0  0  0
  -36.4499   58.3062   58.0594 C   0  0  0  0  0  0  0  0  0  0  0  0
  -35.9231   56.8792   57.8194 C   0  0  0  0  0  0  0  0  0  0  0  0
  -34.3759   56.8531   57.8465 C   0  0  0  0  0  0  0  0  0  0  0  0
  -33.7481   56.0166   58.9902 C   0  0  0  0  0  0  0  0  0  0  0  0
  -34.7179   55.7081   60.1551 C   0  0  0  0  0  0  0  0  0  0  0  0
  -34.2297   56.2366   61.5214 C   0  0  0  0  0  0  0  0  0  0  0  0
  -33.9839   57.7500   61.5461 C   0  0  0  0  0  0  0  0  0  0  0  0
  -32.9747   58.2494   62.5779 C   0  0  0  0  0  0  0  0  0  0  0  0
  -32.1888   59.4979   62.1313 C   0  0  0  0  0  0  0  0  0  0  0  0
  -30.6595   59.3678   62.1987 C   0  0  0  0  0  0  0  0  0  0  0  0
  -30.0062   60.7166   62.5133 C   0  0  0  0  0  0  0  0  0  0  0  0
  -30.1216   61.7885   61.4441 C   0  0  0  0  0  0  0  0  0  0  0  0
  -36.3140   59.6423   63.6480 C   0  0  0  0  0  0  0  0  0  0  0  0
  -35.5039   60.7009   63.0766 O   0  0  0  0  0  0  0  0  0  0  0  0
  -33.5389   62.5759   62.1819 O   0  0  0  0  0  0  0  0  0  0  0  0
  -35.4703   65.0960   64.8870 O   0  0  0  0  0  0  0  0  0  0  0  0
  -35.6003   62.0786   65.0711 O   0  0  0  0  0  0  0  0  0  0  0  0
  -34.7986   61.6733   63.9350 C   0  0  0  0  0  0  0  0  0  0  0  0
  -34.3409   62.9701   63.2521 C   0  0  0  0  0  0  0  0  0  0  0  0
  -33.5077   63.8930   64.1684 C   0  0  0  0  0  0  0  0  0  0  0  0
  -34.4013   64.2588   65.3213 C   0  0  0  0  0  0  0  0  0  0  0  0
  -34.9344   62.9982   65.9779 C   0  0  0  0  0  0  0  0  0  0  0  0
  -34.0466   61.9944   61.5945 H   0  0  0  0  0  0  0  0  0  0  0  0
  -35.1077   65.8939   64.4713 H   0  0  0  0  0  0  0  0  0  0  0  0
  -36.2543   62.5566   67.9213 O   0  0  0  0  0  0  0  0  0  0  0  0
  -35.8051   63.5827   67.0881 C   0  0  0  0  0  0  0  0  0  0  0  0
  -36.8070   62.9304   68.6254 H   0  0  0  0  0  0  0  0  0  0  0  0
  -33.0735   65.1423   63.5845 O   0  0  0  0  0  0  0  0  0  0  0  0
  -31.7519   64.7364   61.3924 O   0  0  0  0  0  0  0  0  0  0  0  0
  -30.6149   64.5481   63.5281 O   0  0  0  0  0  0  0  0  0  0  0  0
  -31.1822   66.7296   62.6369 O   0  0  0  0  0  0  0  0  0  0  0  0
  -31.6355   65.3153   62.7636 S   0  0  0  0  0  0  0  0  0  0  0  0
  -32.0464   63.8143   61.4547 H   0  0  0  0  0  0  0  0  0  0  0  0
  -31.8422   67.2373   62.1395 H   0  0  0  0  0  0  0  0  0  0  0  0
  2  1  1  0  0  0
  2  4  1  0  0  0
  2  5  1  0  0  0
 41 42  1  0  0  0
 41  1  1  0  0  0
 42 46  1  0  0  0
  1 24  1  0  0  0
 23 24  1  0  0  0
 23 25  1  0  0  0
 24 26  1  0  0  0
  3  4  2  0  0  0
 26 27  2  0  0  0
 27 28  1  0  0  0
 43 47  1  0  0  0
 43 51  1  0  0  0
 28 29  1  0  0  0
 56 48  1  0  0  0
 56 60  1  0  0  0
 29 30  1  0  0  0
 57 60  1  0  0  0
 57 61  1  0  0  0
 30 31  1  0  0  0
 44 49  1  0  0  0
 44 52  1  0  0  0
 31 32  1  0  0  0
 45 46  1  0  0  0
 45 50  1  0  0  0
 32 33  1  0  0  0
 53 54  1  0  0  0
 53 55  1  0  0  0
 33 34  1  0  0  0
 34 35  1  0  0  0
 35 36  1  0  0  0
 58 60  1  0  0  0
 36 37  1  0  0  0
 59 60  1  0  0  0
 59 62  1  0  0  0
 37 38  1  0  0  0
 38 39  1  0  0  0
 39 40  1  0  0  0
  4  6  1  0  0  0
  6  7  1  0  0  0
  7  8  1  0  0  0
  8  9  1  0  0  0
  9 10  1  0  0  0
 10 11  1  0  0  0
 11 12  1  0  0  0
 12 13  1  0  0  0
 13 14  1  0  0  0
 14 15  1  0  0  0
 15 16  1  0  0  0
 16 17  1  0  0  0
 17 18  1  0  0  0
 18 19  1  0  0  0
 19 20  1  0  0  0
 20 21  1  0  0  0
 21 22  1  0  0  0
 46 47  1  0  0  0
 47 48  1  0  0  0
 48 49  1  0  0  0
 49 50  1  0  0  0
 50 54  1  0  0  0
M  CHG 1  58  -1
M  END
> <minimizedAffinity>
-9.68439

> <CNNscore>
0.5025631785

> <CNNaffinity>
7.1379728317

> <CNN_VS>
3.5872824192

> <CNNaffinity_variance>
0.9911420941

$$$$
/media/chris/experiments/cd1a-new-docking/inputs/ligands/1onq_ligand.pdb


 62 62  0  0  0  0  0  0  0  0999 V2000
  -40.1280   58.9804   64.9499 C   0  0  0  0  0  0  0  0  0  0  0  0
  -40.0984   59.3875   63.5591 N   0  0  0  0  0  0  0  0  0  0  0  0
  -41.1375   61.4031   63.6321 O   0  0  0  0  0  0  0  0  0  0  0  0
  -40.5802   60.5145   63.0175 C   0  0  0  0  0  0  0  0  0  0  0  0
  -39.6712   58.7576   62.9346 H   0  0  0  0  0  0  0  0  0  0  0  0
  -40.3841   60.6447   61.5361 C   0  0  0  0  0  0  0  0  0  0  0  0
  -39.3931   59.5527   61.1326 C   0  0  0  0  0  0  0  0  0  0  0  0
  -38.9136   59.7865   59.7020 C   0  0  0  0  0  0  0  0  0  0  0  0
  -37.5605   59.2149   59.3542 C   0  0  0  0  0  0  0  0  0  0  0  0
  -37.7585   58.2244   58.2117 C   0  0  0  0  0  0  0  0  0  0  0  0
  -36.5133   57.3675   57.9471 C   0  0  0  0  0  0  0  0  0  0  0  0
  -36.4738   56.0480   58.7396 C   0  0  0  0  0  0  0  0  0  0  0  0
  -35.0416   55.6309   59.1402 C   0  0  0  0  0  0  0  0  0  0  0  0
  -34.7594   56.0015   60.5990 C   0  0  0  0  0  0  0  0  0  0  0  0
  -33.9747   57.2927   60.7963 C   0  0  0  0  0  0  0  0  0  0  0  0
  -32.9905   57.1992   61.9528 C   0  0  0  0  0  0  0  0  0  0  0  0
  -32.8798   58.4400   62.8419 C   0  0  0  0  0  0  0  0  0  0  0  0
  -34.2484   58.7122   63.4513 C   0  0  0  0  0  0  0  0  0  0  0  0
  -34.7435   57.8043   64.5674 C   0  0  0  0  0  0  0  0  0  0  0  0
  -36.1325   57.2349   64.2377 C   0  0  0  0  0  0  0  0  0  0  0  0
  -36.7997   57.8571   62.9972 C   0  0  0  0  0  0  0  0  0  0  0  0
  -37.7801   56.9152   62.3023 C   0  0  0  0  0  0  0  0  0  0  0  0
  -41.2993   60.2437   66.5082 O   0  0  0  0  0  0  0  0  0  0  0  0
  -41.5188   59.4046   65.3894 C   0  0  0  0  0  0  0  0  0  0  0  0
  -40.7792   61.0159   66.2360 H   0  0  0  0  0  0  0  0  0  0  0  0
  -42.3368   58.1628   65.7516 C   0  0  0  0  0  0  0  0  0  0  0  0
  -43.6799   58.1592   65.7985 C   0  0  0  0  0  0  0  0  0  0  0  0
  -44.4243   56.8780   66.1698 C   0  0  0  0  0  0  0  0  0  0  0  0
  -45.9456   56.9657   65.9801 C   0  0  0  0  0  0  0  0  0  0  0  0
  -46.4200   57.7950   64.7723 C   0  0  0  0  0  0  0  0  0  0  0  0
  -47.9261   58.1297   64.8933 C   0  0  0  0  0  0  0  0  0  0  0  0
  -48.6656   58.3481   63.5490 C   0  0  0  0  0  0  0  0  0  0  0  0
  -50.2077   58.3599   63.6689 C   0  0  0  0  0  0  0  0  0  0  0  0
  -50.9322   58.4465   62.3081 C   0  0  0  0  0  0  0  0  0  0  0  0
  -50.0203   58.8646   61.1483 C   0  0  0  0  0  0  0  0  0  0  0  0
  -49.8931   57.8654   60.0005 C   0  0  0  0  0  0  0  0  0  0  0  0
  -48.4575   57.3516   59.7742 C   0  0  0  0  0  0  0  0  0  0  0  0
  -48.0653   57.1297   58.3055 C   0  0  0  0  0  0  0  0  0  0  0  0
  -46.7341   57.8145   57.9823 C   0  0  0  0  0  0  0  0  0  0  0  0
  -45.6191   57.6358   58.9973 C   0  0  0  0  0  0  0  0  0  0  0  0
  -38.9414   59.4685   65.8118 C   0  0  0  0  0  0  0  0  0  0  0  0
  -38.6408   60.8862   65.7574 O   0  0  0  0  0  0  0  0  0  0  0  0
  -37.1053   60.9937   63.3474 O   0  0  0  0  0  0  0  0  0  0  0  0
  -35.7875   64.6049   64.9665 O   0  0  0  0  0  0  0  0  0  0  0  0
  -36.9457   62.3740   66.6509 O   0  0  0  0  0  0  0  0  0  0  0  0
  -37.2498   61.3702   65.6522 C   0  0  0  0  0  0  0  0  0  0  0  0
  -36.8460   61.9773   64.3010 C   0  0  0  0  0  0  0  0  0  0  0  0
  -35.3513   62.3561   64.2130 C   0  0  0  0  0  0  0  0  0  0  0  0
  -35.1154   63.3878   65.2813 C   0  0  0  0  0  0  0  0  0  0  0  0
  -35.5728   62.8496   66.6250 C   0  0  0  0  0  0  0  0  0  0  0  0
  -38.0414   60.7428   63.3881 H   0  0  0  0  0  0  0  0  0  0  0  0
  -35.4807   64.9303   64.1057 H   0  0  0  0  0  0  0  0  0  0  0  0
  -33.9600   64.4762   67.3083 O   0  0  0  0  0  0  0  0  0  0  0  0
  -35.2617   64.0296   67.5432 C   0  0  0  0  0  0  0  0  0  0  0  0
  -33.7649   65.2255   67.8927 H   0  0  0  0  0  0  0  0  0  0  0  0
  -34.9216   62.9584   62.9710 O   0  0  0  0  0  0  0  0  0  0  0  0
  -33.2094   64.8953   63.1542 O   0  0  0  0  0  0  0  0  0  0  0  0
  -33.1439   63.4176   61.2303 O   0  0  0  0  0  0  0  0  0  0  0  0
  -32.3264   62.6559   63.3811 O   0  0  0  0  0  0  0  0  0  0  0  0
  -33.3642   63.4814   62.7007 S   0  0  0  0  0  0  0  0  0  0  0  0
  -33.8777   65.4489   62.7210 H   0  0  0  0  0  0  0  0  0  0  0  0
  -32.4627   62.6917   64.3407 H   0  0  0  0  0  0  0  0  0  0  0  0
  2  1  1  0  0  0
  2  4  1  0  0  0
  2  5  1  0  0  0
 41 42  1  0  0  0
 41  1  1  0  0  0
 42 46  1  0  0  0
  1 24  1  0  0  0
 23 24  1  0  0  0
 23 25  1  0  0  0
 24 26  1  0  0  0
  3  4  2  0  0  0
 26 27  2  0  0  0
 27 28  1  0  0  0
 43 47  1  0  0  0
 43 51  1  0  0  0
 28 29  1  0  0  0
 56 48  1  0  0  0
 56 60  1  0  0  0
 29 30  1  0  0  0
 57 60  1  0  0  0
 57 61  1  0  0  0
 30 31  1  0  0  0
 44 49  1  0  0  0
 44 52  1  0  0  0
 31 32  1  0  0  0
 45 46  1  0  0  0
 45 50  1  0  0  0
 32 33  1  0  0  0
 53 54  1  0  0  0
 53 55  1  0  0  0
 33 34  1  0  0  0
 34 35  1  0  0  0
 35 36  1  0  0  0
 58 60  1  0  0  0
 36 37  1  0  0  0
 59 60  1  0  0  0
 59 62  1  0  0  0
 37 38  1  0  0  0
 38 39  1  0  0  0
 39 40  1  0  0  0
  4  6  1  0  0  0
  6  7  1  0  0  0
  7  8  1  0  0  0
  8  9  1  0  0  0
  9 10  1  0  0  0
 10 11  1  0  0  0
 11 12  1  0  0  0
 12 13  1  0  0  0
 13 14  1  0  0  0
 14 15  1  0  0  0
 15 16  1  0  0  0
 16 17  1  0  0  0
 17 18  1  0  0  0
 18 19  1  0  0  0
 19 20  1  0  0  0
 20 21  1  0  0  0
 21 22  1  0  0  0
 46 47  1  0  0  0
 47 48  1  0  0  0
 48 49  1  0  0  0
 49 50  1  0  0  0
 50 54  1  0  0  0
M  CHG 1  58  -1
M  END
> <minimizedAffinity>
-9.62394

> <CNNscore>
0.4621266723

> <CNNaffinity>
7.5947356224

> <CNN_VS>
3.5097298622

> <CNNaffinity_variance>
1.1906162500

$$$$
/media/chris/experiments/cd1a-new-docking/inputs/ligands/1onq_ligand.pdb


 62 62  0  0  0  0  0  0  0  0999 V2000
  -40.0831   58.7065   64.6724 C   0  0  0  0  0  0  0  0  0  0  0  0
  -41.1635   58.1507   65.4630 N   0  0  0  0  0  0  0  0  0  0  0  0
  -42.9427   59.3703   64.7598 O   0  0  0  0  0  0  0  0  0  0  0  0
  -42.4570   58.5003   65.4563 C   0  0  0  0  0  0  0  0  0  0  0  0
  -40.9160   57.4262   66.0819 H   0  0  0  0  0  0  0  0  0  0  0  0
  -43.3328   57.7219   66.3927 C   0  0  0  0  0  0  0  0  0  0  0  0
  -44.3696   57.0089   65.5244 C   0  0  0  0  0  0  0  0  0  0  0  0
  -45.7700   57.2434   66.0858 C   0  0  0  0  0  0  0  0  0  0  0  0
  -46.0315   58.6123   66.6656 C   0  0  0  0  0  0  0  0  0  0  0  0
  -46.6815   59.4579   65.5755 C   0  0  0  0  0  0  0  0  0  0  0  0
  -47.9089   58.7802   64.9519 C   0  0  0  0  0  0  0  0  0  0  0  0
  -49.1260   58.6893   65.8905 C   0  0  0  0  0  0  0  0  0  0  0  0
  -50.4452   58.4092   65.1377 C   0  0  0  0  0  0  0  0  0  0  0  0
  -50.9099   59.6564   64.3803 C   0  0  0  0  0  0  0  0  0  0  0  0
  -51.5061   59.3901   63.0035 C   0  0  0  0  0  0  0  0  0  0  0  0
  -50.7662   58.2902   62.2569 C   0  0  0  0  0  0  0  0  0  0  0  0
  -49.4595   58.7034   61.5755 C   0  0  0  0  0  0  0  0  0  0  0  0
  -48.9513   57.5197   60.7637 C   0  0  0  0  0  0  0  0  0  0  0  0
  -48.5398   57.7503   59.3170 C   0  0  0  0  0  0  0  0  0  0  0  0
  -47.0524   57.4236   59.1098 C   0  0  0  0  0  0  0  0  0  0  0  0
  -46.6051   57.3904   57.6367 C   0  0  0  0  0  0  0  0  0  0  0  0
  -47.5606   56.6147   56.7328 C   0  0  0  0  0  0  0  0  0  0  0  0
  -37.9699   58.0839   65.4088 O   0  0  0  0  0  0  0  0  0  0  0  0
  -39.0642   57.5799   64.6658 C   0  0  0  0  0  0  0  0  0  0  0  0
  -38.2562   58.2772   66.3153 H   0  0  0  0  0  0  0  0  0  0  0  0
  -38.6788   57.2534   63.2210 C   0  0  0  0  0  0  0  0  0  0  0  0
  -38.5717   58.1895   62.2627 C   0  0  0  0  0  0  0  0  0  0  0  0
  -38.1828   57.7827   60.8426 C   0  0  0  0  0  0  0  0  0  0  0  0
  -38.0401   58.9659   59.8741 C   0  0  0  0  0  0  0  0  0  0  0  0
  -37.1851   58.7021   58.6208 C   0  0  0  0  0  0  0  0  0  0  0  0
  -36.9809   57.1832   58.4051 C   0  0  0  0  0  0  0  0  0  0  0  0
  -35.6301   56.7821   57.7598 C   0  0  0  0  0  0  0  0  0  0  0  0
  -34.5369   56.3795   58.7774 C   0  0  0  0  0  0  0  0  0  0  0  0
  -35.1012   55.8055   60.0951 C   0  0  0  0  0  0  0  0  0  0  0  0
  -34.3414   56.2660   61.3449 C   0  0  0  0  0  0  0  0  0  0  0  0
  -34.7473   57.6233   61.9152 C   0  0  0  0  0  0  0  0  0  0  0  0
  -33.9874   58.0159   63.1976 C   0  0  0  0  0  0  0  0  0  0  0  0
  -32.4717   58.2015   63.0296 C   0  0  0  0  0  0  0  0  0  0  0  0
  -32.1585   59.1310   61.8535 C   0  0  0  0  0  0  0  0  0  0  0  0
  -30.8719   59.9315   61.9495 C   0  0  0  0  0  0  0  0  0  0  0  0
  -39.5835   60.1006   65.1147 C   0  0  0  0  0  0  0  0  0  0  0  0
  -38.8525   60.8707   64.1269 O   0  0  0  0  0  0  0  0  0  0  0  0
  -36.8931   61.2977   62.0882 O   0  0  0  0  0  0  0  0  0  0  0  0
  -35.8061   64.4970   64.5341 O   0  0  0  0  0  0  0  0  0  0  0  0
  -37.3151   62.0830   65.5594 O   0  0  0  0  0  0  0  0  0  0  0  0
  -37.4542   61.2836   64.3598 C   0  0  0  0  0  0  0  0  0  0  0  0
  -36.7903   62.0875   63.2326 C   0  0  0  0  0  0  0  0  0  0  0  0
  -35.2960   62.3879   63.4819 C   0  0  0  0  0  0  0  0  0  0  0  0
  -35.2362   63.2069   64.7418 C   0  0  0  0  0  0  0  0  0  0  0  0
  -35.9495   62.4752   65.8643 C   0  0  0  0  0  0  0  0  0  0  0  0
  -37.8267   61.0986   61.9157 H   0  0  0  0  0  0  0  0  0  0  0  0
  -35.3362   64.9459   63.8140 H   0  0  0  0  0  0  0  0  0  0  0  0
  -36.9523   64.2113   67.1659 O   0  0  0  0  0  0  0  0  0  0  0  0
  -35.7841   63.4612   67.0187 C   0  0  0  0  0  0  0  0  0  0  0  0
  -36.8446   64.8367   67.8996 H   0  0  0  0  0  0  0  0  0  0  0  0
  -34.6272   63.1670   62.4642 O   0  0  0  0  0  0  0  0  0  0  0  0
  -32.3941   63.6818   61.2539 O   0  0  0  0  0  0  0  0  0  0  0  0
  -32.3545   62.6924   63.4695 O   0  0  0  0  0  0  0  0  0  0  0  0
  -32.9034   65.0367   63.1906 O   0  0  0  0  0  0  0  0  0  0  0  0
  -33.0480   63.6776   62.5959 S   0  0  0  0  0  0  0  0  0  0  0  0
  -32.4781   62.8037   60.8505 H   0  0  0  0  0  0  0  0  0  0  0  0
  -33.3530   65.6856   62.6271 H   0  0  0  0  0  0  0  0  0  0  0  0
  2  1  1  0  0  0
  2  4  1  0  0  0
  2  5  1  0  0  0
 41 42  1  0  0  0
 41  1  1  0  0  0
 42 46  1  0  0  0
  1 24  1  0  0  0
 23 24  1  0  0  0
 23 25  1  0  0  0
 24 26  1  0  0  0
  3  4  2  0  0  0
 26 27  2  0  0  0
 27 28  1  0  0  0
 43 47  1  0  0  0
 43 51  1  0  0  0
 28 29  1  0  0  0
 56 48  1  0  0  0
 56 60  1  0  0  0
 29 30  1  0  0  0
 57 60  1  0  0  0
 57 61  1  0  0  0
 30 31  1  0  0  0
 44 49  1  0  0  0
 44 52  1  0  0  0
 31 32  1  0  0  0
 45 46  1  0  0  0
 45 50  1  0  0  0
 32 33  1  0  0  0
 53 54  1  0  0  0
 53 55  1  0  0  0
 33 34  1  0  0  0
 34 35  1  0  0  0
 35 36  1  0  0  0
 58 60  1  0  0  0
 36 37  1  0  0  0
 59 60  1  0  0  0
 59 62  1  0  0  0
 37 38  1  0  0  0
 38 39  1  0  0  0
 39 40  1  0  0  0
  4  6  1  0  0  0
  6  7  1  0  0  0
  7  8  1  0  0  0
  8  9  1  0  0  0
  9 10  1  0  0  0
 10 11  1  0  0  0
 11 12  1  0  0  0
 12 13  1  0  0  0
 13 14  1  0  0  0
 14 15  1  0  0  0
 15 16  1  0  0  0
 16 17  1  0  0  0
 17 18  1  0  0  0
 18 19  1  0  0  0
 19 20  1  0  0  0
 20 21  1  0  0  0
 21 22  1  0  0  0
 46 47  1  0  0  0
 47 48  1  0  0  0
 48 49  1  0  0  0
 49 50  1  0  0  0
 50 54  1  0  0  0
M  CHG 1  58  -1
M  END
> <minimizedAffinity>
-10.24123

> <CNNscore>
0.4139464498

> <CNNaffinity>
7.2135267258

> <CNN_VS>
2.9860138893

> <CNNaffinity_variance>
1.2513295412

$$$$
/media/chris/experiments/cd1a-new-docking/inputs/ligands/1onq_ligand.pdb


 62 62  0  0  0  0  0  0  0  0999 V2000
  -38.9001   59.3152   65.4417 C   0  0  0  0  0  0  0  0  0  0  0  0
  -38.5313   58.8459   64.1207 N   0  0  0  0  0  0  0  0  0  0  0  0
  -37.0425   57.2022   64.5993 O   0  0  0  0  0  0  0  0  0  0  0  0
  -37.6706   57.8699   63.8009 C   0  0  0  0  0  0  0  0  0  0  0  0
  -38.9675   59.3009   63.3644 H   0  0  0  0  0  0  0  0  0  0  0  0
  -37.5120   57.6159   62.3312 C   0  0  0  0  0  0  0  0  0  0  0  0
  -36.0102   57.6441   62.0462 C   0  0  0  0  0  0  0  0  0  0  0  0
  -35.6931   56.7724   60.8335 C   0  0  0  0  0  0  0  0  0  0  0  0
  -36.8379   56.5154   59.8837 C   0  0  0  0  0  0  0  0  0  0  0  0
  -36.6072   57.3703   58.6421 C   0  0  0  0  0  0  0  0  0  0  0  0
  -37.7546   58.3544   58.3781 C   0  0  0  0  0  0  0  0  0  0  0  0
  -37.8833   59.4721   59.4291 C   0  0  0  0  0  0  0  0  0  0  0  0
  -39.2905   59.5420   60.0620 C   0  0  0  0  0  0  0  0  0  0  0  0
  -40.2512   60.3196   59.1577 C   0  0  0  0  0  0  0  0  0  0  0  0
  -41.5429   59.5898   58.8101 C   0  0  0  0  0  0  0  0  0  0  0  0
  -41.5850   59.1529   57.3533 C   0  0  0  0  0  0  0  0  0  0  0  0
  -42.9660   58.7934   56.8002 C   0  0  0  0  0  0  0  0  0  0  0  0
  -43.8833   58.4837   57.9754 C   0  0  0  0  0  0  0  0  0  0  0  0
  -45.3832   58.4100   57.7303 C   0  0  0  0  0  0  0  0  0  0  0  0
  -46.0336   57.3385   58.6197 C   0  0  0  0  0  0  0  0  0  0  0  0
  -47.2247   56.6082   57.9723 C   0  0  0  0  0  0  0  0  0  0  0  0
  -47.7148   55.4126   58.7859 C   0  0  0  0  0  0  0  0  0  0  0  0
  -40.4480   60.9360   66.0526 O   0  0  0  0  0  0  0  0  0  0  0  0
  -40.3309   59.7835   65.2390 C   0  0  0  0  0  0  0  0  0  0  0  0
  -39.8231   61.6122   65.7471 H   0  0  0  0  0  0  0  0  0  0  0  0
  -41.2932   58.6738   65.6692 C   0  0  0  0  0  0  0  0  0  0  0  0
  -42.2140   58.8370   66.6344 C   0  0  0  0  0  0  0  0  0  0  0  0
  -43.1381   57.6793   67.0072 C   0  0  0  0  0  0  0  0  0  0  0  0
  -43.5450   56.8001   65.8156 C   0  0  0  0  0  0  0  0  0  0  0  0
  -45.0454   56.8005   65.4687 C   0  0  0  0  0  0  0  0  0  0  0  0
  -45.5702   58.2469   65.3020 C   0  0  0  0  0  0  0  0  0  0  0  0
  -46.4506   58.7696   66.4654 C   0  0  0  0  0  0  0  0  0  0  0  0
  -47.5156   59.8066   66.0374 C   0  0  0  0  0  0  0  0  0  0  0  0
  -48.9665   59.3015   66.1924 C   0  0  0  0  0  0  0  0  0  0  0  0
  -49.5665   58.7394   64.8980 C   0  0  0  0  0  0  0  0  0  0  0  0
  -48.8856   59.1694   63.6004 C   0  0  0  0  0  0  0  0  0  0  0  0
  -49.2854   58.3251   62.3743 C   0  0  0  0  0  0  0  0  0  0  0  0
  -50.7968   58.1364   62.1738 C   0  0  0  0  0  0  0  0  0  0  0  0
  -51.0843   57.2642   60.9483 C   0  0  0  0  0  0  0  0  0  0  0  0
  -50.3776   57.6532   59.6620 C   0  0  0  0  0  0  0  0  0  0  0  0
  -37.9194   60.3189   66.0893 C   0  0  0  0  0  0  0  0  0  0  0  0
  -37.4829   61.4258   65.2601 O   0  0  0  0  0  0  0  0  0  0  0  0
  -35.6897   60.8195   63.1166 O   0  0  0  0  0  0  0  0  0  0  0  0
  -34.3389   64.6981   63.8450 O   0  0  0  0  0  0  0  0  0  0  0  0
  -35.8081   63.0533   65.9166 O   0  0  0  0  0  0  0  0  0  0  0  0
  -36.0619   61.8219   65.1979 C   0  0  0  0  0  0  0  0  0  0  0  0
  -35.4767   62.0203   63.7923 C   0  0  0  0  0  0  0  0  0  0  0  0
  -33.9610   62.3172   63.7877 C   0  0  0  0  0  0  0  0  0  0  0  0
  -33.7807   63.5966   64.5571 C   0  0  0  0  0  0  0  0  0  0  0  0
  -34.4142   63.4638   65.9303 C   0  0  0  0  0  0  0  0  0  0  0  0
  -36.6382   60.6165   63.1095 H   0  0  0  0  0  0  0  0  0  0  0  0
  -33.9207   64.7643   62.9722 H   0  0  0  0  0  0  0  0  0  0  0  0
  -32.7762   65.1409   66.3973 O   0  0  0  0  0  0  0  0  0  0  0  0
  -34.1339   64.8421   66.5252 C   0  0  0  0  0  0  0  0  0  0  0  0
  -32.6008   66.0165   66.7760 H   0  0  0  0  0  0  0  0  0  0  0  0
  -33.3622   62.5404   62.4909 O   0  0  0  0  0  0  0  0  0  0  0  0
  -31.3621   63.6128   61.2395 O   0  0  0  0  0  0  0  0  0  0  0  0
  -31.3581   61.2263   61.6800 O   0  0  0  0  0  0  0  0  0  0  0  0
  -30.9199   62.7978   63.4725 O   0  0  0  0  0  0  0  0  0  0  0  0
  -31.7171   62.5593   62.2359 S   0  0  0  0  0  0  0  0  0  0  0  0
  -31.8720   63.4737   60.4262 H   0  0  0  0  0  0  0  0  0  0  0  0
  -31.1479   63.6652   63.8418 H   0  0  0  0  0  0  0  0  0  0  0  0
  2  1  1  0  0  0
  2  4  1  0  0  0
  2  5  1  0  0  0
 41 42  1  0  0  0
 41  1  1  0  0  0
 42 46  1  0  0  0
  1 24  1  0  0  0
 23 24  1  0  0  0
 23 25  1  0  0  0
 24 26  1  0  0  0
  3  4  2  0  0  0
 26 27  2  0  0  0
 27 28  1  0  0  0
 43 47  1  0  0  0
 43 51  1  0  0  0
 28 29  1  0  0  0
 56 48  1  0  0  0
 56 60  1  0  0  0
 29 30  1  0  0  0
 57 60  1  0  0  0
 57 61  1  0  0  0
 30 31  1  0  0  0
 44 49  1  0  0  0
 44 52  1  0  0  0
 31 32  1  0  0  0
 45 46  1  0  0  0
 45 50  1  0  0  0
 32 33  1  0  0  0
 53 54  1  0  0  0
 53 55  1  0  0  0
 33 34  1  0  0  0
 34 35  1  0  0  0
 35 36  1  0  0  0
 58 60  1  0  0  0
 36 37  1  0  0  0
 59 60  1  0  0  0
 59 62  1  0  0  0
 37 38  1  0  0  0
 38 39  1  0  0  0
 39 40  1  0  0  0
  4  6  1  0  0  0
  6  7  1  0  0  0
  7  8  1  0  0  0
  8  9  1  0  0  0
  9 10  1  0  0  0
 10 11  1  0  0  0
 11 12  1  0  0  0
 12 13  1  0  0  0
 13 14  1  0  0  0
 14 15  1  0  0  0
 15 16  1  0  0  0
 16 17  1  0  0  0
 17 18  1  0  0  0
 18 19  1  0  0  0
 19 20  1  0  0  0
 20 21  1  0  0  0
 21 22  1  0  0  0
 46 47  1  0  0  0
 47 48  1  0  0  0
 48 49  1  0  0  0
 49 50  1  0  0  0
 50 54  1  0  0  0
M  CHG 1  58  -1
M  END
> <minimizedAffinity>
-9.09622

> <CNNscore>
0.3767593801

> <CNNaffinity>
7.1893205643

> <CNN_VS>
2.7086439133

> <CNNaffinity_variance>
0.9865105748

$$$$
/media/chris/experiments/cd1a-new-docking/inputs/ligands/1onq_ligand.pdb


 62 62  0  0  0  0  0  0  0  0999 V2000
  -39.0726   59.7507   62.9893 C   0  0  0  0  0  0  0  0  0  0  0  0
  -39.7251   59.6810   64.2818 N   0  0  0  0  0  0  0  0  0  0  0  0
  -41.3340   61.2689   64.0876 O   0  0  0  0  0  0  0  0  0  0  0  0
  -40.7604   60.4071   64.7250 C   0  0  0  0  0  0  0  0  0  0  0  0
  -39.3624   59.0177   64.9124 H   0  0  0  0  0  0  0  0  0  0  0  0
  -41.2133   60.0875   66.1187 C   0  0  0  0  0  0  0  0  0  0  0  0
  -42.0382   58.8038   66.0226 C   0  0  0  0  0  0  0  0  0  0  0  0
  -43.3052   58.9339   66.8645 C   0  0  0  0  0  0  0  0  0  0  0  0
  -44.5962   59.0966   66.0994 C   0  0  0  0  0  0  0  0  0  0  0  0
  -44.6257   58.0271   65.0126 C   0  0  0  0  0  0  0  0  0  0  0  0
  -45.4802   56.8125   65.3989 C   0  0  0  0  0  0  0  0  0  0  0  0
  -46.5591   57.1091   66.4565 C   0  0  0  0  0  0  0  0  0  0  0  0
  -47.9948   56.9231   65.9181 C   0  0  0  0  0  0  0  0  0  0  0  0
  -48.7805   58.2342   66.0113 C   0  0  0  0  0  0  0  0  0  0  0  0
  -50.1451   58.2179   65.3333 C   0  0  0  0  0  0  0  0  0  0  0  0
  -50.2305   59.2110   64.1837 C   0  0  0  0  0  0  0  0  0  0  0  0
  -51.1396   58.8125   63.0188 C   0  0  0  0  0  0  0  0  0  0  0  0
  -50.2626   58.2973   61.8857 C   0  0  0  0  0  0  0  0  0  0  0  0
  -50.8754   57.3560   60.8592 C   0  0  0  0  0  0  0  0  0  0  0  0
  -50.1658   57.4854   59.5020 C   0  0  0  0  0  0  0  0  0  0  0  0
  -48.9195   56.5947   59.3456 C   0  0  0  0  0  0  0  0  0  0  0  0
  -47.6177   57.3878   59.2570 C   0  0  0  0  0  0  0  0  0  0  0  0
  -39.2903   57.5591   63.7279 O   0  0  0  0  0  0  0  0  0  0  0  0
  -38.5487   58.3366   62.8064 C   0  0  0  0  0  0  0  0  0  0  0  0
  -40.2330   57.6035   63.5033 H   0  0  0  0  0  0  0  0  0  0  0  0
  -37.0479   58.3093   63.1054 C   0  0  0  0  0  0  0  0  0  0  0  0
  -36.5376   57.8113   64.2445 C   0  0  0  0  0  0  0  0  0  0  0  0
  -35.0266   57.8211   64.4689 C   0  0  0  0  0  0  0  0  0  0  0  0
  -34.3487   59.1424   64.0778 C   0  0  0  0  0  0  0  0  0  0  0  0
  -33.5272   59.1101   62.7757 C   0  0  0  0  0  0  0  0  0  0  0  0
  -32.4907   57.9614   62.8084 C   0  0  0  0  0  0  0  0  0  0  0  0
  -32.7783   56.7828   61.8441 C   0  0  0  0  0  0  0  0  0  0  0  0
  -33.9135   57.0569   60.8297 C   0  0  0  0  0  0  0  0  0  0  0  0
  -33.9718   56.0318   59.6764 C   0  0  0  0  0  0  0  0  0  0  0  0
  -35.1960   55.1100   59.7307 C   0  0  0  0  0  0  0  0  0  0  0  0
  -36.5139   55.7152   59.2521 C   0  0  0  0  0  0  0  0  0  0  0  0
  -36.4220   56.4083   57.8783 C   0  0  0  0  0  0  0  0  0  0  0  0
  -36.9742   57.8410   57.8294 C   0  0  0  0  0  0  0  0  0  0  0  0
  -37.3239   58.3437   59.2330 C   0  0  0  0  0  0  0  0  0  0  0  0
  -38.4561   59.3511   59.3268 C   0  0  0  0  0  0  0  0  0  0  0  0
  -38.0559   60.9022   62.8180 C   0  0  0  0  0  0  0  0  0  0  0  0
  -37.5590   61.5145   64.0351 O   0  0  0  0  0  0  0  0  0  0  0  0
  -36.7051   63.0533   66.2891 O   0  0  0  0  0  0  0  0  0  0  0  0
  -32.9992   62.8096   64.3903 O   0  0  0  0  0  0  0  0  0  0  0  0
  -35.6231   62.4644   62.9237 O   0  0  0  0  0  0  0  0  0  0  0  0
  -36.5879   62.6259   63.9916 C   0  0  0  0  0  0  0  0  0  0  0  0
  -35.7722   62.8609   65.2710 C   0  0  0  0  0  0  0  0  0  0  0  0
  -34.8614   64.1066   65.2060 C   0  0  0  0  0  0  0  0  0  0  0  0
  -33.9014   63.8668   64.0735 C   0  0  0  0  0  0  0  0  0  0  0  0
  -34.6726   63.5570   62.8033 C   0  0  0  0  0  0  0  0  0  0  0  0
  -37.2871   62.2792   66.3448 H   0  0  0  0  0  0  0  0  0  0  0  0
  -32.5179   63.0281   65.2038 H   0  0  0  0  0  0  0  0  0  0  0  0
  -32.5923   64.3609   61.9431 O   0  0  0  0  0  0  0  0  0  0  0  0
  -33.5359   63.3411   61.8065 C   0  0  0  0  0  0  0  0  0  0  0  0
  -31.8716   64.2215   61.3090 H   0  0  0  0  0  0  0  0  0  0  0  0
  -34.0489   64.3600   66.3746 O   0  0  0  0  0  0  0  0  0  0  0  0
  -32.8098   66.1414   67.7916 O   0  0  0  0  0  0  0  0  0  0  0  0
  -33.2658   66.5806   65.4489 O   0  0  0  0  0  0  0  0  0  0  0  0
  -31.5088   65.0350   66.0801 O   0  0  0  0  0  0  0  0  0  0  0  0
  -32.8693   65.5336   66.4293 S   0  0  0  0  0  0  0  0  0  0  0  0
  -33.6880   66.4724   68.0367 H   0  0  0  0  0  0  0  0  0  0  0  0
  -31.2422   64.3515   66.7147 H   0  0  0  0  0  0  0  0  0  0  0  0
  2  1  1  0  0  0
  2  4  1  0  0  0
  2  5  1  0  0  0
 41 42  1  0  0  0
 41  1  1  0  0  0
 42 46  1  0  0  0
  1 24  1  0  0  0
 23 24  1  0  0  0
 23 25  1  0  0  0
 24 26  1  0  0  0
  3  4  2  0  0  0
 26 27  2  0  0  0
 27 28  1  0  0  0
 43 47  1  0  0  0
 43 51  1  0  0  0
 28 29  1  0  0  0
 56 48  1  0  0  0
 56 60  1  0  0  0
 29 30  1  0  0  0
 57 60  1  0  0  0
 57 61  1  0  0  0
 30 31  1  0  0  0
 44 49  1  0  0  0
 44 52  1  0  0  0
 31 32  1  0  0  0
 45 46  1  0  0  0
 45 50  1  0  0  0
 32 33  1  0  0  0
 53 54  1  0  0  0
 53 55  1  0  0  0
 33 34  1  0  0  0
 34 35  1  0  0  0
 35 36  1  0  0  0
 58 60  1  0  0  0
 36 37  1  0  0  0
 59 60  1  0  0  0
 59 62  1  0  0  0
 37 38  1  0  0  0
 38 39  1  0  0  0
 39 40  1  0  0  0
  4  6  1  0  0  0
  6  7  1  0  0  0
  7  8  1  0  0  0
  8  9  1  0  0  0
  9 10  1  0  0  0
 10 11  1  0  0  0
 11 12  1  0  0  0
 12 13  1  0  0  0
 13 14  1  0  0  0
 14 15  1  0  0  0
 15 16  1  0  0  0
 16 17  1  0  0  0
 17 18  1  0  0  0
 18 19  1  0  0  0
 19 20  1  0  0  0
 20 21  1  0  0  0
 21 22  1  0  0  0
 46 47  1  0  0  0
 47 48  1  0  0  0
 48 49  1  0  0  0
 49 50  1  0  0  0
 50 54  1  0  0  0
M  CHG 1  58  -1
M  END
> <minimizedAffinity>
-9.91824

> <CNNscore>
0.3690556288

> <CNNaffinity>
6.9603981972

> <CNN_VS>
2.5687742233

> <CNNaffinity_variance>
1.3905851841

$$$$
/media/chris/experiments/cd1a-new-docking/inputs/ligands/1onq_ligand.pdb


 62 62  0  0  0  0  0  0  0  0999 V2000
  -39.9718   59.1190   65.0048 C   0  0  0  0  0  0  0  0  0  0  0  0
  -39.4504   58.4386   63.8359 N   0  0  0  0  0  0  0  0  0  0  0  0
  -37.5809   57.4493   64.6569 O   0  0  0  0  0  0  0  0  0  0  0  0
  -38.3454   57.6863   63.7419 C   0  0  0  0  0  0  0  0  0  0  0  0
  -39.9730   58.5421   63.0080 H   0  0  0  0  0  0  0  0  0  0  0  0
  -38.0809   57.1086   62.3832 C   0  0  0  0  0  0  0  0  0  0  0  0
  -38.6920   58.0799   61.3730 C   0  0  0  0  0  0  0  0  0  0  0  0
  -37.5852   58.8243   60.6301 C   0  0  0  0  0  0  0  0  0  0  0  0
  -37.9690   59.4296   59.3015 C   0  0  0  0  0  0  0  0  0  0  0  0
  -37.8472   58.3367   58.2449 C   0  0  0  0  0  0  0  0  0  0  0  0
  -36.3893   58.0134   57.8914 C   0  0  0  0  0  0  0  0  0  0  0  0
  -36.0836   56.5082   57.7842 C   0  0  0  0  0  0  0  0  0  0  0  0
  -36.6033   55.7023   58.9951 C   0  0  0  0  0  0  0  0  0  0  0  0
  -35.4510   54.9755   59.6945 C   0  0  0  0  0  0  0  0  0  0  0  0
  -34.0628   55.5265   59.3922 C   0  0  0  0  0  0  0  0  0  0  0  0
  -33.5462   56.4302   60.5018 C   0  0  0  0  0  0  0  0  0  0  0  0
  -34.4595   56.5867   61.7199 C   0  0  0  0  0  0  0  0  0  0  0  0
  -34.4136   58.0420   62.1651 C   0  0  0  0  0  0  0  0  0  0  0  0
  -33.4128   58.4454   63.2380 C   0  0  0  0  0  0  0  0  0  0  0  0
  -32.6735   59.7338   62.8437 C   0  0  0  0  0  0  0  0  0  0  0  0
  -31.6697   59.5659   61.6882 C   0  0  0  0  0  0  0  0  0  0  0  0
  -30.3480   60.2926   61.9259 C   0  0  0  0  0  0  0  0  0  0  0  0
  -41.3350   60.8951   64.3860 O   0  0  0  0  0  0  0  0  0  0  0  0
  -41.3787   59.4924   64.5703 C   0  0  0  0  0  0  0  0  0  0  0  0
  -40.6962   61.1098   63.6883 H   0  0  0  0  0  0  0  0  0  0  0  0
  -42.3713   59.0847   65.6616 C   0  0  0  0  0  0  0  0  0  0  0  0
  -43.7011   59.0602   65.4693 C   0  0  0  0  0  0  0  0  0  0  0  0
  -44.6268   58.6423   66.6104 C   0  0  0  0  0  0  0  0  0  0  0  0
  -46.1196   58.8169   66.2954 C   0  0  0  0  0  0  0  0  0  0  0  0
  -46.5396   58.4845   64.8517 C   0  0  0  0  0  0  0  0  0  0  0  0
  -47.9306   59.0833   64.5326 C   0  0  0  0  0  0  0  0  0  0  0  0
  -49.0832   58.0539   64.4156 C   0  0  0  0  0  0  0  0  0  0  0  0
  -50.4598   58.6787   64.0882 C   0  0  0  0  0  0  0  0  0  0  0  0
  -50.9023   58.4653   62.6243 C   0  0  0  0  0  0  0  0  0  0  0  0
  -50.1875   59.3808   61.6232 C   0  0  0  0  0  0  0  0  0  0  0  0
  -49.2540   58.6911   60.6307 C   0  0  0  0  0  0  0  0  0  0  0  0
  -49.9577   57.6692   59.7160 C   0  0  0  0  0  0  0  0  0  0  0  0
  -49.0426   56.9471   58.7154 C   0  0  0  0  0  0  0  0  0  0  0  0
  -47.5674   57.2177   59.0249 C   0  0  0  0  0  0  0  0  0  0  0  0
  -46.7536   57.8666   57.9194 C   0  0  0  0  0  0  0  0  0  0  0  0
  -39.0862   60.2557   65.5636 C   0  0  0  0  0  0  0  0  0  0  0  0
  -38.4580   61.1268   64.5891 O   0  0  0  0  0  0  0  0  0  0  0  0
  -36.5861   61.4213   62.4474 O   0  0  0  0  0  0  0  0  0  0  0  0
  -35.4036   64.7688   64.6371 O   0  0  0  0  0  0  0  0  0  0  0  0
  -36.8643   62.4265   65.8761 O   0  0  0  0  0  0  0  0  0  0  0  0
  -37.0519   61.5524   64.7366 C   0  0  0  0  0  0  0  0  0  0  0  0
  -36.4370   62.2823   63.5339 C   0  0  0  0  0  0  0  0  0  0  0  0
  -34.9341   62.5966   63.7010 C   0  0  0  0  0  0  0  0  0  0  0  0
  -34.8233   63.4941   64.9025 C   0  0  0  0  0  0  0  0  0  0  0  0
  -35.4879   62.8360   66.0982 C   0  0  0  0  0  0  0  0  0  0  0  0
  -37.5257   61.2125   62.3270 H   0  0  0  0  0  0  0  0  0  0  0  0
  -34.9649   65.1706   63.8709 H   0  0  0  0  0  0  0  0  0  0  0  0
  -36.3716   63.9051   68.0450 O   0  0  0  0  0  0  0  0  0  0  0  0
  -35.2762   63.8933   67.1796 C   0  0  0  0  0  0  0  0  0  0  0  0
  -36.2347   64.5774   68.7306 H   0  0  0  0  0  0  0  0  0  0  0  0
  -34.3097   63.3087   62.6087 O   0  0  0  0  0  0  0  0  0  0  0  0
  -32.1353   63.8753   61.3172 O   0  0  0  0  0  0  0  0  0  0  0  0
  -31.9921   62.9918   63.5730 O   0  0  0  0  0  0  0  0  0  0  0  0
  -32.6638   65.2913   63.2045 O   0  0  0  0  0  0  0  0  0  0  0  0
  -32.7551   63.9010   62.6752 S   0  0  0  0  0  0  0  0  0  0  0  0
  -32.1854   62.9765   60.9559 H   0  0  0  0  0  0  0  0  0  0  0  0
  -33.1589   65.8910   62.6249 H   0  0  0  0  0  0  0  0  0  0  0  0
  2  1  1  0  0  0
  2  4  1  0  0  0
  2  5  1  0  0  0
 41 42  1  0  0  0
 41  1  1  0  0  0
 42 46  1  0  0  0
  1 24  1  0  0  0
 23 24  1  0  0  0
 23 25  1  0  0  0
 24 26  1  0  0  0
  3  4  2  0  0  0
 26 27  2  0  0  0
 27 28  1  0  0  0
 43 47  1  0  0  0
 43 51  1  0  0  0
 28 29  1  0  0  0
 56 48  1  0  0  0
 56 60  1  0  0  0
 29 30  1  0  0  0
 57 60  1  0  0  0
 57 61  1  0  0  0
 30 31  1  0  0  0
 44 49  1  0  0  0
 44 52  1  0  0  0
 31 32  1  0  0  0
 45 46  1  0  0  0
 45 50  1  0  0  0
 32 33  1  0  0  0
 53 54  1  0  0  0
 53 55  1  0  0  0
 33 34  1  0  0  0
 34 35  1  0  0  0
 35 36  1  0  0  0
 58 60  1  0  0  0
 36 37  1  0  0  0
 59 60  1  0  0  0
 59 62  1  0  0  0
 37 38  1  0  0  0
 38 39  1  0  0  0
 39 40  1  0  0  0
  4  6  1  0  0  0
  6  7  1  0  0  0
  7  8  1  0  0  0
  8  9  1  0  0  0
  9 10  1  0  0  0
 10 11  1  0  0  0
 11 12  1  0  0  0
 12 13  1  0  0  0
 13 14  1  0  0  0
 14 15  1  0  0  0
 15 16  1  0  0  0
 16 17  1  0  0  0
 17 18  1  0  0  0
 18 19  1  0  0  0
 19 20  1  0  0  0
 20 21  1  0  0  0
 21 22  1  0  0  0
 46 47  1  0  0  0
 47 48  1  0  0  0
 48 49  1  0  0  0
 49 50  1  0  0  0
 50 54  1  0  0  0
M  CHG 1  58  -1
M  END
> <minimizedAffinity>
-9.83834

> <CNNscore>
0.3478844762

> <CNNaffinity>
7.2276029587

> <CNN_VS>
2.5143709183

> <CNNaffinity_variance>
0.9961578250

$$$$
/media/chris/experiments/cd1a-new-docking/inputs/ligands/1onq_ligand.pdb


 62 62  0  0  0  0  0  0  0  0999 V2000
  -38.2077   59.8865   63.7081 C   0  0  0  0  0  0  0  0  0  0  0  0
  -39.5280   60.2035   64.2155 N   0  0  0  0  0  0  0  0  0  0  0  0
  -40.4125   58.1425   64.5581 O   0  0  0  0  0  0  0  0  0  0  0  0
  -40.4956   59.3549   64.5886 C   0  0  0  0  0  0  0  0  0  0  0  0
  -39.7402   61.1615   64.2959 H   0  0  0  0  0  0  0  0  0  0  0  0
  -41.7558   60.0018   65.0819 C   0  0  0  0  0  0  0  0  0  0  0  0
  -42.0154   59.4359   66.4782 C   0  0  0  0  0  0  0  0  0  0  0  0
  -43.4762   59.0102   66.6049 C   0  0  0  0  0  0  0  0  0  0  0  0
  -44.2128   58.7727   65.3090 C   0  0  0  0  0  0  0  0  0  0  0  0
  -45.6268   59.3192   65.4758 C   0  0  0  0  0  0  0  0  0  0  0  0
  -46.6154   58.2611   65.9836 C   0  0  0  0  0  0  0  0  0  0  0  0
  -47.9253   58.1817   65.1784 C   0  0  0  0  0  0  0  0  0  0  0  0
  -49.0443   59.0714   65.7630 C   0  0  0  0  0  0  0  0  0  0  0  0
  -50.4100   58.6547   65.2096 C   0  0  0  0  0  0  0  0  0  0  0  0
  -51.1017   59.7007   64.3439 C   0  0  0  0  0  0  0  0  0  0  0  0
  -51.3165   59.2186   62.9168 C   0  0  0  0  0  0  0  0  0  0  0  0
  -50.4077   58.0793   62.4494 C   0  0  0  0  0  0  0  0  0  0  0  0
  -50.9543   57.5445   61.1327 C   0  0  0  0  0  0  0  0  0  0  0  0
  -50.1162   56.5473   60.3463 C   0  0  0  0  0  0  0  0  0  0  0  0
  -49.3790   57.2403   59.1894 C   0  0  0  0  0  0  0  0  0  0  0  0
  -47.9347   56.7534   58.9697 C   0  0  0  0  0  0  0  0  0  0  0  0
  -47.0279   57.8134   58.3488 C   0  0  0  0  0  0  0  0  0  0  0  0
  -37.6549   60.6746   65.8222 O   0  0  0  0  0  0  0  0  0  0  0  0
  -37.4353   59.5619   64.9752 C   0  0  0  0  0  0  0  0  0  0  0  0
  -38.6027   60.7534   66.0132 H   0  0  0  0  0  0  0  0  0  0  0  0
  -35.9544   59.3804   64.6338 C   0  0  0  0  0  0  0  0  0  0  0  0
  -35.4164   58.1896   64.3198 C   0  0  0  0  0  0  0  0  0  0  0  0
  -33.9277   58.0907   63.9918 C   0  0  0  0  0  0  0  0  0  0  0  0
  -33.4877   58.9857   62.8241 C   0  0  0  0  0  0  0  0  0  0  0  0
  -32.7241   58.2756   61.6909 C   0  0  0  0  0  0  0  0  0  0  0  0
  -32.9094   56.7417   61.7809 C   0  0  0  0  0  0  0  0  0  0  0  0
  -34.3065   56.2182   61.3618 C   0  0  0  0  0  0  0  0  0  0  0  0
  -34.4382   55.9025   59.8532 C   0  0  0  0  0  0  0  0  0  0  0  0
  -35.7146   55.1096   59.4975 C   0  0  0  0  0  0  0  0  0  0  0  0
  -36.4908   55.6895   58.3090 C   0  0  0  0  0  0  0  0  0  0  0  0
  -36.2588   57.1698   58.0135 C   0  0  0  0  0  0  0  0  0  0  0  0
  -37.3585   58.0980   58.5659 C   0  0  0  0  0  0  0  0  0  0  0  0
  -37.1752   58.5325   60.0280 C   0  0  0  0  0  0  0  0  0  0  0  0
  -38.2963   57.9773   60.9112 C   0  0  0  0  0  0  0  0  0  0  0  0
  -37.9236   56.8309   61.8345 C   0  0  0  0  0  0  0  0  0  0  0  0
  -37.5885   60.9386   62.7602 C   0  0  0  0  0  0  0  0  0  0  0  0
  -37.3112   62.2424   63.3315 O   0  0  0  0  0  0  0  0  0  0  0  0
  -35.0145   63.1235   61.8731 O   0  0  0  0  0  0  0  0  0  0  0  0
  -34.4988   65.5897   65.1974 O   0  0  0  0  0  0  0  0  0  0  0  0
  -36.1066   63.0279   65.2852 O   0  0  0  0  0  0  0  0  0  0  0  0
  -35.9941   62.5555   63.9208 C   0  0  0  0  0  0  0  0  0  0  0  0
  -35.1519   63.6011   63.1758 C   0  0  0  0  0  0  0  0  0  0  0  0
  -33.7405   63.7993   63.7711 C   0  0  0  0  0  0  0  0  0  0  0  0
  -33.9428   64.2772   65.1825 C   0  0  0  0  0  0  0  0  0  0  0  0
  -34.8347   63.3037   65.9316 C   0  0  0  0  0  0  0  0  0  0  0  0
  -35.8928   62.9928   61.4825 H   0  0  0  0  0  0  0  0  0  0  0  0
  -33.9140   66.1942   64.7142 H   0  0  0  0  0  0  0  0  0  0  0  0
  -36.2562   64.1172   67.6727 O   0  0  0  0  0  0  0  0  0  0  0  0
  -34.9179   63.9675   67.3044 C   0  0  0  0  0  0  0  0  0  0  0  0
  -36.3063   64.5390   68.5447 H   0  0  0  0  0  0  0  0  0  0  0  0
  -32.9134   64.7934   63.1249 O   0  0  0  0  0  0  0  0  0  0  0  0
  -31.3582   65.3646   61.1320 O   0  0  0  0  0  0  0  0  0  0  0  0
  -31.7228   63.0434   61.7390 O   0  0  0  0  0  0  0  0  0  0  0  0
  -30.2914   64.4489   63.0991 O   0  0  0  0  0  0  0  0  0  0  0  0
  -31.5323   64.4189   62.2740 S   0  0  0  0  0  0  0  0  0  0  0  0
  -32.1575   65.3587   60.5825 H   0  0  0  0  0  0  0  0  0  0  0  0
  -30.1594   65.3426   63.4522 H   0  0  0  0  0  0  0  0  0  0  0  0
  2  1  1  0  0  0
  2  4  1  0  0  0
  2  5  1  0  0  0
 41 42  1  0  0  0
 41  1  1  0  0  0
 42 46  1  0  0  0
  1 24  1  0  0  0
 23 24  1  0  0  0
 23 25  1  0  0  0
 24 26  1  0  0  0
  3  4  2  0  0  0
 26 27  2  0  0  0
 27 28  1  0  0  0
 43 47  1  0  0  0
 43 51  1  0  0  0
 28 29  1  0  0  0
 56 48  1  0  0  0
 56 60  1  0  0  0
 29 30  1  0  0  0
 57 60  1  0  0  0
 57 61  1  0  0  0
 30 31  1  0  0  0
 44 49  1  0  0  0
 44 52  1  0  0  0
 31 32  1  0  0  0
 45 46  1  0  0  0
 45 50  1  0  0  0
 32 33  1  0  0  0
 53 54  1  0  0  0
 53 55  1  0  0  0
 33 34  1  0  0  0
 34 35  1  0  0  0
 35 36  1  0  0  0
 58 60  1  0  0  0
 36 37  1  0  0  0
 59 60  1  0  0  0
 59 62  1  0  0  0
 37 38  1  0  0  0
 38 39  1  0  0  0
 39 40  1  0  0  0
  4  6  1  0  0  0
  6  7  1  0  0  0
  7  8  1  0  0  0
  8  9  1  0  0  0
  9 10  1  0  0  0
 10 11  1  0  0  0
 11 12  1  0  0  0
 12 13  1  0  0  0
 13 14  1  0  0  0
 14 15  1  0  0  0
 15 16  1  0  0  0
 16 17  1  0  0  0
 17 18  1  0  0  0
 18 19  1  0  0  0
 19 20  1  0  0  0
 20 21  1  0  0  0
 21 22  1  0  0  0
 46 47  1  0  0  0
 47 48  1  0  0  0
 48 49  1  0  0  0
 49 50  1  0  0  0
 50 54  1  0  0  0
M  CHG 1  58  -1
M  END
> <minimizedAffinity>
-9.66947

> <CNNscore>
0.3298299015

> <CNNaffinity>
6.9904046059

> <CNN_VS>
2.3056445122

> <CNNaffinity_variance>
0.8528873324

$$$$
/media/chris/experiments/cd1a-new-docking/inputs/ligands/1onq_ligand.pdb


 62 62  0  0  0  0  0  0  0  0999 V2000
  -40.1889   58.9519   64.8138 C   0  0  0  0  0  0  0  0  0  0  0  0
  -41.2417   58.4707   65.6863 N   0  0  0  0  0  0  0  0  0  0  0  0
  -43.0704   59.5185   64.8465 O   0  0  0  0  0  0  0  0  0  0  0  0
  -42.5474   58.7695   65.6486 C   0  0  0  0  0  0  0  0  0  0  0  0
  -40.9626   57.8468   66.3949 H   0  0  0  0  0  0  0  0  0  0  0  0
  -43.3864   58.0953   66.6932 C   0  0  0  0  0  0  0  0  0  0  0  0
  -43.9083   56.8040   66.0628 C   0  0  0  0  0  0  0  0  0  0  0  0
  -45.3924   56.9471   65.7340 C   0  0  0  0  0  0  0  0  0  0  0  0
  -46.0762   58.1788   66.2761 C   0  0  0  0  0  0  0  0  0  0  0  0
  -46.6169   58.9664   65.0873 C   0  0  0  0  0  0  0  0  0  0  0  0
  -47.9105   58.3680   64.5184 C   0  0  0  0  0  0  0  0  0  0  0  0
  -48.9758   58.0401   65.5804 C   0  0  0  0  0  0  0  0  0  0  0  0
  -50.4170   58.2792   65.0789 C   0  0  0  0  0  0  0  0  0  0  0  0
  -50.4910   59.5569   64.2380 C   0  0  0  0  0  0  0  0  0  0  0  0
  -51.4209   59.4831   63.0331 C   0  0  0  0  0  0  0  0  0  0  0  0
  -51.1651   58.2487   62.1811 C   0  0  0  0  0  0  0  0  0  0  0  0
  -50.0122   58.3516   61.1798 C   0  0  0  0  0  0  0  0  0  0  0  0
  -49.8856   57.0152   60.4611 C   0  0  0  0  0  0  0  0  0  0  0  0
  -48.9391   56.9121   59.2742 C   0  0  0  0  0  0  0  0  0  0  0  0
  -47.5308   57.3997   59.6501 C   0  0  0  0  0  0  0  0  0  0  0  0
  -46.5475   57.4836   58.4680 C   0  0  0  0  0  0  0  0  0  0  0  0
  -47.1512   57.0158   57.1458 C   0  0  0  0  0  0  0  0  0  0  0  0
  -38.1825   57.8978   65.3225 O   0  0  0  0  0  0  0  0  0  0  0  0
  -39.3642   57.7000   64.5687 C   0  0  0  0  0  0  0  0  0  0  0  0
  -38.4081   57.9769   66.2626 H   0  0  0  0  0  0  0  0  0  0  0  0
  -39.0775   57.5669   63.0712 C   0  0  0  0  0  0  0  0  0  0  0  0
  -37.8818   57.1920   62.5855 C   0  0  0  0  0  0  0  0  0  0  0  0
  -37.6745   57.0835   61.0759 C   0  0  0  0  0  0  0  0  0  0  0  0
  -38.0806   58.3452   60.3004 C   0  0  0  0  0  0  0  0  0  0  0  0
  -37.1911   58.7018   59.0950 C   0  0  0  0  0  0  0  0  0  0  0  0
  -37.3790   57.6762   57.9513 C   0  0  0  0  0  0  0  0  0  0  0  0
  -36.3044   56.5618   57.8786 C   0  0  0  0  0  0  0  0  0  0  0  0
  -34.8505   57.0868   57.8190 C   0  0  0  0  0  0  0  0  0  0  0  0
  -33.8878   56.3481   58.7738 C   0  0  0  0  0  0  0  0  0  0  0  0
  -34.5762   55.7581   60.0105 C   0  0  0  0  0  0  0  0  0  0  0  0
  -33.9845   56.1546   61.3614 C   0  0  0  0  0  0  0  0  0  0  0  0
  -33.1791   57.4685   61.3305 C   0  0  0  0  0  0  0  0  0  0  0  0
  -33.2180   58.2910   62.6275 C   0  0  0  0  0  0  0  0  0  0  0  0
  -34.6154   58.2646   63.2536 C   0  0  0  0  0  0  0  0  0  0  0  0
  -34.7157   58.7156   64.7000 C   0  0  0  0  0  0  0  0  0  0  0  0
  -39.4315   60.2036   65.3120 C   0  0  0  0  0  0  0  0  0  0  0  0
  -38.6616   60.9321   64.3222 O   0  0  0  0  0  0  0  0  0  0  0  0
  -36.5880   61.1906   62.3701 O   0  0  0  0  0  0  0  0  0  0  0  0
  -35.6426   64.5941   64.5885 O   0  0  0  0  0  0  0  0  0  0  0  0
  -37.2090   62.2708   65.7304 O   0  0  0  0  0  0  0  0  0  0  0  0
  -37.2789   61.3701   64.5984 C   0  0  0  0  0  0  0  0  0  0  0  0
  -36.5510   62.0768   63.4459 C   0  0  0  0  0  0  0  0  0  0  0  0
  -35.0734   62.4045   63.7537 C   0  0  0  0  0  0  0  0  0  0  0  0
  -35.0861   63.3295   64.9393 C   0  0  0  0  0  0  0  0  0  0  0  0
  -35.8630   62.6941   66.0782 C   0  0  0  0  0  0  0  0  0  0  0  0
  -37.5101   60.9730   62.1621 H   0  0  0  0  0  0  0  0  0  0  0  0
  -35.1318   64.9814   63.8605 H   0  0  0  0  0  0  0  0  0  0  0  0
  -34.4243   63.9896   67.4801 O   0  0  0  0  0  0  0  0  0  0  0  0
  -35.7641   63.7769   67.1506 C   0  0  0  0  0  0  0  0  0  0  0  0
  -34.3641   64.6775   68.1613 H   0  0  0  0  0  0  0  0  0  0  0  0
  -34.3468   63.0959   62.7125 O   0  0  0  0  0  0  0  0  0  0  0  0
  -32.2417   63.8842   61.4226 O   0  0  0  0  0  0  0  0  0  0  0  0
  -32.4216   61.5661   62.1176 O   0  0  0  0  0  0  0  0  0  0  0  0
  -31.9195   63.2912   63.7444 O   0  0  0  0  0  0  0  0  0  0  0  0
  -32.6984   62.9735   62.5139 S   0  0  0  0  0  0  0  0  0  0  0  0
  -32.7384   63.6919   60.6119 H   0  0  0  0  0  0  0  0  0  0  0  0
  -32.0943   64.2076   64.0100 H   0  0  0  0  0  0  0  0  0  0  0  0
  2  1  1  0  0  0
  2  4  1  0  0  0
  2  5  1  0  0  0
 41 42  1  0  0  0
 41  1  1  0  0  0
 42 46  1  0  0  0
  1 24  1  0  0  0
 23 24  1  0  0  0
 23 25  1  0  0  0
 24 26  1  0  0  0
  3  4  2  0  0  0
 26 27  2  0  0  0
 27 28  1  0  0  0
 43 47  1  0  0  0
 43 51  1  0  0  0
 28 29  1  0  0  0
 56 48  1  0  0  0
 56 60  1  0  0  0
 29 30  1  0  0  0
 57 60  1  0  0  0
 57 61  1  0  0  0
 30 31  1  0  0  0
 44 49  1  0  0  0
 44 52  1  0  0  0
 31 32  1  0  0  0
 45 46  1  0  0  0
 45 50  1  0  0  0
 32 33  1  0  0  0
 53 54  1  0  0  0
 53 55  1  0  0  0
 33 34  1  0  0  0
 34 35  1  0  0  0
 35 36  1  0  0  0
 58 60  1  0  0  0
 36 37  1  0  0  0
 59 60  1  0  0  0
 59 62  1  0  0  0
 37 38  1  0  0  0
 38 39  1  0  0  0
 39 40  1  0  0  0
  4  6  1  0  0  0
  6  7  1  0  0  0
  7  8  1  0  0  0
  8  9  1  0  0  0
  9 10  1  0  0  0
 10 11  1  0  0  0
 11 12  1  0  0  0
 12 13  1  0  0  0
 13 14  1  0  0  0
 14 15  1  0  0  0
 15 16  1  0  0  0
 16 17  1  0  0  0
 17 18  1  0  0  0
 18 19  1  0  0  0
 19 20  1  0  0  0
 20 21  1  0  0  0
 21 22  1  0  0  0
 46 47  1  0  0  0
 47 48  1  0  0  0
 48 49  1  0  0  0
 49 50  1  0  0  0
 50 54  1  0  0  0
M  CHG 1  58  -1
M  END
> <minimizedAffinity>
-10.35327

> <CNNscore>
0.3239476979

> <CNNaffinity>
7.0878934860

> <CNN_VS>
2.2961068153

> <CNNaffinity_variance>
1.4841943979

$$$$
/media/chris/experiments/cd1a-new-docking/inputs/ligands/1onq_ligand.pdb


 62 62  0  0  0  0  0  0  0  0999 V2000
  -37.0193   61.5625   64.3725 C   0  0  0  0  0  0  0  0  0  0  0  0
  -37.5866   60.2896   64.7715 N   0  0  0  0  0  0  0  0  0  0  0  0
  -39.2798   60.9320   66.1383 O   0  0  0  0  0  0  0  0  0  0  0  0
  -38.6266   60.0676   65.5867 C   0  0  0  0  0  0  0  0  0  0  0  0
  -37.1538   59.4886   64.3971 H   0  0  0  0  0  0  0  0  0  0  0  0
  -38.9765   58.6241   65.7955 C   0  0  0  0  0  0  0  0  0  0  0  0
  -39.9180   58.2370   64.6549 C   0  0  0  0  0  0  0  0  0  0  0  0
  -41.3042   58.8283   64.8996 C   0  0  0  0  0  0  0  0  0  0  0  0
  -41.9522   58.4770   66.2169 C   0  0  0  0  0  0  0  0  0  0  0  0
  -43.2288   57.7013   65.9101 C   0  0  0  0  0  0  0  0  0  0  0  0
  -44.1926   58.4797   65.0046 C   0  0  0  0  0  0  0  0  0  0  0  0
  -45.2645   59.2826   65.7642 C   0  0  0  0  0  0  0  0  0  0  0  0
  -46.5053   58.4363   66.1246 C   0  0  0  0  0  0  0  0  0  0  0  0
  -47.7460   58.9596   65.3953 C   0  0  0  0  0  0  0  0  0  0  0  0
  -48.8304   57.9199   65.1398 C   0  0  0  0  0  0  0  0  0  0  0  0
  -50.1240   58.5458   64.6399 C   0  0  0  0  0  0  0  0  0  0  0  0
  -50.0676   59.1833   63.2496 C   0  0  0  0  0  0  0  0  0  0  0  0
  -51.2440   58.6585   62.4376 C   0  0  0  0  0  0  0  0  0  0  0  0
  -50.9956   57.5477   61.4279 C   0  0  0  0  0  0  0  0  0  0  0  0
  -49.5150   57.4978   61.0184 C   0  0  0  0  0  0  0  0  0  0  0  0
  -49.2756   57.3756   59.5022 C   0  0  0  0  0  0  0  0  0  0  0  0
  -47.8164   57.5826   59.1026 C   0  0  0  0  0  0  0  0  0  0  0  0
  -36.5406   62.5141   62.3083 O   0  0  0  0  0  0  0  0  0  0  0  0
  -36.4937   61.2680   62.9781 C   0  0  0  0  0  0  0  0  0  0  0  0
  -35.9624   63.1471   62.7622 H   0  0  0  0  0  0  0  0  0  0  0  0
  -37.3874   60.2203   62.3102 C   0  0  0  0  0  0  0  0  0  0  0  0
  -37.6900   60.2439   61.0010 C   0  0  0  0  0  0  0  0  0  0  0  0
  -38.5908   59.1614   60.4092 C   0  0  0  0  0  0  0  0  0  0  0  0
  -37.8280   57.9361   59.8849 C   0  0  0  0  0  0  0  0  0  0  0  0
  -37.2487   58.0692   58.4643 C   0  0  0  0  0  0  0  0  0  0  0  0
  -36.2451   56.9281   58.1712 C   0  0  0  0  0  0  0  0  0  0  0  0
  -36.4526   55.6351   59.0000 C   0  0  0  0  0  0  0  0  0  0  0  0
  -35.1594   55.0795   59.6416 C   0  0  0  0  0  0  0  0  0  0  0  0
  -34.0375   56.1315   59.7797 C   0  0  0  0  0  0  0  0  0  0  0  0
  -34.0744   56.9036   61.1040 C   0  0  0  0  0  0  0  0  0  0  0  0
  -32.7668   56.9483   61.8917 C   0  0  0  0  0  0  0  0  0  0  0  0
  -32.7395   58.0203   62.9990 C   0  0  0  0  0  0  0  0  0  0  0  0
  -34.0984   58.6572   63.3274 C   0  0  0  0  0  0  0  0  0  0  0  0
  -34.7598   57.9579   64.5186 C   0  0  0  0  0  0  0  0  0  0  0  0
  -36.0255   57.1729   64.2229 C   0  0  0  0  0  0  0  0  0  0  0  0
  -36.0278   62.1934   65.3764 C   0  0  0  0  0  0  0  0  0  0  0  0
  -34.6421   61.7801   65.2655 O   0  0  0  0  0  0  0  0  0  0  0  0
  -33.2708   62.2721   62.8048 O   0  0  0  0  0  0  0  0  0  0  0  0
  -33.5173   66.2403   64.0666 O   0  0  0  0  0  0  0  0  0  0  0  0
  -33.6890   63.8962   65.9721 O   0  0  0  0  0  0  0  0  0  0  0  0
  -33.5618   62.7679   65.0730 C   0  0  0  0  0  0  0  0  0  0  0  0
  -33.4309   63.3598   63.6623 C   0  0  0  0  0  0  0  0  0  0  0  0
  -32.2133   64.2947   63.4923 C   0  0  0  0  0  0  0  0  0  0  0  0
  -32.4145   65.4275   64.4608 C   0  0  0  0  0  0  0  0  0  0  0  0
  -32.6221   64.8763   65.8599 C   0  0  0  0  0  0  0  0  0  0  0  0
  -34.0278   61.6728   62.8981 H   0  0  0  0  0  0  0  0  0  0  0  0
  -33.3639   66.5812   63.1714 H   0  0  0  0  0  0  0  0  0  0  0  0
  -33.1878   65.8445   67.9709 O   0  0  0  0  0  0  0  0  0  0  0  0
  -32.8134   66.1607   66.6636 C   0  0  0  0  0  0  0  0  0  0  0  0
  -33.3087   66.6618   68.4792 H   0  0  0  0  0  0  0  0  0  0  0  0
  -32.0571   64.9026   62.1900 O   0  0  0  0  0  0  0  0  0  0  0  0
  -30.5126   65.5838   60.2235 O   0  0  0  0  0  0  0  0  0  0  0  0
  -29.5333   64.9657   62.3562 O   0  0  0  0  0  0  0  0  0  0  0  0
  -30.6159   67.1178   62.0896 O   0  0  0  0  0  0  0  0  0  0  0  0
  -30.6661   65.6786   61.7055 S   0  0  0  0  0  0  0  0  0  0  0  0
  -30.5427   64.6525   59.9541 H   0  0  0  0  0  0  0  0  0  0  0  0
  -31.3514   67.5904   61.6695 H   0  0  0  0  0  0  0  0  0  0  0  0
  2  1  1  0  0  0
  2  4  1  0  0  0
  2  5  1  0  0  0
 41 42  1  0  0  0
 41  1  1  0  0  0
 42 46  1  0  0  0
  1 24  1  0  0  0
 23 24  1  0  0  0
 23 25  1  0  0  0
 24 26  1  0  0  0
  3  4  2  0  0  0
 26 27  2  0  0  0
 27 28  1  0  0  0
 43 47  1  0  0  0
 43 51  1  0  0  0
 28 29  1  0  0  0
 56 48  1  0  0  0
 56 60  1  0  0  0
 29 30  1  0  0  0
 57 60  1  0  0  0
 57 61  1  0  0  0
 30 31  1  0  0  0
 44 49  1  0  0  0
 44 52  1  0  0  0
 31 32  1  0  0  0
 45 46  1  0  0  0
 45 50  1  0  0  0
 32 33  1  0  0  0
 53 54  1  0  0  0
 53 55  1  0  0  0
 33 34  1  0  0  0
 34 35  1  0  0  0
 35 36  1  0  0  0
 58 60  1  0  0  0
 36 37  1  0  0  0
 59 60  1  0  0  0
 59 62  1  0  0  0
 37 38  1  0  0  0
 38 39  1  0  0  0
 39 40  1  0  0  0
  4  6  1  0  0  0
  6  7  1  0  0  0
  7  8  1  0  0  0
  8  9  1  0  0  0
  9 10  1  0  0  0
 10 11  1  0  0  0
 11 12  1  0  0  0
 12 13  1  0  0  0
 13 14  1  0  0  0
 14 15  1  0  0  0
 15 16  1  0  0  0
 16 17  1  0  0  0
 17 18  1  0  0  0
 18 19  1  0  0  0
 19 20  1  0  0  0
 20 21  1  0  0  0
 21 22  1  0  0  0
 46 47  1  0  0  0
 47 48  1  0  0  0
 48 49  1  0  0  0
 49 50  1  0  0  0
 50 54  1  0  0  0
M  CHG 1  58  -1
M  END
> <minimizedAffinity>
-9.44782

> <CNNscore>
0.3047621250

> <CNNaffinity>
6.8559122086

> <CNN_VS>
2.0894224644

> <CNNaffinity_variance>
1.0864588022

$$$$
