/media/chris/experiments/cd1a-new-docking/inputs/ligands/1onq_ligand.pdb


 62 62  0  0  0  0  0  0  0  0999 V2000
  -38.0369   60.4291   63.8629 C   0  0  0  0  0  0  0  0  0  0  0  0
  -37.3267   59.3498   64.5201 N   0  0  0  0  0  0  0  0  0  0  0  0
  -35.9950   57.5134   64.5655 O   0  0  0  0  0  0  0  0  0  0  0  0
  -36.5583   58.4051   63.9608 C   0  0  0  0  0  0  0  0  0  0  0  0
  -37.4206   59.3052   65.4990 H   0  0  0  0  0  0  0  0  0  0  0  0
  -36.4214   58.4945   62.4699 C   0  0  0  0  0  0  0  0  0  0  0  0
  -37.2791   57.3709   61.8878 C   0  0  0  0  0  0  0  0  0  0  0  0
  -38.2785   57.9435   60.8856 C   0  0  0  0  0  0  0  0  0  0  0  0
  -37.7354   58.9668   59.9179 C   0  0  0  0  0  0  0  0  0  0  0  0
  -37.8014   58.3601   58.5203 C   0  0  0  0  0  0  0  0  0  0  0  0
  -36.4220   57.9542   57.9844 C   0  0  0  0  0  0  0  0  0  0  0  0
  -36.2470   56.4394   57.7716 C   0  0  0  0  0  0  0  0  0  0  0  0
  -36.4559   55.6231   59.0661 C   0  0  0  0  0  0  0  0  0  0  0  0
  -35.1322   55.0183   59.5424 C   0  0  0  0  0  0  0  0  0  0  0  0
  -33.9111   55.9106   59.3558 C   0  0  0  0  0  0  0  0  0  0  0  0
  -33.7912   56.9611   60.4499 C   0  0  0  0  0  0  0  0  0  0  0  0
  -33.3156   56.4576   61.8146 C   0  0  0  0  0  0  0  0  0  0  0  0
  -32.8494   57.6573   62.6283 C   0  0  0  0  0  0  0  0  0  0  0  0
  -31.8993   58.6534   61.9802 C   0  0  0  0  0  0  0  0  0  0  0  0
  -32.2611   60.0944   62.3734 C   0  0  0  0  0  0  0  0  0  0  0  0
  -31.0827   61.0843   62.3265 C   0  0  0  0  0  0  0  0  0  0  0  0
  -29.7557   60.4265   61.9548 C   0  0  0  0  0  0  0  0  0  0  0  0
  -40.0080   60.6903   62.6621 O   0  0  0  0  0  0  0  0  0  0  0  0
  -39.3972   59.8114   63.5884 C   0  0  0  0  0  0  0  0  0  0  0  0
  -39.4795   60.7219   61.8494 H   0  0  0  0  0  0  0  0  0  0  0  0
  -40.1840   59.7156   64.8976 C   0  0  0  0  0  0  0  0  0  0  0  0
  -41.5239   59.6201   64.9410 C   0  0  0  0  0  0  0  0  0  0  0  0
  -42.2364   59.5294   66.2892 C   0  0  0  0  0  0  0  0  0  0  0  0
  -43.3902   58.5165   66.3156 C   0  0  0  0  0  0  0  0  0  0  0  0
  -44.6873   58.9654   65.6175 C   0  0  0  0  0  0  0  0  0  0  0  0
  -45.3797   57.7684   64.9224 C   0  0  0  0  0  0  0  0  0  0  0  0
  -46.7435   57.3501   65.5280 C   0  0  0  0  0  0  0  0  0  0  0  0
  -47.9268   58.2536   65.1083 C   0  0  0  0  0  0  0  0  0  0  0  0
  -49.2325   57.9583   65.8779 C   0  0  0  0  0  0  0  0  0  0  0  0
  -50.4955   58.0631   65.0148 C   0  0  0  0  0  0  0  0  0  0  0  0
  -50.8718   59.4662   64.5432 C   0  0  0  0  0  0  0  0  0  0  0  0
  -51.3146   59.5330   63.0683 C   0  0  0  0  0  0  0  0  0  0  0  0
  -50.3851   58.8225   62.0726 C   0  0  0  0  0  0  0  0  0  0  0  0
  -51.0921   57.6364   61.4105 C   0  0  0  0  0  0  0  0  0  0  0  0
  -50.2973   56.8749   60.3646 C   0  0  0  0  0  0  0  0  0  0  0  0
  -37.3054   61.0743   62.6639 C   0  0  0  0  0  0  0  0  0  0  0  0
  -36.7612   62.4020   62.8748 O   0  0  0  0  0  0  0  0  0  0  0  0
  -34.3944   63.6572   61.8749 O   0  0  0  0  0  0  0  0  0  0  0  0
  -34.2781   65.3024   65.7062 O   0  0  0  0  0  0  0  0  0  0  0  0
  -35.7641   62.7472   65.0592 O   0  0  0  0  0  0  0  0  0  0  0  0
  -35.5148   62.6057   63.6396 C   0  0  0  0  0  0  0  0  0  0  0  0
  -34.6634   63.8173   63.2336 C   0  0  0  0  0  0  0  0  0  0  0  0
  -33.3183   63.9106   63.9867 C   0  0  0  0  0  0  0  0  0  0  0  0
  -33.6611   64.0442   65.4448 C   0  0  0  0  0  0  0  0  0  0  0  0
  -34.5657   62.9005   65.8667 C   0  0  0  0  0  0  0  0  0  0  0  0
  -35.2294   63.5967   61.3850 H   0  0  0  0  0  0  0  0  0  0  0  0
  -33.6840   66.0175   65.4296 H   0  0  0  0  0  0  0  0  0  0  0  0
  -36.0157   62.6901   67.7551 O   0  0  0  0  0  0  0  0  0  0  0  0
  -34.7955   63.2269   67.3407 C   0  0  0  0  0  0  0  0  0  0  0  0
  -36.1594   62.8988   68.6915 H   0  0  0  0  0  0  0  0  0  0  0  0
  -32.4878   65.0489   63.6633 O   0  0  0  0  0  0  0  0  0  0  0  0
  -30.0551   64.3022   63.1719 O   0  0  0  0  0  0  0  0  0  0  0  0
  -30.8747   66.3929   62.2519 O   0  0  0  0  0  0  0  0  0  0  0  0
  -31.5846   64.2803   61.2993 O   0  0  0  0  0  0  0  0  0  0  0  0
  -31.2370   64.9843   62.5663 S   0  0  0  0  0  0  0  0  0  0  0  0
  -29.8138   64.7473   63.9992 H   0  0  0  0  0  0  0  0  0  0  0  0
  -31.8223   63.3605   61.4953 H   0  0  0  0  0  0  0  0  0  0  0  0
  2  1  1  0  0  0
  2  4  1  0  0  0
  2  5  1  0  0  0
 41 42  1  0  0  0
 41  1  1  0  0  0
 42 46  1  0  0  0
  1 24  1  0  0  0
 23 24  1  0  0  0
 23 25  1  0  0  0
 24 26  1  0  0  0
  3  4  2  0  0  0
 26 27  2  0  0  0
 27 28  1  0  0  0
 43 47  1  0  0  0
 43 51  1  0  0  0
 28 29  1  0  0  0
 56 48  1  0  0  0
 56 60  1  0  0  0
 29 30  1  0  0  0
 57 60  1  0  0  0
 57 61  1  0  0  0
 30 31  1  0  0  0
 44 49  1  0  0  0
 44 52  1  0  0  0
 31 32  1  0  0  0
 45 46  1  0  0  0
 45 50  1  0  0  0
 32 33  1  0  0  0
 53 54  1  0  0  0
 53 55  1  0  0  0
 33 34  1  0  0  0
 34 35  1  0  0  0
 35 36  1  0  0  0
 58 60  1  0  0  0
 36 37  1  0  0  0
 59 60  1  0  0  0
 59 62  1  0  0  0
 37 38  1  0  0  0
 38 39  1  0  0  0
 39 40  1  0  0  0
  4  6  1  0  0  0
  6  7  1  0  0  0
  7  8  1  0  0  0
  8  9  1  0  0  0
  9 10  1  0  0  0
 10 11  1  0  0  0
 11 12  1  0  0  0
 12 13  1  0  0  0
 13 14  1  0  0  0
 14 15  1  0  0  0
 15 16  1  0  0  0
 16 17  1  0  0  0
 17 18  1  0  0  0
 18 19  1  0  0  0
 19 20  1  0  0  0
 20 21  1  0  0  0
 21 22  1  0  0  0
 46 47  1  0  0  0
 47 48  1  0  0  0
 48 49  1  0  0  0
 49 50  1  0  0  0
 50 54  1  0  0  0
M  CHG 1  58  -1
M  END
> <minimizedAffinity>
-9.37985

> <CNNscore>
0.3760648370

> <CNNaffinity>
6.9745879173

> <CNN_VS>
2.6228973866

> <CNNaffinity_variance>
1.2003340721

$$$$
/media/chris/experiments/cd1a-new-docking/inputs/ligands/1onq_ligand.pdb


 62 62  0  0  0  0  0  0  0  0999 V2000
  -40.1831   59.0795   64.9614 C   0  0  0  0  0  0  0  0  0  0  0  0
  -39.7380   58.4469   63.7355 N   0  0  0  0  0  0  0  0  0  0  0  0
  -38.3725   57.1169   62.5049 O   0  0  0  0  0  0  0  0  0  0  0  0
  -38.7064   57.6088   63.5654 C   0  0  0  0  0  0  0  0  0  0  0  0
  -40.2585   58.6594   62.9273 H   0  0  0  0  0  0  0  0  0  0  0  0
  -37.9308   57.2914   64.8094 C   0  0  0  0  0  0  0  0  0  0  0  0
  -36.4706   57.1403   64.3829 C   0  0  0  0  0  0  0  0  0  0  0  0
  -35.7802   58.5020   64.3950 C   0  0  0  0  0  0  0  0  0  0  0  0
  -34.2745   58.4833   64.2901 C   0  0  0  0  0  0  0  0  0  0  0  0
  -33.9131   58.6396   62.8167 C   0  0  0  0  0  0  0  0  0  0  0  0
  -32.6953   57.7980   62.4124 C   0  0  0  0  0  0  0  0  0  0  0  0
  -33.0468   56.4781   61.7018 C   0  0  0  0  0  0  0  0  0  0  0  0
  -34.5332   56.3951   61.2901 C   0  0  0  0  0  0  0  0  0  0  0  0
  -34.6848   55.6474   59.9624 C   0  0  0  0  0  0  0  0  0  0  0  0
  -33.9288   56.2576   58.7885 C   0  0  0  0  0  0  0  0  0  0  0  0
  -34.8397   57.0554   57.8672 C   0  0  0  0  0  0  0  0  0  0  0  0
  -36.2857   56.5649   57.7639 C   0  0  0  0  0  0  0  0  0  0  0  0
  -37.2090   57.7495   58.0149 C   0  0  0  0  0  0  0  0  0  0  0  0
  -37.4624   58.1852   59.4505 C   0  0  0  0  0  0  0  0  0  0  0  0
  -38.0719   59.5953   59.4977 C   0  0  0  0  0  0  0  0  0  0  0  0
  -39.2796   59.7378   60.4421 C   0  0  0  0  0  0  0  0  0  0  0  0
  -40.5035   60.3542   59.7687 C   0  0  0  0  0  0  0  0  0  0  0  0
  -41.4339   60.9701   64.4547 O   0  0  0  0  0  0  0  0  0  0  0  0
  -41.5739   59.5686   64.5955 C   0  0  0  0  0  0  0  0  0  0  0  0
  -40.8076   61.1622   63.7394 H   0  0  0  0  0  0  0  0  0  0  0  0
  -42.5523   59.1960   65.7118 C   0  0  0  0  0  0  0  0  0  0  0  0
  -43.8680   59.0182   65.5029 C   0  0  0  0  0  0  0  0  0  0  0  0
  -44.7801   58.6479   66.6709 C   0  0  0  0  0  0  0  0  0  0  0  0
  -46.2574   58.9986   66.4414 C   0  0  0  0  0  0  0  0  0  0  0  0
  -46.6264   59.4251   65.0086 C   0  0  0  0  0  0  0  0  0  0  0  0
  -48.1624   59.4439   64.8194 C   0  0  0  0  0  0  0  0  0  0  0  0
  -48.7090   58.4670   63.7476 C   0  0  0  0  0  0  0  0  0  0  0  0
  -50.2475   58.3074   63.7618 C   0  0  0  0  0  0  0  0  0  0  0  0
  -50.8740   58.2362   62.3523 C   0  0  0  0  0  0  0  0  0  0  0  0
  -49.9988   57.5111   61.3231 C   0  0  0  0  0  0  0  0  0  0  0  0
  -50.4595   57.5982   59.8696 C   0  0  0  0  0  0  0  0  0  0  0  0
  -49.4455   57.0313   58.8566 C   0  0  0  0  0  0  0  0  0  0  0  0
  -48.1397   56.4982   59.4655 C   0  0  0  0  0  0  0  0  0  0  0  0
  -47.4244   55.5554   58.4936 C   0  0  0  0  0  0  0  0  0  0  0  0
  -47.6115   55.8419   57.0142 C   0  0  0  0  0  0  0  0  0  0  0  0
  -39.2112   60.1187   65.5651 C   0  0  0  0  0  0  0  0  0  0  0  0
  -38.5612   61.0176   64.6309 O   0  0  0  0  0  0  0  0  0  0  0  0
  -36.7017   61.3608   62.4857 O   0  0  0  0  0  0  0  0  0  0  0  0
  -35.3757   64.5396   64.8385 O   0  0  0  0  0  0  0  0  0  0  0  0
  -36.9082   62.1872   65.9669 O   0  0  0  0  0  0  0  0  0  0  0  0
  -37.1391   61.3837   64.7842 C   0  0  0  0  0  0  0  0  0  0  0  0
  -36.5102   62.1555   63.6152 C   0  0  0  0  0  0  0  0  0  0  0  0
  -34.9954   62.4062   63.7808 C   0  0  0  0  0  0  0  0  0  0  0  0
  -34.8397   63.2323   65.0276 C   0  0  0  0  0  0  0  0  0  0  0  0
  -35.5156   62.5345   66.1940 C   0  0  0  0  0  0  0  0  0  0  0  0
  -37.6495   61.1926   62.3656 H   0  0  0  0  0  0  0  0  0  0  0  0
  -34.9305   64.9664   64.0899 H   0  0  0  0  0  0  0  0  0  0  0  0
  -36.4565   64.1139   67.7216 O   0  0  0  0  0  0  0  0  0  0  0  0
  -35.2544   63.5231   67.3283 C   0  0  0  0  0  0  0  0  0  0  0  0
  -36.2879   64.7413   68.4419 H   0  0  0  0  0  0  0  0  0  0  0  0
  -34.3565   63.1537   62.7211 O   0  0  0  0  0  0  0  0  0  0  0  0
  -32.3351   61.7066   61.9884 O   0  0  0  0  0  0  0  0  0  0  0  0
  -32.0341   63.4089   63.6916 O   0  0  0  0  0  0  0  0  0  0  0  0
  -32.2675   64.0414   61.3635 O   0  0  0  0  0  0  0  0  0  0  0  0
  -32.7219   63.0848   62.4124 S   0  0  0  0  0  0  0  0  0  0  0  0
  -32.6232   61.0689   62.6601 H   0  0  0  0  0  0  0  0  0  0  0  0
  -32.7114   63.8371   60.5255 H   0  0  0  0  0  0  0  0  0  0  0  0
  2  1  1  0  0  0
  2  4  1  0  0  0
  2  5  1  0  0  0
 41 42  1  0  0  0
 41  1  1  0  0  0
 42 46  1  0  0  0
  1 24  1  0  0  0
 23 24  1  0  0  0
 23 25  1  0  0  0
 24 26  1  0  0  0
  3  4  2  0  0  0
 26 27  2  0  0  0
 27 28  1  0  0  0
 43 47  1  0  0  0
 43 51  1  0  0  0
 28 29  1  0  0  0
 56 48  1  0  0  0
 56 60  1  0  0  0
 29 30  1  0  0  0
 57 60  1  0  0  0
 57 61  1  0  0  0
 30 31  1  0  0  0
 44 49  1  0  0  0
 44 52  1  0  0  0
 31 32  1  0  0  0
 45 46  1  0  0  0
 45 50  1  0  0  0
 32 33  1  0  0  0
 53 54  1  0  0  0
 53 55  1  0  0  0
 33 34  1  0  0  0
 34 35  1  0  0  0
 35 36  1  0  0  0
 58 60  1  0  0  0
 36 37  1  0  0  0
 59 60  1  0  0  0
 59 62  1  0  0  0
 37 38  1  0  0  0
 38 39  1  0  0  0
 39 40  1  0  0  0
  4  6  1  0  0  0
  6  7  1  0  0  0
  7  8  1  0  0  0
  8  9  1  0  0  0
  9 10  1  0  0  0
 10 11  1  0  0  0
 11 12  1  0  0  0
 12 13  1  0  0  0
 13 14  1  0  0  0
 14 15  1  0  0  0
 15 16  1  0  0  0
 16 17  1  0  0  0
 17 18  1  0  0  0
 18 19  1  0  0  0
 19 20  1  0  0  0
 20 21  1  0  0  0
 21 22  1  0  0  0
 46 47  1  0  0  0
 47 48  1  0  0  0
 48 49  1  0  0  0
 49 50  1  0  0  0
 50 54  1  0  0  0
M  CHG 1  58  -1
M  END
> <minimizedAffinity>
-10.11792

> <CNNscore>
0.3528144360

> <CNNaffinity>
7.2917418480

> <CNN_VS>
2.5726318359

> <CNNaffinity_variance>
1.3803122044

$$$$
/media/chris/experiments/cd1a-new-docking/inputs/ligands/1onq_ligand.pdb


 62 62  0  0  0  0  0  0  0  0999 V2000
  -38.2203   59.4517   63.3836 C   0  0  0  0  0  0  0  0  0  0  0  0
  -38.5721   60.0412   64.6602 N   0  0  0  0  0  0  0  0  0  0  0  0
  -40.0294   60.8023   66.2239 O   0  0  0  0  0  0  0  0  0  0  0  0
  -39.7958   60.2923   65.1452 C   0  0  0  0  0  0  0  0  0  0  0  0
  -37.8184   60.2877   65.2435 H   0  0  0  0  0  0  0  0  0  0  0  0
  -40.9308   59.9026   64.2455 C   0  0  0  0  0  0  0  0  0  0  0  0
  -41.7405   58.8488   65.0009 C   0  0  0  0  0  0  0  0  0  0  0  0
  -43.2066   59.2690   65.0711 C   0  0  0  0  0  0  0  0  0  0  0  0
  -43.9525   58.8685   66.3208 C   0  0  0  0  0  0  0  0  0  0  0  0
  -45.4422   58.8881   65.9946 C   0  0  0  0  0  0  0  0  0  0  0  0
  -45.7664   58.2000   64.6619 C   0  0  0  0  0  0  0  0  0  0  0  0
  -47.2600   58.2173   64.2884 C   0  0  0  0  0  0  0  0  0  0  0  0
  -48.1623   57.6260   65.3938 C   0  0  0  0  0  0  0  0  0  0  0  0
  -49.2330   58.6365   65.8148 C   0  0  0  0  0  0  0  0  0  0  0  0
  -50.5836   58.4684   65.1294 C   0  0  0  0  0  0  0  0  0  0  0  0
  -50.9906   59.7065   64.3443 C   0  0  0  0  0  0  0  0  0  0  0  0
  -51.5412   59.4585   62.9381 C   0  0  0  0  0  0  0  0  0  0  0  0
  -50.8854   58.2003   62.3853 C   0  0  0  0  0  0  0  0  0  0  0  0
  -49.6743   58.3483   61.4763 C   0  0  0  0  0  0  0  0  0  0  0  0
  -49.8513   57.5308   60.1869 C   0  0  0  0  0  0  0  0  0  0  0  0
  -48.5483   57.2796   59.4061 C   0  0  0  0  0  0  0  0  0  0  0  0
  -48.2412   55.7976   59.2042 C   0  0  0  0  0  0  0  0  0  0  0  0
  -37.8563   58.0191   65.1755 O   0  0  0  0  0  0  0  0  0  0  0  0
  -37.5820   58.1350   63.7917 C   0  0  0  0  0  0  0  0  0  0  0  0
  -38.8159   57.9881   65.3134 H   0  0  0  0  0  0  0  0  0  0  0  0
  -36.0798   58.1893   63.5041 C   0  0  0  0  0  0  0  0  0  0  0  0
  -35.1463   57.9358   64.4372 C   0  0  0  0  0  0  0  0  0  0  0  0
  -33.6652   58.0116   64.0712 C   0  0  0  0  0  0  0  0  0  0  0  0
  -33.3747   58.8667   62.8293 C   0  0  0  0  0  0  0  0  0  0  0  0
  -32.7814   58.1128   61.6248 C   0  0  0  0  0  0  0  0  0  0  0  0
  -33.1753   56.6166   61.6650 C   0  0  0  0  0  0  0  0  0  0  0  0
  -34.4039   56.2325   60.8019 C   0  0  0  0  0  0  0  0  0  0  0  0
  -34.0499   55.4951   59.4889 C   0  0  0  0  0  0  0  0  0  0  0  0
  -33.6838   56.4440   58.3272 C   0  0  0  0  0  0  0  0  0  0  0  0
  -34.8529   57.3118   57.8464 C   0  0  0  0  0  0  0  0  0  0  0  0
  -36.2172   56.6277   57.7883 C   0  0  0  0  0  0  0  0  0  0  0  0
  -37.4076   57.5881   57.9798 C   0  0  0  0  0  0  0  0  0  0  0  0
  -37.5710   58.1538   59.3987 C   0  0  0  0  0  0  0  0  0  0  0  0
  -38.1245   59.5811   59.3613 C   0  0  0  0  0  0  0  0  0  0  0  0
  -39.6042   59.7396   59.6626 C   0  0  0  0  0  0  0  0  0  0  0  0
  -37.4074   60.3594   62.4326 C   0  0  0  0  0  0  0  0  0  0  0  0
  -37.2951   61.7557   62.8079 O   0  0  0  0  0  0  0  0  0  0  0  0
  -34.9355   63.0442   61.8335 O   0  0  0  0  0  0  0  0  0  0  0  0
  -35.4449   65.3966   65.2402 O   0  0  0  0  0  0  0  0  0  0  0  0
  -36.6154   62.6194   64.9706 O   0  0  0  0  0  0  0  0  0  0  0  0
  -36.1773   62.2360   63.6445 C   0  0  0  0  0  0  0  0  0  0  0  0
  -35.3869   63.4320   63.0944 C   0  0  0  0  0  0  0  0  0  0  0  0
  -34.1608   63.8129   63.9526 C   0  0  0  0  0  0  0  0  0  0  0  0
  -34.6955   64.1858   65.3077 C   0  0  0  0  0  0  0  0  0  0  0  0
  -35.5462   63.0534   65.8538 C   0  0  0  0  0  0  0  0  0  0  0  0
  -35.6936   62.8008   61.2794 H   0  0  0  0  0  0  0  0  0  0  0  0
  -34.8832   66.1053   64.8893 H   0  0  0  0  0  0  0  0  0  0  0  0
  -36.2447   62.5895   68.0922 O   0  0  0  0  0  0  0  0  0  0  0  0
  -35.9876   63.6297   67.1974 C   0  0  0  0  0  0  0  0  0  0  0  0
  -36.5249   62.9581   68.9446 H   0  0  0  0  0  0  0  0  0  0  0  0
  -33.3954   64.9509   63.4955 O   0  0  0  0  0  0  0  0  0  0  0  0
  -32.0318   64.2226   61.4154 O   0  0  0  0  0  0  0  0  0  0  0  0
  -31.1004   63.8950   63.6323 O   0  0  0  0  0  0  0  0  0  0  0  0
  -31.1725   66.1121   62.6555 O   0  0  0  0  0  0  0  0  0  0  0  0
  -31.8987   64.8163   62.7787 S   0  0  0  0  0  0  0  0  0  0  0  0
  -32.5029   63.3769   61.4756 H   0  0  0  0  0  0  0  0  0  0  0  0
  -31.6864   66.7191   62.1002 H   0  0  0  0  0  0  0  0  0  0  0  0
  2  1  1  0  0  0
  2  4  1  0  0  0
  2  5  1  0  0  0
 41 42  1  0  0  0
 41  1  1  0  0  0
 42 46  1  0  0  0
  1 24  1  0  0  0
 23 24  1  0  0  0
 23 25  1  0  0  0
 24 26  1  0  0  0
  3  4  2  0  0  0
 26 27  2  0  0  0
 27 28  1  0  0  0
 43 47  1  0  0  0
 43 51  1  0  0  0
 28 29  1  0  0  0
 56 48  1  0  0  0
 56 60  1  0  0  0
 29 30  1  0  0  0
 57 60  1  0  0  0
 57 61  1  0  0  0
 30 31  1  0  0  0
 44 49  1  0  0  0
 44 52  1  0  0  0
 31 32  1  0  0  0
 45 46  1  0  0  0
 45 50  1  0  0  0
 32 33  1  0  0  0
 53 54  1  0  0  0
 53 55  1  0  0  0
 33 34  1  0  0  0
 34 35  1  0  0  0
 35 36  1  0  0  0
 58 60  1  0  0  0
 36 37  1  0  0  0
 59 60  1  0  0  0
 59 62  1  0  0  0
 37 38  1  0  0  0
 38 39  1  0  0  0
 39 40  1  0  0  0
  4  6  1  0  0  0
  6  7  1  0  0  0
  7  8  1  0  0  0
  8  9  1  0  0  0
  9 10  1  0  0  0
 10 11  1  0  0  0
 11 12  1  0  0  0
 12 13  1  0  0  0
 13 14  1  0  0  0
 14 15  1  0  0  0
 15 16  1  0  0  0
 16 17  1  0  0  0
 17 18  1  0  0  0
 18 19  1  0  0  0
 19 20  1  0  0  0
 20 21  1  0  0  0
 21 22  1  0  0  0
 46 47  1  0  0  0
 47 48  1  0  0  0
 48 49  1  0  0  0
 49 50  1  0  0  0
 50 54  1  0  0  0
M  CHG 1  58  -1
M  END
> <minimizedAffinity>
-9.64978

> <CNNscore>
0.3455993235

> <CNNaffinity>
7.1548652649

> <CNN_VS>
2.4727165699

> <CNNaffinity_variance>
1.3590480089

$$$$
/media/chris/experiments/cd1a-new-docking/inputs/ligands/1onq_ligand.pdb


 62 62  0  0  0  0  0  0  0  0999 V2000
  -40.0655   59.7440   64.3867 C   0  0  0  0  0  0  0  0  0  0  0  0
  -40.3533   60.1914   63.0384 N   0  0  0  0  0  0  0  0  0  0  0  0
  -40.1611   60.1162   60.7789 O   0  0  0  0  0  0  0  0  0  0  0  0
  -39.8925   59.6887   61.8849 C   0  0  0  0  0  0  0  0  0  0  0  0
  -40.9632   60.9603   62.9604 H   0  0  0  0  0  0  0  0  0  0  0  0
  -38.9713   58.5133   62.0243 C   0  0  0  0  0  0  0  0  0  0  0  0
  -37.6752   58.8910   61.3070 C   0  0  0  0  0  0  0  0  0  0  0  0
  -37.4553   57.9712   60.1084 C   0  0  0  0  0  0  0  0  0  0  0  0
  -37.3718   58.6461   58.7608 C   0  0  0  0  0  0  0  0  0  0  0  0
  -37.3940   57.5541   57.6963 C   0  0  0  0  0  0  0  0  0  0  0  0
  -36.2436   56.5506   57.8523 C   0  0  0  0  0  0  0  0  0  0  0  0
  -34.8409   57.1705   57.7156 C   0  0  0  0  0  0  0  0  0  0  0  0
  -33.7734   56.4305   58.5514 C   0  0  0  0  0  0  0  0  0  0  0  0
  -34.4355   55.4922   59.5643 C   0  0  0  0  0  0  0  0  0  0  0  0
  -34.3044   55.9198   61.0212 C   0  0  0  0  0  0  0  0  0  0  0  0
  -33.6348   57.2783   61.1660 C   0  0  0  0  0  0  0  0  0  0  0  0
  -32.5883   57.3957   62.2765 C   0  0  0  0  0  0  0  0  0  0  0  0
  -32.8183   58.7103   63.0099 C   0  0  0  0  0  0  0  0  0  0  0  0
  -34.2485   59.1628   63.2646 C   0  0  0  0  0  0  0  0  0  0  0  0
  -34.8667   58.3944   64.4434 C   0  0  0  0  0  0  0  0  0  0  0  0
  -35.8065   57.2455   64.0343 C   0  0  0  0  0  0  0  0  0  0  0  0
  -37.0840   57.1839   64.8684 C   0  0  0  0  0  0  0  0  0  0  0  0
  -40.8490   60.9856   66.1867 O   0  0  0  0  0  0  0  0  0  0  0  0
  -41.3177   60.1502   65.1446 C   0  0  0  0  0  0  0  0  0  0  0  0
  -40.4151   61.7651   65.8059 H   0  0  0  0  0  0  0  0  0  0  0  0
  -42.0154   58.8974   65.6794 C   0  0  0  0  0  0  0  0  0  0  0  0
  -43.3349   58.6806   65.5447 C   0  0  0  0  0  0  0  0  0  0  0  0
  -43.9571   57.4041   66.1076 C   0  0  0  0  0  0  0  0  0  0  0  0
  -45.3236   57.0578   65.4988 C   0  0  0  0  0  0  0  0  0  0  0  0
  -45.9254   58.1222   64.5628 C   0  0  0  0  0  0  0  0  0  0  0  0
  -46.8382   59.0930   65.3498 C   0  0  0  0  0  0  0  0  0  0  0  0
  -47.9075   58.4168   66.2449 C   0  0  0  0  0  0  0  0  0  0  0  0
  -49.0302   57.6998   65.4587 C   0  0  0  0  0  0  0  0  0  0  0  0
  -50.3838   58.4416   65.5001 C   0  0  0  0  0  0  0  0  0  0  0  0
  -50.4676   59.6284   64.5329 C   0  0  0  0  0  0  0  0  0  0  0  0
  -51.3800   59.4445   63.3219 C   0  0  0  0  0  0  0  0  0  0  0  0
  -50.6372   59.0337   62.0353 C   0  0  0  0  0  0  0  0  0  0  0  0
  -50.9445   57.6175   61.5255 C   0  0  0  0  0  0  0  0  0  0  0  0
  -50.3888   57.4085   60.1139 C   0  0  0  0  0  0  0  0  0  0  0  0
  -48.9784   56.8543   60.0188 C   0  0  0  0  0  0  0  0  0  0  0  0
  -38.7119   60.2110   64.9685 C   0  0  0  0  0  0  0  0  0  0  0  0
  -38.2009   61.4788   64.4838 O   0  0  0  0  0  0  0  0  0  0  0  0
  -36.1607   61.8952   62.5237 O   0  0  0  0  0  0  0  0  0  0  0  0
  -35.2020   65.1346   64.9703 O   0  0  0  0  0  0  0  0  0  0  0  0
  -36.7344   62.7219   65.9634 O   0  0  0  0  0  0  0  0  0  0  0  0
  -36.8168   61.9059   64.7697 C   0  0  0  0  0  0  0  0  0  0  0  0
  -36.1121   62.7006   63.6608 C   0  0  0  0  0  0  0  0  0  0  0  0
  -34.6320   63.0164   63.9686 C   0  0  0  0  0  0  0  0  0  0  0  0
  -34.6316   63.8520   65.2189 C   0  0  0  0  0  0  0  0  0  0  0  0
  -35.3859   63.1292   66.3202 C   0  0  0  0  0  0  0  0  0  0  0  0
  -37.0847   61.6863   62.3148 H   0  0  0  0  0  0  0  0  0  0  0  0
  -34.7056   65.5779   64.2647 H   0  0  0  0  0  0  0  0  0  0  0  0
  -33.9711   64.6201   67.5404 O   0  0  0  0  0  0  0  0  0  0  0  0
  -35.2766   64.1313   67.4673 C   0  0  0  0  0  0  0  0  0  0  0  0
  -33.9043   65.2562   68.2696 H   0  0  0  0  0  0  0  0  0  0  0  0
  -33.9269   63.7876   62.9696 O   0  0  0  0  0  0  0  0  0  0  0  0
  -31.9664   64.3611   61.3744 O   0  0  0  0  0  0  0  0  0  0  0  0
  -32.3841   62.0470   61.9743 O   0  0  0  0  0  0  0  0  0  0  0  0
  -31.3623   63.5554   63.5727 O   0  0  0  0  0  0  0  0  0  0  0  0
  -32.3722   63.4458   62.4819 S   0  0  0  0  0  0  0  0  0  0  0  0
  -32.6132   64.3033   60.6539 H   0  0  0  0  0  0  0  0  0  0  0  0
  -31.3479   64.4649   63.9097 H   0  0  0  0  0  0  0  0  0  0  0  0
  2  1  1  0  0  0
  2  4  1  0  0  0
  2  5  1  0  0  0
 41 42  1  0  0  0
 41  1  1  0  0  0
 42 46  1  0  0  0
  1 24  1  0  0  0
 23 24  1  0  0  0
 23 25  1  0  0  0
 24 26  1  0  0  0
  3  4  2  0  0  0
 26 27  2  0  0  0
 27 28  1  0  0  0
 43 47  1  0  0  0
 43 51  1  0  0  0
 28 29  1  0  0  0
 56 48  1  0  0  0
 56 60  1  0  0  0
 29 30  1  0  0  0
 57 60  1  0  0  0
 57 61  1  0  0  0
 30 31  1  0  0  0
 44 49  1  0  0  0
 44 52  1  0  0  0
 31 32  1  0  0  0
 45 46  1  0  0  0
 45 50  1  0  0  0
 32 33  1  0  0  0
 53 54  1  0  0  0
 53 55  1  0  0  0
 33 34  1  0  0  0
 34 35  1  0  0  0
 35 36  1  0  0  0
 58 60  1  0  0  0
 36 37  1  0  0  0
 59 60  1  0  0  0
 59 62  1  0  0  0
 37 38  1  0  0  0
 38 39  1  0  0  0
 39 40  1  0  0  0
  4  6  1  0  0  0
  6  7  1  0  0  0
  7  8  1  0  0  0
  8  9  1  0  0  0
  9 10  1  0  0  0
 10 11  1  0  0  0
 11 12  1  0  0  0
 12 13  1  0  0  0
 13 14  1  0  0  0
 14 15  1  0  0  0
 15 16  1  0  0  0
 16 17  1  0  0  0
 17 18  1  0  0  0
 18 19  1  0  0  0
 19 20  1  0  0  0
 20 21  1  0  0  0
 21 22  1  0  0  0
 46 47  1  0  0  0
 47 48  1  0  0  0
 48 49  1  0  0  0
 49 50  1  0  0  0
 50 54  1  0  0  0
M  CHG 1  58  -1
M  END
> <minimizedAffinity>
-9.63116

> <CNNscore>
0.2595169842

> <CNNaffinity>
7.1841139793

> <CNN_VS>
1.8643995523

> <CNNaffinity_variance>
1.3075984716

$$$$
/media/chris/experiments/cd1a-new-docking/inputs/ligands/1onq_ligand.pdb


 62 62  0  0  0  0  0  0  0  0999 V2000
  -39.4827   59.3579   63.6839 C   0  0  0  0  0  0  0  0  0  0  0  0
  -40.9103   59.5916   63.5924 N   0  0  0  0  0  0  0  0  0  0  0  0
  -43.0085   59.7611   64.4390 O   0  0  0  0  0  0  0  0  0  0  0  0
  -41.8164   59.5680   64.5794 C   0  0  0  0  0  0  0  0  0  0  0  0
  -41.2574   59.7927   62.6934 H   0  0  0  0  0  0  0  0  0  0  0  0
  -41.2671   59.2677   65.9424 C   0  0  0  0  0  0  0  0  0  0  0  0
  -42.4500   58.8085   66.7948 C   0  0  0  0  0  0  0  0  0  0  0  0
  -42.6618   57.3058   66.6266 C   0  0  0  0  0  0  0  0  0  0  0  0
  -44.0408   56.8751   66.1891 C   0  0  0  0  0  0  0  0  0  0  0  0
  -45.0157   57.9790   66.5851 C   0  0  0  0  0  0  0  0  0  0  0  0
  -46.1727   58.1336   65.5890 C   0  0  0  0  0  0  0  0  0  0  0  0
  -46.6159   59.5896   65.3558 C   0  0  0  0  0  0  0  0  0  0  0  0
  -48.1180   59.8125   65.6379 C   0  0  0  0  0  0  0  0  0  0  0  0
  -48.8473   58.4724   65.7698 C   0  0  0  0  0  0  0  0  0  0  0  0
  -50.1613   58.3751   65.0042 C   0  0  0  0  0  0  0  0  0  0  0  0
  -50.0278   58.8517   63.5654 C   0  0  0  0  0  0  0  0  0  0  0  0
  -50.8435   58.0811   62.5247 C   0  0  0  0  0  0  0  0  0  0  0  0
  -49.8820   57.5256   61.4828 C   0  0  0  0  0  0  0  0  0  0  0  0
  -50.2794   57.5908   60.0155 C   0  0  0  0  0  0  0  0  0  0  0  0
  -49.1074   57.1810   59.1096 C   0  0  0  0  0  0  0  0  0  0  0  0
  -47.7182   57.3268   59.7574 C   0  0  0  0  0  0  0  0  0  0  0  0
  -46.6039   57.5840   58.7456 C   0  0  0  0  0  0  0  0  0  0  0  0
  -38.7060   57.5891   64.9738 O   0  0  0  0  0  0  0  0  0  0  0  0
  -39.3998   57.8434   63.7665 C   0  0  0  0  0  0  0  0  0  0  0  0
  -39.2154   57.9423   65.7199 H   0  0  0  0  0  0  0  0  0  0  0  0
  -38.6473   57.3095   62.5454 C   0  0  0  0  0  0  0  0  0  0  0  0
  -38.3314   58.0760   61.4876 C   0  0  0  0  0  0  0  0  0  0  0  0
  -37.5790   57.4678   60.3055 C   0  0  0  0  0  0  0  0  0  0  0  0
  -37.5749   58.3518   59.0499 C   0  0  0  0  0  0  0  0  0  0  0  0
  -37.1167   57.6628   57.7512 C   0  0  0  0  0  0  0  0  0  0  0  0
  -36.1508   56.4937   58.0607 C   0  0  0  0  0  0  0  0  0  0  0  0
  -34.6523   56.8790   58.1479 C   0  0  0  0  0  0  0  0  0  0  0  0
  -33.7750   55.8461   58.8937 C   0  0  0  0  0  0  0  0  0  0  0  0
  -33.9245   55.9032   60.4295 C   0  0  0  0  0  0  0  0  0  0  0  0
  -33.9193   57.3272   60.9982 C   0  0  0  0  0  0  0  0  0  0  0  0
  -32.7126   57.7033   61.8555 C   0  0  0  0  0  0  0  0  0  0  0  0
  -33.0710   58.0979   63.3018 C   0  0  0  0  0  0  0  0  0  0  0  0
  -34.1228   59.2095   63.4358 C   0  0  0  0  0  0  0  0  0  0  0  0
  -35.4819   58.6342   63.8446 C   0  0  0  0  0  0  0  0  0  0  0  0
  -35.4787   57.2173   64.3905 C   0  0  0  0  0  0  0  0  0  0  0  0
  -38.7455   60.1608   64.7797 C   0  0  0  0  0  0  0  0  0  0  0  0
  -38.2510   61.4706   64.4016 O   0  0  0  0  0  0  0  0  0  0  0  0
  -36.1602   61.9188   62.5029 O   0  0  0  0  0  0  0  0  0  0  0  0
  -35.2689   65.1194   65.0248 O   0  0  0  0  0  0  0  0  0  0  0  0
  -36.8251   62.6907   65.9389 O   0  0  0  0  0  0  0  0  0  0  0  0
  -36.8752   61.8937   64.7307 C   0  0  0  0  0  0  0  0  0  0  0  0
  -36.1422   62.7061   63.6535 C   0  0  0  0  0  0  0  0  0  0  0  0
  -34.6710   63.0176   64.0051 C   0  0  0  0  0  0  0  0  0  0  0  0
  -34.7042   63.8333   65.2680 C   0  0  0  0  0  0  0  0  0  0  0  0
  -35.4867   63.0928   66.3375 C   0  0  0  0  0  0  0  0  0  0  0  0
  -37.0781   61.7128   62.2663 H   0  0  0  0  0  0  0  0  0  0  0  0
  -34.7544   65.5741   64.3397 H   0  0  0  0  0  0  0  0  0  0  0  0
  -34.0947   64.5247   67.6511 O   0  0  0  0  0  0  0  0  0  0  0  0
  -35.4085   64.0767   67.5028 C   0  0  0  0  0  0  0  0  0  0  0  0
  -34.0478   65.1492   68.3918 H   0  0  0  0  0  0  0  0  0  0  0  0
  -33.9404   63.8048   63.0374 O   0  0  0  0  0  0  0  0  0  0  0  0
  -32.0366   64.2732   61.3424 O   0  0  0  0  0  0  0  0  0  0  0  0
  -32.5051   61.9892   62.0155 O   0  0  0  0  0  0  0  0  0  0  0  0
  -31.3603   63.4960   63.5299 O   0  0  0  0  0  0  0  0  0  0  0  0
  -32.4222   63.3977   62.4886 S   0  0  0  0  0  0  0  0  0  0  0  0
  -32.7173   64.2222   60.6533 H   0  0  0  0  0  0  0  0  0  0  0  0
  -31.2994   64.4117   63.8441 H   0  0  0  0  0  0  0  0  0  0  0  0
  2  1  1  0  0  0
  2  4  1  0  0  0
  2  5  1  0  0  0
 41 42  1  0  0  0
 41  1  1  0  0  0
 42 46  1  0  0  0
  1 24  1  0  0  0
 23 24  1  0  0  0
 23 25  1  0  0  0
 24 26  1  0  0  0
  3  4  2  0  0  0
 26 27  2  0  0  0
 27 28  1  0  0  0
 43 47  1  0  0  0
 43 51  1  0  0  0
 28 29  1  0  0  0
 56 48  1  0  0  0
 56 60  1  0  0  0
 29 30  1  0  0  0
 57 60  1  0  0  0
 57 61  1  0  0  0
 30 31  1  0  0  0
 44 49  1  0  0  0
 44 52  1  0  0  0
 31 32  1  0  0  0
 45 46  1  0  0  0
 45 50  1  0  0  0
 32 33  1  0  0  0
 53 54  1  0  0  0
 53 55  1  0  0  0
 33 34  1  0  0  0
 34 35  1  0  0  0
 35 36  1  0  0  0
 58 60  1  0  0  0
 36 37  1  0  0  0
 59 60  1  0  0  0
 59 62  1  0  0  0
 37 38  1  0  0  0
 38 39  1  0  0  0
 39 40  1  0  0  0
  4  6  1  0  0  0
  6  7  1  0  0  0
  7  8  1  0  0  0
  8  9  1  0  0  0
  9 10  1  0  0  0
 10 11  1  0  0  0
 11 12  1  0  0  0
 12 13  1  0  0  0
 13 14  1  0  0  0
 14 15  1  0  0  0
 15 16  1  0  0  0
 16 17  1  0  0  0
 17 18  1  0  0  0
 18 19  1  0  0  0
 19 20  1  0  0  0
 20 21  1  0  0  0
 21 22  1  0  0  0
 46 47  1  0  0  0
 47 48  1  0  0  0
 48 49  1  0  0  0
 49 50  1  0  0  0
 50 54  1  0  0  0
M  CHG 1  58  -1
M  END
> <minimizedAffinity>
-9.84651

> <CNNscore>
0.2479576021

> <CNNaffinity>
7.1228370667

> <CNN_VS>
1.7661615610

> <CNNaffinity_variance>
1.4372408390

$$$$
/media/chris/experiments/cd1a-new-docking/inputs/ligands/1onq_ligand.pdb


 62 62  0  0  0  0  0  0  0  0999 V2000
  -40.2162   58.7925   64.7699 C   0  0  0  0  0  0  0  0  0  0  0  0
  -41.0374   58.2274   65.8222 N   0  0  0  0  0  0  0  0  0  0  0  0
  -43.0041   57.8094   66.8734 O   0  0  0  0  0  0  0  0  0  0  0  0
  -42.3688   58.2955   65.9580 C   0  0  0  0  0  0  0  0  0  0  0  0
  -40.5573   57.7320   66.5245 H   0  0  0  0  0  0  0  0  0  0  0  0
  -43.0827   59.0475   64.8742 C   0  0  0  0  0  0  0  0  0  0  0  0
  -44.5535   59.1095   65.2864 C   0  0  0  0  0  0  0  0  0  0  0  0
  -45.3712   58.1278   64.4506 C   0  0  0  0  0  0  0  0  0  0  0  0
  -46.8560   58.3910   64.3822 C   0  0  0  0  0  0  0  0  0  0  0  0
  -47.1513   59.5979   65.2666 C   0  0  0  0  0  0  0  0  0  0  0  0
  -48.4905   59.4776   66.0061 C   0  0  0  0  0  0  0  0  0  0  0  0
  -49.1750   58.1067   65.8554 C   0  0  0  0  0  0  0  0  0  0  0  0
  -50.6082   58.2103   65.2891 C   0  0  0  0  0  0  0  0  0  0  0  0
  -50.8731   59.6165   64.7439 C   0  0  0  0  0  0  0  0  0  0  0  0
  -51.5486   59.6622   63.3786 C   0  0  0  0  0  0  0  0  0  0  0  0
  -51.1006   58.5236   62.4744 C   0  0  0  0  0  0  0  0  0  0  0  0
  -49.7483   58.7086   61.7822 C   0  0  0  0  0  0  0  0  0  0  0  0
  -49.4514   57.4523   60.9745 C   0  0  0  0  0  0  0  0  0  0  0  0
  -49.7155   57.4693   59.4761 C   0  0  0  0  0  0  0  0  0  0  0  0
  -48.5979   56.7414   58.7125 C   0  0  0  0  0  0  0  0  0  0  0  0
  -47.2114   57.4009   58.8276 C   0  0  0  0  0  0  0  0  0  0  0  0
  -46.4682   57.4812   57.4962 C   0  0  0  0  0  0  0  0  0  0  0  0
  -38.0129   58.1830   65.1818 O   0  0  0  0  0  0  0  0  0  0  0  0
  -39.1802   57.7058   64.5389 C   0  0  0  0  0  0  0  0  0  0  0  0
  -38.1868   58.2900   66.1301 H   0  0  0  0  0  0  0  0  0  0  0  0
  -38.9729   57.5145   63.0347 C   0  0  0  0  0  0  0  0  0  0  0  0
  -37.8085   57.1053   62.5025 C   0  0  0  0  0  0  0  0  0  0  0  0
  -37.6809   56.9392   60.9894 C   0  0  0  0  0  0  0  0  0  0  0  0
  -37.3242   58.2367   60.2495 C   0  0  0  0  0  0  0  0  0  0  0  0
  -37.2866   58.1392   58.7132 C   0  0  0  0  0  0  0  0  0  0  0  0
  -36.4119   56.9456   58.2597 C   0  0  0  0  0  0  0  0  0  0  0  0
  -34.9236   57.2816   57.9880 C   0  0  0  0  0  0  0  0  0  0  0  0
  -33.9222   56.3278   58.6810 C   0  0  0  0  0  0  0  0  0  0  0  0
  -34.4315   55.7701   60.0278 C   0  0  0  0  0  0  0  0  0  0  0  0
  -33.6711   56.3074   61.2461 C   0  0  0  0  0  0  0  0  0  0  0  0
  -34.1748   57.6290   61.8227 C   0  0  0  0  0  0  0  0  0  0  0  0
  -33.1848   58.3078   62.7896 C   0  0  0  0  0  0  0  0  0  0  0  0
  -31.7755   58.5434   62.2252 C   0  0  0  0  0  0  0  0  0  0  0  0
  -31.5932   60.0008   61.7921 C   0  0  0  0  0  0  0  0  0  0  0  0
  -30.1713   60.5336   61.7964 C   0  0  0  0  0  0  0  0  0  0  0  0
  -39.6869   60.2207   65.0328 C   0  0  0  0  0  0  0  0  0  0  0  0
  -38.8725   60.8125   63.9889 O   0  0  0  0  0  0  0  0  0  0  0  0
  -36.8975   61.3297   61.9866 O   0  0  0  0  0  0  0  0  0  0  0  0
  -35.8810   64.4647   64.5434 O   0  0  0  0  0  0  0  0  0  0  0  0
  -37.3675   61.9996   65.4758 O   0  0  0  0  0  0  0  0  0  0  0  0
  -37.4826   61.2366   64.2503 C   0  0  0  0  0  0  0  0  0  0  0  0
  -36.8178   62.0845   63.1563 C   0  0  0  0  0  0  0  0  0  0  0  0
  -35.3306   62.3970   63.4314 C   0  0  0  0  0  0  0  0  0  0  0  0
  -35.2957   63.1766   64.7169 C   0  0  0  0  0  0  0  0  0  0  0  0
  -36.0108   62.4005   65.8080 C   0  0  0  0  0  0  0  0  0  0  0  0
  -37.8263   61.1235   61.7975 H   0  0  0  0  0  0  0  0  0  0  0  0
  -35.4097   64.9424   63.8430 H   0  0  0  0  0  0  0  0  0  0  0  0
  -36.2800   62.7069   68.1632 O   0  0  0  0  0  0  0  0  0  0  0  0
  -35.8713   63.3517   66.9945 C   0  0  0  0  0  0  0  0  0  0  0  0
  -36.1905   63.3130   68.9152 H   0  0  0  0  0  0  0  0  0  0  0  0
  -34.6618   63.2166   62.4461 O   0  0  0  0  0  0  0  0  0  0  0  0
  -32.4115   63.7749   61.2878 O   0  0  0  0  0  0  0  0  0  0  0  0
  -32.4040   62.7710   63.4971 O   0  0  0  0  0  0  0  0  0  0  0  0
  -32.9840   65.1082   63.2220 O   0  0  0  0  0  0  0  0  0  0  0  0
  -33.0941   63.7511   62.6154 S   0  0  0  0  0  0  0  0  0  0  0  0
  -32.4730   62.8984   60.8769 H   0  0  0  0  0  0  0  0  0  0  0  0
  -33.4316   65.7539   62.6531 H   0  0  0  0  0  0  0  0  0  0  0  0
  2  1  1  0  0  0
  2  4  1  0  0  0
  2  5  1  0  0  0
 41 42  1  0  0  0
 41  1  1  0  0  0
 42 46  1  0  0  0
  1 24  1  0  0  0
 23 24  1  0  0  0
 23 25  1  0  0  0
 24 26  1  0  0  0
  3  4  2  0  0  0
 26 27  2  0  0  0
 27 28  1  0  0  0
 43 47  1  0  0  0
 43 51  1  0  0  0
 28 29  1  0  0  0
 56 48  1  0  0  0
 56 60  1  0  0  0
 29 30  1  0  0  0
 57 60  1  0  0  0
 57 61  1  0  0  0
 30 31  1  0  0  0
 44 49  1  0  0  0
 44 52  1  0  0  0
 31 32  1  0  0  0
 45 46  1  0  0  0
 45 50  1  0  0  0
 32 33  1  0  0  0
 53 54  1  0  0  0
 53 55  1  0  0  0
 33 34  1  0  0  0
 34 35  1  0  0  0
 35 36  1  0  0  0
 58 60  1  0  0  0
 36 37  1  0  0  0
 59 60  1  0  0  0
 59 62  1  0  0  0
 37 38  1  0  0  0
 38 39  1  0  0  0
 39 40  1  0  0  0
  4  6  1  0  0  0
  6  7  1  0  0  0
  7  8  1  0  0  0
  8  9  1  0  0  0
  9 10  1  0  0  0
 10 11  1  0  0  0
 11 12  1  0  0  0
 12 13  1  0  0  0
 13 14  1  0  0  0
 14 15  1  0  0  0
 15 16  1  0  0  0
 16 17  1  0  0  0
 17 18  1  0  0  0
 18 19  1  0  0  0
 19 20  1  0  0  0
 20 21  1  0  0  0
 21 22  1  0  0  0
 46 47  1  0  0  0
 47 48  1  0  0  0
 48 49  1  0  0  0
 49 50  1  0  0  0
 50 54  1  0  0  0
M  CHG 1  58  -1
M  END
> <minimizedAffinity>
-10.39407

> <CNNscore>
0.2353912890

> <CNNaffinity>
6.8684530258

> <CNN_VS>
1.6167739630

> <CNNaffinity_variance>
1.2891919613

$$$$
/media/chris/experiments/cd1a-new-docking/inputs/ligands/1onq_ligand.pdb


 62 62  0  0  0  0  0  0  0  0999 V2000
  -40.3872   58.9720   64.9712 C   0  0  0  0  0  0  0  0  0  0  0  0
  -41.2299   58.5625   66.0772 N   0  0  0  0  0  0  0  0  0  0  0  0
  -43.2182   58.2911   67.1359 O   0  0  0  0  0  0  0  0  0  0  0  0
  -42.5641   58.6415   66.1728 C   0  0  0  0  0  0  0  0  0  0  0  0
  -40.7640   58.1786   66.8548 H   0  0  0  0  0  0  0  0  0  0  0  0
  -43.2561   59.2217   64.9752 C   0  0  0  0  0  0  0  0  0  0  0  0
  -44.7502   59.2277   65.2987 C   0  0  0  0  0  0  0  0  0  0  0  0
  -45.4341   58.0398   64.6261 C   0  0  0  0  0  0  0  0  0  0  0  0
  -46.4557   57.3039   65.4588 C   0  0  0  0  0  0  0  0  0  0  0  0
  -47.8364   57.6722   64.9259 C   0  0  0  0  0  0  0  0  0  0  0  0
  -48.6686   58.4715   65.9375 C   0  0  0  0  0  0  0  0  0  0  0  0
  -49.9419   59.1054   65.3481 C   0  0  0  0  0  0  0  0  0  0  0  0
  -50.4433   58.3784   64.0809 C   0  0  0  0  0  0  0  0  0  0  0  0
  -50.9033   59.3881   63.0255 C   0  0  0  0  0  0  0  0  0  0  0  0
  -49.9783   59.5306   61.8228 C   0  0  0  0  0  0  0  0  0  0  0  0
  -49.3718   58.2008   61.4004 C   0  0  0  0  0  0  0  0  0  0  0  0
  -49.9548   57.5692   60.1342 C   0  0  0  0  0  0  0  0  0  0  0  0
  -49.4151   56.1500   60.0185 C   0  0  0  0  0  0  0  0  0  0  0  0
  -48.1429   55.9166   59.2171 C   0  0  0  0  0  0  0  0  0  0  0  0
  -48.0879   56.8415   57.9909 C   0  0  0  0  0  0  0  0  0  0  0  0
  -46.8647   57.7757   57.9500 C   0  0  0  0  0  0  0  0  0  0  0  0
  -45.8938   57.5507   59.1068 C   0  0  0  0  0  0  0  0  0  0  0  0
  -38.2278   58.2784   65.4727 O   0  0  0  0  0  0  0  0  0  0  0  0
  -39.4118   57.8136   64.8517 C   0  0  0  0  0  0  0  0  0  0  0  0
  -38.4078   58.4755   66.4053 H   0  0  0  0  0  0  0  0  0  0  0  0
  -39.1959   57.4833   63.3730 C   0  0  0  0  0  0  0  0  0  0  0  0
  -37.9884   57.5183   62.7839 C   0  0  0  0  0  0  0  0  0  0  0  0
  -37.8555   57.1757   61.3012 C   0  0  0  0  0  0  0  0  0  0  0  0
  -37.1102   58.2392   60.4818 C   0  0  0  0  0  0  0  0  0  0  0  0
  -37.8100   58.6953   59.1881 C   0  0  0  0  0  0  0  0  0  0  0  0
  -37.1722   58.0191   57.9507 C   0  0  0  0  0  0  0  0  0  0  0  0
  -36.2466   56.8147   58.2584 C   0  0  0  0  0  0  0  0  0  0  0  0
  -34.7744   57.0220   57.8314 C   0  0  0  0  0  0  0  0  0  0  0  0
  -33.7526   56.5560   58.8912 C   0  0  0  0  0  0  0  0  0  0  0  0
  -34.3690   55.7161   60.0163 C   0  0  0  0  0  0  0  0  0  0  0  0
  -34.2897   56.3126   61.4200 C   0  0  0  0  0  0  0  0  0  0  0  0
  -32.8795   56.7910   61.8179 C   0  0  0  0  0  0  0  0  0  0  0  0
  -32.8395   58.0396   62.7120 C   0  0  0  0  0  0  0  0  0  0  0  0
  -34.2476   58.5953   62.9438 C   0  0  0  0  0  0  0  0  0  0  0  0
  -34.7545   58.5744   64.3749 C   0  0  0  0  0  0  0  0  0  0  0  0
  -39.7813   60.3893   65.0852 C   0  0  0  0  0  0  0  0  0  0  0  0
  -38.8726   60.7927   64.0293 O   0  0  0  0  0  0  0  0  0  0  0  0
  -36.8371   61.2758   62.0797 O   0  0  0  0  0  0  0  0  0  0  0  0
  -35.8411   64.3996   64.6582 O   0  0  0  0  0  0  0  0  0  0  0  0
  -37.3897   61.9593   65.5542 O   0  0  0  0  0  0  0  0  0  0  0  0
  -37.4838   61.1958   64.3271 C   0  0  0  0  0  0  0  0  0  0  0  0
  -36.7771   62.0314   63.2500 C   0  0  0  0  0  0  0  0  0  0  0  0
  -35.2931   62.3215   63.5644 C   0  0  0  0  0  0  0  0  0  0  0  0
  -35.2805   63.1029   64.8492 C   0  0  0  0  0  0  0  0  0  0  0  0
  -36.0363   62.3399   65.9219 C   0  0  0  0  0  0  0  0  0  0  0  0
  -37.7636   61.0835   61.8662 H   0  0  0  0  0  0  0  0  0  0  0  0
  -35.3439   64.8686   63.9700 H   0  0  0  0  0  0  0  0  0  0  0  0
  -36.9767   64.1961   67.0981 O   0  0  0  0  0  0  0  0  0  0  0  0
  -35.9139   63.2911   67.1103 C   0  0  0  0  0  0  0  0  0  0  0  0
  -36.8967   64.7991   67.8537 H   0  0  0  0  0  0  0  0  0  0  0  0
  -34.5857   63.1289   62.5961 O   0  0  0  0  0  0  0  0  0  0  0  0
  -32.5007   61.6417   62.1983 O   0  0  0  0  0  0  0  0  0  0  0  0
  -32.3210   63.5996   63.6209 O   0  0  0  0  0  0  0  0  0  0  0  0
  -32.4493   63.8494   61.2135 O   0  0  0  0  0  0  0  0  0  0  0  0
  -32.9365   63.0582   62.3789 S   0  0  0  0  0  0  0  0  0  0  0  0
  -32.8094   61.1103   62.9488 H   0  0  0  0  0  0  0  0  0  0  0  0
  -32.8460   63.5029   60.3990 H   0  0  0  0  0  0  0  0  0  0  0  0
  2  1  1  0  0  0
  2  4  1  0  0  0
  2  5  1  0  0  0
 41 42  1  0  0  0
 41  1  1  0  0  0
 42 46  1  0  0  0
  1 24  1  0  0  0
 23 24  1  0  0  0
 23 25  1  0  0  0
 24 26  1  0  0  0
  3  4  2  0  0  0
 26 27  2  0  0  0
 27 28  1  0  0  0
 43 47  1  0  0  0
 43 51  1  0  0  0
 28 29  1  0  0  0
 56 48  1  0  0  0
 56 60  1  0  0  0
 29 30  1  0  0  0
 57 60  1  0  0  0
 57 61  1  0  0  0
 30 31  1  0  0  0
 44 49  1  0  0  0
 44 52  1  0  0  0
 31 32  1  0  0  0
 45 46  1  0  0  0
 45 50  1  0  0  0
 32 33  1  0  0  0
 53 54  1  0  0  0
 53 55  1  0  0  0
 33 34  1  0  0  0
 34 35  1  0  0  0
 35 36  1  0  0  0
 58 60  1  0  0  0
 36 37  1  0  0  0
 59 60  1  0  0  0
 59 62  1  0  0  0
 37 38  1  0  0  0
 38 39  1  0  0  0
 39 40  1  0  0  0
  4  6  1  0  0  0
  6  7  1  0  0  0
  7  8  1  0  0  0
  8  9  1  0  0  0
  9 10  1  0  0  0
 10 11  1  0  0  0
 11 12  1  0  0  0
 12 13  1  0  0  0
 13 14  1  0  0  0
 14 15  1  0  0  0
 15 16  1  0  0  0
 16 17  1  0  0  0
 17 18  1  0  0  0
 18 19  1  0  0  0
 19 20  1  0  0  0
 20 21  1  0  0  0
 21 22  1  0  0  0
 46 47  1  0  0  0
 47 48  1  0  0  0
 48 49  1  0  0  0
 49 50  1  0  0  0
 50 54  1  0  0  0
M  CHG 1  58  -1
M  END
> <minimizedAffinity>
-10.15295

> <CNNscore>
0.2274755836

> <CNNaffinity>
6.9864339828

> <CNN_VS>
1.5892431736

> <CNNaffinity_variance>
1.6963691711

$$$$
/media/chris/experiments/cd1a-new-docking/inputs/ligands/1onq_ligand.pdb


 62 62  0  0  0  0  0  0  0  0999 V2000
  -38.9850   59.7669   64.5689 C   0  0  0  0  0  0  0  0  0  0  0  0
  -39.1319   58.8414   63.4631 N   0  0  0  0  0  0  0  0  0  0  0  0
  -38.6121   56.9760   62.2807 O   0  0  0  0  0  0  0  0  0  0  0  0
  -38.4520   57.7089   63.2374 C   0  0  0  0  0  0  0  0  0  0  0  0
  -39.8164   59.0736   62.7947 H   0  0  0  0  0  0  0  0  0  0  0  0
  -37.4194   57.3684   64.2706 C   0  0  0  0  0  0  0  0  0  0  0  0
  -36.0625   57.4534   63.5716 C   0  0  0  0  0  0  0  0  0  0  0  0
  -35.0971   58.2910   64.4068 C   0  0  0  0  0  0  0  0  0  0  0  0
  -33.6274   58.0660   64.1463 C   0  0  0  0  0  0  0  0  0  0  0  0
  -33.1969   59.0452   63.0591 C   0  0  0  0  0  0  0  0  0  0  0  0
  -32.5208   58.3506   61.8695 C   0  0  0  0  0  0  0  0  0  0  0  0
  -33.1357   56.9882   61.5000 C   0  0  0  0  0  0  0  0  0  0  0  0
  -33.8789   57.0122   60.1462 C   0  0  0  0  0  0  0  0  0  0  0  0
  -33.9948   55.5988   59.5687 C   0  0  0  0  0  0  0  0  0  0  0  0
  -35.3549   54.9364   59.7525 C   0  0  0  0  0  0  0  0  0  0  0  0
  -36.5013   55.8481   59.3408 C   0  0  0  0  0  0  0  0  0  0  0  0
  -36.5454   56.2457   57.8636 C   0  0  0  0  0  0  0  0  0  0  0  0
  -36.7835   57.7475   57.7820 C   0  0  0  0  0  0  0  0  0  0  0  0
  -37.1181   58.5033   59.0595 C   0  0  0  0  0  0  0  0  0  0  0  0
  -38.5511   59.0568   59.0116 C   0  0  0  0  0  0  0  0  0  0  0  0
  -38.9368   59.9355   60.2156 C   0  0  0  0  0  0  0  0  0  0  0  0
  -40.3763   60.4417   60.1575 C   0  0  0  0  0  0  0  0  0  0  0  0
  -40.3327   60.9636   66.0342 O   0  0  0  0  0  0  0  0  0  0  0  0
  -40.4263   60.0743   64.9370 C   0  0  0  0  0  0  0  0  0  0  0  0
  -39.8736   61.7718   65.7571 H   0  0  0  0  0  0  0  0  0  0  0  0
  -41.1431   58.7740   65.3081 C   0  0  0  0  0  0  0  0  0  0  0  0
  -42.3812   58.7439   65.8302 C   0  0  0  0  0  0  0  0  0  0  0  0
  -43.0285   57.4040   66.1753 C   0  0  0  0  0  0  0  0  0  0  0  0
  -44.5634   57.4265   66.1351 C   0  0  0  0  0  0  0  0  0  0  0  0
  -45.1948   58.6666   65.4759 C   0  0  0  0  0  0  0  0  0  0  0  0
  -46.5878   58.3292   64.8919 C   0  0  0  0  0  0  0  0  0  0  0  0
  -47.3359   57.1677   65.5942 C   0  0  0  0  0  0  0  0  0  0  0  0
  -48.8560   57.4016   65.7596 C   0  0  0  0  0  0  0  0  0  0  0  0
  -49.2324   58.8826   65.9814 C   0  0  0  0  0  0  0  0  0  0  0  0
  -50.5329   59.3005   65.2850 C   0  0  0  0  0  0  0  0  0  0  0  0
  -50.3872   59.8648   63.8732 C   0  0  0  0  0  0  0  0  0  0  0  0
  -51.4309   59.3282   62.8739 C   0  0  0  0  0  0  0  0  0  0  0  0
  -51.0490   58.0182   62.1683 C   0  0  0  0  0  0  0  0  0  0  0  0
  -49.5325   57.9163   61.9811 C   0  0  0  0  0  0  0  0  0  0  0  0
  -49.0102   58.1315   60.5717 C   0  0  0  0  0  0  0  0  0  0  0  0
  -38.0558   60.9741   64.3076 C   0  0  0  0  0  0  0  0  0  0  0  0
  -37.3976   61.5480   65.4655 O   0  0  0  0  0  0  0  0  0  0  0  0
  -35.7397   61.4709   63.1367 O   0  0  0  0  0  0  0  0  0  0  0  0
  -34.5900   65.2523   64.4701 O   0  0  0  0  0  0  0  0  0  0  0  0
  -35.7856   63.1584   66.2981 O   0  0  0  0  0  0  0  0  0  0  0  0
  -36.0141   62.0575   65.3852 C   0  0  0  0  0  0  0  0  0  0  0  0
  -35.5530   62.5462   64.0045 C   0  0  0  0  0  0  0  0  0  0  0  0
  -34.0647   62.9555   63.9565 C   0  0  0  0  0  0  0  0  0  0  0  0
  -33.9086   64.0888   64.9326 C   0  0  0  0  0  0  0  0  0  0  0  0
  -34.4242   63.6667   66.2965 C   0  0  0  0  0  0  0  0  0  0  0  0
  -36.6708   61.1995   63.1538 H   0  0  0  0  0  0  0  0  0  0  0  0
  -34.2455   65.5039   63.5989 H   0  0  0  0  0  0  0  0  0  0  0  0
  -32.9412   65.4744   66.7925 O   0  0  0  0  0  0  0  0  0  0  0  0
  -34.1884   64.9354   67.1131 C   0  0  0  0  0  0  0  0  0  0  0  0
  -32.7938   66.2800   67.3124 H   0  0  0  0  0  0  0  0  0  0  0  0
  -33.5835   63.4502   62.6862 O   0  0  0  0  0  0  0  0  0  0  0  0
  -31.7042   64.5853   61.3090 O   0  0  0  0  0  0  0  0  0  0  0  0
  -31.6940   62.1748   61.5891 O   0  0  0  0  0  0  0  0  0  0  0  0
  -31.0500   63.6184   63.4265 O   0  0  0  0  0  0  0  0  0  0  0  0
  -31.9728   63.4708   62.2653 S   0  0  0  0  0  0  0  0  0  0  0  0
  -32.2966   64.5058   60.5451 H   0  0  0  0  0  0  0  0  0  0  0  0
  -31.2251   64.4613   63.8733 H   0  0  0  0  0  0  0  0  0  0  0  0
  2  1  1  0  0  0
  2  4  1  0  0  0
  2  5  1  0  0  0
 41 42  1  0  0  0
 41  1  1  0  0  0
 42 46  1  0  0  0
  1 24  1  0  0  0
 23 24  1  0  0  0
 23 25  1  0  0  0
 24 26  1  0  0  0
  3  4  2  0  0  0
 26 27  2  0  0  0
 27 28  1  0  0  0
 43 47  1  0  0  0
 43 51  1  0  0  0
 28 29  1  0  0  0
 56 48  1  0  0  0
 56 60  1  0  0  0
 29 30  1  0  0  0
 57 60  1  0  0  0
 57 61  1  0  0  0
 30 31  1  0  0  0
 44 49  1  0  0  0
 44 52  1  0  0  0
 31 32  1  0  0  0
 45 46  1  0  0  0
 45 50  1  0  0  0
 32 33  1  0  0  0
 53 54  1  0  0  0
 53 55  1  0  0  0
 33 34  1  0  0  0
 34 35  1  0  0  0
 35 36  1  0  0  0
 58 60  1  0  0  0
 36 37  1  0  0  0
 59 60  1  0  0  0
 59 62  1  0  0  0
 37 38  1  0  0  0
 38 39  1  0  0  0
 39 40  1  0  0  0
  4  6  1  0  0  0
  6  7  1  0  0  0
  7  8  1  0  0  0
  8  9  1  0  0  0
  9 10  1  0  0  0
 10 11  1  0  0  0
 11 12  1  0  0  0
 12 13  1  0  0  0
 13 14  1  0  0  0
 14 15  1  0  0  0
 15 16  1  0  0  0
 16 17  1  0  0  0
 17 18  1  0  0  0
 18 19  1  0  0  0
 19 20  1  0  0  0
 20 21  1  0  0  0
 21 22  1  0  0  0
 46 47  1  0  0  0
 47 48  1  0  0  0
 48 49  1  0  0  0
 49 50  1  0  0  0
 50 54  1  0  0  0
M  CHG 1  58  -1
M  END
> <minimizedAffinity>
-9.32306

> <CNNscore>
0.2151505500

> <CNNaffinity>
6.9626107216

> <CNN_VS>
1.4980095625

> <CNNaffinity_variance>
1.7873798609

$$$$
/media/chris/experiments/cd1a-new-docking/inputs/ligands/1onq_ligand.pdb


 62 62  0  0  0  0  0  0  0  0999 V2000
  -38.0361   60.2878   61.8420 C   0  0  0  0  0  0  0  0  0  0  0  0
  -37.4370   59.6847   60.6679 N   0  0  0  0  0  0  0  0  0  0  0  0
  -36.3470   58.0380   59.5508 O   0  0  0  0  0  0  0  0  0  0  0  0
  -36.8446   58.4872   60.5651 C   0  0  0  0  0  0  0  0  0  0  0  0
  -37.4694   60.2218   59.8435 H   0  0  0  0  0  0  0  0  0  0  0  0
  -36.8122   57.6811   61.8295 C   0  0  0  0  0  0  0  0  0  0  0  0
  -38.2022   57.0646   61.9861 C   0  0  0  0  0  0  0  0  0  0  0  0
  -38.7524   57.3654   63.3782 C   0  0  0  0  0  0  0  0  0  0  0  0
  -37.7271   57.6345   64.4528 C   0  0  0  0  0  0  0  0  0  0  0  0
  -38.3939   58.4950   65.5209 C   0  0  0  0  0  0  0  0  0  0  0  0
  -39.8779   58.7562   65.2306 C   0  0  0  0  0  0  0  0  0  0  0  0
  -40.4233   60.0573   65.8474 C   0  0  0  0  0  0  0  0  0  0  0  0
  -41.9356   59.9885   66.1541 C   0  0  0  0  0  0  0  0  0  0  0  0
  -42.3285   58.5842   66.6212 C   0  0  0  0  0  0  0  0  0  0  0  0
  -43.8259   58.3012   66.6255 C   0  0  0  0  0  0  0  0  0  0  0  0
  -44.1692   56.9986   65.9183 C   0  0  0  0  0  0  0  0  0  0  0  0
  -45.6292   56.8316   65.4908 C   0  0  0  0  0  0  0  0  0  0  0  0
  -45.9149   57.8270   64.3744 C   0  0  0  0  0  0  0  0  0  0  0  0
  -47.2193   58.6095   64.4112 C   0  0  0  0  0  0  0  0  0  0  0  0
  -47.7794   58.6779   65.8407 C   0  0  0  0  0  0  0  0  0  0  0  0
  -49.2600   59.0918   65.9274 C   0  0  0  0  0  0  0  0  0  0  0  0
  -50.2227   57.9083   65.8638 C   0  0  0  0  0  0  0  0  0  0  0  0
  -40.3007   60.4278   62.3396 O   0  0  0  0  0  0  0  0  0  0  0  0
  -39.3798   60.7661   61.3193 C   0  0  0  0  0  0  0  0  0  0  0  0
  -40.0669   60.8981   63.1552 H   0  0  0  0  0  0  0  0  0  0  0  0
  -39.6931   60.0551   60.0008 C   0  0  0  0  0  0  0  0  0  0  0  0
  -40.9146   60.0573   59.4403 C   0  0  0  0  0  0  0  0  0  0  0  0
  -41.1473   59.3224   58.1215 C   0  0  0  0  0  0  0  0  0  0  0  0
  -42.4822   59.6668   57.4451 C   0  0  0  0  0  0  0  0  0  0  0  0
  -43.3634   58.4645   57.0588 C   0  0  0  0  0  0  0  0  0  0  0  0
  -44.3898   58.1546   58.1750 C   0  0  0  0  0  0  0  0  0  0  0  0
  -45.8683   58.4473   57.8142 C   0  0  0  0  0  0  0  0  0  0  0  0
  -46.8001   57.2166   57.9132 C   0  0  0  0  0  0  0  0  0  0  0  0
  -47.1727   56.8393   59.3634 C   0  0  0  0  0  0  0  0  0  0  0  0
  -48.4421   57.5307   59.8750 C   0  0  0  0  0  0  0  0  0  0  0  0
  -49.6345   56.6198   60.1595 C   0  0  0  0  0  0  0  0  0  0  0  0
  -50.8200   57.3342   60.8377 C   0  0  0  0  0  0  0  0  0  0  0  0
  -50.5398   57.8726   62.2489 C   0  0  0  0  0  0  0  0  0  0  0  0
  -50.7242   59.3918   62.3046 C   0  0  0  0  0  0  0  0  0  0  0  0
  -51.8536   59.9031   63.1812 C   0  0  0  0  0  0  0  0  0  0  0  0
  -37.1598   61.3273   62.5771 C   0  0  0  0  0  0  0  0  0  0  0  0
  -35.8156   60.9103   62.9272 O   0  0  0  0  0  0  0  0  0  0  0  0
  -33.5163   62.3886   62.0874 O   0  0  0  0  0  0  0  0  0  0  0  0
  -35.0111   65.2226   64.7581 O   0  0  0  0  0  0  0  0  0  0  0  0
  -35.7025   62.2815   64.9252 O   0  0  0  0  0  0  0  0  0  0  0  0
  -34.9629   61.7349   63.8064 C   0  0  0  0  0  0  0  0  0  0  0  0
  -34.2566   62.9245   63.1404 C   0  0  0  0  0  0  0  0  0  0  0  0
  -33.2890   63.6768   64.0800 C   0  0  0  0  0  0  0  0  0  0  0  0
  -34.1265   64.2017   65.2133 C   0  0  0  0  0  0  0  0  0  0  0  0
  -34.8995   63.0618   65.8516 C   0  0  0  0  0  0  0  0  0  0  0  0
  -34.1088   61.9114   61.4856 H   0  0  0  0  0  0  0  0  0  0  0  0
  -34.4971   65.9395   64.3546 H   0  0  0  0  0  0  0  0  0  0  0  0
  -37.0183   63.8916   66.5835 O   0  0  0  0  0  0  0  0  0  0  0  0
  -35.6729   63.7973   66.9438 C   0  0  0  0  0  0  0  0  0  0  0  0
  -37.5072   64.3591   67.2786 H   0  0  0  0  0  0  0  0  0  0  0  0
  -32.6170   64.8240   63.5122 O   0  0  0  0  0  0  0  0  0  0  0  0
  -30.0729   64.3401   63.6131 O   0  0  0  0  0  0  0  0  0  0  0  0
  -30.9035   66.0773   62.1361 O   0  0  0  0  0  0  0  0  0  0  0  0
  -31.1996   63.7420   61.5590 O   0  0  0  0  0  0  0  0  0  0  0  0
  -31.1770   64.7206   62.6830 S   0  0  0  0  0  0  0  0  0  0  0  0
  -30.0426   64.9670   64.3526 H   0  0  0  0  0  0  0  0  0  0  0  0
  -31.3774   62.8542   61.9069 H   0  0  0  0  0  0  0  0  0  0  0  0
  2  1  1  0  0  0
  2  4  1  0  0  0
  2  5  1  0  0  0
 41 42  1  0  0  0
 41  1  1  0  0  0
 42 46  1  0  0  0
  1 24  1  0  0  0
 23 24  1  0  0  0
 23 25  1  0  0  0
 24 26  1  0  0  0
  3  4  2  0  0  0
 26 27  2  0  0  0
 27 28  1  0  0  0
 43 47  1  0  0  0
 43 51  1  0  0  0
 28 29  1  0  0  0
 56 48  1  0  0  0
 56 60  1  0  0  0
 29 30  1  0  0  0
 57 60  1  0  0  0
 57 61  1  0  0  0
 30 31  1  0  0  0
 44 49  1  0  0  0
 44 52  1  0  0  0
 31 32  1  0  0  0
 45 46  1  0  0  0
 45 50  1  0  0  0
 32 33  1  0  0  0
 53 54  1  0  0  0
 53 55  1  0  0  0
 33 34  1  0  0  0
 34 35  1  0  0  0
 35 36  1  0  0  0
 58 60  1  0  0  0
 36 37  1  0  0  0
 59 60  1  0  0  0
 59 62  1  0  0  0
 37 38  1  0  0  0
 38 39  1  0  0  0
 39 40  1  0  0  0
  4  6  1  0  0  0
  6  7  1  0  0  0
  7  8  1  0  0  0
  8  9  1  0  0  0
  9 10  1  0  0  0
 10 11  1  0  0  0
 11 12  1  0  0  0
 12 13  1  0  0  0
 13 14  1  0  0  0
 14 15  1  0  0  0
 15 16  1  0  0  0
 16 17  1  0  0  0
 17 18  1  0  0  0
 18 19  1  0  0  0
 19 20  1  0  0  0
 20 21  1  0  0  0
 21 22  1  0  0  0
 46 47  1  0  0  0
 47 48  1  0  0  0
 48 49  1  0  0  0
 49 50  1  0  0  0
 50 54  1  0  0  0
M  CHG 1  58  -1
M  END
> <minimizedAffinity>
-9.21565

> <CNNscore>
0.2113759816

> <CNNaffinity>
6.9220514297

> <CNN_VS>
1.4631553888

> <CNNaffinity_variance>
0.9361913800

$$$$
