/media/chris/experiments/cd1a-new-docking/inputs/ligands/1onq_ligand.pdb


 62 62  0  0  0  0  0  0  0  0999 V2000
  -39.7249   58.9236   64.8633 C   0  0  0  0  0  0  0  0  0  0  0  0
  -40.8802   58.5222   65.6413 N   0  0  0  0  0  0  0  0  0  0  0  0
  -42.5192   59.8216   64.7623 O   0  0  0  0  0  0  0  0  0  0  0  0
  -42.1382   58.9737   65.5457 C   0  0  0  0  0  0  0  0  0  0  0  0
  -40.7208   57.8319   66.3249 H   0  0  0  0  0  0  0  0  0  0  0  0
  -43.1148   58.3464   66.4958 C   0  0  0  0  0  0  0  0  0  0  0  0
  -43.2257   56.8754   66.0946 C   0  0  0  0  0  0  0  0  0  0  0  0
  -44.5015   56.6498   65.2868 C   0  0  0  0  0  0  0  0  0  0  0  0
  -45.7871   57.0989   65.9380 C   0  0  0  0  0  0  0  0  0  0  0  0
  -46.5115   58.0072   64.9499 C   0  0  0  0  0  0  0  0  0  0  0  0
  -46.6044   59.4592   65.4376 C   0  0  0  0  0  0  0  0  0  0  0  0
  -47.9449   59.8175   66.1046 C   0  0  0  0  0  0  0  0  0  0  0  0
  -48.9689   58.6624   66.0532 C   0  0  0  0  0  0  0  0  0  0  0  0
  -50.2692   59.1226   65.3881 C   0  0  0  0  0  0  0  0  0  0  0  0
  -50.6088   58.4185   64.0799 C   0  0  0  0  0  0  0  0  0  0  0  0
  -50.9347   59.4000   62.9639 C   0  0  0  0  0  0  0  0  0  0  0  0
  -49.9795   59.3978   61.7681 C   0  0  0  0  0  0  0  0  0  0  0  0
  -49.3945   57.9988   61.6292 C   0  0  0  0  0  0  0  0  0  0  0  0
  -50.0229   57.0418   60.6270 C   0  0  0  0  0  0  0  0  0  0  0  0
  -48.9879   56.5706   59.5932 C   0  0  0  0  0  0  0  0  0  0  0  0
  -48.0120   57.6645   59.1221 C   0  0  0  0  0  0  0  0  0  0  0  0
  -46.8113   57.1138   58.3564 C   0  0  0  0  0  0  0  0  0  0  0  0
  -37.7483   57.7644   65.2444 O   0  0  0  0  0  0  0  0  0  0  0  0
  -39.0112   57.6038   64.6256 C   0  0  0  0  0  0  0  0  0  0  0  0
  -37.8708   57.9176   66.1944 H   0  0  0  0  0  0  0  0  0  0  0  0
  -38.8886   57.3578   63.1200 C   0  0  0  0  0  0  0  0  0  0  0  0
  -38.2015   58.1705   62.2992 C   0  0  0  0  0  0  0  0  0  0  0  0
  -38.1269   57.8567   60.8061 C   0  0  0  0  0  0  0  0  0  0  0  0
  -37.8917   59.0906   59.9226 C   0  0  0  0  0  0  0  0  0  0  0  0
  -37.0448   58.8536   58.6586 C   0  0  0  0  0  0  0  0  0  0  0  0
  -37.4861   57.5576   57.9368 C   0  0  0  0  0  0  0  0  0  0  0  0
  -36.4318   56.4220   57.9125 C   0  0  0  0  0  0  0  0  0  0  0  0
  -34.9668   56.9167   57.9562 C   0  0  0  0  0  0  0  0  0  0  0  0
  -34.1119   56.2202   59.0371 C   0  0  0  0  0  0  0  0  0  0  0  0
  -34.8076   56.1107   60.3992 C   0  0  0  0  0  0  0  0  0  0  0  0
  -34.0071   56.6019   61.6034 C   0  0  0  0  0  0  0  0  0  0  0  0
  -34.4919   57.9512   62.1692 C   0  0  0  0  0  0  0  0  0  0  0  0
  -33.4021   58.8201   62.8153 C   0  0  0  0  0  0  0  0  0  0  0  0
  -32.0695   58.6707   62.0756 C   0  0  0  0  0  0  0  0  0  0  0  0
  -31.3065   59.9529   61.7936 C   0  0  0  0  0  0  0  0  0  0  0  0
  -38.8865   60.0756   65.4624 C   0  0  0  0  0  0  0  0  0  0  0  0
  -38.2669   60.9854   64.5182 O   0  0  0  0  0  0  0  0  0  0  0  0
  -36.3263   61.4451   62.4688 O   0  0  0  0  0  0  0  0  0  0  0  0
  -35.4722   64.8227   64.7625 O   0  0  0  0  0  0  0  0  0  0  0  0
  -36.8239   62.3647   65.8968 O   0  0  0  0  0  0  0  0  0  0  0  0
  -36.9009   61.5016   64.7363 C   0  0  0  0  0  0  0  0  0  0  0  0
  -36.2844   62.2936   63.5744 C   0  0  0  0  0  0  0  0  0  0  0  0
  -34.8152   62.7050   63.8146 C   0  0  0  0  0  0  0  0  0  0  0  0
  -34.8191   63.5851   65.0340 C   0  0  0  0  0  0  0  0  0  0  0  0
  -35.4898   62.8616   66.1877 C   0  0  0  0  0  0  0  0  0  0  0  0
  -37.2432   61.1758   62.3025 H   0  0  0  0  0  0  0  0  0  0  0  0
  -35.0284   65.2673   64.0235 H   0  0  0  0  0  0  0  0  0  0  0  0
  -36.5448   63.8543   68.0891 O   0  0  0  0  0  0  0  0  0  0  0  0
  -35.3986   63.9103   67.2941 C   0  0  0  0  0  0  0  0  0  0  0  0
  -36.4845   64.5212   68.7908 H   0  0  0  0  0  0  0  0  0  0  0  0
  -34.1928   63.4778   62.7632 O   0  0  0  0  0  0  0  0  0  0  0  0
  -31.8354   62.8792   63.6587 O   0  0  0  0  0  0  0  0  0  0  0  0
  -32.3335   65.1716   63.0373 O   0  0  0  0  0  0  0  0  0  0  0  0
  -31.9737   63.4948   61.3246 O   0  0  0  0  0  0  0  0  0  0  0  0
  -32.5518   63.7446   62.6755 S   0  0  0  0  0  0  0  0  0  0  0  0
  -32.1988   63.0283   64.5457 H   0  0  0  0  0  0  0  0  0  0  0  0
  -32.1116   62.5662   61.0806 H   0  0  0  0  0  0  0  0  0  0  0  0
  2  1  1  0  0  0
  2  4  1  0  0  0
  2  5  1  0  0  0
 41 42  1  0  0  0
 41  1  1  0  0  0
 42 46  1  0  0  0
  1 24  1  0  0  0
 23 24  1  0  0  0
 23 25  1  0  0  0
 24 26  1  0  0  0
  3  4  2  0  0  0
 26 27  2  0  0  0
 27 28  1  0  0  0
 43 47  1  0  0  0
 43 51  1  0  0  0
 28 29  1  0  0  0
 56 48  1  0  0  0
 56 60  1  0  0  0
 29 30  1  0  0  0
 57 60  1  0  0  0
 57 61  1  0  0  0
 30 31  1  0  0  0
 44 49  1  0  0  0
 44 52  1  0  0  0
 31 32  1  0  0  0
 45 46  1  0  0  0
 45 50  1  0  0  0
 32 33  1  0  0  0
 53 54  1  0  0  0
 53 55  1  0  0  0
 33 34  1  0  0  0
 34 35  1  0  0  0
 35 36  1  0  0  0
 58 60  1  0  0  0
 36 37  1  0  0  0
 59 60  1  0  0  0
 59 62  1  0  0  0
 37 38  1  0  0  0
 38 39  1  0  0  0
 39 40  1  0  0  0
  4  6  1  0  0  0
  6  7  1  0  0  0
  7  8  1  0  0  0
  8  9  1  0  0  0
  9 10  1  0  0  0
 10 11  1  0  0  0
 11 12  1  0  0  0
 12 13  1  0  0  0
 13 14  1  0  0  0
 14 15  1  0  0  0
 15 16  1  0  0  0
 16 17  1  0  0  0
 17 18  1  0  0  0
 18 19  1  0  0  0
 19 20  1  0  0  0
 20 21  1  0  0  0
 21 22  1  0  0  0
 46 47  1  0  0  0
 47 48  1  0  0  0
 48 49  1  0  0  0
 49 50  1  0  0  0
 50 54  1  0  0  0
M  CHG 1  58  -1
M  END
> <minimizedAffinity>
-9.97341

> <CNNscore>
0.3210306168

> <CNNaffinity>
7.0652031898

> <CNN_VS>
2.2681465149

> <CNNaffinity_variance>
1.5202049017

$$$$
/media/chris/experiments/cd1a-new-docking/inputs/ligands/1onq_ligand.pdb


 62 62  0  0  0  0  0  0  0  0999 V2000
  -40.1668   58.8437   64.7105 C   0  0  0  0  0  0  0  0  0  0  0  0
  -41.1648   58.2173   65.5547 N   0  0  0  0  0  0  0  0  0  0  0  0
  -43.0623   59.2873   64.9207 O   0  0  0  0  0  0  0  0  0  0  0  0
  -42.4805   58.4664   65.6031 C   0  0  0  0  0  0  0  0  0  0  0  0
  -40.8349   57.5223   66.1690 H   0  0  0  0  0  0  0  0  0  0  0  0
  -43.2512   57.6358   66.5860 C   0  0  0  0  0  0  0  0  0  0  0  0
  -44.3772   56.9660   65.7983 C   0  0  0  0  0  0  0  0  0  0  0  0
  -45.7186   57.2323   66.4772 C   0  0  0  0  0  0  0  0  0  0  0  0
  -46.0303   58.6764   66.7867 C   0  0  0  0  0  0  0  0  0  0  0  0
  -47.4952   58.9169   66.4369 C   0  0  0  0  0  0  0  0  0  0  0  0
  -48.1455   57.7108   65.7460 C   0  0  0  0  0  0  0  0  0  0  0  0
  -49.6849   57.7301   65.7571 C   0  0  0  0  0  0  0  0  0  0  0  0
  -50.2689   59.1510   65.5979 C   0  0  0  0  0  0  0  0  0  0  0  0
  -50.4769   59.4868   64.1184 C   0  0  0  0  0  0  0  0  0  0  0  0
  -50.7584   58.2895   63.2187 C   0  0  0  0  0  0  0  0  0  0  0  0
  -49.6624   58.0736   62.1856 C   0  0  0  0  0  0  0  0  0  0  0  0
  -50.1191   57.5494   60.8222 C   0  0  0  0  0  0  0  0  0  0  0  0
  -49.0845   57.9607   59.7835 C   0  0  0  0  0  0  0  0  0  0  0  0
  -48.1107   56.9110   59.2687 C   0  0  0  0  0  0  0  0  0  0  0  0
  -47.2492   57.4731   58.1268 C   0  0  0  0  0  0  0  0  0  0  0  0
  -47.3018   56.6537   56.8242 C   0  0  0  0  0  0  0  0  0  0  0  0
  -47.5664   55.1678   57.0555 C   0  0  0  0  0  0  0  0  0  0  0  0
  -38.1009   57.8956   65.1888 O   0  0  0  0  0  0  0  0  0  0  0  0
  -39.2414   57.6861   64.3771 C   0  0  0  0  0  0  0  0  0  0  0  0
  -38.3591   57.8653   66.1234 H   0  0  0  0  0  0  0  0  0  0  0  0
  -38.9019   57.7220   62.8852 C   0  0  0  0  0  0  0  0  0  0  0  0
  -37.9588   56.9417   62.3303 C   0  0  0  0  0  0  0  0  0  0  0  0
  -37.6779   57.0374   60.8319 C   0  0  0  0  0  0  0  0  0  0  0  0
  -37.9939   58.4130   60.2268 C   0  0  0  0  0  0  0  0  0  0  0  0
  -37.2472   58.7557   58.9244 C   0  0  0  0  0  0  0  0  0  0  0  0
  -37.4490   57.6440   57.8667 C   0  0  0  0  0  0  0  0  0  0  0  0
  -36.2308   56.7119   57.6458 C   0  0  0  0  0  0  0  0  0  0  0  0
  -34.8729   57.3404   58.0381 C   0  0  0  0  0  0  0  0  0  0  0  0
  -33.8727   56.3266   58.6346 C   0  0  0  0  0  0  0  0  0  0  0  0
  -34.4508   55.4911   59.7830 C   0  0  0  0  0  0  0  0  0  0  0  0
  -34.3923   56.1259   61.1708 C   0  0  0  0  0  0  0  0  0  0  0  0
  -32.9863   56.6072   61.5801 C   0  0  0  0  0  0  0  0  0  0  0  0
  -32.9544   57.8779   62.4428 C   0  0  0  0  0  0  0  0  0  0  0  0
  -34.3716   58.3764   62.7400 C   0  0  0  0  0  0  0  0  0  0  0  0
  -34.7772   58.4253   64.2025 C   0  0  0  0  0  0  0  0  0  0  0  0
  -39.5129   60.1198   65.2875 C   0  0  0  0  0  0  0  0  0  0  0  0
  -38.7612   60.9403   64.3574 O   0  0  0  0  0  0  0  0  0  0  0  0
  -36.6820   61.1309   62.4034 O   0  0  0  0  0  0  0  0  0  0  0  0
  -35.6078   64.4862   64.6366 O   0  0  0  0  0  0  0  0  0  0  0  0
  -37.2579   62.2171   65.7699 O   0  0  0  0  0  0  0  0  0  0  0  0
  -37.3628   61.3252   64.6336 C   0  0  0  0  0  0  0  0  0  0  0  0
  -36.6107   62.0099   63.4834 C   0  0  0  0  0  0  0  0  0  0  0  0
  -35.1214   62.2811   63.7904 C   0  0  0  0  0  0  0  0  0  0  0  0
  -35.0982   63.2001   64.9806 C   0  0  0  0  0  0  0  0  0  0  0  0
  -35.8967   62.5886   66.1175 C   0  0  0  0  0  0  0  0  0  0  0  0
  -37.6119   60.9486   62.1958 H   0  0  0  0  0  0  0  0  0  0  0  0
  -35.0840   64.8577   63.9096 H   0  0  0  0  0  0  0  0  0  0  0  0
  -34.4061   63.9625   67.3840 O   0  0  0  0  0  0  0  0  0  0  0  0
  -35.7562   63.6617   67.1949 C   0  0  0  0  0  0  0  0  0  0  0  0
  -34.3194   64.6441   68.0687 H   0  0  0  0  0  0  0  0  0  0  0  0
  -34.3711   62.9500   62.7514 O   0  0  0  0  0  0  0  0  0  0  0  0
  -32.4397   61.2957   62.2512 O   0  0  0  0  0  0  0  0  0  0  0  0
  -32.0728   63.1335   63.7930 O   0  0  0  0  0  0  0  0  0  0  0  0
  -32.1731   63.5456   61.4067 O   0  0  0  0  0  0  0  0  0  0  0  0
  -32.7364   62.7336   62.5224 S   0  0  0  0  0  0  0  0  0  0  0  0
  -32.7994   60.7506   62.9683 H   0  0  0  0  0  0  0  0  0  0  0  0
  -32.6004   63.2912   60.5738 H   0  0  0  0  0  0  0  0  0  0  0  0
  2  1  1  0  0  0
  2  4  1  0  0  0
  2  5  1  0  0  0
 41 42  1  0  0  0
 41  1  1  0  0  0
 42 46  1  0  0  0
  1 24  1  0  0  0
 23 24  1  0  0  0
 23 25  1  0  0  0
 24 26  1  0  0  0
  3  4  2  0  0  0
 26 27  2  0  0  0
 27 28  1  0  0  0
 43 47  1  0  0  0
 43 51  1  0  0  0
 28 29  1  0  0  0
 56 48  1  0  0  0
 56 60  1  0  0  0
 29 30  1  0  0  0
 57 60  1  0  0  0
 57 61  1  0  0  0
 30 31  1  0  0  0
 44 49  1  0  0  0
 44 52  1  0  0  0
 31 32  1  0  0  0
 45 46  1  0  0  0
 45 50  1  0  0  0
 32 33  1  0  0  0
 53 54  1  0  0  0
 53 55  1  0  0  0
 33 34  1  0  0  0
 34 35  1  0  0  0
 35 36  1  0  0  0
 58 60  1  0  0  0
 36 37  1  0  0  0
 59 60  1  0  0  0
 59 62  1  0  0  0
 37 38  1  0  0  0
 38 39  1  0  0  0
 39 40  1  0  0  0
  4  6  1  0  0  0
  6  7  1  0  0  0
  7  8  1  0  0  0
  8  9  1  0  0  0
  9 10  1  0  0  0
 10 11  1  0  0  0
 11 12  1  0  0  0
 12 13  1  0  0  0
 13 14  1  0  0  0
 14 15  1  0  0  0
 15 16  1  0  0  0
 16 17  1  0  0  0
 17 18  1  0  0  0
 18 19  1  0  0  0
 19 20  1  0  0  0
 20 21  1  0  0  0
 21 22  1  0  0  0
 46 47  1  0  0  0
 47 48  1  0  0  0
 48 49  1  0  0  0
 49 50  1  0  0  0
 50 54  1  0  0  0
M  CHG 1  58  -1
M  END
> <minimizedAffinity>
-10.30320

> <CNNscore>
0.3023829758

> <CNNaffinity>
7.0403275490

> <CNN_VS>
2.1288752556

> <CNNaffinity_variance>
1.2508862019

$$$$
/media/chris/experiments/cd1a-new-docking/inputs/ligands/1onq_ligand.pdb


 62 62  0  0  0  0  0  0  0  0999 V2000
  -39.6224   59.9538   64.3656 C   0  0  0  0  0  0  0  0  0  0  0  0
  -39.9730   59.8137   62.9662 N   0  0  0  0  0  0  0  0  0  0  0  0
  -38.2195   60.8179   61.9346 O   0  0  0  0  0  0  0  0  0  0  0  0
  -39.2846   60.2331   61.8958 C   0  0  0  0  0  0  0  0  0  0  0  0
  -40.8227   59.3532   62.7788 H   0  0  0  0  0  0  0  0  0  0  0  0
  -39.9163   59.9255   60.5706 C   0  0  0  0  0  0  0  0  0  0  0  0
  -38.8037   60.0244   59.5269 C   0  0  0  0  0  0  0  0  0  0  0  0
  -38.1101   58.6728   59.3743 C   0  0  0  0  0  0  0  0  0  0  0  0
  -36.9877   58.6132   58.3668 C   0  0  0  0  0  0  0  0  0  0  0  0
  -37.1324   57.3074   57.5923 C   0  0  0  0  0  0  0  0  0  0  0  0
  -36.6189   56.0926   58.3768 C   0  0  0  0  0  0  0  0  0  0  0  0
  -35.1562   56.2126   58.8420 C   0  0  0  0  0  0  0  0  0  0  0  0
  -34.9126   55.5755   60.2278 C   0  0  0  0  0  0  0  0  0  0  0  0
  -33.6596   56.1658   60.8808 C   0  0  0  0  0  0  0  0  0  0  0  0
  -33.6262   57.6875   60.9537 C   0  0  0  0  0  0  0  0  0  0  0  0
  -32.5957   58.1951   61.9514 C   0  0  0  0  0  0  0  0  0  0  0  0
  -32.8743   57.8799   63.4229 C   0  0  0  0  0  0  0  0  0  0  0  0
  -34.3186   58.2559   63.7247 C   0  0  0  0  0  0  0  0  0  0  0  0
  -35.1544   57.3136   64.5784 C   0  0  0  0  0  0  0  0  0  0  0  0
  -36.6303   57.3474   64.1510 C   0  0  0  0  0  0  0  0  0  0  0  0
  -36.8545   57.6003   62.6488 C   0  0  0  0  0  0  0  0  0  0  0  0
  -38.0636   56.8575   62.0851 C   0  0  0  0  0  0  0  0  0  0  0  0
  -40.6648   60.8028   66.2599 O   0  0  0  0  0  0  0  0  0  0  0  0
  -40.9718   60.1862   65.0233 C   0  0  0  0  0  0  0  0  0  0  0  0
  -40.2166   61.6476   66.0974 H   0  0  0  0  0  0  0  0  0  0  0  0
  -41.6831   58.8438   65.2092 C   0  0  0  0  0  0  0  0  0  0  0  0
  -42.3028   58.4956   66.3498 C   0  0  0  0  0  0  0  0  0  0  0  0
  -42.9900   57.1357   66.4571 C   0  0  0  0  0  0  0  0  0  0  0  0
  -44.4662   57.1500   66.0340 C   0  0  0  0  0  0  0  0  0  0  0  0
  -45.2069   58.4834   66.2444 C   0  0  0  0  0  0  0  0  0  0  0  0
  -46.5704   58.2508   66.9389 C   0  0  0  0  0  0  0  0  0  0  0  0
  -47.5073   57.2370   66.2345 C   0  0  0  0  0  0  0  0  0  0  0  0
  -48.8954   57.8097   65.8631 C   0  0  0  0  0  0  0  0  0  0  0  0
  -49.0634   58.0919   64.3544 C   0  0  0  0  0  0  0  0  0  0  0  0
  -50.4852   58.5074   63.9582 C   0  0  0  0  0  0  0  0  0  0  0  0
  -50.7213   58.7589   62.4705 C   0  0  0  0  0  0  0  0  0  0  0  0
  -49.4842   58.5005   61.5880 C   0  0  0  0  0  0  0  0  0  0  0  0
  -49.7873   58.0423   60.1534 C   0  0  0  0  0  0  0  0  0  0  0  0
  -48.7410   57.0365   59.6648 C   0  0  0  0  0  0  0  0  0  0  0  0
  -48.6715   56.8095   58.1650 C   0  0  0  0  0  0  0  0  0  0  0  0
  -38.5072   60.9788   64.6731 C   0  0  0  0  0  0  0  0  0  0  0  0
  -37.2171   60.4379   65.0558 O   0  0  0  0  0  0  0  0  0  0  0  0
  -35.4530   61.1503   62.9209 O   0  0  0  0  0  0  0  0  0  0  0  0
  -35.5022   64.8649   64.8180 O   0  0  0  0  0  0  0  0  0  0  0  0
  -36.1811   62.2830   66.2423 O   0  0  0  0  0  0  0  0  0  0  0  0
  -36.0302   61.3068   65.1831 C   0  0  0  0  0  0  0  0  0  0  0  0
  -35.6339   62.0975   63.9281 C   0  0  0  0  0  0  0  0  0  0  0  0
  -34.3204   62.8946   64.0859 C   0  0  0  0  0  0  0  0  0  0  0  0
  -34.5541   63.8728   65.2038 C   0  0  0  0  0  0  0  0  0  0  0  0
  -35.0202   63.1332   66.4448 C   0  0  0  0  0  0  0  0  0  0  0  0
  -36.2695   60.6391   62.8074 H   0  0  0  0  0  0  0  0  0  0  0  0
  -35.1850   65.3242   64.0247 H   0  0  0  0  0  0  0  0  0  0  0  0
  -33.9636   64.8491   67.7304 O   0  0  0  0  0  0  0  0  0  0  0  0
  -35.2049   64.2853   67.4300 C   0  0  0  0  0  0  0  0  0  0  0  0
  -34.0836   65.5804   68.3562 H   0  0  0  0  0  0  0  0  0  0  0  0
  -33.9139   63.6804   62.9426 O   0  0  0  0  0  0  0  0  0  0  0  0
  -31.9503   64.3632   61.3950 O   0  0  0  0  0  0  0  0  0  0  0  0
  -31.4859   63.5896   63.6478 O   0  0  0  0  0  0  0  0  0  0  0  0
  -32.3842   65.8109   63.2824 O   0  0  0  0  0  0  0  0  0  0  0  0
  -32.4166   64.3967   62.8128 S   0  0  0  0  0  0  0  0  0  0  0  0
  -31.9646   63.4489   61.0714 H   0  0  0  0  0  0  0  0  0  0  0  0
  -32.9886   66.3445   62.7431 H   0  0  0  0  0  0  0  0  0  0  0  0
  2  1  1  0  0  0
  2  4  1  0  0  0
  2  5  1  0  0  0
 41 42  1  0  0  0
 41  1  1  0  0  0
 42 46  1  0  0  0
  1 24  1  0  0  0
 23 24  1  0  0  0
 23 25  1  0  0  0
 24 26  1  0  0  0
  3  4  2  0  0  0
 26 27  2  0  0  0
 27 28  1  0  0  0
 43 47  1  0  0  0
 43 51  1  0  0  0
 28 29  1  0  0  0
 56 48  1  0  0  0
 56 60  1  0  0  0
 29 30  1  0  0  0
 57 60  1  0  0  0
 57 61  1  0  0  0
 30 31  1  0  0  0
 44 49  1  0  0  0
 44 52  1  0  0  0
 31 32  1  0  0  0
 45 46  1  0  0  0
 45 50  1  0  0  0
 32 33  1  0  0  0
 53 54  1  0  0  0
 53 55  1  0  0  0
 33 34  1  0  0  0
 34 35  1  0  0  0
 35 36  1  0  0  0
 58 60  1  0  0  0
 36 37  1  0  0  0
 59 60  1  0  0  0
 59 62  1  0  0  0
 37 38  1  0  0  0
 38 39  1  0  0  0
 39 40  1  0  0  0
  4  6  1  0  0  0
  6  7  1  0  0  0
  7  8  1  0  0  0
  8  9  1  0  0  0
  9 10  1  0  0  0
 10 11  1  0  0  0
 11 12  1  0  0  0
 12 13  1  0  0  0
 13 14  1  0  0  0
 14 15  1  0  0  0
 15 16  1  0  0  0
 16 17  1  0  0  0
 17 18  1  0  0  0
 18 19  1  0  0  0
 19 20  1  0  0  0
 20 21  1  0  0  0
 21 22  1  0  0  0
 46 47  1  0  0  0
 47 48  1  0  0  0
 48 49  1  0  0  0
 49 50  1  0  0  0
 50 54  1  0  0  0
M  CHG 1  58  -1
M  END
> <minimizedAffinity>
-9.12823

> <CNNscore>
0.2546775937

> <CNNaffinity>
7.2126479149

> <CNN_VS>
1.8368997574

> <CNNaffinity_variance>
0.9499408603

$$$$
/media/chris/experiments/cd1a-new-docking/inputs/ligands/1onq_ligand.pdb


 62 62  0  0  0  0  0  0  0  0999 V2000
  -40.0163   59.2227   65.0110 C   0  0  0  0  0  0  0  0  0  0  0  0
  -39.4219   58.4975   63.9057 N   0  0  0  0  0  0  0  0  0  0  0  0
  -37.7396   57.3695   64.9280 O   0  0  0  0  0  0  0  0  0  0  0  0
  -38.3757   57.6607   63.9337 C   0  0  0  0  0  0  0  0  0  0  0  0
  -39.8386   58.6371   63.0248 H   0  0  0  0  0  0  0  0  0  0  0  0
  -38.0063   57.0570   62.6112 C   0  0  0  0  0  0  0  0  0  0  0  0
  -38.5892   57.9759   61.5376 C   0  0  0  0  0  0  0  0  0  0  0  0
  -37.4669   58.7420   60.8413 C   0  0  0  0  0  0  0  0  0  0  0  0
  -37.8421   59.4522   59.5634 C   0  0  0  0  0  0  0  0  0  0  0  0
  -37.7789   58.4306   58.4327 C   0  0  0  0  0  0  0  0  0  0  0  0
  -36.3964   58.3645   57.7700 C   0  0  0  0  0  0  0  0  0  0  0  0
  -35.7463   56.9692   57.8014 C   0  0  0  0  0  0  0  0  0  0  0  0
  -36.6844   55.8823   58.3707 C   0  0  0  0  0  0  0  0  0  0  0  0
  -36.1407   55.3393   59.6952 C   0  0  0  0  0  0  0  0  0  0  0  0
  -34.6611   55.6070   59.9432 C   0  0  0  0  0  0  0  0  0  0  0  0
  -34.4196   56.3468   61.2507 C   0  0  0  0  0  0  0  0  0  0  0  0
  -32.9664   56.4124   61.7261 C   0  0  0  0  0  0  0  0  0  0  0  0
  -32.4920   57.8546   61.6083 C   0  0  0  0  0  0  0  0  0  0  0  0
  -32.4938   58.7270   62.8549 C   0  0  0  0  0  0  0  0  0  0  0  0
  -33.8109   59.5096   62.9766 C   0  0  0  0  0  0  0  0  0  0  0  0
  -34.7565   59.0008   64.0802 C   0  0  0  0  0  0  0  0  0  0  0  0
  -34.1575   57.8717   64.9155 C   0  0  0  0  0  0  0  0  0  0  0  0
  -41.3792   60.9763   64.3300 O   0  0  0  0  0  0  0  0  0  0  0  0
  -41.3956   59.5684   64.4764 C   0  0  0  0  0  0  0  0  0  0  0  0
  -40.6946   61.2268   63.6900 H   0  0  0  0  0  0  0  0  0  0  0  0
  -42.4576   59.1050   65.4763 C   0  0  0  0  0  0  0  0  0  0  0  0
  -43.7732   59.1105   65.2018 C   0  0  0  0  0  0  0  0  0  0  0  0
  -44.7715   58.6326   66.2544 C   0  0  0  0  0  0  0  0  0  0  0  0
  -46.1860   59.2026   66.0737 C   0  0  0  0  0  0  0  0  0  0  0  0
  -47.2286   58.2278   65.4959 C   0  0  0  0  0  0  0  0  0  0  0  0
  -48.2800   58.9858   64.6502 C   0  0  0  0  0  0  0  0  0  0  0  0
  -49.6791   58.3225   64.5840 C   0  0  0  0  0  0  0  0  0  0  0  0
  -50.7784   59.2222   63.9717 C   0  0  0  0  0  0  0  0  0  0  0  0
  -51.1772   58.8192   62.5356 C   0  0  0  0  0  0  0  0  0  0  0  0
  -50.0905   59.1000   61.4908 C   0  0  0  0  0  0  0  0  0  0  0  0
  -49.3793   57.8767   60.9163 C   0  0  0  0  0  0  0  0  0  0  0  0
  -49.8594   57.4783   59.5067 C   0  0  0  0  0  0  0  0  0  0  0  0
  -48.7921   56.8340   58.6091 C   0  0  0  0  0  0  0  0  0  0  0  0
  -47.3839   57.2503   59.0439 C   0  0  0  0  0  0  0  0  0  0  0  0
  -46.5333   57.9488   57.9978 C   0  0  0  0  0  0  0  0  0  0  0  0
  -39.1710   60.3876   65.5744 C   0  0  0  0  0  0  0  0  0  0  0  0
  -38.4998   61.2302   64.6033 O   0  0  0  0  0  0  0  0  0  0  0  0
  -36.5624   61.6590   62.5443 O   0  0  0  0  0  0  0  0  0  0  0  0
  -35.5621   64.9557   64.8960 O   0  0  0  0  0  0  0  0  0  0  0  0
  -36.9939   62.5270   65.9947 O   0  0  0  0  0  0  0  0  0  0  0  0
  -37.1136   61.6909   64.8181 C   0  0  0  0  0  0  0  0  0  0  0  0
  -36.4787   62.4829   63.6661 C   0  0  0  0  0  0  0  0  0  0  0  0
  -34.9930   62.8347   63.8998 C   0  0  0  0  0  0  0  0  0  0  0  0
  -34.9530   63.6895   65.1364 C   0  0  0  0  0  0  0  0  0  0  0  0
  -35.6395   62.9682   66.2821 C   0  0  0  0  0  0  0  0  0  0  0  0
  -37.4901   61.4273   62.3818 H   0  0  0  0  0  0  0  0  0  0  0  0
  -35.1088   65.3984   64.1615 H   0  0  0  0  0  0  0  0  0  0  0  0
  -34.1726   64.4170   67.4915 O   0  0  0  0  0  0  0  0  0  0  0  0
  -35.4992   63.9902   67.4081 C   0  0  0  0  0  0  0  0  0  0  0  0
  -34.0861   65.0658   68.2073 H   0  0  0  0  0  0  0  0  0  0  0  0
  -34.3520   63.6049   62.8578 O   0  0  0  0  0  0  0  0  0  0  0  0
  -31.9658   62.8457   63.5263 O   0  0  0  0  0  0  0  0  0  0  0  0
  -32.5352   65.2037   63.5955 O   0  0  0  0  0  0  0  0  0  0  0  0
  -32.1567   64.1028   61.4697 O   0  0  0  0  0  0  0  0  0  0  0  0
  -32.7204   63.9354   62.8392 S   0  0  0  0  0  0  0  0  0  0  0  0
  -32.3194   62.7220   64.4210 H   0  0  0  0  0  0  0  0  0  0  0  0
  -32.2731   63.2801   60.9693 H   0  0  0  0  0  0  0  0  0  0  0  0
  2  1  1  0  0  0
  2  4  1  0  0  0
  2  5  1  0  0  0
 41 42  1  0  0  0
 41  1  1  0  0  0
 42 46  1  0  0  0
  1 24  1  0  0  0
 23 24  1  0  0  0
 23 25  1  0  0  0
 24 26  1  0  0  0
  3  4  2  0  0  0
 26 27  2  0  0  0
 27 28  1  0  0  0
 43 47  1  0  0  0
 43 51  1  0  0  0
 28 29  1  0  0  0
 56 48  1  0  0  0
 56 60  1  0  0  0
 29 30  1  0  0  0
 57 60  1  0  0  0
 57 61  1  0  0  0
 30 31  1  0  0  0
 44 49  1  0  0  0
 44 52  1  0  0  0
 31 32  1  0  0  0
 45 46  1  0  0  0
 45 50  1  0  0  0
 32 33  1  0  0  0
 53 54  1  0  0  0
 53 55  1  0  0  0
 33 34  1  0  0  0
 34 35  1  0  0  0
 35 36  1  0  0  0
 58 60  1  0  0  0
 36 37  1  0  0  0
 59 60  1  0  0  0
 59 62  1  0  0  0
 37 38  1  0  0  0
 38 39  1  0  0  0
 39 40  1  0  0  0
  4  6  1  0  0  0
  6  7  1  0  0  0
  7  8  1  0  0  0
  8  9  1  0  0  0
  9 10  1  0  0  0
 10 11  1  0  0  0
 11 12  1  0  0  0
 12 13  1  0  0  0
 13 14  1  0  0  0
 14 15  1  0  0  0
 15 16  1  0  0  0
 16 17  1  0  0  0
 17 18  1  0  0  0
 18 19  1  0  0  0
 19 20  1  0  0  0
 20 21  1  0  0  0
 21 22  1  0  0  0
 46 47  1  0  0  0
 47 48  1  0  0  0
 48 49  1  0  0  0
 49 50  1  0  0  0
 50 54  1  0  0  0
M  CHG 1  58  -1
M  END
> <minimizedAffinity>
-9.53493

> <CNNscore>
0.2465505749

> <CNNaffinity>
7.1063575745

> <CNN_VS>
1.7520765066

> <CNNaffinity_variance>
1.3426691294

$$$$
/media/chris/experiments/cd1a-new-docking/inputs/ligands/1onq_ligand.pdb


 62 62  0  0  0  0  0  0  0  0999 V2000
  -37.3712   59.3386   61.9870 C   0  0  0  0  0  0  0  0  0  0  0  0
  -38.6408   59.6903   61.3825 N   0  0  0  0  0  0  0  0  0  0  0  0
  -38.0958   59.8374   59.1850 O   0  0  0  0  0  0  0  0  0  0  0  0
  -38.9078   59.9059   60.0872 C   0  0  0  0  0  0  0  0  0  0  0  0
  -39.4016   59.7821   62.0004 H   0  0  0  0  0  0  0  0  0  0  0  0
  -40.3354   60.2474   59.7785 C   0  0  0  0  0  0  0  0  0  0  0  0
  -40.6431   59.6306   58.4140 C   0  0  0  0  0  0  0  0  0  0  0  0
  -42.1504   59.4490   58.2517 C   0  0  0  0  0  0  0  0  0  0  0  0
  -42.6259   59.0489   56.8761 C   0  0  0  0  0  0  0  0  0  0  0  0
  -43.9259   58.2697   57.0464 C   0  0  0  0  0  0  0  0  0  0  0  0
  -44.4121   58.2384   58.5016 C   0  0  0  0  0  0  0  0  0  0  0  0
  -45.8150   57.6319   58.6866 C   0  0  0  0  0  0  0  0  0  0  0  0
  -46.6043   57.5296   57.3629 C   0  0  0  0  0  0  0  0  0  0  0  0
  -47.4296   56.2403   57.3244 C   0  0  0  0  0  0  0  0  0  0  0  0
  -47.4835   55.4696   58.6379 C   0  0  0  0  0  0  0  0  0  0  0  0
  -48.8069   55.6591   59.3644 C   0  0  0  0  0  0  0  0  0  0  0  0
  -49.4166   57.0610   59.2935 C   0  0  0  0  0  0  0  0  0  0  0  0
  -50.4501   57.1870   60.4047 C   0  0  0  0  0  0  0  0  0  0  0  0
  -49.9789   57.5755   61.7983 C   0  0  0  0  0  0  0  0  0  0  0  0
  -51.1111   58.2420   62.5958 C   0  0  0  0  0  0  0  0  0  0  0  0
  -50.8639   59.7222   62.9404 C   0  0  0  0  0  0  0  0  0  0  0  0
  -49.5421   60.2570   62.3942 C   0  0  0  0  0  0  0  0  0  0  0  0
  -38.0500   57.1194   61.8852 O   0  0  0  0  0  0  0  0  0  0  0  0
  -37.7298   58.1255   62.8280 C   0  0  0  0  0  0  0  0  0  0  0  0
  -37.2732   56.9331   61.3349 H   0  0  0  0  0  0  0  0  0  0  0  0
  -38.9168   58.4680   63.7315 C   0  0  0  0  0  0  0  0  0  0  0  0
  -39.5634   57.5499   64.4699 C   0  0  0  0  0  0  0  0  0  0  0  0
  -40.7409   57.9715   65.3467 C   0  0  0  0  0  0  0  0  0  0  0  0
  -40.8478   59.4891   65.5564 C   0  0  0  0  0  0  0  0  0  0  0  0
  -41.8367   59.9434   66.6458 C   0  0  0  0  0  0  0  0  0  0  0  0
  -42.7706   58.7807   67.0594 C   0  0  0  0  0  0  0  0  0  0  0  0
  -44.2380   58.9070   66.5773 C   0  0  0  0  0  0  0  0  0  0  0  0
  -44.4964   58.3138   65.1722 C   0  0  0  0  0  0  0  0  0  0  0  0
  -45.1236   56.9032   65.2033 C   0  0  0  0  0  0  0  0  0  0  0  0
  -46.0916   56.6832   66.3720 C   0  0  0  0  0  0  0  0  0  0  0  0
  -47.5161   56.2803   65.9971 C   0  0  0  0  0  0  0  0  0  0  0  0
  -48.2546   57.3220   65.1336 C   0  0  0  0  0  0  0  0  0  0  0  0
  -49.2260   58.2351   65.8969 C   0  0  0  0  0  0  0  0  0  0  0  0
  -48.5362   59.5319   66.3301 C   0  0  0  0  0  0  0  0  0  0  0  0
  -47.5466   60.1313   65.3466 C   0  0  0  0  0  0  0  0  0  0  0  0
  -36.6315   60.4926   62.7011 C   0  0  0  0  0  0  0  0  0  0  0  0
  -35.7905   60.1265   63.8245 O   0  0  0  0  0  0  0  0  0  0  0  0
  -33.2412   60.9955   62.8637 O   0  0  0  0  0  0  0  0  0  0  0  0
  -34.5866   64.7093   64.2043 O   0  0  0  0  0  0  0  0  0  0  0  0
  -35.6849   62.0893   65.2463 O   0  0  0  0  0  0  0  0  0  0  0  0
  -34.9223   61.1204   64.4865 C   0  0  0  0  0  0  0  0  0  0  0  0
  -33.9997   61.9316   63.5655 C   0  0  0  0  0  0  0  0  0  0  0  0
  -33.0337   62.8683   64.3238 C   0  0  0  0  0  0  0  0  0  0  0  0
  -33.8974   63.8312   65.0909 C   0  0  0  0  0  0  0  0  0  0  0  0
  -34.8764   63.0630   65.9603 C   0  0  0  0  0  0  0  0  0  0  0  0
  -33.8323   60.3973   62.3804 H   0  0  0  0  0  0  0  0  0  0  0  0
  -33.9434   65.1890   63.6594 H   0  0  0  0  0  0  0  0  0  0  0  0
  -36.5353   63.6801   67.5667 O   0  0  0  0  0  0  0  0  0  0  0  0
  -35.6441   64.2021   66.6274 C   0  0  0  0  0  0  0  0  0  0  0  0
  -37.0217   64.4054   67.9889 H   0  0  0  0  0  0  0  0  0  0  0  0
  -32.1602   63.6774   63.5039 O   0  0  0  0  0  0  0  0  0  0  0  0
  -31.6417   64.9273   61.2935 O   0  0  0  0  0  0  0  0  0  0  0  0
  -33.6117   63.5176   61.4379 O   0  0  0  0  0  0  0  0  0  0  0  0
  -31.4108   62.5209   61.2466 O   0  0  0  0  0  0  0  0  0  0  0  0
  -32.1847   63.6483   61.8394 S   0  0  0  0  0  0  0  0  0  0  0  0
  -32.1341   65.6740   61.6688 H   0  0  0  0  0  0  0  0  0  0  0  0
  -30.4786   62.5983   61.5035 H   0  0  0  0  0  0  0  0  0  0  0  0
  2  1  1  0  0  0
  2  4  1  0  0  0
  2  5  1  0  0  0
 41 42  1  0  0  0
 41  1  1  0  0  0
 42 46  1  0  0  0
  1 24  1  0  0  0
 23 24  1  0  0  0
 23 25  1  0  0  0
 24 26  1  0  0  0
  3  4  2  0  0  0
 26 27  2  0  0  0
 27 28  1  0  0  0
 43 47  1  0  0  0
 43 51  1  0  0  0
 28 29  1  0  0  0
 56 48  1  0  0  0
 56 60  1  0  0  0
 29 30  1  0  0  0
 57 60  1  0  0  0
 57 61  1  0  0  0
 30 31  1  0  0  0
 44 49  1  0  0  0
 44 52  1  0  0  0
 31 32  1  0  0  0
 45 46  1  0  0  0
 45 50  1  0  0  0
 32 33  1  0  0  0
 53 54  1  0  0  0
 53 55  1  0  0  0
 33 34  1  0  0  0
 34 35  1  0  0  0
 35 36  1  0  0  0
 58 60  1  0  0  0
 36 37  1  0  0  0
 59 60  1  0  0  0
 59 62  1  0  0  0
 37 38  1  0  0  0
 38 39  1  0  0  0
 39 40  1  0  0  0
  4  6  1  0  0  0
  6  7  1  0  0  0
  7  8  1  0  0  0
  8  9  1  0  0  0
  9 10  1  0  0  0
 10 11  1  0  0  0
 11 12  1  0  0  0
 12 13  1  0  0  0
 13 14  1  0  0  0
 14 15  1  0  0  0
 15 16  1  0  0  0
 16 17  1  0  0  0
 17 18  1  0  0  0
 18 19  1  0  0  0
 19 20  1  0  0  0
 20 21  1  0  0  0
 21 22  1  0  0  0
 46 47  1  0  0  0
 47 48  1  0  0  0
 48 49  1  0  0  0
 49 50  1  0  0  0
 50 54  1  0  0  0
M  CHG 1  58  -1
M  END
> <minimizedAffinity>
-9.41732

> <CNNscore>
0.2237485349

> <CNNaffinity>
6.8046493530

> <CNN_VS>
1.5225303173

> <CNNaffinity_variance>
0.9687358141

$$$$
/media/chris/experiments/cd1a-new-docking/inputs/ligands/1onq_ligand.pdb


 62 62  0  0  0  0  0  0  0  0999 V2000
  -39.8930   58.9047   64.6127 C   0  0  0  0  0  0  0  0  0  0  0  0
  -41.0987   58.3962   65.2361 N   0  0  0  0  0  0  0  0  0  0  0  0
  -42.6314   59.9650   64.6554 O   0  0  0  0  0  0  0  0  0  0  0  0
  -42.3271   58.9313   65.2183 C   0  0  0  0  0  0  0  0  0  0  0  0
  -41.0033   57.5526   65.7346 H   0  0  0  0  0  0  0  0  0  0  0  0
  -43.3731   58.1517   65.9584 C   0  0  0  0  0  0  0  0  0  0  0  0
  -44.6662   58.2903   65.1549 C   0  0  0  0  0  0  0  0  0  0  0  0
  -45.7153   57.3144   65.6824 C   0  0  0  0  0  0  0  0  0  0  0  0
  -47.1094   57.4746   65.1263 C   0  0  0  0  0  0  0  0  0  0  0  0
  -47.3340   58.9606   64.8666 C   0  0  0  0  0  0  0  0  0  0  0  0
  -48.8209   59.3276   64.7706 C   0  0  0  0  0  0  0  0  0  0  0  0
  -49.6762   58.3047   64.0008 C   0  0  0  0  0  0  0  0  0  0  0  0
  -50.0960   58.8051   62.6012 C   0  0  0  0  0  0  0  0  0  0  0  0
  -49.0771   58.3703   61.5440 C   0  0  0  0  0  0  0  0  0  0  0  0
  -49.5718   58.4400   60.1044 C   0  0  0  0  0  0  0  0  0  0  0  0
  -48.5619   57.8708   59.1188 C   0  0  0  0  0  0  0  0  0  0  0  0
  -47.5896   56.8306   59.6799 C   0  0  0  0  0  0  0  0  0  0  0  0
  -46.1753   57.3773   59.5401 C   0  0  0  0  0  0  0  0  0  0  0  0
  -45.7145   57.8674   58.1753 C   0  0  0  0  0  0  0  0  0  0  0  0
  -44.1940   58.0908   58.1559 C   0  0  0  0  0  0  0  0  0  0  0  0
  -43.7066   59.0729   57.0748 C   0  0  0  0  0  0  0  0  0  0  0  0
  -42.3978   58.6444   56.4153 C   0  0  0  0  0  0  0  0  0  0  0  0
  -37.8520   58.0042   65.2603 O   0  0  0  0  0  0  0  0  0  0  0  0
  -39.0162   57.6671   64.5291 C   0  0  0  0  0  0  0  0  0  0  0  0
  -38.0913   58.1889   66.1821 H   0  0  0  0  0  0  0  0  0  0  0  0
  -38.7074   57.3627   63.0613 C   0  0  0  0  0  0  0  0  0  0  0  0
  -38.3509   58.3097   62.1768 C   0  0  0  0  0  0  0  0  0  0  0  0
  -38.0596   57.9254   60.7275 C   0  0  0  0  0  0  0  0  0  0  0  0
  -37.7985   59.1261   59.8064 C   0  0  0  0  0  0  0  0  0  0  0  0
  -37.1388   58.7978   58.4543 C   0  0  0  0  0  0  0  0  0  0  0  0
  -37.4897   57.3583   58.0070 C   0  0  0  0  0  0  0  0  0  0  0  0
  -36.2757   56.4557   57.6702 C   0  0  0  0  0  0  0  0  0  0  0  0
  -34.9027   57.1368   57.8790 C   0  0  0  0  0  0  0  0  0  0  0  0
  -33.9837   56.3840   58.8653 C   0  0  0  0  0  0  0  0  0  0  0  0
  -34.7384   55.6887   60.0048 C   0  0  0  0  0  0  0  0  0  0  0  0
  -34.0687   55.7295   61.3767 C   0  0  0  0  0  0  0  0  0  0  0  0
  -33.1045   56.9169   61.5675 C   0  0  0  0  0  0  0  0  0  0  0  0
  -33.7621   58.2274   62.0260 C   0  0  0  0  0  0  0  0  0  0  0  0
  -32.7225   59.1908   62.6059 C   0  0  0  0  0  0  0  0  0  0  0  0
  -31.5547   59.5471   61.7031 C   0  0  0  0  0  0  0  0  0  0  0  0
  -39.2767   60.1564   65.2779 C   0  0  0  0  0  0  0  0  0  0  0  0
  -38.2978   60.8893   64.4981 O   0  0  0  0  0  0  0  0  0  0  0  0
  -35.8021   60.6258   63.1272 O   0  0  0  0  0  0  0  0  0  0  0  0
  -34.9715   64.2428   65.0315 O   0  0  0  0  0  0  0  0  0  0  0  0
  -37.0597   62.2976   66.0373 O   0  0  0  0  0  0  0  0  0  0  0  0
  -36.9758   61.2338   65.0580 C   0  0  0  0  0  0  0  0  0  0  0  0
  -35.9062   61.6693   64.0462 C   0  0  0  0  0  0  0  0  0  0  0  0
  -34.5150   61.9019   64.6755 C   0  0  0  0  0  0  0  0  0  0  0  0
  -34.6881   63.0062   65.6815 C   0  0  0  0  0  0  0  0  0  0  0  0
  -35.7921   62.6432   66.6580 C   0  0  0  0  0  0  0  0  0  0  0  0
  -36.6682   60.4651   62.7211 H   0  0  0  0  0  0  0  0  0  0  0  0
  -34.2547   64.4550   64.4134 H   0  0  0  0  0  0  0  0  0  0  0  0
  -34.5006   64.2811   67.8255 O   0  0  0  0  0  0  0  0  0  0  0  0
  -35.8097   63.8733   67.5629 C   0  0  0  0  0  0  0  0  0  0  0  0
  -34.5144   65.0623   68.4003 H   0  0  0  0  0  0  0  0  0  0  0  0
  -33.4753   62.3408   63.7718 O   0  0  0  0  0  0  0  0  0  0  0  0
  -35.1640   63.4908   62.1771 O   0  0  0  0  0  0  0  0  0  0  0  0
  -32.9092   63.0333   61.4053 O   0  0  0  0  0  0  0  0  0  0  0  0
  -33.3223   64.8512   62.9542 O   0  0  0  0  0  0  0  0  0  0  0  0
  -33.7244   63.4678   62.5721 S   0  0  0  0  0  0  0  0  0  0  0  0
  -35.4443   62.5972   61.9246 H   0  0  0  0  0  0  0  0  0  0  0  0
  -33.8492   65.1427   63.7146 H   0  0  0  0  0  0  0  0  0  0  0  0
  2  1  1  0  0  0
  2  4  1  0  0  0
  2  5  1  0  0  0
 41 42  1  0  0  0
 41  1  1  0  0  0
 42 46  1  0  0  0
  1 24  1  0  0  0
 23 24  1  0  0  0
 23 25  1  0  0  0
 24 26  1  0  0  0
  3  4  2  0  0  0
 26 27  2  0  0  0
 27 28  1  0  0  0
 43 47  1  0  0  0
 43 51  1  0  0  0
 28 29  1  0  0  0
 56 48  1  0  0  0
 56 60  1  0  0  0
 29 30  1  0  0  0
 57 60  1  0  0  0
 57 61  1  0  0  0
 30 31  1  0  0  0
 44 49  1  0  0  0
 44 52  1  0  0  0
 31 32  1  0  0  0
 45 46  1  0  0  0
 45 50  1  0  0  0
 32 33  1  0  0  0
 53 54  1  0  0  0
 53 55  1  0  0  0
 33 34  1  0  0  0
 34 35  1  0  0  0
 35 36  1  0  0  0
 58 60  1  0  0  0
 36 37  1  0  0  0
 59 60  1  0  0  0
 59 62  1  0  0  0
 37 38  1  0  0  0
 38 39  1  0  0  0
 39 40  1  0  0  0
  4  6  1  0  0  0
  6  7  1  0  0  0
  7  8  1  0  0  0
  8  9  1  0  0  0
  9 10  1  0  0  0
 10 11  1  0  0  0
 11 12  1  0  0  0
 12 13  1  0  0  0
 13 14  1  0  0  0
 14 15  1  0  0  0
 15 16  1  0  0  0
 16 17  1  0  0  0
 17 18  1  0  0  0
 18 19  1  0  0  0
 19 20  1  0  0  0
 20 21  1  0  0  0
 21 22  1  0  0  0
 46 47  1  0  0  0
 47 48  1  0  0  0
 48 49  1  0  0  0
 49 50  1  0  0  0
 50 54  1  0  0  0
M  CHG 1  58  -1
M  END
> <minimizedAffinity>
-9.42632

> <CNNscore>
0.2193616927

> <CNNaffinity>
7.1703643799

> <CNN_VS>
1.5729032755

> <CNNaffinity_variance>
1.2874091864

$$$$
/media/chris/experiments/cd1a-new-docking/inputs/ligands/1onq_ligand.pdb


 62 62  0  0  0  0  0  0  0  0999 V2000
  -40.0351   59.2147   64.8398 C   0  0  0  0  0  0  0  0  0  0  0  0
  -40.0468   59.4905   63.4168 N   0  0  0  0  0  0  0  0  0  0  0  0
  -40.9442   61.5729   63.3441 O   0  0  0  0  0  0  0  0  0  0  0  0
  -40.4783   60.5948   62.7926 C   0  0  0  0  0  0  0  0  0  0  0  0
  -39.6937   58.7776   62.8368 H   0  0  0  0  0  0  0  0  0  0  0  0
  -40.3470   60.5754   61.2985 C   0  0  0  0  0  0  0  0  0  0  0  0
  -39.5864   59.2968   60.9470 C   0  0  0  0  0  0  0  0  0  0  0  0
  -38.2159   59.6466   60.3719 C   0  0  0  0  0  0  0  0  0  0  0  0
  -37.0933   58.6950   60.7073 C   0  0  0  0  0  0  0  0  0  0  0  0
  -37.7004   57.3054   60.8709 C   0  0  0  0  0  0  0  0  0  0  0  0
  -37.6515   56.8039   62.3203 C   0  0  0  0  0  0  0  0  0  0  0  0
  -37.0078   57.7922   63.3100 C   0  0  0  0  0  0  0  0  0  0  0  0
  -35.8530   57.1639   64.1205 C   0  0  0  0  0  0  0  0  0  0  0  0
  -34.8060   58.2225   64.4784 C   0  0  0  0  0  0  0  0  0  0  0  0
  -33.9313   58.6825   63.3185 C   0  0  0  0  0  0  0  0  0  0  0  0
  -33.3209   57.5149   62.5574 C   0  0  0  0  0  0  0  0  0  0  0  0
  -33.5114   57.5307   61.0389 C   0  0  0  0  0  0  0  0  0  0  0  0
  -34.1657   56.2186   60.6279 C   0  0  0  0  0  0  0  0  0  0  0  0
  -33.8766   55.6624   59.2415 C   0  0  0  0  0  0  0  0  0  0  0  0
  -33.9410   56.7715   58.1796 C   0  0  0  0  0  0  0  0  0  0  0  0
  -35.3436   57.3696   57.9651 C   0  0  0  0  0  0  0  0  0  0  0  0
  -36.4150   56.3156   57.6958 C   0  0  0  0  0  0  0  0  0  0  0  0
  -41.1121   60.6401   66.3246 O   0  0  0  0  0  0  0  0  0  0  0  0
  -41.3960   59.7209   65.2862 C   0  0  0  0  0  0  0  0  0  0  0  0
  -40.5772   61.3693   65.9735 H   0  0  0  0  0  0  0  0  0  0  0  0
  -42.2403   58.5415   65.7749 C   0  0  0  0  0  0  0  0  0  0  0  0
  -43.5579   58.4345   65.5326 C   0  0  0  0  0  0  0  0  0  0  0  0
  -44.3314   57.2257   66.0557 C   0  0  0  0  0  0  0  0  0  0  0  0
  -45.7720   57.1353   65.5317 C   0  0  0  0  0  0  0  0  0  0  0  0
  -46.4142   58.4708   65.1133 C   0  0  0  0  0  0  0  0  0  0  0  0
  -47.6741   58.2274   64.2481 C   0  0  0  0  0  0  0  0  0  0  0  0
  -48.9438   57.8078   65.0314 C   0  0  0  0  0  0  0  0  0  0  0  0
  -50.2434   58.4903   64.5437 C   0  0  0  0  0  0  0  0  0  0  0  0
  -50.1737   58.9764   63.0798 C   0  0  0  0  0  0  0  0  0  0  0  0
  -51.0705   58.1829   62.1221 C   0  0  0  0  0  0  0  0  0  0  0  0
  -50.3519   57.2754   61.1260 C   0  0  0  0  0  0  0  0  0  0  0  0
  -49.2453   57.9834   60.3197 C   0  0  0  0  0  0  0  0  0  0  0  0
  -48.2285   57.0507   59.6442 C   0  0  0  0  0  0  0  0  0  0  0  0
  -47.3482   57.8208   58.6557 C   0  0  0  0  0  0  0  0  0  0  0  0
  -46.9112   57.0672   57.4119 C   0  0  0  0  0  0  0  0  0  0  0  0
  -38.8038   59.7431   65.6102 C   0  0  0  0  0  0  0  0  0  0  0  0
  -38.4118   61.1138   65.3441 O   0  0  0  0  0  0  0  0  0  0  0  0
  -36.6853   61.0658   63.0651 O   0  0  0  0  0  0  0  0  0  0  0  0
  -35.2953   64.6442   64.6967 O   0  0  0  0  0  0  0  0  0  0  0  0
  -36.7107   62.5309   66.3358 O   0  0  0  0  0  0  0  0  0  0  0  0
  -36.9914   61.5168   65.3406 C   0  0  0  0  0  0  0  0  0  0  0  0
  -36.4468   62.0609   64.0122 C   0  0  0  0  0  0  0  0  0  0  0  0
  -34.9304   62.3537   64.0367 C   0  0  0  0  0  0  0  0  0  0  0  0
  -34.7217   63.4014   65.0951 C   0  0  0  0  0  0  0  0  0  0  0  0
  -35.3151   62.9289   66.4099 C   0  0  0  0  0  0  0  0  0  0  0  0
  -37.6345   60.8683   63.0357 H   0  0  0  0  0  0  0  0  0  0  0  0
  -34.9027   64.9269   63.8560 H   0  0  0  0  0  0  0  0  0  0  0  0
  -33.7624   64.6493   66.9956 O   0  0  0  0  0  0  0  0  0  0  0  0
  -35.0109   64.1161   67.3211 C   0  0  0  0  0  0  0  0  0  0  0  0
  -33.5715   65.4030   67.5756 H   0  0  0  0  0  0  0  0  0  0  0  0
  -34.3691   62.8948   62.8193 O   0  0  0  0  0  0  0  0  0  0  0  0
  -32.4481   63.7356   61.2961 O   0  0  0  0  0  0  0  0  0  0  0  0
  -32.4079   61.4551   62.1250 O   0  0  0  0  0  0  0  0  0  0  0  0
  -31.8764   63.2997   63.6046 O   0  0  0  0  0  0  0  0  0  0  0  0
  -32.7412   62.8634   62.4718 S   0  0  0  0  0  0  0  0  0  0  0  0
  -33.0028   63.4660   60.5474 H   0  0  0  0  0  0  0  0  0  0  0  0
  -32.0871   64.2175   63.8374 H   0  0  0  0  0  0  0  0  0  0  0  0
  2  1  1  0  0  0
  2  4  1  0  0  0
  2  5  1  0  0  0
 41 42  1  0  0  0
 41  1  1  0  0  0
 42 46  1  0  0  0
  1 24  1  0  0  0
 23 24  1  0  0  0
 23 25  1  0  0  0
 24 26  1  0  0  0
  3  4  2  0  0  0
 26 27  2  0  0  0
 27 28  1  0  0  0
 43 47  1  0  0  0
 43 51  1  0  0  0
 28 29  1  0  0  0
 56 48  1  0  0  0
 56 60  1  0  0  0
 29 30  1  0  0  0
 57 60  1  0  0  0
 57 61  1  0  0  0
 30 31  1  0  0  0
 44 49  1  0  0  0
 44 52  1  0  0  0
 31 32  1  0  0  0
 45 46  1  0  0  0
 45 50  1  0  0  0
 32 33  1  0  0  0
 53 54  1  0  0  0
 53 55  1  0  0  0
 33 34  1  0  0  0
 34 35  1  0  0  0
 35 36  1  0  0  0
 58 60  1  0  0  0
 36 37  1  0  0  0
 59 60  1  0  0  0
 59 62  1  0  0  0
 37 38  1  0  0  0
 38 39  1  0  0  0
 39 40  1  0  0  0
  4  6  1  0  0  0
  6  7  1  0  0  0
  7  8  1  0  0  0
  8  9  1  0  0  0
  9 10  1  0  0  0
 10 11  1  0  0  0
 11 12  1  0  0  0
 12 13  1  0  0  0
 13 14  1  0  0  0
 14 15  1  0  0  0
 15 16  1  0  0  0
 16 17  1  0  0  0
 17 18  1  0  0  0
 18 19  1  0  0  0
 19 20  1  0  0  0
 20 21  1  0  0  0
 21 22  1  0  0  0
 46 47  1  0  0  0
 47 48  1  0  0  0
 48 49  1  0  0  0
 49 50  1  0  0  0
 50 54  1  0  0  0
M  CHG 1  58  -1
M  END
> <minimizedAffinity>
-9.48339

> <CNNscore>
0.2165884823

> <CNNaffinity>
7.3394317627

> <CNN_VS>
1.5896364450

> <CNNaffinity_variance>
1.1441293955

$$$$
/media/chris/experiments/cd1a-new-docking/inputs/ligands/1onq_ligand.pdb


 62 62  0  0  0  0  0  0  0  0999 V2000
  -39.3876   59.1427   64.6295 C   0  0  0  0  0  0  0  0  0  0  0  0
  -40.6129   58.6504   65.2272 N   0  0  0  0  0  0  0  0  0  0  0  0
  -42.1727   60.0162   64.3057 O   0  0  0  0  0  0  0  0  0  0  0  0
  -41.8623   59.0957   65.0367 C   0  0  0  0  0  0  0  0  0  0  0  0
  -40.5150   57.8948   65.8506 H   0  0  0  0  0  0  0  0  0  0  0  0
  -42.9241   58.3628   65.8017 C   0  0  0  0  0  0  0  0  0  0  0  0
  -44.2500   59.0451   65.4645 C   0  0  0  0  0  0  0  0  0  0  0  0
  -45.1417   58.0903   64.6743 C   0  0  0  0  0  0  0  0  0  0  0  0
  -46.6221   58.3829   64.7097 C   0  0  0  0  0  0  0  0  0  0  0  0
  -46.8621   59.4133   65.8082 C   0  0  0  0  0  0  0  0  0  0  0  0
  -48.3124   59.4188   66.3094 C   0  0  0  0  0  0  0  0  0  0  0  0
  -49.1910   58.3028   65.7151 C   0  0  0  0  0  0  0  0  0  0  0  0
  -50.5479   58.8219   65.1909 C   0  0  0  0  0  0  0  0  0  0  0  0
  -50.3434   59.7545   63.9937 C   0  0  0  0  0  0  0  0  0  0  0  0
  -51.1461   59.3928   62.7499 C   0  0  0  0  0  0  0  0  0  0  0  0
  -50.8335   57.9906   62.2487 C   0  0  0  0  0  0  0  0  0  0  0  0
  -49.5853   57.8533   61.3740 C   0  0  0  0  0  0  0  0  0  0  0  0
  -49.8104   56.7038   60.4009 C   0  0  0  0  0  0  0  0  0  0  0  0
  -48.8492   56.5380   59.2331 C   0  0  0  0  0  0  0  0  0  0  0  0
  -47.6439   57.4811   59.3748 C   0  0  0  0  0  0  0  0  0  0  0  0
  -46.8777   57.7396   58.0644 C   0  0  0  0  0  0  0  0  0  0  0  0
  -47.2938   56.8087   56.9278 C   0  0  0  0  0  0  0  0  0  0  0  0
  -38.4977   57.1743   65.4835 O   0  0  0  0  0  0  0  0  0  0  0  0
  -38.6628   57.8608   64.2567 C   0  0  0  0  0  0  0  0  0  0  0  0
  -39.3682   56.9743   65.8618 H   0  0  0  0  0  0  0  0  0  0  0  0
  -37.3222   58.2076   63.6048 C   0  0  0  0  0  0  0  0  0  0  0  0
  -36.1375   57.9369   64.1789 C   0  0  0  0  0  0  0  0  0  0  0  0
  -34.8420   58.3158   63.4639 C   0  0  0  0  0  0  0  0  0  0  0  0
  -34.8027   57.8991   61.9864 C   0  0  0  0  0  0  0  0  0  0  0  0
  -34.1118   56.5550   61.6911 C   0  0  0  0  0  0  0  0  0  0  0  0
  -33.4691   56.5653   60.2832 C   0  0  0  0  0  0  0  0  0  0  0  0
  -34.0771   55.5617   59.2709 C   0  0  0  0  0  0  0  0  0  0  0  0
  -35.5313   55.1423   59.5904 C   0  0  0  0  0  0  0  0  0  0  0  0
  -36.5778   55.7763   58.6488 C   0  0  0  0  0  0  0  0  0  0  0  0
  -36.0945   57.0600   57.9632 C   0  0  0  0  0  0  0  0  0  0  0  0
  -36.9858   58.2884   58.1331 C   0  0  0  0  0  0  0  0  0  0  0  0
  -37.6832   58.3707   59.5053 C   0  0  0  0  0  0  0  0  0  0  0  0
  -38.0419   59.7892   59.9735 C   0  0  0  0  0  0  0  0  0  0  0  0
  -39.5572   60.0092   59.9500 C   0  0  0  0  0  0  0  0  0  0  0  0
  -40.2158   60.3149   61.2836 C   0  0  0  0  0  0  0  0  0  0  0  0
  -38.6018   60.1718   65.4736 C   0  0  0  0  0  0  0  0  0  0  0  0
  -37.9867   61.2685   64.7509 O   0  0  0  0  0  0  0  0  0  0  0  0
  -35.7847   61.4715   62.9379 O   0  0  0  0  0  0  0  0  0  0  0  0
  -35.0666   65.0090   65.0283 O   0  0  0  0  0  0  0  0  0  0  0  0
  -36.6646   62.7134   66.1826 O   0  0  0  0  0  0  0  0  0  0  0  0
  -36.6361   61.7526   65.0992 C   0  0  0  0  0  0  0  0  0  0  0  0
  -35.8418   62.4141   63.9638 C   0  0  0  0  0  0  0  0  0  0  0  0
  -34.3966   62.7922   64.3561 C   0  0  0  0  0  0  0  0  0  0  0  0
  -34.5119   63.7781   65.4858 C   0  0  0  0  0  0  0  0  0  0  0  0
  -35.3556   63.1860   66.6003 C   0  0  0  0  0  0  0  0  0  0  0  0
  -36.6852   61.2216   62.6780 H   0  0  0  0  0  0  0  0  0  0  0  0
  -34.5129   65.3689   64.3179 H   0  0  0  0  0  0  0  0  0  0  0  0
  -34.0489   64.7813   67.8091 O   0  0  0  0  0  0  0  0  0  0  0  0
  -35.3545   64.3261   67.6163 C   0  0  0  0  0  0  0  0  0  0  0  0
  -34.0509   65.5052   68.4548 H   0  0  0  0  0  0  0  0  0  0  0  0
  -33.6113   63.4442   63.3323 O   0  0  0  0  0  0  0  0  0  0  0  0
  -32.7258   61.2842   62.2065 O   0  0  0  0  0  0  0  0  0  0  0  0
  -31.1966   62.6986   63.4516 O   0  0  0  0  0  0  0  0  0  0  0  0
  -31.9724   63.3767   61.2578 O   0  0  0  0  0  0  0  0  0  0  0  0
  -32.3616   62.6964   62.5255 S   0  0  0  0  0  0  0  0  0  0  0  0
  -32.9825   60.8245   63.0212 H   0  0  0  0  0  0  0  0  0  0  0  0
  -32.7265   63.3798   60.6478 H   0  0  0  0  0  0  0  0  0  0  0  0
  2  1  1  0  0  0
  2  4  1  0  0  0
  2  5  1  0  0  0
 41 42  1  0  0  0
 41  1  1  0  0  0
 42 46  1  0  0  0
  1 24  1  0  0  0
 23 24  1  0  0  0
 23 25  1  0  0  0
 24 26  1  0  0  0
  3  4  2  0  0  0
 26 27  2  0  0  0
 27 28  1  0  0  0
 43 47  1  0  0  0
 43 51  1  0  0  0
 28 29  1  0  0  0
 56 48  1  0  0  0
 56 60  1  0  0  0
 29 30  1  0  0  0
 57 60  1  0  0  0
 57 61  1  0  0  0
 30 31  1  0  0  0
 44 49  1  0  0  0
 44 52  1  0  0  0
 31 32  1  0  0  0
 45 46  1  0  0  0
 45 50  1  0  0  0
 32 33  1  0  0  0
 53 54  1  0  0  0
 53 55  1  0  0  0
 33 34  1  0  0  0
 34 35  1  0  0  0
 35 36  1  0  0  0
 58 60  1  0  0  0
 36 37  1  0  0  0
 59 60  1  0  0  0
 59 62  1  0  0  0
 37 38  1  0  0  0
 38 39  1  0  0  0
 39 40  1  0  0  0
  4  6  1  0  0  0
  6  7  1  0  0  0
  7  8  1  0  0  0
  8  9  1  0  0  0
  9 10  1  0  0  0
 10 11  1  0  0  0
 11 12  1  0  0  0
 12 13  1  0  0  0
 13 14  1  0  0  0
 14 15  1  0  0  0
 15 16  1  0  0  0
 16 17  1  0  0  0
 17 18  1  0  0  0
 18 19  1  0  0  0
 19 20  1  0  0  0
 20 21  1  0  0  0
 21 22  1  0  0  0
 46 47  1  0  0  0
 47 48  1  0  0  0
 48 49  1  0  0  0
 49 50  1  0  0  0
 50 54  1  0  0  0
M  CHG 1  58  -1
M  END
> <minimizedAffinity>
-9.73874

> <CNNscore>
0.2068185955

> <CNNaffinity>
7.1468253136

> <CNN_VS>
1.4780963659

> <CNNaffinity_variance>
1.2298454046

$$$$
/media/chris/experiments/cd1a-new-docking/inputs/ligands/1onq_ligand.pdb


 62 62  0  0  0  0  0  0  0  0999 V2000
  -35.3915   57.6757   62.1411 C   0  0  0  0  0  0  0  0  0  0  0  0
  -36.2770   58.3237   61.1940 N   0  0  0  0  0  0  0  0  0  0  0  0
  -36.6323   56.6777   59.6736 O   0  0  0  0  0  0  0  0  0  0  0  0
  -36.8129   57.8096   60.0786 C   0  0  0  0  0  0  0  0  0  0  0  0
  -36.5141   59.2577   61.3952 H   0  0  0  0  0  0  0  0  0  0  0  0
  -37.7030   58.7412   59.3107 C   0  0  0  0  0  0  0  0  0  0  0  0
  -38.9468   58.9603   60.1720 C   0  0  0  0  0  0  0  0  0  0  0  0
  -39.6668   60.2335   59.7342 C   0  0  0  0  0  0  0  0  0  0  0  0
  -41.1304   60.0852   59.3964 C   0  0  0  0  0  0  0  0  0  0  0  0
  -41.2232   59.3623   58.0566 C   0  0  0  0  0  0  0  0  0  0  0  0
  -42.5852   59.5494   57.3750 C   0  0  0  0  0  0  0  0  0  0  0  0
  -43.4622   58.2841   57.3567 C   0  0  0  0  0  0  0  0  0  0  0  0
  -44.4729   58.2372   58.5237 C   0  0  0  0  0  0  0  0  0  0  0  0
  -45.8725   57.8847   58.0121 C   0  0  0  0  0  0  0  0  0  0  0  0
  -46.7569   57.1465   59.0097 C   0  0  0  0  0  0  0  0  0  0  0  0
  -48.0756   57.8651   59.2540 C   0  0  0  0  0  0  0  0  0  0  0  0
  -49.3416   57.0882   58.8853 C   0  0  0  0  0  0  0  0  0  0  0  0
  -50.3899   57.3501   59.9581 C   0  0  0  0  0  0  0  0  0  0  0  0
  -49.9280   57.5685   61.3913 C   0  0  0  0  0  0  0  0  0  0  0  0
  -51.0724   58.1123   62.2612 C   0  0  0  0  0  0  0  0  0  0  0  0
  -50.9053   59.5814   62.6909 C   0  0  0  0  0  0  0  0  0  0  0  0
  -51.0705   59.7936   64.1940 C   0  0  0  0  0  0  0  0  0  0  0  0
  -35.5958   56.9206   64.3284 O   0  0  0  0  0  0  0  0  0  0  0  0
  -36.0802   57.9364   63.4698 C   0  0  0  0  0  0  0  0  0  0  0  0
  -34.6341   57.0075   64.4218 H   0  0  0  0  0  0  0  0  0  0  0  0
  -37.5966   57.8558   63.2792 C   0  0  0  0  0  0  0  0  0  0  0  0
  -38.4611   58.6355   63.9508 C   0  0  0  0  0  0  0  0  0  0  0  0
  -39.9620   58.4936   63.7049 C   0  0  0  0  0  0  0  0  0  0  0  0
  -40.6972   59.8339   63.5579 C   0  0  0  0  0  0  0  0  0  0  0  0
  -41.7900   60.1131   64.6061 C   0  0  0  0  0  0  0  0  0  0  0  0
  -41.3118   59.7049   66.0203 C   0  0  0  0  0  0  0  0  0  0  0  0
  -42.2815   58.7875   66.8076 C   0  0  0  0  0  0  0  0  0  0  0  0
  -42.6399   57.4710   66.0789 C   0  0  0  0  0  0  0  0  0  0  0  0
  -44.1594   57.2460   65.9220 C   0  0  0  0  0  0  0  0  0  0  0  0
  -44.8226   58.1906   64.9124 C   0  0  0  0  0  0  0  0  0  0  0  0
  -45.5504   59.3976   65.5002 C   0  0  0  0  0  0  0  0  0  0  0  0
  -47.0425   59.4746   65.1210 C   0  0  0  0  0  0  0  0  0  0  0  0
  -47.6244   58.2006   64.4898 C   0  0  0  0  0  0  0  0  0  0  0  0
  -48.3958   57.3770   65.5250 C   0  0  0  0  0  0  0  0  0  0  0  0
  -47.6700   56.1792   66.1117 C   0  0  0  0  0  0  0  0  0  0  0  0
  -33.9006   58.0694   62.0355 C   0  0  0  0  0  0  0  0  0  0  0  0
  -33.3921   58.9630   63.0584 O   0  0  0  0  0  0  0  0  0  0  0  0
  -35.0520   60.4994   64.8080 O   0  0  0  0  0  0  0  0  0  0  0  0
  -31.9465   63.2641   64.4746 O   0  0  0  0  0  0  0  0  0  0  0  0
  -32.4533   61.1056   62.4155 O   0  0  0  0  0  0  0  0  0  0  0  0
  -33.6019   60.4220   62.9733 C   0  0  0  0  0  0  0  0  0  0  0  0
  -33.9234   61.1365   64.2937 C   0  0  0  0  0  0  0  0  0  0  0  0
  -34.2483   62.6369   64.1242 C   0  0  0  0  0  0  0  0  0  0  0  0
  -33.0180   63.2694   63.5345 C   0  0  0  0  0  0  0  0  0  0  0  0
  -32.6248   62.5404   62.2625 C   0  0  0  0  0  0  0  0  0  0  0  0
  -34.8663   59.5542   64.9214 H   0  0  0  0  0  0  0  0  0  0  0  0
  -32.2189   63.7342   65.2782 H   0  0  0  0  0  0  0  0  0  0  0  0
  -31.7348   64.6185   61.4861 O   0  0  0  0  0  0  0  0  0  0  0  0
  -31.3784   63.3170   61.8438 C   0  0  0  0  0  0  0  0  0  0  0  0
  -30.9416   65.1097   61.2205 H   0  0  0  0  0  0  0  0  0  0  0  0
  -34.5318   63.3659   65.3400 O   0  0  0  0  0  0  0  0  0  0  0  0
  -36.6769   64.8067   65.1399 O   0  0  0  0  0  0  0  0  0  0  0  0
  -35.9531   64.0339   67.3235 O   0  0  0  0  0  0  0  0  0  0  0  0
  -36.9913   62.4929   65.7674 O   0  0  0  0  0  0  0  0  0  0  0  0
  -36.0757   63.6628   65.8876 S   0  0  0  0  0  0  0  0  0  0  0  0
  -36.0937   65.5789   65.2070 H   0  0  0  0  0  0  0  0  0  0  0  0
  -37.0772   62.2440   64.8338 H   0  0  0  0  0  0  0  0  0  0  0  0
  2  1  1  0  0  0
  2  4  1  0  0  0
  2  5  1  0  0  0
 41 42  1  0  0  0
 41  1  1  0  0  0
 42 46  1  0  0  0
  1 24  1  0  0  0
 23 24  1  0  0  0
 23 25  1  0  0  0
 24 26  1  0  0  0
  3  4  2  0  0  0
 26 27  2  0  0  0
 27 28  1  0  0  0
 43 47  1  0  0  0
 43 51  1  0  0  0
 28 29  1  0  0  0
 56 48  1  0  0  0
 56 60  1  0  0  0
 29 30  1  0  0  0
 57 60  1  0  0  0
 57 61  1  0  0  0
 30 31  1  0  0  0
 44 49  1  0  0  0
 44 52  1  0  0  0
 31 32  1  0  0  0
 45 46  1  0  0  0
 45 50  1  0  0  0
 32 33  1  0  0  0
 53 54  1  0  0  0
 53 55  1  0  0  0
 33 34  1  0  0  0
 34 35  1  0  0  0
 35 36  1  0  0  0
 58 60  1  0  0  0
 36 37  1  0  0  0
 59 60  1  0  0  0
 59 62  1  0  0  0
 37 38  1  0  0  0
 38 39  1  0  0  0
 39 40  1  0  0  0
  4  6  1  0  0  0
  6  7  1  0  0  0
  7  8  1  0  0  0
  8  9  1  0  0  0
  9 10  1  0  0  0
 10 11  1  0  0  0
 11 12  1  0  0  0
 12 13  1  0  0  0
 13 14  1  0  0  0
 14 15  1  0  0  0
 15 16  1  0  0  0
 16 17  1  0  0  0
 17 18  1  0  0  0
 18 19  1  0  0  0
 19 20  1  0  0  0
 20 21  1  0  0  0
 21 22  1  0  0  0
 46 47  1  0  0  0
 47 48  1  0  0  0
 48 49  1  0  0  0
 49 50  1  0  0  0
 50 54  1  0  0  0
M  CHG 1  58  -1
M  END
> <minimizedAffinity>
-8.86923

> <CNNscore>
0.2006649077

> <CNNaffinity>
6.8885698318

> <CNN_VS>
1.3822941780

> <CNNaffinity_variance>
1.2422636747

$$$$
