/media/chris/experiments/cd1a-new-docking/inputs/ligands/1onq_ligand.pdb


 62 62  0  0  0  0  0  0  0  0999 V2000
  -36.9635   58.8794   63.6780 C   0  0  0  0  0  0  0  0  0  0  0  0
  -38.1156   58.6017   64.5126 N   0  0  0  0  0  0  0  0  0  0  0  0
  -39.7836   59.6432   63.3811 O   0  0  0  0  0  0  0  0  0  0  0  0
  -39.3861   58.9819   64.3204 C   0  0  0  0  0  0  0  0  0  0  0  0
  -37.9432   58.0673   65.3212 H   0  0  0  0  0  0  0  0  0  0  0  0
  -40.3546   58.5233   65.3699 C   0  0  0  0  0  0  0  0  0  0  0  0
  -41.7144   59.1101   64.9908 C   0  0  0  0  0  0  0  0  0  0  0  0
  -42.8233   58.3962   65.7599 C   0  0  0  0  0  0  0  0  0  0  0  0
  -44.2371   58.7517   65.3684 C   0  0  0  0  0  0  0  0  0  0  0  0
  -45.1543   58.3125   66.5050 C   0  0  0  0  0  0  0  0  0  0  0  0
  -46.4720   59.0982   66.5407 C   0  0  0  0  0  0  0  0  0  0  0  0
  -46.7917   59.8562   65.2393 C   0  0  0  0  0  0  0  0  0  0  0  0
  -48.3035   59.9001   64.9259 C   0  0  0  0  0  0  0  0  0  0  0  0
  -48.9858   58.6048   65.3747 C   0  0  0  0  0  0  0  0  0  0  0  0
  -50.4882   58.5476   65.1263 C   0  0  0  0  0  0  0  0  0  0  0  0
  -50.9692   59.6817   64.2333 C   0  0  0  0  0  0  0  0  0  0  0  0
  -51.5572   59.2686   62.8821 C   0  0  0  0  0  0  0  0  0  0  0  0
  -50.5732   58.3253   62.2033 C   0  0  0  0  0  0  0  0  0  0  0  0
  -51.0925   57.3760   61.1335 C   0  0  0  0  0  0  0  0  0  0  0  0
  -49.9320   56.6709   60.4138 C   0  0  0  0  0  0  0  0  0  0  0  0
  -49.1483   57.5664   59.4365 C   0  0  0  0  0  0  0  0  0  0  0  0
  -48.6466   56.8195   58.2029 C   0  0  0  0  0  0  0  0  0  0  0  0
  -36.1816   56.7562   64.2035 O   0  0  0  0  0  0  0  0  0  0  0  0
  -36.6379   57.5137   63.0981 C   0  0  0  0  0  0  0  0  0  0  0  0
  -36.8906   56.6851   64.8615 H   0  0  0  0  0  0  0  0  0  0  0  0
  -35.5630   57.6643   62.0190 C   0  0  0  0  0  0  0  0  0  0  0  0
  -34.9297   56.6160   61.4655 C   0  0  0  0  0  0  0  0  0  0  0  0
  -33.8667   56.8494   60.3936 C   0  0  0  0  0  0  0  0  0  0  0  0
  -34.3938   56.7204   58.9571 C   0  0  0  0  0  0  0  0  0  0  0  0
  -35.8069   56.1249   58.8164 C   0  0  0  0  0  0  0  0  0  0  0  0
  -36.5365   56.7257   57.5908 C   0  0  0  0  0  0  0  0  0  0  0  0
  -37.6836   57.7135   57.9223 C   0  0  0  0  0  0  0  0  0  0  0  0
  -37.3624   58.6933   59.0754 C   0  0  0  0  0  0  0  0  0  0  0  0
  -38.5417   58.9103   60.0480 C   0  0  0  0  0  0  0  0  0  0  0  0
  -39.2652   60.2481   59.8532 C   0  0  0  0  0  0  0  0  0  0  0  0
  -40.7766   60.1704   59.6485 C   0  0  0  0  0  0  0  0  0  0  0  0
  -41.1942   59.6666   58.2529 C   0  0  0  0  0  0  0  0  0  0  0  0
  -42.6146   59.0881   58.1637 C   0  0  0  0  0  0  0  0  0  0  0  0
  -42.9692   58.7209   56.7200 C   0  0  0  0  0  0  0  0  0  0  0  0
  -41.8140   58.6553   55.7367 C   0  0  0  0  0  0  0  0  0  0  0  0
  -35.8092   59.6408   64.3685 C   0  0  0  0  0  0  0  0  0  0  0  0
  -35.2161   60.7341   63.6226 O   0  0  0  0  0  0  0  0  0  0  0  0
  -33.2113   62.3836   62.4239 O   0  0  0  0  0  0  0  0  0  0  0  0
  -35.0599   65.3660   64.6794 O   0  0  0  0  0  0  0  0  0  0  0  0
  -35.2639   62.4250   65.3615 O   0  0  0  0  0  0  0  0  0  0  0  0
  -34.4807   61.8167   64.3060 C   0  0  0  0  0  0  0  0  0  0  0  0
  -33.9956   62.9702   63.4163 C   0  0  0  0  0  0  0  0  0  0  0  0
  -33.1332   64.0104   64.1645 C   0  0  0  0  0  0  0  0  0  0  0  0
  -34.0092   64.5849   65.2433 C   0  0  0  0  0  0  0  0  0  0  0  0
  -34.5690   63.4648   66.1014 C   0  0  0  0  0  0  0  0  0  0  0  0
  -33.7374   61.7260   61.9425 H   0  0  0  0  0  0  0  0  0  0  0  0
  -34.6805   66.0743   64.1361 H   0  0  0  0  0  0  0  0  0  0  0  0
  -36.7707   64.0516   66.8235 O   0  0  0  0  0  0  0  0  0  0  0  0
  -35.4169   64.2473   67.1018 C   0  0  0  0  0  0  0  0  0  0  0  0
  -37.3070   64.5495   67.4602 H   0  0  0  0  0  0  0  0  0  0  0  0
  -32.6721   65.1340   63.3804 O   0  0  0  0  0  0  0  0  0  0  0  0
  -31.3601   64.3733   61.2787 O   0  0  0  0  0  0  0  0  0  0  0  0
  -30.2353   64.4550   63.4276 O   0  0  0  0  0  0  0  0  0  0  0  0
  -30.7248   66.5039   62.2289 O   0  0  0  0  0  0  0  0  0  0  0  0
  -31.2270   65.1387   62.5536 S   0  0  0  0  0  0  0  0  0  0  0  0
  -31.6865   63.4802   61.4704 H   0  0  0  0  0  0  0  0  0  0  0  0
  -31.3657   66.9571   61.6589 H   0  0  0  0  0  0  0  0  0  0  0  0
  2  1  1  0  0  0
  2  4  1  0  0  0
  2  5  1  0  0  0
 41 42  1  0  0  0
 41  1  1  0  0  0
 42 46  1  0  0  0
  1 24  1  0  0  0
 23 24  1  0  0  0
 23 25  1  0  0  0
 24 26  1  0  0  0
  3  4  2  0  0  0
 26 27  2  0  0  0
 27 28  1  0  0  0
 43 47  1  0  0  0
 43 51  1  0  0  0
 28 29  1  0  0  0
 56 48  1  0  0  0
 56 60  1  0  0  0
 29 30  1  0  0  0
 57 60  1  0  0  0
 57 61  1  0  0  0
 30 31  1  0  0  0
 44 49  1  0  0  0
 44 52  1  0  0  0
 31 32  1  0  0  0
 45 46  1  0  0  0
 45 50  1  0  0  0
 32 33  1  0  0  0
 53 54  1  0  0  0
 53 55  1  0  0  0
 33 34  1  0  0  0
 34 35  1  0  0  0
 35 36  1  0  0  0
 58 60  1  0  0  0
 36 37  1  0  0  0
 59 60  1  0  0  0
 59 62  1  0  0  0
 37 38  1  0  0  0
 38 39  1  0  0  0
 39 40  1  0  0  0
  4  6  1  0  0  0
  6  7  1  0  0  0
  7  8  1  0  0  0
  8  9  1  0  0  0
  9 10  1  0  0  0
 10 11  1  0  0  0
 11 12  1  0  0  0
 12 13  1  0  0  0
 13 14  1  0  0  0
 14 15  1  0  0  0
 15 16  1  0  0  0
 16 17  1  0  0  0
 17 18  1  0  0  0
 18 19  1  0  0  0
 19 20  1  0  0  0
 20 21  1  0  0  0
 21 22  1  0  0  0
 46 47  1  0  0  0
 47 48  1  0  0  0
 48 49  1  0  0  0
 49 50  1  0  0  0
 50 54  1  0  0  0
M  CHG 1  58  -1
M  END
> <minimizedAffinity>
-9.12004

> <CNNscore>
0.5716091394

> <CNNaffinity>
7.2811622620

> <CNN_VS>
4.1619787216

> <CNNaffinity_variance>
0.5234804153

$$$$
/media/chris/experiments/cd1a-new-docking/inputs/ligands/1onq_ligand.pdb


 62 62  0  0  0  0  0  0  0  0999 V2000
  -39.7037   59.0440   64.6423 C   0  0  0  0  0  0  0  0  0  0  0  0
  -38.8988   58.5232   63.5551 N   0  0  0  0  0  0  0  0  0  0  0  0
  -36.9497   58.0248   64.6039 O   0  0  0  0  0  0  0  0  0  0  0  0
  -37.6385   58.0705   63.6033 C   0  0  0  0  0  0  0  0  0  0  0  0
  -39.3320   58.4991   62.6713 H   0  0  0  0  0  0  0  0  0  0  0  0
  -37.0844   57.5866   62.2961 C   0  0  0  0  0  0  0  0  0  0  0  0
  -35.6612   57.1062   62.5801 C   0  0  0  0  0  0  0  0  0  0  0  0
  -34.8033   57.2460   61.3250 C   0  0  0  0  0  0  0  0  0  0  0  0
  -33.9639   56.0463   60.9581 C   0  0  0  0  0  0  0  0  0  0  0  0
  -34.2865   55.6827   59.5125 C   0  0  0  0  0  0  0  0  0  0  0  0
  -35.7911   55.7202   59.2134 C   0  0  0  0  0  0  0  0  0  0  0  0
  -36.1553   56.4142   57.8881 C   0  0  0  0  0  0  0  0  0  0  0  0
  -37.3536   57.3790   58.0251 C   0  0  0  0  0  0  0  0  0  0  0  0
  -36.9166   58.6935   58.6777 C   0  0  0  0  0  0  0  0  0  0  0  0
  -37.9787   59.3730   59.5335 C   0  0  0  0  0  0  0  0  0  0  0  0
  -39.3377   59.4042   58.8500 C   0  0  0  0  0  0  0  0  0  0  0  0
  -40.4602   60.1037   59.6200 C   0  0  0  0  0  0  0  0  0  0  0  0
  -41.7777   59.8033   58.9181 C   0  0  0  0  0  0  0  0  0  0  0  0
  -41.7402   59.1328   57.5526 C   0  0  0  0  0  0  0  0  0  0  0  0
  -43.1585   58.7921   57.0684 C   0  0  0  0  0  0  0  0  0  0  0  0
  -44.1274   58.3591   58.1841 C   0  0  0  0  0  0  0  0  0  0  0  0
  -45.5373   58.0628   57.6782 C   0  0  0  0  0  0  0  0  0  0  0  0
  -41.1590   60.6479   63.8024 O   0  0  0  0  0  0  0  0  0  0  0  0
  -41.0574   59.2477   63.9839 C   0  0  0  0  0  0  0  0  0  0  0  0
  -40.4478   60.9504   63.2164 H   0  0  0  0  0  0  0  0  0  0  0  0
  -42.1546   58.7040   64.9020 C   0  0  0  0  0  0  0  0  0  0  0  0
  -41.9231   57.7841   65.8541 C   0  0  0  0  0  0  0  0  0  0  0  0
  -43.0729   57.2907   66.7302 C   0  0  0  0  0  0  0  0  0  0  0  0
  -44.4607   57.4850   66.1021 C   0  0  0  0  0  0  0  0  0  0  0  0
  -45.3559   58.5407   66.7769 C   0  0  0  0  0  0  0  0  0  0  0  0
  -46.0279   59.4484   65.7185 C   0  0  0  0  0  0  0  0  0  0  0  0
  -47.5727   59.3488   65.6463 C   0  0  0  0  0  0  0  0  0  0  0  0
  -48.1394   59.3274   64.2070 C   0  0  0  0  0  0  0  0  0  0  0  0
  -49.3030   60.3181   63.9868 C   0  0  0  0  0  0  0  0  0  0  0  0
  -50.6891   59.6643   64.0382 C   0  0  0  0  0  0  0  0  0  0  0  0
  -50.8507   58.3697   63.2445 C   0  0  0  0  0  0  0  0  0  0  0  0
  -50.9150   58.5750   61.7182 C   0  0  0  0  0  0  0  0  0  0  0  0
  -50.9137   57.2853   60.8835 C   0  0  0  0  0  0  0  0  0  0  0  0
  -50.0017   57.4223   59.6611 C   0  0  0  0  0  0  0  0  0  0  0  0
  -48.5427   57.0526   59.8622 C   0  0  0  0  0  0  0  0  0  0  0  0
  -39.1025   60.2518   65.3964 C   0  0  0  0  0  0  0  0  0  0  0  0
  -38.4695   61.2732   64.5844 O   0  0  0  0  0  0  0  0  0  0  0  0
  -36.5190   61.2421   62.4935 O   0  0  0  0  0  0  0  0  0  0  0  0
  -35.1419   64.6647   64.4399 O   0  0  0  0  0  0  0  0  0  0  0  0
  -36.8170   62.5533   65.8156 O   0  0  0  0  0  0  0  0  0  0  0  0
  -37.0393   61.6022   64.7462 C   0  0  0  0  0  0  0  0  0  0  0  0
  -36.3345   62.1786   63.5098 C   0  0  0  0  0  0  0  0  0  0  0  0
  -34.8171   62.3916   63.7036 C   0  0  0  0  0  0  0  0  0  0  0  0
  -34.6713   63.3769   64.8301 C   0  0  0  0  0  0  0  0  0  0  0  0
  -35.4198   62.8751   66.0517 C   0  0  0  0  0  0  0  0  0  0  0  0
  -37.4682   61.0953   62.3575 H   0  0  0  0  0  0  0  0  0  0  0  0
  -34.6512   64.9655   63.6592 H   0  0  0  0  0  0  0  0  0  0  0  0
  -36.1846   64.0407   67.9933 O   0  0  0  0  0  0  0  0  0  0  0  0
  -35.1574   64.0016   67.0489 C   0  0  0  0  0  0  0  0  0  0  0  0
  -36.0156   64.7569   68.6254 H   0  0  0  0  0  0  0  0  0  0  0  0
  -34.1074   62.9588   62.5790 O   0  0  0  0  0  0  0  0  0  0  0  0
  -32.1435   61.3694   62.0015 O   0  0  0  0  0  0  0  0  0  0  0  0
  -31.8206   63.1216   63.6492 O   0  0  0  0  0  0  0  0  0  0  0  0
  -31.9101   63.6683   61.2896 O   0  0  0  0  0  0  0  0  0  0  0  0
  -32.4674   62.7840   62.3521 S   0  0  0  0  0  0  0  0  0  0  0  0
  -32.4990   60.7779   62.6830 H   0  0  0  0  0  0  0  0  0  0  0  0
  -32.3264   63.4549   60.4399 H   0  0  0  0  0  0  0  0  0  0  0  0
  2  1  1  0  0  0
  2  4  1  0  0  0
  2  5  1  0  0  0
 41 42  1  0  0  0
 41  1  1  0  0  0
 42 46  1  0  0  0
  1 24  1  0  0  0
 23 24  1  0  0  0
 23 25  1  0  0  0
 24 26  1  0  0  0
  3  4  2  0  0  0
 26 27  2  0  0  0
 27 28  1  0  0  0
 43 47  1  0  0  0
 43 51  1  0  0  0
 28 29  1  0  0  0
 56 48  1  0  0  0
 56 60  1  0  0  0
 29 30  1  0  0  0
 57 60  1  0  0  0
 57 61  1  0  0  0
 30 31  1  0  0  0
 44 49  1  0  0  0
 44 52  1  0  0  0
 31 32  1  0  0  0
 45 46  1  0  0  0
 45 50  1  0  0  0
 32 33  1  0  0  0
 53 54  1  0  0  0
 53 55  1  0  0  0
 33 34  1  0  0  0
 34 35  1  0  0  0
 35 36  1  0  0  0
 58 60  1  0  0  0
 36 37  1  0  0  0
 59 60  1  0  0  0
 59 62  1  0  0  0
 37 38  1  0  0  0
 38 39  1  0  0  0
 39 40  1  0  0  0
  4  6  1  0  0  0
  6  7  1  0  0  0
  7  8  1  0  0  0
  8  9  1  0  0  0
  9 10  1  0  0  0
 10 11  1  0  0  0
 11 12  1  0  0  0
 12 13  1  0  0  0
 13 14  1  0  0  0
 14 15  1  0  0  0
 15 16  1  0  0  0
 16 17  1  0  0  0
 17 18  1  0  0  0
 18 19  1  0  0  0
 19 20  1  0  0  0
 20 21  1  0  0  0
 21 22  1  0  0  0
 46 47  1  0  0  0
 47 48  1  0  0  0
 48 49  1  0  0  0
 49 50  1  0  0  0
 50 54  1  0  0  0
M  CHG 1  58  -1
M  END
> <minimizedAffinity>
-8.75879

> <CNNscore>
0.4188221991

> <CNNaffinity>
7.3339109421

> <CNN_VS>
3.0716047287

> <CNNaffinity_variance>
0.7312077880

$$$$
/media/chris/experiments/cd1a-new-docking/inputs/ligands/1onq_ligand.pdb


 62 62  0  0  0  0  0  0  0  0999 V2000
  -40.2468   58.9784   65.0831 C   0  0  0  0  0  0  0  0  0  0  0  0
  -39.7680   58.2491   63.9256 N   0  0  0  0  0  0  0  0  0  0  0  0
  -37.6123   57.8238   64.4909 O   0  0  0  0  0  0  0  0  0  0  0  0
  -38.5445   57.7447   63.7147 C   0  0  0  0  0  0  0  0  0  0  0  0
  -40.4231   58.1066   63.2046 H   0  0  0  0  0  0  0  0  0  0  0  0
  -38.3661   57.0297   62.4083 C   0  0  0  0  0  0  0  0  0  0  0  0
  -37.5997   57.9846   61.4929 C   0  0  0  0  0  0  0  0  0  0  0  0
  -38.5797   58.8202   60.6730 C   0  0  0  0  0  0  0  0  0  0  0  0
  -38.0143   59.4890   59.4435 C   0  0  0  0  0  0  0  0  0  0  0  0
  -37.7985   58.4085   58.3891 C   0  0  0  0  0  0  0  0  0  0  0  0
  -36.3277   58.2710   57.9736 C   0  0  0  0  0  0  0  0  0  0  0  0
  -35.8790   56.8227   57.7058 C   0  0  0  0  0  0  0  0  0  0  0  0
  -36.6480   55.7887   58.5575 C   0  0  0  0  0  0  0  0  0  0  0  0
  -35.8984   55.4980   59.8607 C   0  0  0  0  0  0  0  0  0  0  0  0
  -34.3969   55.2873   59.7078 C   0  0  0  0  0  0  0  0  0  0  0  0
  -33.5942   56.1090   60.7055 C   0  0  0  0  0  0  0  0  0  0  0  0
  -34.0596   57.5518   60.9151 C   0  0  0  0  0  0  0  0  0  0  0  0
  -33.9750   57.8677   62.4022 C   0  0  0  0  0  0  0  0  0  0  0  0
  -32.6808   58.4493   62.9519 C   0  0  0  0  0  0  0  0  0  0  0  0
  -32.1107   59.5157   62.0033 C   0  0  0  0  0  0  0  0  0  0  0  0
  -30.5763   59.6412   62.0319 C   0  0  0  0  0  0  0  0  0  0  0  0
  -30.0737   61.0105   61.5803 C   0  0  0  0  0  0  0  0  0  0  0  0
  -41.3871   60.9568   64.6571 O   0  0  0  0  0  0  0  0  0  0  0  0
  -41.5635   59.5539   64.5903 C   0  0  0  0  0  0  0  0  0  0  0  0
  -40.6611   61.2197   64.0700 H   0  0  0  0  0  0  0  0  0  0  0  0
  -42.6984   59.0715   65.4968 C   0  0  0  0  0  0  0  0  0  0  0  0
  -43.9961   59.1757   65.1632 C   0  0  0  0  0  0  0  0  0  0  0  0
  -45.0710   58.6710   66.1240 C   0  0  0  0  0  0  0  0  0  0  0  0
  -46.4608   59.2749   65.8746 C   0  0  0  0  0  0  0  0  0  0  0  0
  -47.2424   58.6814   64.6880 C   0  0  0  0  0  0  0  0  0  0  0  0
  -48.4871   57.9061   65.1830 C   0  0  0  0  0  0  0  0  0  0  0  0
  -49.8338   58.6608   65.0477 C   0  0  0  0  0  0  0  0  0  0  0  0
  -49.8756   59.6782   63.8831 C   0  0  0  0  0  0  0  0  0  0  0  0
  -50.9085   59.3250   62.7913 C   0  0  0  0  0  0  0  0  0  0  0  0
  -50.7352   57.9170   62.2092 C   0  0  0  0  0  0  0  0  0  0  0  0
  -50.3451   57.8435   60.7345 C   0  0  0  0  0  0  0  0  0  0  0  0
  -48.8776   57.4375   60.4947 C   0  0  0  0  0  0  0  0  0  0  0  0
  -48.6173   56.6600   59.1955 C   0  0  0  0  0  0  0  0  0  0  0  0
  -47.2666   57.0449   58.5855 C   0  0  0  0  0  0  0  0  0  0  0  0
  -47.1535   56.9405   57.0749 C   0  0  0  0  0  0  0  0  0  0  0  0
  -39.2395   59.9696   65.7090 C   0  0  0  0  0  0  0  0  0  0  0  0
  -38.6989   60.9871   64.8283 O   0  0  0  0  0  0  0  0  0  0  0  0
  -36.9631   61.3033   62.5779 O   0  0  0  0  0  0  0  0  0  0  0  0
  -35.5707   64.5658   64.7725 O   0  0  0  0  0  0  0  0  0  0  0  0
  -36.9982   62.2195   66.0426 O   0  0  0  0  0  0  0  0  0  0  0  0
  -37.2774   61.3808   64.8952 C   0  0  0  0  0  0  0  0  0  0  0  0
  -36.7259   62.1311   63.6745 C   0  0  0  0  0  0  0  0  0  0  0  0
  -35.2090   62.4113   63.7516 C   0  0  0  0  0  0  0  0  0  0  0  0
  -35.0020   63.2732   64.9664 C   0  0  0  0  0  0  0  0  0  0  0  0
  -35.6020   62.5959   66.1852 C   0  0  0  0  0  0  0  0  0  0  0  0
  -37.9127   61.1161   62.5134 H   0  0  0  0  0  0  0  0  0  0  0  0
  -35.1739   64.9797   63.9901 H   0  0  0  0  0  0  0  0  0  0  0  0
  -36.4916   64.0544   67.8570 O   0  0  0  0  0  0  0  0  0  0  0  0
  -35.2986   63.6189   67.2777 C   0  0  0  0  0  0  0  0  0  0  0  0
  -36.2962   64.7039   68.5504 H   0  0  0  0  0  0  0  0  0  0  0  0
  -34.6412   63.1405   62.6400 O   0  0  0  0  0  0  0  0  0  0  0  0
  -32.5260   63.6116   61.2184 O   0  0  0  0  0  0  0  0  0  0  0  0
  -32.2848   62.7507   63.4745 O   0  0  0  0  0  0  0  0  0  0  0  0
  -32.8938   65.0686   63.1126 O   0  0  0  0  0  0  0  0  0  0  0  0
  -33.0652   63.6763   62.6091 S   0  0  0  0  0  0  0  0  0  0  0  0
  -32.6291   62.7111   60.8732 H   0  0  0  0  0  0  0  0  0  0  0  0
  -33.3996   65.6792   62.5538 H   0  0  0  0  0  0  0  0  0  0  0  0
  2  1  1  0  0  0
  2  4  1  0  0  0
  2  5  1  0  0  0
 41 42  1  0  0  0
 41  1  1  0  0  0
 42 46  1  0  0  0
  1 24  1  0  0  0
 23 24  1  0  0  0
 23 25  1  0  0  0
 24 26  1  0  0  0
  3  4  2  0  0  0
 26 27  2  0  0  0
 27 28  1  0  0  0
 43 47  1  0  0  0
 43 51  1  0  0  0
 28 29  1  0  0  0
 56 48  1  0  0  0
 56 60  1  0  0  0
 29 30  1  0  0  0
 57 60  1  0  0  0
 57 61  1  0  0  0
 30 31  1  0  0  0
 44 49  1  0  0  0
 44 52  1  0  0  0
 31 32  1  0  0  0
 45 46  1  0  0  0
 45 50  1  0  0  0
 32 33  1  0  0  0
 53 54  1  0  0  0
 53 55  1  0  0  0
 33 34  1  0  0  0
 34 35  1  0  0  0
 35 36  1  0  0  0
 58 60  1  0  0  0
 36 37  1  0  0  0
 59 60  1  0  0  0
 59 62  1  0  0  0
 37 38  1  0  0  0
 38 39  1  0  0  0
 39 40  1  0  0  0
  4  6  1  0  0  0
  6  7  1  0  0  0
  7  8  1  0  0  0
  8  9  1  0  0  0
  9 10  1  0  0  0
 10 11  1  0  0  0
 11 12  1  0  0  0
 12 13  1  0  0  0
 13 14  1  0  0  0
 14 15  1  0  0  0
 15 16  1  0  0  0
 16 17  1  0  0  0
 17 18  1  0  0  0
 18 19  1  0  0  0
 19 20  1  0  0  0
 20 21  1  0  0  0
 21 22  1  0  0  0
 46 47  1  0  0  0
 47 48  1  0  0  0
 48 49  1  0  0  0
 49 50  1  0  0  0
 50 54  1  0  0  0
M  CHG 1  58  -1
M  END
> <minimizedAffinity>
-9.92950

> <CNNscore>
0.3724126220

> <CNNaffinity>
7.1716933250

> <CNN_VS>
2.6708290577

> <CNNaffinity_variance>
1.0921783447

$$$$
/media/chris/experiments/cd1a-new-docking/inputs/ligands/1onq_ligand.pdb


 62 62  0  0  0  0  0  0  0  0999 V2000
  -39.8793   58.8997   64.6281 C   0  0  0  0  0  0  0  0  0  0  0  0
  -40.9383   58.2979   65.4139 N   0  0  0  0  0  0  0  0  0  0  0  0
  -42.7659   59.4355   64.6977 O   0  0  0  0  0  0  0  0  0  0  0  0
  -42.2461   58.5895   65.3990 C   0  0  0  0  0  0  0  0  0  0  0  0
  -40.6623   57.5864   66.0359 H   0  0  0  0  0  0  0  0  0  0  0  0
  -43.0917   57.7748   66.3322 C   0  0  0  0  0  0  0  0  0  0  0  0
  -44.1793   58.7106   66.8601 C   0  0  0  0  0  0  0  0  0  0  0  0
  -45.5534   58.0730   66.6697 C   0  0  0  0  0  0  0  0  0  0  0  0
  -46.2204   58.3194   65.3382 C   0  0  0  0  0  0  0  0  0  0  0  0
  -46.7467   59.7508   65.3443 C   0  0  0  0  0  0  0  0  0  0  0  0
  -48.2747   59.8212   65.2207 C   0  0  0  0  0  0  0  0  0  0  0  0
  -49.0122   58.5950   65.7891 C   0  0  0  0  0  0  0  0  0  0  0  0
  -50.2885   58.2405   64.9949 C   0  0  0  0  0  0  0  0  0  0  0  0
  -50.8033   59.4614   64.2272 C   0  0  0  0  0  0  0  0  0  0  0  0
  -51.1983   59.1939   62.7800 C   0  0  0  0  0  0  0  0  0  0  0  0
  -50.5668   57.9214   62.2350 C   0  0  0  0  0  0  0  0  0  0  0  0
  -51.2007   57.3481   60.9656 C   0  0  0  0  0  0  0  0  0  0  0  0
  -50.2196   57.5373   59.8165 C   0  0  0  0  0  0  0  0  0  0  0  0
  -48.7923   57.9556   60.1376 C   0  0  0  0  0  0  0  0  0  0  0  0
  -47.8510   57.6456   58.9629 C   0  0  0  0  0  0  0  0  0  0  0  0
  -48.1990   56.3616   58.1875 C   0  0  0  0  0  0  0  0  0  0  0  0
  -47.3315   56.1502   56.9489 C   0  0  0  0  0  0  0  0  0  0  0  0
  -37.7431   58.0569   64.9778 O   0  0  0  0  0  0  0  0  0  0  0  0
  -38.9646   57.7200   64.3467 C   0  0  0  0  0  0  0  0  0  0  0  0
  -37.8881   58.1537   65.9319 H   0  0  0  0  0  0  0  0  0  0  0  0
  -38.8050   57.5520   62.8338 C   0  0  0  0  0  0  0  0  0  0  0  0
  -37.6933   57.0539   62.2660 C   0  0  0  0  0  0  0  0  0  0  0  0
  -37.6109   56.9183   60.7468 C   0  0  0  0  0  0  0  0  0  0  0  0
  -37.5538   58.2617   60.0051 C   0  0  0  0  0  0  0  0  0  0  0  0
  -37.0378   58.2015   58.5555 C   0  0  0  0  0  0  0  0  0  0  0  0
  -36.3713   56.8349   58.2661 C   0  0  0  0  0  0  0  0  0  0  0  0
  -34.8371   56.8789   58.0522 C   0  0  0  0  0  0  0  0  0  0  0  0
  -34.0563   55.8022   58.8421 C   0  0  0  0  0  0  0  0  0  0  0  0
  -34.0812   56.0183   60.3706 C   0  0  0  0  0  0  0  0  0  0  0  0
  -33.8346   57.4715   60.7933 C   0  0  0  0  0  0  0  0  0  0  0  0
  -34.1073   57.7998   62.2596 C   0  0  0  0  0  0  0  0  0  0  0  0
  -32.9507   58.5388   62.9611 C   0  0  0  0  0  0  0  0  0  0  0  0
  -31.7472   58.8707   62.0659 C   0  0  0  0  0  0  0  0  0  0  0  0
  -31.3081   60.3259   62.2519 C   0  0  0  0  0  0  0  0  0  0  0  0
  -30.0387   60.7454   61.5321 C   0  0  0  0  0  0  0  0  0  0  0  0
  -39.2286   60.1600   65.2423 C   0  0  0  0  0  0  0  0  0  0  0  0
  -38.5679   61.0634   64.3199 O   0  0  0  0  0  0  0  0  0  0  0  0
  -36.6687   61.5242   62.2323 O   0  0  0  0  0  0  0  0  0  0  0  0
  -35.4967   64.6707   64.7071 O   0  0  0  0  0  0  0  0  0  0  0  0
  -36.9838   62.2419   65.7295 O   0  0  0  0  0  0  0  0  0  0  0  0
  -37.1617   61.4669   64.5190 C   0  0  0  0  0  0  0  0  0  0  0  0
  -36.5287   62.2908   63.3885 C   0  0  0  0  0  0  0  0  0  0  0  0
  -35.0264   62.5814   63.5988 C   0  0  0  0  0  0  0  0  0  0  0  0
  -34.9260   63.3750   64.8722 C   0  0  0  0  0  0  0  0  0  0  0  0
  -35.6082   62.6236   66.0010 C   0  0  0  0  0  0  0  0  0  0  0  0
  -37.6077   61.3315   62.0839 H   0  0  0  0  0  0  0  0  0  0  0  0
  -35.0468   65.1323   63.9822 H   0  0  0  0  0  0  0  0  0  0  0  0
  -36.6450   63.9801   67.6739 O   0  0  0  0  0  0  0  0  0  0  0  0
  -35.4046   63.5860   67.1691 C   0  0  0  0  0  0  0  0  0  0  0  0
  -36.5129   64.5911   68.4156 H   0  0  0  0  0  0  0  0  0  0  0  0
  -34.3853   63.3782   62.5770 O   0  0  0  0  0  0  0  0  0  0  0  0
  -32.1274   63.8691   61.4032 O   0  0  0  0  0  0  0  0  0  0  0  0
  -32.1374   63.0930   63.7025 O   0  0  0  0  0  0  0  0  0  0  0  0
  -32.7627   65.3765   63.1838 O   0  0  0  0  0  0  0  0  0  0  0  0
  -32.8328   63.9632   62.7156 S   0  0  0  0  0  0  0  0  0  0  0  0
  -32.1627   62.9546   61.0821 H   0  0  0  0  0  0  0  0  0  0  0  0
  -33.2139   65.9513   62.5458 H   0  0  0  0  0  0  0  0  0  0  0  0
  2  1  1  0  0  0
  2  4  1  0  0  0
  2  5  1  0  0  0
 41 42  1  0  0  0
 41  1  1  0  0  0
 42 46  1  0  0  0
  1 24  1  0  0  0
 23 24  1  0  0  0
 23 25  1  0  0  0
 24 26  1  0  0  0
  3  4  2  0  0  0
 26 27  2  0  0  0
 27 28  1  0  0  0
 43 47  1  0  0  0
 43 51  1  0  0  0
 28 29  1  0  0  0
 56 48  1  0  0  0
 56 60  1  0  0  0
 29 30  1  0  0  0
 57 60  1  0  0  0
 57 61  1  0  0  0
 30 31  1  0  0  0
 44 49  1  0  0  0
 44 52  1  0  0  0
 31 32  1  0  0  0
 45 46  1  0  0  0
 45 50  1  0  0  0
 32 33  1  0  0  0
 53 54  1  0  0  0
 53 55  1  0  0  0
 33 34  1  0  0  0
 34 35  1  0  0  0
 35 36  1  0  0  0
 58 60  1  0  0  0
 36 37  1  0  0  0
 59 60  1  0  0  0
 59 62  1  0  0  0
 37 38  1  0  0  0
 38 39  1  0  0  0
 39 40  1  0  0  0
  4  6  1  0  0  0
  6  7  1  0  0  0
  7  8  1  0  0  0
  8  9  1  0  0  0
  9 10  1  0  0  0
 10 11  1  0  0  0
 11 12  1  0  0  0
 12 13  1  0  0  0
 13 14  1  0  0  0
 14 15  1  0  0  0
 15 16  1  0  0  0
 16 17  1  0  0  0
 17 18  1  0  0  0
 18 19  1  0  0  0
 19 20  1  0  0  0
 20 21  1  0  0  0
 21 22  1  0  0  0
 46 47  1  0  0  0
 47 48  1  0  0  0
 48 49  1  0  0  0
 49 50  1  0  0  0
 50 54  1  0  0  0
M  CHG 1  58  -1
M  END
> <minimizedAffinity>
-10.33587

> <CNNscore>
0.3552209437

> <CNNaffinity>
6.9278993607

> <CNN_VS>
2.4609348774

> <CNNaffinity_variance>
1.0016425848

$$$$
/media/chris/experiments/cd1a-new-docking/inputs/ligands/1onq_ligand.pdb


 62 62  0  0  0  0  0  0  0  0999 V2000
  -39.3485   59.2928   64.3471 C   0  0  0  0  0  0  0  0  0  0  0  0
  -38.2984   60.0275   65.0242 N   0  0  0  0  0  0  0  0  0  0  0  0
  -37.1741   60.9582   63.2872 O   0  0  0  0  0  0  0  0  0  0  0  0
  -37.3286   60.7745   64.4789 C   0  0  0  0  0  0  0  0  0  0  0  0
  -38.2975   59.9708   66.0071 H   0  0  0  0  0  0  0  0  0  0  0  0
  -36.3926   61.4183   65.4582 C   0  0  0  0  0  0  0  0  0  0  0  0
  -35.2527   62.0204   64.6365 C   0  0  0  0  0  0  0  0  0  0  0  0
  -35.4265   63.5337   64.5341 C   0  0  0  0  0  0  0  0  0  0  0  0
  -34.5105   64.3667   65.3976 C   0  0  0  0  0  0  0  0  0  0  0  0
  -33.3497   63.4771   65.8302 C   0  0  0  0  0  0  0  0  0  0  0  0
  -31.9936   63.9813   65.3186 C   0  0  0  0  0  0  0  0  0  0  0  0
  -32.0916   65.0263   64.1922 C   0  0  0  0  0  0  0  0  0  0  0  0
  -31.4644   64.5411   62.8667 C   0  0  0  0  0  0  0  0  0  0  0  0
  -32.4578   63.6783   62.0834 C   0  0  0  0  0  0  0  0  0  0  0  0
  -32.2818   62.1744   62.2560 C   0  0  0  0  0  0  0  0  0  0  0  0
  -30.8198   61.7555   62.2118 C   0  0  0  0  0  0  0  0  0  0  0  0
  -30.5513   60.2498   62.2666 C   0  0  0  0  0  0  0  0  0  0  0  0
  -31.7914   59.5265   61.7590 C   0  0  0  0  0  0  0  0  0  0  0  0
  -32.4447   58.4834   62.6536 C   0  0  0  0  0  0  0  0  0  0  0  0
  -33.8669   58.9112   63.0490 C   0  0  0  0  0  0  0  0  0  0  0  0
  -34.3174   58.4234   64.4384 C   0  0  0  0  0  0  0  0  0  0  0  0
  -35.4969   57.4552   64.3855 C   0  0  0  0  0  0  0  0  0  0  0  0
  -40.1137   60.5288   66.1589 O   0  0  0  0  0  0  0  0  0  0  0  0
  -40.5976   59.7481   65.0818 C   0  0  0  0  0  0  0  0  0  0  0  0
  -39.6271   61.2925   65.8116 H   0  0  0  0  0  0  0  0  0  0  0  0
  -41.3779   58.5224   65.5628 C   0  0  0  0  0  0  0  0  0  0  0  0
  -42.6086   58.6016   66.0969 C   0  0  0  0  0  0  0  0  0  0  0  0
  -43.3221   57.3308   66.5545 C   0  0  0  0  0  0  0  0  0  0  0  0
  -44.5928   57.0091   65.7547 C   0  0  0  0  0  0  0  0  0  0  0  0
  -45.5661   58.1844   65.5482 C   0  0  0  0  0  0  0  0  0  0  0  0
  -47.0299   57.6839   65.5032 C   0  0  0  0  0  0  0  0  0  0  0  0
  -48.0641   58.7098   64.9746 C   0  0  0  0  0  0  0  0  0  0  0  0
  -49.3458   58.0724   64.3880 C   0  0  0  0  0  0  0  0  0  0  0  0
  -50.5743   59.0066   64.4284 C   0  0  0  0  0  0  0  0  0  0  0  0
  -51.2852   59.1514   63.0775 C   0  0  0  0  0  0  0  0  0  0  0  0
  -50.4587   58.7991   61.8427 C   0  0  0  0  0  0  0  0  0  0  0  0
  -50.9648   57.5562   61.0844 C   0  0  0  0  0  0  0  0  0  0  0  0
  -50.2007   57.2199   59.7948 C   0  0  0  0  0  0  0  0  0  0  0  0
  -48.6973   57.1027   60.0610 C   0  0  0  0  0  0  0  0  0  0  0  0
  -47.7762   57.5316   58.9326 C   0  0  0  0  0  0  0  0  0  0  0  0
  -39.1230   57.7685   64.2263 C   0  0  0  0  0  0  0  0  0  0  0  0
  -38.8790   57.2530   62.8929 O   0  0  0  0  0  0  0  0  0  0  0  0
  -36.6037   56.5685   61.3018 O   0  0  0  0  0  0  0  0  0  0  0  0
  -38.8270   58.3867   58.2769 O   0  0  0  0  0  0  0  0  0  0  0  0
  -39.2715   58.9602   61.2145 O   0  0  0  0  0  0  0  0  0  0  0  0
  -38.2866   58.1024   61.8405 C   0  0  0  0  0  0  0  0  0  0  0  0
  -37.5759   57.3643   60.6970 C   0  0  0  0  0  0  0  0  0  0  0  0
  -36.8760   58.3051   59.6917 C   0  0  0  0  0  0  0  0  0  0  0  0
  -37.9575   59.1639   59.0966 C   0  0  0  0  0  0  0  0  0  0  0  0
  -38.7327   59.8546   60.2040 C   0  0  0  0  0  0  0  0  0  0  0  0
  -37.0256   55.9699   61.9379 H   0  0  0  0  0  0  0  0  0  0  0  0
  -38.3120   57.9550   57.5774 H   0  0  0  0  0  0  0  0  0  0  0  0
  -40.9039   59.8673   59.2043 O   0  0  0  0  0  0  0  0  0  0  0  0
  -39.7626   60.6466   59.4013 C   0  0  0  0  0  0  0  0  0  0  0  0
  -41.5563   60.3724   58.6944 H   0  0  0  0  0  0  0  0  0  0  0  0
  -36.2136   57.6638   58.5781 O   0  0  0  0  0  0  0  0  0  0  0  0
  -35.1309   55.3468   58.9976 O   0  0  0  0  0  0  0  0  0  0  0  0
  -34.0878   57.3387   59.9108 O   0  0  0  0  0  0  0  0  0  0  0  0
  -33.9199   56.8510   57.5426 O   0  0  0  0  0  0  0  0  0  0  0  0
  -34.8108   56.7813   58.7355 S   0  0  0  0  0  0  0  0  0  0  0  0
  -35.7111   55.2814   59.7722 H   0  0  0  0  0  0  0  0  0  0  0  0
  -34.3836   56.4893   56.7711 H   0  0  0  0  0  0  0  0  0  0  0  0
  2  1  1  0  0  0
  2  4  1  0  0  0
  2  5  1  0  0  0
 41 42  1  0  0  0
 41  1  1  0  0  0
 42 46  1  0  0  0
  1 24  1  0  0  0
 23 24  1  0  0  0
 23 25  1  0  0  0
 24 26  1  0  0  0
  3  4  2  0  0  0
 26 27  2  0  0  0
 27 28  1  0  0  0
 43 47  1  0  0  0
 43 51  1  0  0  0
 28 29  1  0  0  0
 56 48  1  0  0  0
 56 60  1  0  0  0
 29 30  1  0  0  0
 57 60  1  0  0  0
 57 61  1  0  0  0
 30 31  1  0  0  0
 44 49  1  0  0  0
 44 52  1  0  0  0
 31 32  1  0  0  0
 45 46  1  0  0  0
 45 50  1  0  0  0
 32 33  1  0  0  0
 53 54  1  0  0  0
 53 55  1  0  0  0
 33 34  1  0  0  0
 34 35  1  0  0  0
 35 36  1  0  0  0
 58 60  1  0  0  0
 36 37  1  0  0  0
 59 60  1  0  0  0
 59 62  1  0  0  0
 37 38  1  0  0  0
 38 39  1  0  0  0
 39 40  1  0  0  0
  4  6  1  0  0  0
  6  7  1  0  0  0
  7  8  1  0  0  0
  8  9  1  0  0  0
  9 10  1  0  0  0
 10 11  1  0  0  0
 11 12  1  0  0  0
 12 13  1  0  0  0
 13 14  1  0  0  0
 14 15  1  0  0  0
 15 16  1  0  0  0
 16 17  1  0  0  0
 17 18  1  0  0  0
 18 19  1  0  0  0
 19 20  1  0  0  0
 20 21  1  0  0  0
 21 22  1  0  0  0
 46 47  1  0  0  0
 47 48  1  0  0  0
 48 49  1  0  0  0
 49 50  1  0  0  0
 50 54  1  0  0  0
M  CHG 1  58  -1
M  END
> <minimizedAffinity>
-8.99349

> <CNNscore>
0.3300945759

> <CNNaffinity>
6.9531173706

> <CNN_VS>
2.2951862812

> <CNNaffinity_variance>
1.3542779684

$$$$
/media/chris/experiments/cd1a-new-docking/inputs/ligands/1onq_ligand.pdb


 62 62  0  0  0  0  0  0  0  0999 V2000
  -39.6540   59.1236   64.5732 C   0  0  0  0  0  0  0  0  0  0  0  0
  -40.9371   58.5067   64.8456 N   0  0  0  0  0  0  0  0  0  0  0  0
  -41.7079   59.7578   66.5742 O   0  0  0  0  0  0  0  0  0  0  0  0
  -41.8353   58.8459   65.7805 C   0  0  0  0  0  0  0  0  0  0  0  0
  -41.1787   57.7435   64.2725 H   0  0  0  0  0  0  0  0  0  0  0  0
  -43.0802   58.0096   65.8018 C   0  0  0  0  0  0  0  0  0  0  0  0
  -44.2567   58.9850   65.8414 C   0  0  0  0  0  0  0  0  0  0  0  0
  -45.2523   58.5578   66.9171 C   0  0  0  0  0  0  0  0  0  0  0  0
  -46.7111   58.6229   66.5344 C   0  0  0  0  0  0  0  0  0  0  0  0
  -46.8653   59.7249   65.4914 C   0  0  0  0  0  0  0  0  0  0  0  0
  -48.3286   59.9701   65.0999 C   0  0  0  0  0  0  0  0  0  0  0  0
  -49.3452   59.1310   65.8955 C   0  0  0  0  0  0  0  0  0  0  0  0
  -50.4924   58.5858   65.0167 C   0  0  0  0  0  0  0  0  0  0  0  0
  -51.1752   59.7240   64.2530 C   0  0  0  0  0  0  0  0  0  0  0  0
  -51.5248   59.4094   62.8035 C   0  0  0  0  0  0  0  0  0  0  0  0
  -50.5116   58.4782   62.1544 C   0  0  0  0  0  0  0  0  0  0  0  0
  -51.0841   57.4115   61.2180 C   0  0  0  0  0  0  0  0  0  0  0  0
  -49.9370   56.8262   60.4056 C   0  0  0  0  0  0  0  0  0  0  0  0
  -48.9466   57.7782   59.7512 C   0  0  0  0  0  0  0  0  0  0  0  0
  -47.6533   57.0445   59.3625 C   0  0  0  0  0  0  0  0  0  0  0  0
  -46.9845   57.5666   58.0776 C   0  0  0  0  0  0  0  0  0  0  0  0
  -47.3310   56.7436   56.8390 C   0  0  0  0  0  0  0  0  0  0  0  0
  -38.5781   59.9893   66.4411 O   0  0  0  0  0  0  0  0  0  0  0  0
  -38.8413   58.7538   65.8022 C   0  0  0  0  0  0  0  0  0  0  0  0
  -39.4157   60.4040   66.7004 H   0  0  0  0  0  0  0  0  0  0  0  0
  -37.5569   58.0449   65.3661 C   0  0  0  0  0  0  0  0  0  0  0  0
  -37.2656   57.7835   64.0804 C   0  0  0  0  0  0  0  0  0  0  0  0
  -35.9621   57.0704   63.7260 C   0  0  0  0  0  0  0  0  0  0  0  0
  -34.7052   57.7680   64.2660 C   0  0  0  0  0  0  0  0  0  0  0  0
  -34.2360   59.0028   63.4746 C   0  0  0  0  0  0  0  0  0  0  0  0
  -33.4727   58.5787   62.1967 C   0  0  0  0  0  0  0  0  0  0  0  0
  -32.8089   57.1797   62.2561 C   0  0  0  0  0  0  0  0  0  0  0  0
  -33.3341   56.1838   61.1952 C   0  0  0  0  0  0  0  0  0  0  0  0
  -34.2544   56.8343   60.1398 C   0  0  0  0  0  0  0  0  0  0  0  0
  -35.5239   56.0263   59.8449 C   0  0  0  0  0  0  0  0  0  0  0  0
  -36.8173   56.8290   59.7227 C   0  0  0  0  0  0  0  0  0  0  0  0
  -36.8066   58.1564   60.5062 C   0  0  0  0  0  0  0  0  0  0  0  0
  -38.1916   58.7417   60.8216 C   0  0  0  0  0  0  0  0  0  0  0  0
  -38.7513   59.5082   59.6199 C   0  0  0  0  0  0  0  0  0  0  0  0
  -40.0972   60.1830   59.8167 C   0  0  0  0  0  0  0  0  0  0  0  0
  -39.7029   60.6201   64.1897 C   0  0  0  0  0  0  0  0  0  0  0  0
  -38.6596   61.0962   63.3019 O   0  0  0  0  0  0  0  0  0  0  0  0
  -36.4084   61.8104   61.6897 O   0  0  0  0  0  0  0  0  0  0  0  0
  -35.7523   64.5664   64.7513 O   0  0  0  0  0  0  0  0  0  0  0  0
  -37.3792   62.0437   65.1318 O   0  0  0  0  0  0  0  0  0  0  0  0
  -37.3196   61.4460   63.8138 C   0  0  0  0  0  0  0  0  0  0  0  0
  -36.4949   62.4078   62.9466 C   0  0  0  0  0  0  0  0  0  0  0  0
  -35.0615   62.6427   63.4717 C   0  0  0  0  0  0  0  0  0  0  0  0
  -35.2092   63.2513   64.8389 C   0  0  0  0  0  0  0  0  0  0  0  0
  -36.0828   62.3623   65.7054 C   0  0  0  0  0  0  0  0  0  0  0  0
  -37.3010   61.6549   61.3435 H   0  0  0  0  0  0  0  0  0  0  0  0
  -35.1796   65.1163   64.1941 H   0  0  0  0  0  0  0  0  0  0  0  0
  -36.2978   62.2761   68.0845 O   0  0  0  0  0  0  0  0  0  0  0  0
  -36.1111   63.1510   67.0128 C   0  0  0  0  0  0  0  0  0  0  0  0
  -36.3154   62.7794   68.9135 H   0  0  0  0  0  0  0  0  0  0  0  0
  -34.2489   63.5626   62.7079 O   0  0  0  0  0  0  0  0  0  0  0  0
  -32.1314   64.2872   61.4010 O   0  0  0  0  0  0  0  0  0  0  0  0
  -32.4505   61.9475   61.9608 O   0  0  0  0  0  0  0  0  0  0  0  0
  -31.7862   63.5308   63.6715 O   0  0  0  0  0  0  0  0  0  0  0  0
  -32.6189   63.3430   62.4496 S   0  0  0  0  0  0  0  0  0  0  0  0
  -32.6625   64.1793   60.5966 H   0  0  0  0  0  0  0  0  0  0  0  0
  -31.8900   64.4386   63.9971 H   0  0  0  0  0  0  0  0  0  0  0  0
  2  1  1  0  0  0
  2  4  1  0  0  0
  2  5  1  0  0  0
 41 42  1  0  0  0
 41  1  1  0  0  0
 42 46  1  0  0  0
  1 24  1  0  0  0
 23 24  1  0  0  0
 23 25  1  0  0  0
 24 26  1  0  0  0
  3  4  2  0  0  0
 26 27  2  0  0  0
 27 28  1  0  0  0
 43 47  1  0  0  0
 43 51  1  0  0  0
 28 29  1  0  0  0
 56 48  1  0  0  0
 56 60  1  0  0  0
 29 30  1  0  0  0
 57 60  1  0  0  0
 57 61  1  0  0  0
 30 31  1  0  0  0
 44 49  1  0  0  0
 44 52  1  0  0  0
 31 32  1  0  0  0
 45 46  1  0  0  0
 45 50  1  0  0  0
 32 33  1  0  0  0
 53 54  1  0  0  0
 53 55  1  0  0  0
 33 34  1  0  0  0
 34 35  1  0  0  0
 35 36  1  0  0  0
 58 60  1  0  0  0
 36 37  1  0  0  0
 59 60  1  0  0  0
 59 62  1  0  0  0
 37 38  1  0  0  0
 38 39  1  0  0  0
 39 40  1  0  0  0
  4  6  1  0  0  0
  6  7  1  0  0  0
  7  8  1  0  0  0
  8  9  1  0  0  0
  9 10  1  0  0  0
 10 11  1  0  0  0
 11 12  1  0  0  0
 12 13  1  0  0  0
 13 14  1  0  0  0
 14 15  1  0  0  0
 15 16  1  0  0  0
 16 17  1  0  0  0
 17 18  1  0  0  0
 18 19  1  0  0  0
 19 20  1  0  0  0
 20 21  1  0  0  0
 21 22  1  0  0  0
 46 47  1  0  0  0
 47 48  1  0  0  0
 48 49  1  0  0  0
 49 50  1  0  0  0
 50 54  1  0  0  0
M  CHG 1  58  -1
M  END
> <minimizedAffinity>
-9.60886

> <CNNscore>
0.3120800257

> <CNNaffinity>
7.2614822388

> <CNN_VS>
2.2661635876

> <CNNaffinity_variance>
0.8748685718

$$$$
/media/chris/experiments/cd1a-new-docking/inputs/ligands/1onq_ligand.pdb


 62 62  0  0  0  0  0  0  0  0999 V2000
  -40.3131   58.8347   64.6399 C   0  0  0  0  0  0  0  0  0  0  0  0
  -41.3158   58.2103   65.4799 N   0  0  0  0  0  0  0  0  0  0  0  0
  -43.1726   59.4132   64.9769 O   0  0  0  0  0  0  0  0  0  0  0  0
  -42.6142   58.5236   65.5889 C   0  0  0  0  0  0  0  0  0  0  0  0
  -41.0043   57.4631   66.0402 H   0  0  0  0  0  0  0  0  0  0  0  0
  -43.3965   57.6754   66.5472 C   0  0  0  0  0  0  0  0  0  0  0  0
  -44.4333   56.9230   65.7130 C   0  0  0  0  0  0  0  0  0  0  0  0
  -45.7784   56.9160   66.4352 C   0  0  0  0  0  0  0  0  0  0  0  0
  -46.2991   58.2610   66.8809 C   0  0  0  0  0  0  0  0  0  0  0  0
  -46.7837   59.0021   65.6392 C   0  0  0  0  0  0  0  0  0  0  0  0
  -47.8685   58.2319   64.8746 C   0  0  0  0  0  0  0  0  0  0  0  0
  -49.1237   57.9133   65.7074 C   0  0  0  0  0  0  0  0  0  0  0  0
  -50.2913   58.8856   65.4297 C   0  0  0  0  0  0  0  0  0  0  0  0
  -50.0836   59.6123   64.0980 C   0  0  0  0  0  0  0  0  0  0  0  0
  -51.1969   59.4166   63.0759 C   0  0  0  0  0  0  0  0  0  0  0  0
  -51.0246   58.1358   62.2729 C   0  0  0  0  0  0  0  0  0  0  0  0
  -49.8642   58.1202   61.2752 C   0  0  0  0  0  0  0  0  0  0  0  0
  -50.2381   57.1954   60.1248 C   0  0  0  0  0  0  0  0  0  0  0  0
  -49.2863   57.0794   58.9434 C   0  0  0  0  0  0  0  0  0  0  0  0
  -47.8801   57.5725   59.3197 C   0  0  0  0  0  0  0  0  0  0  0  0
  -46.8946   57.6532   58.1393 C   0  0  0  0  0  0  0  0  0  0  0  0
  -47.3394   56.8421   56.9245 C   0  0  0  0  0  0  0  0  0  0  0  0
  -38.3155   57.8809   65.3440 O   0  0  0  0  0  0  0  0  0  0  0  0
  -39.3399   57.6967   64.3846 C   0  0  0  0  0  0  0  0  0  0  0  0
  -38.6914   57.8123   66.2355 H   0  0  0  0  0  0  0  0  0  0  0  0
  -38.8118   57.7932   62.9513 C   0  0  0  0  0  0  0  0  0  0  0  0
  -38.1360   56.7982   62.3517 C   0  0  0  0  0  0  0  0  0  0  0  0
  -37.6404   56.9722   60.9173 C   0  0  0  0  0  0  0  0  0  0  0  0
  -38.0584   58.3015   60.2722 C   0  0  0  0  0  0  0  0  0  0  0  0
  -37.2271   58.7413   59.0529 C   0  0  0  0  0  0  0  0  0  0  0  0
  -37.3426   57.7068   57.9074 C   0  0  0  0  0  0  0  0  0  0  0  0
  -36.2254   56.6335   57.8699 C   0  0  0  0  0  0  0  0  0  0  0  0
  -34.7907   57.2116   57.8906 C   0  0  0  0  0  0  0  0  0  0  0  0
  -33.7919   56.3561   58.6995 C   0  0  0  0  0  0  0  0  0  0  0  0
  -34.3140   55.9351   60.0784 C   0  0  0  0  0  0  0  0  0  0  0  0
  -33.3382   56.0923   61.2425 C   0  0  0  0  0  0  0  0  0  0  0  0
  -33.1960   57.5413   61.7488 C   0  0  0  0  0  0  0  0  0  0  0  0
  -34.5099   58.2230   62.1599 C   0  0  0  0  0  0  0  0  0  0  0  0
  -34.9676   57.7472   63.5415 C   0  0  0  0  0  0  0  0  0  0  0  0
  -34.7241   58.6998   64.6986 C   0  0  0  0  0  0  0  0  0  0  0  0
  -39.7202   60.1556   65.1808 C   0  0  0  0  0  0  0  0  0  0  0  0
  -38.9249   60.9370   64.2532 O   0  0  0  0  0  0  0  0  0  0  0  0
  -36.8591   61.1096   62.2835 O   0  0  0  0  0  0  0  0  0  0  0  0
  -35.5964   64.3079   64.6447 O   0  0  0  0  0  0  0  0  0  0  0  0
  -37.3455   62.0758   65.7003 O   0  0  0  0  0  0  0  0  0  0  0  0
  -37.5063   61.2402   64.5283 C   0  0  0  0  0  0  0  0  0  0  0  0
  -36.7330   61.9363   63.3992 C   0  0  0  0  0  0  0  0  0  0  0  0
  -35.2291   62.1203   63.6990 C   0  0  0  0  0  0  0  0  0  0  0  0
  -35.1479   62.9845   64.9269 C   0  0  0  0  0  0  0  0  0  0  0  0
  -35.9641   62.3644   66.0465 C   0  0  0  0  0  0  0  0  0  0  0  0
  -37.7990   60.9824   62.0799 H   0  0  0  0  0  0  0  0  0  0  0  0
  -35.0623   64.6843   63.9278 H   0  0  0  0  0  0  0  0  0  0  0  0
  -36.8566   64.2422   67.2257 O   0  0  0  0  0  0  0  0  0  0  0  0
  -35.7592   63.3815   67.1670 C   0  0  0  0  0  0  0  0  0  0  0  0
  -36.7241   64.8872   67.9380 H   0  0  0  0  0  0  0  0  0  0  0  0
  -34.4572   62.7958   62.6803 O   0  0  0  0  0  0  0  0  0  0  0  0
  -32.1555   62.9631   63.8598 O   0  0  0  0  0  0  0  0  0  0  0  0
  -32.3720   63.6775   61.5507 O   0  0  0  0  0  0  0  0  0  0  0  0
  -32.3432   61.3168   62.0990 O   0  0  0  0  0  0  0  0  0  0  0  0
  -32.8030   62.6613   62.5489 S   0  0  0  0  0  0  0  0  0  0  0  0
  -32.4434   63.8362   64.1692 H   0  0  0  0  0  0  0  0  0  0  0  0
  -32.6200   60.6477   62.7445 H   0  0  0  0  0  0  0  0  0  0  0  0
  2  1  1  0  0  0
  2  4  1  0  0  0
  2  5  1  0  0  0
 41 42  1  0  0  0
 41  1  1  0  0  0
 42 46  1  0  0  0
  1 24  1  0  0  0
 23 24  1  0  0  0
 23 25  1  0  0  0
 24 26  1  0  0  0
  3  4  2  0  0  0
 26 27  2  0  0  0
 27 28  1  0  0  0
 43 47  1  0  0  0
 43 51  1  0  0  0
 28 29  1  0  0  0
 56 48  1  0  0  0
 56 60  1  0  0  0
 29 30  1  0  0  0
 57 60  1  0  0  0
 57 61  1  0  0  0
 30 31  1  0  0  0
 44 49  1  0  0  0
 44 52  1  0  0  0
 31 32  1  0  0  0
 45 46  1  0  0  0
 45 50  1  0  0  0
 32 33  1  0  0  0
 53 54  1  0  0  0
 53 55  1  0  0  0
 33 34  1  0  0  0
 34 35  1  0  0  0
 35 36  1  0  0  0
 58 60  1  0  0  0
 36 37  1  0  0  0
 59 60  1  0  0  0
 59 62  1  0  0  0
 37 38  1  0  0  0
 38 39  1  0  0  0
 39 40  1  0  0  0
  4  6  1  0  0  0
  6  7  1  0  0  0
  7  8  1  0  0  0
  8  9  1  0  0  0
  9 10  1  0  0  0
 10 11  1  0  0  0
 11 12  1  0  0  0
 12 13  1  0  0  0
 13 14  1  0  0  0
 14 15  1  0  0  0
 15 16  1  0  0  0
 16 17  1  0  0  0
 17 18  1  0  0  0
 18 19  1  0  0  0
 19 20  1  0  0  0
 20 21  1  0  0  0
 21 22  1  0  0  0
 46 47  1  0  0  0
 47 48  1  0  0  0
 48 49  1  0  0  0
 49 50  1  0  0  0
 50 54  1  0  0  0
M  CHG 1  58  -1
M  END
> <minimizedAffinity>
-10.32885

> <CNNscore>
0.3087761104

> <CNNaffinity>
7.0930891037

> <CNN_VS>
2.1901764870

> <CNNaffinity_variance>
1.3179748058

$$$$
/media/chris/experiments/cd1a-new-docking/inputs/ligands/1onq_ligand.pdb


 62 62  0  0  0  0  0  0  0  0999 V2000
  -40.0312   59.3382   64.4417 C   0  0  0  0  0  0  0  0  0  0  0  0
  -40.0395   59.3845   62.9929 N   0  0  0  0  0  0  0  0  0  0  0  0
  -40.8769   61.4540   62.5888 O   0  0  0  0  0  0  0  0  0  0  0  0
  -40.4411   60.3877   62.2005 C   0  0  0  0  0  0  0  0  0  0  0  0
  -39.7089   58.5787   62.5341 H   0  0  0  0  0  0  0  0  0  0  0  0
  -40.3152   60.1273   60.7287 C   0  0  0  0  0  0  0  0  0  0  0  0
  -38.8263   59.9185   60.4516 C   0  0  0  0  0  0  0  0  0  0  0  0
  -38.6398   59.2026   59.1161 C   0  0  0  0  0  0  0  0  0  0  0  0
  -37.2238   58.8181   58.7615 C   0  0  0  0  0  0  0  0  0  0  0  0
  -37.2947   57.6556   57.7769 C   0  0  0  0  0  0  0  0  0  0  0  0
  -36.2616   56.5611   58.0765 C   0  0  0  0  0  0  0  0  0  0  0  0
  -34.7979   57.0207   57.9470 C   0  0  0  0  0  0  0  0  0  0  0  0
  -33.8342   56.2168   58.8474 C   0  0  0  0  0  0  0  0  0  0  0  0
  -34.5319   55.7947   60.1435 C   0  0  0  0  0  0  0  0  0  0  0  0
  -33.7661   56.1139   61.4217 C   0  0  0  0  0  0  0  0  0  0  0  0
  -33.2369   57.5403   61.4367 C   0  0  0  0  0  0  0  0  0  0  0  0
  -33.0179   58.1603   62.8187 C   0  0  0  0  0  0  0  0  0  0  0  0
  -34.3699   58.6041   63.3608 C   0  0  0  0  0  0  0  0  0  0  0  0
  -35.0356   57.7614   64.4387 C   0  0  0  0  0  0  0  0  0  0  0  0
  -36.4464   57.3308   64.0070 C   0  0  0  0  0  0  0  0  0  0  0  0
  -36.8679   57.8306   62.6128 C   0  0  0  0  0  0  0  0  0  0  0  0
  -37.6922   56.8115   61.8296 C   0  0  0  0  0  0  0  0  0  0  0  0
  -41.0456   60.9439   65.7791 O   0  0  0  0  0  0  0  0  0  0  0  0
  -41.3643   59.9718   64.8007 C   0  0  0  0  0  0  0  0  0  0  0  0
  -40.4482   61.6048   65.3956 H   0  0  0  0  0  0  0  0  0  0  0  0
  -42.3075   58.8953   65.3430 C   0  0  0  0  0  0  0  0  0  0  0  0
  -43.6375   59.0659   65.4341 C   0  0  0  0  0  0  0  0  0  0  0  0
  -44.5119   57.9426   65.9879 C   0  0  0  0  0  0  0  0  0  0  0  0
  -45.8960   58.4088   66.4624 C   0  0  0  0  0  0  0  0  0  0  0  0
  -46.6548   59.3362   65.4954 C   0  0  0  0  0  0  0  0  0  0  0  0
  -47.7939   58.5704   64.7801 C   0  0  0  0  0  0  0  0  0  0  0  0
  -48.9404   58.0793   65.6998 C   0  0  0  0  0  0  0  0  0  0  0  0
  -50.3560   58.4602   65.2058 C   0  0  0  0  0  0  0  0  0  0  0  0
  -50.3807   59.7211   64.3151 C   0  0  0  0  0  0  0  0  0  0  0  0
  -51.1537   59.5363   63.0038 C   0  0  0  0  0  0  0  0  0  0  0  0
  -51.1345   58.1314   62.4054 C   0  0  0  0  0  0  0  0  0  0  0  0
  -49.9221   57.8556   61.4944 C   0  0  0  0  0  0  0  0  0  0  0  0
  -50.1723   56.8535   60.3571 C   0  0  0  0  0  0  0  0  0  0  0  0
  -49.3062   57.1789   59.1370 C   0  0  0  0  0  0  0  0  0  0  0  0
  -47.8574   57.5395   59.4141 C   0  0  0  0  0  0  0  0  0  0  0  0
  -38.7717   59.9243   65.1193 C   0  0  0  0  0  0  0  0  0  0  0  0
  -38.2672   61.1727   64.5803 O   0  0  0  0  0  0  0  0  0  0  0  0
  -36.1651   61.5910   62.6873 O   0  0  0  0  0  0  0  0  0  0  0  0
  -35.4044   64.9370   65.0590 O   0  0  0  0  0  0  0  0  0  0  0  0
  -36.8996   62.5096   66.0728 O   0  0  0  0  0  0  0  0  0  0  0  0
  -36.9094   61.6532   64.9048 C   0  0  0  0  0  0  0  0  0  0  0  0
  -36.1865   62.4339   63.7979 C   0  0  0  0  0  0  0  0  0  0  0  0
  -34.7300   62.8071   64.1516 C   0  0  0  0  0  0  0  0  0  0  0  0
  -34.8050   63.6822   65.3722 C   0  0  0  0  0  0  0  0  0  0  0  0
  -35.5795   62.9714   66.4673 C   0  0  0  0  0  0  0  0  0  0  0  0
  -37.0731   61.3457   62.4501 H   0  0  0  0  0  0  0  0  0  0  0  0
  -34.8945   65.3731   64.3585 H   0  0  0  0  0  0  0  0  0  0  0  0
  -34.2377   64.4609   67.7690 O   0  0  0  0  0  0  0  0  0  0  0  0
  -35.5468   64.0131   67.5835 C   0  0  0  0  0  0  0  0  0  0  0  0
  -34.2197   65.1223   68.4783 H   0  0  0  0  0  0  0  0  0  0  0  0
  -34.0102   63.5679   63.1551 O   0  0  0  0  0  0  0  0  0  0  0  0
  -32.3390   63.7438   61.1821 O   0  0  0  0  0  0  0  0  0  0  0  0
  -32.6804   61.6039   62.2746 O   0  0  0  0  0  0  0  0  0  0  0  0
  -31.3841   63.3369   63.3658 O   0  0  0  0  0  0  0  0  0  0  0  0
  -32.5646   63.0710   62.4956 S   0  0  0  0  0  0  0  0  0  0  0  0
  -33.0986   63.5815   60.6011 H   0  0  0  0  0  0  0  0  0  0  0  0
  -31.3009   64.2917   63.5151 H   0  0  0  0  0  0  0  0  0  0  0  0
  2  1  1  0  0  0
  2  4  1  0  0  0
  2  5  1  0  0  0
 41 42  1  0  0  0
 41  1  1  0  0  0
 42 46  1  0  0  0
  1 24  1  0  0  0
 23 24  1  0  0  0
 23 25  1  0  0  0
 24 26  1  0  0  0
  3  4  2  0  0  0
 26 27  2  0  0  0
 27 28  1  0  0  0
 43 47  1  0  0  0
 43 51  1  0  0  0
 28 29  1  0  0  0
 56 48  1  0  0  0
 56 60  1  0  0  0
 29 30  1  0  0  0
 57 60  1  0  0  0
 57 61  1  0  0  0
 30 31  1  0  0  0
 44 49  1  0  0  0
 44 52  1  0  0  0
 31 32  1  0  0  0
 45 46  1  0  0  0
 45 50  1  0  0  0
 32 33  1  0  0  0
 53 54  1  0  0  0
 53 55  1  0  0  0
 33 34  1  0  0  0
 34 35  1  0  0  0
 35 36  1  0  0  0
 58 60  1  0  0  0
 36 37  1  0  0  0
 59 60  1  0  0  0
 59 62  1  0  0  0
 37 38  1  0  0  0
 38 39  1  0  0  0
 39 40  1  0  0  0
  4  6  1  0  0  0
  6  7  1  0  0  0
  7  8  1  0  0  0
  8  9  1  0  0  0
  9 10  1  0  0  0
 10 11  1  0  0  0
 11 12  1  0  0  0
 12 13  1  0  0  0
 13 14  1  0  0  0
 14 15  1  0  0  0
 15 16  1  0  0  0
 16 17  1  0  0  0
 17 18  1  0  0  0
 18 19  1  0  0  0
 19 20  1  0  0  0
 20 21  1  0  0  0
 21 22  1  0  0  0
 46 47  1  0  0  0
 47 48  1  0  0  0
 48 49  1  0  0  0
 49 50  1  0  0  0
 50 54  1  0  0  0
M  CHG 1  58  -1
M  END
> <minimizedAffinity>
-9.73791

> <CNNscore>
0.2851753533

> <CNNaffinity>
7.3338990211

> <CNN_VS>
2.0914473534

> <CNNaffinity_variance>
1.0376539230

$$$$
/media/chris/experiments/cd1a-new-docking/inputs/ligands/1onq_ligand.pdb


 62 62  0  0  0  0  0  0  0  0999 V2000
  -39.5081   59.3227   63.2771 C   0  0  0  0  0  0  0  0  0  0  0  0
  -40.1654   59.4289   64.5647 N   0  0  0  0  0  0  0  0  0  0  0  0
  -41.4634   61.2685   64.2848 O   0  0  0  0  0  0  0  0  0  0  0  0
  -41.0549   60.3477   64.9652 C   0  0  0  0  0  0  0  0  0  0  0  0
  -39.9289   58.7403   65.2274 H   0  0  0  0  0  0  0  0  0  0  0  0
  -41.5607   60.1769   66.3668 C   0  0  0  0  0  0  0  0  0  0  0  0
  -42.1268   58.7594   66.4535 C   0  0  0  0  0  0  0  0  0  0  0  0
  -43.6525   58.8042   66.4200 C   0  0  0  0  0  0  0  0  0  0  0  0
  -44.2837   58.8967   65.0519 C   0  0  0  0  0  0  0  0  0  0  0  0
  -45.3411   57.8018   64.9572 C   0  0  0  0  0  0  0  0  0  0  0  0
  -46.7115   58.3371   64.5210 C   0  0  0  0  0  0  0  0  0  0  0  0
  -47.1125   59.6659   65.1873 C   0  0  0  0  0  0  0  0  0  0  0  0
  -48.2599   59.5033   66.2084 C   0  0  0  0  0  0  0  0  0  0  0  0
  -48.8982   58.1167   66.0871 C   0  0  0  0  0  0  0  0  0  0  0  0
  -50.3462   58.1126   65.6120 C   0  0  0  0  0  0  0  0  0  0  0  0
  -50.7660   59.4535   65.0283 C   0  0  0  0  0  0  0  0  0  0  0  0
  -51.2223   59.4363   63.5676 C   0  0  0  0  0  0  0  0  0  0  0  0
  -50.5025   58.2977   62.8577 C   0  0  0  0  0  0  0  0  0  0  0  0
  -50.2132   58.4328   61.3700 C   0  0  0  0  0  0  0  0  0  0  0  0
  -50.6478   57.1706   60.6084 C   0  0  0  0  0  0  0  0  0  0  0  0
  -49.4844   56.3022   60.0950 C   0  0  0  0  0  0  0  0  0  0  0  0
  -48.2557   57.1149   59.6934 C   0  0  0  0  0  0  0  0  0  0  0  0
  -39.6897   57.2882   64.3833 O   0  0  0  0  0  0  0  0  0  0  0  0
  -39.0828   57.8648   63.2419 C   0  0  0  0  0  0  0  0  0  0  0  0
  -40.6539   57.3621   64.3089 H   0  0  0  0  0  0  0  0  0  0  0  0
  -37.5555   57.7810   63.2963 C   0  0  0  0  0  0  0  0  0  0  0  0
  -36.8802   57.4439   64.4083 C   0  0  0  0  0  0  0  0  0  0  0  0
  -35.3541   57.3833   64.3821 C   0  0  0  0  0  0  0  0  0  0  0  0
  -34.6750   58.7521   64.5347 C   0  0  0  0  0  0  0  0  0  0  0  0
  -34.1279   59.3732   63.2362 C   0  0  0  0  0  0  0  0  0  0  0  0
  -32.6703   58.9190   62.9818 C   0  0  0  0  0  0  0  0  0  0  0  0
  -32.5110   57.7133   62.0213 C   0  0  0  0  0  0  0  0  0  0  0  0
  -33.7096   57.5013   61.0666 C   0  0  0  0  0  0  0  0  0  0  0  0
  -34.2768   56.0656   61.0970 C   0  0  0  0  0  0  0  0  0  0  0  0
  -34.5744   55.4894   59.7075 C   0  0  0  0  0  0  0  0  0  0  0  0
  -36.0390   55.1742   59.4109 C   0  0  0  0  0  0  0  0  0  0  0  0
  -36.6278   55.9815   58.2373 C   0  0  0  0  0  0  0  0  0  0  0  0
  -36.2693   57.4754   58.2251 C   0  0  0  0  0  0  0  0  0  0  0  0
  -37.5303   58.3437   58.2521 C   0  0  0  0  0  0  0  0  0  0  0  0
  -37.8049   59.0956   59.5424 C   0  0  0  0  0  0  0  0  0  0  0  0
  -38.4144   60.3787   62.9989 C   0  0  0  0  0  0  0  0  0  0  0  0
  -38.1690   61.3497   64.0479 O   0  0  0  0  0  0  0  0  0  0  0  0
  -36.1679   62.1688   62.1766 O   0  0  0  0  0  0  0  0  0  0  0  0
  -35.2930   64.9743   65.1369 O   0  0  0  0  0  0  0  0  0  0  0  0
  -36.7292   62.3734   65.7105 O   0  0  0  0  0  0  0  0  0  0  0  0
  -36.7973   61.7713   64.3950 C   0  0  0  0  0  0  0  0  0  0  0  0
  -36.1339   62.7690   63.4347 C   0  0  0  0  0  0  0  0  0  0  0  0
  -34.6619   63.0808   63.7837 C   0  0  0  0  0  0  0  0  0  0  0  0
  -34.6757   63.6896   65.1587 C   0  0  0  0  0  0  0  0  0  0  0  0
  -35.3915   62.7621   66.1240 C   0  0  0  0  0  0  0  0  0  0  0  0
  -37.0864   61.9654   61.9403 H   0  0  0  0  0  0  0  0  0  0  0  0
  -34.8207   65.5495   64.5149 H   0  0  0  0  0  0  0  0  0  0  0  0
  -36.5821   63.9553   67.8188 O   0  0  0  0  0  0  0  0  0  0  0  0
  -35.3036   63.5565   67.4253 C   0  0  0  0  0  0  0  0  0  0  0  0
  -36.5235   64.4595   68.6453 H   0  0  0  0  0  0  0  0  0  0  0  0
  -33.9958   64.0366   62.9276 O   0  0  0  0  0  0  0  0  0  0  0  0
  -32.4013   62.7896   61.3092 O   0  0  0  0  0  0  0  0  0  0  0  0
  -31.6306   63.3746   63.5347 O   0  0  0  0  0  0  0  0  0  0  0  0
  -31.8307   65.0816   61.8257 O   0  0  0  0  0  0  0  0  0  0  0  0
  -32.4388   63.8359   62.3734 S   0  0  0  0  0  0  0  0  0  0  0  0
  -32.7937   61.9698   61.6479 H   0  0  0  0  0  0  0  0  0  0  0  0
  -32.3516   65.3896   61.0676 H   0  0  0  0  0  0  0  0  0  0  0  0
  2  1  1  0  0  0
  2  4  1  0  0  0
  2  5  1  0  0  0
 41 42  1  0  0  0
 41  1  1  0  0  0
 42 46  1  0  0  0
  1 24  1  0  0  0
 23 24  1  0  0  0
 23 25  1  0  0  0
 24 26  1  0  0  0
  3  4  2  0  0  0
 26 27  2  0  0  0
 27 28  1  0  0  0
 43 47  1  0  0  0
 43 51  1  0  0  0
 28 29  1  0  0  0
 56 48  1  0  0  0
 56 60  1  0  0  0
 29 30  1  0  0  0
 57 60  1  0  0  0
 57 61  1  0  0  0
 30 31  1  0  0  0
 44 49  1  0  0  0
 44 52  1  0  0  0
 31 32  1  0  0  0
 45 46  1  0  0  0
 45 50  1  0  0  0
 32 33  1  0  0  0
 53 54  1  0  0  0
 53 55  1  0  0  0
 33 34  1  0  0  0
 34 35  1  0  0  0
 35 36  1  0  0  0
 58 60  1  0  0  0
 36 37  1  0  0  0
 59 60  1  0  0  0
 59 62  1  0  0  0
 37 38  1  0  0  0
 38 39  1  0  0  0
 39 40  1  0  0  0
  4  6  1  0  0  0
  6  7  1  0  0  0
  7  8  1  0  0  0
  8  9  1  0  0  0
  9 10  1  0  0  0
 10 11  1  0  0  0
 11 12  1  0  0  0
 12 13  1  0  0  0
 13 14  1  0  0  0
 14 15  1  0  0  0
 15 16  1  0  0  0
 16 17  1  0  0  0
 17 18  1  0  0  0
 18 19  1  0  0  0
 19 20  1  0  0  0
 20 21  1  0  0  0
 21 22  1  0  0  0
 46 47  1  0  0  0
 47 48  1  0  0  0
 48 49  1  0  0  0
 49 50  1  0  0  0
 50 54  1  0  0  0
M  CHG 1  58  -1
M  END
> <minimizedAffinity>
-9.66549

> <CNNscore>
0.2173834145

> <CNNaffinity>
7.0673065186

> <CNN_VS>
1.5363152027

> <CNNaffinity_variance>
1.4854742289

$$$$
