/media/chris/experiments/cd1a-new-docking/inputs/ligands/1onq_ligand.pdb


 62 62  0  0  0  0  0  0  0  0999 V2000
  -40.1786   59.2115   65.0310 C   0  0  0  0  0  0  0  0  0  0  0  0
  -39.7027   58.3979   63.9298 N   0  0  0  0  0  0  0  0  0  0  0  0
  -37.7771   57.5414   64.7700 O   0  0  0  0  0  0  0  0  0  0  0  0
  -38.5899   57.6534   63.8731 C   0  0  0  0  0  0  0  0  0  0  0  0
  -40.2671   58.3913   63.1233 H   0  0  0  0  0  0  0  0  0  0  0  0
  -38.3817   56.9151   62.5842 C   0  0  0  0  0  0  0  0  0  0  0  0
  -36.9840   57.2898   62.0911 C   0  0  0  0  0  0  0  0  0  0  0  0
  -37.0760   58.4295   61.0793 C   0  0  0  0  0  0  0  0  0  0  0  0
  -38.4569   58.7421   60.5560 C   0  0  0  0  0  0  0  0  0  0  0  0
  -38.2991   59.3070   59.1482 C   0  0  0  0  0  0  0  0  0  0  0  0
  -37.0458   58.7816   58.4354 C   0  0  0  0  0  0  0  0  0  0  0  0
  -37.2742   57.4948   57.6214 C   0  0  0  0  0  0  0  0  0  0  0  0
  -36.1495   56.4541   57.8155 C   0  0  0  0  0  0  0  0  0  0  0  0
  -36.5349   55.4375   58.8940 C   0  0  0  0  0  0  0  0  0  0  0  0
  -35.3703   54.8918   59.7114 C   0  0  0  0  0  0  0  0  0  0  0  0
  -34.1685   55.8249   59.6985 C   0  0  0  0  0  0  0  0  0  0  0  0
  -33.5740   56.1722   61.0653 C   0  0  0  0  0  0  0  0  0  0  0  0
  -33.4356   57.6861   61.1531 C   0  0  0  0  0  0  0  0  0  0  0  0
  -32.4624   58.2719   62.1655 C   0  0  0  0  0  0  0  0  0  0  0  0
  -33.0888   59.4657   62.9034 C   0  0  0  0  0  0  0  0  0  0  0  0
  -34.4007   59.1428   63.6421 C   0  0  0  0  0  0  0  0  0  0  0  0
  -34.2387   58.0756   64.7221 C   0  0  0  0  0  0  0  0  0  0  0  0
  -41.3227   61.0903   64.2844 O   0  0  0  0  0  0  0  0  0  0  0  0
  -41.5199   59.7084   64.5197 C   0  0  0  0  0  0  0  0  0  0  0  0
  -40.6370   61.2084   63.6085 H   0  0  0  0  0  0  0  0  0  0  0  0
  -42.5934   59.4515   65.5800 C   0  0  0  0  0  0  0  0  0  0  0  0
  -43.7575   58.8371   65.3090 C   0  0  0  0  0  0  0  0  0  0  0  0
  -44.7792   58.6185   66.4232 C   0  0  0  0  0  0  0  0  0  0  0  0
  -46.2303   58.8852   65.9973 C   0  0  0  0  0  0  0  0  0  0  0  0
  -46.6852   58.1836   64.7043 C   0  0  0  0  0  0  0  0  0  0  0  0
  -48.2143   57.9446   64.7179 C   0  0  0  0  0  0  0  0  0  0  0  0
  -49.0402   58.8927   63.8119 C   0  0  0  0  0  0  0  0  0  0  0  0
  -50.4055   58.3157   63.3694 C   0  0  0  0  0  0  0  0  0  0  0  0
  -50.7397   58.5879   61.8868 C   0  0  0  0  0  0  0  0  0  0  0  0
  -51.0333   57.3195   61.0767 C   0  0  0  0  0  0  0  0  0  0  0  0
  -49.9744   56.9173   60.0522 C   0  0  0  0  0  0  0  0  0  0  0  0
  -48.7897   57.8991   59.9582 C   0  0  0  0  0  0  0  0  0  0  0  0
  -47.4347   57.2595   59.6196 C   0  0  0  0  0  0  0  0  0  0  0  0
  -46.9113   57.7616   58.2709 C   0  0  0  0  0  0  0  0  0  0  0  0
  -47.1891   56.8783   57.0677 C   0  0  0  0  0  0  0  0  0  0  0  0
  -39.1868   60.2784   65.5476 C   0  0  0  0  0  0  0  0  0  0  0  0
  -38.5343   61.0970   64.5439 O   0  0  0  0  0  0  0  0  0  0  0  0
  -36.7337   61.6639   62.3959 O   0  0  0  0  0  0  0  0  0  0  0  0
  -35.5161   64.7495   64.9249 O   0  0  0  0  0  0  0  0  0  0  0  0
  -36.9138   62.2594   65.9254 O   0  0  0  0  0  0  0  0  0  0  0  0
  -37.1285   61.5213   64.6979 C   0  0  0  0  0  0  0  0  0  0  0  0
  -36.5590   62.3945   63.5705 C   0  0  0  0  0  0  0  0  0  0  0  0
  -35.0548   62.7076   63.7279 C   0  0  0  0  0  0  0  0  0  0  0  0
  -34.9152   63.4605   65.0221 C   0  0  0  0  0  0  0  0  0  0  0  0
  -35.5352   62.6589   66.1522 C   0  0  0  0  0  0  0  0  0  0  0  0
  -37.6745   61.4577   62.2803 H   0  0  0  0  0  0  0  0  0  0  0  0
  -35.1057   65.2435   64.1979 H   0  0  0  0  0  0  0  0  0  0  0  0
  -36.5270   64.0069   67.8589 O   0  0  0  0  0  0  0  0  0  0  0  0
  -35.3001   63.5859   67.3428 C   0  0  0  0  0  0  0  0  0  0  0  0
  -36.3749   64.5955   68.6148 H   0  0  0  0  0  0  0  0  0  0  0  0
  -34.4721   63.5503   62.7078 O   0  0  0  0  0  0  0  0  0  0  0  0
  -32.3771   63.8366   61.2093 O   0  0  0  0  0  0  0  0  0  0  0  0
  -32.1487   62.8341   63.4075 O   0  0  0  0  0  0  0  0  0  0  0  0
  -32.4816   65.2246   63.1864 O   0  0  0  0  0  0  0  0  0  0  0  0
  -32.8448   63.8921   62.6260 S   0  0  0  0  0  0  0  0  0  0  0  0
  -32.6050   62.9747   60.8270 H   0  0  0  0  0  0  0  0  0  0  0  0
  -32.9314   65.9207   62.6823 H   0  0  0  0  0  0  0  0  0  0  0  0
  2  1  1  0  0  0
  2  4  1  0  0  0
  2  5  1  0  0  0
 41 42  1  0  0  0
 41  1  1  0  0  0
 42 46  1  0  0  0
  1 24  1  0  0  0
 23 24  1  0  0  0
 23 25  1  0  0  0
 24 26  1  0  0  0
  3  4  2  0  0  0
 26 27  2  0  0  0
 27 28  1  0  0  0
 43 47  1  0  0  0
 43 51  1  0  0  0
 28 29  1  0  0  0
 56 48  1  0  0  0
 56 60  1  0  0  0
 29 30  1  0  0  0
 57 60  1  0  0  0
 57 61  1  0  0  0
 30 31  1  0  0  0
 44 49  1  0  0  0
 44 52  1  0  0  0
 31 32  1  0  0  0
 45 46  1  0  0  0
 45 50  1  0  0  0
 32 33  1  0  0  0
 53 54  1  0  0  0
 53 55  1  0  0  0
 33 34  1  0  0  0
 34 35  1  0  0  0
 35 36  1  0  0  0
 58 60  1  0  0  0
 36 37  1  0  0  0
 59 60  1  0  0  0
 59 62  1  0  0  0
 37 38  1  0  0  0
 38 39  1  0  0  0
 39 40  1  0  0  0
  4  6  1  0  0  0
  6  7  1  0  0  0
  7  8  1  0  0  0
  8  9  1  0  0  0
  9 10  1  0  0  0
 10 11  1  0  0  0
 11 12  1  0  0  0
 12 13  1  0  0  0
 13 14  1  0  0  0
 14 15  1  0  0  0
 15 16  1  0  0  0
 16 17  1  0  0  0
 17 18  1  0  0  0
 18 19  1  0  0  0
 19 20  1  0  0  0
 20 21  1  0  0  0
 21 22  1  0  0  0
 46 47  1  0  0  0
 47 48  1  0  0  0
 48 49  1  0  0  0
 49 50  1  0  0  0
 50 54  1  0  0  0
M  CHG 1  58  -1
M  END
> <minimizedAffinity>
-9.86825

> <CNNscore>
0.3069930375

> <CNNaffinity>
7.2381339073

> <CNN_VS>
2.2220566273

> <CNNaffinity_variance>
1.1701903343

$$$$
/media/chris/experiments/cd1a-new-docking/inputs/ligands/1onq_ligand.pdb


 62 62  0  0  0  0  0  0  0  0999 V2000
  -40.1382   58.9679   64.9477 C   0  0  0  0  0  0  0  0  0  0  0  0
  -41.2081   58.5178   65.8161 N   0  0  0  0  0  0  0  0  0  0  0  0
  -43.0100   59.5827   64.9406 O   0  0  0  0  0  0  0  0  0  0  0  0
  -42.5081   58.8376   65.7595 C   0  0  0  0  0  0  0  0  0  0  0  0
  -40.9470   57.9003   66.5371 H   0  0  0  0  0  0  0  0  0  0  0  0
  -43.3692   58.1936   66.8053 C   0  0  0  0  0  0  0  0  0  0  0  0
  -44.0049   56.9681   66.1487 C   0  0  0  0  0  0  0  0  0  0  0  0
  -45.4927   57.2162   65.9119 C   0  0  0  0  0  0  0  0  0  0  0  0
  -46.1161   58.3296   66.7182 C   0  0  0  0  0  0  0  0  0  0  0  0
  -46.9781   59.1576   65.7710 C   0  0  0  0  0  0  0  0  0  0  0  0
  -47.4192   58.3706   64.5296 C   0  0  0  0  0  0  0  0  0  0  0  0
  -48.8506   57.8096   64.6125 C   0  0  0  0  0  0  0  0  0  0  0  0
  -49.8354   58.7769   65.3053 C   0  0  0  0  0  0  0  0  0  0  0  0
  -50.7476   59.4484   64.2747 C   0  0  0  0  0  0  0  0  0  0  0  0
  -50.8424   58.7317   62.9333 C   0  0  0  0  0  0  0  0  0  0  0  0
  -50.1856   59.5201   61.8098 C   0  0  0  0  0  0  0  0  0  0  0  0
  -49.5084   58.6916   60.7156 C   0  0  0  0  0  0  0  0  0  0  0  0
  -49.6992   57.2179   61.0480 C   0  0  0  0  0  0  0  0  0  0  0  0
  -49.3614   56.1813   59.9866 C   0  0  0  0  0  0  0  0  0  0  0  0
  -48.9236   56.8571   58.6775 C   0  0  0  0  0  0  0  0  0  0  0  0
  -47.5193   56.4554   58.1901 C   0  0  0  0  0  0  0  0  0  0  0  0
  -47.5399   55.3631   57.1232 C   0  0  0  0  0  0  0  0  0  0  0  0
  -38.1567   57.8535   65.4247 O   0  0  0  0  0  0  0  0  0  0  0  0
  -39.3579   57.6896   64.6939 C   0  0  0  0  0  0  0  0  0  0  0  0
  -38.3622   57.9440   66.3684 H   0  0  0  0  0  0  0  0  0  0  0  0
  -39.1035   57.5406   63.1921 C   0  0  0  0  0  0  0  0  0  0  0  0
  -37.8703   57.4927   62.6599 C   0  0  0  0  0  0  0  0  0  0  0  0
  -37.6995   57.3435   61.1493 C   0  0  0  0  0  0  0  0  0  0  0  0
  -38.2819   58.5109   60.3394 C   0  0  0  0  0  0  0  0  0  0  0  0
  -37.4099   59.0145   59.1744 C   0  0  0  0  0  0  0  0  0  0  0  0
  -37.3928   57.9869   58.0172 C   0  0  0  0  0  0  0  0  0  0  0  0
  -36.1360   57.0824   57.9541 C   0  0  0  0  0  0  0  0  0  0  0  0
  -36.4036   55.6008   58.3094 C   0  0  0  0  0  0  0  0  0  0  0  0
  -35.6132   55.1087   59.5411 C   0  0  0  0  0  0  0  0  0  0  0  0
  -34.4382   56.0164   59.9242 C   0  0  0  0  0  0  0  0  0  0  0  0
  -34.1771   56.1810   61.4201 C   0  0  0  0  0  0  0  0  0  0  0  0
  -32.7865   56.7569   61.7529 C   0  0  0  0  0  0  0  0  0  0  0  0
  -32.7894   57.9765   62.6869 C   0  0  0  0  0  0  0  0  0  0  0  0
  -34.2174   58.4598   62.9557 C   0  0  0  0  0  0  0  0  0  0  0  0
  -34.6711   58.4526   64.4046 C   0  0  0  0  0  0  0  0  0  0  0  0
  -39.3376   60.1885   65.4557 C   0  0  0  0  0  0  0  0  0  0  0  0
  -38.6167   60.9526   64.4557 O   0  0  0  0  0  0  0  0  0  0  0  0
  -36.5880   60.9923   62.4407 O   0  0  0  0  0  0  0  0  0  0  0  0
  -35.4607   64.5064   64.3847 O   0  0  0  0  0  0  0  0  0  0  0  0
  -37.0792   62.3316   65.7285 O   0  0  0  0  0  0  0  0  0  0  0  0
  -37.2121   61.3560   64.6664 C   0  0  0  0  0  0  0  0  0  0  0  0
  -36.4900   61.9506   63.4487 C   0  0  0  0  0  0  0  0  0  0  0  0
  -34.9939   62.2430   63.6964 C   0  0  0  0  0  0  0  0  0  0  0  0
  -34.9413   63.2497   64.8122 C   0  0  0  0  0  0  0  0  0  0  0  0
  -35.7100   62.7270   66.0122 C   0  0  0  0  0  0  0  0  0  0  0  0
  -37.5227   60.7957   62.2712 H   0  0  0  0  0  0  0  0  0  0  0  0
  -34.9558   64.8211   63.6185 H   0  0  0  0  0  0  0  0  0  0  0  0
  -36.5104   63.7806   68.0029 O   0  0  0  0  0  0  0  0  0  0  0  0
  -35.5432   63.8787   67.0012 C   0  0  0  0  0  0  0  0  0  0  0  0
  -36.4024   64.5131   68.6296 H   0  0  0  0  0  0  0  0  0  0  0  0
  -34.2708   62.8303   62.5908 O   0  0  0  0  0  0  0  0  0  0  0  0
  -32.2221   61.3744   61.9587 O   0  0  0  0  0  0  0  0  0  0  0  0
  -32.0431   62.9654   63.7824 O   0  0  0  0  0  0  0  0  0  0  0  0
  -32.0466   63.7390   61.4854 O   0  0  0  0  0  0  0  0  0  0  0  0
  -32.6166   62.7354   62.4285 S   0  0  0  0  0  0  0  0  0  0  0  0
  -32.5847   60.7065   62.5614 H   0  0  0  0  0  0  0  0  0  0  0  0
  -32.4153   63.5962   60.5997 H   0  0  0  0  0  0  0  0  0  0  0  0
  2  1  1  0  0  0
  2  4  1  0  0  0
  2  5  1  0  0  0
 41 42  1  0  0  0
 41  1  1  0  0  0
 42 46  1  0  0  0
  1 24  1  0  0  0
 23 24  1  0  0  0
 23 25  1  0  0  0
 24 26  1  0  0  0
  3  4  2  0  0  0
 26 27  2  0  0  0
 27 28  1  0  0  0
 43 47  1  0  0  0
 43 51  1  0  0  0
 28 29  1  0  0  0
 56 48  1  0  0  0
 56 60  1  0  0  0
 29 30  1  0  0  0
 57 60  1  0  0  0
 57 61  1  0  0  0
 30 31  1  0  0  0
 44 49  1  0  0  0
 44 52  1  0  0  0
 31 32  1  0  0  0
 45 46  1  0  0  0
 45 50  1  0  0  0
 32 33  1  0  0  0
 53 54  1  0  0  0
 53 55  1  0  0  0
 33 34  1  0  0  0
 34 35  1  0  0  0
 35 36  1  0  0  0
 58 60  1  0  0  0
 36 37  1  0  0  0
 59 60  1  0  0  0
 59 62  1  0  0  0
 37 38  1  0  0  0
 38 39  1  0  0  0
 39 40  1  0  0  0
  4  6  1  0  0  0
  6  7  1  0  0  0
  7  8  1  0  0  0
  8  9  1  0  0  0
  9 10  1  0  0  0
 10 11  1  0  0  0
 11 12  1  0  0  0
 12 13  1  0  0  0
 13 14  1  0  0  0
 14 15  1  0  0  0
 15 16  1  0  0  0
 16 17  1  0  0  0
 17 18  1  0  0  0
 18 19  1  0  0  0
 19 20  1  0  0  0
 20 21  1  0  0  0
 21 22  1  0  0  0
 46 47  1  0  0  0
 47 48  1  0  0  0
 48 49  1  0  0  0
 49 50  1  0  0  0
 50 54  1  0  0  0
M  CHG 1  58  -1
M  END
> <minimizedAffinity>
-10.12160

> <CNNscore>
0.2875229418

> <CNNaffinity>
7.0954346657

> <CNN_VS>
2.0401003361

> <CNNaffinity_variance>
1.4232242107

$$$$
/media/chris/experiments/cd1a-new-docking/inputs/ligands/1onq_ligand.pdb


 62 62  0  0  0  0  0  0  0  0999 V2000
  -39.6660   59.2523   64.4570 C   0  0  0  0  0  0  0  0  0  0  0  0
  -38.6749   59.9380   65.2625 N   0  0  0  0  0  0  0  0  0  0  0  0
  -37.4458   61.0142   63.6882 O   0  0  0  0  0  0  0  0  0  0  0  0
  -37.6799   60.7339   64.8476 C   0  0  0  0  0  0  0  0  0  0  0  0
  -38.7411   59.8021   66.2353 H   0  0  0  0  0  0  0  0  0  0  0  0
  -36.8223   61.3037   65.9384 C   0  0  0  0  0  0  0  0  0  0  0  0
  -35.5092   61.7277   65.2802 C   0  0  0  0  0  0  0  0  0  0  0  0
  -34.4333   61.9285   66.3448 C   0  0  0  0  0  0  0  0  0  0  0  0
  -33.6700   63.2291   66.2795 C   0  0  0  0  0  0  0  0  0  0  0  0
  -34.6470   64.3153   65.8417 C   0  0  0  0  0  0  0  0  0  0  0  0
  -33.9967   65.3661   64.9318 C   0  0  0  0  0  0  0  0  0  0  0  0
  -32.5413   65.7074   65.3002 C   0  0  0  0  0  0  0  0  0  0  0  0
  -31.5122   65.0403   64.3614 C   0  0  0  0  0  0  0  0  0  0  0  0
  -31.8283   65.3620   62.8979 C   0  0  0  0  0  0  0  0  0  0  0  0
  -31.7637   64.1725   61.9477 C   0  0  0  0  0  0  0  0  0  0  0  0
  -33.0137   63.3078   62.0191 C   0  0  0  0  0  0  0  0  0  0  0  0
  -32.9133   62.0540   62.8909 C   0  0  0  0  0  0  0  0  0  0  0  0
  -31.8745   61.1273   62.2737 C   0  0  0  0  0  0  0  0  0  0  0  0
  -32.1495   59.6309   62.2586 C   0  0  0  0  0  0  0  0  0  0  0  0
  -33.5528   59.3240   62.8051 C   0  0  0  0  0  0  0  0  0  0  0  0
  -33.5903   58.2350   63.8931 C   0  0  0  0  0  0  0  0  0  0  0  0
  -34.9972   57.9495   64.4136 C   0  0  0  0  0  0  0  0  0  0  0  0
  -40.5863   60.6464   66.0711 O   0  0  0  0  0  0  0  0  0  0  0  0
  -40.9740   59.7340   65.0608 C   0  0  0  0  0  0  0  0  0  0  0  0
  -40.1045   61.3869   65.6704 H   0  0  0  0  0  0  0  0  0  0  0  0
  -41.7415   58.5375   65.6281 C   0  0  0  0  0  0  0  0  0  0  0  0
  -43.0601   58.3579   65.4400 C   0  0  0  0  0  0  0  0  0  0  0  0
  -43.7544   57.1369   66.0402 C   0  0  0  0  0  0  0  0  0  0  0  0
  -45.0985   56.7983   65.3792 C   0  0  0  0  0  0  0  0  0  0  0  0
  -45.6779   57.8837   64.4531 C   0  0  0  0  0  0  0  0  0  0  0  0
  -46.7437   58.7263   65.1944 C   0  0  0  0  0  0  0  0  0  0  0  0
  -48.2141   58.3143   64.9303 C   0  0  0  0  0  0  0  0  0  0  0  0
  -48.7453   58.7220   63.5358 C   0  0  0  0  0  0  0  0  0  0  0  0
  -50.1361   58.1363   63.2093 C   0  0  0  0  0  0  0  0  0  0  0  0
  -50.6588   58.5229   61.8206 C   0  0  0  0  0  0  0  0  0  0  0  0
  -50.6409   57.4188   60.7654 C   0  0  0  0  0  0  0  0  0  0  0  0
  -49.2249   56.9789   60.3439 C   0  0  0  0  0  0  0  0  0  0  0  0
  -49.0893   56.5205   58.8839 C   0  0  0  0  0  0  0  0  0  0  0  0
  -47.8411   57.1226   58.2323 C   0  0  0  0  0  0  0  0  0  0  0  0
  -47.6386   56.8239   56.7575 C   0  0  0  0  0  0  0  0  0  0  0  0
  -39.4756   57.7241   64.3258 C   0  0  0  0  0  0  0  0  0  0  0  0
  -39.0962   57.2282   63.0168 O   0  0  0  0  0  0  0  0  0  0  0  0
  -36.7878   56.5778   61.4594 O   0  0  0  0  0  0  0  0  0  0  0  0
  -38.9038   58.5521   58.4554 O   0  0  0  0  0  0  0  0  0  0  0  0
  -39.4201   59.0091   61.4016 O   0  0  0  0  0  0  0  0  0  0  0  0
  -38.4642   58.1120   62.0171 C   0  0  0  0  0  0  0  0  0  0  0  0
  -37.7324   57.4120   60.8629 C   0  0  0  0  0  0  0  0  0  0  0  0
  -36.9932   58.3836   59.9169 C   0  0  0  0  0  0  0  0  0  0  0  0
  -38.0466   59.2819   59.3298 C   0  0  0  0  0  0  0  0  0  0  0  0
  -38.8422   59.9371   60.4443 C   0  0  0  0  0  0  0  0  0  0  0  0
  -37.2348   55.9593   62.0583 H   0  0  0  0  0  0  0  0  0  0  0  0
  -38.3756   58.1426   57.7524 H   0  0  0  0  0  0  0  0  0  0  0  0
  -40.9513   59.9987   59.3210 O   0  0  0  0  0  0  0  0  0  0  0  0
  -39.8393   60.7766   59.6485 C   0  0  0  0  0  0  0  0  0  0  0  0
  -41.5829   60.5340   58.8157 H   0  0  0  0  0  0  0  0  0  0  0  0
  -36.3094   57.7797   58.7954 O   0  0  0  0  0  0  0  0  0  0  0  0
  -35.3461   55.4032   59.1711 O   0  0  0  0  0  0  0  0  0  0  0  0
  -34.2330   57.3171   60.1648 O   0  0  0  0  0  0  0  0  0  0  0  0
  -34.0323   56.8887   57.7877 O   0  0  0  0  0  0  0  0  0  0  0  0
  -34.9533   56.8277   58.9580 S   0  0  0  0  0  0  0  0  0  0  0  0
  -35.9467   55.3435   59.9304 H   0  0  0  0  0  0  0  0  0  0  0  0
  -34.4941   56.5711   56.9960 H   0  0  0  0  0  0  0  0  0  0  0  0
  2  1  1  0  0  0
  2  4  1  0  0  0
  2  5  1  0  0  0
 41 42  1  0  0  0
 41  1  1  0  0  0
 42 46  1  0  0  0
  1 24  1  0  0  0
 23 24  1  0  0  0
 23 25  1  0  0  0
 24 26  1  0  0  0
  3  4  2  0  0  0
 26 27  2  0  0  0
 27 28  1  0  0  0
 43 47  1  0  0  0
 43 51  1  0  0  0
 28 29  1  0  0  0
 56 48  1  0  0  0
 56 60  1  0  0  0
 29 30  1  0  0  0
 57 60  1  0  0  0
 57 61  1  0  0  0
 30 31  1  0  0  0
 44 49  1  0  0  0
 44 52  1  0  0  0
 31 32  1  0  0  0
 45 46  1  0  0  0
 45 50  1  0  0  0
 32 33  1  0  0  0
 53 54  1  0  0  0
 53 55  1  0  0  0
 33 34  1  0  0  0
 34 35  1  0  0  0
 35 36  1  0  0  0
 58 60  1  0  0  0
 36 37  1  0  0  0
 59 60  1  0  0  0
 59 62  1  0  0  0
 37 38  1  0  0  0
 38 39  1  0  0  0
 39 40  1  0  0  0
  4  6  1  0  0  0
  6  7  1  0  0  0
  7  8  1  0  0  0
  8  9  1  0  0  0
  9 10  1  0  0  0
 10 11  1  0  0  0
 11 12  1  0  0  0
 12 13  1  0  0  0
 13 14  1  0  0  0
 14 15  1  0  0  0
 15 16  1  0  0  0
 16 17  1  0  0  0
 17 18  1  0  0  0
 18 19  1  0  0  0
 19 20  1  0  0  0
 20 21  1  0  0  0
 21 22  1  0  0  0
 46 47  1  0  0  0
 47 48  1  0  0  0
 48 49  1  0  0  0
 49 50  1  0  0  0
 50 54  1  0  0  0
M  CHG 1  58  -1
M  END
> <minimizedAffinity>
-8.81192

> <CNNscore>
0.2592043877

> <CNNaffinity>
6.8443155289

> <CNN_VS>
1.7740765810

> <CNNaffinity_variance>
1.3006771803

$$$$
/media/chris/experiments/cd1a-new-docking/inputs/ligands/1onq_ligand.pdb


 62 62  0  0  0  0  0  0  0  0999 V2000
  -40.0637   59.6977   64.4027 C   0  0  0  0  0  0  0  0  0  0  0  0
  -40.2312   60.1402   63.0325 N   0  0  0  0  0  0  0  0  0  0  0  0
  -39.2411   58.4636   61.8678 O   0  0  0  0  0  0  0  0  0  0  0  0
  -39.8299   59.5263   61.9110 C   0  0  0  0  0  0  0  0  0  0  0  0
  -40.6978   60.9985   62.9107 H   0  0  0  0  0  0  0  0  0  0  0  0
  -40.1643   60.2436   60.6369 C   0  0  0  0  0  0  0  0  0  0  0  0
  -39.5771   59.4056   59.5010 C   0  0  0  0  0  0  0  0  0  0  0  0
  -38.1266   59.8108   59.2500 C   0  0  0  0  0  0  0  0  0  0  0  0
  -37.1116   58.6939   59.2772 C   0  0  0  0  0  0  0  0  0  0  0  0
  -37.1411   58.0111   57.9139 C   0  0  0  0  0  0  0  0  0  0  0  0
  -36.2054   56.7971   57.8382 C   0  0  0  0  0  0  0  0  0  0  0  0
  -36.4666   55.7295   58.9164 C   0  0  0  0  0  0  0  0  0  0  0  0
  -35.6945   55.9982   60.2268 C   0  0  0  0  0  0  0  0  0  0  0  0
  -36.6484   56.4679   61.3290 C   0  0  0  0  0  0  0  0  0  0  0  0
  -35.9797   56.8304   62.6494 C   0  0  0  0  0  0  0  0  0  0  0  0
  -36.0258   58.3254   62.9287 C   0  0  0  0  0  0  0  0  0  0  0  0
  -35.3560   58.7868   64.2250 C   0  0  0  0  0  0  0  0  0  0  0  0
  -34.1905   57.8514   64.5174 C   0  0  0  0  0  0  0  0  0  0  0  0
  -32.8182   58.1998   63.9602 C   0  0  0  0  0  0  0  0  0  0  0  0
  -32.6032   57.5521   62.5832 C   0  0  0  0  0  0  0  0  0  0  0  0
  -32.4331   58.5537   61.4260 C   0  0  0  0  0  0  0  0  0  0  0  0
  -31.6107   59.7826   61.8068 C   0  0  0  0  0  0  0  0  0  0  0  0
  -40.9809   60.8407   66.2050 O   0  0  0  0  0  0  0  0  0  0  0  0
  -41.3710   60.1220   65.0496 C   0  0  0  0  0  0  0  0  0  0  0  0
  -40.4640   61.6185   65.9426 H   0  0  0  0  0  0  0  0  0  0  0  0
  -42.1930   58.8779   65.3945 C   0  0  0  0  0  0  0  0  0  0  0  0
  -43.5275   58.9030   65.5521 C   0  0  0  0  0  0  0  0  0  0  0  0
  -44.2766   57.6174   65.8973 C   0  0  0  0  0  0  0  0  0  0  0  0
  -45.4687   57.3254   64.9744 C   0  0  0  0  0  0  0  0  0  0  0  0
  -46.3504   58.5373   64.6207 C   0  0  0  0  0  0  0  0  0  0  0  0
  -47.8252   58.2760   65.0106 C   0  0  0  0  0  0  0  0  0  0  0  0
  -48.7786   57.9724   63.8272 C   0  0  0  0  0  0  0  0  0  0  0  0
  -49.7095   59.1477   63.4463 C   0  0  0  0  0  0  0  0  0  0  0  0
  -50.8919   58.7317   62.5447 C   0  0  0  0  0  0  0  0  0  0  0  0
  -50.5675   57.5708   61.5968 C   0  0  0  0  0  0  0  0  0  0  0  0
  -49.9327   57.9521   60.2611 C   0  0  0  0  0  0  0  0  0  0  0  0
  -48.4339   57.6063   60.1592 C   0  0  0  0  0  0  0  0  0  0  0  0
  -47.9426   57.2322   58.7526 C   0  0  0  0  0  0  0  0  0  0  0  0
  -47.7994   55.7147   58.6056 C   0  0  0  0  0  0  0  0  0  0  0  0
  -47.5972   55.1890   57.1956 C   0  0  0  0  0  0  0  0  0  0  0  0
  -38.7590   60.1537   65.0947 C   0  0  0  0  0  0  0  0  0  0  0  0
  -38.3182   61.5076   64.8193 O   0  0  0  0  0  0  0  0  0  0  0  0
  -36.4825   61.7714   62.6426 O   0  0  0  0  0  0  0  0  0  0  0  0
  -35.1571   65.0576   64.8434 O   0  0  0  0  0  0  0  0  0  0  0  0
  -36.6609   62.7452   66.0870 O   0  0  0  0  0  0  0  0  0  0  0  0
  -36.8975   61.8900   64.9424 C   0  0  0  0  0  0  0  0  0  0  0  0
  -36.2859   62.6152   63.7350 C   0  0  0  0  0  0  0  0  0  0  0  0
  -34.7713   62.8835   63.8743 C   0  0  0  0  0  0  0  0  0  0  0  0
  -34.6096   63.7635   65.0829 C   0  0  0  0  0  0  0  0  0  0  0  0
  -35.2687   63.1116   66.2849 C   0  0  0  0  0  0  0  0  0  0  0  0
  -37.4302   61.5916   62.5394 H   0  0  0  0  0  0  0  0  0  0  0  0
  -34.7224   65.4550   64.0726 H   0  0  0  0  0  0  0  0  0  0  0  0
  -33.7380   64.7092   67.1895 O   0  0  0  0  0  0  0  0  0  0  0  0
  -35.0038   64.1499   67.3731 C   0  0  0  0  0  0  0  0  0  0  0  0
  -33.5722   65.3682   67.8818 H   0  0  0  0  0  0  0  0  0  0  0  0
  -34.1485   63.5893   62.7771 O   0  0  0  0  0  0  0  0  0  0  0  0
  -31.7604   62.8810   63.4927 O   0  0  0  0  0  0  0  0  0  0  0  0
  -32.3052   65.2387   63.3088 O   0  0  0  0  0  0  0  0  0  0  0  0
  -31.9690   63.9057   61.3126 O   0  0  0  0  0  0  0  0  0  0  0  0
  -32.5141   63.8969   62.6999 S   0  0  0  0  0  0  0  0  0  0  0  0
  -32.1018   62.8609   64.4004 H   0  0  0  0  0  0  0  0  0  0  0  0
  -32.1010   63.0341   60.9080 H   0  0  0  0  0  0  0  0  0  0  0  0
  2  1  1  0  0  0
  2  4  1  0  0  0
  2  5  1  0  0  0
 41 42  1  0  0  0
 41  1  1  0  0  0
 42 46  1  0  0  0
  1 24  1  0  0  0
 23 24  1  0  0  0
 23 25  1  0  0  0
 24 26  1  0  0  0
  3  4  2  0  0  0
 26 27  2  0  0  0
 27 28  1  0  0  0
 43 47  1  0  0  0
 43 51  1  0  0  0
 28 29  1  0  0  0
 56 48  1  0  0  0
 56 60  1  0  0  0
 29 30  1  0  0  0
 57 60  1  0  0  0
 57 61  1  0  0  0
 30 31  1  0  0  0
 44 49  1  0  0  0
 44 52  1  0  0  0
 31 32  1  0  0  0
 45 46  1  0  0  0
 45 50  1  0  0  0
 32 33  1  0  0  0
 53 54  1  0  0  0
 53 55  1  0  0  0
 33 34  1  0  0  0
 34 35  1  0  0  0
 35 36  1  0  0  0
 58 60  1  0  0  0
 36 37  1  0  0  0
 59 60  1  0  0  0
 59 62  1  0  0  0
 37 38  1  0  0  0
 38 39  1  0  0  0
 39 40  1  0  0  0
  4  6  1  0  0  0
  6  7  1  0  0  0
  7  8  1  0  0  0
  8  9  1  0  0  0
  9 10  1  0  0  0
 10 11  1  0  0  0
 11 12  1  0  0  0
 12 13  1  0  0  0
 13 14  1  0  0  0
 14 15  1  0  0  0
 15 16  1  0  0  0
 16 17  1  0  0  0
 17 18  1  0  0  0
 18 19  1  0  0  0
 19 20  1  0  0  0
 20 21  1  0  0  0
 21 22  1  0  0  0
 46 47  1  0  0  0
 47 48  1  0  0  0
 48 49  1  0  0  0
 49 50  1  0  0  0
 50 54  1  0  0  0
M  CHG 1  58  -1
M  END
> <minimizedAffinity>
-8.69156

> <CNNscore>
0.2577741146

> <CNNaffinity>
7.2362504005

> <CNN_VS>
1.8653180599

> <CNNaffinity_variance>
0.8177310228

$$$$
/media/chris/experiments/cd1a-new-docking/inputs/ligands/1onq_ligand.pdb


 62 62  0  0  0  0  0  0  0  0999 V2000
  -39.9946   59.0816   64.6685 C   0  0  0  0  0  0  0  0  0  0  0  0
  -40.0616   59.2270   63.2278 N   0  0  0  0  0  0  0  0  0  0  0  0
  -40.9144   61.3171   63.0008 O   0  0  0  0  0  0  0  0  0  0  0  0
  -40.4948   60.2811   62.5230 C   0  0  0  0  0  0  0  0  0  0  0  0
  -39.7501   58.4553   62.7018 H   0  0  0  0  0  0  0  0  0  0  0  0
  -40.4286   60.1224   61.0329 C   0  0  0  0  0  0  0  0  0  0  0  0
  -38.9449   60.0782   60.6673 C   0  0  0  0  0  0  0  0  0  0  0  0
  -38.7569   59.3522   59.3373 C   0  0  0  0  0  0  0  0  0  0  0  0
  -37.3422   58.9542   58.9929 C   0  0  0  0  0  0  0  0  0  0  0  0
  -37.4172   57.8135   57.9835 C   0  0  0  0  0  0  0  0  0  0  0  0
  -36.3559   56.7328   58.2300 C   0  0  0  0  0  0  0  0  0  0  0  0
  -34.9140   57.1833   57.9323 C   0  0  0  0  0  0  0  0  0  0  0  0
  -33.8603   56.4003   58.7460 C   0  0  0  0  0  0  0  0  0  0  0  0
  -34.4522   55.9184   60.0737 C   0  0  0  0  0  0  0  0  0  0  0  0
  -33.5408   56.0833   61.2838 C   0  0  0  0  0  0  0  0  0  0  0  0
  -33.1621   57.5367   61.5275 C   0  0  0  0  0  0  0  0  0  0  0  0
  -32.9350   57.9351   62.9876 C   0  0  0  0  0  0  0  0  0  0  0  0
  -34.1128   58.7895   63.4364 C   0  0  0  0  0  0  0  0  0  0  0  0
  -35.1014   58.2028   64.4332 C   0  0  0  0  0  0  0  0  0  0  0  0
  -36.0449   57.2018   63.7478 C   0  0  0  0  0  0  0  0  0  0  0  0
  -36.6797   57.7140   62.4417 C   0  0  0  0  0  0  0  0  0  0  0  0
  -37.7990   56.8152   61.9213 C   0  0  0  0  0  0  0  0  0  0  0  0
  -40.9584   60.7266   65.9955 O   0  0  0  0  0  0  0  0  0  0  0  0
  -41.3185   59.6720   65.1226 C   0  0  0  0  0  0  0  0  0  0  0  0
  -40.4415   61.3873   65.5084 H   0  0  0  0  0  0  0  0  0  0  0  0
  -42.1390   58.5916   65.8312 C   0  0  0  0  0  0  0  0  0  0  0  0
  -43.4125   58.3096   65.5074 C   0  0  0  0  0  0  0  0  0  0  0  0
  -44.1649   57.2162   66.2634 C   0  0  0  0  0  0  0  0  0  0  0  0
  -45.5793   57.6236   66.7013 C   0  0  0  0  0  0  0  0  0  0  0  0
  -46.1451   58.8902   66.0330 C   0  0  0  0  0  0  0  0  0  0  0  0
  -47.2474   58.5255   65.0097 C   0  0  0  0  0  0  0  0  0  0  0  0
  -48.2977   57.4998   65.5061 C   0  0  0  0  0  0  0  0  0  0  0  0
  -49.7174   58.0859   65.6904 C   0  0  0  0  0  0  0  0  0  0  0  0
  -49.8854   59.4981   65.0892 C   0  0  0  0  0  0  0  0  0  0  0  0
  -51.1777   59.6768   64.2834 C   0  0  0  0  0  0  0  0  0  0  0  0
  -51.0791   59.3957   62.7854 C   0  0  0  0  0  0  0  0  0  0  0  0
  -50.6656   57.9501   62.4459 C   0  0  0  0  0  0  0  0  0  0  0  0
  -49.3506   57.8119   61.6638 C   0  0  0  0  0  0  0  0  0  0  0  0
  -49.5237   58.2674   60.2121 C   0  0  0  0  0  0  0  0  0  0  0  0
  -49.6571   57.1699   59.1714 C   0  0  0  0  0  0  0  0  0  0  0  0
  -38.7149   59.6358   65.3348 C   0  0  0  0  0  0  0  0  0  0  0  0
  -38.3553   61.0029   65.0106 O   0  0  0  0  0  0  0  0  0  0  0  0
  -36.5285   61.1230   62.8138 O   0  0  0  0  0  0  0  0  0  0  0  0
  -35.3716   64.6857   64.6490 O   0  0  0  0  0  0  0  0  0  0  0  0
  -36.7641   62.4480   66.1354 O   0  0  0  0  0  0  0  0  0  0  0  0
  -36.9553   61.4653   65.0889 C   0  0  0  0  0  0  0  0  0  0  0  0
  -36.3764   62.0869   63.8097 C   0  0  0  0  0  0  0  0  0  0  0  0
  -34.8772   62.4422   63.9161 C   0  0  0  0  0  0  0  0  0  0  0  0
  -34.7622   63.4528   65.0237 C   0  0  0  0  0  0  0  0  0  0  0  0
  -35.3921   62.9011   66.2898 C   0  0  0  0  0  0  0  0  0  0  0  0
  -37.4659   60.8870   62.7326 H   0  0  0  0  0  0  0  0  0  0  0  0
  -34.9547   65.0195   63.8393 H   0  0  0  0  0  0  0  0  0  0  0  0
  -33.8789   64.5473   67.1348 O   0  0  0  0  0  0  0  0  0  0  0  0
  -35.1814   64.0610   67.2606 C   0  0  0  0  0  0  0  0  0  0  0  0
  -33.7476   65.2837   67.7523 H   0  0  0  0  0  0  0  0  0  0  0  0
  -34.2865   63.0568   62.7484 O   0  0  0  0  0  0  0  0  0  0  0  0
  -32.2997   61.5287   62.0897 O   0  0  0  0  0  0  0  0  0  0  0  0
  -31.9243   63.4021   63.5859 O   0  0  0  0  0  0  0  0  0  0  0  0
  -32.2572   63.7826   61.2155 O   0  0  0  0  0  0  0  0  0  0  0  0
  -32.6668   62.9465   62.3794 S   0  0  0  0  0  0  0  0  0  0  0  0
  -32.5590   60.9682   62.8377 H   0  0  0  0  0  0  0  0  0  0  0  0
  -32.7368   63.4921   60.4240 H   0  0  0  0  0  0  0  0  0  0  0  0
  2  1  1  0  0  0
  2  4  1  0  0  0
  2  5  1  0  0  0
 41 42  1  0  0  0
 41  1  1  0  0  0
 42 46  1  0  0  0
  1 24  1  0  0  0
 23 24  1  0  0  0
 23 25  1  0  0  0
 24 26  1  0  0  0
  3  4  2  0  0  0
 26 27  2  0  0  0
 27 28  1  0  0  0
 43 47  1  0  0  0
 43 51  1  0  0  0
 28 29  1  0  0  0
 56 48  1  0  0  0
 56 60  1  0  0  0
 29 30  1  0  0  0
 57 60  1  0  0  0
 57 61  1  0  0  0
 30 31  1  0  0  0
 44 49  1  0  0  0
 44 52  1  0  0  0
 31 32  1  0  0  0
 45 46  1  0  0  0
 45 50  1  0  0  0
 32 33  1  0  0  0
 53 54  1  0  0  0
 53 55  1  0  0  0
 33 34  1  0  0  0
 34 35  1  0  0  0
 35 36  1  0  0  0
 58 60  1  0  0  0
 36 37  1  0  0  0
 59 60  1  0  0  0
 59 62  1  0  0  0
 37 38  1  0  0  0
 38 39  1  0  0  0
 39 40  1  0  0  0
  4  6  1  0  0  0
  6  7  1  0  0  0
  7  8  1  0  0  0
  8  9  1  0  0  0
  9 10  1  0  0  0
 10 11  1  0  0  0
 11 12  1  0  0  0
 12 13  1  0  0  0
 13 14  1  0  0  0
 14 15  1  0  0  0
 15 16  1  0  0  0
 16 17  1  0  0  0
 17 18  1  0  0  0
 18 19  1  0  0  0
 19 20  1  0  0  0
 20 21  1  0  0  0
 21 22  1  0  0  0
 46 47  1  0  0  0
 47 48  1  0  0  0
 48 49  1  0  0  0
 49 50  1  0  0  0
 50 54  1  0  0  0
M  CHG 1  58  -1
M  END
> <minimizedAffinity>
-9.64348

> <CNNscore>
0.2463331670

> <CNNaffinity>
7.2226119041

> <CNN_VS>
1.7791688442

> <CNNaffinity_variance>
1.4484798908

$$$$
/media/chris/experiments/cd1a-new-docking/inputs/ligands/1onq_ligand.pdb


 62 62  0  0  0  0  0  0  0  0999 V2000
  -38.9919   59.2749   64.7841 C   0  0  0  0  0  0  0  0  0  0  0  0
  -40.2122   58.6206   65.2129 N   0  0  0  0  0  0  0  0  0  0  0  0
  -41.7810   60.1941   64.7541 O   0  0  0  0  0  0  0  0  0  0  0  0
  -41.4638   59.0977   65.1724 C   0  0  0  0  0  0  0  0  0  0  0  0
  -40.1087   57.7128   65.5795 H   0  0  0  0  0  0  0  0  0  0  0  0
  -42.5189   58.1643   65.6874 C   0  0  0  0  0  0  0  0  0  0  0  0
  -43.2535   58.9123   66.8000 C   0  0  0  0  0  0  0  0  0  0  0  0
  -44.7542   58.6486   66.7031 C   0  0  0  0  0  0  0  0  0  0  0  0
  -45.4366   59.1502   65.4536 C   0  0  0  0  0  0  0  0  0  0  0  0
  -46.5251   58.1464   65.0884 C   0  0  0  0  0  0  0  0  0  0  0  0
  -47.9324   58.7570   65.1280 C   0  0  0  0  0  0  0  0  0  0  0  0
  -48.9782   57.8885   65.8507 C   0  0  0  0  0  0  0  0  0  0  0  0
  -50.4184   58.1467   65.3561 C   0  0  0  0  0  0  0  0  0  0  0  0
  -50.4347   59.2493   64.2934 C   0  0  0  0  0  0  0  0  0  0  0  0
  -50.9092   58.8084   62.9140 C   0  0  0  0  0  0  0  0  0  0  0  0
  -49.7836   58.2173   62.0780 C   0  0  0  0  0  0  0  0  0  0  0  0
  -49.7440   58.6437   60.6087 C   0  0  0  0  0  0  0  0  0  0  0  0
  -50.1427   57.4473   59.7552 C   0  0  0  0  0  0  0  0  0  0  0  0
  -49.2726   56.1997   59.7965 C   0  0  0  0  0  0  0  0  0  0  0  0
  -47.8361   56.5160   59.3509 C   0  0  0  0  0  0  0  0  0  0  0  0
  -47.3952   55.7996   58.0611 C   0  0  0  0  0  0  0  0  0  0  0  0
  -47.9426   56.4491   56.7922 C   0  0  0  0  0  0  0  0  0  0  0  0
  -37.7355   57.4860   65.5696 O   0  0  0  0  0  0  0  0  0  0  0  0
  -38.1218   58.1053   64.3568 C   0  0  0  0  0  0  0  0  0  0  0  0
  -38.5245   57.1691   66.0365 H   0  0  0  0  0  0  0  0  0  0  0  0
  -36.9193   58.6295   63.5684 C   0  0  0  0  0  0  0  0  0  0  0  0
  -35.8429   57.8753   63.2880 C   0  0  0  0  0  0  0  0  0  0  0  0
  -34.6814   58.4726   62.4959 C   0  0  0  0  0  0  0  0  0  0  0  0
  -33.8932   57.4415   61.6751 C   0  0  0  0  0  0  0  0  0  0  0  0
  -34.5462   56.0531   61.5450 C   0  0  0  0  0  0  0  0  0  0  0  0
  -34.7971   55.7012   60.0589 C   0  0  0  0  0  0  0  0  0  0  0  0
  -33.9759   56.5262   59.0359 C   0  0  0  0  0  0  0  0  0  0  0  0
  -34.7948   57.0270   57.8229 C   0  0  0  0  0  0  0  0  0  0  0  0
  -36.3010   56.7008   57.9176 C   0  0  0  0  0  0  0  0  0  0  0  0
  -37.1872   57.9325   58.1386 C   0  0  0  0  0  0  0  0  0  0  0  0
  -37.5389   58.2549   59.5896 C   0  0  0  0  0  0  0  0  0  0  0  0
  -37.9810   59.7140   59.8169 C   0  0  0  0  0  0  0  0  0  0  0  0
  -38.6474   59.9924   61.1728 C   0  0  0  0  0  0  0  0  0  0  0  0
  -40.1208   60.3695   60.9941 C   0  0  0  0  0  0  0  0  0  0  0  0
  -40.6917   60.2179   59.5954 C   0  0  0  0  0  0  0  0  0  0  0  0
  -38.3799   60.2709   65.7952 C   0  0  0  0  0  0  0  0  0  0  0  0
  -36.9486   60.4872   65.7067 O   0  0  0  0  0  0  0  0  0  0  0  0
  -35.9159   62.3864   67.5785 O   0  0  0  0  0  0  0  0  0  0  0  0
  -33.0635   62.9905   64.5956 O   0  0  0  0  0  0  0  0  0  0  0  0
  -35.8003   61.8256   64.0407 O   0  0  0  0  0  0  0  0  0  0  0  0
  -36.3945   61.8114   65.3614 C   0  0  0  0  0  0  0  0  0  0  0  0
  -35.3267   62.3666   66.3150 C   0  0  0  0  0  0  0  0  0  0  0  0
  -34.8718   63.8015   65.9692 C   0  0  0  0  0  0  0  0  0  0  0  0
  -34.2798   63.7337   64.5886 C   0  0  0  0  0  0  0  0  0  0  0  0
  -35.2831   63.1196   63.6291 C   0  0  0  0  0  0  0  0  0  0  0  0
  -36.2083   61.4917   67.8130 H   0  0  0  0  0  0  0  0  0  0  0  0
  -32.4382   63.3996   65.2141 H   0  0  0  0  0  0  0  0  0  0  0  0
  -35.2967   63.6427   61.2968 O   0  0  0  0  0  0  0  0  0  0  0  0
  -34.4956   63.1341   62.3207 C   0  0  0  0  0  0  0  0  0  0  0  0
  -34.7944   63.6509   60.4670 H   0  0  0  0  0  0  0  0  0  0  0  0
  -33.8464   64.3640   66.8190 O   0  0  0  0  0  0  0  0  0  0  0  0
  -31.5019   65.0320   65.9394 O   0  0  0  0  0  0  0  0  0  0  0  0
  -32.6493   66.4830   67.5102 O   0  0  0  0  0  0  0  0  0  0  0  0
  -33.3567   66.3921   65.1937 O   0  0  0  0  0  0  0  0  0  0  0  0
  -32.8294   65.5896   66.3337 S   0  0  0  0  0  0  0  0  0  0  0  0
  -31.1422   64.5056   66.6704 H   0  0  0  0  0  0  0  0  0  0  0  0
  -33.4771   65.8171   64.4220 H   0  0  0  0  0  0  0  0  0  0  0  0
  2  1  1  0  0  0
  2  4  1  0  0  0
  2  5  1  0  0  0
 41 42  1  0  0  0
 41  1  1  0  0  0
 42 46  1  0  0  0
  1 24  1  0  0  0
 23 24  1  0  0  0
 23 25  1  0  0  0
 24 26  1  0  0  0
  3  4  2  0  0  0
 26 27  2  0  0  0
 27 28  1  0  0  0
 43 47  1  0  0  0
 43 51  1  0  0  0
 28 29  1  0  0  0
 56 48  1  0  0  0
 56 60  1  0  0  0
 29 30  1  0  0  0
 57 60  1  0  0  0
 57 61  1  0  0  0
 30 31  1  0  0  0
 44 49  1  0  0  0
 44 52  1  0  0  0
 31 32  1  0  0  0
 45 46  1  0  0  0
 45 50  1  0  0  0
 32 33  1  0  0  0
 53 54  1  0  0  0
 53 55  1  0  0  0
 33 34  1  0  0  0
 34 35  1  0  0  0
 35 36  1  0  0  0
 58 60  1  0  0  0
 36 37  1  0  0  0
 59 60  1  0  0  0
 59 62  1  0  0  0
 37 38  1  0  0  0
 38 39  1  0  0  0
 39 40  1  0  0  0
  4  6  1  0  0  0
  6  7  1  0  0  0
  7  8  1  0  0  0
  8  9  1  0  0  0
  9 10  1  0  0  0
 10 11  1  0  0  0
 11 12  1  0  0  0
 12 13  1  0  0  0
 13 14  1  0  0  0
 14 15  1  0  0  0
 15 16  1  0  0  0
 16 17  1  0  0  0
 17 18  1  0  0  0
 18 19  1  0  0  0
 19 20  1  0  0  0
 20 21  1  0  0  0
 21 22  1  0  0  0
 46 47  1  0  0  0
 47 48  1  0  0  0
 48 49  1  0  0  0
 49 50  1  0  0  0
 50 54  1  0  0  0
M  CHG 1  58  -1
M  END
> <minimizedAffinity>
-9.56416

> <CNNscore>
0.2045736611

> <CNNaffinity>
6.9551668167

> <CNN_VS>
1.4228439331

> <CNNaffinity_variance>
1.1297754049

$$$$
/media/chris/experiments/cd1a-new-docking/inputs/ligands/1onq_ligand.pdb


 62 62  0  0  0  0  0  0  0  0999 V2000
  -37.8897   59.9339   64.7726 C   0  0  0  0  0  0  0  0  0  0  0  0
  -39.0819   59.2548   65.2401 N   0  0  0  0  0  0  0  0  0  0  0  0
  -40.4998   59.5254   63.4898 O   0  0  0  0  0  0  0  0  0  0  0  0
  -40.2500   59.1021   64.6016 C   0  0  0  0  0  0  0  0  0  0  0  0
  -39.0265   58.8562   66.1386 H   0  0  0  0  0  0  0  0  0  0  0  0
  -41.2943   58.3352   65.3574 C   0  0  0  0  0  0  0  0  0  0  0  0
  -41.8664   59.2950   66.4008 C   0  0  0  0  0  0  0  0  0  0  0  0
  -43.3612   59.0405   66.5795 C   0  0  0  0  0  0  0  0  0  0  0  0
  -44.1928   59.0606   65.3199 C   0  0  0  0  0  0  0  0  0  0  0  0
  -45.6589   59.1132   65.7365 C   0  0  0  0  0  0  0  0  0  0  0  0
  -46.5374   58.1404   64.9385 C   0  0  0  0  0  0  0  0  0  0  0  0
  -48.0427   58.4599   64.9906 C   0  0  0  0  0  0  0  0  0  0  0  0
  -48.4249   59.6907   64.1394 C   0  0  0  0  0  0  0  0  0  0  0  0
  -49.8973   59.6234   63.7236 C   0  0  0  0  0  0  0  0  0  0  0  0
  -50.3189   58.3222   63.0519 C   0  0  0  0  0  0  0  0  0  0  0  0
  -50.5953   58.5025   61.5665 C   0  0  0  0  0  0  0  0  0  0  0  0
  -50.9047   57.2256   60.7818 C   0  0  0  0  0  0  0  0  0  0  0  0
  -49.8633   57.0799   59.6804 C   0  0  0  0  0  0  0  0  0  0  0  0
  -48.4561   57.6003   59.9338 C   0  0  0  0  0  0  0  0  0  0  0  0
  -47.5342   57.2954   58.7425 C   0  0  0  0  0  0  0  0  0  0  0  0
  -48.2303   56.6001   57.5580 C   0  0  0  0  0  0  0  0  0  0  0  0
  -47.5133   55.3341   57.0947 C   0  0  0  0  0  0  0  0  0  0  0  0
  -35.6804   59.2168   64.7485 O   0  0  0  0  0  0  0  0  0  0  0  0
  -36.9787   58.7793   64.3925 C   0  0  0  0  0  0  0  0  0  0  0  0
  -35.6441   59.3771   65.7045 H   0  0  0  0  0  0  0  0  0  0  0  0
  -37.1042   58.5074   62.8916 C   0  0  0  0  0  0  0  0  0  0  0  0
  -37.7969   57.4701   62.3911 C   0  0  0  0  0  0  0  0  0  0  0  0
  -37.8742   57.2660   60.8793 C   0  0  0  0  0  0  0  0  0  0  0  0
  -38.0747   58.5655   60.0860 C   0  0  0  0  0  0  0  0  0  0  0  0
  -37.1910   58.7259   58.8351 C   0  0  0  0  0  0  0  0  0  0  0  0
  -37.3684   57.5216   57.8793 C   0  0  0  0  0  0  0  0  0  0  0  0
  -36.2012   56.5023   57.8755 C   0  0  0  0  0  0  0  0  0  0  0  0
  -34.7959   57.1486   57.8899 C   0  0  0  0  0  0  0  0  0  0  0  0
  -33.9366   56.7314   59.1029 C   0  0  0  0  0  0  0  0  0  0  0  0
  -34.6792   56.8096   60.4422 C   0  0  0  0  0  0  0  0  0  0  0  0
  -33.9746   56.1733   61.6386 C   0  0  0  0  0  0  0  0  0  0  0  0
  -32.5426   56.6941   61.8712 C   0  0  0  0  0  0  0  0  0  0  0  0
  -32.4348   57.9316   62.7751 C   0  0  0  0  0  0  0  0  0  0  0  0
  -32.2646   59.2065   61.9440 C   0  0  0  0  0  0  0  0  0  0  0  0
  -30.9279   59.9167   62.0633 C   0  0  0  0  0  0  0  0  0  0  0  0
  -37.3097   60.9975   65.7324 C   0  0  0  0  0  0  0  0  0  0  0  0
  -36.6604   62.1396   65.1183 O   0  0  0  0  0  0  0  0  0  0  0  0
  -34.2602   61.5021   63.7005 O   0  0  0  0  0  0  0  0  0  0  0  0
  -33.2370   65.4140   64.7249 O   0  0  0  0  0  0  0  0  0  0  0  0
  -35.2999   63.8035   66.2435 O   0  0  0  0  0  0  0  0  0  0  0  0
  -35.2994   62.5514   65.5155 C   0  0  0  0  0  0  0  0  0  0  0  0
  -34.2852   62.7219   64.3754 C   0  0  0  0  0  0  0  0  0  0  0  0
  -32.8533   63.0372   64.8607 C   0  0  0  0  0  0  0  0  0  0  0  0
  -32.9403   64.3375   65.6109 C   0  0  0  0  0  0  0  0  0  0  0  0
  -33.9894   64.2313   66.7029 C   0  0  0  0  0  0  0  0  0  0  0  0
  -35.1530   61.2873   63.3877 H   0  0  0  0  0  0  0  0  0  0  0  0
  -32.5554   65.4634   64.0365 H   0  0  0  0  0  0  0  0  0  0  0  0
  -32.5919   66.0187   67.4550 O   0  0  0  0  0  0  0  0  0  0  0  0
  -33.9250   65.6273   67.3187 C   0  0  0  0  0  0  0  0  0  0  0  0
  -32.5537   66.9055   67.8463 H   0  0  0  0  0  0  0  0  0  0  0  0
  -31.8623   63.2353   63.8268 O   0  0  0  0  0  0  0  0  0  0  0  0
  -31.4753   63.1957   61.2645 O   0  0  0  0  0  0  0  0  0  0  0  0
  -31.7322   65.3231   62.4037 O   0  0  0  0  0  0  0  0  0  0  0  0
  -33.6617   63.9102   62.0099 O   0  0  0  0  0  0  0  0  0  0  0  0
  -32.2099   63.9148   62.3472 S   0  0  0  0  0  0  0  0  0  0  0  0
  -30.5268   63.1885   61.4670 H   0  0  0  0  0  0  0  0  0  0  0  0
  -33.9816   62.9953   61.9709 H   0  0  0  0  0  0  0  0  0  0  0  0
  2  1  1  0  0  0
  2  4  1  0  0  0
  2  5  1  0  0  0
 41 42  1  0  0  0
 41  1  1  0  0  0
 42 46  1  0  0  0
  1 24  1  0  0  0
 23 24  1  0  0  0
 23 25  1  0  0  0
 24 26  1  0  0  0
  3  4  2  0  0  0
 26 27  2  0  0  0
 27 28  1  0  0  0
 43 47  1  0  0  0
 43 51  1  0  0  0
 28 29  1  0  0  0
 56 48  1  0  0  0
 56 60  1  0  0  0
 29 30  1  0  0  0
 57 60  1  0  0  0
 57 61  1  0  0  0
 30 31  1  0  0  0
 44 49  1  0  0  0
 44 52  1  0  0  0
 31 32  1  0  0  0
 45 46  1  0  0  0
 45 50  1  0  0  0
 32 33  1  0  0  0
 53 54  1  0  0  0
 53 55  1  0  0  0
 33 34  1  0  0  0
 34 35  1  0  0  0
 35 36  1  0  0  0
 58 60  1  0  0  0
 36 37  1  0  0  0
 59 60  1  0  0  0
 59 62  1  0  0  0
 37 38  1  0  0  0
 38 39  1  0  0  0
 39 40  1  0  0  0
  4  6  1  0  0  0
  6  7  1  0  0  0
  7  8  1  0  0  0
  8  9  1  0  0  0
  9 10  1  0  0  0
 10 11  1  0  0  0
 11 12  1  0  0  0
 12 13  1  0  0  0
 13 14  1  0  0  0
 14 15  1  0  0  0
 15 16  1  0  0  0
 16 17  1  0  0  0
 17 18  1  0  0  0
 18 19  1  0  0  0
 19 20  1  0  0  0
 20 21  1  0  0  0
 21 22  1  0  0  0
 46 47  1  0  0  0
 47 48  1  0  0  0
 48 49  1  0  0  0
 49 50  1  0  0  0
 50 54  1  0  0  0
M  CHG 1  58  -1
M  END
> <minimizedAffinity>
-9.42860

> <CNNscore>
0.1932064891

> <CNNaffinity>
6.6654205322

> <CNN_VS>
1.2878024578

> <CNNaffinity_variance>
1.0137126446

$$$$
/media/chris/experiments/cd1a-new-docking/inputs/ligands/1onq_ligand.pdb


 62 62  0  0  0  0  0  0  0  0999 V2000
  -40.1201   58.8241   65.3815 C   0  0  0  0  0  0  0  0  0  0  0  0
  -39.4232   57.9318   64.4762 N   0  0  0  0  0  0  0  0  0  0  0  0
  -39.1598   59.2329   62.6363 O   0  0  0  0  0  0  0  0  0  0  0  0
  -39.0092   58.1808   63.2264 C   0  0  0  0  0  0  0  0  0  0  0  0
  -39.2300   57.0308   64.8228 H   0  0  0  0  0  0  0  0  0  0  0  0
  -38.3040   57.0430   62.5497 C   0  0  0  0  0  0  0  0  0  0  0  0
  -36.8098   57.3605   62.6124 C   0  0  0  0  0  0  0  0  0  0  0  0
  -36.3181   57.2727   64.0552 C   0  0  0  0  0  0  0  0  0  0  0  0
  -35.0770   58.0669   64.3826 C   0  0  0  0  0  0  0  0  0  0  0  0
  -34.4227   58.4639   63.0635 C   0  0  0  0  0  0  0  0  0  0  0  0
  -33.0272   57.8507   62.8855 C   0  0  0  0  0  0  0  0  0  0  0  0
  -32.9399   56.7907   61.7723 C   0  0  0  0  0  0  0  0  0  0  0  0
  -33.8194   57.1308   60.5491 C   0  0  0  0  0  0  0  0  0  0  0  0
  -33.9620   55.9132   59.6314 C   0  0  0  0  0  0  0  0  0  0  0  0
  -35.2323   55.0967   59.8359 C   0  0  0  0  0  0  0  0  0  0  0  0
  -36.4730   55.8255   59.3411 C   0  0  0  0  0  0  0  0  0  0  0  0
  -36.4314   56.3126   57.8909 C   0  0  0  0  0  0  0  0  0  0  0  0
  -36.5642   57.8295   57.8946 C   0  0  0  0  0  0  0  0  0  0  0  0
  -37.1035   58.5114   59.1434 C   0  0  0  0  0  0  0  0  0  0  0  0
  -38.5722   58.9230   58.9545 C   0  0  0  0  0  0  0  0  0  0  0  0
  -39.0079   60.1379   59.7943 C   0  0  0  0  0  0  0  0  0  0  0  0
  -40.5113   60.3997   59.7429 C   0  0  0  0  0  0  0  0  0  0  0  0
  -41.3157   60.5650   64.4143 O   0  0  0  0  0  0  0  0  0  0  0  0
  -41.3810   59.1640   64.6056 C   0  0  0  0  0  0  0  0  0  0  0  0
  -40.5273   60.7837   63.8931 H   0  0  0  0  0  0  0  0  0  0  0  0
  -42.6066   58.7503   65.4237 C   0  0  0  0  0  0  0  0  0  0  0  0
  -43.8025   59.3520   65.3056 C   0  0  0  0  0  0  0  0  0  0  0  0
  -44.9782   58.8809   66.1594 C   0  0  0  0  0  0  0  0  0  0  0  0
  -46.3503   59.1098   65.5087 C   0  0  0  0  0  0  0  0  0  0  0  0
  -46.8647   57.9644   64.6172 C   0  0  0  0  0  0  0  0  0  0  0  0
  -48.4104   57.9791   64.5416 C   0  0  0  0  0  0  0  0  0  0  0  0
  -49.0087   58.8350   63.3965 C   0  0  0  0  0  0  0  0  0  0  0  0
  -50.5340   58.6613   63.2064 C   0  0  0  0  0  0  0  0  0  0  0  0
  -50.9174   57.9939   61.8679 C   0  0  0  0  0  0  0  0  0  0  0  0
  -49.7953   58.0152   60.8231 C   0  0  0  0  0  0  0  0  0  0  0  0
  -49.8704   56.9457   59.7354 C   0  0  0  0  0  0  0  0  0  0  0  0
  -48.4959   56.4085   59.2901 C   0  0  0  0  0  0  0  0  0  0  0  0
  -47.3618   57.4446   59.2748 C   0  0  0  0  0  0  0  0  0  0  0  0
  -46.8621   57.6919   57.8485 C   0  0  0  0  0  0  0  0  0  0  0  0
  -47.3302   56.7098   56.7893 C   0  0  0  0  0  0  0  0  0  0  0  0
  -39.2874   60.0098   65.9197 C   0  0  0  0  0  0  0  0  0  0  0  0
  -38.6822   60.8793   64.9294 O   0  0  0  0  0  0  0  0  0  0  0  0
  -36.8744   61.0068   62.7174 O   0  0  0  0  0  0  0  0  0  0  0  0
  -35.5000   64.4037   64.7102 O   0  0  0  0  0  0  0  0  0  0  0  0
  -37.0007   62.1757   66.1029 O   0  0  0  0  0  0  0  0  0  0  0  0
  -37.2577   61.2585   65.0119 C   0  0  0  0  0  0  0  0  0  0  0  0
  -36.6581   61.9099   63.7574 C   0  0  0  0  0  0  0  0  0  0  0  0
  -35.1402   62.1755   63.8614 C   0  0  0  0  0  0  0  0  0  0  0  0
  -34.9570   63.1216   65.0157 C   0  0  0  0  0  0  0  0  0  0  0  0
  -35.6038   62.5435   66.2614 C   0  0  0  0  0  0  0  0  0  0  0  0
  -37.8244   60.8277   62.6370 H   0  0  0  0  0  0  0  0  0  0  0  0
  -35.0733   64.7537   63.9124 H   0  0  0  0  0  0  0  0  0  0  0  0
  -36.5061   64.0137   67.9160 O   0  0  0  0  0  0  0  0  0  0  0  0
  -35.3181   63.6400   67.2852 C   0  0  0  0  0  0  0  0  0  0  0  0
  -36.3220   64.7101   68.5657 H   0  0  0  0  0  0  0  0  0  0  0  0
  -34.5280   62.8136   62.7177 O   0  0  0  0  0  0  0  0  0  0  0  0
  -32.5623   63.6872   61.2722 O   0  0  0  0  0  0  0  0  0  0  0  0
  -32.4756   61.4368   62.1763 O   0  0  0  0  0  0  0  0  0  0  0  0
  -32.1000   63.3464   63.6209 O   0  0  0  0  0  0  0  0  0  0  0  0
  -32.8836   62.8399   62.4586 S   0  0  0  0  0  0  0  0  0  0  0  0
  -33.0639   63.3719   60.5042 H   0  0  0  0  0  0  0  0  0  0  0  0
  -32.3598   64.2612   63.8119 H   0  0  0  0  0  0  0  0  0  0  0  0
  2  1  1  0  0  0
  2  4  1  0  0  0
  2  5  1  0  0  0
 41 42  1  0  0  0
 41  1  1  0  0  0
 42 46  1  0  0  0
  1 24  1  0  0  0
 23 24  1  0  0  0
 23 25  1  0  0  0
 24 26  1  0  0  0
  3  4  2  0  0  0
 26 27  2  0  0  0
 27 28  1  0  0  0
 43 47  1  0  0  0
 43 51  1  0  0  0
 28 29  1  0  0  0
 56 48  1  0  0  0
 56 60  1  0  0  0
 29 30  1  0  0  0
 57 60  1  0  0  0
 57 61  1  0  0  0
 30 31  1  0  0  0
 44 49  1  0  0  0
 44 52  1  0  0  0
 31 32  1  0  0  0
 45 46  1  0  0  0
 45 50  1  0  0  0
 32 33  1  0  0  0
 53 54  1  0  0  0
 53 55  1  0  0  0
 33 34  1  0  0  0
 34 35  1  0  0  0
 35 36  1  0  0  0
 58 60  1  0  0  0
 36 37  1  0  0  0
 59 60  1  0  0  0
 59 62  1  0  0  0
 37 38  1  0  0  0
 38 39  1  0  0  0
 39 40  1  0  0  0
  4  6  1  0  0  0
  6  7  1  0  0  0
  7  8  1  0  0  0
  8  9  1  0  0  0
  9 10  1  0  0  0
 10 11  1  0  0  0
 11 12  1  0  0  0
 12 13  1  0  0  0
 13 14  1  0  0  0
 14 15  1  0  0  0
 15 16  1  0  0  0
 16 17  1  0  0  0
 17 18  1  0  0  0
 18 19  1  0  0  0
 19 20  1  0  0  0
 20 21  1  0  0  0
 21 22  1  0  0  0
 46 47  1  0  0  0
 47 48  1  0  0  0
 48 49  1  0  0  0
 49 50  1  0  0  0
 50 54  1  0  0  0
M  CHG 1  58  -1
M  END
> <minimizedAffinity>
-10.10011

> <CNNscore>
0.1892789453

> <CNNaffinity>
7.2025957108

> <CNN_VS>
1.3632997274

> <CNNaffinity_variance>
1.1199576855

$$$$
/media/chris/experiments/cd1a-new-docking/inputs/ligands/1onq_ligand.pdb


 62 62  0  0  0  0  0  0  0  0999 V2000
  -37.8326   59.2015   63.9539 C   0  0  0  0  0  0  0  0  0  0  0  0
  -38.9523   59.6251   63.1366 N   0  0  0  0  0  0  0  0  0  0  0  0
  -37.9125   60.6652   61.4090 O   0  0  0  0  0  0  0  0  0  0  0  0
  -38.9219   60.2951   61.9766 C   0  0  0  0  0  0  0  0  0  0  0  0
  -39.8464   59.3916   63.4761 H   0  0  0  0  0  0  0  0  0  0  0  0
  -40.2634   60.5786   61.3685 C   0  0  0  0  0  0  0  0  0  0  0  0
  -40.0258   60.7876   59.8728 C   0  0  0  0  0  0  0  0  0  0  0  0
  -39.6060   59.4715   59.2226 C   0  0  0  0  0  0  0  0  0  0  0  0
  -40.3122   59.1112   57.9382 C   0  0  0  0  0  0  0  0  0  0  0  0
  -41.7872   59.4581   58.1103 C   0  0  0  0  0  0  0  0  0  0  0  0
  -42.6228   59.1298   56.8658 C   0  0  0  0  0  0  0  0  0  0  0  0
  -43.8968   58.3155   57.1565 C   0  0  0  0  0  0  0  0  0  0  0  0
  -44.2518   58.2723   58.6590 C   0  0  0  0  0  0  0  0  0  0  0  0
  -45.6177   57.6135   58.8724 C   0  0  0  0  0  0  0  0  0  0  0  0
  -46.6755   57.9719   57.8357 C   0  0  0  0  0  0  0  0  0  0  0  0
  -47.1529   56.7568   57.0541 C   0  0  0  0  0  0  0  0  0  0  0  0
  -47.3373   55.4698   57.8612 C   0  0  0  0  0  0  0  0  0  0  0  0
  -48.7672   55.4367   58.3838 C   0  0  0  0  0  0  0  0  0  0  0  0
  -49.0194   55.7941   59.8412 C   0  0  0  0  0  0  0  0  0  0  0  0
  -50.0464   56.9314   59.9587 C   0  0  0  0  0  0  0  0  0  0  0  0
  -49.5233   58.1931   60.6698 C   0  0  0  0  0  0  0  0  0  0  0  0
  -48.2396   57.9522   61.4607 C   0  0  0  0  0  0  0  0  0  0  0  0
  -39.0549   57.2264   63.9878 O   0  0  0  0  0  0  0  0  0  0  0  0
  -38.4632   58.1645   64.8674 C   0  0  0  0  0  0  0  0  0  0  0  0
  -38.3667   56.8204   63.4377 H   0  0  0  0  0  0  0  0  0  0  0  0
  -39.4984   58.8439   65.7671 C   0  0  0  0  0  0  0  0  0  0  0  0
  -40.8232   58.7375   65.5681 C   0  0  0  0  0  0  0  0  0  0  0  0
  -41.7930   59.4474   66.5109 C   0  0  0  0  0  0  0  0  0  0  0  0
  -43.2289   58.9064   66.4487 C   0  0  0  0  0  0  0  0  0  0  0  0
  -43.3669   57.3739   66.5095 C   0  0  0  0  0  0  0  0  0  0  0  0
  -44.4868   56.8853   65.5595 C   0  0  0  0  0  0  0  0  0  0  0  0
  -45.8644   56.6469   66.2282 C   0  0  0  0  0  0  0  0  0  0  0  0
  -47.0433   57.3546   65.5196 C   0  0  0  0  0  0  0  0  0  0  0  0
  -46.6680   58.7254   64.9162 C   0  0  0  0  0  0  0  0  0  0  0  0
  -47.4201   59.9043   65.5454 C   0  0  0  0  0  0  0  0  0  0  0  0
  -47.9641   60.9492   64.5734 C   0  0  0  0  0  0  0  0  0  0  0  0
  -48.9876   60.3923   63.5642 C   0  0  0  0  0  0  0  0  0  0  0  0
  -50.4155   60.2242   64.1053 C   0  0  0  0  0  0  0  0  0  0  0  0
  -50.7844   58.7435   64.2332 C   0  0  0  0  0  0  0  0  0  0  0  0
  -50.4622   58.0796   65.5602 C   0  0  0  0  0  0  0  0  0  0  0  0
  -37.0345   60.3389   64.6308 C   0  0  0  0  0  0  0  0  0  0  0  0
  -35.5950   60.1738   64.6911 O   0  0  0  0  0  0  0  0  0  0  0  0
  -33.7152   61.5051   62.9966 O   0  0  0  0  0  0  0  0  0  0  0  0
  -35.0572   64.8837   65.0419 O   0  0  0  0  0  0  0  0  0  0  0  0
  -35.2989   62.0822   66.1593 O   0  0  0  0  0  0  0  0  0  0  0  0
  -34.7136   61.2850   65.1013 C   0  0  0  0  0  0  0  0  0  0  0  0
  -34.3121   62.2724   63.9961 C   0  0  0  0  0  0  0  0  0  0  0  0
  -33.2978   63.3416   64.4578 C   0  0  0  0  0  0  0  0  0  0  0  0
  -33.9729   64.1149   65.5567 C   0  0  0  0  0  0  0  0  0  0  0  0
  -34.4510   63.1615   66.6367 C   0  0  0  0  0  0  0  0  0  0  0  0
  -34.3390   60.8268   62.6937 H   0  0  0  0  0  0  0  0  0  0  0  0
  -34.7297   65.4848   64.3546 H   0  0  0  0  0  0  0  0  0  0  0  0
  -36.4744   63.8892   67.6807 O   0  0  0  0  0  0  0  0  0  0  0  0
  -35.1001   64.1279   67.6252 C   0  0  0  0  0  0  0  0  0  0  0  0
  -36.8843   64.5042   68.3090 H   0  0  0  0  0  0  0  0  0  0  0  0
  -32.9057   64.3152   63.4636 O   0  0  0  0  0  0  0  0  0  0  0  0
  -33.2244   63.4237   61.0511 O   0  0  0  0  0  0  0  0  0  0  0  0
  -31.2465   62.7943   62.3084 O   0  0  0  0  0  0  0  0  0  0  0  0
  -31.4416   65.0239   61.3782 O   0  0  0  0  0  0  0  0  0  0  0  0
  -32.1923   63.9055   62.0162 S   0  0  0  0  0  0  0  0  0  0  0  0
  -33.7242   62.6941   61.4495 H   0  0  0  0  0  0  0  0  0  0  0  0
  -32.0510   65.7531   61.1842 H   0  0  0  0  0  0  0  0  0  0  0  0
  2  1  1  0  0  0
  2  4  1  0  0  0
  2  5  1  0  0  0
 41 42  1  0  0  0
 41  1  1  0  0  0
 42 46  1  0  0  0
  1 24  1  0  0  0
 23 24  1  0  0  0
 23 25  1  0  0  0
 24 26  1  0  0  0
  3  4  2  0  0  0
 26 27  2  0  0  0
 27 28  1  0  0  0
 43 47  1  0  0  0
 43 51  1  0  0  0
 28 29  1  0  0  0
 56 48  1  0  0  0
 56 60  1  0  0  0
 29 30  1  0  0  0
 57 60  1  0  0  0
 57 61  1  0  0  0
 30 31  1  0  0  0
 44 49  1  0  0  0
 44 52  1  0  0  0
 31 32  1  0  0  0
 45 46  1  0  0  0
 45 50  1  0  0  0
 32 33  1  0  0  0
 53 54  1  0  0  0
 53 55  1  0  0  0
 33 34  1  0  0  0
 34 35  1  0  0  0
 35 36  1  0  0  0
 58 60  1  0  0  0
 36 37  1  0  0  0
 59 60  1  0  0  0
 59 62  1  0  0  0
 37 38  1  0  0  0
 38 39  1  0  0  0
 39 40  1  0  0  0
  4  6  1  0  0  0
  6  7  1  0  0  0
  7  8  1  0  0  0
  8  9  1  0  0  0
  9 10  1  0  0  0
 10 11  1  0  0  0
 11 12  1  0  0  0
 12 13  1  0  0  0
 13 14  1  0  0  0
 14 15  1  0  0  0
 15 16  1  0  0  0
 16 17  1  0  0  0
 17 18  1  0  0  0
 18 19  1  0  0  0
 19 20  1  0  0  0
 20 21  1  0  0  0
 21 22  1  0  0  0
 46 47  1  0  0  0
 47 48  1  0  0  0
 48 49  1  0  0  0
 49 50  1  0  0  0
 50 54  1  0  0  0
M  CHG 1  58  -1
M  END
> <minimizedAffinity>
-8.17902

> <CNNscore>
0.1867123544

> <CNNaffinity>
6.8445768356

> <CNN_VS>
1.2779670954

> <CNNaffinity_variance>
0.7408412099

$$$$
