/media/chris/experiments/cd1a-new-docking/inputs/ligands/1onq_ligand.pdb


 62 62  0  0  0  0  0  0  0  0999 V2000
  -37.5557   59.4165   62.9589 C   0  0  0  0  0  0  0  0  0  0  0  0
  -37.5379   59.8212   61.5671 N   0  0  0  0  0  0  0  0  0  0  0  0
  -37.4937   59.4381   59.3313 O   0  0  0  0  0  0  0  0  0  0  0  0
  -37.5203   59.0390   60.4792 C   0  0  0  0  0  0  0  0  0  0  0  0
  -37.5388   60.7914   61.4003 H   0  0  0  0  0  0  0  0  0  0  0  0
  -37.5271   57.5645   60.7539 C   0  0  0  0  0  0  0  0  0  0  0  0
  -36.9524   56.8891   59.5086 C   0  0  0  0  0  0  0  0  0  0  0  0
  -35.9517   55.8101   59.9154 C   0  0  0  0  0  0  0  0  0  0  0  0
  -34.4984   56.1190   59.6494 C   0  0  0  0  0  0  0  0  0  0  0  0
  -33.8111   56.2992   60.9989 C   0  0  0  0  0  0  0  0  0  0  0  0
  -33.6650   57.7740   61.3976 C   0  0  0  0  0  0  0  0  0  0  0  0
  -32.4328   58.0737   62.2707 C   0  0  0  0  0  0  0  0  0  0  0  0
  -31.9668   59.5427   62.1676 C   0  0  0  0  0  0  0  0  0  0  0  0
  -30.4786   59.6134   61.8133 C   0  0  0  0  0  0  0  0  0  0  0  0
  -29.7201   60.7749   62.4440 C   0  0  0  0  0  0  0  0  0  0  0  0
  -30.2451   62.1261   61.9816 C   0  0  0  0  0  0  0  0  0  0  0  0
  -30.2709   63.2332   63.0380 C   0  0  0  0  0  0  0  0  0  0  0  0
  -29.4738   64.4167   62.5063 C   0  0  0  0  0  0  0  0  0  0  0  0
  -29.7218   64.8807   61.0786 C   0  0  0  0  0  0  0  0  0  0  0  0
  -28.9608   66.1831   60.7838 C   0  0  0  0  0  0  0  0  0  0  0  0
  -27.5059   65.9819   60.3216 C   0  0  0  0  0  0  0  0  0  0  0  0
  -27.0546   67.0067   59.2836 C   0  0  0  0  0  0  0  0  0  0  0  0
  -38.0188   61.4112   64.0554 O   0  0  0  0  0  0  0  0  0  0  0  0
  -38.6730   60.2680   63.5369 C   0  0  0  0  0  0  0  0  0  0  0  0
  -37.5712   61.8821   63.3351 H   0  0  0  0  0  0  0  0  0  0  0  0
  -39.4017   59.4771   64.6258 C   0  0  0  0  0  0  0  0  0  0  0  0
  -40.7095   59.1746   64.5596 C   0  0  0  0  0  0  0  0  0  0  0  0
  -41.3646   58.3816   65.6889 C   0  0  0  0  0  0  0  0  0  0  0  0
  -42.5248   59.1183   66.3741 C   0  0  0  0  0  0  0  0  0  0  0  0
  -43.8749   59.0686   65.6352 C   0  0  0  0  0  0  0  0  0  0  0  0
  -44.9338   58.3158   66.4760 C   0  0  0  0  0  0  0  0  0  0  0  0
  -45.6274   57.1300   65.7588 C   0  0  0  0  0  0  0  0  0  0  0  0
  -46.8553   56.5652   66.5113 C   0  0  0  0  0  0  0  0  0  0  0  0
  -48.2043   56.9384   65.8595 C   0  0  0  0  0  0  0  0  0  0  0  0
  -48.0812   57.9711   64.7326 C   0  0  0  0  0  0  0  0  0  0  0  0
  -48.6602   59.3542   65.0233 C   0  0  0  0  0  0  0  0  0  0  0  0
  -49.4251   59.9742   63.8373 C   0  0  0  0  0  0  0  0  0  0  0  0
  -50.9395   60.1287   64.0438 C   0  0  0  0  0  0  0  0  0  0  0  0
  -51.7209   59.4155   62.9367 C   0  0  0  0  0  0  0  0  0  0  0  0
  -51.0055   58.2769   62.2312 C   0  0  0  0  0  0  0  0  0  0  0  0
  -36.1914   59.4646   63.6836 C   0  0  0  0  0  0  0  0  0  0  0  0
  -35.2158   60.4051   63.1670 O   0  0  0  0  0  0  0  0  0  0  0  0
  -33.5998   62.5776   62.2472 O   0  0  0  0  0  0  0  0  0  0  0  0
  -35.8506   64.7379   65.0160 O   0  0  0  0  0  0  0  0  0  0  0  0
  -35.4878   61.7382   65.1756 O   0  0  0  0  0  0  0  0  0  0  0  0
  -34.6572   61.4740   64.0188 C   0  0  0  0  0  0  0  0  0  0  0  0
  -34.4304   62.8313   63.3380 C   0  0  0  0  0  0  0  0  0  0  0  0
  -33.7365   63.8718   64.2444 C   0  0  0  0  0  0  0  0  0  0  0  0
  -34.6510   64.0820   65.4195 C   0  0  0  0  0  0  0  0  0  0  0  0
  -34.9587   62.7484   66.0761 C   0  0  0  0  0  0  0  0  0  0  0  0
  -34.0201   61.9250   61.6656 H   0  0  0  0  0  0  0  0  0  0  0  0
  -35.6309   65.5862   64.5998 H   0  0  0  0  0  0  0  0  0  0  0  0
  -35.3843   64.3316   67.8156 O   0  0  0  0  0  0  0  0  0  0  0  0
  -35.8868   63.1785   67.2100 C   0  0  0  0  0  0  0  0  0  0  0  0
  -35.9754   64.6027   68.5353 H   0  0  0  0  0  0  0  0  0  0  0  0
  -33.5230   65.1778   63.6626 O   0  0  0  0  0  0  0  0  0  0  0  0
  -31.5331   65.6343   65.2592 O   0  0  0  0  0  0  0  0  0  0  0  0
  -33.2747   67.3055   65.0088 O   0  0  0  0  0  0  0  0  0  0  0  0
  -31.6335   66.9828   63.2548 O   0  0  0  0  0  0  0  0  0  0  0  0
  -32.4564   66.2927   64.2883 S   0  0  0  0  0  0  0  0  0  0  0  0
  -32.0517   65.1790   65.9408 H   0  0  0  0  0  0  0  0  0  0  0  0
  -31.0963   66.3294   62.7799 H   0  0  0  0  0  0  0  0  0  0  0  0
  2  1  1  0  0  0
  2  4  1  0  0  0
  2  5  1  0  0  0
 41 42  1  0  0  0
 41  1  1  0  0  0
 42 46  1  0  0  0
  1 24  1  0  0  0
 23 24  1  0  0  0
 23 25  1  0  0  0
 24 26  1  0  0  0
  3  4  2  0  0  0
 26 27  2  0  0  0
 27 28  1  0  0  0
 43 47  1  0  0  0
 43 51  1  0  0  0
 28 29  1  0  0  0
 56 48  1  0  0  0
 56 60  1  0  0  0
 29 30  1  0  0  0
 57 60  1  0  0  0
 57 61  1  0  0  0
 30 31  1  0  0  0
 44 49  1  0  0  0
 44 52  1  0  0  0
 31 32  1  0  0  0
 45 46  1  0  0  0
 45 50  1  0  0  0
 32 33  1  0  0  0
 53 54  1  0  0  0
 53 55  1  0  0  0
 33 34  1  0  0  0
 34 35  1  0  0  0
 35 36  1  0  0  0
 58 60  1  0  0  0
 36 37  1  0  0  0
 59 60  1  0  0  0
 59 62  1  0  0  0
 37 38  1  0  0  0
 38 39  1  0  0  0
 39 40  1  0  0  0
  4  6  1  0  0  0
  6  7  1  0  0  0
  7  8  1  0  0  0
  8  9  1  0  0  0
  9 10  1  0  0  0
 10 11  1  0  0  0
 11 12  1  0  0  0
 12 13  1  0  0  0
 13 14  1  0  0  0
 14 15  1  0  0  0
 15 16  1  0  0  0
 16 17  1  0  0  0
 17 18  1  0  0  0
 18 19  1  0  0  0
 19 20  1  0  0  0
 20 21  1  0  0  0
 21 22  1  0  0  0
 46 47  1  0  0  0
 47 48  1  0  0  0
 48 49  1  0  0  0
 49 50  1  0  0  0
 50 54  1  0  0  0
M  CHG 1  58  -1
M  END
> <minimizedAffinity>
-8.88191

> <CNNscore>
0.6218193769

> <CNNaffinity>
7.0345702171

> <CNN_VS>
4.3742322922

> <CNNaffinity_variance>
0.8600821495

$$$$
/media/chris/experiments/cd1a-new-docking/inputs/ligands/1onq_ligand.pdb


 62 62  0  0  0  0  0  0  0  0999 V2000
  -38.5439   59.6496   62.8367 C   0  0  0  0  0  0  0  0  0  0  0  0
  -38.8793   60.2591   61.5651 N   0  0  0  0  0  0  0  0  0  0  0  0
  -38.9926   60.3232   59.3000 O   0  0  0  0  0  0  0  0  0  0  0  0
  -38.7008   59.7572   60.3355 C   0  0  0  0  0  0  0  0  0  0  0  0
  -39.2891   61.1531   61.6103 H   0  0  0  0  0  0  0  0  0  0  0  0
  -38.0825   58.3915   60.2878 C   0  0  0  0  0  0  0  0  0  0  0  0
  -37.4462   58.2520   58.9047 C   0  0  0  0  0  0  0  0  0  0  0  0
  -36.6772   56.9361   58.8148 C   0  0  0  0  0  0  0  0  0  0  0  0
  -35.3045   57.0114   58.1914 C   0  0  0  0  0  0  0  0  0  0  0  0
  -34.3920   56.0707   58.9714 C   0  0  0  0  0  0  0  0  0  0  0  0
  -34.8525   55.8642   60.4206 C   0  0  0  0  0  0  0  0  0  0  0  0
  -33.8177   56.2877   61.4791 C   0  0  0  0  0  0  0  0  0  0  0  0
  -33.3906   57.7659   61.3437 C   0  0  0  0  0  0  0  0  0  0  0  0
  -32.7997   58.2799   62.6597 C   0  0  0  0  0  0  0  0  0  0  0  0
  -32.4117   59.7535   62.6602 C   0  0  0  0  0  0  0  0  0  0  0  0
  -31.4251   60.0911   61.5523 C   0  0  0  0  0  0  0  0  0  0  0  0
  -29.9558   60.1896   61.9691 C   0  0  0  0  0  0  0  0  0  0  0  0
  -29.7985   61.4038   62.8744 C   0  0  0  0  0  0  0  0  0  0  0  0
  -29.3165   62.7114   62.2636 C   0  0  0  0  0  0  0  0  0  0  0  0
  -30.4709   63.7182   62.1382 C   0  0  0  0  0  0  0  0  0  0  0  0
  -30.1156   65.0045   61.3700 C   0  0  0  0  0  0  0  0  0  0  0  0
  -28.6286   65.3475   61.4211 C   0  0  0  0  0  0  0  0  0  0  0  0
  -38.6780   60.7814   64.8608 O   0  0  0  0  0  0  0  0  0  0  0  0
  -39.4990   60.3387   63.7961 C   0  0  0  0  0  0  0  0  0  0  0  0
  -38.0227   61.4119   64.5231 H   0  0  0  0  0  0  0  0  0  0  0  0
  -40.5586   59.3377   64.2628 C   0  0  0  0  0  0  0  0  0  0  0  0
  -41.7164   59.7107   64.8341 C   0  0  0  0  0  0  0  0  0  0  0  0
  -42.7235   58.6498   65.2742 C   0  0  0  0  0  0  0  0  0  0  0  0
  -44.1838   59.1231   65.2314 C   0  0  0  0  0  0  0  0  0  0  0  0
  -45.1870   58.1342   64.6095 C   0  0  0  0  0  0  0  0  0  0  0  0
  -46.1482   57.5765   65.6867 C   0  0  0  0  0  0  0  0  0  0  0  0
  -46.6441   58.6097   66.7298 C   0  0  0  0  0  0  0  0  0  0  0  0
  -47.6548   59.6387   66.1710 C   0  0  0  0  0  0  0  0  0  0  0  0
  -49.0910   59.0866   66.0424 C   0  0  0  0  0  0  0  0  0  0  0  0
  -49.6222   59.0757   64.6040 C   0  0  0  0  0  0  0  0  0  0  0  0
  -51.0080   59.6826   64.3953 C   0  0  0  0  0  0  0  0  0  0  0  0
  -51.5881   59.4485   62.9865 C   0  0  0  0  0  0  0  0  0  0  0  0
  -50.5918   58.9077   61.9497 C   0  0  0  0  0  0  0  0  0  0  0  0
  -51.0425   57.5466   61.4119 C   0  0  0  0  0  0  0  0  0  0  0  0
  -50.1143   56.8728   60.4169 C   0  0  0  0  0  0  0  0  0  0  0  0
  -37.0437   59.6671   63.2083 C   0  0  0  0  0  0  0  0  0  0  0  0
  -36.2917   60.8424   62.8131 O   0  0  0  0  0  0  0  0  0  0  0  0
  -34.2145   62.7065   62.1901 O   0  0  0  0  0  0  0  0  0  0  0  0
  -35.9822   64.9038   65.2635 O   0  0  0  0  0  0  0  0  0  0  0  0
  -36.2998   61.9070   64.9931 O   0  0  0  0  0  0  0  0  0  0  0  0
  -35.5261   61.6291   63.8006 C   0  0  0  0  0  0  0  0  0  0  0  0
  -34.9892   62.9834   63.3158 C   0  0  0  0  0  0  0  0  0  0  0  0
  -34.0992   63.7048   64.3516 C   0  0  0  0  0  0  0  0  0  0  0  0
  -34.9670   63.9466   65.5557 C   0  0  0  0  0  0  0  0  0  0  0  0
  -35.5770   62.6367   66.0209 C   0  0  0  0  0  0  0  0  0  0  0  0
  -34.7580   62.2525   61.5273 H   0  0  0  0  0  0  0  0  0  0  0  0
  -35.5709   65.7315   64.9688 H   0  0  0  0  0  0  0  0  0  0  0  0
  -35.7615   64.1587   67.8548 O   0  0  0  0  0  0  0  0  0  0  0  0
  -36.4083   63.0995   67.2154 C   0  0  0  0  0  0  0  0  0  0  0  0
  -36.2914   64.4507   68.6130 H   0  0  0  0  0  0  0  0  0  0  0  0
  -33.5887   64.9986   63.9578 O   0  0  0  0  0  0  0  0  0  0  0  0
  -33.0273   66.5913   65.9238 O   0  0  0  0  0  0  0  0  0  0  0  0
  -31.7746   66.7590   63.8523 O   0  0  0  0  0  0  0  0  0  0  0  0
  -31.3613   64.9249   65.3818 O   0  0  0  0  0  0  0  0  0  0  0  0
  -32.4118   65.8132   64.8083 S   0  0  0  0  0  0  0  0  0  0  0  0
  -33.7149   67.1763   65.5691 H   0  0  0  0  0  0  0  0  0  0  0  0
  -31.7683   64.3046   66.0068 H   0  0  0  0  0  0  0  0  0  0  0  0
  2  1  1  0  0  0
  2  4  1  0  0  0
  2  5  1  0  0  0
 41 42  1  0  0  0
 41  1  1  0  0  0
 42 46  1  0  0  0
  1 24  1  0  0  0
 23 24  1  0  0  0
 23 25  1  0  0  0
 24 26  1  0  0  0
  3  4  2  0  0  0
 26 27  2  0  0  0
 27 28  1  0  0  0
 43 47  1  0  0  0
 43 51  1  0  0  0
 28 29  1  0  0  0
 56 48  1  0  0  0
 56 60  1  0  0  0
 29 30  1  0  0  0
 57 60  1  0  0  0
 57 61  1  0  0  0
 30 31  1  0  0  0
 44 49  1  0  0  0
 44 52  1  0  0  0
 31 32  1  0  0  0
 45 46  1  0  0  0
 45 50  1  0  0  0
 32 33  1  0  0  0
 53 54  1  0  0  0
 53 55  1  0  0  0
 33 34  1  0  0  0
 34 35  1  0  0  0
 35 36  1  0  0  0
 58 60  1  0  0  0
 36 37  1  0  0  0
 59 60  1  0  0  0
 59 62  1  0  0  0
 37 38  1  0  0  0
 38 39  1  0  0  0
 39 40  1  0  0  0
  4  6  1  0  0  0
  6  7  1  0  0  0
  7  8  1  0  0  0
  8  9  1  0  0  0
  9 10  1  0  0  0
 10 11  1  0  0  0
 11 12  1  0  0  0
 12 13  1  0  0  0
 13 14  1  0  0  0
 14 15  1  0  0  0
 15 16  1  0  0  0
 16 17  1  0  0  0
 17 18  1  0  0  0
 18 19  1  0  0  0
 19 20  1  0  0  0
 20 21  1  0  0  0
 21 22  1  0  0  0
 46 47  1  0  0  0
 47 48  1  0  0  0
 48 49  1  0  0  0
 49 50  1  0  0  0
 50 54  1  0  0  0
M  CHG 1  58  -1
M  END
> <minimizedAffinity>
-9.30839

> <CNNscore>
0.4939380288

> <CNNaffinity>
7.0203146935

> <CNN_VS>
3.4676003456

> <CNNaffinity_variance>
0.7376040816

$$$$
/media/chris/experiments/cd1a-new-docking/inputs/ligands/1onq_ligand.pdb


 62 62  0  0  0  0  0  0  0  0999 V2000
  -38.3204   59.8475   60.9718 C   0  0  0  0  0  0  0  0  0  0  0  0
  -38.3665   58.5318   61.5783 N   0  0  0  0  0  0  0  0  0  0  0  0
  -39.0324   57.0275   63.1408 O   0  0  0  0  0  0  0  0  0  0  0  0
  -39.0420   58.1484   62.6703 C   0  0  0  0  0  0  0  0  0  0  0  0
  -37.8354   57.8329   61.1326 H   0  0  0  0  0  0  0  0  0  0  0  0
  -39.8510   59.2251   63.3304 C   0  0  0  0  0  0  0  0  0  0  0  0
  -39.5335   59.1515   64.8240 C   0  0  0  0  0  0  0  0  0  0  0  0
  -40.7993   59.4045   65.6394 C   0  0  0  0  0  0  0  0  0  0  0  0
  -42.1021   59.0308   64.9749 C   0  0  0  0  0  0  0  0  0  0  0  0
  -42.9037   58.1966   65.9687 C   0  0  0  0  0  0  0  0  0  0  0  0
  -44.2097   58.8787   66.3979 C   0  0  0  0  0  0  0  0  0  0  0  0
  -45.1046   59.3243   65.2270 C   0  0  0  0  0  0  0  0  0  0  0  0
  -46.2427   58.3241   64.9268 C   0  0  0  0  0  0  0  0  0  0  0  0
  -47.6094   58.9815   65.1393 C   0  0  0  0  0  0  0  0  0  0  0  0
  -48.7141   58.0384   65.5997 C   0  0  0  0  0  0  0  0  0  0  0  0
  -50.0989   58.6458   65.4316 C   0  0  0  0  0  0  0  0  0  0  0  0
  -50.2433   59.6909   64.3230 C   0  0  0  0  0  0  0  0  0  0  0  0
  -51.1203   59.1027   63.2259 C   0  0  0  0  0  0  0  0  0  0  0  0
  -50.5641   57.9695   62.3766 C   0  0  0  0  0  0  0  0  0  0  0  0
  -49.8610   58.5154   61.1236 C   0  0  0  0  0  0  0  0  0  0  0  0
  -50.0294   57.6432   59.8659 C   0  0  0  0  0  0  0  0  0  0  0  0
  -49.4550   56.2373   60.0244 C   0  0  0  0  0  0  0  0  0  0  0  0
  -39.7141   59.4085   59.1661 O   0  0  0  0  0  0  0  0  0  0  0  0
  -38.3406   59.5283   59.4868 C   0  0  0  0  0  0  0  0  0  0  0  0
  -40.1611   60.2521   59.3379 H   0  0  0  0  0  0  0  0  0  0  0  0
  -37.5745   58.2270   59.2376 C   0  0  0  0  0  0  0  0  0  0  0  0
  -37.0323   57.9132   58.0486 C   0  0  0  0  0  0  0  0  0  0  0  0
  -36.2828   56.5930   57.8795 C   0  0  0  0  0  0  0  0  0  0  0  0
  -34.7743   56.6956   58.1481 C   0  0  0  0  0  0  0  0  0  0  0  0
  -34.2380   55.8079   59.2864 C   0  0  0  0  0  0  0  0  0  0  0  0
  -33.7594   56.6719   60.4779 C   0  0  0  0  0  0  0  0  0  0  0  0
  -34.8690   57.1042   61.4696 C   0  0  0  0  0  0  0  0  0  0  0  0
  -34.4598   58.2591   62.4138 C   0  0  0  0  0  0  0  0  0  0  0  0
  -32.9448   58.3088   62.7080 C   0  0  0  0  0  0  0  0  0  0  0  0
  -32.2670   59.6025   62.2408 C   0  0  0  0  0  0  0  0  0  0  0  0
  -30.7402   59.5857   62.2060 C   0  0  0  0  0  0  0  0  0  0  0  0
  -30.1134   60.8671   61.6219 C   0  0  0  0  0  0  0  0  0  0  0  0
  -31.0389   62.0929   61.5900 C   0  0  0  0  0  0  0  0  0  0  0  0
  -30.4930   63.2172   62.4748 C   0  0  0  0  0  0  0  0  0  0  0  0
  -30.3982   62.9211   63.9611 C   0  0  0  0  0  0  0  0  0  0  0  0
  -37.1891   60.7729   61.4743 C   0  0  0  0  0  0  0  0  0  0  0  0
  -37.5501   61.7477   62.4856 O   0  0  0  0  0  0  0  0  0  0  0  0
  -35.6776   63.9084   62.4328 O   0  0  0  0  0  0  0  0  0  0  0  0
  -36.8440   64.3267   66.4157 O   0  0  0  0  0  0  0  0  0  0  0  0
  -37.1465   61.7385   64.8779 O   0  0  0  0  0  0  0  0  0  0  0  0
  -36.6199   62.0983   63.5775 C   0  0  0  0  0  0  0  0  0  0  0  0
  -36.2185   63.5771   63.6744 C   0  0  0  0  0  0  0  0  0  0  0  0
  -35.1554   63.8616   64.7581 C   0  0  0  0  0  0  0  0  0  0  0  0
  -35.7713   63.4546   66.0682 C   0  0  0  0  0  0  0  0  0  0  0  0
  -36.2491   62.0160   65.9864 C   0  0  0  0  0  0  0  0  0  0  0  0
  -36.3326   63.7359   61.7384 H   0  0  0  0  0  0  0  0  0  0  0  0
  -36.5169   65.2388   66.4623 H   0  0  0  0  0  0  0  0  0  0  0  0
  -36.1021   62.5546   68.3107 O   0  0  0  0  0  0  0  0  0  0  0  0
  -36.8356   61.8141   67.3819 C   0  0  0  0  0  0  0  0  0  0  0  0
  -36.4765   62.4246   69.1960 H   0  0  0  0  0  0  0  0  0  0  0  0
  -34.7606   65.2437   64.9119 O   0  0  0  0  0  0  0  0  0  0  0  0
  -33.1303   67.1225   65.6397 O   0  0  0  0  0  0  0  0  0  0  0  0
  -32.5436   65.6842   63.7753 O   0  0  0  0  0  0  0  0  0  0  0  0
  -32.4043   64.8525   66.0475 O   0  0  0  0  0  0  0  0  0  0  0  0
  -33.1800   65.7239   65.1199 S   0  0  0  0  0  0  0  0  0  0  0  0
  -33.6308   67.7055   65.0477 H   0  0  0  0  0  0  0  0  0  0  0  0
  -32.8126   64.8725   66.9273 H   0  0  0  0  0  0  0  0  0  0  0  0
  2  1  1  0  0  0
  2  4  1  0  0  0
  2  5  1  0  0  0
 41 42  1  0  0  0
 41  1  1  0  0  0
 42 46  1  0  0  0
  1 24  1  0  0  0
 23 24  1  0  0  0
 23 25  1  0  0  0
 24 26  1  0  0  0
  3  4  2  0  0  0
 26 27  2  0  0  0
 27 28  1  0  0  0
 43 47  1  0  0  0
 43 51  1  0  0  0
 28 29  1  0  0  0
 56 48  1  0  0  0
 56 60  1  0  0  0
 29 30  1  0  0  0
 57 60  1  0  0  0
 57 61  1  0  0  0
 30 31  1  0  0  0
 44 49  1  0  0  0
 44 52  1  0  0  0
 31 32  1  0  0  0
 45 46  1  0  0  0
 45 50  1  0  0  0
 32 33  1  0  0  0
 53 54  1  0  0  0
 53 55  1  0  0  0
 33 34  1  0  0  0
 34 35  1  0  0  0
 35 36  1  0  0  0
 58 60  1  0  0  0
 36 37  1  0  0  0
 59 60  1  0  0  0
 59 62  1  0  0  0
 37 38  1  0  0  0
 38 39  1  0  0  0
 39 40  1  0  0  0
  4  6  1  0  0  0
  6  7  1  0  0  0
  7  8  1  0  0  0
  8  9  1  0  0  0
  9 10  1  0  0  0
 10 11  1  0  0  0
 11 12  1  0  0  0
 12 13  1  0  0  0
 13 14  1  0  0  0
 14 15  1  0  0  0
 15 16  1  0  0  0
 16 17  1  0  0  0
 17 18  1  0  0  0
 18 19  1  0  0  0
 19 20  1  0  0  0
 20 21  1  0  0  0
 21 22  1  0  0  0
 46 47  1  0  0  0
 47 48  1  0  0  0
 48 49  1  0  0  0
 49 50  1  0  0  0
 50 54  1  0  0  0
M  CHG 1  58  -1
M  END
> <minimizedAffinity>
-9.35165

> <CNNscore>
0.3569102585

> <CNNaffinity>
7.1374344826

> <CNN_VS>
2.5474236012

> <CNNaffinity_variance>
1.1434667110

$$$$
/media/chris/experiments/cd1a-new-docking/inputs/ligands/1onq_ligand.pdb


 62 62  0  0  0  0  0  0  0  0999 V2000
  -37.5187   59.3866   62.1503 C   0  0  0  0  0  0  0  0  0  0  0  0
  -36.3815   58.7864   62.8193 N   0  0  0  0  0  0  0  0  0  0  0  0
  -35.3759   57.6254   64.4892 O   0  0  0  0  0  0  0  0  0  0  0  0
  -36.3679   58.0972   63.9684 C   0  0  0  0  0  0  0  0  0  0  0  0
  -35.5107   58.8991   62.3741 H   0  0  0  0  0  0  0  0  0  0  0  0
  -37.7049   57.9295   64.6272 C   0  0  0  0  0  0  0  0  0  0  0  0
  -37.8748   59.1196   65.5717 C   0  0  0  0  0  0  0  0  0  0  0  0
  -39.2782   59.7034   65.4277 C   0  0  0  0  0  0  0  0  0  0  0  0
  -40.1898   59.0053   64.4479 C   0  0  0  0  0  0  0  0  0  0  0  0
  -41.6035   59.5280   64.6808 C   0  0  0  0  0  0  0  0  0  0  0  0
  -41.9871   59.5587   66.1664 C   0  0  0  0  0  0  0  0  0  0  0  0
  -43.2699   58.7773   66.5043 C   0  0  0  0  0  0  0  0  0  0  0  0
  -44.4837   59.2209   65.6583 C   0  0  0  0  0  0  0  0  0  0  0  0
  -44.9600   58.0785   64.7567 C   0  0  0  0  0  0  0  0  0  0  0  0
  -45.1227   56.7326   65.4526 C   0  0  0  0  0  0  0  0  0  0  0  0
  -46.2055   56.7625   66.5211 C   0  0  0  0  0  0  0  0  0  0  0  0
  -47.5411   56.1188   66.1412 C   0  0  0  0  0  0  0  0  0  0  0  0
  -48.3339   57.1212   65.3135 C   0  0  0  0  0  0  0  0  0  0  0  0
  -49.5904   57.7326   65.9157 C   0  0  0  0  0  0  0  0  0  0  0  0
  -49.5942   59.2601   65.7462 C   0  0  0  0  0  0  0  0  0  0  0  0
  -48.2372   59.8604   65.3348 C   0  0  0  0  0  0  0  0  0  0  0  0
  -48.3552   60.9434   64.2650 C   0  0  0  0  0  0  0  0  0  0  0  0
  -36.4177   58.2260   60.4661 O   0  0  0  0  0  0  0  0  0  0  0  0
  -37.7230   58.4690   60.9571 C   0  0  0  0  0  0  0  0  0  0  0  0
  -35.8926   57.7816   61.1499 H   0  0  0  0  0  0  0  0  0  0  0  0
  -38.6066   59.1710   59.9232 C   0  0  0  0  0  0  0  0  0  0  0  0
  -39.8258   59.6571   60.2119 C   0  0  0  0  0  0  0  0  0  0  0  0
  -40.6476   60.3445   59.1231 C   0  0  0  0  0  0  0  0  0  0  0  0
  -41.9346   59.5950   58.7491 C   0  0  0  0  0  0  0  0  0  0  0  0
  -42.0519   59.1664   57.2747 C   0  0  0  0  0  0  0  0  0  0  0  0
  -43.4703   58.6271   56.9706 C   0  0  0  0  0  0  0  0  0  0  0  0
  -44.2680   58.1312   58.2032 C   0  0  0  0  0  0  0  0  0  0  0  0
  -45.7898   57.9966   57.9605 C   0  0  0  0  0  0  0  0  0  0  0  0
  -46.5604   57.4286   59.1720 C   0  0  0  0  0  0  0  0  0  0  0  0
  -47.2789   56.1054   58.8819 C   0  0  0  0  0  0  0  0  0  0  0  0
  -48.7061   55.9859   59.4124 C   0  0  0  0  0  0  0  0  0  0  0  0
  -49.5462   57.2670   59.2425 C   0  0  0  0  0  0  0  0  0  0  0  0
  -50.6576   57.4643   60.2845 C   0  0  0  0  0  0  0  0  0  0  0  0
  -50.0826   57.9599   61.6145 C   0  0  0  0  0  0  0  0  0  0  0  0
  -51.0564   58.6428   62.5585 C   0  0  0  0  0  0  0  0  0  0  0  0
  -37.3969   60.8994   61.8582 C   0  0  0  0  0  0  0  0  0  0  0  0
  -37.4672   61.7882   63.0021 O   0  0  0  0  0  0  0  0  0  0  0  0
  -35.0822   62.8111   61.8009 O   0  0  0  0  0  0  0  0  0  0  0  0
  -35.1139   65.3310   65.1247 O   0  0  0  0  0  0  0  0  0  0  0  0
  -36.5484   62.6675   65.0681 O   0  0  0  0  0  0  0  0  0  0  0  0
  -36.2497   62.1936   63.7324 C   0  0  0  0  0  0  0  0  0  0  0  0
  -35.3988   63.2880   63.0723 C   0  0  0  0  0  0  0  0  0  0  0  0
  -34.0809   63.5853   63.8208 C   0  0  0  0  0  0  0  0  0  0  0  0
  -34.4743   64.0589   65.1928 C   0  0  0  0  0  0  0  0  0  0  0  0
  -35.3798   63.0332   65.8504 C   0  0  0  0  0  0  0  0  0  0  0  0
  -35.8994   62.6186   61.3151 H   0  0  0  0  0  0  0  0  0  0  0  0
  -34.5188   65.9699   64.7019 H   0  0  0  0  0  0  0  0  0  0  0  0
  -34.5004   64.3091   67.6704 O   0  0  0  0  0  0  0  0  0  0  0  0
  -35.6630   63.7000   67.1947 C   0  0  0  0  0  0  0  0  0  0  0  0
  -34.6829   64.7318   68.5242 H   0  0  0  0  0  0  0  0  0  0  0  0
  -33.2529   64.6280   63.2578 O   0  0  0  0  0  0  0  0  0  0  0  0
  -31.5564   62.8808   62.3713 O   0  0  0  0  0  0  0  0  0  0  0  0
  -30.7516   64.8225   63.5840 O   0  0  0  0  0  0  0  0  0  0  0  0
  -31.5266   65.0475   61.2987 O   0  0  0  0  0  0  0  0  0  0  0  0
  -31.7532   64.3439   62.5930 S   0  0  0  0  0  0  0  0  0  0  0  0
  -31.7000   62.4053   63.2044 H   0  0  0  0  0  0  0  0  0  0  0  0
  -32.1758   64.7412   60.6462 H   0  0  0  0  0  0  0  0  0  0  0  0
  2  1  1  0  0  0
  2  4  1  0  0  0
  2  5  1  0  0  0
 41 42  1  0  0  0
 41  1  1  0  0  0
 42 46  1  0  0  0
  1 24  1  0  0  0
 23 24  1  0  0  0
 23 25  1  0  0  0
 24 26  1  0  0  0
  3  4  2  0  0  0
 26 27  2  0  0  0
 27 28  1  0  0  0
 43 47  1  0  0  0
 43 51  1  0  0  0
 28 29  1  0  0  0
 56 48  1  0  0  0
 56 60  1  0  0  0
 29 30  1  0  0  0
 57 60  1  0  0  0
 57 61  1  0  0  0
 30 31  1  0  0  0
 44 49  1  0  0  0
 44 52  1  0  0  0
 31 32  1  0  0  0
 45 46  1  0  0  0
 45 50  1  0  0  0
 32 33  1  0  0  0
 53 54  1  0  0  0
 53 55  1  0  0  0
 33 34  1  0  0  0
 34 35  1  0  0  0
 35 36  1  0  0  0
 58 60  1  0  0  0
 36 37  1  0  0  0
 59 60  1  0  0  0
 59 62  1  0  0  0
 37 38  1  0  0  0
 38 39  1  0  0  0
 39 40  1  0  0  0
  4  6  1  0  0  0
  6  7  1  0  0  0
  7  8  1  0  0  0
  8  9  1  0  0  0
  9 10  1  0  0  0
 10 11  1  0  0  0
 11 12  1  0  0  0
 12 13  1  0  0  0
 13 14  1  0  0  0
 14 15  1  0  0  0
 15 16  1  0  0  0
 16 17  1  0  0  0
 17 18  1  0  0  0
 18 19  1  0  0  0
 19 20  1  0  0  0
 20 21  1  0  0  0
 21 22  1  0  0  0
 46 47  1  0  0  0
 47 48  1  0  0  0
 48 49  1  0  0  0
 49 50  1  0  0  0
 50 54  1  0  0  0
M  CHG 1  58  -1
M  END
> <minimizedAffinity>
-8.80548

> <CNNscore>
0.3208289146

> <CNNaffinity>
7.1006178856

> <CNN_VS>
2.2780835629

> <CNNaffinity_variance>
0.9923565984

$$$$
/media/chris/experiments/cd1a-new-docking/inputs/ligands/1onq_ligand.pdb


 62 62  0  0  0  0  0  0  0  0999 V2000
  -40.2479   59.7325   63.7512 C   0  0  0  0  0  0  0  0  0  0  0  0
  -40.5621   60.2805   62.4465 N   0  0  0  0  0  0  0  0  0  0  0  0
  -40.2529   60.5391   60.2138 O   0  0  0  0  0  0  0  0  0  0  0  0
  -39.9504   60.0379   61.2792 C   0  0  0  0  0  0  0  0  0  0  0  0
  -41.3190   60.9091   62.4139 H   0  0  0  0  0  0  0  0  0  0  0  0
  -38.8051   59.0719   61.3481 C   0  0  0  0  0  0  0  0  0  0  0  0
  -37.8920   59.3974   60.1660 C   0  0  0  0  0  0  0  0  0  0  0  0
  -37.9261   58.2572   59.1512 C   0  0  0  0  0  0  0  0  0  0  0  0
  -36.8933   58.3164   58.0520 C   0  0  0  0  0  0  0  0  0  0  0  0
  -36.1633   56.9775   58.0329 C   0  0  0  0  0  0  0  0  0  0  0  0
  -34.6559   57.1275   57.7866 C   0  0  0  0  0  0  0  0  0  0  0  0
  -33.7823   56.8442   59.0222 C   0  0  0  0  0  0  0  0  0  0  0  0
  -34.2997   55.6572   59.8642 C   0  0  0  0  0  0  0  0  0  0  0  0
  -34.5359   56.0867   61.3150 C   0  0  0  0  0  0  0  0  0  0  0  0
  -35.0442   57.5124   61.4909 C   0  0  0  0  0  0  0  0  0  0  0  0
  -34.9586   57.9816   62.9358 C   0  0  0  0  0  0  0  0  0  0  0  0
  -33.9299   59.0771   63.2258 C   0  0  0  0  0  0  0  0  0  0  0  0
  -32.5415   58.5040   62.9765 C   0  0  0  0  0  0  0  0  0  0  0  0
  -31.7246   59.0505   61.8149 C   0  0  0  0  0  0  0  0  0  0  0  0
  -31.6369   60.5837   61.8776 C   0  0  0  0  0  0  0  0  0  0  0  0
  -30.2532   61.1591   61.5239 C   0  0  0  0  0  0  0  0  0  0  0  0
  -29.0955   60.3334   62.0801 C   0  0  0  0  0  0  0  0  0  0  0  0
  -40.7896   60.8445   65.7173 O   0  0  0  0  0  0  0  0  0  0  0  0
  -41.4050   60.2239   64.6039 C   0  0  0  0  0  0  0  0  0  0  0  0
  -40.2504   61.5917   65.4138 H   0  0  0  0  0  0  0  0  0  0  0  0
  -42.2736   59.0326   65.0150 C   0  0  0  0  0  0  0  0  0  0  0  0
  -42.0821   58.3458   66.1542 C   0  0  0  0  0  0  0  0  0  0  0  0
  -42.9922   57.1667   66.4932 C   0  0  0  0  0  0  0  0  0  0  0  0
  -44.2520   57.0824   65.6192 C   0  0  0  0  0  0  0  0  0  0  0  0
  -45.5915   57.0835   66.3789 C   0  0  0  0  0  0  0  0  0  0  0  0
  -46.0587   58.5307   66.6665 C   0  0  0  0  0  0  0  0  0  0  0  0
  -46.5344   59.3309   65.4276 C   0  0  0  0  0  0  0  0  0  0  0  0
  -47.8542   58.8141   64.8082 C   0  0  0  0  0  0  0  0  0  0  0  0
  -49.0180   58.7262   65.8192 C   0  0  0  0  0  0  0  0  0  0  0  0
  -50.3957   58.5739   65.1635 C   0  0  0  0  0  0  0  0  0  0  0  0
  -50.8496   59.7326   64.2779 C   0  0  0  0  0  0  0  0  0  0  0  0
  -51.4026   59.2936   62.9077 C   0  0  0  0  0  0  0  0  0  0  0  0
  -50.8496   57.9634   62.3741 C   0  0  0  0  0  0  0  0  0  0  0  0
  -49.5886   58.1891   61.5352 C   0  0  0  0  0  0  0  0  0  0  0  0
  -49.7149   57.9330   60.0438 C   0  0  0  0  0  0  0  0  0  0  0  0
  -38.8216   60.0245   64.2700 C   0  0  0  0  0  0  0  0  0  0  0  0
  -38.3521   61.3906   64.1412 O   0  0  0  0  0  0  0  0  0  0  0  0
  -36.4423   62.1088   62.1376 O   0  0  0  0  0  0  0  0  0  0  0  0
  -35.2295   64.8638   65.0252 O   0  0  0  0  0  0  0  0  0  0  0  0
  -36.7536   62.3387   65.7006 O   0  0  0  0  0  0  0  0  0  0  0  0
  -36.9405   61.7419   64.3942 C   0  0  0  0  0  0  0  0  0  0  0  0
  -36.2934   62.7054   63.3890 C   0  0  0  0  0  0  0  0  0  0  0  0
  -34.7874   62.9419   63.6374 C   0  0  0  0  0  0  0  0  0  0  0  0
  -34.6779   63.5494   65.0086 C   0  0  0  0  0  0  0  0  0  0  0  0
  -35.3732   62.6587   66.0223 C   0  0  0  0  0  0  0  0  0  0  0  0
  -37.3837   61.9525   61.9640 H   0  0  0  0  0  0  0  0  0  0  0  0
  -34.7714   65.4149   64.3714 H   0  0  0  0  0  0  0  0  0  0  0  0
  -36.3678   64.0046   67.7290 O   0  0  0  0  0  0  0  0  0  0  0  0
  -35.1578   63.4464   67.3127 C   0  0  0  0  0  0  0  0  0  0  0  0
  -36.2283   64.5043   68.5486 H   0  0  0  0  0  0  0  0  0  0  0  0
  -34.1329   63.8634   62.7362 O   0  0  0  0  0  0  0  0  0  0  0  0
  -31.8065   63.2984   63.7293 O   0  0  0  0  0  0  0  0  0  0  0  0
  -32.4850   65.6184   63.5141 O   0  0  0  0  0  0  0  0  0  0  0  0
  -31.8184   64.3565   61.5552 O   0  0  0  0  0  0  0  0  0  0  0  0
  -32.5261   64.2801   62.8648 S   0  0  0  0  0  0  0  0  0  0  0  0
  -32.2536   63.2351   64.5878 H   0  0  0  0  0  0  0  0  0  0  0  0
  -31.8404   63.4875   61.1247 H   0  0  0  0  0  0  0  0  0  0  0  0
  2  1  1  0  0  0
  2  4  1  0  0  0
  2  5  1  0  0  0
 41 42  1  0  0  0
 41  1  1  0  0  0
 42 46  1  0  0  0
  1 24  1  0  0  0
 23 24  1  0  0  0
 23 25  1  0  0  0
 24 26  1  0  0  0
  3  4  2  0  0  0
 26 27  2  0  0  0
 27 28  1  0  0  0
 43 47  1  0  0  0
 43 51  1  0  0  0
 28 29  1  0  0  0
 56 48  1  0  0  0
 56 60  1  0  0  0
 29 30  1  0  0  0
 57 60  1  0  0  0
 57 61  1  0  0  0
 30 31  1  0  0  0
 44 49  1  0  0  0
 44 52  1  0  0  0
 31 32  1  0  0  0
 45 46  1  0  0  0
 45 50  1  0  0  0
 32 33  1  0  0  0
 53 54  1  0  0  0
 53 55  1  0  0  0
 33 34  1  0  0  0
 34 35  1  0  0  0
 35 36  1  0  0  0
 58 60  1  0  0  0
 36 37  1  0  0  0
 59 60  1  0  0  0
 59 62  1  0  0  0
 37 38  1  0  0  0
 38 39  1  0  0  0
 39 40  1  0  0  0
  4  6  1  0  0  0
  6  7  1  0  0  0
  7  8  1  0  0  0
  8  9  1  0  0  0
  9 10  1  0  0  0
 10 11  1  0  0  0
 11 12  1  0  0  0
 12 13  1  0  0  0
 13 14  1  0  0  0
 14 15  1  0  0  0
 15 16  1  0  0  0
 16 17  1  0  0  0
 17 18  1  0  0  0
 18 19  1  0  0  0
 19 20  1  0  0  0
 20 21  1  0  0  0
 21 22  1  0  0  0
 46 47  1  0  0  0
 47 48  1  0  0  0
 48 49  1  0  0  0
 49 50  1  0  0  0
 50 54  1  0  0  0
M  CHG 1  58  -1
M  END
> <minimizedAffinity>
-9.65810

> <CNNscore>
0.3029796779

> <CNNaffinity>
7.1531004906

> <CNN_VS>
2.1672441959

> <CNNaffinity_variance>
1.1168092489

$$$$
/media/chris/experiments/cd1a-new-docking/inputs/ligands/1onq_ligand.pdb


 62 62  0  0  0  0  0  0  0  0999 V2000
  -40.2534   59.0949   64.9646 C   0  0  0  0  0  0  0  0  0  0  0  0
  -39.7912   58.4160   63.7702 N   0  0  0  0  0  0  0  0  0  0  0  0
  -38.3698   57.0942   62.5954 O   0  0  0  0  0  0  0  0  0  0  0  0
  -38.7153   57.6294   63.6308 C   0  0  0  0  0  0  0  0  0  0  0  0
  -40.3353   58.5494   62.9607 H   0  0  0  0  0  0  0  0  0  0  0  0
  -37.9039   57.4321   64.8767 C   0  0  0  0  0  0  0  0  0  0  0  0
  -36.4767   57.1280   64.4207 C   0  0  0  0  0  0  0  0  0  0  0  0
  -35.6362   58.4022   64.4532 C   0  0  0  0  0  0  0  0  0  0  0  0
  -34.1699   58.2379   64.1347 C   0  0  0  0  0  0  0  0  0  0  0  0
  -33.9440   58.7614   62.7202 C   0  0  0  0  0  0  0  0  0  0  0  0
  -32.8106   58.0280   61.9905 C   0  0  0  0  0  0  0  0  0  0  0  0
  -33.1135   56.5520   61.6740 C   0  0  0  0  0  0  0  0  0  0  0  0
  -34.5854   56.3142   61.2707 C   0  0  0  0  0  0  0  0  0  0  0  0
  -34.6656   55.5139   59.9675 C   0  0  0  0  0  0  0  0  0  0  0  0
  -33.9407   56.1385   58.7815 C   0  0  0  0  0  0  0  0  0  0  0  0
  -34.8256   57.1045   58.0077 C   0  0  0  0  0  0  0  0  0  0  0  0
  -36.2393   56.6118   57.6897 C   0  0  0  0  0  0  0  0  0  0  0  0
  -37.2149   57.7431   57.9843 C   0  0  0  0  0  0  0  0  0  0  0  0
  -37.4285   58.1639   59.4309 C   0  0  0  0  0  0  0  0  0  0  0  0
  -37.9824   59.5953   59.5111 C   0  0  0  0  0  0  0  0  0  0  0  0
  -39.1656   59.7686   60.4811 C   0  0  0  0  0  0  0  0  0  0  0  0
  -40.4111   60.3507   59.8167 C   0  0  0  0  0  0  0  0  0  0  0  0
  -41.4734   60.9764   64.3584 O   0  0  0  0  0  0  0  0  0  0  0  0
  -41.6321   59.5836   64.5549 C   0  0  0  0  0  0  0  0  0  0  0  0
  -40.8330   61.1315   63.6465 H   0  0  0  0  0  0  0  0  0  0  0  0
  -42.6333   59.2688   65.6689 C   0  0  0  0  0  0  0  0  0  0  0  0
  -43.9189   58.9576   65.4311 C   0  0  0  0  0  0  0  0  0  0  0  0
  -44.8568   58.6568   66.5987 C   0  0  0  0  0  0  0  0  0  0  0  0
  -46.3221   59.0308   66.3312 C   0  0  0  0  0  0  0  0  0  0  0  0
  -46.7915   58.8850   64.8719 C   0  0  0  0  0  0  0  0  0  0  0  0
  -47.9427   57.8561   64.7654 C   0  0  0  0  0  0  0  0  0  0  0  0
  -49.2123   58.1963   65.5862 C   0  0  0  0  0  0  0  0  0  0  0  0
  -50.4603   58.5019   64.7250 C   0  0  0  0  0  0  0  0  0  0  0  0
  -50.2731   59.7006   63.7700 C   0  0  0  0  0  0  0  0  0  0  0  0
  -50.5053   59.3565   62.2938 C   0  0  0  0  0  0  0  0  0  0  0  0
  -51.0935   57.9757   62.0108 C   0  0  0  0  0  0  0  0  0  0  0  0
  -50.4414   57.2504   60.8171 C   0  0  0  0  0  0  0  0  0  0  0  0
  -49.2239   57.9600   60.2055 C   0  0  0  0  0  0  0  0  0  0  0  0
  -48.3292   56.9689   59.4557 C   0  0  0  0  0  0  0  0  0  0  0  0
  -46.9366   57.4554   59.0955 C   0  0  0  0  0  0  0  0  0  0  0  0
  -39.2831   60.1455   65.5508 C   0  0  0  0  0  0  0  0  0  0  0  0
  -38.6309   61.0265   64.6012 O   0  0  0  0  0  0  0  0  0  0  0  0
  -36.6580   61.2110   62.5394 O   0  0  0  0  0  0  0  0  0  0  0  0
  -35.5734   64.6662   64.6094 O   0  0  0  0  0  0  0  0  0  0  0  0
  -37.0974   62.3903   65.8951 O   0  0  0  0  0  0  0  0  0  0  0  0
  -37.2324   61.4591   64.7941 C   0  0  0  0  0  0  0  0  0  0  0  0
  -36.5589   62.1265   63.5865 C   0  0  0  0  0  0  0  0  0  0  0  0
  -35.0650   62.4490   63.8090 C   0  0  0  0  0  0  0  0  0  0  0  0
  -35.0096   63.4067   64.9671 C   0  0  0  0  0  0  0  0  0  0  0  0
  -35.7323   62.8107   66.1616 C   0  0  0  0  0  0  0  0  0  0  0  0
  -37.5912   60.9962   62.3850 H   0  0  0  0  0  0  0  0  0  0  0  0
  -35.0975   65.0282   63.8455 H   0  0  0  0  0  0  0  0  0  0  0  0
  -34.2154   64.2201   67.3560 O   0  0  0  0  0  0  0  0  0  0  0  0
  -35.5699   63.9220   67.1965 C   0  0  0  0  0  0  0  0  0  0  0  0
  -34.1150   64.9260   68.0136 H   0  0  0  0  0  0  0  0  0  0  0  0
  -34.3873   63.1042   62.7130 O   0  0  0  0  0  0  0  0  0  0  0  0
  -32.3246   64.0416   61.4545 O   0  0  0  0  0  0  0  0  0  0  0  0
  -32.3959   61.6907   62.0518 O   0  0  0  0  0  0  0  0  0  0  0  0
  -31.9682   63.3672   63.7490 O   0  0  0  0  0  0  0  0  0  0  0  0
  -32.7356   63.0661   62.5072 S   0  0  0  0  0  0  0  0  0  0  0  0
  -32.8146   63.8610   60.6372 H   0  0  0  0  0  0  0  0  0  0  0  0
  -32.1838   64.2628   64.0531 H   0  0  0  0  0  0  0  0  0  0  0  0
  2  1  1  0  0  0
  2  4  1  0  0  0
  2  5  1  0  0  0
 41 42  1  0  0  0
 41  1  1  0  0  0
 42 46  1  0  0  0
  1 24  1  0  0  0
 23 24  1  0  0  0
 23 25  1  0  0  0
 24 26  1  0  0  0
  3  4  2  0  0  0
 26 27  2  0  0  0
 27 28  1  0  0  0
 43 47  1  0  0  0
 43 51  1  0  0  0
 28 29  1  0  0  0
 56 48  1  0  0  0
 56 60  1  0  0  0
 29 30  1  0  0  0
 57 60  1  0  0  0
 57 61  1  0  0  0
 30 31  1  0  0  0
 44 49  1  0  0  0
 44 52  1  0  0  0
 31 32  1  0  0  0
 45 46  1  0  0  0
 45 50  1  0  0  0
 32 33  1  0  0  0
 53 54  1  0  0  0
 53 55  1  0  0  0
 33 34  1  0  0  0
 34 35  1  0  0  0
 35 36  1  0  0  0
 58 60  1  0  0  0
 36 37  1  0  0  0
 59 60  1  0  0  0
 59 62  1  0  0  0
 37 38  1  0  0  0
 38 39  1  0  0  0
 39 40  1  0  0  0
  4  6  1  0  0  0
  6  7  1  0  0  0
  7  8  1  0  0  0
  8  9  1  0  0  0
  9 10  1  0  0  0
 10 11  1  0  0  0
 11 12  1  0  0  0
 12 13  1  0  0  0
 13 14  1  0  0  0
 14 15  1  0  0  0
 15 16  1  0  0  0
 16 17  1  0  0  0
 17 18  1  0  0  0
 18 19  1  0  0  0
 19 20  1  0  0  0
 20 21  1  0  0  0
 21 22  1  0  0  0
 46 47  1  0  0  0
 47 48  1  0  0  0
 48 49  1  0  0  0
 49 50  1  0  0  0
 50 54  1  0  0  0
M  CHG 1  58  -1
M  END
> <minimizedAffinity>
-10.07348

> <CNNscore>
0.2992981970

> <CNNaffinity>
7.2359313965

> <CNN_VS>
2.1657011509

> <CNNaffinity_variance>
1.5795550346

$$$$
/media/chris/experiments/cd1a-new-docking/inputs/ligands/1onq_ligand.pdb


 62 62  0  0  0  0  0  0  0  0999 V2000
  -35.9915   58.5427   62.6623 C   0  0  0  0  0  0  0  0  0  0  0  0
  -36.6272   57.8273   63.7510 N   0  0  0  0  0  0  0  0  0  0  0  0
  -38.2082   57.5337   65.3515 O   0  0  0  0  0  0  0  0  0  0  0  0
  -37.7265   58.1715   64.4355 C   0  0  0  0  0  0  0  0  0  0  0  0
  -36.1978   56.9836   64.0212 H   0  0  0  0  0  0  0  0  0  0  0  0
  -38.3704   59.4555   64.0041 C   0  0  0  0  0  0  0  0  0  0  0  0
  -39.7339   59.0823   63.4219 C   0  0  0  0  0  0  0  0  0  0  0  0
  -40.7412   60.1961   63.6974 C   0  0  0  0  0  0  0  0  0  0  0  0
  -42.0578   59.7662   64.2974 C   0  0  0  0  0  0  0  0  0  0  0  0
  -41.8435   59.5834   65.7962 C   0  0  0  0  0  0  0  0  0  0  0  0
  -41.9391   58.1157   66.2342 C   0  0  0  0  0  0  0  0  0  0  0  0
  -43.3469   57.6790   66.6789 C   0  0  0  0  0  0  0  0  0  0  0  0
  -44.0160   56.7055   65.6838 C   0  0  0  0  0  0  0  0  0  0  0  0
  -45.5412   56.8212   65.7581 C   0  0  0  0  0  0  0  0  0  0  0  0
  -46.0785   57.4541   67.0360 C   0  0  0  0  0  0  0  0  0  0  0  0
  -47.0955   58.5500   66.7539 C   0  0  0  0  0  0  0  0  0  0  0  0
  -46.7027   59.5708   65.6833 C   0  0  0  0  0  0  0  0  0  0  0  0
  -47.8643   59.7088   64.7086 C   0  0  0  0  0  0  0  0  0  0  0  0
  -48.4427   58.4495   64.0802 C   0  0  0  0  0  0  0  0  0  0  0  0
  -49.9773   58.5159   64.0281 C   0  0  0  0  0  0  0  0  0  0  0  0
  -50.5479   59.9278   63.7998 C   0  0  0  0  0  0  0  0  0  0  0  0
  -51.9615   59.9219   63.2227 C   0  0  0  0  0  0  0  0  0  0  0  0
  -34.6782   57.6222   60.9819 O   0  0  0  0  0  0  0  0  0  0  0  0
  -35.9680   57.5048   61.5534 C   0  0  0  0  0  0  0  0  0  0  0  0
  -34.0077   57.4176   61.6524 H   0  0  0  0  0  0  0  0  0  0  0  0
  -37.0761   57.8157   60.5445 C   0  0  0  0  0  0  0  0  0  0  0  0
  -37.5883   59.0467   60.3761 C   0  0  0  0  0  0  0  0  0  0  0  0
  -38.6947   59.2757   59.3481 C   0  0  0  0  0  0  0  0  0  0  0  0
  -39.7544   60.2948   59.7918 C   0  0  0  0  0  0  0  0  0  0  0  0
  -41.1945   60.0018   59.3321 C   0  0  0  0  0  0  0  0  0  0  0  0
  -41.1964   59.2124   58.0009 C   0  0  0  0  0  0  0  0  0  0  0  0
  -42.3669   59.5393   57.0394 C   0  0  0  0  0  0  0  0  0  0  0  0
  -43.4603   58.4468   56.9782 C   0  0  0  0  0  0  0  0  0  0  0  0
  -44.3943   58.4385   58.2077 C   0  0  0  0  0  0  0  0  0  0  0  0
  -45.7907   57.8746   57.9188 C   0  0  0  0  0  0  0  0  0  0  0  0
  -46.5344   57.2789   59.1124 C   0  0  0  0  0  0  0  0  0  0  0  0
  -47.7482   56.4117   58.7240 C   0  0  0  0  0  0  0  0  0  0  0  0
  -49.1201   57.0548   58.9772 C   0  0  0  0  0  0  0  0  0  0  0  0
  -49.7273   56.5555   60.2914 C   0  0  0  0  0  0  0  0  0  0  0  0
  -50.9613   57.2888   60.7867 C   0  0  0  0  0  0  0  0  0  0  0  0
  -34.6503   59.2279   63.0094 C   0  0  0  0  0  0  0  0  0  0  0  0
  -34.7224   60.6071   63.4519 O   0  0  0  0  0  0  0  0  0  0  0  0
  -34.4797   63.2744   64.4539 O   0  0  0  0  0  0  0  0  0  0  0  0
  -30.4066   62.5401   63.9344 O   0  0  0  0  0  0  0  0  0  0  0  0
  -32.5543   61.0171   62.4435 O   0  0  0  0  0  0  0  0  0  0  0  0
  -33.7650   61.6191   62.9626 C   0  0  0  0  0  0  0  0  0  0  0  0
  -33.3131   62.6717   63.9849 C   0  0  0  0  0  0  0  0  0  0  0  0
  -32.4071   63.7697   63.3856 C   0  0  0  0  0  0  0  0  0  0  0  0
  -31.1848   63.0670   62.8626 C   0  0  0  0  0  0  0  0  0  0  0  0
  -31.5967   61.9662   61.9018 C   0  0  0  0  0  0  0  0  0  0  0  0
  -35.0621   62.5987   64.8346 H   0  0  0  0  0  0  0  0  0  0  0  0
  -30.1548   63.2591   64.5350 H   0  0  0  0  0  0  0  0  0  0  0  0
  -29.9632   60.2645   62.2885 O   0  0  0  0  0  0  0  0  0  0  0  0
  -30.2395   61.3880   61.5072 C   0  0  0  0  0  0  0  0  0  0  0  0
  -29.1008   59.8992   62.0359 H   0  0  0  0  0  0  0  0  0  0  0  0
  -31.9290   64.7724   64.3107 O   0  0  0  0  0  0  0  0  0  0  0  0
  -32.3101   67.1618   63.3819 O   0  0  0  0  0  0  0  0  0  0  0  0
  -32.1287   66.8238   65.7781 O   0  0  0  0  0  0  0  0  0  0  0  0
  -34.1494   66.1788   64.6055 O   0  0  0  0  0  0  0  0  0  0  0  0
  -32.6636   66.2529   64.5122 S   0  0  0  0  0  0  0  0  0  0  0  0
  -31.3451   67.2226   63.3055 H   0  0  0  0  0  0  0  0  0  0  0  0
  -34.5068   65.8075   63.7836 H   0  0  0  0  0  0  0  0  0  0  0  0
  2  1  1  0  0  0
  2  4  1  0  0  0
  2  5  1  0  0  0
 41 42  1  0  0  0
 41  1  1  0  0  0
 42 46  1  0  0  0
  1 24  1  0  0  0
 23 24  1  0  0  0
 23 25  1  0  0  0
 24 26  1  0  0  0
  3  4  2  0  0  0
 26 27  2  0  0  0
 27 28  1  0  0  0
 43 47  1  0  0  0
 43 51  1  0  0  0
 28 29  1  0  0  0
 56 48  1  0  0  0
 56 60  1  0  0  0
 29 30  1  0  0  0
 57 60  1  0  0  0
 57 61  1  0  0  0
 30 31  1  0  0  0
 44 49  1  0  0  0
 44 52  1  0  0  0
 31 32  1  0  0  0
 45 46  1  0  0  0
 45 50  1  0  0  0
 32 33  1  0  0  0
 53 54  1  0  0  0
 53 55  1  0  0  0
 33 34  1  0  0  0
 34 35  1  0  0  0
 35 36  1  0  0  0
 58 60  1  0  0  0
 36 37  1  0  0  0
 59 60  1  0  0  0
 59 62  1  0  0  0
 37 38  1  0  0  0
 38 39  1  0  0  0
 39 40  1  0  0  0
  4  6  1  0  0  0
  6  7  1  0  0  0
  7  8  1  0  0  0
  8  9  1  0  0  0
  9 10  1  0  0  0
 10 11  1  0  0  0
 11 12  1  0  0  0
 12 13  1  0  0  0
 13 14  1  0  0  0
 14 15  1  0  0  0
 15 16  1  0  0  0
 16 17  1  0  0  0
 17 18  1  0  0  0
 18 19  1  0  0  0
 19 20  1  0  0  0
 20 21  1  0  0  0
 21 22  1  0  0  0
 46 47  1  0  0  0
 47 48  1  0  0  0
 48 49  1  0  0  0
 49 50  1  0  0  0
 50 54  1  0  0  0
M  CHG 1  58  -1
M  END
> <minimizedAffinity>
-8.74487

> <CNNscore>
0.2936992645

> <CNNaffinity>
6.8218908310

> <CNN_VS>
2.0035843849

> <CNNaffinity_variance>
0.6832458973

$$$$
/media/chris/experiments/cd1a-new-docking/inputs/ligands/1onq_ligand.pdb


 62 62  0  0  0  0  0  0  0  0999 V2000
  -40.1620   59.6994   64.3481 C   0  0  0  0  0  0  0  0  0  0  0  0
  -40.4230   60.1514   62.9958 N   0  0  0  0  0  0  0  0  0  0  0  0
  -40.1927   60.0783   60.7398 O   0  0  0  0  0  0  0  0  0  0  0  0
  -39.9465   59.6469   61.8494 C   0  0  0  0  0  0  0  0  0  0  0  0
  -41.0251   60.9253   62.9086 H   0  0  0  0  0  0  0  0  0  0  0  0
  -39.0375   58.4638   62.0026 C   0  0  0  0  0  0  0  0  0  0  0  0
  -37.7401   58.8171   61.2752 C   0  0  0  0  0  0  0  0  0  0  0  0
  -37.5887   57.9498   60.0279 C   0  0  0  0  0  0  0  0  0  0  0  0
  -37.7154   58.6637   58.7040 C   0  0  0  0  0  0  0  0  0  0  0  0
  -37.3050   57.6832   57.6104 C   0  0  0  0  0  0  0  0  0  0  0  0
  -36.2789   56.6500   58.0949 C   0  0  0  0  0  0  0  0  0  0  0  0
  -34.8196   56.9983   57.7493 C   0  0  0  0  0  0  0  0  0  0  0  0
  -33.7975   56.2322   58.6178 C   0  0  0  0  0  0  0  0  0  0  0  0
  -34.5058   55.4799   59.7480 C   0  0  0  0  0  0  0  0  0  0  0  0
  -34.5332   56.2057   61.0876 C   0  0  0  0  0  0  0  0  0  0  0  0
  -33.5642   57.3780   61.1290 C   0  0  0  0  0  0  0  0  0  0  0  0
  -32.4950   57.3266   62.2228 C   0  0  0  0  0  0  0  0  0  0  0  0
  -32.6227   58.5838   63.0723 C   0  0  0  0  0  0  0  0  0  0  0  0
  -33.9867   59.2471   63.1930 C   0  0  0  0  0  0  0  0  0  0  0  0
  -34.6368   58.9253   64.5480 C   0  0  0  0  0  0  0  0  0  0  0  0
  -36.0597   58.3447   64.4517 C   0  0  0  0  0  0  0  0  0  0  0  0
  -36.0826   56.8280   64.2776 C   0  0  0  0  0  0  0  0  0  0  0  0
  -41.0363   60.8958   66.1370 O   0  0  0  0  0  0  0  0  0  0  0  0
  -41.4482   60.0598   65.0715 C   0  0  0  0  0  0  0  0  0  0  0  0
  -40.6140   61.6921   65.7785 H   0  0  0  0  0  0  0  0  0  0  0  0
  -42.1248   58.7808   65.5704 C   0  0  0  0  0  0  0  0  0  0  0  0
  -43.4489   58.5699   65.4790 C   0  0  0  0  0  0  0  0  0  0  0  0
  -44.0489   57.2659   66.0016 C   0  0  0  0  0  0  0  0  0  0  0  0
  -45.4345   56.9434   65.4234 C   0  0  0  0  0  0  0  0  0  0  0  0
  -46.4450   58.1053   65.4270 C   0  0  0  0  0  0  0  0  0  0  0  0
  -47.7780   57.6759   64.7682 C   0  0  0  0  0  0  0  0  0  0  0  0
  -49.0600   58.1462   65.5011 C   0  0  0  0  0  0  0  0  0  0  0  0
  -50.2560   58.4341   64.5634 C   0  0  0  0  0  0  0  0  0  0  0  0
  -50.0087   59.6062   63.5890 C   0  0  0  0  0  0  0  0  0  0  0  0
  -50.2575   59.2499   62.1185 C   0  0  0  0  0  0  0  0  0  0  0  0
  -51.1175   58.0138   61.8634 C   0  0  0  0  0  0  0  0  0  0  0  0
  -50.4775   56.9939   60.9009 C   0  0  0  0  0  0  0  0  0  0  0  0
  -50.1403   57.5349   59.5032 C   0  0  0  0  0  0  0  0  0  0  0  0
  -48.7169   57.1476   59.0924 C   0  0  0  0  0  0  0  0  0  0  0  0
  -48.5122   56.7765   57.6343 C   0  0  0  0  0  0  0  0  0  0  0  0
  -38.8413   60.2015   64.9746 C   0  0  0  0  0  0  0  0  0  0  0  0
  -38.2880   61.4250   64.4267 O   0  0  0  0  0  0  0  0  0  0  0  0
  -36.3112   61.8072   62.3961 O   0  0  0  0  0  0  0  0  0  0  0  0
  -35.1548   64.9743   64.8519 O   0  0  0  0  0  0  0  0  0  0  0  0
  -36.7265   62.5965   65.8672 O   0  0  0  0  0  0  0  0  0  0  0  0
  -36.8808   61.8029   64.6655 C   0  0  0  0  0  0  0  0  0  0  0  0
  -36.1932   62.5922   63.5424 C   0  0  0  0  0  0  0  0  0  0  0  0
  -34.6928   62.8553   63.7977 C   0  0  0  0  0  0  0  0  0  0  0  0
  -34.6177   63.6703   65.0592 C   0  0  0  0  0  0  0  0  0  0  0  0
  -35.3529   62.9544   66.1778 C   0  0  0  0  0  0  0  0  0  0  0  0
  -37.2487   61.6314   62.2197 H   0  0  0  0  0  0  0  0  0  0  0  0
  -34.6712   65.4128   64.1344 H   0  0  0  0  0  0  0  0  0  0  0  0
  -36.3539   64.0277   68.0646 O   0  0  0  0  0  0  0  0  0  0  0  0
  -35.1675   63.9339   67.3347 C   0  0  0  0  0  0  0  0  0  0  0  0
  -36.2335   64.6503   68.7986 H   0  0  0  0  0  0  0  0  0  0  0  0
  -34.0013   63.6195   62.7839 O   0  0  0  0  0  0  0  0  0  0  0  0
  -31.9725   64.3574   61.3499 O   0  0  0  0  0  0  0  0  0  0  0  0
  -32.3169   62.0004   61.8133 O   0  0  0  0  0  0  0  0  0  0  0  0
  -31.4724   63.4723   63.5437 O   0  0  0  0  0  0  0  0  0  0  0  0
  -32.4041   63.3716   62.3846 S   0  0  0  0  0  0  0  0  0  0  0  0
  -32.5684   64.3064   60.5863 H   0  0  0  0  0  0  0  0  0  0  0  0
  -31.5228   64.3638   63.9226 H   0  0  0  0  0  0  0  0  0  0  0  0
  2  1  1  0  0  0
  2  4  1  0  0  0
  2  5  1  0  0  0
 41 42  1  0  0  0
 41  1  1  0  0  0
 42 46  1  0  0  0
  1 24  1  0  0  0
 23 24  1  0  0  0
 23 25  1  0  0  0
 24 26  1  0  0  0
  3  4  2  0  0  0
 26 27  2  0  0  0
 27 28  1  0  0  0
 43 47  1  0  0  0
 43 51  1  0  0  0
 28 29  1  0  0  0
 56 48  1  0  0  0
 56 60  1  0  0  0
 29 30  1  0  0  0
 57 60  1  0  0  0
 57 61  1  0  0  0
 30 31  1  0  0  0
 44 49  1  0  0  0
 44 52  1  0  0  0
 31 32  1  0  0  0
 45 46  1  0  0  0
 45 50  1  0  0  0
 32 33  1  0  0  0
 53 54  1  0  0  0
 53 55  1  0  0  0
 33 34  1  0  0  0
 34 35  1  0  0  0
 35 36  1  0  0  0
 58 60  1  0  0  0
 36 37  1  0  0  0
 59 60  1  0  0  0
 59 62  1  0  0  0
 37 38  1  0  0  0
 38 39  1  0  0  0
 39 40  1  0  0  0
  4  6  1  0  0  0
  6  7  1  0  0  0
  7  8  1  0  0  0
  8  9  1  0  0  0
  9 10  1  0  0  0
 10 11  1  0  0  0
 11 12  1  0  0  0
 12 13  1  0  0  0
 13 14  1  0  0  0
 14 15  1  0  0  0
 15 16  1  0  0  0
 16 17  1  0  0  0
 17 18  1  0  0  0
 18 19  1  0  0  0
 19 20  1  0  0  0
 20 21  1  0  0  0
 21 22  1  0  0  0
 46 47  1  0  0  0
 47 48  1  0  0  0
 48 49  1  0  0  0
 49 50  1  0  0  0
 50 54  1  0  0  0
M  CHG 1  58  -1
M  END
> <minimizedAffinity>
-9.60383

> <CNNscore>
0.2903254330

> <CNNaffinity>
7.2791047096

> <CNN_VS>
2.1133091450

> <CNNaffinity_variance>
0.9272100329

$$$$
/media/chris/experiments/cd1a-new-docking/inputs/ligands/1onq_ligand.pdb


 62 62  0  0  0  0  0  0  0  0999 V2000
  -38.9466   60.2864   62.8163 C   0  0  0  0  0  0  0  0  0  0  0  0
  -39.0396   58.8756   63.1359 N   0  0  0  0  0  0  0  0  0  0  0  0
  -39.5332   57.1165   64.4811 O   0  0  0  0  0  0  0  0  0  0  0  0
  -39.4902   58.3121   64.2651 C   0  0  0  0  0  0  0  0  0  0  0  0
  -38.7336   58.2541   62.4364 H   0  0  0  0  0  0  0  0  0  0  0  0
  -39.9591   59.2749   65.3152 C   0  0  0  0  0  0  0  0  0  0  0  0
  -41.4861   59.2014   65.3196 C   0  0  0  0  0  0  0  0  0  0  0  0
  -42.0114   59.3522   66.7452 C   0  0  0  0  0  0  0  0  0  0  0  0
  -43.4115   58.8459   66.9933 C   0  0  0  0  0  0  0  0  0  0  0  0
  -43.6799   57.7248   65.9947 C   0  0  0  0  0  0  0  0  0  0  0  0
  -45.0312   57.8756   65.2831 C   0  0  0  0  0  0  0  0  0  0  0  0
  -45.5310   59.3279   65.1766 C   0  0  0  0  0  0  0  0  0  0  0  0
  -46.9279   59.5298   65.8042 C   0  0  0  0  0  0  0  0  0  0  0  0
  -48.0189   58.9776   64.8823 C   0  0  0  0  0  0  0  0  0  0  0  0
  -49.1756   59.9311   64.6088 C   0  0  0  0  0  0  0  0  0  0  0  0
  -49.8581   59.6445   63.2795 C   0  0  0  0  0  0  0  0  0  0  0  0
  -50.5467   58.2830   63.1585 C   0  0  0  0  0  0  0  0  0  0  0  0
  -50.7906   58.0028   61.6818 C   0  0  0  0  0  0  0  0  0  0  0  0
  -49.5895   57.8021   60.7695 C   0  0  0  0  0  0  0  0  0  0  0  0
  -50.0353   57.4102   59.3518 C   0  0  0  0  0  0  0  0  0  0  0  0
  -48.8937   56.9449   58.4293 C   0  0  0  0  0  0  0  0  0  0  0  0
  -47.5155   57.4139   58.8899 C   0  0  0  0  0  0  0  0  0  0  0  0
  -40.9196   60.1186   61.6018 O   0  0  0  0  0  0  0  0  0  0  0  0
  -39.5351   60.3482   61.4172 C   0  0  0  0  0  0  0  0  0  0  0  0
  -41.2924   60.8205   62.1581 H   0  0  0  0  0  0  0  0  0  0  0  0
  -38.8834   59.2725   60.5451 C   0  0  0  0  0  0  0  0  0  0  0  0
  -38.3195   59.5381   59.3545 C   0  0  0  0  0  0  0  0  0  0  0  0
  -37.6897   58.4079   58.5424 C   0  0  0  0  0  0  0  0  0  0  0  0
  -36.8577   57.4279   59.3823 C   0  0  0  0  0  0  0  0  0  0  0  0
  -36.3945   56.1526   58.6540 C   0  0  0  0  0  0  0  0  0  0  0  0
  -35.5348   55.2679   59.5886 C   0  0  0  0  0  0  0  0  0  0  0  0
  -34.0654   55.7268   59.7670 C   0  0  0  0  0  0  0  0  0  0  0  0
  -33.7078   56.1604   61.2082 C   0  0  0  0  0  0  0  0  0  0  0  0
  -33.6250   57.6915   61.3898 C   0  0  0  0  0  0  0  0  0  0  0  0
  -32.8201   58.1249   62.6209 C   0  0  0  0  0  0  0  0  0  0  0  0
  -31.4755   58.7937   62.3427 C   0  0  0  0  0  0  0  0  0  0  0  0
  -31.5920   60.2358   61.8108 C   0  0  0  0  0  0  0  0  0  0  0  0
  -30.2585   60.9171   61.4685 C   0  0  0  0  0  0  0  0  0  0  0  0
  -29.2383   60.7257   62.5943 C   0  0  0  0  0  0  0  0  0  0  0  0
  -27.8206   60.3849   62.1702 C   0  0  0  0  0  0  0  0  0  0  0  0
  -37.5536   60.9245   63.0194 C   0  0  0  0  0  0  0  0  0  0  0  0
  -37.4496   61.9392   64.0503 O   0  0  0  0  0  0  0  0  0  0  0  0
  -36.5500   63.5043   66.2682 O   0  0  0  0  0  0  0  0  0  0  0  0
  -32.8278   62.9706   64.4628 O   0  0  0  0  0  0  0  0  0  0  0  0
  -35.4373   62.7307   62.9503 O   0  0  0  0  0  0  0  0  0  0  0  0
  -36.4122   62.9881   63.9901 C   0  0  0  0  0  0  0  0  0  0  0  0
  -35.6099   63.2197   65.2785 C   0  0  0  0  0  0  0  0  0  0  0  0
  -34.6240   64.4054   65.1909 C   0  0  0  0  0  0  0  0  0  0  0  0
  -33.6575   64.0679   64.0893 C   0  0  0  0  0  0  0  0  0  0  0  0
  -34.4201   63.7592   62.8135 C   0  0  0  0  0  0  0  0  0  0  0  0
  -37.1789   62.7691   66.3376 H   0  0  0  0  0  0  0  0  0  0  0  0
  -32.3508   63.1890   65.2788 H   0  0  0  0  0  0  0  0  0  0  0  0
  -32.3065   64.4389   61.9277 O   0  0  0  0  0  0  0  0  0  0  0  0
  -33.2785   63.4398   61.8506 C   0  0  0  0  0  0  0  0  0  0  0  0
  -31.5828   64.2338   61.3153 H   0  0  0  0  0  0  0  0  0  0  0  0
  -33.8216   64.6516   66.3679 O   0  0  0  0  0  0  0  0  0  0  0  0
  -33.0459   67.0222   65.6640 O   0  0  0  0  0  0  0  0  0  0  0  0
  -31.4245   65.2214   65.7936 O   0  0  0  0  0  0  0  0  0  0  0  0
  -32.2820   66.2379   67.8198 O   0  0  0  0  0  0  0  0  0  0  0  0
  -32.6304   65.8128   66.4343 S   0  0  0  0  0  0  0  0  0  0  0  0
  -33.2769   66.7648   64.7578 H   0  0  0  0  0  0  0  0  0  0  0  0
  -33.0632   66.6250   68.2453 H   0  0  0  0  0  0  0  0  0  0  0  0
  2  1  1  0  0  0
  2  4  1  0  0  0
  2  5  1  0  0  0
 41 42  1  0  0  0
 41  1  1  0  0  0
 42 46  1  0  0  0
  1 24  1  0  0  0
 23 24  1  0  0  0
 23 25  1  0  0  0
 24 26  1  0  0  0
  3  4  2  0  0  0
 26 27  2  0  0  0
 27 28  1  0  0  0
 43 47  1  0  0  0
 43 51  1  0  0  0
 28 29  1  0  0  0
 56 48  1  0  0  0
 56 60  1  0  0  0
 29 30  1  0  0  0
 57 60  1  0  0  0
 57 61  1  0  0  0
 30 31  1  0  0  0
 44 49  1  0  0  0
 44 52  1  0  0  0
 31 32  1  0  0  0
 45 46  1  0  0  0
 45 50  1  0  0  0
 32 33  1  0  0  0
 53 54  1  0  0  0
 53 55  1  0  0  0
 33 34  1  0  0  0
 34 35  1  0  0  0
 35 36  1  0  0  0
 58 60  1  0  0  0
 36 37  1  0  0  0
 59 60  1  0  0  0
 59 62  1  0  0  0
 37 38  1  0  0  0
 38 39  1  0  0  0
 39 40  1  0  0  0
  4  6  1  0  0  0
  6  7  1  0  0  0
  7  8  1  0  0  0
  8  9  1  0  0  0
  9 10  1  0  0  0
 10 11  1  0  0  0
 11 12  1  0  0  0
 12 13  1  0  0  0
 13 14  1  0  0  0
 14 15  1  0  0  0
 15 16  1  0  0  0
 16 17  1  0  0  0
 17 18  1  0  0  0
 18 19  1  0  0  0
 19 20  1  0  0  0
 20 21  1  0  0  0
 21 22  1  0  0  0
 46 47  1  0  0  0
 47 48  1  0  0  0
 48 49  1  0  0  0
 49 50  1  0  0  0
 50 54  1  0  0  0
M  CHG 1  58  -1
M  END
> <minimizedAffinity>
-9.60711

> <CNNscore>
0.2620769739

> <CNNaffinity>
6.7070221901

> <CNN_VS>
1.7577561140

> <CNNaffinity_variance>
0.9631825686

$$$$
