/media/chris/experiments/cd1a-new-docking/inputs/ligands/1onq_ligand.pdb


 62 62  0  0  0  0  0  0  0  0999 V2000
  -35.2138   57.9338   62.6686 C   0  0  0  0  0  0  0  0  0  0  0  0
  -35.8964   57.6022   63.9036 N   0  0  0  0  0  0  0  0  0  0  0  0
  -37.6912   57.5420   65.2901 O   0  0  0  0  0  0  0  0  0  0  0  0
  -37.1756   57.8338   64.2286 C   0  0  0  0  0  0  0  0  0  0  0  0
  -35.3525   57.1508   64.5889 H   0  0  0  0  0  0  0  0  0  0  0  0
  -37.9895   58.5151   63.1689 C   0  0  0  0  0  0  0  0  0  0  0  0
  -39.4550   58.2306   63.4981 C   0  0  0  0  0  0  0  0  0  0  0  0
  -40.2310   59.5416   63.5988 C   0  0  0  0  0  0  0  0  0  0  0  0
  -41.1022   59.7048   64.8206 C   0  0  0  0  0  0  0  0  0  0  0  0
  -41.3865   58.3120   65.3732 C   0  0  0  0  0  0  0  0  0  0  0  0
  -42.5146   58.3058   66.4136 C   0  0  0  0  0  0  0  0  0  0  0  0
  -43.3977   57.0451   66.3809 C   0  0  0  0  0  0  0  0  0  0  0  0
  -44.5866   57.1699   65.4029 C   0  0  0  0  0  0  0  0  0  0  0  0
  -45.1294   58.6018   65.3928 C   0  0  0  0  0  0  0  0  0  0  0  0
  -46.6371   58.7213   65.5791 C   0  0  0  0  0  0  0  0  0  0  0  0
  -47.4049   57.7180   64.7312 C   0  0  0  0  0  0  0  0  0  0  0  0
  -48.8065   58.1457   64.2898 C   0  0  0  0  0  0  0  0  0  0  0  0
  -48.6806   59.4350   63.4896 C   0  0  0  0  0  0  0  0  0  0  0  0
  -49.6920   59.7105   62.3866 C   0  0  0  0  0  0  0  0  0  0  0  0
  -50.3509   58.4076   61.9068 C   0  0  0  0  0  0  0  0  0  0  0  0
  -49.9656   57.9861   60.4768 C   0  0  0  0  0  0  0  0  0  0  0  0
  -49.6583   56.4959   60.3484 C   0  0  0  0  0  0  0  0  0  0  0  0
  -33.6816   56.4920   61.6841 O   0  0  0  0  0  0  0  0  0  0  0  0
  -35.0582   56.5776   62.0021 C   0  0  0  0  0  0  0  0  0  0  0  0
  -33.1582   56.5312   62.4998 H   0  0  0  0  0  0  0  0  0  0  0  0
  -35.9428   56.5215   60.7544 C   0  0  0  0  0  0  0  0  0  0  0  0
  -36.1314   57.5761   59.9429 C   0  0  0  0  0  0  0  0  0  0  0  0
  -37.0311   57.4401   58.7160 C   0  0  0  0  0  0  0  0  0  0  0  0
  -37.9720   58.6342   58.4995 C   0  0  0  0  0  0  0  0  0  0  0  0
  -38.0590   59.6345   59.6670 C   0  0  0  0  0  0  0  0  0  0  0  0
  -39.5244   59.8081   60.1335 C   0  0  0  0  0  0  0  0  0  0  0  0
  -40.4980   60.3637   59.0634 C   0  0  0  0  0  0  0  0  0  0  0  0
  -41.7214   59.4576   58.7887 C   0  0  0  0  0  0  0  0  0  0  0  0
  -42.1911   59.4834   57.3182 C   0  0  0  0  0  0  0  0  0  0  0  0
  -43.3713   58.5477   57.0300 C   0  0  0  0  0  0  0  0  0  0  0  0
  -44.3062   58.2652   58.2041 C   0  0  0  0  0  0  0  0  0  0  0  0
  -45.8025   58.4006   57.8593 C   0  0  0  0  0  0  0  0  0  0  0  0
  -46.6640   57.1719   58.1879 C   0  0  0  0  0  0  0  0  0  0  0  0
  -46.9737   56.3638   56.9245 C   0  0  0  0  0  0  0  0  0  0  0  0
  -47.8295   55.1233   57.1094 C   0  0  0  0  0  0  0  0  0  0  0  0
  -33.9359   58.7893   62.8232 C   0  0  0  0  0  0  0  0  0  0  0  0
  -34.1068   60.2279   62.7560 O   0  0  0  0  0  0  0  0  0  0  0  0
  -32.6978   62.7033   63.0079 O   0  0  0  0  0  0  0  0  0  0  0  0
  -36.0768   63.8024   65.1926 O   0  0  0  0  0  0  0  0  0  0  0  0
  -35.2529   60.9204   64.7790 O   0  0  0  0  0  0  0  0  0  0  0  0
  -34.0579   61.0622   63.9732 C   0  0  0  0  0  0  0  0  0  0  0  0
  -33.8695   62.5699   63.7518 C   0  0  0  0  0  0  0  0  0  0  0  0
  -33.7075   63.3737   65.0605 C   0  0  0  0  0  0  0  0  0  0  0  0
  -34.9768   63.1679   65.8402 C   0  0  0  0  0  0  0  0  0  0  0  0
  -35.2365   61.6826   66.0161 C   0  0  0  0  0  0  0  0  0  0  0  0
  -32.7814   62.2040   62.1806 H   0  0  0  0  0  0  0  0  0  0  0  0
  -35.8900   64.7488   65.0908 H   0  0  0  0  0  0  0  0  0  0  0  0
  -36.4036   62.5075   67.9322 O   0  0  0  0  0  0  0  0  0  0  0  0
  -36.5446   61.6973   66.8041 C   0  0  0  0  0  0  0  0  0  0  0  0
  -37.2355   62.5151   68.4308 H   0  0  0  0  0  0  0  0  0  0  0  0
  -33.5546   64.8036   64.9120 O   0  0  0  0  0  0  0  0  0  0  0  0
  -30.9691   64.6969   64.7669 O   0  0  0  0  0  0  0  0  0  0  0  0
  -32.0645   66.8435   65.0524 O   0  0  0  0  0  0  0  0  0  0  0  0
  -32.1081   65.7290   62.9005 O   0  0  0  0  0  0  0  0  0  0  0  0
  -32.1510   65.5209   64.3757 S   0  0  0  0  0  0  0  0  0  0  0  0
  -30.9800   64.5508   65.7258 H   0  0  0  0  0  0  0  0  0  0  0  0
  -32.1641   64.8712   62.4512 H   0  0  0  0  0  0  0  0  0  0  0  0
  2  1  1  0  0  0
  2  4  1  0  0  0
  2  5  1  0  0  0
 41 42  1  0  0  0
 41  1  1  0  0  0
 42 46  1  0  0  0
  1 24  1  0  0  0
 23 24  1  0  0  0
 23 25  1  0  0  0
 24 26  1  0  0  0
  3  4  2  0  0  0
 26 27  2  0  0  0
 27 28  1  0  0  0
 43 47  1  0  0  0
 43 51  1  0  0  0
 28 29  1  0  0  0
 56 48  1  0  0  0
 56 60  1  0  0  0
 29 30  1  0  0  0
 57 60  1  0  0  0
 57 61  1  0  0  0
 30 31  1  0  0  0
 44 49  1  0  0  0
 44 52  1  0  0  0
 31 32  1  0  0  0
 45 46  1  0  0  0
 45 50  1  0  0  0
 32 33  1  0  0  0
 53 54  1  0  0  0
 53 55  1  0  0  0
 33 34  1  0  0  0
 34 35  1  0  0  0
 35 36  1  0  0  0
 58 60  1  0  0  0
 36 37  1  0  0  0
 59 60  1  0  0  0
 59 62  1  0  0  0
 37 38  1  0  0  0
 38 39  1  0  0  0
 39 40  1  0  0  0
  4  6  1  0  0  0
  6  7  1  0  0  0
  7  8  1  0  0  0
  8  9  1  0  0  0
  9 10  1  0  0  0
 10 11  1  0  0  0
 11 12  1  0  0  0
 12 13  1  0  0  0
 13 14  1  0  0  0
 14 15  1  0  0  0
 15 16  1  0  0  0
 16 17  1  0  0  0
 17 18  1  0  0  0
 18 19  1  0  0  0
 19 20  1  0  0  0
 20 21  1  0  0  0
 21 22  1  0  0  0
 46 47  1  0  0  0
 47 48  1  0  0  0
 48 49  1  0  0  0
 49 50  1  0  0  0
 50 54  1  0  0  0
M  CHG 1  58  -1
M  END
> <minimizedAffinity>
-8.65265

> <CNNscore>
0.3940418959

> <CNNaffinity>
7.2033643723

> <CNN_VS>
2.8384273052

> <CNNaffinity_variance>
0.8364571333

$$$$
/media/chris/experiments/cd1a-new-docking/inputs/ligands/1onq_ligand.pdb


 62 62  0  0  0  0  0  0  0  0999 V2000
  -34.8154   58.0522   62.8448 C   0  0  0  0  0  0  0  0  0  0  0  0
  -35.4758   57.2952   63.8898 N   0  0  0  0  0  0  0  0  0  0  0  0
  -37.2323   56.7604   65.2225 O   0  0  0  0  0  0  0  0  0  0  0  0
  -36.7354   57.4192   64.3298 C   0  0  0  0  0  0  0  0  0  0  0  0
  -34.9312   56.6041   64.3312 H   0  0  0  0  0  0  0  0  0  0  0  0
  -37.5513   58.4717   63.6398 C   0  0  0  0  0  0  0  0  0  0  0  0
  -38.9148   57.8434   63.3513 C   0  0  0  0  0  0  0  0  0  0  0  0
  -40.0239   58.7090   63.9441 C   0  0  0  0  0  0  0  0  0  0  0  0
  -39.6961   59.4129   65.2385 C   0  0  0  0  0  0  0  0  0  0  0  0
  -41.0099   59.6687   65.9696 C   0  0  0  0  0  0  0  0  0  0  0  0
  -42.2394   59.3795   65.0981 C   0  0  0  0  0  0  0  0  0  0  0  0
  -43.4957   58.9757   65.8915 C   0  0  0  0  0  0  0  0  0  0  0  0
  -44.1197   57.6528   65.3955 C   0  0  0  0  0  0  0  0  0  0  0  0
  -45.4097   57.9231   64.6160 C   0  0  0  0  0  0  0  0  0  0  0  0
  -46.5757   58.4320   65.4549 C   0  0  0  0  0  0  0  0  0  0  0  0
  -47.9210   57.9735   64.9119 C   0  0  0  0  0  0  0  0  0  0  0  0
  -49.1078   58.0928   65.8708 C   0  0  0  0  0  0  0  0  0  0  0  0
  -50.1799   58.9393   65.1980 C   0  0  0  0  0  0  0  0  0  0  0  0
  -50.0077   59.3029   63.7305 C   0  0  0  0  0  0  0  0  0  0  0  0
  -51.1477   58.7182   62.8817 C   0  0  0  0  0  0  0  0  0  0  0  0
  -50.6846   57.9793   61.6125 C   0  0  0  0  0  0  0  0  0  0  0  0
  -49.6799   58.7754   60.7829 C   0  0  0  0  0  0  0  0  0  0  0  0
  -32.9743   57.0926   61.8031 O   0  0  0  0  0  0  0  0  0  0  0  0
  -34.3825   56.9675   61.8736 C   0  0  0  0  0  0  0  0  0  0  0  0
  -32.5914   56.9352   62.6803 H   0  0  0  0  0  0  0  0  0  0  0  0
  -35.0511   57.2049   60.5175 C   0  0  0  0  0  0  0  0  0  0  0  0
  -36.3832   57.2964   60.3643 C   0  0  0  0  0  0  0  0  0  0  0  0
  -36.9744   57.5338   58.9760 C   0  0  0  0  0  0  0  0  0  0  0  0
  -37.8110   58.8169   58.8675 C   0  0  0  0  0  0  0  0  0  0  0  0
  -38.1244   59.5228   60.1996 C   0  0  0  0  0  0  0  0  0  0  0  0
  -39.6489   59.7327   60.3647 C   0  0  0  0  0  0  0  0  0  0  0  0
  -40.3837   60.2630   59.1075 C   0  0  0  0  0  0  0  0  0  0  0  0
  -41.7542   59.5950   58.8460 C   0  0  0  0  0  0  0  0  0  0  0  0
  -42.1369   59.5356   57.3513 C   0  0  0  0  0  0  0  0  0  0  0  0
  -43.3111   58.5961   57.0511 C   0  0  0  0  0  0  0  0  0  0  0  0
  -44.2610   58.3161   58.2137 C   0  0  0  0  0  0  0  0  0  0  0  0
  -45.7106   58.0213   57.7804 C   0  0  0  0  0  0  0  0  0  0  0  0
  -46.6293   57.4854   58.8889 C   0  0  0  0  0  0  0  0  0  0  0  0
  -47.7964   56.6888   58.2986 C   0  0  0  0  0  0  0  0  0  0  0  0
  -47.4554   55.3368   57.6975 C   0  0  0  0  0  0  0  0  0  0  0  0
  -33.7266   59.0388   63.3242 C   0  0  0  0  0  0  0  0  0  0  0  0
  -33.3530   60.0914   62.3992 O   0  0  0  0  0  0  0  0  0  0  0  0
  -35.6456   61.5634   63.2675 O   0  0  0  0  0  0  0  0  0  0  0  0
  -32.9306   63.1698   65.9964 O   0  0  0  0  0  0  0  0  0  0  0  0
  -32.0802   61.9085   63.3808 O   0  0  0  0  0  0  0  0  0  0  0  0
  -33.3510   61.5088   62.8127 C   0  0  0  0  0  0  0  0  0  0  0  0
  -34.4218   61.9159   63.8351 C   0  0  0  0  0  0  0  0  0  0  0  0
  -34.4460   63.4300   64.1388 C   0  0  0  0  0  0  0  0  0  0  0  0
  -33.0968   63.7654   64.7120 C   0  0  0  0  0  0  0  0  0  0  0  0
  -32.0062   63.3095   63.7596 C   0  0  0  0  0  0  0  0  0  0  0  0
  -35.6488   60.6139   63.0697 H   0  0  0  0  0  0  0  0  0  0  0  0
  -33.6367   63.4744   66.5878 H   0  0  0  0  0  0  0  0  0  0  0  0
  -31.0002   64.8988   65.2347 O   0  0  0  0  0  0  0  0  0  0  0  0
  -30.7492   63.7260   64.5203 C   0  0  0  0  0  0  0  0  0  0  0  0
  -30.2005   65.1612   65.7169 H   0  0  0  0  0  0  0  0  0  0  0  0
  -35.4176   63.8654   65.1167 O   0  0  0  0  0  0  0  0  0  0  0  0
  -37.2765   62.1561   65.6995 O   0  0  0  0  0  0  0  0  0  0  0  0
  -36.5086   63.7140   67.3944 O   0  0  0  0  0  0  0  0  0  0  0  0
  -35.1337   61.8189   66.7676 O   0  0  0  0  0  0  0  0  0  0  0  0
  -36.0802   62.8520   66.2594 S   0  0  0  0  0  0  0  0  0  0  0  0
  -37.9052   62.8139   65.3632 H   0  0  0  0  0  0  0  0  0  0  0  0
  -34.8492   61.2521   66.0336 H   0  0  0  0  0  0  0  0  0  0  0  0
  2  1  1  0  0  0
  2  4  1  0  0  0
  2  5  1  0  0  0
 41 42  1  0  0  0
 41  1  1  0  0  0
 42 46  1  0  0  0
  1 24  1  0  0  0
 23 24  1  0  0  0
 23 25  1  0  0  0
 24 26  1  0  0  0
  3  4  2  0  0  0
 26 27  2  0  0  0
 27 28  1  0  0  0
 43 47  1  0  0  0
 43 51  1  0  0  0
 28 29  1  0  0  0
 56 48  1  0  0  0
 56 60  1  0  0  0
 29 30  1  0  0  0
 57 60  1  0  0  0
 57 61  1  0  0  0
 30 31  1  0  0  0
 44 49  1  0  0  0
 44 52  1  0  0  0
 31 32  1  0  0  0
 45 46  1  0  0  0
 45 50  1  0  0  0
 32 33  1  0  0  0
 53 54  1  0  0  0
 53 55  1  0  0  0
 33 34  1  0  0  0
 34 35  1  0  0  0
 35 36  1  0  0  0
 58 60  1  0  0  0
 36 37  1  0  0  0
 59 60  1  0  0  0
 59 62  1  0  0  0
 37 38  1  0  0  0
 38 39  1  0  0  0
 39 40  1  0  0  0
  4  6  1  0  0  0
  6  7  1  0  0  0
  7  8  1  0  0  0
  8  9  1  0  0  0
  9 10  1  0  0  0
 10 11  1  0  0  0
 11 12  1  0  0  0
 12 13  1  0  0  0
 13 14  1  0  0  0
 14 15  1  0  0  0
 15 16  1  0  0  0
 16 17  1  0  0  0
 17 18  1  0  0  0
 18 19  1  0  0  0
 19 20  1  0  0  0
 20 21  1  0  0  0
 21 22  1  0  0  0
 46 47  1  0  0  0
 47 48  1  0  0  0
 48 49  1  0  0  0
 49 50  1  0  0  0
 50 54  1  0  0  0
M  CHG 1  58  -1
M  END
> <minimizedAffinity>
-8.83546

> <CNNscore>
0.3346736133

> <CNNaffinity>
6.9578161240

> <CNN_VS>
2.3285975456

> <CNNaffinity_variance>
1.2665532827

$$$$
/media/chris/experiments/cd1a-new-docking/inputs/ligands/1onq_ligand.pdb


 62 62  0  0  0  0  0  0  0  0999 V2000
  -38.5806   59.6755   60.8831 C   0  0  0  0  0  0  0  0  0  0  0  0
  -37.7295   59.5794   59.7137 N   0  0  0  0  0  0  0  0  0  0  0  0
  -36.3830   58.4812   58.2547 O   0  0  0  0  0  0  0  0  0  0  0  0
  -37.0967   58.4979   59.2387 C   0  0  0  0  0  0  0  0  0  0  0  0
  -37.6001   60.4124   59.2051 H   0  0  0  0  0  0  0  0  0  0  0  0
  -37.3125   57.2375   60.0224 C   0  0  0  0  0  0  0  0  0  0  0  0
  -36.5710   56.1295   59.2741 C   0  0  0  0  0  0  0  0  0  0  0  0
  -35.4262   55.5964   60.1321 C   0  0  0  0  0  0  0  0  0  0  0  0
  -34.1102   56.3256   60.0099 C   0  0  0  0  0  0  0  0  0  0  0  0
  -33.5192   56.4479   61.4105 C   0  0  0  0  0  0  0  0  0  0  0  0
  -33.2688   57.9045   61.8232 C   0  0  0  0  0  0  0  0  0  0  0  0
  -34.4729   58.5861   62.4988 C   0  0  0  0  0  0  0  0  0  0  0  0
  -34.7287   58.0700   63.9318 C   0  0  0  0  0  0  0  0  0  0  0  0
  -35.8839   57.0648   63.9456 C   0  0  0  0  0  0  0  0  0  0  0  0
  -37.1494   57.5461   64.6450 C   0  0  0  0  0  0  0  0  0  0  0  0
  -38.3943   57.3337   63.7964 C   0  0  0  0  0  0  0  0  0  0  0  0
  -39.6976   57.9019   64.3627 C   0  0  0  0  0  0  0  0  0  0  0  0
  -39.3466   58.8740   65.4809 C   0  0  0  0  0  0  0  0  0  0  0  0
  -40.2253   60.0994   65.6845 C   0  0  0  0  0  0  0  0  0  0  0  0
  -41.7120   59.7418   65.5302 C   0  0  0  0  0  0  0  0  0  0  0  0
  -42.3631   59.1576   66.7975 C   0  0  0  0  0  0  0  0  0  0  0  0
  -42.6263   57.6565   66.7043 C   0  0  0  0  0  0  0  0  0  0  0  0
  -40.7659   60.3014   61.3609 O   0  0  0  0  0  0  0  0  0  0  0  0
  -39.7775   60.4499   60.3586 C   0  0  0  0  0  0  0  0  0  0  0  0
  -40.4467   60.6907   62.1900 H   0  0  0  0  0  0  0  0  0  0  0  0
  -40.2196   59.8544   59.0199 C   0  0  0  0  0  0  0  0  0  0  0  0
  -41.5095   59.6644   58.6936 C   0  0  0  0  0  0  0  0  0  0  0  0
  -41.8699   59.0630   57.3365 C   0  0  0  0  0  0  0  0  0  0  0  0
  -43.3787   58.8761   57.1202 C   0  0  0  0  0  0  0  0  0  0  0  0
  -44.1350   58.1790   58.2661 C   0  0  0  0  0  0  0  0  0  0  0  0
  -45.6365   58.0294   57.9222 C   0  0  0  0  0  0  0  0  0  0  0  0
  -46.5191   57.4433   59.0532 C   0  0  0  0  0  0  0  0  0  0  0  0
  -47.6676   56.5351   58.5541 C   0  0  0  0  0  0  0  0  0  0  0  0
  -49.0740   57.1029   58.8432 C   0  0  0  0  0  0  0  0  0  0  0  0
  -49.4093   57.1919   60.3368 C   0  0  0  0  0  0  0  0  0  0  0  0
  -50.8871   57.3588   60.6843 C   0  0  0  0  0  0  0  0  0  0  0  0
  -51.1376   57.9506   62.0854 C   0  0  0  0  0  0  0  0  0  0  0  0
  -49.8731   58.2699   62.8971 C   0  0  0  0  0  0  0  0  0  0  0  0
  -50.2084   59.1210   64.1253 C   0  0  0  0  0  0  0  0  0  0  0  0
  -50.3326   58.3815   65.4456 C   0  0  0  0  0  0  0  0  0  0  0  0
  -37.8991   60.2187   62.1596 C   0  0  0  0  0  0  0  0  0  0  0  0
  -37.0347   61.3711   61.9926 O   0  0  0  0  0  0  0  0  0  0  0  0
  -35.1419   63.5059   61.8011 O   0  0  0  0  0  0  0  0  0  0  0  0
  -36.5071   64.3633   65.6482 O   0  0  0  0  0  0  0  0  0  0  0  0
  -36.7547   61.6230   64.3891 O   0  0  0  0  0  0  0  0  0  0  0  0
  -36.1587   61.8359   63.0865 C   0  0  0  0  0  0  0  0  0  0  0  0
  -35.7488   63.3149   63.0418 C   0  0  0  0  0  0  0  0  0  0  0  0
  -34.7402   63.7127   64.1416 C   0  0  0  0  0  0  0  0  0  0  0  0
  -35.4262   63.4542   65.4546 C   0  0  0  0  0  0  0  0  0  0  0  0
  -35.9127   62.0172   65.5060 C   0  0  0  0  0  0  0  0  0  0  0  0
  -35.7619   63.2607   61.0967 H   0  0  0  0  0  0  0  0  0  0  0  0
  -36.1743   65.2737   65.6118 H   0  0  0  0  0  0  0  0  0  0  0  0
  -35.8401   62.7526   67.7792 O   0  0  0  0  0  0  0  0  0  0  0  0
  -36.5720   61.9719   66.8827 C   0  0  0  0  0  0  0  0  0  0  0  0
  -36.2609   62.7222   68.6527 H   0  0  0  0  0  0  0  0  0  0  0  0
  -34.3406   65.1019   64.1636 O   0  0  0  0  0  0  0  0  0  0  0  0
  -33.0966   66.6762   65.8040 O   0  0  0  0  0  0  0  0  0  0  0  0
  -32.1319   66.2125   63.6261 O   0  0  0  0  0  0  0  0  0  0  0  0
  -32.0585   64.5353   65.3742 O   0  0  0  0  0  0  0  0  0  0  0  0
  -32.8796   65.6222   64.7693 S   0  0  0  0  0  0  0  0  0  0  0  0
  -33.6303   67.3936   65.4277 H   0  0  0  0  0  0  0  0  0  0  0  0
  -32.5388   64.1446   66.1209 H   0  0  0  0  0  0  0  0  0  0  0  0
  2  1  1  0  0  0
  2  4  1  0  0  0
  2  5  1  0  0  0
 41 42  1  0  0  0
 41  1  1  0  0  0
 42 46  1  0  0  0
  1 24  1  0  0  0
 23 24  1  0  0  0
 23 25  1  0  0  0
 24 26  1  0  0  0
  3  4  2  0  0  0
 26 27  2  0  0  0
 27 28  1  0  0  0
 43 47  1  0  0  0
 43 51  1  0  0  0
 28 29  1  0  0  0
 56 48  1  0  0  0
 56 60  1  0  0  0
 29 30  1  0  0  0
 57 60  1  0  0  0
 57 61  1  0  0  0
 30 31  1  0  0  0
 44 49  1  0  0  0
 44 52  1  0  0  0
 31 32  1  0  0  0
 45 46  1  0  0  0
 45 50  1  0  0  0
 32 33  1  0  0  0
 53 54  1  0  0  0
 53 55  1  0  0  0
 33 34  1  0  0  0
 34 35  1  0  0  0
 35 36  1  0  0  0
 58 60  1  0  0  0
 36 37  1  0  0  0
 59 60  1  0  0  0
 59 62  1  0  0  0
 37 38  1  0  0  0
 38 39  1  0  0  0
 39 40  1  0  0  0
  4  6  1  0  0  0
  6  7  1  0  0  0
  7  8  1  0  0  0
  8  9  1  0  0  0
  9 10  1  0  0  0
 10 11  1  0  0  0
 11 12  1  0  0  0
 12 13  1  0  0  0
 13 14  1  0  0  0
 14 15  1  0  0  0
 15 16  1  0  0  0
 16 17  1  0  0  0
 17 18  1  0  0  0
 18 19  1  0  0  0
 19 20  1  0  0  0
 20 21  1  0  0  0
 21 22  1  0  0  0
 46 47  1  0  0  0
 47 48  1  0  0  0
 48 49  1  0  0  0
 49 50  1  0  0  0
 50 54  1  0  0  0
M  CHG 1  58  -1
M  END
> <minimizedAffinity>
-9.25379

> <CNNscore>
0.3126169741

> <CNNaffinity>
7.0688428879

> <CNN_VS>
2.2098402977

> <CNNaffinity_variance>
1.1908380985

$$$$
/media/chris/experiments/cd1a-new-docking/inputs/ligands/1onq_ligand.pdb


 62 62  0  0  0  0  0  0  0  0999 V2000
  -35.8493   58.1884   62.3901 C   0  0  0  0  0  0  0  0  0  0  0  0
  -36.7321   57.6997   63.4307 N   0  0  0  0  0  0  0  0  0  0  0  0
  -38.5190   57.8384   64.8219 O   0  0  0  0  0  0  0  0  0  0  0  0
  -37.8213   58.2940   63.9367 C   0  0  0  0  0  0  0  0  0  0  0  0
  -36.5030   56.8221   63.8134 H   0  0  0  0  0  0  0  0  0  0  0  0
  -38.1582   59.6262   63.3356 C   0  0  0  0  0  0  0  0  0  0  0  0
  -39.2261   60.2498   64.2345 C   0  0  0  0  0  0  0  0  0  0  0  0
  -40.5224   60.4390   63.4505 C   0  0  0  0  0  0  0  0  0  0  0  0
  -41.8002   60.1607   64.2042 C   0  0  0  0  0  0  0  0  0  0  0  0
  -41.4788   59.1479   65.2983 C   0  0  0  0  0  0  0  0  0  0  0  0
  -42.0958   59.5222   66.6526 C   0  0  0  0  0  0  0  0  0  0  0  0
  -43.1044   58.4925   67.1939 C   0  0  0  0  0  0  0  0  0  0  0  0
  -42.8940   57.0797   66.6064 C   0  0  0  0  0  0  0  0  0  0  0  0
  -44.0882   56.6723   65.7387 C   0  0  0  0  0  0  0  0  0  0  0  0
  -45.2345   57.6760   65.7068 C   0  0  0  0  0  0  0  0  0  0  0  0
  -45.7544   57.9139   64.2968 C   0  0  0  0  0  0  0  0  0  0  0  0
  -47.2606   58.1521   64.1681 C   0  0  0  0  0  0  0  0  0  0  0  0
  -47.8946   57.9392   65.5361 C   0  0  0  0  0  0  0  0  0  0  0  0
  -49.1223   58.7583   65.9064 C   0  0  0  0  0  0  0  0  0  0  0  0
  -50.3462   58.3145   65.0898 C   0  0  0  0  0  0  0  0  0  0  0  0
  -50.9906   59.4307   64.2472 C   0  0  0  0  0  0  0  0  0  0  0  0
  -49.9745   60.2622   63.4678 C   0  0  0  0  0  0  0  0  0  0  0  0
  -34.7789   57.1714   60.5968 O   0  0  0  0  0  0  0  0  0  0  0  0
  -36.0047   57.1378   61.3039 C   0  0  0  0  0  0  0  0  0  0  0  0
  -34.0535   56.9353   61.1958 H   0  0  0  0  0  0  0  0  0  0  0  0
  -37.1946   57.5020   60.4130 C   0  0  0  0  0  0  0  0  0  0  0  0
  -37.3809   58.7335   59.9080 C   0  0  0  0  0  0  0  0  0  0  0  0
  -38.5957   59.0180   59.0267 C   0  0  0  0  0  0  0  0  0  0  0  0
  -39.5338   60.0955   59.5900 C   0  0  0  0  0  0  0  0  0  0  0  0
  -41.0395   59.7937   59.4768 C   0  0  0  0  0  0  0  0  0  0  0  0
  -41.5195   59.9354   58.0123 C   0  0  0  0  0  0  0  0  0  0  0  0
  -42.0042   58.6234   57.3450 C   0  0  0  0  0  0  0  0  0  0  0  0
  -43.5333   58.5536   57.1219 C   0  0  0  0  0  0  0  0  0  0  0  0
  -44.3332   58.2693   58.4116 C   0  0  0  0  0  0  0  0  0  0  0  0
  -45.8323   58.0519   58.1736 C   0  0  0  0  0  0  0  0  0  0  0  0
  -46.5597   57.1980   59.2100 C   0  0  0  0  0  0  0  0  0  0  0  0
  -48.0905   57.1660   59.0314 C   0  0  0  0  0  0  0  0  0  0  0  0
  -48.8738   58.1467   59.9172 C   0  0  0  0  0  0  0  0  0  0  0  0
  -49.5052   57.4251   61.1113 C   0  0  0  0  0  0  0  0  0  0  0  0
  -51.0209   57.3351   61.1212 C   0  0  0  0  0  0  0  0  0  0  0  0
  -34.4091   58.5221   62.8413 C   0  0  0  0  0  0  0  0  0  0  0  0
  -33.9873   59.9018   62.6946 O   0  0  0  0  0  0  0  0  0  0  0  0
  -32.6288   62.4159   62.8000 O   0  0  0  0  0  0  0  0  0  0  0  0
  -36.1130   63.6240   64.7492 O   0  0  0  0  0  0  0  0  0  0  0  0
  -35.2277   60.7342   64.6061 O   0  0  0  0  0  0  0  0  0  0  0  0
  -34.0023   60.8328   63.8404 C   0  0  0  0  0  0  0  0  0  0  0  0
  -33.8284   62.3210   63.5043 C   0  0  0  0  0  0  0  0  0  0  0  0
  -33.7339   63.2311   64.7485 C   0  0  0  0  0  0  0  0  0  0  0  0
  -35.0313   63.0651   65.4904 C   0  0  0  0  0  0  0  0  0  0  0  0
  -35.2749   61.5943   65.7764 C   0  0  0  0  0  0  0  0  0  0  0  0
  -32.6699   61.8497   62.0136 H   0  0  0  0  0  0  0  0  0  0  0  0
  -35.9368   64.5625   64.5780 H   0  0  0  0  0  0  0  0  0  0  0  0
  -36.4165   62.0802   67.8196 O   0  0  0  0  0  0  0  0  0  0  0  0
  -36.6149   61.6480   66.5071 C   0  0  0  0  0  0  0  0  0  0  0  0
  -37.2689   62.1134   68.2814 H   0  0  0  0  0  0  0  0  0  0  0  0
  -33.5971   64.6469   64.4899 O   0  0  0  0  0  0  0  0  0  0  0  0
  -32.8084   66.5857   66.0183 O   0  0  0  0  0  0  0  0  0  0  0  0
  -31.7385   66.2463   63.8668 O   0  0  0  0  0  0  0  0  0  0  0  0
  -31.2567   64.7562   65.7166 O   0  0  0  0  0  0  0  0  0  0  0  0
  -32.3217   65.5584   65.0506 S   0  0  0  0  0  0  0  0  0  0  0  0
  -33.5036   67.1187   65.6016 H   0  0  0  0  0  0  0  0  0  0  0  0
  -31.6285   64.3040   66.4900 H   0  0  0  0  0  0  0  0  0  0  0  0
  2  1  1  0  0  0
  2  4  1  0  0  0
  2  5  1  0  0  0
 41 42  1  0  0  0
 41  1  1  0  0  0
 42 46  1  0  0  0
  1 24  1  0  0  0
 23 24  1  0  0  0
 23 25  1  0  0  0
 24 26  1  0  0  0
  3  4  2  0  0  0
 26 27  2  0  0  0
 27 28  1  0  0  0
 43 47  1  0  0  0
 43 51  1  0  0  0
 28 29  1  0  0  0
 56 48  1  0  0  0
 56 60  1  0  0  0
 29 30  1  0  0  0
 57 60  1  0  0  0
 57 61  1  0  0  0
 30 31  1  0  0  0
 44 49  1  0  0  0
 44 52  1  0  0  0
 31 32  1  0  0  0
 45 46  1  0  0  0
 45 50  1  0  0  0
 32 33  1  0  0  0
 53 54  1  0  0  0
 53 55  1  0  0  0
 33 34  1  0  0  0
 34 35  1  0  0  0
 35 36  1  0  0  0
 58 60  1  0  0  0
 36 37  1  0  0  0
 59 60  1  0  0  0
 59 62  1  0  0  0
 37 38  1  0  0  0
 38 39  1  0  0  0
 39 40  1  0  0  0
  4  6  1  0  0  0
  6  7  1  0  0  0
  7  8  1  0  0  0
  8  9  1  0  0  0
  9 10  1  0  0  0
 10 11  1  0  0  0
 11 12  1  0  0  0
 12 13  1  0  0  0
 13 14  1  0  0  0
 14 15  1  0  0  0
 15 16  1  0  0  0
 16 17  1  0  0  0
 17 18  1  0  0  0
 18 19  1  0  0  0
 19 20  1  0  0  0
 20 21  1  0  0  0
 21 22  1  0  0  0
 46 47  1  0  0  0
 47 48  1  0  0  0
 48 49  1  0  0  0
 49 50  1  0  0  0
 50 54  1  0  0  0
M  CHG 1  58  -1
M  END
> <minimizedAffinity>
-8.44925

> <CNNscore>
0.2675266266

> <CNNaffinity>
6.9901418686

> <CNN_VS>
1.8700491190

> <CNNaffinity_variance>
1.2225263119

$$$$
/media/chris/experiments/cd1a-new-docking/inputs/ligands/1onq_ligand.pdb


 62 62  0  0  0  0  0  0  0  0999 V2000
  -38.7874   59.9461   61.0443 C   0  0  0  0  0  0  0  0  0  0  0  0
  -37.9294   59.8912   59.8773 N   0  0  0  0  0  0  0  0  0  0  0  0
  -36.5405   58.8547   58.4129 O   0  0  0  0  0  0  0  0  0  0  0  0
  -37.2578   58.8370   59.3942 C   0  0  0  0  0  0  0  0  0  0  0  0
  -37.8272   60.7331   59.3773 H   0  0  0  0  0  0  0  0  0  0  0  0
  -37.4324   57.5621   60.1649 C   0  0  0  0  0  0  0  0  0  0  0  0
  -36.0279   57.0779   60.5255 C   0  0  0  0  0  0  0  0  0  0  0  0
  -35.4460   57.9471   61.6376 C   0  0  0  0  0  0  0  0  0  0  0  0
  -35.0905   57.2342   62.9197 C   0  0  0  0  0  0  0  0  0  0  0  0
  -35.6834   58.0369   64.0731 C   0  0  0  0  0  0  0  0  0  0  0  0
  -36.8815   57.3369   64.7284 C   0  0  0  0  0  0  0  0  0  0  0  0
  -38.1168   58.2374   64.9121 C   0  0  0  0  0  0  0  0  0  0  0  0
  -39.3677   57.6962   64.1856 C   0  0  0  0  0  0  0  0  0  0  0  0
  -40.6409   58.3177   64.7668 C   0  0  0  0  0  0  0  0  0  0  0  0
  -40.4416   59.6515   65.4764 C   0  0  0  0  0  0  0  0  0  0  0  0
  -41.5825   59.9743   66.4300 C   0  0  0  0  0  0  0  0  0  0  0  0
  -42.2637   58.7743   67.0920 C   0  0  0  0  0  0  0  0  0  0  0  0
  -43.7502   58.8322   66.7674 C   0  0  0  0  0  0  0  0  0  0  0  0
  -44.1730   59.0965   65.3298 C   0  0  0  0  0  0  0  0  0  0  0  0
  -44.9960   57.9235   64.7742 C   0  0  0  0  0  0  0  0  0  0  0  0
  -46.5011   58.2133   64.6256 C   0  0  0  0  0  0  0  0  0  0  0  0
  -47.3642   57.4561   65.6322 C   0  0  0  0  0  0  0  0  0  0  0  0
  -41.0493   60.2536   61.4741 O   0  0  0  0  0  0  0  0  0  0  0  0
  -40.0765   60.5187   60.4806 C   0  0  0  0  0  0  0  0  0  0  0  0
  -40.8059   60.7096   62.2949 H   0  0  0  0  0  0  0  0  0  0  0  0
  -40.4020   59.8259   59.1553 C   0  0  0  0  0  0  0  0  0  0  0  0
  -41.6460   59.7581   58.6511 C   0  0  0  0  0  0  0  0  0  0  0  0
  -41.8897   59.0473   57.3212 C   0  0  0  0  0  0  0  0  0  0  0  0
  -43.3617   58.6912   57.0670 C   0  0  0  0  0  0  0  0  0  0  0  0
  -44.1732   58.2839   58.3107 C   0  0  0  0  0  0  0  0  0  0  0  0
  -45.6406   57.9713   57.9308 C   0  0  0  0  0  0  0  0  0  0  0  0
  -46.5592   57.5715   59.1131 C   0  0  0  0  0  0  0  0  0  0  0  0
  -47.5162   56.3965   58.8024 C   0  0  0  0  0  0  0  0  0  0  0  0
  -48.9104   56.8477   58.3160 C   0  0  0  0  0  0  0  0  0  0  0  0
  -49.7072   57.6315   59.3659 C   0  0  0  0  0  0  0  0  0  0  0  0
  -50.3037   56.8102   60.5069 C   0  0  0  0  0  0  0  0  0  0  0  0
  -50.8013   57.6577   61.6945 C   0  0  0  0  0  0  0  0  0  0  0  0
  -49.7042   58.1632   62.6435 C   0  0  0  0  0  0  0  0  0  0  0  0
  -50.3042   58.9765   63.7940 C   0  0  0  0  0  0  0  0  0  0  0  0
  -51.5507   59.7820   63.4732 C   0  0  0  0  0  0  0  0  0  0  0  0
  -38.1867   60.6553   62.2793 C   0  0  0  0  0  0  0  0  0  0  0  0
  -36.9287   61.3488   62.0805 O   0  0  0  0  0  0  0  0  0  0  0  0
  -35.0205   63.4782   62.0378 O   0  0  0  0  0  0  0  0  0  0  0  0
  -36.5537   64.2284   65.8437 O   0  0  0  0  0  0  0  0  0  0  0  0
  -36.7555   61.5280   64.4936 O   0  0  0  0  0  0  0  0  0  0  0  0
  -36.1008   61.7762   63.2259 C   0  0  0  0  0  0  0  0  0  0  0  0
  -35.6833   63.2538   63.2438 C   0  0  0  0  0  0  0  0  0  0  0  0
  -34.7236   63.6133   64.3991 C   0  0  0  0  0  0  0  0  0  0  0  0
  -35.4689   63.3197   65.6717 C   0  0  0  0  0  0  0  0  0  0  0  0
  -35.9629   61.8845   65.6583 C   0  0  0  0  0  0  0  0  0  0  0  0
  -35.6093   63.2573   61.2993 H   0  0  0  0  0  0  0  0  0  0  0  0
  -36.2159   65.1377   65.8495 H   0  0  0  0  0  0  0  0  0  0  0  0
  -35.9851   62.5450   67.9555 O   0  0  0  0  0  0  0  0  0  0  0  0
  -36.6836   61.8019   67.0022 C   0  0  0  0  0  0  0  0  0  0  0  0
  -36.4447   62.4909   68.8079 H   0  0  0  0  0  0  0  0  0  0  0  0
  -34.3198   64.9991   64.4804 O   0  0  0  0  0  0  0  0  0  0  0  0
  -32.7956   66.9228   63.6478 O   0  0  0  0  0  0  0  0  0  0  0  0
  -32.2378   64.6275   63.0918 O   0  0  0  0  0  0  0  0  0  0  0  0
  -31.8605   65.4648   65.3347 O   0  0  0  0  0  0  0  0  0  0  0  0
  -32.7718   65.5195   64.1566 S   0  0  0  0  0  0  0  0  0  0  0  0
  -33.3848   66.9781   62.8791 H   0  0  0  0  0  0  0  0  0  0  0  0
  -32.2014   66.0439   66.0343 H   0  0  0  0  0  0  0  0  0  0  0  0
  2  1  1  0  0  0
  2  4  1  0  0  0
  2  5  1  0  0  0
 41 42  1  0  0  0
 41  1  1  0  0  0
 42 46  1  0  0  0
  1 24  1  0  0  0
 23 24  1  0  0  0
 23 25  1  0  0  0
 24 26  1  0  0  0
  3  4  2  0  0  0
 26 27  2  0  0  0
 27 28  1  0  0  0
 43 47  1  0  0  0
 43 51  1  0  0  0
 28 29  1  0  0  0
 56 48  1  0  0  0
 56 60  1  0  0  0
 29 30  1  0  0  0
 57 60  1  0  0  0
 57 61  1  0  0  0
 30 31  1  0  0  0
 44 49  1  0  0  0
 44 52  1  0  0  0
 31 32  1  0  0  0
 45 46  1  0  0  0
 45 50  1  0  0  0
 32 33  1  0  0  0
 53 54  1  0  0  0
 53 55  1  0  0  0
 33 34  1  0  0  0
 34 35  1  0  0  0
 35 36  1  0  0  0
 58 60  1  0  0  0
 36 37  1  0  0  0
 59 60  1  0  0  0
 59 62  1  0  0  0
 37 38  1  0  0  0
 38 39  1  0  0  0
 39 40  1  0  0  0
  4  6  1  0  0  0
  6  7  1  0  0  0
  7  8  1  0  0  0
  8  9  1  0  0  0
  9 10  1  0  0  0
 10 11  1  0  0  0
 11 12  1  0  0  0
 12 13  1  0  0  0
 13 14  1  0  0  0
 14 15  1  0  0  0
 15 16  1  0  0  0
 16 17  1  0  0  0
 17 18  1  0  0  0
 18 19  1  0  0  0
 19 20  1  0  0  0
 20 21  1  0  0  0
 21 22  1  0  0  0
 46 47  1  0  0  0
 47 48  1  0  0  0
 48 49  1  0  0  0
 49 50  1  0  0  0
 50 54  1  0  0  0
M  CHG 1  58  -1
M  END
> <minimizedAffinity>
-9.16293

> <CNNscore>
0.2207797170

> <CNNaffinity>
7.0614089966

> <CNN_VS>
1.5590158701

> <CNNaffinity_variance>
1.3734661341

$$$$
/media/chris/experiments/cd1a-new-docking/inputs/ligands/1onq_ligand.pdb


 62 62  0  0  0  0  0  0  0  0999 V2000
  -39.3154   58.8315   65.1388 C   0  0  0  0  0  0  0  0  0  0  0  0
  -40.5186   59.3423   64.5123 N   0  0  0  0  0  0  0  0  0  0  0  0
  -42.7640   59.6007   64.3144 O   0  0  0  0  0  0  0  0  0  0  0  0
  -41.7906   59.1543   64.8898 C   0  0  0  0  0  0  0  0  0  0  0  0
  -40.3847   59.8963   63.7095 H   0  0  0  0  0  0  0  0  0  0  0  0
  -41.9734   58.3145   66.1189 C   0  0  0  0  0  0  0  0  0  0  0  0
  -43.4583   58.3857   66.4756 C   0  0  0  0  0  0  0  0  0  0  0  0
  -44.1104   57.0208   66.2690 C   0  0  0  0  0  0  0  0  0  0  0  0
  -45.1817   56.9512   65.2079 C   0  0  0  0  0  0  0  0  0  0  0  0
  -45.8735   58.3096   65.1615 C   0  0  0  0  0  0  0  0  0  0  0  0
  -47.3095   58.2257   64.6270 C   0  0  0  0  0  0  0  0  0  0  0  0
  -48.3229   57.6387   65.6265 C   0  0  0  0  0  0  0  0  0  0  0  0
  -49.7610   58.1520   65.3949 C   0  0  0  0  0  0  0  0  0  0  0  0
  -49.7881   59.1953   64.2743 C   0  0  0  0  0  0  0  0  0  0  0  0
  -51.1149   59.3122   63.5339 C   0  0  0  0  0  0  0  0  0  0  0  0
  -51.1999   58.3625   62.3481 C   0  0  0  0  0  0  0  0  0  0  0  0
  -49.8669   57.9640   61.7105 C   0  0  0  0  0  0  0  0  0  0  0  0
  -50.1551   57.3645   60.3408 C   0  0  0  0  0  0  0  0  0  0  0  0
  -49.1258   56.4297   59.7226 C   0  0  0  0  0  0  0  0  0  0  0  0
  -48.2655   57.1681   58.6851 C   0  0  0  0  0  0  0  0  0  0  0  0
  -46.7971   57.3719   59.1018 C   0  0  0  0  0  0  0  0  0  0  0  0
  -45.9245   57.9360   57.9829 C   0  0  0  0  0  0  0  0  0  0  0  0
  -38.9216   60.9108   64.1810 O   0  0  0  0  0  0  0  0  0  0  0  0
  -38.4260   60.0615   65.1992 C   0  0  0  0  0  0  0  0  0  0  0  0
  -39.8417   61.1475   64.3768 H   0  0  0  0  0  0  0  0  0  0  0  0
  -36.9733   59.6492   64.9499 C   0  0  0  0  0  0  0  0  0  0  0  0
  -36.0773   60.4518   64.3504 C   0  0  0  0  0  0  0  0  0  0  0  0
  -34.6448   59.9663   64.1368 C   0  0  0  0  0  0  0  0  0  0  0  0
  -34.4794   58.4445   64.2591 C   0  0  0  0  0  0  0  0  0  0  0  0
  -33.8026   57.7494   63.0634 C   0  0  0  0  0  0  0  0  0  0  0  0
  -32.3009   58.1172   62.9923 C   0  0  0  0  0  0  0  0  0  0  0  0
  -31.9272   59.1676   61.9159 C   0  0  0  0  0  0  0  0  0  0  0  0
  -30.7237   60.0625   62.2951 C   0  0  0  0  0  0  0  0  0  0  0  0
  -30.5528   61.2902   61.3745 C   0  0  0  0  0  0  0  0  0  0  0  0
  -31.1181   62.5879   61.9641 C   0  0  0  0  0  0  0  0  0  0  0  0
  -31.4844   62.5482   63.4462 C   0  0  0  0  0  0  0  0  0  0  0  0
  -32.7955   63.2837   63.7868 C   0  0  0  0  0  0  0  0  0  0  0  0
  -33.1987   63.2512   65.2688 C   0  0  0  0  0  0  0  0  0  0  0  0
  -34.6580   63.6780   65.4512 C   0  0  0  0  0  0  0  0  0  0  0  0
  -35.1210   63.9075   66.8790 C   0  0  0  0  0  0  0  0  0  0  0  0
  -38.7146   57.5633   64.4910 C   0  0  0  0  0  0  0  0  0  0  0  0
  -38.9962   57.3590   63.0832 O   0  0  0  0  0  0  0  0  0  0  0  0
  -36.7443   56.6932   61.4515 O   0  0  0  0  0  0  0  0  0  0  0  0
  -38.9736   58.6226   58.5008 O   0  0  0  0  0  0  0  0  0  0  0  0
  -39.3837   59.1176   61.4576 O   0  0  0  0  0  0  0  0  0  0  0  0
  -38.4035   58.2309   62.0495 C   0  0  0  0  0  0  0  0  0  0  0  0
  -37.7123   57.5173   60.8787 C   0  0  0  0  0  0  0  0  0  0  0  0
  -37.0106   58.4778   59.8938 C   0  0  0  0  0  0  0  0  0  0  0  0
  -38.0871   59.3659   59.3337 C   0  0  0  0  0  0  0  0  0  0  0  0
  -38.8435   60.0341   60.4676 C   0  0  0  0  0  0  0  0  0  0  0  0
  -37.1676   56.0818   62.0742 H   0  0  0  0  0  0  0  0  0  0  0  0
  -38.4702   58.2050   57.7844 H   0  0  0  0  0  0  0  0  0  0  0  0
  -40.9656   60.0593   59.3678 O   0  0  0  0  0  0  0  0  0  0  0  0
  -39.8712   60.8606   59.6976 C   0  0  0  0  0  0  0  0  0  0  0  0
  -41.6167   60.5865   58.8789 H   0  0  0  0  0  0  0  0  0  0  0  0
  -36.3664   57.8607   58.7562 O   0  0  0  0  0  0  0  0  0  0  0  0
  -34.1649   57.2574   59.9835 O   0  0  0  0  0  0  0  0  0  0  0  0
  -34.3523   56.8608   57.5967 O   0  0  0  0  0  0  0  0  0  0  0  0
  -35.4831   55.4020   59.1675 O   0  0  0  0  0  0  0  0  0  0  0  0
  -35.0815   56.8108   58.8930 S   0  0  0  0  0  0  0  0  0  0  0  0
  -33.8923   58.1742   59.8215 H   0  0  0  0  0  0  0  0  0  0  0  0
  -35.9595   55.3603   60.0114 H   0  0  0  0  0  0  0  0  0  0  0  0
  2  1  1  0  0  0
  2  4  1  0  0  0
  2  5  1  0  0  0
 41 42  1  0  0  0
 41  1  1  0  0  0
 42 46  1  0  0  0
  1 24  1  0  0  0
 23 24  1  0  0  0
 23 25  1  0  0  0
 24 26  1  0  0  0
  3  4  2  0  0  0
 26 27  2  0  0  0
 27 28  1  0  0  0
 43 47  1  0  0  0
 43 51  1  0  0  0
 28 29  1  0  0  0
 56 48  1  0  0  0
 56 60  1  0  0  0
 29 30  1  0  0  0
 57 60  1  0  0  0
 57 61  1  0  0  0
 30 31  1  0  0  0
 44 49  1  0  0  0
 44 52  1  0  0  0
 31 32  1  0  0  0
 45 46  1  0  0  0
 45 50  1  0  0  0
 32 33  1  0  0  0
 53 54  1  0  0  0
 53 55  1  0  0  0
 33 34  1  0  0  0
 34 35  1  0  0  0
 35 36  1  0  0  0
 58 60  1  0  0  0
 36 37  1  0  0  0
 59 60  1  0  0  0
 59 62  1  0  0  0
 37 38  1  0  0  0
 38 39  1  0  0  0
 39 40  1  0  0  0
  4  6  1  0  0  0
  6  7  1  0  0  0
  7  8  1  0  0  0
  8  9  1  0  0  0
  9 10  1  0  0  0
 10 11  1  0  0  0
 11 12  1  0  0  0
 12 13  1  0  0  0
 13 14  1  0  0  0
 14 15  1  0  0  0
 15 16  1  0  0  0
 16 17  1  0  0  0
 17 18  1  0  0  0
 18 19  1  0  0  0
 19 20  1  0  0  0
 20 21  1  0  0  0
 21 22  1  0  0  0
 46 47  1  0  0  0
 47 48  1  0  0  0
 48 49  1  0  0  0
 49 50  1  0  0  0
 50 54  1  0  0  0
M  CHG 1  58  -1
M  END
> <minimizedAffinity>
-9.11452

> <CNNscore>
0.1996641010

> <CNNaffinity>
6.9384908676

> <CNN_VS>
1.3853675127

> <CNNaffinity_variance>
1.4895442724

$$$$
/media/chris/experiments/cd1a-new-docking/inputs/ligands/1onq_ligand.pdb


 62 62  0  0  0  0  0  0  0  0999 V2000
  -40.2346   58.8094   64.8663 C   0  0  0  0  0  0  0  0  0  0  0  0
  -41.0811   58.2393   65.8957 N   0  0  0  0  0  0  0  0  0  0  0  0
  -43.0700   57.8377   66.9108 O   0  0  0  0  0  0  0  0  0  0  0  0
  -42.4128   58.3298   66.0143 C   0  0  0  0  0  0  0  0  0  0  0  0
  -40.6204   57.7212   66.5946 H   0  0  0  0  0  0  0  0  0  0  0  0
  -43.0970   59.1161   64.9359 C   0  0  0  0  0  0  0  0  0  0  0  0
  -44.5746   59.1869   65.3222 C   0  0  0  0  0  0  0  0  0  0  0  0
  -45.3580   58.1011   64.5886 C   0  0  0  0  0  0  0  0  0  0  0  0
  -46.4869   57.4616   65.3600 C   0  0  0  0  0  0  0  0  0  0  0  0
  -47.7940   58.0411   64.8294 C   0  0  0  0  0  0  0  0  0  0  0  0
  -48.1849   59.3537   65.5217 C   0  0  0  0  0  0  0  0  0  0  0  0
  -48.3835   60.5403   64.5609 C   0  0  0  0  0  0  0  0  0  0  0  0
  -49.1893   60.1625   63.2986 C   0  0  0  0  0  0  0  0  0  0  0  0
  -50.6855   60.0868   63.6156 C   0  0  0  0  0  0  0  0  0  0  0  0
  -51.4588   59.0346   62.8302 C   0  0  0  0  0  0  0  0  0  0  0  0
  -50.5427   57.9970   62.1983 C   0  0  0  0  0  0  0  0  0  0  0  0
  -51.0975   57.2705   60.9709 C   0  0  0  0  0  0  0  0  0  0  0  0
  -50.2008   57.5909   59.7826 C   0  0  0  0  0  0  0  0  0  0  0  0
  -48.7650   58.0197   60.0472 C   0  0  0  0  0  0  0  0  0  0  0  0
  -47.7895   57.2747   59.1225 C   0  0  0  0  0  0  0  0  0  0  0  0
  -48.4382   56.6706   57.8634 C   0  0  0  0  0  0  0  0  0  0  0  0
  -47.5036   56.6430   56.6563 C   0  0  0  0  0  0  0  0  0  0  0  0
  -38.1240   57.9402   65.2971 O   0  0  0  0  0  0  0  0  0  0  0  0
  -39.2898   57.6646   64.5431 C   0  0  0  0  0  0  0  0  0  0  0  0
  -38.3431   57.9429   66.2420 H   0  0  0  0  0  0  0  0  0  0  0  0
  -39.0124   57.6458   63.0382 C   0  0  0  0  0  0  0  0  0  0  0  0
  -37.9334   57.0519   62.5002 C   0  0  0  0  0  0  0  0  0  0  0  0
  -37.7267   57.0774   60.9869 C   0  0  0  0  0  0  0  0  0  0  0  0
  -37.8968   58.4687   60.3596 C   0  0  0  0  0  0  0  0  0  0  0  0
  -37.2857   58.6469   58.9576 C   0  0  0  0  0  0  0  0  0  0  0  0
  -37.4942   57.3744   58.1017 C   0  0  0  0  0  0  0  0  0  0  0  0
  -36.1948   56.6736   57.6306 C   0  0  0  0  0  0  0  0  0  0  0  0
  -34.8955   57.4045   58.0436 C   0  0  0  0  0  0  0  0  0  0  0  0
  -33.8159   56.4649   58.6229 C   0  0  0  0  0  0  0  0  0  0  0  0
  -34.2390   55.7622   59.9184 C   0  0  0  0  0  0  0  0  0  0  0  0
  -33.4785   56.1651   61.1800 C   0  0  0  0  0  0  0  0  0  0  0  0
  -34.2640   57.1119   62.1088 C   0  0  0  0  0  0  0  0  0  0  0  0
  -33.6445   58.5046   62.3000 C   0  0  0  0  0  0  0  0  0  0  0  0
  -32.2629   58.5865   61.6446 C   0  0  0  0  0  0  0  0  0  0  0  0
  -31.4226   59.8029   61.9904 C   0  0  0  0  0  0  0  0  0  0  0  0
  -39.5920   60.1719   65.2120 C   0  0  0  0  0  0  0  0  0  0  0  0
  -38.8203   60.8095   64.1626 O   0  0  0  0  0  0  0  0  0  0  0  0
  -36.8866   61.3412   62.1242 O   0  0  0  0  0  0  0  0  0  0  0  0
  -35.8835   64.5172   64.6353 O   0  0  0  0  0  0  0  0  0  0  0  0
  -37.3124   62.0361   65.6142 O   0  0  0  0  0  0  0  0  0  0  0  0
  -37.4339   61.2597   64.3977 C   0  0  0  0  0  0  0  0  0  0  0  0
  -36.8012   62.1083   63.2854 C   0  0  0  0  0  0  0  0  0  0  0  0
  -35.3154   62.4487   63.5338 C   0  0  0  0  0  0  0  0  0  0  0  0
  -35.2735   63.2409   64.8112 C   0  0  0  0  0  0  0  0  0  0  0  0
  -35.9576   62.4630   65.9208 C   0  0  0  0  0  0  0  0  0  0  0  0
  -37.8146   61.1176   61.9520 H   0  0  0  0  0  0  0  0  0  0  0  0
  -35.4315   64.9962   63.9231 H   0  0  0  0  0  0  0  0  0  0  0  0
  -36.9556   64.2287   67.1859 O   0  0  0  0  0  0  0  0  0  0  0  0
  -35.8157   63.4278   67.0961 C   0  0  0  0  0  0  0  0  0  0  0  0
  -36.8629   64.8404   67.9330 H   0  0  0  0  0  0  0  0  0  0  0  0
  -34.6765   63.2702   62.5303 O   0  0  0  0  0  0  0  0  0  0  0  0
  -32.4537   63.6215   61.2447 O   0  0  0  0  0  0  0  0  0  0  0  0
  -32.4024   62.7444   63.5068 O   0  0  0  0  0  0  0  0  0  0  0  0
  -32.8542   65.0940   63.1201 O   0  0  0  0  0  0  0  0  0  0  0  0
  -33.0734   63.7147   62.5996 S   0  0  0  0  0  0  0  0  0  0  0  0
  -32.5865   62.7288   60.8891 H   0  0  0  0  0  0  0  0  0  0  0  0
  -33.2888   65.7335   62.5343 H   0  0  0  0  0  0  0  0  0  0  0  0
  2  1  1  0  0  0
  2  4  1  0  0  0
  2  5  1  0  0  0
 41 42  1  0  0  0
 41  1  1  0  0  0
 42 46  1  0  0  0
  1 24  1  0  0  0
 23 24  1  0  0  0
 23 25  1  0  0  0
 24 26  1  0  0  0
  3  4  2  0  0  0
 26 27  2  0  0  0
 27 28  1  0  0  0
 43 47  1  0  0  0
 43 51  1  0  0  0
 28 29  1  0  0  0
 56 48  1  0  0  0
 56 60  1  0  0  0
 29 30  1  0  0  0
 57 60  1  0  0  0
 57 61  1  0  0  0
 30 31  1  0  0  0
 44 49  1  0  0  0
 44 52  1  0  0  0
 31 32  1  0  0  0
 45 46  1  0  0  0
 45 50  1  0  0  0
 32 33  1  0  0  0
 53 54  1  0  0  0
 53 55  1  0  0  0
 33 34  1  0  0  0
 34 35  1  0  0  0
 35 36  1  0  0  0
 58 60  1  0  0  0
 36 37  1  0  0  0
 59 60  1  0  0  0
 59 62  1  0  0  0
 37 38  1  0  0  0
 38 39  1  0  0  0
 39 40  1  0  0  0
  4  6  1  0  0  0
  6  7  1  0  0  0
  7  8  1  0  0  0
  8  9  1  0  0  0
  9 10  1  0  0  0
 10 11  1  0  0  0
 11 12  1  0  0  0
 12 13  1  0  0  0
 13 14  1  0  0  0
 14 15  1  0  0  0
 15 16  1  0  0  0
 16 17  1  0  0  0
 17 18  1  0  0  0
 18 19  1  0  0  0
 19 20  1  0  0  0
 20 21  1  0  0  0
 21 22  1  0  0  0
 46 47  1  0  0  0
 47 48  1  0  0  0
 48 49  1  0  0  0
 49 50  1  0  0  0
 50 54  1  0  0  0
M  CHG 1  58  -1
M  END
> <minimizedAffinity>
-10.39968

> <CNNscore>
0.1955918968

> <CNNaffinity>
6.8053526878

> <CNN_VS>
1.3310718536

> <CNNaffinity_variance>
1.4287803173

$$$$
/media/chris/experiments/cd1a-new-docking/inputs/ligands/1onq_ligand.pdb


 62 62  0  0  0  0  0  0  0  0999 V2000
  -39.7382   59.2874   64.2462 C   0  0  0  0  0  0  0  0  0  0  0  0
  -39.2291   59.9430   65.4345 N   0  0  0  0  0  0  0  0  0  0  0  0
  -37.7111   61.1602   66.6014 O   0  0  0  0  0  0  0  0  0  0  0  0
  -38.0931   60.6406   65.5709 C   0  0  0  0  0  0  0  0  0  0  0  0
  -39.7873   59.8662   66.2418 H   0  0  0  0  0  0  0  0  0  0  0  0
  -37.2606   60.7528   64.3284 C   0  0  0  0  0  0  0  0  0  0  0  0
  -35.8679   60.2377   64.6917 C   0  0  0  0  0  0  0  0  0  0  0  0
  -35.7956   58.7288   64.4704 C   0  0  0  0  0  0  0  0  0  0  0  0
  -34.4149   58.1532   64.2687 C   0  0  0  0  0  0  0  0  0  0  0  0
  -33.8264   58.7949   63.0165 C   0  0  0  0  0  0  0  0  0  0  0  0
  -32.4047   58.3047   62.7113 C   0  0  0  0  0  0  0  0  0  0  0  0
  -31.6495   59.1599   61.6774 C   0  0  0  0  0  0  0  0  0  0  0  0
  -30.5536   60.0427   62.3139 C   0  0  0  0  0  0  0  0  0  0  0  0
  -30.6082   61.4641   61.7468 C   0  0  0  0  0  0  0  0  0  0  0  0
  -31.2318   62.5034   62.6705 C   0  0  0  0  0  0  0  0  0  0  0  0
  -32.7440   62.3620   62.7611 C   0  0  0  0  0  0  0  0  0  0  0  0
  -33.5605   63.5630   62.2784 C   0  0  0  0  0  0  0  0  0  0  0  0
  -34.9254   63.5119   62.9516 C   0  0  0  0  0  0  0  0  0  0  0  0
  -35.0085   63.7563   64.4512 C   0  0  0  0  0  0  0  0  0  0  0  0
  -34.3151   65.0736   64.8329 C   0  0  0  0  0  0  0  0  0  0  0  0
  -33.3874   64.9752   66.0581 C   0  0  0  0  0  0  0  0  0  0  0  0
  -31.9109   65.1572   65.7138 C   0  0  0  0  0  0  0  0  0  0  0  0
  -41.0754   61.1836   64.3567 O   0  0  0  0  0  0  0  0  0  0  0  0
  -41.1732   59.7820   64.1844 C   0  0  0  0  0  0  0  0  0  0  0  0
  -40.5543   61.5629   63.6318 H   0  0  0  0  0  0  0  0  0  0  0  0
  -41.9862   59.1193   65.2989 C   0  0  0  0  0  0  0  0  0  0  0  0
  -43.3297   59.0827   65.3022 C   0  0  0  0  0  0  0  0  0  0  0  0
  -44.0690   58.4022   66.4527 C   0  0  0  0  0  0  0  0  0  0  0  0
  -45.5593   58.7634   66.5342 C   0  0  0  0  0  0  0  0  0  0  0  0
  -46.1546   59.4242   65.2772 C   0  0  0  0  0  0  0  0  0  0  0  0
  -47.6936   59.5395   65.3939 C   0  0  0  0  0  0  0  0  0  0  0  0
  -48.4512   58.1924   65.5086 C   0  0  0  0  0  0  0  0  0  0  0  0
  -49.9468   58.2719   65.1217 C   0  0  0  0  0  0  0  0  0  0  0  0
  -50.2071   59.0627   63.8214 C   0  0  0  0  0  0  0  0  0  0  0  0
  -50.7716   58.2074   62.6807 C   0  0  0  0  0  0  0  0  0  0  0  0
  -49.7534   57.6693   61.6778 C   0  0  0  0  0  0  0  0  0  0  0  0
  -50.3190   57.4690   60.2579 C   0  0  0  0  0  0  0  0  0  0  0  0
  -49.3196   56.9257   59.2255 C   0  0  0  0  0  0  0  0  0  0  0  0
  -47.9711   57.6429   59.3353 C   0  0  0  0  0  0  0  0  0  0  0  0
  -47.0810   57.5994   58.1059 C   0  0  0  0  0  0  0  0  0  0  0  0
  -39.5208   57.7584   64.1845 C   0  0  0  0  0  0  0  0  0  0  0  0
  -39.0034   57.2270   62.9383 O   0  0  0  0  0  0  0  0  0  0  0  0
  -36.7049   56.6014   61.3564 O   0  0  0  0  0  0  0  0  0  0  0  0
  -38.8972   58.5037   58.3608 O   0  0  0  0  0  0  0  0  0  0  0  0
  -39.3819   58.9839   61.3087 O   0  0  0  0  0  0  0  0  0  0  0  0
  -38.4014   58.1111   61.9205 C   0  0  0  0  0  0  0  0  0  0  0  0
  -37.6727   57.4117   60.7639 C   0  0  0  0  0  0  0  0  0  0  0  0
  -36.9642   58.3860   59.7975 C   0  0  0  0  0  0  0  0  0  0  0  0
  -38.0417   59.2586   59.2154 C   0  0  0  0  0  0  0  0  0  0  0  0
  -38.8340   59.9115   60.3335 C   0  0  0  0  0  0  0  0  0  0  0  0
  -37.1324   55.9817   61.9679 H   0  0  0  0  0  0  0  0  0  0  0  0
  -38.3713   58.0962   57.6549 H   0  0  0  0  0  0  0  0  0  0  0  0
  -40.9718   59.9311   59.2642 O   0  0  0  0  0  0  0  0  0  0  0  0
  -39.8570   60.7240   59.5424 C   0  0  0  0  0  0  0  0  0  0  0  0
  -41.6199   60.4493   58.7618 H   0  0  0  0  0  0  0  0  0  0  0  0
  -36.2848   57.7824   58.6732 O   0  0  0  0  0  0  0  0  0  0  0  0
  -35.3851   55.3881   59.0917 O   0  0  0  0  0  0  0  0  0  0  0  0
  -34.1952   57.2920   60.0128 O   0  0  0  0  0  0  0  0  0  0  0  0
  -34.0565   56.7972   57.6442 O   0  0  0  0  0  0  0  0  0  0  0  0
  -34.9545   56.7941   58.8337 S   0  0  0  0  0  0  0  0  0  0  0  0
  -35.9715   55.3661   59.8641 H   0  0  0  0  0  0  0  0  0  0  0  0
  -34.5439   56.4738   56.8703 H   0  0  0  0  0  0  0  0  0  0  0  0
  2  1  1  0  0  0
  2  4  1  0  0  0
  2  5  1  0  0  0
 41 42  1  0  0  0
 41  1  1  0  0  0
 42 46  1  0  0  0
  1 24  1  0  0  0
 23 24  1  0  0  0
 23 25  1  0  0  0
 24 26  1  0  0  0
  3  4  2  0  0  0
 26 27  2  0  0  0
 27 28  1  0  0  0
 43 47  1  0  0  0
 43 51  1  0  0  0
 28 29  1  0  0  0
 56 48  1  0  0  0
 56 60  1  0  0  0
 29 30  1  0  0  0
 57 60  1  0  0  0
 57 61  1  0  0  0
 30 31  1  0  0  0
 44 49  1  0  0  0
 44 52  1  0  0  0
 31 32  1  0  0  0
 45 46  1  0  0  0
 45 50  1  0  0  0
 32 33  1  0  0  0
 53 54  1  0  0  0
 53 55  1  0  0  0
 33 34  1  0  0  0
 34 35  1  0  0  0
 35 36  1  0  0  0
 58 60  1  0  0  0
 36 37  1  0  0  0
 59 60  1  0  0  0
 59 62  1  0  0  0
 37 38  1  0  0  0
 38 39  1  0  0  0
 39 40  1  0  0  0
  4  6  1  0  0  0
  6  7  1  0  0  0
  7  8  1  0  0  0
  8  9  1  0  0  0
  9 10  1  0  0  0
 10 11  1  0  0  0
 11 12  1  0  0  0
 12 13  1  0  0  0
 13 14  1  0  0  0
 14 15  1  0  0  0
 15 16  1  0  0  0
 16 17  1  0  0  0
 17 18  1  0  0  0
 18 19  1  0  0  0
 19 20  1  0  0  0
 20 21  1  0  0  0
 21 22  1  0  0  0
 46 47  1  0  0  0
 47 48  1  0  0  0
 48 49  1  0  0  0
 49 50  1  0  0  0
 50 54  1  0  0  0
M  CHG 1  58  -1
M  END
> <minimizedAffinity>
-9.19748

> <CNNscore>
0.1865610629

> <CNNaffinity>
6.9710617065

> <CNN_VS>
1.3005286455

> <CNNaffinity_variance>
1.3104585409

$$$$
/media/chris/experiments/cd1a-new-docking/inputs/ligands/1onq_ligand.pdb


 62 62  0  0  0  0  0  0  0  0999 V2000
  -37.9765   59.5568   62.0882 C   0  0  0  0  0  0  0  0  0  0  0  0
  -37.1149   58.4657   62.4982 N   0  0  0  0  0  0  0  0  0  0  0  0
  -36.2590   56.9950   63.9989 O   0  0  0  0  0  0  0  0  0  0  0  0
  -37.0125   57.9044   63.7107 C   0  0  0  0  0  0  0  0  0  0  0  0
  -36.5323   58.0904   61.7990 H   0  0  0  0  0  0  0  0  0  0  0  0
  -37.9134   58.4847   64.7601 C   0  0  0  0  0  0  0  0  0  0  0  0
  -39.1591   57.5993   64.7997 C   0  0  0  0  0  0  0  0  0  0  0  0
  -40.3990   58.4286   64.4744 C   0  0  0  0  0  0  0  0  0  0  0  0
  -40.3546   59.8792   64.8893 C   0  0  0  0  0  0  0  0  0  0  0  0
  -41.3107   60.0519   66.0649 C   0  0  0  0  0  0  0  0  0  0  0  0
  -42.6558   59.3471   65.8436 C   0  0  0  0  0  0  0  0  0  0  0  0
  -43.0002   58.2927   66.9115 C   0  0  0  0  0  0  0  0  0  0  0  0
  -43.4134   56.9346   66.3031 C   0  0  0  0  0  0  0  0  0  0  0  0
  -44.5140   57.1247   65.2554 C   0  0  0  0  0  0  0  0  0  0  0  0
  -45.9336   56.9046   65.7640 C   0  0  0  0  0  0  0  0  0  0  0  0
  -46.5230   58.1590   66.3917 C   0  0  0  0  0  0  0  0  0  0  0  0
  -47.1831   59.1460   65.4262 C   0  0  0  0  0  0  0  0  0  0  0  0
  -47.5267   58.3999   64.1441 C   0  0  0  0  0  0  0  0  0  0  0  0
  -48.9922   58.2103   63.7811 C   0  0  0  0  0  0  0  0  0  0  0  0
  -49.8876   58.3393   65.0234 C   0  0  0  0  0  0  0  0  0  0  0  0
  -50.9255   59.4743   64.9474 C   0  0  0  0  0  0  0  0  0  0  0  0
  -51.3869   59.7765   63.5236 C   0  0  0  0  0  0  0  0  0  0  0  0
  -37.4802   60.5348   60.0405 O   0  0  0  0  0  0  0  0  0  0  0  0
  -38.0614   59.3641   60.5838 C   0  0  0  0  0  0  0  0  0  0  0  0
  -36.5543   60.5971   60.3229 H   0  0  0  0  0  0  0  0  0  0  0  0
  -39.5277   59.2051   60.1750 C   0  0  0  0  0  0  0  0  0  0  0  0
  -40.1301   60.0098   59.2829 C   0  0  0  0  0  0  0  0  0  0  0  0
  -41.5990   59.7865   58.9280 C   0  0  0  0  0  0  0  0  0  0  0  0
  -41.8125   59.0706   57.5863 C   0  0  0  0  0  0  0  0  0  0  0  0
  -43.2774   58.9235   57.1350 C   0  0  0  0  0  0  0  0  0  0  0  0
  -44.1326   58.2733   58.2491 C   0  0  0  0  0  0  0  0  0  0  0  0
  -45.6503   58.1813   57.9495 C   0  0  0  0  0  0  0  0  0  0  0  0
  -46.0134   57.1932   56.8160 C   0  0  0  0  0  0  0  0  0  0  0  0
  -47.5216   56.8725   56.7361 C   0  0  0  0  0  0  0  0  0  0  0  0
  -47.8919   55.4978   57.3056 C   0  0  0  0  0  0  0  0  0  0  0  0
  -47.6079   55.2880   58.7914 C   0  0  0  0  0  0  0  0  0  0  0  0
  -48.7429   55.7649   59.7190 C   0  0  0  0  0  0  0  0  0  0  0  0
  -48.8558   57.2878   59.8861 C   0  0  0  0  0  0  0  0  0  0  0  0
  -50.3204   57.7350   59.8765 C   0  0  0  0  0  0  0  0  0  0  0  0
  -51.1854   57.2384   61.0213 C   0  0  0  0  0  0  0  0  0  0  0  0
  -37.5626   60.9578   62.5929 C   0  0  0  0  0  0  0  0  0  0  0  0
  -36.2050   61.0948   63.0842 O   0  0  0  0  0  0  0  0  0  0  0  0
  -36.6271   63.1184   65.0599 O   0  0  0  0  0  0  0  0  0  0  0  0
  -32.5024   63.6114   64.6818 O   0  0  0  0  0  0  0  0  0  0  0  0
  -34.2128   62.3599   62.5222 O   0  0  0  0  0  0  0  0  0  0  0  0
  -35.5320   62.4085   63.1178 C   0  0  0  0  0  0  0  0  0  0  0  0
  -35.3500   63.0392   64.5059 C   0  0  0  0  0  0  0  0  0  0  0  0
  -34.7488   64.4613   64.4673 C   0  0  0  0  0  0  0  0  0  0  0  0
  -33.3934   64.3275   63.8301 C   0  0  0  0  0  0  0  0  0  0  0  0
  -33.5243   63.6390   62.4836 C   0  0  0  0  0  0  0  0  0  0  0  0
  -37.0210   62.2327   65.0923 H   0  0  0  0  0  0  0  0  0  0  0  0
  -32.4336   64.0680   65.5349 H   0  0  0  0  0  0  0  0  0  0  0  0
  -31.4995   62.3725   62.3849 O   0  0  0  0  0  0  0  0  0  0  0  0
  -32.0682   63.5955   62.0251 C   0  0  0  0  0  0  0  0  0  0  0  0
  -30.5749   62.3474   62.0927 H   0  0  0  0  0  0  0  0  0  0  0  0
  -34.5297   65.0924   65.7493 O   0  0  0  0  0  0  0  0  0  0  0  0
  -34.0785   65.0716   68.3014 O   0  0  0  0  0  0  0  0  0  0  0  0
  -34.0666   62.9826   67.0665 O   0  0  0  0  0  0  0  0  0  0  0  0
  -36.1633   64.0887   67.5710 O   0  0  0  0  0  0  0  0  0  0  0  0
  -34.7356   64.3050   67.2017 S   0  0  0  0  0  0  0  0  0  0  0  0
  -33.1466   65.2222   68.0784 H   0  0  0  0  0  0  0  0  0  0  0  0
  -36.6074   64.9463   67.6612 H   0  0  0  0  0  0  0  0  0  0  0  0
  2  1  1  0  0  0
  2  4  1  0  0  0
  2  5  1  0  0  0
 41 42  1  0  0  0
 41  1  1  0  0  0
 42 46  1  0  0  0
  1 24  1  0  0  0
 23 24  1  0  0  0
 23 25  1  0  0  0
 24 26  1  0  0  0
  3  4  2  0  0  0
 26 27  2  0  0  0
 27 28  1  0  0  0
 43 47  1  0  0  0
 43 51  1  0  0  0
 28 29  1  0  0  0
 56 48  1  0  0  0
 56 60  1  0  0  0
 29 30  1  0  0  0
 57 60  1  0  0  0
 57 61  1  0  0  0
 30 31  1  0  0  0
 44 49  1  0  0  0
 44 52  1  0  0  0
 31 32  1  0  0  0
 45 46  1  0  0  0
 45 50  1  0  0  0
 32 33  1  0  0  0
 53 54  1  0  0  0
 53 55  1  0  0  0
 33 34  1  0  0  0
 34 35  1  0  0  0
 35 36  1  0  0  0
 58 60  1  0  0  0
 36 37  1  0  0  0
 59 60  1  0  0  0
 59 62  1  0  0  0
 37 38  1  0  0  0
 38 39  1  0  0  0
 39 40  1  0  0  0
  4  6  1  0  0  0
  6  7  1  0  0  0
  7  8  1  0  0  0
  8  9  1  0  0  0
  9 10  1  0  0  0
 10 11  1  0  0  0
 11 12  1  0  0  0
 12 13  1  0  0  0
 13 14  1  0  0  0
 14 15  1  0  0  0
 15 16  1  0  0  0
 16 17  1  0  0  0
 17 18  1  0  0  0
 18 19  1  0  0  0
 19 20  1  0  0  0
 20 21  1  0  0  0
 21 22  1  0  0  0
 46 47  1  0  0  0
 47 48  1  0  0  0
 48 49  1  0  0  0
 49 50  1  0  0  0
 50 54  1  0  0  0
M  CHG 1  58  -1
M  END
> <minimizedAffinity>
-8.90381

> <CNNscore>
0.1816697568

> <CNNaffinity>
6.7141571045

> <CNN_VS>
1.2197593451

> <CNNaffinity_variance>
0.9596832395

$$$$
