/media/chris/experiments/cd1a-new-docking/inputs/ligands/1onq_ligand.pdb


 62 62  0  0  0  0  0  0  0  0999 V2000
  -40.3724   59.6210   63.8082 C   0  0  0  0  0  0  0  0  0  0  0  0
  -40.6116   60.2643   62.5315 N   0  0  0  0  0  0  0  0  0  0  0  0
  -40.2447   60.6070   60.3189 O   0  0  0  0  0  0  0  0  0  0  0  0
  -40.0089   60.0236   61.3591 C   0  0  0  0  0  0  0  0  0  0  0  0
  -41.3029   60.9653   62.5248 H   0  0  0  0  0  0  0  0  0  0  0  0
  -38.9647   58.9472   61.3881 C   0  0  0  0  0  0  0  0  0  0  0  0
  -38.2890   58.9621   60.0167 C   0  0  0  0  0  0  0  0  0  0  0  0
  -36.9768   58.1837   60.0734 C   0  0  0  0  0  0  0  0  0  0  0  0
  -37.0724   56.7017   59.8029 C   0  0  0  0  0  0  0  0  0  0  0  0
  -36.2689   56.4110   58.5397 C   0  0  0  0  0  0  0  0  0  0  0  0
  -34.8088   56.8712   58.6465 C   0  0  0  0  0  0  0  0  0  0  0  0
  -33.8664   55.8391   59.2922 C   0  0  0  0  0  0  0  0  0  0  0  0
  -33.7349   56.0197   60.8204 C   0  0  0  0  0  0  0  0  0  0  0  0
  -33.6857   57.5059   61.1863 C   0  0  0  0  0  0  0  0  0  0  0  0
  -33.4271   57.7995   62.6590 C   0  0  0  0  0  0  0  0  0  0  0  0
  -32.1543   58.6054   62.8723 C   0  0  0  0  0  0  0  0  0  0  0  0
  -31.7357   59.5172   61.7165 C   0  0  0  0  0  0  0  0  0  0  0  0
  -30.3035   59.9715   61.9637 C   0  0  0  0  0  0  0  0  0  0  0  0
  -29.9793   61.4540   61.8533 C   0  0  0  0  0  0  0  0  0  0  0  0
  -30.0089   62.1276   63.2346 C   0  0  0  0  0  0  0  0  0  0  0  0
  -29.9777   63.6665   63.1953 C   0  0  0  0  0  0  0  0  0  0  0  0
  -29.6236   64.2286   61.8205 C   0  0  0  0  0  0  0  0  0  0  0  0
  -40.8246   60.8990   65.6945 O   0  0  0  0  0  0  0  0  0  0  0  0
  -41.4895   60.1779   64.6739 C   0  0  0  0  0  0  0  0  0  0  0  0
  -40.3106   61.6200   65.2986 H   0  0  0  0  0  0  0  0  0  0  0  0
  -42.3219   59.0217   65.2331 C   0  0  0  0  0  0  0  0  0  0  0  0
  -43.6649   58.9978   65.1879 C   0  0  0  0  0  0  0  0  0  0  0  0
  -44.4241   57.8066   65.7694 C   0  0  0  0  0  0  0  0  0  0  0  0
  -45.9452   57.8832   65.5734 C   0  0  0  0  0  0  0  0  0  0  0  0
  -46.6363   59.1115   66.1940 C   0  0  0  0  0  0  0  0  0  0  0  0
  -47.4201   59.9022   65.1190 C   0  0  0  0  0  0  0  0  0  0  0  0
  -48.0588   59.0420   63.9993 C   0  0  0  0  0  0  0  0  0  0  0  0
  -49.5287   59.4046   63.6825 C   0  0  0  0  0  0  0  0  0  0  0  0
  -49.9183   59.1705   62.2068 C   0  0  0  0  0  0  0  0  0  0  0  0
  -50.9028   58.0125   62.0041 C   0  0  0  0  0  0  0  0  0  0  0  0
  -50.5498   57.0165   60.9015 C   0  0  0  0  0  0  0  0  0  0  0  0
  -50.2174   57.6737   59.5473 C   0  0  0  0  0  0  0  0  0  0  0  0
  -49.1014   56.9893   58.7438 C   0  0  0  0  0  0  0  0  0  0  0  0
  -47.7286   57.5579   59.1147 C   0  0  0  0  0  0  0  0  0  0  0  0
  -46.7740   57.8222   57.9639 C   0  0  0  0  0  0  0  0  0  0  0  0
  -38.9327   59.7450   64.3567 C   0  0  0  0  0  0  0  0  0  0  0  0
  -38.3119   61.0519   64.2584 O   0  0  0  0  0  0  0  0  0  0  0  0
  -35.8117   60.7434   62.9052 O   0  0  0  0  0  0  0  0  0  0  0  0
  -34.8549   64.2342   64.9784 O   0  0  0  0  0  0  0  0  0  0  0  0
  -37.0359   62.3370   65.8726 O   0  0  0  0  0  0  0  0  0  0  0  0
  -36.9840   61.3149   64.8479 C   0  0  0  0  0  0  0  0  0  0  0  0
  -35.8839   61.7487   63.8686 C   0  0  0  0  0  0  0  0  0  0  0  0
  -34.4925   61.8939   64.5232 C   0  0  0  0  0  0  0  0  0  0  0  0
  -34.6321   62.9591   65.5755 C   0  0  0  0  0  0  0  0  0  0  0  0
  -35.7631   62.6005   66.5224 C   0  0  0  0  0  0  0  0  0  0  0  0
  -36.6784   60.6379   62.4825 H   0  0  0  0  0  0  0  0  0  0  0  0
  -34.1218   64.4428   64.3784 H   0  0  0  0  0  0  0  0  0  0  0  0
  -34.4194   64.1510   67.7488 O   0  0  0  0  0  0  0  0  0  0  0  0
  -35.7408   63.7891   67.4811 C   0  0  0  0  0  0  0  0  0  0  0  0
  -34.4080   64.9059   68.3579 H   0  0  0  0  0  0  0  0  0  0  0  0
  -33.4237   62.3277   63.6518 O   0  0  0  0  0  0  0  0  0  0  0  0
  -32.8312   63.1147   61.2547 O   0  0  0  0  0  0  0  0  0  0  0  0
  -33.0959   64.7561   63.0224 O   0  0  0  0  0  0  0  0  0  0  0  0
  -35.0411   63.6809   62.0558 O   0  0  0  0  0  0  0  0  0  0  0  0
  -33.6226   63.4800   62.4667 S   0  0  0  0  0  0  0  0  0  0  0  0
  -31.9033   62.9798   61.5029 H   0  0  0  0  0  0  0  0  0  0  0  0
  -35.3927   62.8532   61.6922 H   0  0  0  0  0  0  0  0  0  0  0  0
  2  1  1  0  0  0
  2  4  1  0  0  0
  2  5  1  0  0  0
 41 42  1  0  0  0
 41  1  1  0  0  0
 42 46  1  0  0  0
  1 24  1  0  0  0
 23 24  1  0  0  0
 23 25  1  0  0  0
 24 26  1  0  0  0
  3  4  2  0  0  0
 26 27  2  0  0  0
 27 28  1  0  0  0
 43 47  1  0  0  0
 43 51  1  0  0  0
 28 29  1  0  0  0
 56 48  1  0  0  0
 56 60  1  0  0  0
 29 30  1  0  0  0
 57 60  1  0  0  0
 57 61  1  0  0  0
 30 31  1  0  0  0
 44 49  1  0  0  0
 44 52  1  0  0  0
 31 32  1  0  0  0
 45 46  1  0  0  0
 45 50  1  0  0  0
 32 33  1  0  0  0
 53 54  1  0  0  0
 53 55  1  0  0  0
 33 34  1  0  0  0
 34 35  1  0  0  0
 35 36  1  0  0  0
 58 60  1  0  0  0
 36 37  1  0  0  0
 59 60  1  0  0  0
 59 62  1  0  0  0
 37 38  1  0  0  0
 38 39  1  0  0  0
 39 40  1  0  0  0
  4  6  1  0  0  0
  6  7  1  0  0  0
  7  8  1  0  0  0
  8  9  1  0  0  0
  9 10  1  0  0  0
 10 11  1  0  0  0
 11 12  1  0  0  0
 12 13  1  0  0  0
 13 14  1  0  0  0
 14 15  1  0  0  0
 15 16  1  0  0  0
 16 17  1  0  0  0
 17 18  1  0  0  0
 18 19  1  0  0  0
 19 20  1  0  0  0
 20 21  1  0  0  0
 21 22  1  0  0  0
 46 47  1  0  0  0
 47 48  1  0  0  0
 48 49  1  0  0  0
 49 50  1  0  0  0
 50 54  1  0  0  0
M  CHG 1  58  -1
M  END
> <minimizedAffinity>
-9.55392

> <CNNscore>
0.4950758517

> <CNNaffinity>
7.2720198631

> <CNN_VS>
3.6002013683

> <CNNaffinity_variance>
0.5900526047

$$$$
/media/chris/experiments/cd1a-new-docking/inputs/ligands/1onq_ligand.pdb


 62 62  0  0  0  0  0  0  0  0999 V2000
  -40.1806   59.1000   64.8588 C   0  0  0  0  0  0  0  0  0  0  0  0
  -39.7366   58.3969   63.6716 N   0  0  0  0  0  0  0  0  0  0  0  0
  -38.3256   57.0626   62.4984 O   0  0  0  0  0  0  0  0  0  0  0  0
  -38.6547   57.6194   63.5278 C   0  0  0  0  0  0  0  0  0  0  0  0
  -40.3000   58.5038   62.8713 H   0  0  0  0  0  0  0  0  0  0  0  0
  -37.8139   57.4626   64.7599 C   0  0  0  0  0  0  0  0  0  0  0  0
  -36.4001   57.1326   64.2805 C   0  0  0  0  0  0  0  0  0  0  0  0
  -35.5351   58.3904   64.3025 C   0  0  0  0  0  0  0  0  0  0  0  0
  -34.0672   58.1914   64.0121 C   0  0  0  0  0  0  0  0  0  0  0  0
  -33.7357   58.9818   62.7507 C   0  0  0  0  0  0  0  0  0  0  0  0
  -32.9053   58.1731   61.7451 C   0  0  0  0  0  0  0  0  0  0  0  0
  -33.2430   56.6713   61.7094 C   0  0  0  0  0  0  0  0  0  0  0  0
  -34.5742   56.3724   60.9855 C   0  0  0  0  0  0  0  0  0  0  0  0
  -34.3292   55.5284   59.7314 C   0  0  0  0  0  0  0  0  0  0  0  0
  -33.7801   56.2954   58.5347 C   0  0  0  0  0  0  0  0  0  0  0  0
  -34.8181   57.2198   57.9157 C   0  0  0  0  0  0  0  0  0  0  0  0
  -36.2016   56.6107   57.6763 C   0  0  0  0  0  0  0  0  0  0  0  0
  -37.2500   57.6494   58.0515 C   0  0  0  0  0  0  0  0  0  0  0  0
  -37.1615   58.3146   59.4170 C   0  0  0  0  0  0  0  0  0  0  0  0
  -37.9800   59.6151   59.4492 C   0  0  0  0  0  0  0  0  0  0  0  0
  -39.2050   59.5758   60.3812 C   0  0  0  0  0  0  0  0  0  0  0  0
  -40.3977   60.3639   59.8449 C   0  0  0  0  0  0  0  0  0  0  0  0
  -41.3427   61.0453   64.3478 O   0  0  0  0  0  0  0  0  0  0  0  0
  -41.5333   59.6453   64.4341 C   0  0  0  0  0  0  0  0  0  0  0  0
  -40.6721   61.2394   63.6744 H   0  0  0  0  0  0  0  0  0  0  0  0
  -42.5832   59.2697   65.4825 C   0  0  0  0  0  0  0  0  0  0  0  0
  -43.8723   59.0419   65.1783 C   0  0  0  0  0  0  0  0  0  0  0  0
  -44.8602   58.6722   66.2832 C   0  0  0  0  0  0  0  0  0  0  0  0
  -46.3331   58.7815   65.8624 C   0  0  0  0  0  0  0  0  0  0  0  0
  -47.1493   57.4786   65.9480 C   0  0  0  0  0  0  0  0  0  0  0  0
  -48.6652   57.7721   65.8423 C   0  0  0  0  0  0  0  0  0  0  0  0
  -49.1083   58.5077   64.5523 C   0  0  0  0  0  0  0  0  0  0  0  0
  -50.6258   58.7983   64.4784 C   0  0  0  0  0  0  0  0  0  0  0  0
  -51.1514   58.9743   63.0372 C   0  0  0  0  0  0  0  0  0  0  0  0
  -50.2131   58.4091   61.9642 C   0  0  0  0  0  0  0  0  0  0  0  0
  -50.8284   57.3972   60.9998 C   0  0  0  0  0  0  0  0  0  0  0  0
  -49.7927   56.6176   60.1657 C   0  0  0  0  0  0  0  0  0  0  0  0
  -49.5593   57.1531   58.7450 C   0  0  0  0  0  0  0  0  0  0  0  0
  -48.3556   56.4691   58.0903 C   0  0  0  0  0  0  0  0  0  0  0  0
  -47.1963   57.3695   57.7018 C   0  0  0  0  0  0  0  0  0  0  0  0
  -39.1719   60.1109   65.4502 C   0  0  0  0  0  0  0  0  0  0  0  0
  -38.5775   61.0524   64.5210 O   0  0  0  0  0  0  0  0  0  0  0  0
  -36.6951   61.2890   62.3813 O   0  0  0  0  0  0  0  0  0  0  0  0
  -35.5313   64.7013   64.4791 O   0  0  0  0  0  0  0  0  0  0  0  0
  -36.9934   62.3925   65.7780 O   0  0  0  0  0  0  0  0  0  0  0  0
  -37.1731   61.4853   64.6634 C   0  0  0  0  0  0  0  0  0  0  0  0
  -36.5536   62.1814   63.4431 C   0  0  0  0  0  0  0  0  0  0  0  0
  -35.0522   62.5040   63.6088 C   0  0  0  0  0  0  0  0  0  0  0  0
  -34.9496   63.4361   64.7844 C   0  0  0  0  0  0  0  0  0  0  0  0
  -35.6190   62.8114   65.9952 C   0  0  0  0  0  0  0  0  0  0  0  0
  -37.6336   61.0745   62.2622 H   0  0  0  0  0  0  0  0  0  0  0  0
  -35.0895   65.0817   63.7039 H   0  0  0  0  0  0  0  0  0  0  0  0
  -36.4215   63.8156   68.0105 O   0  0  0  0  0  0  0  0  0  0  0  0
  -35.4153   63.9002   67.0465 C   0  0  0  0  0  0  0  0  0  0  0  0
  -36.2899   64.5081   68.6769 H   0  0  0  0  0  0  0  0  0  0  0  0
  -34.4236   63.1855   62.4996 O   0  0  0  0  0  0  0  0  0  0  0  0
  -32.2754   63.7237   61.1535 O   0  0  0  0  0  0  0  0  0  0  0  0
  -32.0876   62.7560   63.3711 O   0  0  0  0  0  0  0  0  0  0  0  0
  -32.6900   65.0886   63.1057 O   0  0  0  0  0  0  0  0  0  0  0  0
  -32.8479   63.7220   62.5323 S   0  0  0  0  0  0  0  0  0  0  0  0
  -32.3691   62.8406   60.7633 H   0  0  0  0  0  0  0  0  0  0  0  0
  -33.1829   65.7251   62.5646 H   0  0  0  0  0  0  0  0  0  0  0  0
  2  1  1  0  0  0
  2  4  1  0  0  0
  2  5  1  0  0  0
 41 42  1  0  0  0
 41  1  1  0  0  0
 42 46  1  0  0  0
  1 24  1  0  0  0
 23 24  1  0  0  0
 23 25  1  0  0  0
 24 26  1  0  0  0
  3  4  2  0  0  0
 26 27  2  0  0  0
 27 28  1  0  0  0
 43 47  1  0  0  0
 43 51  1  0  0  0
 28 29  1  0  0  0
 56 48  1  0  0  0
 56 60  1  0  0  0
 29 30  1  0  0  0
 57 60  1  0  0  0
 57 61  1  0  0  0
 30 31  1  0  0  0
 44 49  1  0  0  0
 44 52  1  0  0  0
 31 32  1  0  0  0
 45 46  1  0  0  0
 45 50  1  0  0  0
 32 33  1  0  0  0
 53 54  1  0  0  0
 53 55  1  0  0  0
 33 34  1  0  0  0
 34 35  1  0  0  0
 35 36  1  0  0  0
 58 60  1  0  0  0
 36 37  1  0  0  0
 59 60  1  0  0  0
 59 62  1  0  0  0
 37 38  1  0  0  0
 38 39  1  0  0  0
 39 40  1  0  0  0
  4  6  1  0  0  0
  6  7  1  0  0  0
  7  8  1  0  0  0
  8  9  1  0  0  0
  9 10  1  0  0  0
 10 11  1  0  0  0
 11 12  1  0  0  0
 12 13  1  0  0  0
 13 14  1  0  0  0
 14 15  1  0  0  0
 15 16  1  0  0  0
 16 17  1  0  0  0
 17 18  1  0  0  0
 18 19  1  0  0  0
 19 20  1  0  0  0
 20 21  1  0  0  0
 21 22  1  0  0  0
 46 47  1  0  0  0
 47 48  1  0  0  0
 48 49  1  0  0  0
 49 50  1  0  0  0
 50 54  1  0  0  0
M  CHG 1  58  -1
M  END
> <minimizedAffinity>
-10.25641

> <CNNscore>
0.4905973971

> <CNNaffinity>
7.4682097435

> <CNN_VS>
3.6638841629

> <CNNaffinity_variance>
1.0742571354

$$$$
/media/chris/experiments/cd1a-new-docking/inputs/ligands/1onq_ligand.pdb


 62 62  0  0  0  0  0  0  0  0999 V2000
  -38.3614   59.4643   63.8119 C   0  0  0  0  0  0  0  0  0  0  0  0
  -39.6517   60.1204   63.7354 N   0  0  0  0  0  0  0  0  0  0  0  0
  -41.7260   60.6376   64.4954 O   0  0  0  0  0  0  0  0  0  0  0  0
  -40.6567   60.0728   64.6205 C   0  0  0  0  0  0  0  0  0  0  0  0
  -39.8093   60.6692   62.9333 H   0  0  0  0  0  0  0  0  0  0  0  0
  -40.3944   59.2383   65.8389 C   0  0  0  0  0  0  0  0  0  0  0  0
  -41.7433   59.0490   66.5330 C   0  0  0  0  0  0  0  0  0  0  0  0
  -42.3379   57.6940   66.1568 C   0  0  0  0  0  0  0  0  0  0  0  0
  -43.8280   57.6668   65.9172 C   0  0  0  0  0  0  0  0  0  0  0  0
  -44.3646   59.0676   66.1921 C   0  0  0  0  0  0  0  0  0  0  0  0
  -45.4784   59.4776   65.2193 C   0  0  0  0  0  0  0  0  0  0  0  0
  -46.6943   58.5331   65.2163 C   0  0  0  0  0  0  0  0  0  0  0  0
  -48.0412   59.2886   65.1898 C   0  0  0  0  0  0  0  0  0  0  0  0
  -49.1242   58.4873   65.9178 C   0  0  0  0  0  0  0  0  0  0  0  0
  -50.4476   58.3657   65.1722 C   0  0  0  0  0  0  0  0  0  0  0  0
  -50.6079   59.4356   64.1023 C   0  0  0  0  0  0  0  0  0  0  0  0
  -51.3460   59.0084   62.8314 C   0  0  0  0  0  0  0  0  0  0  0  0
  -50.4083   58.1369   62.0069 C   0  0  0  0  0  0  0  0  0  0  0  0
  -50.9898   57.3193   60.8630 C   0  0  0  0  0  0  0  0  0  0  0  0
  -50.1847   57.5310   59.5710 C   0  0  0  0  0  0  0  0  0  0  0  0
  -49.0018   56.5621   59.3897 C   0  0  0  0  0  0  0  0  0  0  0  0
  -47.6456   57.2054   59.6697 C   0  0  0  0  0  0  0  0  0  0  0  0
  -37.8848   57.4135   64.7931 O   0  0  0  0  0  0  0  0  0  0  0  0
  -38.7384   57.9929   63.8239 C   0  0  0  0  0  0  0  0  0  0  0  0
  -38.0587   57.8153   65.6586 H   0  0  0  0  0  0  0  0  0  0  0  0
  -38.5145   57.4008   62.4304 C   0  0  0  0  0  0  0  0  0  0  0  0
  -37.6128   57.8916   61.5630 C   0  0  0  0  0  0  0  0  0  0  0  0
  -37.4494   57.2447   60.1889 C   0  0  0  0  0  0  0  0  0  0  0  0
  -37.6401   58.2183   59.0167 C   0  0  0  0  0  0  0  0  0  0  0  0
  -36.8568   57.8800   57.7349 C   0  0  0  0  0  0  0  0  0  0  0  0
  -35.9838   56.6188   57.9413 C   0  0  0  0  0  0  0  0  0  0  0  0
  -34.4621   56.8263   57.7343 C   0  0  0  0  0  0  0  0  0  0  0  0
  -33.6626   57.0036   59.0465 C   0  0  0  0  0  0  0  0  0  0  0  0
  -34.0959   56.0362   60.1692 C   0  0  0  0  0  0  0  0  0  0  0  0
  -33.9963   56.6383   61.5760 C   0  0  0  0  0  0  0  0  0  0  0  0
  -32.5893   56.7537   62.1587 C   0  0  0  0  0  0  0  0  0  0  0  0
  -32.2438   58.1603   62.6861 C   0  0  0  0  0  0  0  0  0  0  0  0
  -31.6117   59.1088   61.6562 C   0  0  0  0  0  0  0  0  0  0  0  0
  -30.7309   60.1572   62.3420 C   0  0  0  0  0  0  0  0  0  0  0  0
  -30.3041   61.3408   61.4921 C   0  0  0  0  0  0  0  0  0  0  0  0
  -37.4295   59.9581   64.9418 C   0  0  0  0  0  0  0  0  0  0  0  0
  -36.0051   59.9136   64.6730 O   0  0  0  0  0  0  0  0  0  0  0  0
  -34.0419   61.0987   62.9645 O   0  0  0  0  0  0  0  0  0  0  0  0
  -35.4035   64.6287   64.7208 O   0  0  0  0  0  0  0  0  0  0  0  0
  -35.7326   61.9146   66.0173 O   0  0  0  0  0  0  0  0  0  0  0  0
  -35.1214   61.0383   65.0396 C   0  0  0  0  0  0  0  0  0  0  0  0
  -34.6630   61.9413   63.8855 C   0  0  0  0  0  0  0  0  0  0  0  0
  -33.6490   63.0257   64.3114 C   0  0  0  0  0  0  0  0  0  0  0  0
  -34.3518   63.8823   65.3282 C   0  0  0  0  0  0  0  0  0  0  0  0
  -34.8854   63.0124   66.4519 C   0  0  0  0  0  0  0  0  0  0  0  0
  -34.6651   60.4098   62.6851 H   0  0  0  0  0  0  0  0  0  0  0  0
  -35.0409   65.1763   64.0069 H   0  0  0  0  0  0  0  0  0  0  0  0
  -36.9250   64.0888   67.0806 O   0  0  0  0  0  0  0  0  0  0  0  0
  -35.5549   64.0536   67.3462 C   0  0  0  0  0  0  0  0  0  0  0  0
  -37.3478   64.7508   67.6497 H   0  0  0  0  0  0  0  0  0  0  0  0
  -33.2043   63.9229   63.2687 O   0  0  0  0  0  0  0  0  0  0  0  0
  -32.3450   66.3610   63.4525 O   0  0  0  0  0  0  0  0  0  0  0  0
  -31.0330   64.7174   62.2415 O   0  0  0  0  0  0  0  0  0  0  0  0
  -31.0913   64.6859   64.6643 O   0  0  0  0  0  0  0  0  0  0  0  0
  -31.8949   64.9377   63.4345 S   0  0  0  0  0  0  0  0  0  0  0  0
  -32.8705   66.5441   62.6581 H   0  0  0  0  0  0  0  0  0  0  0  0
  -31.6459   64.8272   65.4474 H   0  0  0  0  0  0  0  0  0  0  0  0
  2  1  1  0  0  0
  2  4  1  0  0  0
  2  5  1  0  0  0
 41 42  1  0  0  0
 41  1  1  0  0  0
 42 46  1  0  0  0
  1 24  1  0  0  0
 23 24  1  0  0  0
 23 25  1  0  0  0
 24 26  1  0  0  0
  3  4  2  0  0  0
 26 27  2  0  0  0
 27 28  1  0  0  0
 43 47  1  0  0  0
 43 51  1  0  0  0
 28 29  1  0  0  0
 56 48  1  0  0  0
 56 60  1  0  0  0
 29 30  1  0  0  0
 57 60  1  0  0  0
 57 61  1  0  0  0
 30 31  1  0  0  0
 44 49  1  0  0  0
 44 52  1  0  0  0
 31 32  1  0  0  0
 45 46  1  0  0  0
 45 50  1  0  0  0
 32 33  1  0  0  0
 53 54  1  0  0  0
 53 55  1  0  0  0
 33 34  1  0  0  0
 34 35  1  0  0  0
 35 36  1  0  0  0
 58 60  1  0  0  0
 36 37  1  0  0  0
 59 60  1  0  0  0
 59 62  1  0  0  0
 37 38  1  0  0  0
 38 39  1  0  0  0
 39 40  1  0  0  0
  4  6  1  0  0  0
  6  7  1  0  0  0
  7  8  1  0  0  0
  8  9  1  0  0  0
  9 10  1  0  0  0
 10 11  1  0  0  0
 11 12  1  0  0  0
 12 13  1  0  0  0
 13 14  1  0  0  0
 14 15  1  0  0  0
 15 16  1  0  0  0
 16 17  1  0  0  0
 17 18  1  0  0  0
 18 19  1  0  0  0
 19 20  1  0  0  0
 20 21  1  0  0  0
 21 22  1  0  0  0
 46 47  1  0  0  0
 47 48  1  0  0  0
 48 49  1  0  0  0
 49 50  1  0  0  0
 50 54  1  0  0  0
M  CHG 1  58  -1
M  END
> <minimizedAffinity>
-9.80439

> <CNNscore>
0.3631987870

> <CNNaffinity>
6.9710741043

> <CNN_VS>
2.5318856239

> <CNNaffinity_variance>
0.9925699234

$$$$
/media/chris/experiments/cd1a-new-docking/inputs/ligands/1onq_ligand.pdb


 62 62  0  0  0  0  0  0  0  0999 V2000
  -40.2725   59.2193   65.5809 C   0  0  0  0  0  0  0  0  0  0  0  0
  -39.6597   58.0343   65.0141 N   0  0  0  0  0  0  0  0  0  0  0  0
  -38.7947   56.7954   63.3215 O   0  0  0  0  0  0  0  0  0  0  0  0
  -39.2960   57.8199   63.7422 C   0  0  0  0  0  0  0  0  0  0  0  0
  -39.4895   57.2950   65.6415 H   0  0  0  0  0  0  0  0  0  0  0  0
  -39.5562   58.9607   62.8037 C   0  0  0  0  0  0  0  0  0  0  0  0
  -38.5633   58.8085   61.6512 C   0  0  0  0  0  0  0  0  0  0  0  0
  -38.9759   59.7043   60.4857 C   0  0  0  0  0  0  0  0  0  0  0  0
  -38.5634   59.2366   59.1110 C   0  0  0  0  0  0  0  0  0  0  0  0
  -37.3350   58.3481   59.2759 C   0  0  0  0  0  0  0  0  0  0  0  0
  -36.6110   58.0848   57.9487 C   0  0  0  0  0  0  0  0  0  0  0  0
  -36.1124   56.6383   57.7768 C   0  0  0  0  0  0  0  0  0  0  0  0
  -36.5945   55.6991   58.9041 C   0  0  0  0  0  0  0  0  0  0  0  0
  -35.4044   55.0162   59.5840 C   0  0  0  0  0  0  0  0  0  0  0  0
  -34.0624   55.7102   59.3849 C   0  0  0  0  0  0  0  0  0  0  0  0
  -33.7326   56.6664   60.5215 C   0  0  0  0  0  0  0  0  0  0  0  0
  -34.6973   56.6547   61.7096 C   0  0  0  0  0  0  0  0  0  0  0  0
  -34.7954   58.0724   62.2566 C   0  0  0  0  0  0  0  0  0  0  0  0
  -33.8205   58.5045   63.3419 C   0  0  0  0  0  0  0  0  0  0  0  0
  -32.3782   58.5196   62.8111 C   0  0  0  0  0  0  0  0  0  0  0  0
  -31.9956   59.7949   62.0377 C   0  0  0  0  0  0  0  0  0  0  0  0
  -30.5022   60.1081   62.0902 C   0  0  0  0  0  0  0  0  0  0  0  0
  -41.4691   60.7760   64.3397 O   0  0  0  0  0  0  0  0  0  0  0  0
  -41.4991   59.4088   64.7051 C   0  0  0  0  0  0  0  0  0  0  0  0
  -40.6608   60.9583   63.8355 H   0  0  0  0  0  0  0  0  0  0  0  0
  -42.7538   59.0533   65.5062 C   0  0  0  0  0  0  0  0  0  0  0  0
  -43.9807   59.0012   64.9599 C   0  0  0  0  0  0  0  0  0  0  0  0
  -45.1845   58.6391   65.8276 C   0  0  0  0  0  0  0  0  0  0  0  0
  -46.5089   58.5650   65.0537 C   0  0  0  0  0  0  0  0  0  0  0  0
  -47.4559   57.4211   65.4610 C   0  0  0  0  0  0  0  0  0  0  0  0
  -48.9217   57.9145   65.5152 C   0  0  0  0  0  0  0  0  0  0  0  0
  -49.2489   59.1189   64.5965 C   0  0  0  0  0  0  0  0  0  0  0  0
  -50.6416   59.0455   63.9276 C   0  0  0  0  0  0  0  0  0  0  0  0
  -50.6742   58.1575   62.6648 C   0  0  0  0  0  0  0  0  0  0  0  0
  -49.3654   58.1715   61.8659 C   0  0  0  0  0  0  0  0  0  0  0  0
  -49.4825   58.5545   60.3921 C   0  0  0  0  0  0  0  0  0  0  0  0
  -49.9087   57.3911   59.4750 C   0  0  0  0  0  0  0  0  0  0  0  0
  -48.7703   56.4661   59.0189 C   0  0  0  0  0  0  0  0  0  0  0  0
  -48.4258   56.7032   57.5457 C   0  0  0  0  0  0  0  0  0  0  0  0
  -47.3450   55.8161   56.9538 C   0  0  0  0  0  0  0  0  0  0  0  0
  -39.3363   60.4376   65.7486 C   0  0  0  0  0  0  0  0  0  0  0  0
  -38.4964   60.7706   64.6142 O   0  0  0  0  0  0  0  0  0  0  0  0
  -36.5643   61.1530   62.5409 O   0  0  0  0  0  0  0  0  0  0  0  0
  -35.7813   64.6724   64.6387 O   0  0  0  0  0  0  0  0  0  0  0  0
  -37.0829   62.2555   65.9114 O   0  0  0  0  0  0  0  0  0  0  0  0
  -37.1414   61.3264   64.8019 C   0  0  0  0  0  0  0  0  0  0  0  0
  -36.5405   62.0636   63.5965 C   0  0  0  0  0  0  0  0  0  0  0  0
  -35.0803   62.5181   63.8123 C   0  0  0  0  0  0  0  0  0  0  0  0
  -35.1030   63.4658   64.9796 C   0  0  0  0  0  0  0  0  0  0  0  0
  -35.7594   62.7953   66.1729 C   0  0  0  0  0  0  0  0  0  0  0  0
  -37.4754   60.8560   62.3907 H   0  0  0  0  0  0  0  0  0  0  0  0
  -35.3462   65.0833   63.8753 H   0  0  0  0  0  0  0  0  0  0  0  0
  -34.3663   64.3193   67.3773 O   0  0  0  0  0  0  0  0  0  0  0  0
  -35.6905   63.9068   67.2179 C   0  0  0  0  0  0  0  0  0  0  0  0
  -34.3253   65.0251   68.0414 H   0  0  0  0  0  0  0  0  0  0  0  0
  -34.4732   63.2426   62.7184 O   0  0  0  0  0  0  0  0  0  0  0  0
  -32.3004   63.7731   61.4091 O   0  0  0  0  0  0  0  0  0  0  0  0
  -32.1544   62.9479   63.6866 O   0  0  0  0  0  0  0  0  0  0  0  0
  -32.8240   65.2379   63.2601 O   0  0  0  0  0  0  0  0  0  0  0  0
  -32.9178   63.8345   62.7669 S   0  0  0  0  0  0  0  0  0  0  0  0
  -32.3521   62.8654   61.0711 H   0  0  0  0  0  0  0  0  0  0  0  0
  -33.3194   65.8231   62.6660 H   0  0  0  0  0  0  0  0  0  0  0  0
  2  1  1  0  0  0
  2  4  1  0  0  0
  2  5  1  0  0  0
 41 42  1  0  0  0
 41  1  1  0  0  0
 42 46  1  0  0  0
  1 24  1  0  0  0
 23 24  1  0  0  0
 23 25  1  0  0  0
 24 26  1  0  0  0
  3  4  2  0  0  0
 26 27  2  0  0  0
 27 28  1  0  0  0
 43 47  1  0  0  0
 43 51  1  0  0  0
 28 29  1  0  0  0
 56 48  1  0  0  0
 56 60  1  0  0  0
 29 30  1  0  0  0
 57 60  1  0  0  0
 57 61  1  0  0  0
 30 31  1  0  0  0
 44 49  1  0  0  0
 44 52  1  0  0  0
 31 32  1  0  0  0
 45 46  1  0  0  0
 45 50  1  0  0  0
 32 33  1  0  0  0
 53 54  1  0  0  0
 53 55  1  0  0  0
 33 34  1  0  0  0
 34 35  1  0  0  0
 35 36  1  0  0  0
 58 60  1  0  0  0
 36 37  1  0  0  0
 59 60  1  0  0  0
 59 62  1  0  0  0
 37 38  1  0  0  0
 38 39  1  0  0  0
 39 40  1  0  0  0
  4  6  1  0  0  0
  6  7  1  0  0  0
  7  8  1  0  0  0
  8  9  1  0  0  0
  9 10  1  0  0  0
 10 11  1  0  0  0
 11 12  1  0  0  0
 12 13  1  0  0  0
 13 14  1  0  0  0
 14 15  1  0  0  0
 15 16  1  0  0  0
 16 17  1  0  0  0
 17 18  1  0  0  0
 18 19  1  0  0  0
 19 20  1  0  0  0
 20 21  1  0  0  0
 21 22  1  0  0  0
 46 47  1  0  0  0
 47 48  1  0  0  0
 48 49  1  0  0  0
 49 50  1  0  0  0
 50 54  1  0  0  0
M  CHG 1  58  -1
M  END
> <minimizedAffinity>
-9.66049

> <CNNscore>
0.2935111523

> <CNNaffinity>
7.1813521385

> <CNN_VS>
2.1078069210

> <CNNaffinity_variance>
1.1684097052

$$$$
/media/chris/experiments/cd1a-new-docking/inputs/ligands/1onq_ligand.pdb


 62 62  0  0  0  0  0  0  0  0999 V2000
  -38.2765   59.8037   62.6443 C   0  0  0  0  0  0  0  0  0  0  0  0
  -39.3803   60.6874   62.9635 N   0  0  0  0  0  0  0  0  0  0  0  0
  -41.2154   61.3172   64.1396 O   0  0  0  0  0  0  0  0  0  0  0  0
  -40.3012   60.5448   63.9265 C   0  0  0  0  0  0  0  0  0  0  0  0
  -39.4637   61.4925   62.4031 H   0  0  0  0  0  0  0  0  0  0  0  0
  -40.1524   59.3164   64.7742 C   0  0  0  0  0  0  0  0  0  0  0  0
  -41.2998   59.3453   65.7841 C   0  0  0  0  0  0  0  0  0  0  0  0
  -42.1506   58.0855   65.6430 C   0  0  0  0  0  0  0  0  0  0  0  0
  -43.2326   57.8962   66.6784 C   0  0  0  0  0  0  0  0  0  0  0  0
  -44.2560   56.9230   66.1029 C   0  0  0  0  0  0  0  0  0  0  0  0
  -45.1024   57.5452   64.9842 C   0  0  0  0  0  0  0  0  0  0  0  0
  -46.2371   58.4584   65.4835 C   0  0  0  0  0  0  0  0  0  0  0  0
  -47.5593   58.2486   64.7134 C   0  0  0  0  0  0  0  0  0  0  0  0
  -48.6263   57.6403   65.6281 C   0  0  0  0  0  0  0  0  0  0  0  0
  -50.0251   58.2216   65.4630 C   0  0  0  0  0  0  0  0  0  0  0  0
  -50.0233   59.5093   64.6526 C   0  0  0  0  0  0  0  0  0  0  0  0
  -51.2760   59.7770   63.8151 C   0  0  0  0  0  0  0  0  0  0  0  0
  -51.2385   58.8632   62.5976 C   0  0  0  0  0  0  0  0  0  0  0  0
  -50.0121   58.8973   61.6977 C   0  0  0  0  0  0  0  0  0  0  0  0
  -49.5112   57.4757   61.3968 C   0  0  0  0  0  0  0  0  0  0  0  0
  -49.1419   57.2275   59.9228 C   0  0  0  0  0  0  0  0  0  0  0  0
  -47.6601   57.4458   59.6262 C   0  0  0  0  0  0  0  0  0  0  0  0
  -38.6345   57.5090   62.5966 O   0  0  0  0  0  0  0  0  0  0  0  0
  -38.9598   58.6843   61.8777 C   0  0  0  0  0  0  0  0  0  0  0  0
  -38.9914   57.5712   63.4963 H   0  0  0  0  0  0  0  0  0  0  0  0
  -38.4238   58.6507   60.4445 C   0  0  0  0  0  0  0  0  0  0  0  0
  -37.4648   57.7996   60.0416 C   0  0  0  0  0  0  0  0  0  0  0  0
  -36.9822   57.8289   58.5926 C   0  0  0  0  0  0  0  0  0  0  0  0
  -36.4638   56.4764   58.0825 C   0  0  0  0  0  0  0  0  0  0  0  0
  -36.4851   55.3256   59.1054 C   0  0  0  0  0  0  0  0  0  0  0  0
  -35.0603   55.0351   59.6351 C   0  0  0  0  0  0  0  0  0  0  0  0
  -33.9427   55.9412   59.0593 C   0  0  0  0  0  0  0  0  0  0  0  0
  -33.4402   57.0275   60.0391 C   0  0  0  0  0  0  0  0  0  0  0  0
  -33.5740   56.6287   61.5248 C   0  0  0  0  0  0  0  0  0  0  0  0
  -33.0169   57.6748   62.4978 C   0  0  0  0  0  0  0  0  0  0  0  0
  -32.4818   58.9593   61.8683 C   0  0  0  0  0  0  0  0  0  0  0  0
  -31.3218   59.6044   62.6522 C   0  0  0  0  0  0  0  0  0  0  0  0
  -30.0932   59.9819   61.8111 C   0  0  0  0  0  0  0  0  0  0  0  0
  -29.8406   61.4918   61.8534 C   0  0  0  0  0  0  0  0  0  0  0  0
  -30.0022   62.1658   63.2043 C   0  0  0  0  0  0  0  0  0  0  0  0
  -37.3857   59.3929   63.8387 C   0  0  0  0  0  0  0  0  0  0  0  0
  -36.0498   59.9561   63.8748 O   0  0  0  0  0  0  0  0  0  0  0  0
  -36.9116   62.0321   65.6427 O   0  0  0  0  0  0  0  0  0  0  0  0
  -33.1984   63.6725   64.6835 O   0  0  0  0  0  0  0  0  0  0  0  0
  -34.6111   61.6601   62.9199 O   0  0  0  0  0  0  0  0  0  0  0  0
  -35.8222   61.4006   63.6705 C   0  0  0  0  0  0  0  0  0  0  0  0
  -35.7273   62.2562   64.9419 C   0  0  0  0  0  0  0  0  0  0  0  0
  -35.6078   63.7706   64.6630 C   0  0  0  0  0  0  0  0  0  0  0  0
  -34.3393   63.9545   63.8766 C   0  0  0  0  0  0  0  0  0  0  0  0
  -34.3643   63.0658   62.6462 C   0  0  0  0  0  0  0  0  0  0  0  0
  -37.0038   61.0842   65.8270 H   0  0  0  0  0  0  0  0  0  0  0  0
  -33.2025   64.2505   65.4625 H   0  0  0  0  0  0  0  0  0  0  0  0
  -32.6953   64.7301   62.2485 O   0  0  0  0  0  0  0  0  0  0  0  0
  -33.0135   63.3914   62.0126 C   0  0  0  0  0  0  0  0  0  0  0  0
  -31.8372   64.9344   61.8451 H   0  0  0  0  0  0  0  0  0  0  0  0
  -35.4871   64.6220   65.8252 O   0  0  0  0  0  0  0  0  0  0  0  0
  -34.4810   65.0572   68.1736 O   0  0  0  0  0  0  0  0  0  0  0  0
  -34.3450   62.8358   67.2059 O   0  0  0  0  0  0  0  0  0  0  0  0
  -36.4480   63.6536   68.0909 O   0  0  0  0  0  0  0  0  0  0  0  0
  -35.2078   64.0386   67.3593 S   0  0  0  0  0  0  0  0  0  0  0  0
  -33.6692   65.3204   67.7126 H   0  0  0  0  0  0  0  0  0  0  0  0
  -37.0167   64.4324   68.1953 H   0  0  0  0  0  0  0  0  0  0  0  0
  2  1  1  0  0  0
  2  4  1  0  0  0
  2  5  1  0  0  0
 41 42  1  0  0  0
 41  1  1  0  0  0
 42 46  1  0  0  0
  1 24  1  0  0  0
 23 24  1  0  0  0
 23 25  1  0  0  0
 24 26  1  0  0  0
  3  4  2  0  0  0
 26 27  2  0  0  0
 27 28  1  0  0  0
 43 47  1  0  0  0
 43 51  1  0  0  0
 28 29  1  0  0  0
 56 48  1  0  0  0
 56 60  1  0  0  0
 29 30  1  0  0  0
 57 60  1  0  0  0
 57 61  1  0  0  0
 30 31  1  0  0  0
 44 49  1  0  0  0
 44 52  1  0  0  0
 31 32  1  0  0  0
 45 46  1  0  0  0
 45 50  1  0  0  0
 32 33  1  0  0  0
 53 54  1  0  0  0
 53 55  1  0  0  0
 33 34  1  0  0  0
 34 35  1  0  0  0
 35 36  1  0  0  0
 58 60  1  0  0  0
 36 37  1  0  0  0
 59 60  1  0  0  0
 59 62  1  0  0  0
 37 38  1  0  0  0
 38 39  1  0  0  0
 39 40  1  0  0  0
  4  6  1  0  0  0
  6  7  1  0  0  0
  7  8  1  0  0  0
  8  9  1  0  0  0
  9 10  1  0  0  0
 10 11  1  0  0  0
 11 12  1  0  0  0
 12 13  1  0  0  0
 13 14  1  0  0  0
 14 15  1  0  0  0
 15 16  1  0  0  0
 16 17  1  0  0  0
 17 18  1  0  0  0
 18 19  1  0  0  0
 19 20  1  0  0  0
 20 21  1  0  0  0
 21 22  1  0  0  0
 46 47  1  0  0  0
 47 48  1  0  0  0
 48 49  1  0  0  0
 49 50  1  0  0  0
 50 54  1  0  0  0
M  CHG 1  58  -1
M  END
> <minimizedAffinity>
-9.33739

> <CNNscore>
0.2755885124

> <CNNaffinity>
6.9080476761

> <CNN_VS>
1.9037785530

> <CNNaffinity_variance>
0.8204259872

$$$$
/media/chris/experiments/cd1a-new-docking/inputs/ligands/1onq_ligand.pdb


 62 62  0  0  0  0  0  0  0  0999 V2000
  -38.6850   59.7611   60.7548 C   0  0  0  0  0  0  0  0  0  0  0  0
  -37.7906   59.7205   59.6148 N   0  0  0  0  0  0  0  0  0  0  0  0
  -36.3427   58.7066   58.1924 O   0  0  0  0  0  0  0  0  0  0  0  0
  -37.0898   58.6767   59.1510 C   0  0  0  0  0  0  0  0  0  0  0  0
  -37.6849   60.5649   59.1197 H   0  0  0  0  0  0  0  0  0  0  0  0
  -37.2704   57.3979   59.9138 C   0  0  0  0  0  0  0  0  0  0  0  0
  -35.8686   56.8417   60.1649 C   0  0  0  0  0  0  0  0  0  0  0  0
  -35.5763   56.8214   61.6633 C   0  0  0  0  0  0  0  0  0  0  0  0
  -35.1079   58.1240   62.2655 C   0  0  0  0  0  0  0  0  0  0  0  0
  -35.5149   58.1249   63.7352 C   0  0  0  0  0  0  0  0  0  0  0  0
  -36.8255   57.3676   63.9881 C   0  0  0  0  0  0  0  0  0  0  0  0
  -37.7733   58.0597   64.9847 C   0  0  0  0  0  0  0  0  0  0  0  0
  -39.2625   57.7662   64.6997 C   0  0  0  0  0  0  0  0  0  0  0  0
  -40.1568   58.8170   65.3639 C   0  0  0  0  0  0  0  0  0  0  0  0
  -41.6504   58.5198   65.3104 C   0  0  0  0  0  0  0  0  0  0  0  0
  -42.3043   58.5984   66.6820 C   0  0  0  0  0  0  0  0  0  0  0  0
  -43.8120   58.8614   66.6926 C   0  0  0  0  0  0  0  0  0  0  0  0
  -44.2707   59.0581   65.2540 C   0  0  0  0  0  0  0  0  0  0  0  0
  -45.1172   57.9738   64.6037 C   0  0  0  0  0  0  0  0  0  0  0  0
  -46.6054   58.1640   64.9374 C   0  0  0  0  0  0  0  0  0  0  0  0
  -47.0366   59.6309   65.1193 C   0  0  0  0  0  0  0  0  0  0  0  0
  -47.9606   59.8450   66.3159 C   0  0  0  0  0  0  0  0  0  0  0  0
  -40.8851   60.3498   61.2117 O   0  0  0  0  0  0  0  0  0  0  0  0
  -39.9134   60.4512   60.1874 C   0  0  0  0  0  0  0  0  0  0  0  0
  -40.5703   60.8140   62.0030 H   0  0  0  0  0  0  0  0  0  0  0  0
  -40.3496   59.7369   58.9059 C   0  0  0  0  0  0  0  0  0  0  0  0
  -41.6346   59.6364   58.5252 C   0  0  0  0  0  0  0  0  0  0  0  0
  -41.9893   58.9058   57.2315 C   0  0  0  0  0  0  0  0  0  0  0  0
  -43.4988   58.7325   57.0091 C   0  0  0  0  0  0  0  0  0  0  0  0
  -44.3168   58.3503   58.2565 C   0  0  0  0  0  0  0  0  0  0  0  0
  -45.6844   57.7485   57.8534 C   0  0  0  0  0  0  0  0  0  0  0  0
  -46.6323   57.4114   59.0322 C   0  0  0  0  0  0  0  0  0  0  0  0
  -48.0313   56.9146   58.5979 C   0  0  0  0  0  0  0  0  0  0  0  0
  -48.6452   55.8770   59.5626 C   0  0  0  0  0  0  0  0  0  0  0  0
  -49.7481   56.4471   60.4626 C   0  0  0  0  0  0  0  0  0  0  0  0
  -50.2467   57.8467   60.1089 C   0  0  0  0  0  0  0  0  0  0  0  0
  -50.1647   58.8531   61.2736 C   0  0  0  0  0  0  0  0  0  0  0  0
  -49.4650   58.3347   62.5390 C   0  0  0  0  0  0  0  0  0  0  0  0
  -50.3906   58.4253   63.7557 C   0  0  0  0  0  0  0  0  0  0  0  0
  -51.1296   59.7381   63.9455 C   0  0  0  0  0  0  0  0  0  0  0  0
  -38.0851   60.3521   62.0509 C   0  0  0  0  0  0  0  0  0  0  0  0
  -37.0953   61.3995   61.8881 O   0  0  0  0  0  0  0  0  0  0  0  0
  -35.2526   63.5855   61.8270 O   0  0  0  0  0  0  0  0  0  0  0  0
  -36.6867   64.2204   65.6922 O   0  0  0  0  0  0  0  0  0  0  0  0
  -36.8517   61.5402   64.2977 O   0  0  0  0  0  0  0  0  0  0  0  0
  -36.2447   61.8308   63.0152 C   0  0  0  0  0  0  0  0  0  0  0  0
  -35.8704   63.3195   63.0483 C   0  0  0  0  0  0  0  0  0  0  0  0
  -34.8856   63.6865   64.1801 C   0  0  0  0  0  0  0  0  0  0  0  0
  -35.5816   63.3478   65.4694 C   0  0  0  0  0  0  0  0  0  0  0  0
  -36.0336   61.8989   65.4439 C   0  0  0  0  0  0  0  0  0  0  0  0
  -35.8577   63.3605   61.1030 H   0  0  0  0  0  0  0  0  0  0  0  0
  -36.3758   65.1392   65.7047 H   0  0  0  0  0  0  0  0  0  0  0  0
  -35.9955   62.5064   67.7554 O   0  0  0  0  0  0  0  0  0  0  0  0
  -36.7089   61.7705   66.8076 C   0  0  0  0  0  0  0  0  0  0  0  0
  -36.4263   62.4232   68.6205 H   0  0  0  0  0  0  0  0  0  0  0  0
  -34.5203   65.0821   64.2754 O   0  0  0  0  0  0  0  0  0  0  0  0
  -33.0072   67.0929   64.8948 O   0  0  0  0  0  0  0  0  0  0  0  0
  -32.0318   65.1463   63.8232 O   0  0  0  0  0  0  0  0  0  0  0  0
  -32.6659   65.0616   66.1610 O   0  0  0  0  0  0  0  0  0  0  0  0
  -33.0362   65.6021   64.8222 S   0  0  0  0  0  0  0  0  0  0  0  0
  -33.2460   67.4635   64.0308 H   0  0  0  0  0  0  0  0  0  0  0  0
  -33.3160   65.3540   66.8188 H   0  0  0  0  0  0  0  0  0  0  0  0
  2  1  1  0  0  0
  2  4  1  0  0  0
  2  5  1  0  0  0
 41 42  1  0  0  0
 41  1  1  0  0  0
 42 46  1  0  0  0
  1 24  1  0  0  0
 23 24  1  0  0  0
 23 25  1  0  0  0
 24 26  1  0  0  0
  3  4  2  0  0  0
 26 27  2  0  0  0
 27 28  1  0  0  0
 43 47  1  0  0  0
 43 51  1  0  0  0
 28 29  1  0  0  0
 56 48  1  0  0  0
 56 60  1  0  0  0
 29 30  1  0  0  0
 57 60  1  0  0  0
 57 61  1  0  0  0
 30 31  1  0  0  0
 44 49  1  0  0  0
 44 52  1  0  0  0
 31 32  1  0  0  0
 45 46  1  0  0  0
 45 50  1  0  0  0
 32 33  1  0  0  0
 53 54  1  0  0  0
 53 55  1  0  0  0
 33 34  1  0  0  0
 34 35  1  0  0  0
 35 36  1  0  0  0
 58 60  1  0  0  0
 36 37  1  0  0  0
 59 60  1  0  0  0
 59 62  1  0  0  0
 37 38  1  0  0  0
 38 39  1  0  0  0
 39 40  1  0  0  0
  4  6  1  0  0  0
  6  7  1  0  0  0
  7  8  1  0  0  0
  8  9  1  0  0  0
  9 10  1  0  0  0
 10 11  1  0  0  0
 11 12  1  0  0  0
 12 13  1  0  0  0
 13 14  1  0  0  0
 14 15  1  0  0  0
 15 16  1  0  0  0
 16 17  1  0  0  0
 17 18  1  0  0  0
 18 19  1  0  0  0
 19 20  1  0  0  0
 20 21  1  0  0  0
 21 22  1  0  0  0
 46 47  1  0  0  0
 47 48  1  0  0  0
 48 49  1  0  0  0
 49 50  1  0  0  0
 50 54  1  0  0  0
M  CHG 1  58  -1
M  END
> <minimizedAffinity>
-9.17620

> <CNNscore>
0.2534033060

> <CNNaffinity>
7.0981206894

> <CNN_VS>
1.7986872196

> <CNNaffinity_variance>
1.6066896915

$$$$
/media/chris/experiments/cd1a-new-docking/inputs/ligands/1onq_ligand.pdb


 62 62  0  0  0  0  0  0  0  0999 V2000
  -38.6759   59.7494   60.6891 C   0  0  0  0  0  0  0  0  0  0  0  0
  -37.7799   59.6558   59.5535 N   0  0  0  0  0  0  0  0  0  0  0  0
  -36.3742   58.5616   58.1484 O   0  0  0  0  0  0  0  0  0  0  0  0
  -37.1255   58.5762   59.1039 C   0  0  0  0  0  0  0  0  0  0  0  0
  -37.6338   60.4891   59.0499 H   0  0  0  0  0  0  0  0  0  0  0  0
  -37.3672   57.3153   59.8795 C   0  0  0  0  0  0  0  0  0  0  0  0
  -36.6938   56.1887   59.0955 C   0  0  0  0  0  0  0  0  0  0  0  0
  -35.6317   55.5141   59.9603 C   0  0  0  0  0  0  0  0  0  0  0  0
  -34.1980   55.8670   59.6461 C   0  0  0  0  0  0  0  0  0  0  0  0
  -33.4923   56.1486   60.9684 C   0  0  0  0  0  0  0  0  0  0  0  0
  -33.6594   57.6019   61.4321 C   0  0  0  0  0  0  0  0  0  0  0  0
  -32.9096   57.9404   62.7335 C   0  0  0  0  0  0  0  0  0  0  0  0
  -33.8452   58.4572   63.8483 C   0  0  0  0  0  0  0  0  0  0  0  0
  -35.3112   58.3330   63.4237 C   0  0  0  0  0  0  0  0  0  0  0  0
  -36.0848   57.2064   64.0978 C   0  0  0  0  0  0  0  0  0  0  0  0
  -37.5901   57.3680   63.9457 C   0  0  0  0  0  0  0  0  0  0  0  0
  -38.3298   57.9378   65.1583 C   0  0  0  0  0  0  0  0  0  0  0  0
  -39.8039   58.0665   64.7989 C   0  0  0  0  0  0  0  0  0  0  0  0
  -40.3997   59.4587   64.6508 C   0  0  0  0  0  0  0  0  0  0  0  0
  -41.9258   59.4257   64.8297 C   0  0  0  0  0  0  0  0  0  0  0  0
  -42.4121   58.5621   66.0081 C   0  0  0  0  0  0  0  0  0  0  0  0
  -42.4290   59.3106   67.3389 C   0  0  0  0  0  0  0  0  0  0  0  0
  -40.8569   60.4190   61.1258 O   0  0  0  0  0  0  0  0  0  0  0  0
  -39.8802   60.4656   60.1023 C   0  0  0  0  0  0  0  0  0  0  0  0
  -40.5291   60.8909   61.9072 H   0  0  0  0  0  0  0  0  0  0  0  0
  -40.3362   59.7365   58.8362 C   0  0  0  0  0  0  0  0  0  0  0  0
  -41.6278   59.6223   58.4825 C   0  0  0  0  0  0  0  0  0  0  0  0
  -42.0025   58.8774   57.2026 C   0  0  0  0  0  0  0  0  0  0  0  0
  -43.5159   58.7157   56.9979 C   0  0  0  0  0  0  0  0  0  0  0  0
  -44.2943   58.1488   58.1994 C   0  0  0  0  0  0  0  0  0  0  0  0
  -45.8151   58.1367   57.9124 C   0  0  0  0  0  0  0  0  0  0  0  0
  -46.6846   57.4276   58.9814 C   0  0  0  0  0  0  0  0  0  0  0  0
  -47.5427   56.2647   58.4302 C   0  0  0  0  0  0  0  0  0  0  0  0
  -48.9947   56.6719   58.0984 C   0  0  0  0  0  0  0  0  0  0  0  0
  -49.6610   57.5241   59.1852 C   0  0  0  0  0  0  0  0  0  0  0  0
  -50.0016   56.8040   60.4882 C   0  0  0  0  0  0  0  0  0  0  0  0
  -51.1487   57.4582   61.2834 C   0  0  0  0  0  0  0  0  0  0  0  0
  -50.7156   58.2476   62.5280 C   0  0  0  0  0  0  0  0  0  0  0  0
  -51.7707   59.2885   62.9136 C   0  0  0  0  0  0  0  0  0  0  0  0
  -51.4277   60.1971   64.0808 C   0  0  0  0  0  0  0  0  0  0  0  0
  -38.0615   60.3493   61.9742 C   0  0  0  0  0  0  0  0  0  0  0  0
  -37.1018   61.4216   61.7944 O   0  0  0  0  0  0  0  0  0  0  0  0
  -35.4456   63.7527   61.7696 O   0  0  0  0  0  0  0  0  0  0  0  0
  -36.7055   64.0507   65.7348 O   0  0  0  0  0  0  0  0  0  0  0  0
  -36.7347   61.4478   64.1923 O   0  0  0  0  0  0  0  0  0  0  0  0
  -36.2261   61.8585   62.8999 C   0  0  0  0  0  0  0  0  0  0  0  0
  -35.9704   63.3690   63.0030 C   0  0  0  0  0  0  0  0  0  0  0  0
  -34.9557   63.7528   64.1024 C   0  0  0  0  0  0  0  0  0  0  0  0
  -35.5488   63.2864   65.4032 C   0  0  0  0  0  0  0  0  0  0  0  0
  -35.8845   61.8087   65.3142 C   0  0  0  0  0  0  0  0  0  0  0  0
  -36.0706   63.5190   61.0655 H   0  0  0  0  0  0  0  0  0  0  0  0
  -36.4686   64.9900   65.7863 H   0  0  0  0  0  0  0  0  0  0  0  0
  -37.8068   61.1665   66.5815 O   0  0  0  0  0  0  0  0  0  0  0  0
  -36.4695   61.5492   66.7007 C   0  0  0  0  0  0  0  0  0  0  0  0
  -38.1759   61.0024   67.4634 H   0  0  0  0  0  0  0  0  0  0  0  0
  -34.6980   65.1663   64.2622 O   0  0  0  0  0  0  0  0  0  0  0  0
  -32.9758   67.0745   63.9313 O   0  0  0  0  0  0  0  0  0  0  0  0
  -32.1977   64.7890   64.1772 O   0  0  0  0  0  0  0  0  0  0  0  0
  -33.0030   66.0170   66.1055 O   0  0  0  0  0  0  0  0  0  0  0  0
  -33.2003   65.7835   64.6467 S   0  0  0  0  0  0  0  0  0  0  0  0
  -33.1000   66.9421   62.9785 H   0  0  0  0  0  0  0  0  0  0  0  0
  -33.6530   66.6645   66.4201 H   0  0  0  0  0  0  0  0  0  0  0  0
  2  1  1  0  0  0
  2  4  1  0  0  0
  2  5  1  0  0  0
 41 42  1  0  0  0
 41  1  1  0  0  0
 42 46  1  0  0  0
  1 24  1  0  0  0
 23 24  1  0  0  0
 23 25  1  0  0  0
 24 26  1  0  0  0
  3  4  2  0  0  0
 26 27  2  0  0  0
 27 28  1  0  0  0
 43 47  1  0  0  0
 43 51  1  0  0  0
 28 29  1  0  0  0
 56 48  1  0  0  0
 56 60  1  0  0  0
 29 30  1  0  0  0
 57 60  1  0  0  0
 57 61  1  0  0  0
 30 31  1  0  0  0
 44 49  1  0  0  0
 44 52  1  0  0  0
 31 32  1  0  0  0
 45 46  1  0  0  0
 45 50  1  0  0  0
 32 33  1  0  0  0
 53 54  1  0  0  0
 53 55  1  0  0  0
 33 34  1  0  0  0
 34 35  1  0  0  0
 35 36  1  0  0  0
 58 60  1  0  0  0
 36 37  1  0  0  0
 59 60  1  0  0  0
 59 62  1  0  0  0
 37 38  1  0  0  0
 38 39  1  0  0  0
 39 40  1  0  0  0
  4  6  1  0  0  0
  6  7  1  0  0  0
  7  8  1  0  0  0
  8  9  1  0  0  0
  9 10  1  0  0  0
 10 11  1  0  0  0
 11 12  1  0  0  0
 12 13  1  0  0  0
 13 14  1  0  0  0
 14 15  1  0  0  0
 15 16  1  0  0  0
 16 17  1  0  0  0
 17 18  1  0  0  0
 18 19  1  0  0  0
 19 20  1  0  0  0
 20 21  1  0  0  0
 21 22  1  0  0  0
 46 47  1  0  0  0
 47 48  1  0  0  0
 48 49  1  0  0  0
 49 50  1  0  0  0
 50 54  1  0  0  0
M  CHG 1  58  -1
M  END
> <minimizedAffinity>
-9.39649

> <CNNscore>
0.2502593398

> <CNNaffinity>
6.9161100388

> <CNN_VS>
1.7308211327

> <CNNaffinity_variance>
1.3490294218

$$$$
/media/chris/experiments/cd1a-new-docking/inputs/ligands/1onq_ligand.pdb


 62 62  0  0  0  0  0  0  0  0999 V2000
  -38.6408   60.3353   62.4475 C   0  0  0  0  0  0  0  0  0  0  0  0
  -39.4171   60.4960   61.2339 N   0  0  0  0  0  0  0  0  0  0  0  0
  -39.8479   60.1738   59.0297 O   0  0  0  0  0  0  0  0  0  0  0  0
  -39.1628   59.9939   60.0177 C   0  0  0  0  0  0  0  0  0  0  0  0
  -40.2326   61.0419   61.3129 H   0  0  0  0  0  0  0  0  0  0  0  0
  -37.9207   59.1588   59.9196 C   0  0  0  0  0  0  0  0  0  0  0  0
  -37.9489   58.5009   58.5399 C   0  0  0  0  0  0  0  0  0  0  0  0
  -36.5251   58.3192   58.0195 C   0  0  0  0  0  0  0  0  0  0  0  0
  -36.0363   56.8955   57.9075 C   0  0  0  0  0  0  0  0  0  0  0  0
  -34.5188   56.9160   58.0576 C   0  0  0  0  0  0  0  0  0  0  0  0
  -34.0030   55.8357   59.0177 C   0  0  0  0  0  0  0  0  0  0  0  0
  -34.5989   55.9132   60.4352 C   0  0  0  0  0  0  0  0  0  0  0  0
  -34.2802   57.2455   61.1484 C   0  0  0  0  0  0  0  0  0  0  0  0
  -32.9061   57.1825   61.8216 C   0  0  0  0  0  0  0  0  0  0  0  0
  -32.7015   58.1700   62.9639 C   0  0  0  0  0  0  0  0  0  0  0  0
  -33.8476   59.1640   63.0801 C   0  0  0  0  0  0  0  0  0  0  0  0
  -34.6283   59.1372   64.3962 C   0  0  0  0  0  0  0  0  0  0  0  0
  -34.8181   57.6834   64.8073 C   0  0  0  0  0  0  0  0  0  0  0  0
  -36.0757   56.9560   64.3553 C   0  0  0  0  0  0  0  0  0  0  0  0
  -37.3348   57.7651   64.7054 C   0  0  0  0  0  0  0  0  0  0  0  0
  -38.5986   57.3460   63.9320 C   0  0  0  0  0  0  0  0  0  0  0  0
  -38.3214   56.9768   62.4766 C   0  0  0  0  0  0  0  0  0  0  0  0
  -38.7107   61.0170   64.6670 O   0  0  0  0  0  0  0  0  0  0  0  0
  -39.4516   61.1193   63.4651 C   0  0  0  0  0  0  0  0  0  0  0  0
  -37.8379   61.4217   64.5442 H   0  0  0  0  0  0  0  0  0  0  0  0
  -40.8443   60.4973   63.5914 C   0  0  0  0  0  0  0  0  0  0  0  0
  -41.3074   59.9656   64.7356 C   0  0  0  0  0  0  0  0  0  0  0  0
  -42.7101   59.3624   64.7805 C   0  0  0  0  0  0  0  0  0  0  0  0
  -43.0192   58.6037   66.0794 C   0  0  0  0  0  0  0  0  0  0  0  0
  -44.4743   58.6955   66.5748 C   0  0  0  0  0  0  0  0  0  0  0  0
  -45.3974   59.2571   65.4668 C   0  0  0  0  0  0  0  0  0  0  0  0
  -46.8990   59.3473   65.8392 C   0  0  0  0  0  0  0  0  0  0  0  0
  -47.7381   58.1291   65.3870 C   0  0  0  0  0  0  0  0  0  0  0  0
  -49.2510   58.4225   65.2913 C   0  0  0  0  0  0  0  0  0  0  0  0
  -49.6198   59.4076   64.1754 C   0  0  0  0  0  0  0  0  0  0  0  0
  -49.6113   58.8467   62.7549 C   0  0  0  0  0  0  0  0  0  0  0  0
  -50.9428   58.1958   62.3311 C   0  0  0  0  0  0  0  0  0  0  0  0
  -50.9074   57.4451   60.9913 C   0  0  0  0  0  0  0  0  0  0  0  0
  -49.7414   57.9255   60.1224 C   0  0  0  0  0  0  0  0  0  0  0  0
  -49.3950   57.0640   58.9210 C   0  0  0  0  0  0  0  0  0  0  0  0
  -37.1398   60.6840   62.3287 C   0  0  0  0  0  0  0  0  0  0  0  0
  -36.7817   62.0775   62.5106 O   0  0  0  0  0  0  0  0  0  0  0  0
  -34.3422   63.3224   61.6880 O   0  0  0  0  0  0  0  0  0  0  0  0
  -34.8952   65.5219   65.1888 O   0  0  0  0  0  0  0  0  0  0  0  0
  -36.1537   62.8076   64.7372 O   0  0  0  0  0  0  0  0  0  0  0  0
  -35.6798   62.4736   63.4100 C   0  0  0  0  0  0  0  0  0  0  0  0
  -34.8268   63.6644   62.9498 C   0  0  0  0  0  0  0  0  0  0  0  0
  -33.6210   63.9561   63.8699 C   0  0  0  0  0  0  0  0  0  0  0  0
  -34.1929   64.2819   65.2220 C   0  0  0  0  0  0  0  0  0  0  0  0
  -35.1037   63.1568   65.6791 C   0  0  0  0  0  0  0  0  0  0  0  0
  -35.0871   63.1354   61.0954 H   0  0  0  0  0  0  0  0  0  0  0  0
  -34.2956   66.2254   64.8946 H   0  0  0  0  0  0  0  0  0  0  0  0
  -36.1388   62.6402   67.7709 O   0  0  0  0  0  0  0  0  0  0  0  0
  -35.5747   63.6827   67.0333 C   0  0  0  0  0  0  0  0  0  0  0  0
  -36.4372   62.9767   68.6303 H   0  0  0  0  0  0  0  0  0  0  0  0
  -32.7985   65.0856   63.4987 O   0  0  0  0  0  0  0  0  0  0  0  0
  -30.3269   64.3058   63.5048 O   0  0  0  0  0  0  0  0  0  0  0  0
  -30.9442   66.3186   62.2978 O   0  0  0  0  0  0  0  0  0  0  0  0
  -31.5011   64.1381   61.3978 O   0  0  0  0  0  0  0  0  0  0  0  0
  -31.3743   64.9379   62.6491 S   0  0  0  0  0  0  0  0  0  0  0  0
  -30.2300   64.8136   64.3255 H   0  0  0  0  0  0  0  0  0  0  0  0
  -31.7815   63.2360   61.6178 H   0  0  0  0  0  0  0  0  0  0  0  0
  2  1  1  0  0  0
  2  4  1  0  0  0
  2  5  1  0  0  0
 41 42  1  0  0  0
 41  1  1  0  0  0
 42 46  1  0  0  0
  1 24  1  0  0  0
 23 24  1  0  0  0
 23 25  1  0  0  0
 24 26  1  0  0  0
  3  4  2  0  0  0
 26 27  2  0  0  0
 27 28  1  0  0  0
 43 47  1  0  0  0
 43 51  1  0  0  0
 28 29  1  0  0  0
 56 48  1  0  0  0
 56 60  1  0  0  0
 29 30  1  0  0  0
 57 60  1  0  0  0
 57 61  1  0  0  0
 30 31  1  0  0  0
 44 49  1  0  0  0
 44 52  1  0  0  0
 31 32  1  0  0  0
 45 46  1  0  0  0
 45 50  1  0  0  0
 32 33  1  0  0  0
 53 54  1  0  0  0
 53 55  1  0  0  0
 33 34  1  0  0  0
 34 35  1  0  0  0
 35 36  1  0  0  0
 58 60  1  0  0  0
 36 37  1  0  0  0
 59 60  1  0  0  0
 59 62  1  0  0  0
 37 38  1  0  0  0
 38 39  1  0  0  0
 39 40  1  0  0  0
  4  6  1  0  0  0
  6  7  1  0  0  0
  7  8  1  0  0  0
  8  9  1  0  0  0
  9 10  1  0  0  0
 10 11  1  0  0  0
 11 12  1  0  0  0
 12 13  1  0  0  0
 13 14  1  0  0  0
 14 15  1  0  0  0
 15 16  1  0  0  0
 16 17  1  0  0  0
 17 18  1  0  0  0
 18 19  1  0  0  0
 19 20  1  0  0  0
 20 21  1  0  0  0
 21 22  1  0  0  0
 46 47  1  0  0  0
 47 48  1  0  0  0
 48 49  1  0  0  0
 49 50  1  0  0  0
 50 54  1  0  0  0
M  CHG 1  58  -1
M  END
> <minimizedAffinity>
-9.58640

> <CNNscore>
0.2444735318

> <CNNaffinity>
7.0929145813

> <CNN_VS>
1.7340298891

> <CNNaffinity_variance>
1.3259459734

$$$$
/media/chris/experiments/cd1a-new-docking/inputs/ligands/1onq_ligand.pdb


 62 62  0  0  0  0  0  0  0  0999 V2000
  -35.6285   59.3451   63.2716 C   0  0  0  0  0  0  0  0  0  0  0  0
  -35.0962   58.2846   62.4391 N   0  0  0  0  0  0  0  0  0  0  0  0
  -35.2200   56.7191   60.8015 O   0  0  0  0  0  0  0  0  0  0  0  0
  -35.7170   57.6115   61.4606 C   0  0  0  0  0  0  0  0  0  0  0  0
  -34.1623   58.0266   62.6143 H   0  0  0  0  0  0  0  0  0  0  0  0
  -37.1359   58.0244   61.2037 C   0  0  0  0  0  0  0  0  0  0  0  0
  -37.3060   58.0684   59.6850 C   0  0  0  0  0  0  0  0  0  0  0  0
  -38.2421   59.2108   59.2980 C   0  0  0  0  0  0  0  0  0  0  0  0
  -39.1974   59.6777   60.3694 C   0  0  0  0  0  0  0  0  0  0  0  0
  -40.3744   60.3540   59.6746 C   0  0  0  0  0  0  0  0  0  0  0  0
  -40.8208   59.6126   58.4073 C   0  0  0  0  0  0  0  0  0  0  0  0
  -42.3476   59.4887   58.2521 C   0  0  0  0  0  0  0  0  0  0  0  0
  -42.7640   58.8340   56.9167 C   0  0  0  0  0  0  0  0  0  0  0  0
  -44.1020   58.1044   57.0672 C   0  0  0  0  0  0  0  0  0  0  0  0
  -44.6741   58.0909   58.4794 C   0  0  0  0  0  0  0  0  0  0  0  0
  -46.1596   57.7619   58.4975 C   0  0  0  0  0  0  0  0  0  0  0  0
  -46.7594   57.2935   57.1697 C   0  0  0  0  0  0  0  0  0  0  0  0
  -47.8719   56.2995   57.4747 C   0  0  0  0  0  0  0  0  0  0  0  0
  -47.7424   55.4150   58.7059 C   0  0  0  0  0  0  0  0  0  0  0  0
  -48.9495   55.5933   59.6405 C   0  0  0  0  0  0  0  0  0  0  0  0
  -49.1250   57.0203   60.1917 C   0  0  0  0  0  0  0  0  0  0  0  0
  -50.4765   57.6400   59.8444 C   0  0  0  0  0  0  0  0  0  0  0  0
  -35.6335   57.2658   64.3073 O   0  0  0  0  0  0  0  0  0  0  0  0
  -36.0533   58.6000   64.5253 C   0  0  0  0  0  0  0  0  0  0  0  0
  -34.6688   57.2425   64.2092 H   0  0  0  0  0  0  0  0  0  0  0  0
  -37.5713   58.7074   64.6890 C   0  0  0  0  0  0  0  0  0  0  0  0
  -38.3873   57.6397   64.6661 C   0  0  0  0  0  0  0  0  0  0  0  0
  -39.8934   57.8301   64.8357 C   0  0  0  0  0  0  0  0  0  0  0  0
  -40.4107   59.1820   64.3227 C   0  0  0  0  0  0  0  0  0  0  0  0
  -41.8584   59.5331   64.7126 C   0  0  0  0  0  0  0  0  0  0  0  0
  -42.0480   59.4575   66.2467 C   0  0  0  0  0  0  0  0  0  0  0  0
  -43.2189   58.5623   66.7254 C   0  0  0  0  0  0  0  0  0  0  0  0
  -43.3045   57.1943   66.0087 C   0  0  0  0  0  0  0  0  0  0  0  0
  -44.7079   56.8774   65.4481 C   0  0  0  0  0  0  0  0  0  0  0  0
  -45.3543   58.0507   64.7018 C   0  0  0  0  0  0  0  0  0  0  0  0
  -46.6152   58.6358   65.3344 C   0  0  0  0  0  0  0  0  0  0  0  0
  -47.9268   58.0907   64.7353 C   0  0  0  0  0  0  0  0  0  0  0  0
  -49.1074   59.0733   64.7412 C   0  0  0  0  0  0  0  0  0  0  0  0
  -49.6343   59.3085   63.3226 C   0  0  0  0  0  0  0  0  0  0  0  0
  -51.1285   59.1313   63.1193 C   0  0  0  0  0  0  0  0  0  0  0  0
  -36.6875   60.2496   62.6013 C   0  0  0  0  0  0  0  0  0  0  0  0
  -36.4871   61.6809   62.7214 O   0  0  0  0  0  0  0  0  0  0  0  0
  -34.1064   63.0210   61.8764 O   0  0  0  0  0  0  0  0  0  0  0  0
  -34.9627   65.4833   65.1326 O   0  0  0  0  0  0  0  0  0  0  0  0
  -36.0088   62.6543   64.8914 O   0  0  0  0  0  0  0  0  0  0  0  0
  -35.4556   62.2366   63.6198 C   0  0  0  0  0  0  0  0  0  0  0  0
  -34.6681   63.4400   63.0818 C   0  0  0  0  0  0  0  0  0  0  0  0
  -33.5266   63.9015   64.0143 C   0  0  0  0  0  0  0  0  0  0  0  0
  -34.1781   64.3061   65.3079 C   0  0  0  0  0  0  0  0  0  0  0  0
  -35.0276   63.1636   65.8346 C   0  0  0  0  0  0  0  0  0  0  0  0
  -34.8100   62.7269   61.2768 H   0  0  0  0  0  0  0  0  0  0  0  0
  -34.4012   66.1991   64.7961 H   0  0  0  0  0  0  0  0  0  0  0  0
  -36.9274   64.1310   66.9155 O   0  0  0  0  0  0  0  0  0  0  0  0
  -35.5925   63.7745   67.1151 C   0  0  0  0  0  0  0  0  0  0  0  0
  -37.2838   64.5188   67.7301 H   0  0  0  0  0  0  0  0  0  0  0  0
  -32.7692   65.0497   63.5695 O   0  0  0  0  0  0  0  0  0  0  0  0
  -31.5077   63.9282   61.6029 O   0  0  0  0  0  0  0  0  0  0  0  0
  -30.3120   64.4521   63.6487 O   0  0  0  0  0  0  0  0  0  0  0  0
  -30.9073   66.2174   62.0983 O   0  0  0  0  0  0  0  0  0  0  0  0
  -31.3546   64.9292   62.6999 S   0  0  0  0  0  0  0  0  0  0  0  0
  -31.7987   63.0815   61.9760 H   0  0  0  0  0  0  0  0  0  0  0  0
  -31.5816   66.5359   61.4780 H   0  0  0  0  0  0  0  0  0  0  0  0
  2  1  1  0  0  0
  2  4  1  0  0  0
  2  5  1  0  0  0
 41 42  1  0  0  0
 41  1  1  0  0  0
 42 46  1  0  0  0
  1 24  1  0  0  0
 23 24  1  0  0  0
 23 25  1  0  0  0
 24 26  1  0  0  0
  3  4  2  0  0  0
 26 27  2  0  0  0
 27 28  1  0  0  0
 43 47  1  0  0  0
 43 51  1  0  0  0
 28 29  1  0  0  0
 56 48  1  0  0  0
 56 60  1  0  0  0
 29 30  1  0  0  0
 57 60  1  0  0  0
 57 61  1  0  0  0
 30 31  1  0  0  0
 44 49  1  0  0  0
 44 52  1  0  0  0
 31 32  1  0  0  0
 45 46  1  0  0  0
 45 50  1  0  0  0
 32 33  1  0  0  0
 53 54  1  0  0  0
 53 55  1  0  0  0
 33 34  1  0  0  0
 34 35  1  0  0  0
 35 36  1  0  0  0
 58 60  1  0  0  0
 36 37  1  0  0  0
 59 60  1  0  0  0
 59 62  1  0  0  0
 37 38  1  0  0  0
 38 39  1  0  0  0
 39 40  1  0  0  0
  4  6  1  0  0  0
  6  7  1  0  0  0
  7  8  1  0  0  0
  8  9  1  0  0  0
  9 10  1  0  0  0
 10 11  1  0  0  0
 11 12  1  0  0  0
 12 13  1  0  0  0
 13 14  1  0  0  0
 14 15  1  0  0  0
 15 16  1  0  0  0
 16 17  1  0  0  0
 17 18  1  0  0  0
 18 19  1  0  0  0
 19 20  1  0  0  0
 20 21  1  0  0  0
 21 22  1  0  0  0
 46 47  1  0  0  0
 47 48  1  0  0  0
 48 49  1  0  0  0
 49 50  1  0  0  0
 50 54  1  0  0  0
M  CHG 1  58  -1
M  END
> <minimizedAffinity>
-9.12951

> <CNNscore>
0.2402633429

> <CNNaffinity>
6.9535226822

> <CNN_VS>
1.6706765890

> <CNNaffinity_variance>
1.2933683395

$$$$
