/media/chris/experiments/cd1a-new-docking/inputs/ligands/1onq_ligand.pdb


 62 62  0  0  0  0  0  0  0  0999 V2000
  -36.1222   57.7166   62.8075 C   0  0  0  0  0  0  0  0  0  0  0  0
  -35.7535   56.9531   61.6318 N   0  0  0  0  0  0  0  0  0  0  0  0
  -33.4967   56.8338   61.8317 O   0  0  0  0  0  0  0  0  0  0  0  0
  -34.5276   56.5800   61.2397 C   0  0  0  0  0  0  0  0  0  0  0  0
  -36.4961   56.6739   61.0488 H   0  0  0  0  0  0  0  0  0  0  0  0
  -34.4793   55.7829   59.9701 C   0  0  0  0  0  0  0  0  0  0  0  0
  -34.4330   56.7944   58.8248 C   0  0  0  0  0  0  0  0  0  0  0  0
  -35.7307   56.7339   58.0227 C   0  0  0  0  0  0  0  0  0  0  0  0
  -36.4624   58.0422   57.8451 C   0  0  0  0  0  0  0  0  0  0  0  0
  -37.6411   58.0459   58.8128 C   0  0  0  0  0  0  0  0  0  0  0  0
  -38.0296   59.4588   59.2687 C   0  0  0  0  0  0  0  0  0  0  0  0
  -39.3847   59.5385   59.9953 C   0  0  0  0  0  0  0  0  0  0  0  0
  -40.4320   60.3707   59.2233 C   0  0  0  0  0  0  0  0  0  0  0  0
  -41.6488   59.5116   58.8677 C   0  0  0  0  0  0  0  0  0  0  0  0
  -41.9071   59.3458   57.3751 C   0  0  0  0  0  0  0  0  0  0  0  0
  -43.3205   58.8634   57.0840 C   0  0  0  0  0  0  0  0  0  0  0  0
  -44.0812   58.2612   58.2676 C   0  0  0  0  0  0  0  0  0  0  0  0
  -45.4864   57.9075   57.7997 C   0  0  0  0  0  0  0  0  0  0  0  0
  -46.5593   57.6458   58.8464 C   0  0  0  0  0  0  0  0  0  0  0  0
  -47.8980   57.2847   58.1832 C   0  0  0  0  0  0  0  0  0  0  0  0
  -47.7660   56.5242   56.8508 C   0  0  0  0  0  0  0  0  0  0  0  0
  -47.6361   55.0133   57.0281 C   0  0  0  0  0  0  0  0  0  0  0  0
  -38.0593   56.7873   61.9245 O   0  0  0  0  0  0  0  0  0  0  0  0
  -37.4786   57.1353   63.1677 C   0  0  0  0  0  0  0  0  0  0  0  0
  -37.5093   56.1190   61.4865 H   0  0  0  0  0  0  0  0  0  0  0  0
  -38.3003   58.1896   63.9130 C   0  0  0  0  0  0  0  0  0  0  0  0
  -39.6200   58.0666   64.1351 C   0  0  0  0  0  0  0  0  0  0  0  0
  -40.3702   59.1645   64.8869 C   0  0  0  0  0  0  0  0  0  0  0  0
  -41.8294   59.3378   64.4409 C   0  0  0  0  0  0  0  0  0  0  0  0
  -42.8819   59.2696   65.5628 C   0  0  0  0  0  0  0  0  0  0  0  0
  -42.7591   57.9434   66.3512 C   0  0  0  0  0  0  0  0  0  0  0  0
  -43.9849   57.0002   66.2545 C   0  0  0  0  0  0  0  0  0  0  0  0
  -44.9761   57.3635   65.1239 C   0  0  0  0  0  0  0  0  0  0  0  0
  -46.2555   58.0667   65.6266 C   0  0  0  0  0  0  0  0  0  0  0  0
  -47.3769   57.0991   66.0234 C   0  0  0  0  0  0  0  0  0  0  0  0
  -48.8008   57.5614   65.7210 C   0  0  0  0  0  0  0  0  0  0  0  0
  -48.9700   58.1960   64.3265 C   0  0  0  0  0  0  0  0  0  0  0  0
  -50.3739   58.7392   64.0202 C   0  0  0  0  0  0  0  0  0  0  0  0
  -50.7601   58.4740   62.5623 C   0  0  0  0  0  0  0  0  0  0  0  0
  -49.8315   59.0419   61.5037 C   0  0  0  0  0  0  0  0  0  0  0  0
  -36.0354   59.2525   62.6581 C   0  0  0  0  0  0  0  0  0  0  0  0
  -34.7179   59.8435   62.7932 O   0  0  0  0  0  0  0  0  0  0  0  0
  -33.0808   62.1725   62.5239 O   0  0  0  0  0  0  0  0  0  0  0  0
  -35.9908   63.8629   64.9884 O   0  0  0  0  0  0  0  0  0  0  0  0
  -35.4868   60.8828   64.8460 O   0  0  0  0  0  0  0  0  0  0  0  0
  -34.4173   60.8051   63.8726 C   0  0  0  0  0  0  0  0  0  0  0  0
  -34.1359   62.2488   63.4323 C   0  0  0  0  0  0  0  0  0  0  0  0
  -33.7129   63.1793   64.5901 C   0  0  0  0  0  0  0  0  0  0  0  0
  -34.8649   63.1984   65.5564 C   0  0  0  0  0  0  0  0  0  0  0  0
  -35.2215   61.7788   65.9588 C   0  0  0  0  0  0  0  0  0  0  0  0
  -33.3289   61.5911   61.7883 H   0  0  0  0  0  0  0  0  0  0  0  0
  -35.7410   64.7665   64.7389 H   0  0  0  0  0  0  0  0  0  0  0  0
  -36.0006   62.9016   67.9199 O   0  0  0  0  0  0  0  0  0  0  0  0
  -36.3915   62.0207   66.9099 C   0  0  0  0  0  0  0  0  0  0  0  0
  -36.7454   63.0536   68.5225 H   0  0  0  0  0  0  0  0  0  0  0  0
  -33.4622   64.5584   64.2364 O   0  0  0  0  0  0  0  0  0  0  0  0
  -31.2552   64.6687   65.5908 O   0  0  0  0  0  0  0  0  0  0  0  0
  -33.0692   66.1873   66.1318 O   0  0  0  0  0  0  0  0  0  0  0  0
  -31.7255   66.5509   64.1478 O   0  0  0  0  0  0  0  0  0  0  0  0
  -32.3458   65.5134   65.0196 S   0  0  0  0  0  0  0  0  0  0  0  0
  -31.6406   63.9862   66.1623 H   0  0  0  0  0  0  0  0  0  0  0  0
  -31.2514   66.1200   63.4194 H   0  0  0  0  0  0  0  0  0  0  0  0
  2  1  1  0  0  0
  2  4  1  0  0  0
  2  5  1  0  0  0
 41 42  1  0  0  0
 41  1  1  0  0  0
 42 46  1  0  0  0
  1 24  1  0  0  0
 23 24  1  0  0  0
 23 25  1  0  0  0
 24 26  1  0  0  0
  3  4  2  0  0  0
 26 27  2  0  0  0
 27 28  1  0  0  0
 43 47  1  0  0  0
 43 51  1  0  0  0
 28 29  1  0  0  0
 56 48  1  0  0  0
 56 60  1  0  0  0
 29 30  1  0  0  0
 57 60  1  0  0  0
 57 61  1  0  0  0
 30 31  1  0  0  0
 44 49  1  0  0  0
 44 52  1  0  0  0
 31 32  1  0  0  0
 45 46  1  0  0  0
 45 50  1  0  0  0
 32 33  1  0  0  0
 53 54  1  0  0  0
 53 55  1  0  0  0
 33 34  1  0  0  0
 34 35  1  0  0  0
 35 36  1  0  0  0
 58 60  1  0  0  0
 36 37  1  0  0  0
 59 60  1  0  0  0
 59 62  1  0  0  0
 37 38  1  0  0  0
 38 39  1  0  0  0
 39 40  1  0  0  0
  4  6  1  0  0  0
  6  7  1  0  0  0
  7  8  1  0  0  0
  8  9  1  0  0  0
  9 10  1  0  0  0
 10 11  1  0  0  0
 11 12  1  0  0  0
 12 13  1  0  0  0
 13 14  1  0  0  0
 14 15  1  0  0  0
 15 16  1  0  0  0
 16 17  1  0  0  0
 17 18  1  0  0  0
 18 19  1  0  0  0
 19 20  1  0  0  0
 20 21  1  0  0  0
 21 22  1  0  0  0
 46 47  1  0  0  0
 47 48  1  0  0  0
 48 49  1  0  0  0
 49 50  1  0  0  0
 50 54  1  0  0  0
M  CHG 1  58  -1
M  END
> <minimizedAffinity>
-9.13625

> <CNNscore>
0.5268214345

> <CNNaffinity>
7.3171195984

> <CNN_VS>
3.8548154831

> <CNNaffinity_variance>
0.8770135641

$$$$
/media/chris/experiments/cd1a-new-docking/inputs/ligands/1onq_ligand.pdb


 62 62  0  0  0  0  0  0  0  0999 V2000
  -39.0310   59.1735   64.5941 C   0  0  0  0  0  0  0  0  0  0  0  0
  -40.1850   58.8900   65.4242 N   0  0  0  0  0  0  0  0  0  0  0  0
  -40.9678   60.9711   65.8755 O   0  0  0  0  0  0  0  0  0  0  0  0
  -41.0354   59.7621   65.9827 C   0  0  0  0  0  0  0  0  0  0  0  0
  -40.3667   57.9384   65.5993 H   0  0  0  0  0  0  0  0  0  0  0  0
  -42.1432   59.1474   66.7856 C   0  0  0  0  0  0  0  0  0  0  0  0
  -42.4921   57.8254   66.1017 C   0  0  0  0  0  0  0  0  0  0  0  0
  -44.0075   57.6434   66.0610 C   0  0  0  0  0  0  0  0  0  0  0  0
  -44.7210   58.2805   64.8933 C   0  0  0  0  0  0  0  0  0  0  0  0
  -45.5565   59.4344   65.4378 C   0  0  0  0  0  0  0  0  0  0  0  0
  -46.6499   58.9684   66.4085 C   0  0  0  0  0  0  0  0  0  0  0  0
  -48.0750   59.3884   66.0045 C   0  0  0  0  0  0  0  0  0  0  0  0
  -48.2458   59.5409   64.4771 C   0  0  0  0  0  0  0  0  0  0  0  0
  -48.9332   58.3073   63.8848 C   0  0  0  0  0  0  0  0  0  0  0  0
  -50.4243   58.4676   63.6143 C   0  0  0  0  0  0  0  0  0  0  0  0
  -50.7395   58.5129   62.1264 C   0  0  0  0  0  0  0  0  0  0  0  0
  -50.2495   57.3217   61.3000 C   0  0  0  0  0  0  0  0  0  0  0  0
  -49.3494   57.8499   60.1912 C   0  0  0  0  0  0  0  0  0  0  0  0
  -48.3434   56.9021   59.5548 C   0  0  0  0  0  0  0  0  0  0  0  0
  -47.1458   57.6758   58.9810 C   0  0  0  0  0  0  0  0  0  0  0  0
  -46.8602   57.3991   57.4934 C   0  0  0  0  0  0  0  0  0  0  0  0
  -47.8864   56.4741   56.8434 C   0  0  0  0  0  0  0  0  0  0  0  0
  -37.5097   57.4187   64.5464 O   0  0  0  0  0  0  0  0  0  0  0  0
  -38.7357   57.8225   63.9654 C   0  0  0  0  0  0  0  0  0  0  0  0
  -37.6205   57.3295   65.5060 H   0  0  0  0  0  0  0  0  0  0  0  0
  -38.6293   57.9823   62.4470 C   0  0  0  0  0  0  0  0  0  0  0  0
  -38.9047   59.1337   61.8111 C   0  0  0  0  0  0  0  0  0  0  0  0
  -38.7755   59.2128   60.2912 C   0  0  0  0  0  0  0  0  0  0  0  0
  -37.7002   58.2835   59.7095 C   0  0  0  0  0  0  0  0  0  0  0  0
  -37.7527   58.0756   58.1847 C   0  0  0  0  0  0  0  0  0  0  0  0
  -36.5500   57.2281   57.7042 C   0  0  0  0  0  0  0  0  0  0  0  0
  -35.1602   57.7225   58.1795 C   0  0  0  0  0  0  0  0  0  0  0  0
  -34.0054   56.7328   57.8972 C   0  0  0  0  0  0  0  0  0  0  0  0
  -33.6967   55.7902   59.0805 C   0  0  0  0  0  0  0  0  0  0  0  0
  -34.8335   55.6920   60.1048 C   0  0  0  0  0  0  0  0  0  0  0  0
  -34.4742   56.0572   61.5436 C   0  0  0  0  0  0  0  0  0  0  0  0
  -34.8623   57.4953   61.9398 C   0  0  0  0  0  0  0  0  0  0  0  0
  -34.1832   58.0305   63.2097 C   0  0  0  0  0  0  0  0  0  0  0  0
  -32.6649   58.1122   63.0286 C   0  0  0  0  0  0  0  0  0  0  0  0
  -32.1708   58.8294   61.7848 C   0  0  0  0  0  0  0  0  0  0  0  0
  -37.8586   59.8868   65.3051 C   0  0  0  0  0  0  0  0  0  0  0  0
  -36.7077   60.2159   64.4863 O   0  0  0  0  0  0  0  0  0  0  0  0
  -34.6530   61.3724   62.8684 O   0  0  0  0  0  0  0  0  0  0  0  0
  -35.4807   64.7587   65.1592 O   0  0  0  0  0  0  0  0  0  0  0  0
  -36.1326   61.9514   66.0809 O   0  0  0  0  0  0  0  0  0  0  0  0
  -35.6718   61.1536   64.9634 C   0  0  0  0  0  0  0  0  0  0  0  0
  -35.1296   62.1467   63.9255 C   0  0  0  0  0  0  0  0  0  0  0  0
  -33.9683   63.0196   64.4497 C   0  0  0  0  0  0  0  0  0  0  0  0
  -34.5214   63.8042   65.6072 C   0  0  0  0  0  0  0  0  0  0  0  0
  -35.1346   62.8576   66.6233 C   0  0  0  0  0  0  0  0  0  0  0  0
  -35.3701   60.8165   62.5258 H   0  0  0  0  0  0  0  0  0  0  0  0
  -35.0684   65.3521   64.5120 H   0  0  0  0  0  0  0  0  0  0  0  0
  -34.6234   64.7503   67.9907 O   0  0  0  0  0  0  0  0  0  0  0  0
  -35.6334   63.8367   67.6838 C   0  0  0  0  0  0  0  0  0  0  0  0
  -34.9426   65.3710   68.6644 H   0  0  0  0  0  0  0  0  0  0  0  0
  -33.4374   63.9927   63.5218 O   0  0  0  0  0  0  0  0  0  0  0  0
  -34.0384   63.4770   61.0540 O   0  0  0  0  0  0  0  0  0  0  0  0
  -32.2183   62.2762   62.1191 O   0  0  0  0  0  0  0  0  0  0  0  0
  -31.9223   64.5826   61.4359 O   0  0  0  0  0  0  0  0  0  0  0  0
  -32.8896   63.5989   61.9997 S   0  0  0  0  0  0  0  0  0  0  0  0
  -34.6798   62.8396   61.4049 H   0  0  0  0  0  0  0  0  0  0  0  0
  -32.3520   65.4485   61.3547 H   0  0  0  0  0  0  0  0  0  0  0  0
  2  1  1  0  0  0
  2  4  1  0  0  0
  2  5  1  0  0  0
 41 42  1  0  0  0
 41  1  1  0  0  0
 42 46  1  0  0  0
  1 24  1  0  0  0
 23 24  1  0  0  0
 23 25  1  0  0  0
 24 26  1  0  0  0
  3  4  2  0  0  0
 26 27  2  0  0  0
 27 28  1  0  0  0
 43 47  1  0  0  0
 43 51  1  0  0  0
 28 29  1  0  0  0
 56 48  1  0  0  0
 56 60  1  0  0  0
 29 30  1  0  0  0
 57 60  1  0  0  0
 57 61  1  0  0  0
 30 31  1  0  0  0
 44 49  1  0  0  0
 44 52  1  0  0  0
 31 32  1  0  0  0
 45 46  1  0  0  0
 45 50  1  0  0  0
 32 33  1  0  0  0
 53 54  1  0  0  0
 53 55  1  0  0  0
 33 34  1  0  0  0
 34 35  1  0  0  0
 35 36  1  0  0  0
 58 60  1  0  0  0
 36 37  1  0  0  0
 59 60  1  0  0  0
 59 62  1  0  0  0
 37 38  1  0  0  0
 38 39  1  0  0  0
 39 40  1  0  0  0
  4  6  1  0  0  0
  6  7  1  0  0  0
  7  8  1  0  0  0
  8  9  1  0  0  0
  9 10  1  0  0  0
 10 11  1  0  0  0
 11 12  1  0  0  0
 12 13  1  0  0  0
 13 14  1  0  0  0
 14 15  1  0  0  0
 15 16  1  0  0  0
 16 17  1  0  0  0
 17 18  1  0  0  0
 18 19  1  0  0  0
 19 20  1  0  0  0
 20 21  1  0  0  0
 21 22  1  0  0  0
 46 47  1  0  0  0
 47 48  1  0  0  0
 48 49  1  0  0  0
 49 50  1  0  0  0
 50 54  1  0  0  0
M  CHG 1  58  -1
M  END
> <minimizedAffinity>
-9.71679

> <CNNscore>
0.4495151341

> <CNNaffinity>
7.3778777122

> <CNN_VS>
3.3164677620

> <CNNaffinity_variance>
0.9388784170

$$$$
/media/chris/experiments/cd1a-new-docking/inputs/ligands/1onq_ligand.pdb


 62 62  0  0  0  0  0  0  0  0999 V2000
  -38.0681   59.0687   61.0153 C   0  0  0  0  0  0  0  0  0  0  0  0
  -36.6849   58.6359   60.9942 N   0  0  0  0  0  0  0  0  0  0  0  0
  -36.8857   56.4273   60.5154 O   0  0  0  0  0  0  0  0  0  0  0  0
  -36.2072   57.4065   60.7578 C   0  0  0  0  0  0  0  0  0  0  0  0
  -36.0127   59.3319   61.1762 H   0  0  0  0  0  0  0  0  0  0  0  0
  -34.7129   57.2840   60.7994 C   0  0  0  0  0  0  0  0  0  0  0  0
  -34.3608   56.7430   62.1852 C   0  0  0  0  0  0  0  0  0  0  0  0
  -33.8952   57.8833   63.0874 C   0  0  0  0  0  0  0  0  0  0  0  0
  -34.9277   58.4424   64.0360 C   0  0  0  0  0  0  0  0  0  0  0  0
  -35.7925   57.2803   64.5130 C   0  0  0  0  0  0  0  0  0  0  0  0
  -37.2814   57.4819   64.2007 C   0  0  0  0  0  0  0  0  0  0  0  0
  -38.0656   58.2137   65.3052 C   0  0  0  0  0  0  0  0  0  0  0  0
  -39.4918   58.6116   64.8659 C   0  0  0  0  0  0  0  0  0  0  0  0
  -39.9881   59.8165   65.6703 C   0  0  0  0  0  0  0  0  0  0  0  0
  -41.4890   59.8428   65.9326 C   0  0  0  0  0  0  0  0  0  0  0  0
  -42.1591   58.5218   65.5847 C   0  0  0  0  0  0  0  0  0  0  0  0
  -42.8821   57.8133   66.7324 C   0  0  0  0  0  0  0  0  0  0  0  0
  -43.8139   56.7679   66.1344 C   0  0  0  0  0  0  0  0  0  0  0  0
  -44.8898   57.2225   65.1591 C   0  0  0  0  0  0  0  0  0  0  0  0
  -46.2892   57.0784   65.7779 C   0  0  0  0  0  0  0  0  0  0  0  0
  -46.8478   58.3705   66.4019 C   0  0  0  0  0  0  0  0  0  0  0  0
  -46.6006   59.6104   65.5458 C   0  0  0  0  0  0  0  0  0  0  0  0
  -37.5000   60.1620   59.0460 O   0  0  0  0  0  0  0  0  0  0  0  0
  -38.4005   59.1868   59.5377 C   0  0  0  0  0  0  0  0  0  0  0  0
  -36.5892   59.8503   59.1651 H   0  0  0  0  0  0  0  0  0  0  0  0
  -39.8605   59.6179   59.3794 C   0  0  0  0  0  0  0  0  0  0  0  0
  -40.6206   59.2572   58.3315 C   0  0  0  0  0  0  0  0  0  0  0  0
  -42.0706   59.7299   58.2454 C   0  0  0  0  0  0  0  0  0  0  0  0
  -43.0034   58.7460   57.5243 C   0  0  0  0  0  0  0  0  0  0  0  0
  -44.1921   58.2251   58.3531 C   0  0  0  0  0  0  0  0  0  0  0  0
  -45.4346   58.0096   57.4558 C   0  0  0  0  0  0  0  0  0  0  0  0
  -46.7912   57.9651   58.2037 C   0  0  0  0  0  0  0  0  0  0  0  0
  -47.3825   56.5441   58.3592 C   0  0  0  0  0  0  0  0  0  0  0  0
  -48.4743   56.4452   59.4464 C   0  0  0  0  0  0  0  0  0  0  0  0
  -49.7156   57.2968   59.1547 C   0  0  0  0  0  0  0  0  0  0  0  0
  -50.7151   57.4414   60.3004 C   0  0  0  0  0  0  0  0  0  0  0  0
  -50.0615   57.5312   61.6935 C   0  0  0  0  0  0  0  0  0  0  0  0
  -50.0373   58.9353   62.3162 C   0  0  0  0  0  0  0  0  0  0  0  0
  -50.8900   58.9880   63.5870 C   0  0  0  0  0  0  0  0  0  0  0  0
  -50.2406   58.4700   64.8580 C   0  0  0  0  0  0  0  0  0  0  0  0
  -38.3672   60.2993   61.9013 C   0  0  0  0  0  0  0  0  0  0  0  0
  -37.4502   61.4173   61.7888 O   0  0  0  0  0  0  0  0  0  0  0  0
  -35.5529   63.5563   61.7427 O   0  0  0  0  0  0  0  0  0  0  0  0
  -36.7921   64.0438   65.6957 O   0  0  0  0  0  0  0  0  0  0  0  0
  -37.0938   61.4375   64.1884 O   0  0  0  0  0  0  0  0  0  0  0  0
  -36.5378   61.7730   62.8938 C   0  0  0  0  0  0  0  0  0  0  0  0
  -36.1217   63.2486   62.9780 C   0  0  0  0  0  0  0  0  0  0  0  0
  -35.0769   63.5367   64.0783 C   0  0  0  0  0  0  0  0  0  0  0  0
  -35.7228   63.1551   65.3816 C   0  0  0  0  0  0  0  0  0  0  0  0
  -36.2151   61.7209   65.3105 C   0  0  0  0  0  0  0  0  0  0  0  0
  -36.1961   63.3812   61.0381 H   0  0  0  0  0  0  0  0  0  0  0  0
  -36.4559   64.9529   65.7359 H   0  0  0  0  0  0  0  0  0  0  0  0
  -36.0986   62.2789   67.6318 O   0  0  0  0  0  0  0  0  0  0  0  0
  -36.8310   61.5452   66.6968 C   0  0  0  0  0  0  0  0  0  0  0  0
  -36.4917   62.1658   68.5114 H   0  0  0  0  0  0  0  0  0  0  0  0
  -34.6695   64.9164   64.2206 O   0  0  0  0  0  0  0  0  0  0  0  0
  -32.2314   64.1732   64.6908 O   0  0  0  0  0  0  0  0  0  0  0  0
  -33.1547   66.0745   65.8833 O   0  0  0  0  0  0  0  0  0  0  0  0
  -32.5095   66.2907   63.5571 O   0  0  0  0  0  0  0  0  0  0  0  0
  -33.1079   65.3758   64.5702 S   0  0  0  0  0  0  0  0  0  0  0  0
  -32.6057   63.5650   65.3472 H   0  0  0  0  0  0  0  0  0  0  0  0
  -32.4751   65.8429   62.6974 H   0  0  0  0  0  0  0  0  0  0  0  0
  2  1  1  0  0  0
  2  4  1  0  0  0
  2  5  1  0  0  0
 41 42  1  0  0  0
 41  1  1  0  0  0
 42 46  1  0  0  0
  1 24  1  0  0  0
 23 24  1  0  0  0
 23 25  1  0  0  0
 24 26  1  0  0  0
  3  4  2  0  0  0
 26 27  2  0  0  0
 27 28  1  0  0  0
 43 47  1  0  0  0
 43 51  1  0  0  0
 28 29  1  0  0  0
 56 48  1  0  0  0
 56 60  1  0  0  0
 29 30  1  0  0  0
 57 60  1  0  0  0
 57 61  1  0  0  0
 30 31  1  0  0  0
 44 49  1  0  0  0
 44 52  1  0  0  0
 31 32  1  0  0  0
 45 46  1  0  0  0
 45 50  1  0  0  0
 32 33  1  0  0  0
 53 54  1  0  0  0
 53 55  1  0  0  0
 33 34  1  0  0  0
 34 35  1  0  0  0
 35 36  1  0  0  0
 58 60  1  0  0  0
 36 37  1  0  0  0
 59 60  1  0  0  0
 59 62  1  0  0  0
 37 38  1  0  0  0
 38 39  1  0  0  0
 39 40  1  0  0  0
  4  6  1  0  0  0
  6  7  1  0  0  0
  7  8  1  0  0  0
  8  9  1  0  0  0
  9 10  1  0  0  0
 10 11  1  0  0  0
 11 12  1  0  0  0
 12 13  1  0  0  0
 13 14  1  0  0  0
 14 15  1  0  0  0
 15 16  1  0  0  0
 16 17  1  0  0  0
 17 18  1  0  0  0
 18 19  1  0  0  0
 19 20  1  0  0  0
 20 21  1  0  0  0
 21 22  1  0  0  0
 46 47  1  0  0  0
 47 48  1  0  0  0
 48 49  1  0  0  0
 49 50  1  0  0  0
 50 54  1  0  0  0
M  CHG 1  58  -1
M  END
> <minimizedAffinity>
-8.65246

> <CNNscore>
0.3982044458

> <CNNaffinity>
7.2774353027

> <CNN_VS>
2.8979070187

> <CNNaffinity_variance>
0.8985736966

$$$$
/media/chris/experiments/cd1a-new-docking/inputs/ligands/1onq_ligand.pdb


 62 62  0  0  0  0  0  0  0  0999 V2000
  -39.8227   59.5847   62.7391 C   0  0  0  0  0  0  0  0  0  0  0  0
  -40.3400   58.9259   63.9222 N   0  0  0  0  0  0  0  0  0  0  0  0
  -41.0384   60.6825   65.1767 O   0  0  0  0  0  0  0  0  0  0  0  0
  -40.8864   59.4881   65.0089 C   0  0  0  0  0  0  0  0  0  0  0  0
  -40.2828   57.9430   63.9279 H   0  0  0  0  0  0  0  0  0  0  0  0
  -41.3361   58.5251   66.0672 C   0  0  0  0  0  0  0  0  0  0  0  0
  -42.5763   59.1412   66.7150 C   0  0  0  0  0  0  0  0  0  0  0  0
  -43.8261   58.3833   66.2738 C   0  0  0  0  0  0  0  0  0  0  0  0
  -44.6955   59.0754   65.2522 C   0  0  0  0  0  0  0  0  0  0  0  0
  -45.6486   58.0333   64.6764 C   0  0  0  0  0  0  0  0  0  0  0  0
  -47.1240   58.3899   64.9027 C   0  0  0  0  0  0  0  0  0  0  0  0
  -47.3878   59.8938   65.1005 C   0  0  0  0  0  0  0  0  0  0  0  0
  -48.7694   60.3358   64.5702 C   0  0  0  0  0  0  0  0  0  0  0  0
  -49.8481   59.3223   64.9629 C   0  0  0  0  0  0  0  0  0  0  0  0
  -51.1120   59.3635   64.1126 C   0  0  0  0  0  0  0  0  0  0  0  0
  -50.8043   59.4199   62.6236 C   0  0  0  0  0  0  0  0  0  0  0  0
  -50.9446   58.1016   61.8589 C   0  0  0  0  0  0  0  0  0  0  0  0
  -49.6023   57.7793   61.2163 C   0  0  0  0  0  0  0  0  0  0  0  0
  -49.4820   56.5192   60.3718 C   0  0  0  0  0  0  0  0  0  0  0  0
  -49.0577   56.8592   58.9342 C   0  0  0  0  0  0  0  0  0  0  0  0
  -47.6023   56.4894   58.5935 C   0  0  0  0  0  0  0  0  0  0  0  0
  -47.1250   57.0760   57.2671 C   0  0  0  0  0  0  0  0  0  0  0  0
  -37.8125   58.4469   62.9853 O   0  0  0  0  0  0  0  0  0  0  0  0
  -38.9353   58.5151   62.1260 C   0  0  0  0  0  0  0  0  0  0  0  0
  -38.1003   58.1813   63.8728 H   0  0  0  0  0  0  0  0  0  0  0  0
  -38.5491   58.9305   60.7044 C   0  0  0  0  0  0  0  0  0  0  0  0
  -37.9317   58.1044   59.8427 C   0  0  0  0  0  0  0  0  0  0  0  0
  -37.5781   58.5949   58.4400 C   0  0  0  0  0  0  0  0  0  0  0  0
  -36.3851   57.8631   57.8079 C   0  0  0  0  0  0  0  0  0  0  0  0
  -36.3902   56.3302   57.9535 C   0  0  0  0  0  0  0  0  0  0  0  0
  -35.0717   55.8352   58.5953 C   0  0  0  0  0  0  0  0  0  0  0  0
  -34.3868   56.8382   59.5579 C   0  0  0  0  0  0  0  0  0  0  0  0
  -34.7071   56.6011   61.0525 C   0  0  0  0  0  0  0  0  0  0  0  0
  -33.5477   56.9781   61.9999 C   0  0  0  0  0  0  0  0  0  0  0  0
  -32.7199   58.1752   61.5172 C   0  0  0  0  0  0  0  0  0  0  0  0
  -31.9601   58.9447   62.5957 C   0  0  0  0  0  0  0  0  0  0  0  0
  -31.2408   60.2051   62.0761 C   0  0  0  0  0  0  0  0  0  0  0  0
  -31.7855   61.5378   62.6121 C   0  0  0  0  0  0  0  0  0  0  0  0
  -31.3765   62.7029   61.7066 C   0  0  0  0  0  0  0  0  0  0  0  0
  -32.3738   63.8406   61.5781 C   0  0  0  0  0  0  0  0  0  0  0  0
  -39.1858   60.9730   62.9752 C   0  0  0  0  0  0  0  0  0  0  0  0
  -37.8001   61.1269   62.5756 O   0  0  0  0  0  0  0  0  0  0  0  0
  -35.8657   63.1626   62.0362 O   0  0  0  0  0  0  0  0  0  0  0  0
  -36.7090   64.2734   65.9674 O   0  0  0  0  0  0  0  0  0  0  0  0
  -37.2153   61.4869   64.9024 O   0  0  0  0  0  0  0  0  0  0  0  0
  -36.7780   61.6068   63.5269 C   0  0  0  0  0  0  0  0  0  0  0  0
  -36.3208   63.0619   63.3503 C   0  0  0  0  0  0  0  0  0  0  0  0
  -35.1690   63.4693   64.2951 C   0  0  0  0  0  0  0  0  0  0  0  0
  -35.6960   63.3084   65.6943 C   0  0  0  0  0  0  0  0  0  0  0  0
  -36.2268   61.8990   65.8845 C   0  0  0  0  0  0  0  0  0  0  0  0
  -36.5773   62.9100   61.4274 H   0  0  0  0  0  0  0  0  0  0  0  0
  -36.3489   65.1651   65.8399 H   0  0  0  0  0  0  0  0  0  0  0  0
  -35.8222   62.7109   68.0960 O   0  0  0  0  0  0  0  0  0  0  0  0
  -36.7112   61.9528   67.3317 C   0  0  0  0  0  0  0  0  0  0  0  0
  -36.1321   62.7435   69.0147 H   0  0  0  0  0  0  0  0  0  0  0  0
  -34.7171   64.8385   64.1909 O   0  0  0  0  0  0  0  0  0  0  0  0
  -32.3036   64.2073   64.8936 O   0  0  0  0  0  0  0  0  0  0  0  0
  -33.4927   65.9353   66.1140 O   0  0  0  0  0  0  0  0  0  0  0  0
  -32.5983   66.3959   63.9090 O   0  0  0  0  0  0  0  0  0  0  0  0
  -33.2436   65.3599   64.7644 S   0  0  0  0  0  0  0  0  0  0  0  0
  -32.7073   63.5215   65.4481 H   0  0  0  0  0  0  0  0  0  0  0  0
  -32.4322   66.0290   63.0265 H   0  0  0  0  0  0  0  0  0  0  0  0
  2  1  1  0  0  0
  2  4  1  0  0  0
  2  5  1  0  0  0
 41 42  1  0  0  0
 41  1  1  0  0  0
 42 46  1  0  0  0
  1 24  1  0  0  0
 23 24  1  0  0  0
 23 25  1  0  0  0
 24 26  1  0  0  0
  3  4  2  0  0  0
 26 27  2  0  0  0
 27 28  1  0  0  0
 43 47  1  0  0  0
 43 51  1  0  0  0
 28 29  1  0  0  0
 56 48  1  0  0  0
 56 60  1  0  0  0
 29 30  1  0  0  0
 57 60  1  0  0  0
 57 61  1  0  0  0
 30 31  1  0  0  0
 44 49  1  0  0  0
 44 52  1  0  0  0
 31 32  1  0  0  0
 45 46  1  0  0  0
 45 50  1  0  0  0
 32 33  1  0  0  0
 53 54  1  0  0  0
 53 55  1  0  0  0
 33 34  1  0  0  0
 34 35  1  0  0  0
 35 36  1  0  0  0
 58 60  1  0  0  0
 36 37  1  0  0  0
 59 60  1  0  0  0
 59 62  1  0  0  0
 37 38  1  0  0  0
 38 39  1  0  0  0
 39 40  1  0  0  0
  4  6  1  0  0  0
  6  7  1  0  0  0
  7  8  1  0  0  0
  8  9  1  0  0  0
  9 10  1  0  0  0
 10 11  1  0  0  0
 11 12  1  0  0  0
 12 13  1  0  0  0
 13 14  1  0  0  0
 14 15  1  0  0  0
 15 16  1  0  0  0
 16 17  1  0  0  0
 17 18  1  0  0  0
 18 19  1  0  0  0
 19 20  1  0  0  0
 20 21  1  0  0  0
 21 22  1  0  0  0
 46 47  1  0  0  0
 47 48  1  0  0  0
 48 49  1  0  0  0
 49 50  1  0  0  0
 50 54  1  0  0  0
M  CHG 1  58  -1
M  END
> <minimizedAffinity>
-9.15001

> <CNNscore>
0.3539814651

> <CNNaffinity>
7.0836157799

> <CNN_VS>
2.5074687004

> <CNNaffinity_variance>
0.7178316116

$$$$
/media/chris/experiments/cd1a-new-docking/inputs/ligands/1onq_ligand.pdb


 62 62  0  0  0  0  0  0  0  0999 V2000
  -39.8159   58.9246   64.5200 C   0  0  0  0  0  0  0  0  0  0  0  0
  -41.0018   58.2741   65.0412 N   0  0  0  0  0  0  0  0  0  0  0  0
  -41.6221   59.6827   66.7081 O   0  0  0  0  0  0  0  0  0  0  0  0
  -41.7881   58.6744   66.0498 C   0  0  0  0  0  0  0  0  0  0  0  0
  -41.2619   57.4337   64.5993 H   0  0  0  0  0  0  0  0  0  0  0  0
  -42.9540   57.7777   66.3438 C   0  0  0  0  0  0  0  0  0  0  0  0
  -44.1790   58.6846   66.4626 C   0  0  0  0  0  0  0  0  0  0  0  0
  -45.4550   57.8599   66.3116 C   0  0  0  0  0  0  0  0  0  0  0  0
  -46.3323   58.2051   65.1327 C   0  0  0  0  0  0  0  0  0  0  0  0
  -46.8142   59.6397   65.3213 C   0  0  0  0  0  0  0  0  0  0  0  0
  -48.3444   59.7550   65.3289 C   0  0  0  0  0  0  0  0  0  0  0  0
  -49.0712   58.4924   65.8269 C   0  0  0  0  0  0  0  0  0  0  0  0
  -50.4814   58.3318   65.2180 C   0  0  0  0  0  0  0  0  0  0  0  0
  -50.8463   59.5544   64.3711 C   0  0  0  0  0  0  0  0  0  0  0  0
  -51.1737   59.2546   62.9133 C   0  0  0  0  0  0  0  0  0  0  0  0
  -50.2173   58.2403   62.3037 C   0  0  0  0  0  0  0  0  0  0  0  0
  -49.6037   58.6227   60.9548 C   0  0  0  0  0  0  0  0  0  0  0  0
  -50.0179   57.5757   59.9298 C   0  0  0  0  0  0  0  0  0  0  0  0
  -49.3189   56.2242   59.9445 C   0  0  0  0  0  0  0  0  0  0  0  0
  -47.8959   56.3349   59.3746 C   0  0  0  0  0  0  0  0  0  0  0  0
  -47.6864   55.6070   58.0339 C   0  0  0  0  0  0  0  0  0  0  0  0
  -47.9041   56.5053   56.8186 C   0  0  0  0  0  0  0  0  0  0  0  0
  -38.1124   59.1080   66.0885 O   0  0  0  0  0  0  0  0  0  0  0  0
  -38.6933   58.1656   65.2063 C   0  0  0  0  0  0  0  0  0  0  0  0
  -38.7745   59.3944   66.7371 H   0  0  0  0  0  0  0  0  0  0  0  0
  -37.6981   57.6713   64.1538 C   0  0  0  0  0  0  0  0  0  0  0  0
  -36.3659   57.7575   64.3086 C   0  0  0  0  0  0  0  0  0  0  0  0
  -35.4378   57.2418   63.2104 C   0  0  0  0  0  0  0  0  0  0  0  0
  -34.1319   58.0383   63.0754 C   0  0  0  0  0  0  0  0  0  0  0  0
  -33.3875   57.8761   61.7372 C   0  0  0  0  0  0  0  0  0  0  0  0
  -33.4097   56.4002   61.2718 C   0  0  0  0  0  0  0  0  0  0  0  0
  -34.0355   56.1560   59.8753 C   0  0  0  0  0  0  0  0  0  0  0  0
  -35.2839   55.2428   59.8915 C   0  0  0  0  0  0  0  0  0  0  0  0
  -36.2720   55.5270   58.7396 C   0  0  0  0  0  0  0  0  0  0  0  0
  -36.0704   56.8947   58.0762 C   0  0  0  0  0  0  0  0  0  0  0  0
  -37.3221   57.7555   57.9187 C   0  0  0  0  0  0  0  0  0  0  0  0
  -37.4443   58.8799   58.9659 C   0  0  0  0  0  0  0  0  0  0  0  0
  -37.7338   58.4106   60.3998 C   0  0  0  0  0  0  0  0  0  0  0  0
  -38.9767   59.1040   60.9649 C   0  0  0  0  0  0  0  0  0  0  0  0
  -39.7250   60.0255   60.0181 C   0  0  0  0  0  0  0  0  0  0  0  0
  -39.7951   60.4655   64.6391 C   0  0  0  0  0  0  0  0  0  0  0  0
  -38.8936   61.1723   63.7497 O   0  0  0  0  0  0  0  0  0  0  0  0
  -36.7709   61.7305   61.9168 O   0  0  0  0  0  0  0  0  0  0  0  0
  -35.6009   64.4024   64.8987 O   0  0  0  0  0  0  0  0  0  0  0  0
  -37.3659   62.0051   65.4403 O   0  0  0  0  0  0  0  0  0  0  0  0
  -37.4859   61.4165   64.1225 C   0  0  0  0  0  0  0  0  0  0  0  0
  -36.6837   62.3216   63.1766 C   0  0  0  0  0  0  0  0  0  0  0  0
  -35.1908   62.4439   63.5529 C   0  0  0  0  0  0  0  0  0  0  0  0
  -35.1522   63.0497   64.9287 C   0  0  0  0  0  0  0  0  0  0  0  0
  -35.9974   62.2208   65.8789 C   0  0  0  0  0  0  0  0  0  0  0  0
  -37.7033   61.6454   61.6634 H   0  0  0  0  0  0  0  0  0  0  0  0
  -35.0480   64.9130   64.2866 H   0  0  0  0  0  0  0  0  0  0  0  0
  -34.4857   63.0218   67.5480 O   0  0  0  0  0  0  0  0  0  0  0  0
  -35.8330   62.9976   67.1833 C   0  0  0  0  0  0  0  0  0  0  0  0
  -34.3838   63.5157   68.3767 H   0  0  0  0  0  0  0  0  0  0  0  0
  -34.3932   63.3073   62.7112 O   0  0  0  0  0  0  0  0  0  0  0  0
  -32.5134   61.6271   62.1106 O   0  0  0  0  0  0  0  0  0  0  0  0
  -32.0633   63.4124   63.6915 O   0  0  0  0  0  0  0  0  0  0  0  0
  -32.2209   63.8938   61.3214 O   0  0  0  0  0  0  0  0  0  0  0  0
  -32.7706   63.0627   62.4298 S   0  0  0  0  0  0  0  0  0  0  0  0
  -32.8650   61.0697   62.8223 H   0  0  0  0  0  0  0  0  0  0  0  0
  -32.6768   63.6721   60.4943 H   0  0  0  0  0  0  0  0  0  0  0  0
  2  1  1  0  0  0
  2  4  1  0  0  0
  2  5  1  0  0  0
 41 42  1  0  0  0
 41  1  1  0  0  0
 42 46  1  0  0  0
  1 24  1  0  0  0
 23 24  1  0  0  0
 23 25  1  0  0  0
 24 26  1  0  0  0
  3  4  2  0  0  0
 26 27  2  0  0  0
 27 28  1  0  0  0
 43 47  1  0  0  0
 43 51  1  0  0  0
 28 29  1  0  0  0
 56 48  1  0  0  0
 56 60  1  0  0  0
 29 30  1  0  0  0
 57 60  1  0  0  0
 57 61  1  0  0  0
 30 31  1  0  0  0
 44 49  1  0  0  0
 44 52  1  0  0  0
 31 32  1  0  0  0
 45 46  1  0  0  0
 45 50  1  0  0  0
 32 33  1  0  0  0
 53 54  1  0  0  0
 53 55  1  0  0  0
 33 34  1  0  0  0
 34 35  1  0  0  0
 35 36  1  0  0  0
 58 60  1  0  0  0
 36 37  1  0  0  0
 59 60  1  0  0  0
 59 62  1  0  0  0
 37 38  1  0  0  0
 38 39  1  0  0  0
 39 40  1  0  0  0
  4  6  1  0  0  0
  6  7  1  0  0  0
  7  8  1  0  0  0
  8  9  1  0  0  0
  9 10  1  0  0  0
 10 11  1  0  0  0
 11 12  1  0  0  0
 12 13  1  0  0  0
 13 14  1  0  0  0
 14 15  1  0  0  0
 15 16  1  0  0  0
 16 17  1  0  0  0
 17 18  1  0  0  0
 18 19  1  0  0  0
 19 20  1  0  0  0
 20 21  1  0  0  0
 21 22  1  0  0  0
 46 47  1  0  0  0
 47 48  1  0  0  0
 48 49  1  0  0  0
 49 50  1  0  0  0
 50 54  1  0  0  0
M  CHG 1  58  -1
M  END
> <minimizedAffinity>
-9.84988

> <CNNscore>
0.3310907185

> <CNNaffinity>
7.2615804672

> <CNN_VS>
2.4042418003

> <CNNaffinity_variance>
1.1657015085

$$$$
/media/chris/experiments/cd1a-new-docking/inputs/ligands/1onq_ligand.pdb


 62 62  0  0  0  0  0  0  0  0999 V2000
  -37.4457   58.1151   63.9157 C   0  0  0  0  0  0  0  0  0  0  0  0
  -36.9519   57.3298   62.8019 N   0  0  0  0  0  0  0  0  0  0  0  0
  -35.4719   58.7530   61.8368 O   0  0  0  0  0  0  0  0  0  0  0  0
  -36.0436   57.6811   61.8815 C   0  0  0  0  0  0  0  0  0  0  0  0
  -37.3311   56.4259   62.7102 H   0  0  0  0  0  0  0  0  0  0  0  0
  -35.7384   56.6320   60.8539 C   0  0  0  0  0  0  0  0  0  0  0  0
  -36.0321   57.2610   59.4919 C   0  0  0  0  0  0  0  0  0  0  0  0
  -37.5223   57.5709   59.3710 C   0  0  0  0  0  0  0  0  0  0  0  0
  -37.8785   58.8386   58.6331 C   0  0  0  0  0  0  0  0  0  0  0  0
  -38.3413   59.8593   59.6674 C   0  0  0  0  0  0  0  0  0  0  0  0
  -39.8013   59.6527   60.0924 C   0  0  0  0  0  0  0  0  0  0  0  0
  -40.8348   60.2012   59.0916 C   0  0  0  0  0  0  0  0  0  0  0  0
  -41.3268   59.1331   58.0904 C   0  0  0  0  0  0  0  0  0  0  0  0
  -42.7224   59.4851   57.5676 C   0  0  0  0  0  0  0  0  0  0  0  0
  -43.6668   58.3007   57.4020 C   0  0  0  0  0  0  0  0  0  0  0  0
  -45.1038   58.6545   57.7554 C   0  0  0  0  0  0  0  0  0  0  0  0
  -45.9494   57.5212   58.3409 C   0  0  0  0  0  0  0  0  0  0  0  0
  -46.9211   57.0493   57.2678 C   0  0  0  0  0  0  0  0  0  0  0  0
  -48.1957   56.3392   57.6995 C   0  0  0  0  0  0  0  0  0  0  0  0
  -48.4646   56.5541   59.1973 C   0  0  0  0  0  0  0  0  0  0  0  0
  -49.5782   57.5716   59.5067 C   0  0  0  0  0  0  0  0  0  0  0  0
  -50.5941   57.0633   60.5271 C   0  0  0  0  0  0  0  0  0  0  0  0
  -38.4649   60.1876   63.6670 O   0  0  0  0  0  0  0  0  0  0  0  0
  -38.6432   58.8289   63.3123 C   0  0  0  0  0  0  0  0  0  0  0  0
  -37.6407   60.5182   63.2765 H   0  0  0  0  0  0  0  0  0  0  0  0
  -39.9303   58.2440   63.8986 C   0  0  0  0  0  0  0  0  0  0  0  0
  -40.3329   58.4782   65.1592 C   0  0  0  0  0  0  0  0  0  0  0  0
  -41.6309   57.8563   65.6709 C   0  0  0  0  0  0  0  0  0  0  0  0
  -42.3020   58.6564   66.7968 C   0  0  0  0  0  0  0  0  0  0  0  0
  -43.7741   59.0388   66.5568 C   0  0  0  0  0  0  0  0  0  0  0  0
  -44.1236   58.9596   65.0511 C   0  0  0  0  0  0  0  0  0  0  0  0
  -45.2836   57.9973   64.6908 C   0  0  0  0  0  0  0  0  0  0  0  0
  -45.4326   56.7962   65.6541 C   0  0  0  0  0  0  0  0  0  0  0  0
  -46.7116   56.8519   66.5173 C   0  0  0  0  0  0  0  0  0  0  0  0
  -47.6837   57.9656   66.1101 C   0  0  0  0  0  0  0  0  0  0  0  0
  -49.1407   57.5489   65.9204 C   0  0  0  0  0  0  0  0  0  0  0  0
  -50.0178   58.6258   65.2518 C   0  0  0  0  0  0  0  0  0  0  0  0
  -50.0387   58.5926   63.7161 C   0  0  0  0  0  0  0  0  0  0  0  0
  -49.4895   59.8965   63.1304 C   0  0  0  0  0  0  0  0  0  0  0  0
  -48.6896   60.7766   64.0744 C   0  0  0  0  0  0  0  0  0  0  0  0
  -36.3930   58.9933   64.6295 C   0  0  0  0  0  0  0  0  0  0  0  0
  -36.0155   60.2242   63.9619 O   0  0  0  0  0  0  0  0  0  0  0  0
  -33.4587   61.0883   63.0168 O   0  0  0  0  0  0  0  0  0  0  0  0
  -34.8141   64.8087   64.3286 O   0  0  0  0  0  0  0  0  0  0  0  0
  -35.9207   62.1940   65.3748 O   0  0  0  0  0  0  0  0  0  0  0  0
  -35.1523   61.2214   64.6258 C   0  0  0  0  0  0  0  0  0  0  0  0
  -34.2225   62.0279   63.7080 C   0  0  0  0  0  0  0  0  0  0  0  0
  -33.2624   62.9682   64.4693 C   0  0  0  0  0  0  0  0  0  0  0  0
  -34.1318   63.9349   65.2248 C   0  0  0  0  0  0  0  0  0  0  0  0
  -35.1176   63.1711   66.0903 C   0  0  0  0  0  0  0  0  0  0  0  0
  -34.0461   60.4879   62.5317 H   0  0  0  0  0  0  0  0  0  0  0  0
  -34.1665   65.2858   63.7864 H   0  0  0  0  0  0  0  0  0  0  0  0
  -36.3900   63.8940   67.9802 O   0  0  0  0  0  0  0  0  0  0  0  0
  -35.8903   64.3134   66.7459 C   0  0  0  0  0  0  0  0  0  0  0  0
  -36.8803   64.6213   68.3946 H   0  0  0  0  0  0  0  0  0  0  0  0
  -32.3824   63.7731   63.6522 O   0  0  0  0  0  0  0  0  0  0  0  0
  -31.6225   62.5214   61.5137 O   0  0  0  0  0  0  0  0  0  0  0  0
  -31.6778   64.9475   61.5250 O   0  0  0  0  0  0  0  0  0  0  0  0
  -33.7399   63.6817   61.3842 O   0  0  0  0  0  0  0  0  0  0  0  0
  -32.3778   63.7187   61.9882 S   0  0  0  0  0  0  0  0  0  0  0  0
  -30.7316   62.5283   61.8972 H   0  0  0  0  0  0  0  0  0  0  0  0
  -34.2036   62.8831   61.6812 H   0  0  0  0  0  0  0  0  0  0  0  0
  2  1  1  0  0  0
  2  4  1  0  0  0
  2  5  1  0  0  0
 41 42  1  0  0  0
 41  1  1  0  0  0
 42 46  1  0  0  0
  1 24  1  0  0  0
 23 24  1  0  0  0
 23 25  1  0  0  0
 24 26  1  0  0  0
  3  4  2  0  0  0
 26 27  2  0  0  0
 27 28  1  0  0  0
 43 47  1  0  0  0
 43 51  1  0  0  0
 28 29  1  0  0  0
 56 48  1  0  0  0
 56 60  1  0  0  0
 29 30  1  0  0  0
 57 60  1  0  0  0
 57 61  1  0  0  0
 30 31  1  0  0  0
 44 49  1  0  0  0
 44 52  1  0  0  0
 31 32  1  0  0  0
 45 46  1  0  0  0
 45 50  1  0  0  0
 32 33  1  0  0  0
 53 54  1  0  0  0
 53 55  1  0  0  0
 33 34  1  0  0  0
 34 35  1  0  0  0
 35 36  1  0  0  0
 58 60  1  0  0  0
 36 37  1  0  0  0
 59 60  1  0  0  0
 59 62  1  0  0  0
 37 38  1  0  0  0
 38 39  1  0  0  0
 39 40  1  0  0  0
  4  6  1  0  0  0
  6  7  1  0  0  0
  7  8  1  0  0  0
  8  9  1  0  0  0
  9 10  1  0  0  0
 10 11  1  0  0  0
 11 12  1  0  0  0
 12 13  1  0  0  0
 13 14  1  0  0  0
 14 15  1  0  0  0
 15 16  1  0  0  0
 16 17  1  0  0  0
 17 18  1  0  0  0
 18 19  1  0  0  0
 19 20  1  0  0  0
 20 21  1  0  0  0
 21 22  1  0  0  0
 46 47  1  0  0  0
 47 48  1  0  0  0
 48 49  1  0  0  0
 49 50  1  0  0  0
 50 54  1  0  0  0
M  CHG 1  58  -1
M  END
> <minimizedAffinity>
-8.83337

> <CNNscore>
0.2888418138

> <CNNaffinity>
6.9991731644

> <CNN_VS>
2.0216538906

> <CNNaffinity_variance>
0.7320832014

$$$$
/media/chris/experiments/cd1a-new-docking/inputs/ligands/1onq_ligand.pdb


 62 62  0  0  0  0  0  0  0  0999 V2000
  -39.0278   60.5964   62.2063 C   0  0  0  0  0  0  0  0  0  0  0  0
  -39.6561   59.6456   63.1021 N   0  0  0  0  0  0  0  0  0  0  0  0
  -40.7430   61.0084   64.5544 O   0  0  0  0  0  0  0  0  0  0  0  0
  -40.4333   59.8996   64.1638 C   0  0  0  0  0  0  0  0  0  0  0  0
  -39.4915   58.6950   62.9061 H   0  0  0  0  0  0  0  0  0  0  0  0
  -40.9409   58.6876   64.8870 C   0  0  0  0  0  0  0  0  0  0  0  0
  -42.1308   59.1511   65.7274 C   0  0  0  0  0  0  0  0  0  0  0  0
  -42.9337   57.9436   66.2054 C   0  0  0  0  0  0  0  0  0  0  0  0
  -44.2964   57.7640   65.5817 C   0  0  0  0  0  0  0  0  0  0  0  0
  -44.8428   59.1513   65.2608 C   0  0  0  0  0  0  0  0  0  0  0  0
  -46.3767   59.1973   65.2531 C   0  0  0  0  0  0  0  0  0  0  0  0
  -47.0319   58.2690   64.2141 C   0  0  0  0  0  0  0  0  0  0  0  0
  -48.5749   58.3284   64.2442 C   0  0  0  0  0  0  0  0  0  0  0  0
  -49.0738   59.6762   63.7152 C   0  0  0  0  0  0  0  0  0  0  0  0
  -49.9924   59.5928   62.5023 C   0  0  0  0  0  0  0  0  0  0  0  0
  -50.7466   58.2729   62.4390 C   0  0  0  0  0  0  0  0  0  0  0  0
  -50.6196   57.4894   61.1305 C   0  0  0  0  0  0  0  0  0  0  0  0
  -49.3602   57.9591   60.4151 C   0  0  0  0  0  0  0  0  0  0  0  0
  -48.6476   56.9913   59.4819 C   0  0  0  0  0  0  0  0  0  0  0  0
  -47.1821   57.4056   59.2748 C   0  0  0  0  0  0  0  0  0  0  0  0
  -46.8014   57.6966   57.8114 C   0  0  0  0  0  0  0  0  0  0  0  0
  -47.3853   56.6891   56.8238 C   0  0  0  0  0  0  0  0  0  0  0  0
  -40.3655   59.8530   60.4588 O   0  0  0  0  0  0  0  0  0  0  0  0
  -39.0156   59.8476   60.8847 C   0  0  0  0  0  0  0  0  0  0  0  0
  -40.6595   60.7681   60.3276 H   0  0  0  0  0  0  0  0  0  0  0  0
  -38.4878   58.4289   61.1107 C   0  0  0  0  0  0  0  0  0  0  0  0
  -37.6153   57.8317   60.2811 C   0  0  0  0  0  0  0  0  0  0  0  0
  -37.1362   56.4115   60.5755 C   0  0  0  0  0  0  0  0  0  0  0  0
  -36.5506   55.6873   59.3545 C   0  0  0  0  0  0  0  0  0  0  0  0
  -36.5187   56.5021   58.0483 C   0  0  0  0  0  0  0  0  0  0  0  0
  -35.1261   57.1430   57.8347 C   0  0  0  0  0  0  0  0  0  0  0  0
  -33.9529   56.4320   58.5555 C   0  0  0  0  0  0  0  0  0  0  0  0
  -33.4516   57.1636   59.8229 C   0  0  0  0  0  0  0  0  0  0  0  0
  -33.3528   56.2509   61.0644 C   0  0  0  0  0  0  0  0  0  0  0  0
  -32.4785   56.8253   62.1855 C   0  0  0  0  0  0  0  0  0  0  0  0
  -33.1715   57.7808   63.1547 C   0  0  0  0  0  0  0  0  0  0  0  0
  -34.7081   57.7889   63.0344 C   0  0  0  0  0  0  0  0  0  0  0  0
  -35.4645   57.2808   64.2712 C   0  0  0  0  0  0  0  0  0  0  0  0
  -36.9788   57.3956   64.0753 C   0  0  0  0  0  0  0  0  0  0  0  0
  -37.8262   57.3742   65.3351 C   0  0  0  0  0  0  0  0  0  0  0  0
  -37.6823   61.1808   62.6931 C   0  0  0  0  0  0  0  0  0  0  0  0
  -37.0245   60.4774   63.7775 O   0  0  0  0  0  0  0  0  0  0  0  0
  -34.3767   60.9300   62.7970 O   0  0  0  0  0  0  0  0  0  0  0  0
  -34.7735   64.5111   64.8989 O   0  0  0  0  0  0  0  0  0  0  0  0
  -36.4165   62.0482   65.5234 O   0  0  0  0  0  0  0  0  0  0  0  0
  -35.9267   61.1032   64.5412 C   0  0  0  0  0  0  0  0  0  0  0  0
  -34.8719   61.8542   63.7161 C   0  0  0  0  0  0  0  0  0  0  0  0
  -33.6894   62.3845   64.5561 C   0  0  0  0  0  0  0  0  0  0  0  0
  -34.2784   63.3448   65.5521 C   0  0  0  0  0  0  0  0  0  0  0  0
  -35.3797   62.6576   66.3391 C   0  0  0  0  0  0  0  0  0  0  0  0
  -35.1068   60.5855   62.2595 H   0  0  0  0  0  0  0  0  0  0  0  0
  -34.0547   64.9336   64.4030 H   0  0  0  0  0  0  0  0  0  0  0  0
  -37.0604   64.2889   66.8155 O   0  0  0  0  0  0  0  0  0  0  0  0
  -35.8378   63.7843   67.2623 C   0  0  0  0  0  0  0  0  0  0  0  0
  -37.3492   65.0044   67.4035 H   0  0  0  0  0  0  0  0  0  0  0  0
  -32.6794   63.1245   63.8334 O   0  0  0  0  0  0  0  0  0  0  0  0
  -32.2087   62.4731   61.3693 O   0  0  0  0  0  0  0  0  0  0  0  0
  -32.0671   64.8010   62.0403 O   0  0  0  0  0  0  0  0  0  0  0  0
  -34.2289   63.7367   61.7794 O   0  0  0  0  0  0  0  0  0  0  0  0
  -32.8216   63.5317   62.2253 S   0  0  0  0  0  0  0  0  0  0  0  0
  -31.2906   62.3256   61.6453 H   0  0  0  0  0  0  0  0  0  0  0  0
  -34.7284   62.9135   61.8967 H   0  0  0  0  0  0  0  0  0  0  0  0
  2  1  1  0  0  0
  2  4  1  0  0  0
  2  5  1  0  0  0
 41 42  1  0  0  0
 41  1  1  0  0  0
 42 46  1  0  0  0
  1 24  1  0  0  0
 23 24  1  0  0  0
 23 25  1  0  0  0
 24 26  1  0  0  0
  3  4  2  0  0  0
 26 27  2  0  0  0
 27 28  1  0  0  0
 43 47  1  0  0  0
 43 51  1  0  0  0
 28 29  1  0  0  0
 56 48  1  0  0  0
 56 60  1  0  0  0
 29 30  1  0  0  0
 57 60  1  0  0  0
 57 61  1  0  0  0
 30 31  1  0  0  0
 44 49  1  0  0  0
 44 52  1  0  0  0
 31 32  1  0  0  0
 45 46  1  0  0  0
 45 50  1  0  0  0
 32 33  1  0  0  0
 53 54  1  0  0  0
 53 55  1  0  0  0
 33 34  1  0  0  0
 34 35  1  0  0  0
 35 36  1  0  0  0
 58 60  1  0  0  0
 36 37  1  0  0  0
 59 60  1  0  0  0
 59 62  1  0  0  0
 37 38  1  0  0  0
 38 39  1  0  0  0
 39 40  1  0  0  0
  4  6  1  0  0  0
  6  7  1  0  0  0
  7  8  1  0  0  0
  8  9  1  0  0  0
  9 10  1  0  0  0
 10 11  1  0  0  0
 11 12  1  0  0  0
 12 13  1  0  0  0
 13 14  1  0  0  0
 14 15  1  0  0  0
 15 16  1  0  0  0
 16 17  1  0  0  0
 17 18  1  0  0  0
 18 19  1  0  0  0
 19 20  1  0  0  0
 20 21  1  0  0  0
 21 22  1  0  0  0
 46 47  1  0  0  0
 47 48  1  0  0  0
 48 49  1  0  0  0
 49 50  1  0  0  0
 50 54  1  0  0  0
M  CHG 1  58  -1
M  END
> <minimizedAffinity>
-9.55268

> <CNNscore>
0.2873464525

> <CNNaffinity>
7.2336969376

> <CNN_VS>
2.0785770416

> <CNNaffinity_variance>
1.0601069927

$$$$
/media/chris/experiments/cd1a-new-docking/inputs/ligands/1onq_ligand.pdb


 62 62  0  0  0  0  0  0  0  0999 V2000
  -38.5132   60.0859   61.1630 C   0  0  0  0  0  0  0  0  0  0  0  0
  -37.8533   59.6772   59.9388 N   0  0  0  0  0  0  0  0  0  0  0  0
  -37.6687   57.4341   60.2251 O   0  0  0  0  0  0  0  0  0  0  0  0
  -37.4921   58.4413   59.5677 C   0  0  0  0  0  0  0  0  0  0  0  0
  -37.6445   60.3972   59.3006 H   0  0  0  0  0  0  0  0  0  0  0  0
  -36.8296   58.3466   58.2254 C   0  0  0  0  0  0  0  0  0  0  0  0
  -36.3306   56.9081   58.0888 C   0  0  0  0  0  0  0  0  0  0  0  0
  -34.8097   56.8692   58.2170 C   0  0  0  0  0  0  0  0  0  0  0  0
  -34.2637   56.1378   59.4192 C   0  0  0  0  0  0  0  0  0  0  0  0
  -33.9251   57.1812   60.4787 C   0  0  0  0  0  0  0  0  0  0  0  0
  -34.7347   56.9998   61.7697 C   0  0  0  0  0  0  0  0  0  0  0  0
  -34.2112   57.8177   62.9645 C   0  0  0  0  0  0  0  0  0  0  0  0
  -35.1048   57.6893   64.2177 C   0  0  0  0  0  0  0  0  0  0  0  0
  -36.5371   57.3175   63.8238 C   0  0  0  0  0  0  0  0  0  0  0  0
  -37.6242   57.9028   64.7170 C   0  0  0  0  0  0  0  0  0  0  0  0
  -38.9830   57.9263   64.0327 C   0  0  0  0  0  0  0  0  0  0  0  0
  -40.1994   57.7881   64.9511 C   0  0  0  0  0  0  0  0  0  0  0  0
  -40.3670   59.0928   65.7182 C   0  0  0  0  0  0  0  0  0  0  0  0
  -41.3090   60.1502   65.1616 C   0  0  0  0  0  0  0  0  0  0  0  0
  -42.6333   59.5199   64.7024 C   0  0  0  0  0  0  0  0  0  0  0  0
  -43.5843   59.1262   65.8477 C   0  0  0  0  0  0  0  0  0  0  0  0
  -45.0564   59.1427   65.4430 C   0  0  0  0  0  0  0  0  0  0  0  0
  -40.7731   60.1841   61.6910 O   0  0  0  0  0  0  0  0  0  0  0  0
  -39.8698   60.5559   60.6667 C   0  0  0  0  0  0  0  0  0  0  0  0
  -40.5356   60.6411   62.5131 H   0  0  0  0  0  0  0  0  0  0  0  0
  -40.1898   59.8674   59.3377 C   0  0  0  0  0  0  0  0  0  0  0  0
  -41.4261   59.8291   58.8124 C   0  0  0  0  0  0  0  0  0  0  0  0
  -41.6647   59.1205   57.4803 C   0  0  0  0  0  0  0  0  0  0  0  0
  -43.1461   58.8600   57.1713 C   0  0  0  0  0  0  0  0  0  0  0  0
  -43.9880   58.3262   58.3449 C   0  0  0  0  0  0  0  0  0  0  0  0
  -45.4304   58.0049   57.8846 C   0  0  0  0  0  0  0  0  0  0  0  0
  -46.4059   57.5813   59.0118 C   0  0  0  0  0  0  0  0  0  0  0  0
  -47.5393   56.6368   58.5469 C   0  0  0  0  0  0  0  0  0  0  0  0
  -48.9536   57.1573   58.8828 C   0  0  0  0  0  0  0  0  0  0  0  0
  -49.6641   56.3524   59.9776 C   0  0  0  0  0  0  0  0  0  0  0  0
  -50.5598   57.1502   60.9231 C   0  0  0  0  0  0  0  0  0  0  0  0
  -50.0142   58.5492   61.2707 C   0  0  0  0  0  0  0  0  0  0  0  0
  -50.4913   59.1232   62.6134 C   0  0  0  0  0  0  0  0  0  0  0  0
  -49.3452   59.1753   63.6275 C   0  0  0  0  0  0  0  0  0  0  0  0
  -48.8061   60.5536   63.9669 C   0  0  0  0  0  0  0  0  0  0  0  0
  -37.7155   61.0647   62.0544 C   0  0  0  0  0  0  0  0  0  0  0  0
  -36.3657   60.6679   62.4062 O   0  0  0  0  0  0  0  0  0  0  0  0
  -34.3736   62.7183   62.3400 O   0  0  0  0  0  0  0  0  0  0  0  0
  -36.3797   64.0504   65.7459 O   0  0  0  0  0  0  0  0  0  0  0  0
  -36.5183   61.1895   64.7705 O   0  0  0  0  0  0  0  0  0  0  0  0
  -35.6845   61.2347   63.5872 C   0  0  0  0  0  0  0  0  0  0  0  0
  -35.2057   62.6879   63.4584 C   0  0  0  0  0  0  0  0  0  0  0  0
  -34.3985   63.1855   64.6774 C   0  0  0  0  0  0  0  0  0  0  0  0
  -35.3247   63.0985   65.8589 C   0  0  0  0  0  0  0  0  0  0  0  0
  -35.8780   61.6897   65.9753 C   0  0  0  0  0  0  0  0  0  0  0  0
  -34.8647   62.4084   61.5631 H   0  0  0  0  0  0  0  0  0  0  0  0
  -36.0043   64.9420   65.6728 H   0  0  0  0  0  0  0  0  0  0  0  0
  -36.1920   62.6868   68.1248 O   0  0  0  0  0  0  0  0  0  0  0  0
  -36.7797   61.8210   67.2007 C   0  0  0  0  0  0  0  0  0  0  0  0
  -36.7666   62.7686   68.9021 H   0  0  0  0  0  0  0  0  0  0  0  0
  -33.9463   64.5574   64.6216 O   0  0  0  0  0  0  0  0  0  0  0  0
  -33.0704   65.6667   66.7940 O   0  0  0  0  0  0  0  0  0  0  0  0
  -32.0423   66.2228   64.6673 O   0  0  0  0  0  0  0  0  0  0  0  0
  -31.5869   64.0879   65.7204 O   0  0  0  0  0  0  0  0  0  0  0  0
  -32.6326   65.1212   65.4751 S   0  0  0  0  0  0  0  0  0  0  0  0
  -33.7524   66.3422   66.6543 H   0  0  0  0  0  0  0  0  0  0  0  0
  -31.9635   63.3654   66.2468 H   0  0  0  0  0  0  0  0  0  0  0  0
  2  1  1  0  0  0
  2  4  1  0  0  0
  2  5  1  0  0  0
 41 42  1  0  0  0
 41  1  1  0  0  0
 42 46  1  0  0  0
  1 24  1  0  0  0
 23 24  1  0  0  0
 23 25  1  0  0  0
 24 26  1  0  0  0
  3  4  2  0  0  0
 26 27  2  0  0  0
 27 28  1  0  0  0
 43 47  1  0  0  0
 43 51  1  0  0  0
 28 29  1  0  0  0
 56 48  1  0  0  0
 56 60  1  0  0  0
 29 30  1  0  0  0
 57 60  1  0  0  0
 57 61  1  0  0  0
 30 31  1  0  0  0
 44 49  1  0  0  0
 44 52  1  0  0  0
 31 32  1  0  0  0
 45 46  1  0  0  0
 45 50  1  0  0  0
 32 33  1  0  0  0
 53 54  1  0  0  0
 53 55  1  0  0  0
 33 34  1  0  0  0
 34 35  1  0  0  0
 35 36  1  0  0  0
 58 60  1  0  0  0
 36 37  1  0  0  0
 59 60  1  0  0  0
 59 62  1  0  0  0
 37 38  1  0  0  0
 38 39  1  0  0  0
 39 40  1  0  0  0
  4  6  1  0  0  0
  6  7  1  0  0  0
  7  8  1  0  0  0
  8  9  1  0  0  0
  9 10  1  0  0  0
 10 11  1  0  0  0
 11 12  1  0  0  0
 12 13  1  0  0  0
 13 14  1  0  0  0
 14 15  1  0  0  0
 15 16  1  0  0  0
 16 17  1  0  0  0
 17 18  1  0  0  0
 18 19  1  0  0  0
 19 20  1  0  0  0
 20 21  1  0  0  0
 21 22  1  0  0  0
 46 47  1  0  0  0
 47 48  1  0  0  0
 48 49  1  0  0  0
 49 50  1  0  0  0
 50 54  1  0  0  0
M  CHG 1  58  -1
M  END
> <minimizedAffinity>
-9.03399

> <CNNscore>
0.2835988104

> <CNNaffinity>
7.0616745949

> <CNN_VS>
2.0026824474

> <CNNaffinity_variance>
1.1080777645

$$$$
/media/chris/experiments/cd1a-new-docking/inputs/ligands/1onq_ligand.pdb


 62 62  0  0  0  0  0  0  0  0999 V2000
  -40.3965   58.9397   64.7568 C   0  0  0  0  0  0  0  0  0  0  0  0
  -41.4231   58.3599   65.6001 N   0  0  0  0  0  0  0  0  0  0  0  0
  -43.2844   59.4533   64.9020 O   0  0  0  0  0  0  0  0  0  0  0  0
  -42.7334   58.6395   65.6176 C   0  0  0  0  0  0  0  0  0  0  0  0
  -41.1198   57.6755   66.2396 H   0  0  0  0  0  0  0  0  0  0  0  0
  -43.5397   57.8547   66.6094 C   0  0  0  0  0  0  0  0  0  0  0  0
  -44.3550   56.8442   65.8024 C   0  0  0  0  0  0  0  0  0  0  0  0
  -45.8453   57.0492   66.0633 C   0  0  0  0  0  0  0  0  0  0  0  0
  -46.2000   58.0694   67.1178 C   0  0  0  0  0  0  0  0  0  0  0  0
  -47.4593   58.7934   66.6533 C   0  0  0  0  0  0  0  0  0  0  0  0
  -47.4697   59.0543   65.1411 C   0  0  0  0  0  0  0  0  0  0  0  0
  -48.1323   60.3830   64.7333 C   0  0  0  0  0  0  0  0  0  0  0  0
  -48.9674   60.2652   63.4395 C   0  0  0  0  0  0  0  0  0  0  0  0
  -50.3434   59.6630   63.7378 C   0  0  0  0  0  0  0  0  0  0  0  0
  -50.8085   58.5976   62.7526 C   0  0  0  0  0  0  0  0  0  0  0  0
  -50.0697   58.6772   61.4249 C   0  0  0  0  0  0  0  0  0  0  0  0
  -49.3254   57.4113   60.9940 C   0  0  0  0  0  0  0  0  0  0  0  0
  -48.6770   57.6774   59.6422 C   0  0  0  0  0  0  0  0  0  0  0  0
  -47.1736   57.4876   59.5045 C   0  0  0  0  0  0  0  0  0  0  0  0
  -46.7657   57.3839   58.0263 C   0  0  0  0  0  0  0  0  0  0  0  0
  -47.7836   56.6514   57.1327 C   0  0  0  0  0  0  0  0  0  0  0  0
  -47.5196   55.1517   57.0207 C   0  0  0  0  0  0  0  0  0  0  0  0
  -38.4445   57.8272   65.3464 O   0  0  0  0  0  0  0  0  0  0  0  0
  -39.5206   57.7421   64.4308 C   0  0  0  0  0  0  0  0  0  0  0  0
  -38.7849   57.7620   66.2524 H   0  0  0  0  0  0  0  0  0  0  0  0
  -39.0503   57.8386   62.9776 C   0  0  0  0  0  0  0  0  0  0  0  0
  -38.1510   56.9959   62.4418 C   0  0  0  0  0  0  0  0  0  0  0  0
  -37.7317   57.1588   60.9820 C   0  0  0  0  0  0  0  0  0  0  0  0
  -37.5806   58.6210   60.5380 C   0  0  0  0  0  0  0  0  0  0  0  0
  -38.0867   58.9427   59.1198 C   0  0  0  0  0  0  0  0  0  0  0  0
  -37.0281   58.5574   58.0584 C   0  0  0  0  0  0  0  0  0  0  0  0
  -37.1767   57.1349   57.4616 C   0  0  0  0  0  0  0  0  0  0  0  0
  -36.0551   56.1537   57.8764 C   0  0  0  0  0  0  0  0  0  0  0  0
  -34.6950   56.8406   58.1263 C   0  0  0  0  0  0  0  0  0  0  0  0
  -33.7817   56.0711   59.0880 C   0  0  0  0  0  0  0  0  0  0  0  0
  -34.3391   55.8212   60.4878 C   0  0  0  0  0  0  0  0  0  0  0  0
  -33.6095   56.5997   61.6002 C   0  0  0  0  0  0  0  0  0  0  0  0
  -34.3061   57.8886   62.0623 C   0  0  0  0  0  0  0  0  0  0  0  0
  -34.9453   57.7039   63.4415 C   0  0  0  0  0  0  0  0  0  0  0  0
  -34.5261   58.6898   64.5175 C   0  0  0  0  0  0  0  0  0  0  0  0
  -39.6902   60.1888   65.3310 C   0  0  0  0  0  0  0  0  0  0  0  0
  -38.9383   60.9978   64.3911 O   0  0  0  0  0  0  0  0  0  0  0  0
  -36.9562   61.2669   62.3476 O   0  0  0  0  0  0  0  0  0  0  0  0
  -35.6397   64.3998   64.7665 O   0  0  0  0  0  0  0  0  0  0  0  0
  -37.3162   62.1084   65.8127 O   0  0  0  0  0  0  0  0  0  0  0  0
  -37.5137   61.3114   64.6196 C   0  0  0  0  0  0  0  0  0  0  0  0
  -36.7955   62.0566   63.4855 C   0  0  0  0  0  0  0  0  0  0  0  0
  -35.2832   62.2513   63.7312 C   0  0  0  0  0  0  0  0  0  0  0  0
  -35.1634   63.0740   64.9842 C   0  0  0  0  0  0  0  0  0  0  0  0
  -35.9257   62.4044   66.1133 C   0  0  0  0  0  0  0  0  0  0  0  0
  -37.9018   61.1337   62.1774 H   0  0  0  0  0  0  0  0  0  0  0  0
  -35.1398   64.8082   64.0423 H   0  0  0  0  0  0  0  0  0  0  0  0
  -34.3251   63.4417   67.5538 O   0  0  0  0  0  0  0  0  0  0  0  0
  -35.6885   63.3852   67.2595 C   0  0  0  0  0  0  0  0  0  0  0  0
  -34.1770   64.0653   68.2821 H   0  0  0  0  0  0  0  0  0  0  0  0
  -34.5617   62.9722   62.7067 O   0  0  0  0  0  0  0  0  0  0  0  0
  -32.4807   63.6880   61.3376 O   0  0  0  0  0  0  0  0  0  0  0  0
  -32.5784   61.4579   62.2896 O   0  0  0  0  0  0  0  0  0  0  0  0
  -32.1485   63.3728   63.7117 O   0  0  0  0  0  0  0  0  0  0  0  0
  -32.9089   62.8898   62.5243 S   0  0  0  0  0  0  0  0  0  0  0  0
  -32.9661   63.3872   60.5534 H   0  0  0  0  0  0  0  0  0  0  0  0
  -32.3581   64.3063   63.8721 H   0  0  0  0  0  0  0  0  0  0  0  0
  2  1  1  0  0  0
  2  4  1  0  0  0
  2  5  1  0  0  0
 41 42  1  0  0  0
 41  1  1  0  0  0
 42 46  1  0  0  0
  1 24  1  0  0  0
 23 24  1  0  0  0
 23 25  1  0  0  0
 24 26  1  0  0  0
  3  4  2  0  0  0
 26 27  2  0  0  0
 27 28  1  0  0  0
 43 47  1  0  0  0
 43 51  1  0  0  0
 28 29  1  0  0  0
 56 48  1  0  0  0
 56 60  1  0  0  0
 29 30  1  0  0  0
 57 60  1  0  0  0
 57 61  1  0  0  0
 30 31  1  0  0  0
 44 49  1  0  0  0
 44 52  1  0  0  0
 31 32  1  0  0  0
 45 46  1  0  0  0
 45 50  1  0  0  0
 32 33  1  0  0  0
 53 54  1  0  0  0
 53 55  1  0  0  0
 33 34  1  0  0  0
 34 35  1  0  0  0
 35 36  1  0  0  0
 58 60  1  0  0  0
 36 37  1  0  0  0
 59 60  1  0  0  0
 59 62  1  0  0  0
 37 38  1  0  0  0
 38 39  1  0  0  0
 39 40  1  0  0  0
  4  6  1  0  0  0
  6  7  1  0  0  0
  7  8  1  0  0  0
  8  9  1  0  0  0
  9 10  1  0  0  0
 10 11  1  0  0  0
 11 12  1  0  0  0
 12 13  1  0  0  0
 13 14  1  0  0  0
 14 15  1  0  0  0
 15 16  1  0  0  0
 16 17  1  0  0  0
 17 18  1  0  0  0
 18 19  1  0  0  0
 19 20  1  0  0  0
 20 21  1  0  0  0
 21 22  1  0  0  0
 46 47  1  0  0  0
 47 48  1  0  0  0
 48 49  1  0  0  0
 49 50  1  0  0  0
 50 54  1  0  0  0
M  CHG 1  58  -1
M  END
> <minimizedAffinity>
-10.21221

> <CNNscore>
0.2612731159

> <CNNaffinity>
7.0864686966

> <CNN_VS>
1.8515037298

> <CNNaffinity_variance>
1.4389388561

$$$$
