/media/chris/experiments/cd1a-new-docking/inputs/ligands/1onq_ligand.pdb


 62 62  0  0  0  0  0  0  0  0999 V2000
  -37.8306   59.3422   62.1795 C   0  0  0  0  0  0  0  0  0  0  0  0
  -37.4018   59.1578   60.8072 N   0  0  0  0  0  0  0  0  0  0  0  0
  -37.4601   56.9000   60.5910 O   0  0  0  0  0  0  0  0  0  0  0  0
  -37.2519   58.0078   60.1358 C   0  0  0  0  0  0  0  0  0  0  0  0
  -37.1949   59.9796   60.3061 H   0  0  0  0  0  0  0  0  0  0  0  0
  -36.7977   58.1542   58.7138 C   0  0  0  0  0  0  0  0  0  0  0  0
  -36.1988   56.8072   58.3093 C   0  0  0  0  0  0  0  0  0  0  0  0
  -34.7610   56.9978   57.8322 C   0  0  0  0  0  0  0  0  0  0  0  0
  -33.6911   56.8930   58.8918 C   0  0  0  0  0  0  0  0  0  0  0  0
  -34.1609   55.8711   59.9217 C   0  0  0  0  0  0  0  0  0  0  0  0
  -33.9785   56.3576   61.3657 C   0  0  0  0  0  0  0  0  0  0  0  0
  -33.6341   57.8531   61.4902 C   0  0  0  0  0  0  0  0  0  0  0  0
  -32.2904   58.1019   62.2101 C   0  0  0  0  0  0  0  0  0  0  0  0
  -31.8970   59.5793   62.1237 C   0  0  0  0  0  0  0  0  0  0  0  0
  -30.4067   59.8596   62.2741 C   0  0  0  0  0  0  0  0  0  0  0  0
  -30.1171   61.3360   62.5018 C   0  0  0  0  0  0  0  0  0  0  0  0
  -30.6193   62.2931   61.4183 C   0  0  0  0  0  0  0  0  0  0  0  0
  -30.4237   63.7191   61.9154 C   0  0  0  0  0  0  0  0  0  0  0  0
  -29.0068   64.2227   62.1476 C   0  0  0  0  0  0  0  0  0  0  0  0
  -28.7270   65.4821   61.3123 C   0  0  0  0  0  0  0  0  0  0  0  0
  -29.9398   66.0066   60.5219 C   0  0  0  0  0  0  0  0  0  0  0  0
  -29.6852   67.3529   59.8480 C   0  0  0  0  0  0  0  0  0  0  0  0
  -39.6514   60.4813   61.2948 O   0  0  0  0  0  0  0  0  0  0  0  0
  -39.3447   59.3292   62.0578 C   0  0  0  0  0  0  0  0  0  0  0  0
  -39.2400   60.4084   60.4194 H   0  0  0  0  0  0  0  0  0  0  0  0
  -39.9661   59.3809   63.4555 C   0  0  0  0  0  0  0  0  0  0  0  0
  -41.2153   59.8200   63.6853 C   0  0  0  0  0  0  0  0  0  0  0  0
  -41.7634   59.8417   65.1109 C   0  0  0  0  0  0  0  0  0  0  0  0
  -41.5799   58.5181   65.8677 C   0  0  0  0  0  0  0  0  0  0  0  0
  -42.7328   58.1230   66.8089 C   0  0  0  0  0  0  0  0  0  0  0  0
  -43.4552   56.8561   66.2906 C   0  0  0  0  0  0  0  0  0  0  0  0
  -44.6461   57.1178   65.3344 C   0  0  0  0  0  0  0  0  0  0  0  0
  -45.8842   57.7414   66.0207 C   0  0  0  0  0  0  0  0  0  0  0  0
  -46.2731   59.1243   65.4545 C   0  0  0  0  0  0  0  0  0  0  0  0
  -47.6545   59.6114   65.9080 C   0  0  0  0  0  0  0  0  0  0  0  0
  -48.8124   58.6383   65.6961 C   0  0  0  0  0  0  0  0  0  0  0  0
  -49.1348   58.3624   64.2143 C   0  0  0  0  0  0  0  0  0  0  0  0
  -49.1372   59.5994   63.3034 C   0  0  0  0  0  0  0  0  0  0  0  0
  -50.2945   59.5427   62.3021 C   0  0  0  0  0  0  0  0  0  0  0  0
  -51.0279   58.2177   62.1922 C   0  0  0  0  0  0  0  0  0  0  0  0
  -37.1974   60.5426   62.9192 C   0  0  0  0  0  0  0  0  0  0  0  0
  -35.7488   60.5742   62.9823 O   0  0  0  0  0  0  0  0  0  0  0  0
  -33.7489   62.4633   62.2017 O   0  0  0  0  0  0  0  0  0  0  0  0
  -35.6829   64.8778   64.9997 O   0  0  0  0  0  0  0  0  0  0  0  0
  -35.8533   61.8571   65.0387 O   0  0  0  0  0  0  0  0  0  0  0  0
  -35.0423   61.4955   63.8945 C   0  0  0  0  0  0  0  0  0  0  0  0
  -34.5596   62.8170   63.2796 C   0  0  0  0  0  0  0  0  0  0  0  0
  -33.7266   63.6845   64.2487 C   0  0  0  0  0  0  0  0  0  0  0  0
  -34.6302   64.0070   65.4067 C   0  0  0  0  0  0  0  0  0  0  0  0
  -35.1876   62.7239   65.9962 C   0  0  0  0  0  0  0  0  0  0  0  0
  -34.2563   61.9170   61.5812 H   0  0  0  0  0  0  0  0  0  0  0  0
  -35.3049   65.6897   64.6268 H   0  0  0  0  0  0  0  0  0  0  0  0
  -36.3463   62.2453   68.0315 O   0  0  0  0  0  0  0  0  0  0  0  0
  -36.0650   63.2667   67.1223 C   0  0  0  0  0  0  0  0  0  0  0  0
  -36.9036   62.5925   68.7455 H   0  0  0  0  0  0  0  0  0  0  0  0
  -33.2693   64.9540   63.7302 O   0  0  0  0  0  0  0  0  0  0  0  0
  -33.0668   66.9185   65.4086 O   0  0  0  0  0  0  0  0  0  0  0  0
  -31.5007   66.7554   63.5621 O   0  0  0  0  0  0  0  0  0  0  0  0
  -31.2993   65.2697   65.4665 O   0  0  0  0  0  0  0  0  0  0  0  0
  -32.2628   65.9762   64.5753 S   0  0  0  0  0  0  0  0  0  0  0  0
  -33.7008   67.3885   64.8447 H   0  0  0  0  0  0  0  0  0  0  0  0
  -31.7880   64.7588   66.1306 H   0  0  0  0  0  0  0  0  0  0  0  0
  2  1  1  0  0  0
  2  4  1  0  0  0
  2  5  1  0  0  0
 41 42  1  0  0  0
 41  1  1  0  0  0
 42 46  1  0  0  0
  1 24  1  0  0  0
 23 24  1  0  0  0
 23 25  1  0  0  0
 24 26  1  0  0  0
  3  4  2  0  0  0
 26 27  2  0  0  0
 27 28  1  0  0  0
 43 47  1  0  0  0
 43 51  1  0  0  0
 28 29  1  0  0  0
 56 48  1  0  0  0
 56 60  1  0  0  0
 29 30  1  0  0  0
 57 60  1  0  0  0
 57 61  1  0  0  0
 30 31  1  0  0  0
 44 49  1  0  0  0
 44 52  1  0  0  0
 31 32  1  0  0  0
 45 46  1  0  0  0
 45 50  1  0  0  0
 32 33  1  0  0  0
 53 54  1  0  0  0
 53 55  1  0  0  0
 33 34  1  0  0  0
 34 35  1  0  0  0
 35 36  1  0  0  0
 58 60  1  0  0  0
 36 37  1  0  0  0
 59 60  1  0  0  0
 59 62  1  0  0  0
 37 38  1  0  0  0
 38 39  1  0  0  0
 39 40  1  0  0  0
  4  6  1  0  0  0
  6  7  1  0  0  0
  7  8  1  0  0  0
  8  9  1  0  0  0
  9 10  1  0  0  0
 10 11  1  0  0  0
 11 12  1  0  0  0
 12 13  1  0  0  0
 13 14  1  0  0  0
 14 15  1  0  0  0
 15 16  1  0  0  0
 16 17  1  0  0  0
 17 18  1  0  0  0
 18 19  1  0  0  0
 19 20  1  0  0  0
 20 21  1  0  0  0
 21 22  1  0  0  0
 46 47  1  0  0  0
 47 48  1  0  0  0
 48 49  1  0  0  0
 49 50  1  0  0  0
 50 54  1  0  0  0
M  CHG 1  58  -1
M  END
> <minimizedAffinity>
-9.13762

> <CNNscore>
0.6766505837

> <CNNaffinity>
7.2238054276

> <CNN_VS>
4.8879923820

> <CNNaffinity_variance>
0.8525810242

$$$$
/media/chris/experiments/cd1a-new-docking/inputs/ligands/1onq_ligand.pdb


 62 62  0  0  0  0  0  0  0  0999 V2000
  -40.1878   59.2475   64.8905 C   0  0  0  0  0  0  0  0  0  0  0  0
  -40.1058   59.2886   63.4439 N   0  0  0  0  0  0  0  0  0  0  0  0
  -40.7630   61.4125   62.9912 O   0  0  0  0  0  0  0  0  0  0  0  0
  -40.3843   60.3155   62.6292 C   0  0  0  0  0  0  0  0  0  0  0  0
  -39.8086   58.4588   63.0053 H   0  0  0  0  0  0  0  0  0  0  0  0
  -40.1899   60.0407   61.1675 C   0  0  0  0  0  0  0  0  0  0  0  0
  -38.6858   60.1250   60.9071 C   0  0  0  0  0  0  0  0  0  0  0  0
  -38.3603   59.5388   59.5355 C   0  0  0  0  0  0  0  0  0  0  0  0
  -37.5648   58.2559   59.5342 C   0  0  0  0  0  0  0  0  0  0  0  0
  -37.0115   58.0582   58.1269 C   0  0  0  0  0  0  0  0  0  0  0  0
  -36.7272   56.5854   57.8029 C   0  0  0  0  0  0  0  0  0  0  0  0
  -35.9005   55.8506   58.8740 C   0  0  0  0  0  0  0  0  0  0  0  0
  -34.4041   56.2319   58.8437 C   0  0  0  0  0  0  0  0  0  0  0  0
  -33.8035   56.1738   60.2511 C   0  0  0  0  0  0  0  0  0  0  0  0
  -34.6260   56.8643   61.3322 C   0  0  0  0  0  0  0  0  0  0  0  0
  -33.7627   57.3753   62.4763 C   0  0  0  0  0  0  0  0  0  0  0  0
  -32.3710   57.8828   62.0920 C   0  0  0  0  0  0  0  0  0  0  0  0
  -32.3532   59.3961   62.2605 C   0  0  0  0  0  0  0  0  0  0  0  0
  -31.1949   60.1827   61.6650 C   0  0  0  0  0  0  0  0  0  0  0  0
  -29.9293   60.0333   62.5242 C   0  0  0  0  0  0  0  0  0  0  0  0
  -28.7836   60.9896   62.1452 C   0  0  0  0  0  0  0  0  0  0  0  0
  -29.2530   62.4171   61.8743 C   0  0  0  0  0  0  0  0  0  0  0  0
  -41.1422   60.8671   66.2550 O   0  0  0  0  0  0  0  0  0  0  0  0
  -41.4674   60.0164   65.1714 C   0  0  0  0  0  0  0  0  0  0  0  0
  -40.4335   61.4735   65.9886 H   0  0  0  0  0  0  0  0  0  0  0  0
  -42.5833   59.0311   65.5266 C   0  0  0  0  0  0  0  0  0  0  0  0
  -43.7971   59.0610   64.9502 C   0  0  0  0  0  0  0  0  0  0  0  0
  -44.8589   58.0424   65.3605 C   0  0  0  0  0  0  0  0  0  0  0  0
  -45.9838   57.8676   64.3298 C   0  0  0  0  0  0  0  0  0  0  0  0
  -47.3044   58.5893   64.6556 C   0  0  0  0  0  0  0  0  0  0  0  0
  -48.3993   58.2227   63.6250 C   0  0  0  0  0  0  0  0  0  0  0  0
  -49.3093   59.3957   63.1807 C   0  0  0  0  0  0  0  0  0  0  0  0
  -49.9757   59.1925   61.7996 C   0  0  0  0  0  0  0  0  0  0  0  0
  -50.4029   57.7336   61.5287 C   0  0  0  0  0  0  0  0  0  0  0  0
  -49.7304   57.1112   60.2992 C   0  0  0  0  0  0  0  0  0  0  0  0
  -48.6810   57.9726   59.5998 C   0  0  0  0  0  0  0  0  0  0  0  0
  -47.4125   57.2008   59.1861 C   0  0  0  0  0  0  0  0  0  0  0  0
  -46.8701   57.5339   57.7879 C   0  0  0  0  0  0  0  0  0  0  0  0
  -47.3168   56.4889   56.7615 C   0  0  0  0  0  0  0  0  0  0  0  0
  -47.7768   55.1521   57.3155 C   0  0  0  0  0  0  0  0  0  0  0  0
  -38.9169   59.7036   65.6425 C   0  0  0  0  0  0  0  0  0  0  0  0
  -37.6608   59.5767   64.9288 O   0  0  0  0  0  0  0  0  0  0  0  0
  -35.6730   60.1368   62.9508 O   0  0  0  0  0  0  0  0  0  0  0  0
  -36.4122   64.0839   64.0793 O   0  0  0  0  0  0  0  0  0  0  0  0
  -37.0243   61.7212   65.8677 O   0  0  0  0  0  0  0  0  0  0  0  0
  -36.6075   60.6050   65.0442 C   0  0  0  0  0  0  0  0  0  0  0  0
  -36.1081   61.2116   63.7252 C   0  0  0  0  0  0  0  0  0  0  0  0
  -34.9276   62.1920   63.9008 C   0  0  0  0  0  0  0  0  0  0  0  0
  -35.4349   63.3093   64.7700 C   0  0  0  0  0  0  0  0  0  0  0  0
  -36.0063   62.7408   66.0563 C   0  0  0  0  0  0  0  0  0  0  0  0
  -36.4028   59.5093   62.8297 H   0  0  0  0  0  0  0  0  0  0  0  0
  -36.0265   64.4368   63.2621 H   0  0  0  0  0  0  0  0  0  0  0  0
  -36.4952   63.7898   68.1478 O   0  0  0  0  0  0  0  0  0  0  0  0
  -36.4634   64.0113   66.7698 C   0  0  0  0  0  0  0  0  0  0  0  0
  -36.7858   64.5980   68.5986 H   0  0  0  0  0  0  0  0  0  0  0  0
  -34.4350   62.8146   62.6928 O   0  0  0  0  0  0  0  0  0  0  0  0
  -32.4476   63.6195   61.2369 O   0  0  0  0  0  0  0  0  0  0  0  0
  -32.0590   62.9817   63.5458 O   0  0  0  0  0  0  0  0  0  0  0  0
  -33.1327   65.0921   63.0280 O   0  0  0  0  0  0  0  0  0  0  0  0
  -33.0047   63.6639   62.6213 S   0  0  0  0  0  0  0  0  0  0  0  0
  -32.3569   62.6961   60.9543 H   0  0  0  0  0  0  0  0  0  0  0  0
  -33.7479   65.5447   62.4301 H   0  0  0  0  0  0  0  0  0  0  0  0
  2  1  1  0  0  0
  2  4  1  0  0  0
  2  5  1  0  0  0
 41 42  1  0  0  0
 41  1  1  0  0  0
 42 46  1  0  0  0
  1 24  1  0  0  0
 23 24  1  0  0  0
 23 25  1  0  0  0
 24 26  1  0  0  0
  3  4  2  0  0  0
 26 27  2  0  0  0
 27 28  1  0  0  0
 43 47  1  0  0  0
 43 51  1  0  0  0
 28 29  1  0  0  0
 56 48  1  0  0  0
 56 60  1  0  0  0
 29 30  1  0  0  0
 57 60  1  0  0  0
 57 61  1  0  0  0
 30 31  1  0  0  0
 44 49  1  0  0  0
 44 52  1  0  0  0
 31 32  1  0  0  0
 45 46  1  0  0  0
 45 50  1  0  0  0
 32 33  1  0  0  0
 53 54  1  0  0  0
 53 55  1  0  0  0
 33 34  1  0  0  0
 34 35  1  0  0  0
 35 36  1  0  0  0
 58 60  1  0  0  0
 36 37  1  0  0  0
 59 60  1  0  0  0
 59 62  1  0  0  0
 37 38  1  0  0  0
 38 39  1  0  0  0
 39 40  1  0  0  0
  4  6  1  0  0  0
  6  7  1  0  0  0
  7  8  1  0  0  0
  8  9  1  0  0  0
  9 10  1  0  0  0
 10 11  1  0  0  0
 11 12  1  0  0  0
 12 13  1  0  0  0
 13 14  1  0  0  0
 14 15  1  0  0  0
 15 16  1  0  0  0
 16 17  1  0  0  0
 17 18  1  0  0  0
 18 19  1  0  0  0
 19 20  1  0  0  0
 20 21  1  0  0  0
 21 22  1  0  0  0
 46 47  1  0  0  0
 47 48  1  0  0  0
 48 49  1  0  0  0
 49 50  1  0  0  0
 50 54  1  0  0  0
M  CHG 1  58  -1
M  END
> <minimizedAffinity>
-9.73829

> <CNNscore>
0.6444957256

> <CNNaffinity>
7.4937705994

> <CNN_VS>
4.8297033310

> <CNNaffinity_variance>
1.0295836926

$$$$
/media/chris/experiments/cd1a-new-docking/inputs/ligands/1onq_ligand.pdb


 62 62  0  0  0  0  0  0  0  0999 V2000
  -40.0357   59.7514   63.7421 C   0  0  0  0  0  0  0  0  0  0  0  0
  -40.7918   59.0785   64.7797 N   0  0  0  0  0  0  0  0  0  0  0  0
  -41.3464   60.7971   66.1532 O   0  0  0  0  0  0  0  0  0  0  0  0
  -41.3689   59.6169   65.8628 C   0  0  0  0  0  0  0  0  0  0  0  0
  -40.8941   58.1049   64.6759 H   0  0  0  0  0  0  0  0  0  0  0  0
  -42.0925   58.6465   66.7485 C   0  0  0  0  0  0  0  0  0  0  0  0
  -43.1039   57.9210   65.8610 C   0  0  0  0  0  0  0  0  0  0  0  0
  -44.2293   58.8741   65.4658 C   0  0  0  0  0  0  0  0  0  0  0  0
  -45.6319   58.4073   65.7712 C   0  0  0  0  0  0  0  0  0  0  0  0
  -46.5627   59.6035   65.6024 C   0  0  0  0  0  0  0  0  0  0  0  0
  -47.9916   59.3154   66.0823 C   0  0  0  0  0  0  0  0  0  0  0  0
  -48.7171   58.2166   65.2844 C   0  0  0  0  0  0  0  0  0  0  0  0
  -50.2249   58.5002   65.1062 C   0  0  0  0  0  0  0  0  0  0  0  0
  -50.4429   59.6985   64.1780 C   0  0  0  0  0  0  0  0  0  0  0  0
  -51.4557   59.4736   63.0618 C   0  0  0  0  0  0  0  0  0  0  0  0
  -51.1127   58.2629   62.2063 C   0  0  0  0  0  0  0  0  0  0  0  0
  -49.9659   58.4484   61.2100 C   0  0  0  0  0  0  0  0  0  0  0  0
  -50.1956   57.5028   60.0388 C   0  0  0  0  0  0  0  0  0  0  0  0
  -49.3523   56.2398   59.9449 C   0  0  0  0  0  0  0  0  0  0  0  0
  -47.8981   56.5755   59.5780 C   0  0  0  0  0  0  0  0  0  0  0  0
  -47.6939   57.0184   58.1175 C   0  0  0  0  0  0  0  0  0  0  0  0
  -46.5912   58.0613   57.9512 C   0  0  0  0  0  0  0  0  0  0  0  0
  -38.4867   58.0243   63.6252 O   0  0  0  0  0  0  0  0  0  0  0  0
  -39.5492   58.5956   62.8848 C   0  0  0  0  0  0  0  0  0  0  0  0
  -38.8231   57.6985   64.4747 H   0  0  0  0  0  0  0  0  0  0  0  0
  -39.0844   59.1311   61.5285 C   0  0  0  0  0  0  0  0  0  0  0  0
  -38.0968   58.5620   60.8164 C   0  0  0  0  0  0  0  0  0  0  0  0
  -37.6897   59.1576   59.4699 C   0  0  0  0  0  0  0  0  0  0  0  0
  -37.6626   58.1381   58.3219 C   0  0  0  0  0  0  0  0  0  0  0  0
  -36.2967   57.9389   57.6394 C   0  0  0  0  0  0  0  0  0  0  0  0
  -35.6538   56.6009   58.0775 C   0  0  0  0  0  0  0  0  0  0  0  0
  -34.1466   56.6749   58.4297 C   0  0  0  0  0  0  0  0  0  0  0  0
  -33.7518   55.8770   59.6947 C   0  0  0  0  0  0  0  0  0  0  0  0
  -34.6279   56.1971   60.9252 C   0  0  0  0  0  0  0  0  0  0  0  0
  -34.4548   57.6268   61.4518 C   0  0  0  0  0  0  0  0  0  0  0  0
  -33.1808   57.8991   62.2488 C   0  0  0  0  0  0  0  0  0  0  0  0
  -32.1534   58.7760   61.5062 C   0  0  0  0  0  0  0  0  0  0  0  0
  -31.6481   59.9976   62.2887 C   0  0  0  0  0  0  0  0  0  0  0  0
  -30.4507   60.6438   61.5860 C   0  0  0  0  0  0  0  0  0  0  0  0
  -29.1477   60.6765   62.3649 C   0  0  0  0  0  0  0  0  0  0  0  0
  -38.9684   60.7527   64.2393 C   0  0  0  0  0  0  0  0  0  0  0  0
  -37.8570   60.1973   64.9873 O   0  0  0  0  0  0  0  0  0  0  0  0
  -35.9287   60.5027   62.8979 O   0  0  0  0  0  0  0  0  0  0  0  0
  -35.5887   64.3445   64.4865 O   0  0  0  0  0  0  0  0  0  0  0  0
  -36.6473   61.9970   66.0751 O   0  0  0  0  0  0  0  0  0  0  0  0
  -36.5763   60.9223   65.1068 C   0  0  0  0  0  0  0  0  0  0  0  0
  -36.0309   61.5479   63.8151 C   0  0  0  0  0  0  0  0  0  0  0  0
  -34.6351   62.1889   63.9774 C   0  0  0  0  0  0  0  0  0  0  0  0
  -34.7903   63.2808   64.9997 C   0  0  0  0  0  0  0  0  0  0  0  0
  -35.3980   62.7131   66.2696 C   0  0  0  0  0  0  0  0  0  0  0  0
  -36.7976   60.0873   62.7829 H   0  0  0  0  0  0  0  0  0  0  0  0
  -35.1828   64.6918   63.6768 H   0  0  0  0  0  0  0  0  0  0  0  0
  -36.6040   63.8840   67.9691 O   0  0  0  0  0  0  0  0  0  0  0  0
  -35.4771   63.9594   67.1485 C   0  0  0  0  0  0  0  0  0  0  0  0
  -36.6520   64.6766   68.5262 H   0  0  0  0  0  0  0  0  0  0  0  0
  -34.0850   62.8181   62.7979 O   0  0  0  0  0  0  0  0  0  0  0  0
  -32.9993   65.1385   63.1901 O   0  0  0  0  0  0  0  0  0  0  0  0
  -32.1505   63.7022   61.4278 O   0  0  0  0  0  0  0  0  0  0  0  0
  -31.6483   63.2125   63.7478 O   0  0  0  0  0  0  0  0  0  0  0  0
  -32.6902   63.7271   62.8144 S   0  0  0  0  0  0  0  0  0  0  0  0
  -33.6769   65.4912   62.5923 H   0  0  0  0  0  0  0  0  0  0  0  0
  -31.9921   63.2252   64.6548 H   0  0  0  0  0  0  0  0  0  0  0  0
  2  1  1  0  0  0
  2  4  1  0  0  0
  2  5  1  0  0  0
 41 42  1  0  0  0
 41  1  1  0  0  0
 42 46  1  0  0  0
  1 24  1  0  0  0
 23 24  1  0  0  0
 23 25  1  0  0  0
 24 26  1  0  0  0
  3  4  2  0  0  0
 26 27  2  0  0  0
 27 28  1  0  0  0
 43 47  1  0  0  0
 43 51  1  0  0  0
 28 29  1  0  0  0
 56 48  1  0  0  0
 56 60  1  0  0  0
 29 30  1  0  0  0
 57 60  1  0  0  0
 57 61  1  0  0  0
 30 31  1  0  0  0
 44 49  1  0  0  0
 44 52  1  0  0  0
 31 32  1  0  0  0
 45 46  1  0  0  0
 45 50  1  0  0  0
 32 33  1  0  0  0
 53 54  1  0  0  0
 53 55  1  0  0  0
 33 34  1  0  0  0
 34 35  1  0  0  0
 35 36  1  0  0  0
 58 60  1  0  0  0
 36 37  1  0  0  0
 59 60  1  0  0  0
 59 62  1  0  0  0
 37 38  1  0  0  0
 38 39  1  0  0  0
 39 40  1  0  0  0
  4  6  1  0  0  0
  6  7  1  0  0  0
  7  8  1  0  0  0
  8  9  1  0  0  0
  9 10  1  0  0  0
 10 11  1  0  0  0
 11 12  1  0  0  0
 12 13  1  0  0  0
 13 14  1  0  0  0
 14 15  1  0  0  0
 15 16  1  0  0  0
 16 17  1  0  0  0
 17 18  1  0  0  0
 18 19  1  0  0  0
 19 20  1  0  0  0
 20 21  1  0  0  0
 21 22  1  0  0  0
 46 47  1  0  0  0
 47 48  1  0  0  0
 48 49  1  0  0  0
 49 50  1  0  0  0
 50 54  1  0  0  0
M  CHG 1  58  -1
M  END
> <minimizedAffinity>
-9.77068

> <CNNscore>
0.5196195841

> <CNNaffinity>
7.2242264748

> <CNN_VS>
3.7538495064

> <CNNaffinity_variance>
0.7928536534

$$$$
/media/chris/experiments/cd1a-new-docking/inputs/ligands/1onq_ligand.pdb


 62 62  0  0  0  0  0  0  0  0999 V2000
  -34.4665   57.8446   62.2611 C   0  0  0  0  0  0  0  0  0  0  0  0
  -35.4725   57.6441   63.2852 N   0  0  0  0  0  0  0  0  0  0  0  0
  -37.1696   58.9564   62.5470 O   0  0  0  0  0  0  0  0  0  0  0  0
  -36.6964   58.1850   63.3585 C   0  0  0  0  0  0  0  0  0  0  0  0
  -35.2260   57.0347   64.0181 H   0  0  0  0  0  0  0  0  0  0  0  0
  -37.5076   57.7676   64.5491 C   0  0  0  0  0  0  0  0  0  0  0  0
  -38.9747   57.8759   64.1333 C   0  0  0  0  0  0  0  0  0  0  0  0
  -39.7854   58.5337   65.2473 C   0  0  0  0  0  0  0  0  0  0  0  0
  -41.2103   58.0594   65.3997 C   0  0  0  0  0  0  0  0  0  0  0  0
  -42.1243   59.1923   64.9449 C   0  0  0  0  0  0  0  0  0  0  0  0
  -43.5741   59.0088   65.4131 C   0  0  0  0  0  0  0  0  0  0  0  0
  -43.8453   57.6684   66.1203 C   0  0  0  0  0  0  0  0  0  0  0  0
  -45.0717   56.9245   65.5474 C   0  0  0  0  0  0  0  0  0  0  0  0
  -46.1776   56.8152   66.6011 C   0  0  0  0  0  0  0  0  0  0  0  0
  -47.5058   57.4518   66.2103 C   0  0  0  0  0  0  0  0  0  0  0  0
  -47.4657   58.9704   66.2972 C   0  0  0  0  0  0  0  0  0  0  0  0
  -47.2695   59.7134   64.9737 C   0  0  0  0  0  0  0  0  0  0  0  0
  -48.4274   59.3561   64.0515 C   0  0  0  0  0  0  0  0  0  0  0  0
  -49.6528   60.2578   64.0363 C   0  0  0  0  0  0  0  0  0  0  0  0
  -50.8122   59.5973   63.2736 C   0  0  0  0  0  0  0  0  0  0  0  0
  -50.5673   58.1268   62.8881 C   0  0  0  0  0  0  0  0  0  0  0  0
  -50.6727   57.8705   61.3866 C   0  0  0  0  0  0  0  0  0  0  0  0
  -32.7683   56.4109   61.5855 O   0  0  0  0  0  0  0  0  0  0  0  0
  -34.1658   56.4256   61.8100 C   0  0  0  0  0  0  0  0  0  0  0  0
  -32.3055   56.6086   62.4147 H   0  0  0  0  0  0  0  0  0  0  0  0
  -34.9577   56.1200   60.5365 C   0  0  0  0  0  0  0  0  0  0  0  0
  -35.0449   56.9775   59.5053 C   0  0  0  0  0  0  0  0  0  0  0  0
  -35.8567   56.5987   58.2680 C   0  0  0  0  0  0  0  0  0  0  0  0
  -37.0831   57.4921   58.0316 C   0  0  0  0  0  0  0  0  0  0  0  0
  -37.7338   58.0795   59.2976 C   0  0  0  0  0  0  0  0  0  0  0  0
  -38.4034   59.4405   58.9898 C   0  0  0  0  0  0  0  0  0  0  0  0
  -39.4092   59.9397   60.0578 C   0  0  0  0  0  0  0  0  0  0  0  0
  -40.8578   60.0979   59.5387 C   0  0  0  0  0  0  0  0  0  0  0  0
  -41.0827   59.4857   58.1392 C   0  0  0  0  0  0  0  0  0  0  0  0
  -42.5176   59.6396   57.6209 C   0  0  0  0  0  0  0  0  0  0  0  0
  -43.2502   58.3441   57.2783 C   0  0  0  0  0  0  0  0  0  0  0  0
  -44.7553   58.3698   57.6098 C   0  0  0  0  0  0  0  0  0  0  0  0
  -45.1413   57.7289   58.9516 C   0  0  0  0  0  0  0  0  0  0  0  0
  -46.6500   57.4772   59.0267 C   0  0  0  0  0  0  0  0  0  0  0  0
  -47.3285   57.0508   57.7370 C   0  0  0  0  0  0  0  0  0  0  0  0
  -33.2607   58.7188   62.6745 C   0  0  0  0  0  0  0  0  0  0  0  0
  -33.4581   60.1551   62.6365 O   0  0  0  0  0  0  0  0  0  0  0  0
  -32.2416   62.6269   63.4031 O   0  0  0  0  0  0  0  0  0  0  0  0
  -36.1233   63.5590   64.6126 O   0  0  0  0  0  0  0  0  0  0  0  0
  -35.1398   60.7155   64.2928 O   0  0  0  0  0  0  0  0  0  0  0  0
  -33.7719   60.9173   63.8615 C   0  0  0  0  0  0  0  0  0  0  0  0
  -33.5700   62.4372   63.7819 C   0  0  0  0  0  0  0  0  0  0  0  0
  -33.8000   63.1648   65.1247 C   0  0  0  0  0  0  0  0  0  0  0  0
  -35.2301   62.8998   65.5069 C   0  0  0  0  0  0  0  0  0  0  0  0
  -35.4885   61.4040   65.5239 C   0  0  0  0  0  0  0  0  0  0  0  0
  -32.0783   62.1760   62.5600 H   0  0  0  0  0  0  0  0  0  0  0  0
  -35.9408   64.5118   64.6174 H   0  0  0  0  0  0  0  0  0  0  0  0
  -37.7487   61.2133   64.7695 O   0  0  0  0  0  0  0  0  0  0  0  0
  -36.9641   61.3582   65.9150 C   0  0  0  0  0  0  0  0  0  0  0  0
  -38.6852   61.1845   65.0205 H   0  0  0  0  0  0  0  0  0  0  0  0
  -33.6503   64.6025   65.1010 O   0  0  0  0  0  0  0  0  0  0  0  0
  -32.4617   65.7619   67.0910 O   0  0  0  0  0  0  0  0  0  0  0  0
  -32.1569   66.6286   64.8449 O   0  0  0  0  0  0  0  0  0  0  0  0
  -31.0399   64.5885   65.5265 O   0  0  0  0  0  0  0  0  0  0  0  0
  -32.2912   65.3881   65.6557 S   0  0  0  0  0  0  0  0  0  0  0  0
  -33.2726   66.2839   67.1950 H   0  0  0  0  0  0  0  0  0  0  0  0
  -31.1189   63.7773   66.0524 H   0  0  0  0  0  0  0  0  0  0  0  0
  2  1  1  0  0  0
  2  4  1  0  0  0
  2  5  1  0  0  0
 41 42  1  0  0  0
 41  1  1  0  0  0
 42 46  1  0  0  0
  1 24  1  0  0  0
 23 24  1  0  0  0
 23 25  1  0  0  0
 24 26  1  0  0  0
  3  4  2  0  0  0
 26 27  2  0  0  0
 27 28  1  0  0  0
 43 47  1  0  0  0
 43 51  1  0  0  0
 28 29  1  0  0  0
 56 48  1  0  0  0
 56 60  1  0  0  0
 29 30  1  0  0  0
 57 60  1  0  0  0
 57 61  1  0  0  0
 30 31  1  0  0  0
 44 49  1  0  0  0
 44 52  1  0  0  0
 31 32  1  0  0  0
 45 46  1  0  0  0
 45 50  1  0  0  0
 32 33  1  0  0  0
 53 54  1  0  0  0
 53 55  1  0  0  0
 33 34  1  0  0  0
 34 35  1  0  0  0
 35 36  1  0  0  0
 58 60  1  0  0  0
 36 37  1  0  0  0
 59 60  1  0  0  0
 59 62  1  0  0  0
 37 38  1  0  0  0
 38 39  1  0  0  0
 39 40  1  0  0  0
  4  6  1  0  0  0
  6  7  1  0  0  0
  7  8  1  0  0  0
  8  9  1  0  0  0
  9 10  1  0  0  0
 10 11  1  0  0  0
 11 12  1  0  0  0
 12 13  1  0  0  0
 13 14  1  0  0  0
 14 15  1  0  0  0
 15 16  1  0  0  0
 16 17  1  0  0  0
 17 18  1  0  0  0
 18 19  1  0  0  0
 19 20  1  0  0  0
 20 21  1  0  0  0
 21 22  1  0  0  0
 46 47  1  0  0  0
 47 48  1  0  0  0
 48 49  1  0  0  0
 49 50  1  0  0  0
 50 54  1  0  0  0
M  CHG 1  58  -1
M  END
> <minimizedAffinity>
-8.70876

> <CNNscore>
0.4556011558

> <CNNaffinity>
7.0854558945

> <CNN_VS>
3.2281417847

> <CNNaffinity_variance>
1.0197607279

$$$$
/media/chris/experiments/cd1a-new-docking/inputs/ligands/1onq_ligand.pdb


 62 62  0  0  0  0  0  0  0  0999 V2000
  -39.9931   58.9446   65.1170 C   0  0  0  0  0  0  0  0  0  0  0  0
  -39.5455   58.3081   63.8940 N   0  0  0  0  0  0  0  0  0  0  0  0
  -37.5505   57.4274   64.5198 O   0  0  0  0  0  0  0  0  0  0  0  0
  -38.4114   57.6256   63.6848 C   0  0  0  0  0  0  0  0  0  0  0  0
  -40.1498   58.3872   63.1208 H   0  0  0  0  0  0  0  0  0  0  0  0
  -38.2433   57.0779   62.2986 C   0  0  0  0  0  0  0  0  0  0  0  0
  -37.5906   58.1854   61.4713 C   0  0  0  0  0  0  0  0  0  0  0  0
  -38.6549   58.9404   60.6786 C   0  0  0  0  0  0  0  0  0  0  0  0
  -38.3194   59.2427   59.2383 C   0  0  0  0  0  0  0  0  0  0  0  0
  -37.0358   58.4932   58.8969 C   0  0  0  0  0  0  0  0  0  0  0  0
  -37.1901   57.5792   57.6740 C   0  0  0  0  0  0  0  0  0  0  0  0
  -36.5241   56.1996   57.8277 C   0  0  0  0  0  0  0  0  0  0  0  0
  -36.5241   55.6920   59.2864 C   0  0  0  0  0  0  0  0  0  0  0  0
  -35.2191   54.9553   59.6019 C   0  0  0  0  0  0  0  0  0  0  0  0
  -33.9824   55.8417   59.6859 C   0  0  0  0  0  0  0  0  0  0  0  0
  -34.1323   56.9451   60.7229 C   0  0  0  0  0  0  0  0  0  0  0  0
  -33.0855   56.9636   61.8391 C   0  0  0  0  0  0  0  0  0  0  0  0
  -32.8773   58.4086   62.2720 C   0  0  0  0  0  0  0  0  0  0  0  0
  -31.4761   58.9972   62.1988 C   0  0  0  0  0  0  0  0  0  0  0  0
  -31.5290   60.5167   61.9737 C   0  0  0  0  0  0  0  0  0  0  0  0
  -30.2252   61.1271   61.4274 C   0  0  0  0  0  0  0  0  0  0  0  0
  -28.9859   60.7086   62.2151 C   0  0  0  0  0  0  0  0  0  0  0  0
  -41.3246   60.8137   64.7577 O   0  0  0  0  0  0  0  0  0  0  0  0
  -41.3972   59.4001   64.7583 C   0  0  0  0  0  0  0  0  0  0  0  0
  -40.6909   61.1046   64.0834 H   0  0  0  0  0  0  0  0  0  0  0  0
  -42.3833   58.8737   65.8036 C   0  0  0  0  0  0  0  0  0  0  0  0
  -43.7049   59.1118   65.7483 C   0  0  0  0  0  0  0  0  0  0  0  0
  -44.6244   58.5517   66.8319 C   0  0  0  0  0  0  0  0  0  0  0  0
  -46.1196   58.6834   66.5076 C   0  0  0  0  0  0  0  0  0  0  0  0
  -46.4581   59.4868   65.2383 C   0  0  0  0  0  0  0  0  0  0  0  0
  -47.8746   60.1021   65.3392 C   0  0  0  0  0  0  0  0  0  0  0  0
  -48.9448   59.1951   65.9975 C   0  0  0  0  0  0  0  0  0  0  0  0
  -49.8801   58.4855   64.9903 C   0  0  0  0  0  0  0  0  0  0  0  0
  -50.9812   59.4037   64.4172 C   0  0  0  0  0  0  0  0  0  0  0  0
  -51.0228   59.4364   62.8848 C   0  0  0  0  0  0  0  0  0  0  0  0
  -49.6982   59.1735   62.1715 C   0  0  0  0  0  0  0  0  0  0  0  0
  -49.8557   58.5765   60.7591 C   0  0  0  0  0  0  0  0  0  0  0  0
  -50.1290   57.0654   60.7137 C   0  0  0  0  0  0  0  0  0  0  0  0
  -49.1299   56.3534   59.7971 C   0  0  0  0  0  0  0  0  0  0  0  0
  -47.8765   57.1290   59.4327 C   0  0  0  0  0  0  0  0  0  0  0  0
  -39.0382   60.0106   65.7007 C   0  0  0  0  0  0  0  0  0  0  0  0
  -38.4763   60.9616   64.7609 O   0  0  0  0  0  0  0  0  0  0  0  0
  -36.5913   61.3954   62.6548 O   0  0  0  0  0  0  0  0  0  0  0  0
  -35.7084   64.8248   64.8591 O   0  0  0  0  0  0  0  0  0  0  0  0
  -37.0108   62.3795   66.0753 O   0  0  0  0  0  0  0  0  0  0  0  0
  -37.1096   61.4927   64.9344 C   0  0  0  0  0  0  0  0  0  0  0  0
  -36.5288   62.2662   63.7420 C   0  0  0  0  0  0  0  0  0  0  0  0
  -35.0575   62.6938   63.9370 C   0  0  0  0  0  0  0  0  0  0  0  0
  -35.0383   63.5980   65.1385 C   0  0  0  0  0  0  0  0  0  0  0  0
  -35.6740   62.8924   66.3227 C   0  0  0  0  0  0  0  0  0  0  0  0
  -37.5097   61.1158   62.5169 H   0  0  0  0  0  0  0  0  0  0  0  0
  -35.2867   65.2580   64.1005 H   0  0  0  0  0  0  0  0  0  0  0  0
  -34.2405   64.3971   67.5037 O   0  0  0  0  0  0  0  0  0  0  0  0
  -35.5639   63.9636   67.4056 C   0  0  0  0  0  0  0  0  0  0  0  0
  -34.1732   65.0773   68.1920 H   0  0  0  0  0  0  0  0  0  0  0  0
  -34.4681   63.4503   62.8553 O   0  0  0  0  0  0  0  0  0  0  0  0
  -32.2979   64.0183   61.5574 O   0  0  0  0  0  0  0  0  0  0  0  0
  -32.1500   63.2037   63.8385 O   0  0  0  0  0  0  0  0  0  0  0  0
  -32.8609   65.4789   63.4001 O   0  0  0  0  0  0  0  0  0  0  0  0
  -32.9247   64.0723   62.9113 S   0  0  0  0  0  0  0  0  0  0  0  0
  -32.3301   63.1086   61.2222 H   0  0  0  0  0  0  0  0  0  0  0  0
  -33.3638   66.0525   62.8009 H   0  0  0  0  0  0  0  0  0  0  0  0
  2  1  1  0  0  0
  2  4  1  0  0  0
  2  5  1  0  0  0
 41 42  1  0  0  0
 41  1  1  0  0  0
 42 46  1  0  0  0
  1 24  1  0  0  0
 23 24  1  0  0  0
 23 25  1  0  0  0
 24 26  1  0  0  0
  3  4  2  0  0  0
 26 27  2  0  0  0
 27 28  1  0  0  0
 43 47  1  0  0  0
 43 51  1  0  0  0
 28 29  1  0  0  0
 56 48  1  0  0  0
 56 60  1  0  0  0
 29 30  1  0  0  0
 57 60  1  0  0  0
 57 61  1  0  0  0
 30 31  1  0  0  0
 44 49  1  0  0  0
 44 52  1  0  0  0
 31 32  1  0  0  0
 45 46  1  0  0  0
 45 50  1  0  0  0
 32 33  1  0  0  0
 53 54  1  0  0  0
 53 55  1  0  0  0
 33 34  1  0  0  0
 34 35  1  0  0  0
 35 36  1  0  0  0
 58 60  1  0  0  0
 36 37  1  0  0  0
 59 60  1  0  0  0
 59 62  1  0  0  0
 37 38  1  0  0  0
 38 39  1  0  0  0
 39 40  1  0  0  0
  4  6  1  0  0  0
  6  7  1  0  0  0
  7  8  1  0  0  0
  8  9  1  0  0  0
  9 10  1  0  0  0
 10 11  1  0  0  0
 11 12  1  0  0  0
 12 13  1  0  0  0
 13 14  1  0  0  0
 14 15  1  0  0  0
 15 16  1  0  0  0
 16 17  1  0  0  0
 17 18  1  0  0  0
 18 19  1  0  0  0
 19 20  1  0  0  0
 20 21  1  0  0  0
 21 22  1  0  0  0
 46 47  1  0  0  0
 47 48  1  0  0  0
 48 49  1  0  0  0
 49 50  1  0  0  0
 50 54  1  0  0  0
M  CHG 1  58  -1
M  END
> <minimizedAffinity>
-10.04718

> <CNNscore>
0.4165398479

> <CNNaffinity>
7.1431212425

> <CNN_VS>
2.9753947258

> <CNNaffinity_variance>
1.0967905521

$$$$
/media/chris/experiments/cd1a-new-docking/inputs/ligands/1onq_ligand.pdb


 62 62  0  0  0  0  0  0  0  0999 V2000
  -39.1785   60.3710   62.7803 C   0  0  0  0  0  0  0  0  0  0  0  0
  -39.8497   60.0112   64.0137 N   0  0  0  0  0  0  0  0  0  0  0  0
  -41.5612   61.4994   64.0743 O   0  0  0  0  0  0  0  0  0  0  0  0
  -40.9416   60.5698   64.5536 C   0  0  0  0  0  0  0  0  0  0  0  0
  -39.4541   59.2636   64.5174 H   0  0  0  0  0  0  0  0  0  0  0  0
  -41.3982   59.9586   65.8450 C   0  0  0  0  0  0  0  0  0  0  0  0
  -41.6614   58.4807   65.5558 C   0  0  0  0  0  0  0  0  0  0  0  0
  -43.1384   58.1615   65.7743 C   0  0  0  0  0  0  0  0  0  0  0  0
  -44.1235   59.1311   65.1676 C   0  0  0  0  0  0  0  0  0  0  0  0
  -45.5036   58.7928   65.7213 C   0  0  0  0  0  0  0  0  0  0  0  0
  -46.2680   57.7958   64.8400 C   0  0  0  0  0  0  0  0  0  0  0  0
  -47.7443   58.1633   64.6037 C   0  0  0  0  0  0  0  0  0  0  0  0
  -47.9949   59.6872   64.6277 C   0  0  0  0  0  0  0  0  0  0  0  0
  -49.2910   60.0329   63.8888 C   0  0  0  0  0  0  0  0  0  0  0  0
  -50.4032   58.9996   64.0198 C   0  0  0  0  0  0  0  0  0  0  0  0
  -51.2788   58.9333   62.7771 C   0  0  0  0  0  0  0  0  0  0  0  0
  -50.8496   57.9271   61.7068 C   0  0  0  0  0  0  0  0  0  0  0  0
  -49.7733   58.5768   60.8475 C   0  0  0  0  0  0  0  0  0  0  0  0
  -48.6029   57.7257   60.3776 C   0  0  0  0  0  0  0  0  0  0  0  0
  -48.8415   57.2010   58.9529 C   0  0  0  0  0  0  0  0  0  0  0  0
  -47.5642   56.7703   58.2087 C   0  0  0  0  0  0  0  0  0  0  0  0
  -47.7834   56.5422   56.7149 C   0  0  0  0  0  0  0  0  0  0  0  0
  -38.7277   58.0958   62.6530 O   0  0  0  0  0  0  0  0  0  0  0  0
  -39.3670   59.1288   61.9265 C   0  0  0  0  0  0  0  0  0  0  0  0
  -39.1647   57.9866   63.5121 H   0  0  0  0  0  0  0  0  0  0  0  0
  -38.7238   59.3533   60.5560 C   0  0  0  0  0  0  0  0  0  0  0  0
  -37.9115   58.4552   59.9728 C   0  0  0  0  0  0  0  0  0  0  0  0
  -37.3071   58.7541   58.6021 C   0  0  0  0  0  0  0  0  0  0  0  0
  -37.2312   57.5314   57.6762 C   0  0  0  0  0  0  0  0  0  0  0  0
  -36.0166   56.6091   57.8883 C   0  0  0  0  0  0  0  0  0  0  0  0
  -36.4082   55.3698   58.7288 C   0  0  0  0  0  0  0  0  0  0  0  0
  -35.3767   54.9474   59.8052 C   0  0  0  0  0  0  0  0  0  0  0  0
  -34.2661   55.9928   60.0631 C   0  0  0  0  0  0  0  0  0  0  0  0
  -34.1071   56.3706   61.5517 C   0  0  0  0  0  0  0  0  0  0  0  0
  -32.8224   57.1500   61.8575 C   0  0  0  0  0  0  0  0  0  0  0  0
  -32.9482   58.2767   62.8809 C   0  0  0  0  0  0  0  0  0  0  0  0
  -32.3798   59.6260   62.3991 C   0  0  0  0  0  0  0  0  0  0  0  0
  -30.9307   59.5822   61.8911 C   0  0  0  0  0  0  0  0  0  0  0  0
  -30.0737   60.6472   62.5814 C   0  0  0  0  0  0  0  0  0  0  0  0
  -28.6215   60.7317   62.1460 C   0  0  0  0  0  0  0  0  0  0  0  0
  -37.7351   60.9005   62.9378 C   0  0  0  0  0  0  0  0  0  0  0  0
  -37.4846   61.7732   64.0688 O   0  0  0  0  0  0  0  0  0  0  0  0
  -36.6595   63.4063   66.2663 O   0  0  0  0  0  0  0  0  0  0  0  0
  -32.8820   62.8410   64.5899 O   0  0  0  0  0  0  0  0  0  0  0  0
  -35.4436   62.5435   63.0072 O   0  0  0  0  0  0  0  0  0  0  0  0
  -36.4506   62.8255   64.0094 C   0  0  0  0  0  0  0  0  0  0  0  0
  -35.6886   63.0985   65.3141 C   0  0  0  0  0  0  0  0  0  0  0  0
  -34.7059   64.2864   65.2217 C   0  0  0  0  0  0  0  0  0  0  0  0
  -33.7051   63.9226   64.1600 C   0  0  0  0  0  0  0  0  0  0  0  0
  -34.4274   63.5731   62.8713 C   0  0  0  0  0  0  0  0  0  0  0  0
  -37.2868   62.6701   66.3382 H   0  0  0  0  0  0  0  0  0  0  0  0
  -32.4309   63.0855   65.4131 H   0  0  0  0  0  0  0  0  0  0  0  0
  -32.2934   64.2408   62.0264 O   0  0  0  0  0  0  0  0  0  0  0  0
  -33.2559   63.2323   61.9528 C   0  0  0  0  0  0  0  0  0  0  0  0
  -31.5505   64.0221   61.4423 H   0  0  0  0  0  0  0  0  0  0  0  0
  -33.9406   64.5708   66.4147 O   0  0  0  0  0  0  0  0  0  0  0  0
  -32.5595   66.2503   67.8251 O   0  0  0  0  0  0  0  0  0  0  0  0
  -33.0421   66.7520   65.5003 O   0  0  0  0  0  0  0  0  0  0  0  0
  -31.3708   65.0910   66.0676 O   0  0  0  0  0  0  0  0  0  0  0  0
  -32.6889   65.6679   66.4565 S   0  0  0  0  0  0  0  0  0  0  0  0
  -33.4093   66.6314   68.0959 H   0  0  0  0  0  0  0  0  0  0  0  0
  -31.1326   64.3828   66.6862 H   0  0  0  0  0  0  0  0  0  0  0  0
  2  1  1  0  0  0
  2  4  1  0  0  0
  2  5  1  0  0  0
 41 42  1  0  0  0
 41  1  1  0  0  0
 42 46  1  0  0  0
  1 24  1  0  0  0
 23 24  1  0  0  0
 23 25  1  0  0  0
 24 26  1  0  0  0
  3  4  2  0  0  0
 26 27  2  0  0  0
 27 28  1  0  0  0
 43 47  1  0  0  0
 43 51  1  0  0  0
 28 29  1  0  0  0
 56 48  1  0  0  0
 56 60  1  0  0  0
 29 30  1  0  0  0
 57 60  1  0  0  0
 57 61  1  0  0  0
 30 31  1  0  0  0
 44 49  1  0  0  0
 44 52  1  0  0  0
 31 32  1  0  0  0
 45 46  1  0  0  0
 45 50  1  0  0  0
 32 33  1  0  0  0
 53 54  1  0  0  0
 53 55  1  0  0  0
 33 34  1  0  0  0
 34 35  1  0  0  0
 35 36  1  0  0  0
 58 60  1  0  0  0
 36 37  1  0  0  0
 59 60  1  0  0  0
 59 62  1  0  0  0
 37 38  1  0  0  0
 38 39  1  0  0  0
 39 40  1  0  0  0
  4  6  1  0  0  0
  6  7  1  0  0  0
  7  8  1  0  0  0
  8  9  1  0  0  0
  9 10  1  0  0  0
 10 11  1  0  0  0
 11 12  1  0  0  0
 12 13  1  0  0  0
 13 14  1  0  0  0
 14 15  1  0  0  0
 15 16  1  0  0  0
 16 17  1  0  0  0
 17 18  1  0  0  0
 18 19  1  0  0  0
 19 20  1  0  0  0
 20 21  1  0  0  0
 21 22  1  0  0  0
 46 47  1  0  0  0
 47 48  1  0  0  0
 48 49  1  0  0  0
 49 50  1  0  0  0
 50 54  1  0  0  0
M  CHG 1  58  -1
M  END
> <minimizedAffinity>
-10.03344

> <CNNscore>
0.3724709451

> <CNNaffinity>
6.8727722168

> <CNN_VS>
2.5599079132

> <CNNaffinity_variance>
1.1538060904

$$$$
/media/chris/experiments/cd1a-new-docking/inputs/ligands/1onq_ligand.pdb


 62 62  0  0  0  0  0  0  0  0999 V2000
  -38.0309   59.9967   63.5300 C   0  0  0  0  0  0  0  0  0  0  0  0
  -39.4331   59.7108   63.7605 N   0  0  0  0  0  0  0  0  0  0  0  0
  -39.8142   60.7637   65.7337 O   0  0  0  0  0  0  0  0  0  0  0  0
  -40.1953   60.0930   64.7943 C   0  0  0  0  0  0  0  0  0  0  0  0
  -39.8813   59.1683   63.0719 H   0  0  0  0  0  0  0  0  0  0  0  0
  -41.6236   59.6387   64.7356 C   0  0  0  0  0  0  0  0  0  0  0  0
  -42.0324   59.3079   66.1710 C   0  0  0  0  0  0  0  0  0  0  0  0
  -42.5707   57.8811   66.2445 C   0  0  0  0  0  0  0  0  0  0  0  0
  -44.0582   57.7435   66.4607 C   0  0  0  0  0  0  0  0  0  0  0  0
  -44.6271   56.9725   65.2743 C   0  0  0  0  0  0  0  0  0  0  0  0
  -45.5928   57.8134   64.4286 C   0  0  0  0  0  0  0  0  0  0  0  0
  -46.2949   58.9421   65.2054 C   0  0  0  0  0  0  0  0  0  0  0  0
  -47.8325   58.7964   65.2174 C   0  0  0  0  0  0  0  0  0  0  0  0
  -48.3709   58.6366   63.7927 C   0  0  0  0  0  0  0  0  0  0  0  0
  -49.1255   59.8438   63.2493 C   0  0  0  0  0  0  0  0  0  0  0  0
  -49.9665   59.4977   62.0294 C   0  0  0  0  0  0  0  0  0  0  0  0
  -51.0400   58.4267   62.2362 C   0  0  0  0  0  0  0  0  0  0  0  0
  -50.9609   57.4436   61.0760 C   0  0  0  0  0  0  0  0  0  0  0  0
  -49.6093   56.8420   60.7206 C   0  0  0  0  0  0  0  0  0  0  0  0
  -49.2409   57.1425   59.2590 C   0  0  0  0  0  0  0  0  0  0  0  0
  -47.8511   56.6344   58.8333 C   0  0  0  0  0  0  0  0  0  0  0  0
  -47.0630   57.6501   58.0096 C   0  0  0  0  0  0  0  0  0  0  0  0
  -36.9472   60.3272   65.5578 O   0  0  0  0  0  0  0  0  0  0  0  0
  -37.3533   59.2861   64.6891 C   0  0  0  0  0  0  0  0  0  0  0  0
  -37.7276   60.8131   65.8672 H   0  0  0  0  0  0  0  0  0  0  0  0
  -36.1652   58.4774   64.1631 C   0  0  0  0  0  0  0  0  0  0  0  0
  -34.8867   58.8093   64.4111 C   0  0  0  0  0  0  0  0  0  0  0  0
  -33.7554   57.9505   63.8489 C   0  0  0  0  0  0  0  0  0  0  0  0
  -33.1149   58.5220   62.5756 C   0  0  0  0  0  0  0  0  0  0  0  0
  -33.1246   57.5912   61.3490 C   0  0  0  0  0  0  0  0  0  0  0  0
  -34.0913   56.4027   61.5692 C   0  0  0  0  0  0  0  0  0  0  0  0
  -34.5873   55.7050   60.2775 C   0  0  0  0  0  0  0  0  0  0  0  0
  -33.7561   56.0410   59.0169 C   0  0  0  0  0  0  0  0  0  0  0  0
  -34.5191   56.8991   57.9846 C   0  0  0  0  0  0  0  0  0  0  0  0
  -36.0409   56.7184   58.0352 C   0  0  0  0  0  0  0  0  0  0  0  0
  -36.8531   57.9619   58.3912 C   0  0  0  0  0  0  0  0  0  0  0  0
  -37.0032   58.1985   59.9069 C   0  0  0  0  0  0  0  0  0  0  0  0
  -38.4192   58.5668   60.3751 C   0  0  0  0  0  0  0  0  0  0  0  0
  -38.9140   59.8394   59.6817 C   0  0  0  0  0  0  0  0  0  0  0  0
  -40.2933   60.3330   60.0807 C   0  0  0  0  0  0  0  0  0  0  0  0
  -37.6810   61.4876   63.3212 C   0  0  0  0  0  0  0  0  0  0  0  0
  -36.3732   61.7747   62.7640 O   0  0  0  0  0  0  0  0  0  0  0  0
  -34.0569   63.1328   61.7804 O   0  0  0  0  0  0  0  0  0  0  0  0
  -34.7202   65.5705   65.0996 O   0  0  0  0  0  0  0  0  0  0  0  0
  -35.7650   62.7374   64.9062 O   0  0  0  0  0  0  0  0  0  0  0  0
  -35.2903   62.3305   63.5997 C   0  0  0  0  0  0  0  0  0  0  0  0
  -34.5442   63.5413   63.0213 C   0  0  0  0  0  0  0  0  0  0  0  0
  -33.3489   64.0034   63.8835 C   0  0  0  0  0  0  0  0  0  0  0  0
  -33.9202   64.3965   65.2178 C   0  0  0  0  0  0  0  0  0  0  0  0
  -34.7294   63.2463   65.7892 C   0  0  0  0  0  0  0  0  0  0  0  0
  -34.7951   62.8386   61.2241 H   0  0  0  0  0  0  0  0  0  0  0  0
  -34.1843   66.2913   64.7332 H   0  0  0  0  0  0  0  0  0  0  0  0
  -35.9111   62.8786   67.8342 O   0  0  0  0  0  0  0  0  0  0  0  0
  -35.2161   63.8462   67.1066 C   0  0  0  0  0  0  0  0  0  0  0  0
  -36.2192   63.2620   68.6703 H   0  0  0  0  0  0  0  0  0  0  0  0
  -32.6267   65.1584   63.3995 O   0  0  0  0  0  0  0  0  0  0  0  0
  -30.1416   64.4238   63.3535 O   0  0  0  0  0  0  0  0  0  0  0  0
  -30.8142   66.4453   62.1913 O   0  0  0  0  0  0  0  0  0  0  0  0
  -31.3460   64.2707   61.2625 O   0  0  0  0  0  0  0  0  0  0  0  0
  -31.2137   65.0513   62.5253 S   0  0  0  0  0  0  0  0  0  0  0  0
  -30.0408   64.9193   64.1812 H   0  0  0  0  0  0  0  0  0  0  0  0
  -31.6065   63.3599   61.4712 H   0  0  0  0  0  0  0  0  0  0  0  0
  2  1  1  0  0  0
  2  4  1  0  0  0
  2  5  1  0  0  0
 41 42  1  0  0  0
 41  1  1  0  0  0
 42 46  1  0  0  0
  1 24  1  0  0  0
 23 24  1  0  0  0
 23 25  1  0  0  0
 24 26  1  0  0  0
  3  4  2  0  0  0
 26 27  2  0  0  0
 27 28  1  0  0  0
 43 47  1  0  0  0
 43 51  1  0  0  0
 28 29  1  0  0  0
 56 48  1  0  0  0
 56 60  1  0  0  0
 29 30  1  0  0  0
 57 60  1  0  0  0
 57 61  1  0  0  0
 30 31  1  0  0  0
 44 49  1  0  0  0
 44 52  1  0  0  0
 31 32  1  0  0  0
 45 46  1  0  0  0
 45 50  1  0  0  0
 32 33  1  0  0  0
 53 54  1  0  0  0
 53 55  1  0  0  0
 33 34  1  0  0  0
 34 35  1  0  0  0
 35 36  1  0  0  0
 58 60  1  0  0  0
 36 37  1  0  0  0
 59 60  1  0  0  0
 59 62  1  0  0  0
 37 38  1  0  0  0
 38 39  1  0  0  0
 39 40  1  0  0  0
  4  6  1  0  0  0
  6  7  1  0  0  0
  7  8  1  0  0  0
  8  9  1  0  0  0
  9 10  1  0  0  0
 10 11  1  0  0  0
 11 12  1  0  0  0
 12 13  1  0  0  0
 13 14  1  0  0  0
 14 15  1  0  0  0
 15 16  1  0  0  0
 16 17  1  0  0  0
 17 18  1  0  0  0
 18 19  1  0  0  0
 19 20  1  0  0  0
 20 21  1  0  0  0
 21 22  1  0  0  0
 46 47  1  0  0  0
 47 48  1  0  0  0
 48 49  1  0  0  0
 49 50  1  0  0  0
 50 54  1  0  0  0
M  CHG 1  58  -1
M  END
> <minimizedAffinity>
-9.74645

> <CNNscore>
0.3522265553

> <CNNaffinity>
7.1945295334

> <CNN_VS>
2.5341043472

> <CNNaffinity_variance>
1.3116836548

$$$$
/media/chris/experiments/cd1a-new-docking/inputs/ligands/1onq_ligand.pdb


 62 62  0  0  0  0  0  0  0  0999 V2000
  -38.3880   59.5764   64.3782 C   0  0  0  0  0  0  0  0  0  0  0  0
  -39.5117   59.4499   65.2850 N   0  0  0  0  0  0  0  0  0  0  0  0
  -40.8315   61.1827   64.6500 O   0  0  0  0  0  0  0  0  0  0  0  0
  -40.6049   60.2215   65.3588 C   0  0  0  0  0  0  0  0  0  0  0  0
  -39.4661   58.7046   65.9266 H   0  0  0  0  0  0  0  0  0  0  0  0
  -41.5985   59.8206   66.4085 C   0  0  0  0  0  0  0  0  0  0  0  0
  -41.7952   58.3114   66.2652 C   0  0  0  0  0  0  0  0  0  0  0  0
  -43.0938   58.0234   65.5157 C   0  0  0  0  0  0  0  0  0  0  0  0
  -43.8592   56.8007   65.9602 C   0  0  0  0  0  0  0  0  0  0  0  0
  -45.2241   56.8392   65.2810 C   0  0  0  0  0  0  0  0  0  0  0  0
  -46.2364   57.7131   66.0335 C   0  0  0  0  0  0  0  0  0  0  0  0
  -47.6894   57.5581   65.5483 C   0  0  0  0  0  0  0  0  0  0  0  0
  -48.2647   58.8605   64.9497 C   0  0  0  0  0  0  0  0  0  0  0  0
  -49.2620   58.5460   63.8309 C   0  0  0  0  0  0  0  0  0  0  0  0
  -49.4214   59.6406   62.7827 C   0  0  0  0  0  0  0  0  0  0  0  0
  -49.6694   59.0760   61.3917 C   0  0  0  0  0  0  0  0  0  0  0  0
  -48.9706   57.7529   61.0701 C   0  0  0  0  0  0  0  0  0  0  0  0
  -48.5415   57.7844   59.6094 C   0  0  0  0  0  0  0  0  0  0  0  0
  -47.1399   57.3131   59.2507 C   0  0  0  0  0  0  0  0  0  0  0  0
  -46.7963   57.6674   57.7952 C   0  0  0  0  0  0  0  0  0  0  0  0
  -47.2763   56.6368   56.7567 C   0  0  0  0  0  0  0  0  0  0  0  0
  -47.5447   55.2575   57.3542 C   0  0  0  0  0  0  0  0  0  0  0  0
  -38.2072   57.5772   65.5470 O   0  0  0  0  0  0  0  0  0  0  0  0
  -37.8638   58.1527   64.3003 C   0  0  0  0  0  0  0  0  0  0  0  0
  -39.1718   57.5784   65.6491 H   0  0  0  0  0  0  0  0  0  0  0  0
  -36.3502   58.1815   64.0757 C   0  0  0  0  0  0  0  0  0  0  0  0
  -35.7496   57.5464   63.0548 C   0  0  0  0  0  0  0  0  0  0  0  0
  -34.2318   57.6224   62.8994 C   0  0  0  0  0  0  0  0  0  0  0  0
  -33.7078   56.9947   61.5996 C   0  0  0  0  0  0  0  0  0  0  0  0
  -34.6371   55.9615   60.9364 C   0  0  0  0  0  0  0  0  0  0  0  0
  -34.0937   55.5453   59.5483 C   0  0  0  0  0  0  0  0  0  0  0  0
  -33.6530   56.7148   58.6322 C   0  0  0  0  0  0  0  0  0  0  0  0
  -34.7809   57.2762   57.7347 C   0  0  0  0  0  0  0  0  0  0  0  0
  -36.0642   56.4176   57.7460 C   0  0  0  0  0  0  0  0  0  0  0  0
  -37.3571   57.2397   57.8072 C   0  0  0  0  0  0  0  0  0  0  0  0
  -37.2586   58.5947   58.5049 C   0  0  0  0  0  0  0  0  0  0  0  0
  -37.2043   58.5044   60.0426 C   0  0  0  0  0  0  0  0  0  0  0  0
  -38.5588   58.6386   60.7548 C   0  0  0  0  0  0  0  0  0  0  0  0
  -39.2751   59.9256   60.3359 C   0  0  0  0  0  0  0  0  0  0  0  0
  -40.3293   60.4537   61.2926 C   0  0  0  0  0  0  0  0  0  0  0  0
  -37.3667   60.6807   64.7336 C   0  0  0  0  0  0  0  0  0  0  0  0
  -37.5359   61.9583   64.0687 O   0  0  0  0  0  0  0  0  0  0  0  0
  -36.7199   63.6153   66.2519 O   0  0  0  0  0  0  0  0  0  0  0  0
  -32.9086   62.7880   64.7724 O   0  0  0  0  0  0  0  0  0  0  0  0
  -35.4088   62.5798   63.0811 O   0  0  0  0  0  0  0  0  0  0  0  0
  -36.4425   62.9497   64.0259 C   0  0  0  0  0  0  0  0  0  0  0  0
  -35.7260   63.2232   65.3560 C   0  0  0  0  0  0  0  0  0  0  0  0
  -34.6746   64.3517   65.2738 C   0  0  0  0  0  0  0  0  0  0  0  0
  -33.6490   63.8985   64.2716 C   0  0  0  0  0  0  0  0  0  0  0  0
  -34.3310   63.5469   62.9618 C   0  0  0  0  0  0  0  0  0  0  0  0
  -37.3904   62.9174   66.3166 H   0  0  0  0  0  0  0  0  0  0  0  0
  -32.4820   63.0343   65.6081 H   0  0  0  0  0  0  0  0  0  0  0  0
  -32.9346   61.7392   62.2574 O   0  0  0  0  0  0  0  0  0  0  0  0
  -33.1403   63.1121   62.1100 C   0  0  0  0  0  0  0  0  0  0  0  0
  -32.1780   61.4656   61.7156 H   0  0  0  0  0  0  0  0  0  0  0  0
  -33.9490   64.6327   66.4921 O   0  0  0  0  0  0  0  0  0  0  0  0
  -32.4967   66.1931   67.9662 O   0  0  0  0  0  0  0  0  0  0  0  0
  -33.0209   66.8448   65.6881 O   0  0  0  0  0  0  0  0  0  0  0  0
  -31.3764   65.1161   66.1140 O   0  0  0  0  0  0  0  0  0  0  0  0
  -32.6713   65.6974   66.5688 S   0  0  0  0  0  0  0  0  0  0  0  0
  -33.3309   66.5759   68.2800 H   0  0  0  0  0  0  0  0  0  0  0  0
  -31.1407   64.3668   66.6831 H   0  0  0  0  0  0  0  0  0  0  0  0
  2  1  1  0  0  0
  2  4  1  0  0  0
  2  5  1  0  0  0
 41 42  1  0  0  0
 41  1  1  0  0  0
 42 46  1  0  0  0
  1 24  1  0  0  0
 23 24  1  0  0  0
 23 25  1  0  0  0
 24 26  1  0  0  0
  3  4  2  0  0  0
 26 27  2  0  0  0
 27 28  1  0  0  0
 43 47  1  0  0  0
 43 51  1  0  0  0
 28 29  1  0  0  0
 56 48  1  0  0  0
 56 60  1  0  0  0
 29 30  1  0  0  0
 57 60  1  0  0  0
 57 61  1  0  0  0
 30 31  1  0  0  0
 44 49  1  0  0  0
 44 52  1  0  0  0
 31 32  1  0  0  0
 45 46  1  0  0  0
 45 50  1  0  0  0
 32 33  1  0  0  0
 53 54  1  0  0  0
 53 55  1  0  0  0
 33 34  1  0  0  0
 34 35  1  0  0  0
 35 36  1  0  0  0
 58 60  1  0  0  0
 36 37  1  0  0  0
 59 60  1  0  0  0
 59 62  1  0  0  0
 37 38  1  0  0  0
 38 39  1  0  0  0
 39 40  1  0  0  0
  4  6  1  0  0  0
  6  7  1  0  0  0
  7  8  1  0  0  0
  8  9  1  0  0  0
  9 10  1  0  0  0
 10 11  1  0  0  0
 11 12  1  0  0  0
 12 13  1  0  0  0
 13 14  1  0  0  0
 14 15  1  0  0  0
 15 16  1  0  0  0
 16 17  1  0  0  0
 17 18  1  0  0  0
 18 19  1  0  0  0
 19 20  1  0  0  0
 20 21  1  0  0  0
 21 22  1  0  0  0
 46 47  1  0  0  0
 47 48  1  0  0  0
 48 49  1  0  0  0
 49 50  1  0  0  0
 50 54  1  0  0  0
M  CHG 1  58  -1
M  END
> <minimizedAffinity>
-9.74173

> <CNNscore>
0.3438578248

> <CNNaffinity>
7.2141318321

> <CNN_VS>
2.4806356430

> <CNNaffinity_variance>
1.4072898626

$$$$
/media/chris/experiments/cd1a-new-docking/inputs/ligands/1onq_ligand.pdb


 62 62  0  0  0  0  0  0  0  0999 V2000
  -38.8211   60.7250   62.2800 C   0  0  0  0  0  0  0  0  0  0  0  0
  -39.8353   59.8766   62.8740 N   0  0  0  0  0  0  0  0  0  0  0  0
  -40.7909   61.2688   64.3894 O   0  0  0  0  0  0  0  0  0  0  0  0
  -40.7099   60.1871   63.8407 C   0  0  0  0  0  0  0  0  0  0  0  0
  -39.8880   58.9580   62.5238 H   0  0  0  0  0  0  0  0  0  0  0  0
  -41.6443   59.0816   64.2341 C   0  0  0  0  0  0  0  0  0  0  0  0
  -41.7944   59.1613   65.7534 C   0  0  0  0  0  0  0  0  0  0  0  0
  -43.2327   58.8409   66.1530 C   0  0  0  0  0  0  0  0  0  0  0  0
  -44.3076   59.3384   65.2173 C   0  0  0  0  0  0  0  0  0  0  0  0
  -45.1389   58.1339   64.7884 C   0  0  0  0  0  0  0  0  0  0  0  0
  -46.6024   58.2325   65.2392 C   0  0  0  0  0  0  0  0  0  0  0  0
  -47.1694   59.6639   65.2375 C   0  0  0  0  0  0  0  0  0  0  0  0
  -48.3799   59.8291   64.2925 C   0  0  0  0  0  0  0  0  0  0  0  0
  -48.9765   58.4646   63.9356 C   0  0  0  0  0  0  0  0  0  0  0  0
  -50.4968   58.4309   63.8385 C   0  0  0  0  0  0  0  0  0  0  0  0
  -50.9934   58.7610   62.4385 C   0  0  0  0  0  0  0  0  0  0  0  0
  -51.0744   57.5862   61.4610 C   0  0  0  0  0  0  0  0  0  0  0  0
  -49.9797   57.7598   60.4169 C   0  0  0  0  0  0  0  0  0  0  0  0
  -49.3380   56.5163   59.8192 C   0  0  0  0  0  0  0  0  0  0  0  0
  -48.3757   56.8876   58.6798 C   0  0  0  0  0  0  0  0  0  0  0  0
  -46.9898   57.3700   59.1461 C   0  0  0  0  0  0  0  0  0  0  0  0
  -46.1456   57.9614   58.0196 C   0  0  0  0  0  0  0  0  0  0  0  0
  -39.9494   59.8165   60.4642 O   0  0  0  0  0  0  0  0  0  0  0  0
  -38.6360   60.1064   60.9050 C   0  0  0  0  0  0  0  0  0  0  0  0
  -40.4581   60.6398   60.4001 H   0  0  0  0  0  0  0  0  0  0  0  0
  -37.7773   58.8455   61.0279 C   0  0  0  0  0  0  0  0  0  0  0  0
  -37.8951   57.7960   60.1967 C   0  0  0  0  0  0  0  0  0  0  0  0
  -37.0008   56.5721   60.3860 C   0  0  0  0  0  0  0  0  0  0  0  0
  -36.5422   55.9277   59.0697 C   0  0  0  0  0  0  0  0  0  0  0  0
  -35.7544   56.8458   58.1171 C   0  0  0  0  0  0  0  0  0  0  0  0
  -34.2637   56.9136   58.5277 C   0  0  0  0  0  0  0  0  0  0  0  0
  -33.7321   55.6777   59.2967 C   0  0  0  0  0  0  0  0  0  0  0  0
  -33.3395   55.9659   60.7649 C   0  0  0  0  0  0  0  0  0  0  0  0
  -33.5976   57.4253   61.1982 C   0  0  0  0  0  0  0  0  0  0  0  0
  -33.1874   57.7217   62.6456 C   0  0  0  0  0  0  0  0  0  0  0  0
  -33.6720   59.0504   63.2221 C   0  0  0  0  0  0  0  0  0  0  0  0
  -34.8989   58.9213   64.1462 C   0  0  0  0  0  0  0  0  0  0  0  0
  -35.3850   57.4850   64.3925 C   0  0  0  0  0  0  0  0  0  0  0  0
  -36.8564   57.3273   63.9984 C   0  0  0  0  0  0  0  0  0  0  0  0
  -37.8820   57.7208   65.0466 C   0  0  0  0  0  0  0  0  0  0  0  0
  -37.5480   60.9362   63.1306 C   0  0  0  0  0  0  0  0  0  0  0  0
  -36.5787   61.8872   62.6215 O   0  0  0  0  0  0  0  0  0  0  0  0
  -34.2706   63.3023   61.7009 O   0  0  0  0  0  0  0  0  0  0  0  0
  -34.9707   65.6065   65.1068 O   0  0  0  0  0  0  0  0  0  0  0  0
  -35.9887   62.7736   64.8015 O   0  0  0  0  0  0  0  0  0  0  0  0
  -35.5046   62.4207   63.4828 C   0  0  0  0  0  0  0  0  0  0  0  0
  -34.7670   63.6592   62.9541 C   0  0  0  0  0  0  0  0  0  0  0  0
  -33.5798   64.0990   63.8388 C   0  0  0  0  0  0  0  0  0  0  0  0
  -34.1605   64.4362   65.1843 C   0  0  0  0  0  0  0  0  0  0  0  0
  -34.9616   63.2579   65.7080 C   0  0  0  0  0  0  0  0  0  0  0  0
  -35.0036   63.0228   61.1305 H   0  0  0  0  0  0  0  0  0  0  0  0
  -34.4398   66.3455   64.7705 H   0  0  0  0  0  0  0  0  0  0  0  0
  -36.8253   64.0798   66.9591 O   0  0  0  0  0  0  0  0  0  0  0  0
  -35.4596   63.8032   67.0448 C   0  0  0  0  0  0  0  0  0  0  0  0
  -37.1390   64.4259   67.8092 H   0  0  0  0  0  0  0  0  0  0  0  0
  -32.8660   65.2779   63.4023 O   0  0  0  0  0  0  0  0  0  0  0  0
  -30.3999   64.4816   63.3691 O   0  0  0  0  0  0  0  0  0  0  0  0
  -30.9790   66.6252   62.3898 O   0  0  0  0  0  0  0  0  0  0  0  0
  -31.5298   64.5676   61.2332 O   0  0  0  0  0  0  0  0  0  0  0  0
  -31.4249   65.2170   62.5707 S   0  0  0  0  0  0  0  0  0  0  0  0
  -30.3175   64.8907   64.2447 H   0  0  0  0  0  0  0  0  0  0  0  0
  -31.8202   63.6485   61.3419 H   0  0  0  0  0  0  0  0  0  0  0  0
  2  1  1  0  0  0
  2  4  1  0  0  0
  2  5  1  0  0  0
 41 42  1  0  0  0
 41  1  1  0  0  0
 42 46  1  0  0  0
  1 24  1  0  0  0
 23 24  1  0  0  0
 23 25  1  0  0  0
 24 26  1  0  0  0
  3  4  2  0  0  0
 26 27  2  0  0  0
 27 28  1  0  0  0
 43 47  1  0  0  0
 43 51  1  0  0  0
 28 29  1  0  0  0
 56 48  1  0  0  0
 56 60  1  0  0  0
 29 30  1  0  0  0
 57 60  1  0  0  0
 57 61  1  0  0  0
 30 31  1  0  0  0
 44 49  1  0  0  0
 44 52  1  0  0  0
 31 32  1  0  0  0
 45 46  1  0  0  0
 45 50  1  0  0  0
 32 33  1  0  0  0
 53 54  1  0  0  0
 53 55  1  0  0  0
 33 34  1  0  0  0
 34 35  1  0  0  0
 35 36  1  0  0  0
 58 60  1  0  0  0
 36 37  1  0  0  0
 59 60  1  0  0  0
 59 62  1  0  0  0
 37 38  1  0  0  0
 38 39  1  0  0  0
 39 40  1  0  0  0
  4  6  1  0  0  0
  6  7  1  0  0  0
  7  8  1  0  0  0
  8  9  1  0  0  0
  9 10  1  0  0  0
 10 11  1  0  0  0
 11 12  1  0  0  0
 12 13  1  0  0  0
 13 14  1  0  0  0
 14 15  1  0  0  0
 15 16  1  0  0  0
 16 17  1  0  0  0
 17 18  1  0  0  0
 18 19  1  0  0  0
 19 20  1  0  0  0
 20 21  1  0  0  0
 21 22  1  0  0  0
 46 47  1  0  0  0
 47 48  1  0  0  0
 48 49  1  0  0  0
 49 50  1  0  0  0
 50 54  1  0  0  0
M  CHG 1  58  -1
M  END
> <minimizedAffinity>
-9.76970

> <CNNscore>
0.3179187179

> <CNNaffinity>
7.1358833313

> <CNN_VS>
2.2686309814

> <CNNaffinity_variance>
1.1296746731

$$$$
