/media/chris/experiments/cd1a-new-docking/inputs/ligands/1onq_ligand.pdb


 62 62  0  0  0  0  0  0  0  0999 V2000
  -37.6686   59.3695   62.7633 C   0  0  0  0  0  0  0  0  0  0  0  0
  -37.3589   58.3671   63.7636 N   0  0  0  0  0  0  0  0  0  0  0  0
  -37.8346   57.0533   65.5511 O   0  0  0  0  0  0  0  0  0  0  0  0
  -38.1558   57.8895   64.7293 C   0  0  0  0  0  0  0  0  0  0  0  0
  -36.4500   57.9904   63.7292 H   0  0  0  0  0  0  0  0  0  0  0  0
  -39.5386   58.4700   64.7601 C   0  0  0  0  0  0  0  0  0  0  0  0
  -39.4869   59.6617   65.7165 C   0  0  0  0  0  0  0  0  0  0  0  0
  -40.8208   60.4042   65.6970 C   0  0  0  0  0  0  0  0  0  0  0  0
  -42.0255   59.5933   65.2851 C   0  0  0  0  0  0  0  0  0  0  0  0
  -42.8117   59.2614   66.5491 C   0  0  0  0  0  0  0  0  0  0  0  0
  -42.6288   57.8047   66.9959 C   0  0  0  0  0  0  0  0  0  0  0  0
  -43.2106   56.7661   66.0196 C   0  0  0  0  0  0  0  0  0  0  0  0
  -44.7443   56.8732   65.8726 C   0  0  0  0  0  0  0  0  0  0  0  0
  -45.1140   57.5519   64.5505 C   0  0  0  0  0  0  0  0  0  0  0  0
  -46.3198   58.4813   64.6177 C   0  0  0  0  0  0  0  0  0  0  0  0
  -46.4931   59.1032   65.9955 C   0  0  0  0  0  0  0  0  0  0  0  0
  -47.9160   59.1000   66.5590 C   0  0  0  0  0  0  0  0  0  0  0  0
  -48.6622   57.9156   65.9599 C   0  0  0  0  0  0  0  0  0  0  0  0
  -50.1751   58.0012   65.8216 C   0  0  0  0  0  0  0  0  0  0  0  0
  -50.5930   59.3245   65.1613 C   0  0  0  0  0  0  0  0  0  0  0  0
  -51.0085   59.1978   63.6840 C   0  0  0  0  0  0  0  0  0  0  0  0
  -52.0945   60.1902   63.2748 C   0  0  0  0  0  0  0  0  0  0  0  0
  -36.1532   58.5838   61.1880 O   0  0  0  0  0  0  0  0  0  0  0  0
  -37.5413   58.5916   61.4648 C   0  0  0  0  0  0  0  0  0  0  0  0
  -35.6833   58.1282   61.9039 H   0  0  0  0  0  0  0  0  0  0  0  0
  -38.3438   59.2982   60.3698 C   0  0  0  0  0  0  0  0  0  0  0  0
  -39.6241   59.6749   60.5283 C   0  0  0  0  0  0  0  0  0  0  0  0
  -40.3576   60.3753   59.3859 C   0  0  0  0  0  0  0  0  0  0  0  0
  -41.6089   59.6291   58.9005 C   0  0  0  0  0  0  0  0  0  0  0  0
  -41.6304   59.2670   57.4040 C   0  0  0  0  0  0  0  0  0  0  0  0
  -43.0541   58.8542   56.9591 C   0  0  0  0  0  0  0  0  0  0  0  0
  -44.0009   58.4073   58.1017 C   0  0  0  0  0  0  0  0  0  0  0  0
  -45.4899   58.3187   57.6923 C   0  0  0  0  0  0  0  0  0  0  0  0
  -45.9110   56.9194   57.1935 C   0  0  0  0  0  0  0  0  0  0  0  0
  -47.3608   56.8504   56.6988 C   0  0  0  0  0  0  0  0  0  0  0  0
  -48.3348   56.0718   57.5807 C   0  0  0  0  0  0  0  0  0  0  0  0
  -49.3313   56.9616   58.3495 C   0  0  0  0  0  0  0  0  0  0  0  0
  -48.7650   57.6482   59.6017 C   0  0  0  0  0  0  0  0  0  0  0  0
  -49.8903   58.1876   60.4894 C   0  0  0  0  0  0  0  0  0  0  0  0
  -51.0003   57.2124   60.8395 C   0  0  0  0  0  0  0  0  0  0  0  0
  -36.8689   60.6876   62.8718 C   0  0  0  0  0  0  0  0  0  0  0  0
  -35.4493   60.5641   63.1417 O   0  0  0  0  0  0  0  0  0  0  0  0
  -33.4986   62.4473   62.2327 O   0  0  0  0  0  0  0  0  0  0  0  0
  -35.4282   64.9629   64.9433 O   0  0  0  0  0  0  0  0  0  0  0  0
  -35.5419   61.9452   65.1339 O   0  0  0  0  0  0  0  0  0  0  0  0
  -34.7443   61.5418   63.9943 C   0  0  0  0  0  0  0  0  0  0  0  0
  -34.2968   62.8395   63.3065 C   0  0  0  0  0  0  0  0  0  0  0  0
  -33.4634   63.7685   64.2164 C   0  0  0  0  0  0  0  0  0  0  0  0
  -34.3526   64.1320   65.3734 C   0  0  0  0  0  0  0  0  0  0  0  0
  -34.8758   62.8700   66.0354 C   0  0  0  0  0  0  0  0  0  0  0  0
  -34.0066   61.8620   61.6492 H   0  0  0  0  0  0  0  0  0  0  0  0
  -35.0719   65.7618   64.5241 H   0  0  0  0  0  0  0  0  0  0  0  0
  -36.2828   62.4164   67.9137 O   0  0  0  0  0  0  0  0  0  0  0  0
  -35.7434   63.4523   67.1491 C   0  0  0  0  0  0  0  0  0  0  0  0
  -36.8333   62.7888   68.6203 H   0  0  0  0  0  0  0  0  0  0  0  0
  -33.0388   65.0187   63.6278 O   0  0  0  0  0  0  0  0  0  0  0  0
  -31.7286   64.5624   61.4387 O   0  0  0  0  0  0  0  0  0  0  0  0
  -30.5678   64.4787   63.5681 O   0  0  0  0  0  0  0  0  0  0  0  0
  -31.1932   66.6125   62.6036 O   0  0  0  0  0  0  0  0  0  0  0  0
  -31.6127   65.1939   62.7864 S   0  0  0  0  0  0  0  0  0  0  0  0
  -32.0013   63.6369   61.5376 H   0  0  0  0  0  0  0  0  0  0  0  0
  -31.8693   67.0865   62.0946 H   0  0  0  0  0  0  0  0  0  0  0  0
  2  1  1  0  0  0
  2  4  1  0  0  0
  2  5  1  0  0  0
 41 42  1  0  0  0
 41  1  1  0  0  0
 42 46  1  0  0  0
  1 24  1  0  0  0
 23 24  1  0  0  0
 23 25  1  0  0  0
 24 26  1  0  0  0
  3  4  2  0  0  0
 26 27  2  0  0  0
 27 28  1  0  0  0
 43 47  1  0  0  0
 43 51  1  0  0  0
 28 29  1  0  0  0
 56 48  1  0  0  0
 56 60  1  0  0  0
 29 30  1  0  0  0
 57 60  1  0  0  0
 57 61  1  0  0  0
 30 31  1  0  0  0
 44 49  1  0  0  0
 44 52  1  0  0  0
 31 32  1  0  0  0
 45 46  1  0  0  0
 45 50  1  0  0  0
 32 33  1  0  0  0
 53 54  1  0  0  0
 53 55  1  0  0  0
 33 34  1  0  0  0
 34 35  1  0  0  0
 35 36  1  0  0  0
 58 60  1  0  0  0
 36 37  1  0  0  0
 59 60  1  0  0  0
 59 62  1  0  0  0
 37 38  1  0  0  0
 38 39  1  0  0  0
 39 40  1  0  0  0
  4  6  1  0  0  0
  6  7  1  0  0  0
  7  8  1  0  0  0
  8  9  1  0  0  0
  9 10  1  0  0  0
 10 11  1  0  0  0
 11 12  1  0  0  0
 12 13  1  0  0  0
 13 14  1  0  0  0
 14 15  1  0  0  0
 15 16  1  0  0  0
 16 17  1  0  0  0
 17 18  1  0  0  0
 18 19  1  0  0  0
 19 20  1  0  0  0
 20 21  1  0  0  0
 21 22  1  0  0  0
 46 47  1  0  0  0
 47 48  1  0  0  0
 48 49  1  0  0  0
 49 50  1  0  0  0
 50 54  1  0  0  0
M  CHG 1  58  -1
M  END
> <minimizedAffinity>
-9.14503

> <CNNscore>
0.3870398104

> <CNNaffinity>
7.0608062744

> <CNN_VS>
2.7328131199

> <CNNaffinity_variance>
0.8180152178

$$$$
/media/chris/experiments/cd1a-new-docking/inputs/ligands/1onq_ligand.pdb


 62 62  0  0  0  0  0  0  0  0999 V2000
  -38.3669   59.5734   64.3273 C   0  0  0  0  0  0  0  0  0  0  0  0
  -38.7338   60.2149   63.0803 N   0  0  0  0  0  0  0  0  0  0  0  0
  -39.1722   60.2477   60.8545 O   0  0  0  0  0  0  0  0  0  0  0  0
  -38.8726   59.6531   61.8716 C   0  0  0  0  0  0  0  0  0  0  0  0
  -38.9019   61.1838   63.1272 H   0  0  0  0  0  0  0  0  0  0  0  0
  -38.6200   58.1754   61.8225 C   0  0  0  0  0  0  0  0  0  0  0  0
  -37.2718   57.9893   61.1259 C   0  0  0  0  0  0  0  0  0  0  0  0
  -37.4815   57.4015   59.7325 C   0  0  0  0  0  0  0  0  0  0  0  0
  -37.5115   58.3907   58.5927 C   0  0  0  0  0  0  0  0  0  0  0  0
  -36.3058   58.1058   57.7034 C   0  0  0  0  0  0  0  0  0  0  0  0
  -35.6865   56.7267   57.9677 C   0  0  0  0  0  0  0  0  0  0  0  0
  -34.1491   56.6986   57.8900 C   0  0  0  0  0  0  0  0  0  0  0  0
  -33.5118   55.7634   58.9410 C   0  0  0  0  0  0  0  0  0  0  0  0
  -34.2530   55.8678   60.2769 C   0  0  0  0  0  0  0  0  0  0  0  0
  -33.4071   56.3536   61.4477 C   0  0  0  0  0  0  0  0  0  0  0  0
  -33.7103   57.7977   61.8188 C   0  0  0  0  0  0  0  0  0  0  0  0
  -32.7057   58.4755   62.7535 C   0  0  0  0  0  0  0  0  0  0  0  0
  -31.8175   59.3866   61.9170 C   0  0  0  0  0  0  0  0  0  0  0  0
  -30.5359   59.9245   62.5362 C   0  0  0  0  0  0  0  0  0  0  0  0
  -29.8122   60.8721   61.5666 C   0  0  0  0  0  0  0  0  0  0  0  0
  -29.5700   62.2886   62.1197 C   0  0  0  0  0  0  0  0  0  0  0  0
  -30.6955   63.2664   61.7899 C   0  0  0  0  0  0  0  0  0  0  0  0
  -38.1960   60.7616   66.3160 O   0  0  0  0  0  0  0  0  0  0  0  0
  -39.1562   60.3684   65.3532 C   0  0  0  0  0  0  0  0  0  0  0  0
  -37.5263   61.3224   65.8943 H   0  0  0  0  0  0  0  0  0  0  0  0
  -40.2457   59.4780   65.9555 C   0  0  0  0  0  0  0  0  0  0  0  0
  -41.4736   59.9301   66.2625 C   0  0  0  0  0  0  0  0  0  0  0  0
  -42.5064   58.9778   66.8623 C   0  0  0  0  0  0  0  0  0  0  0  0
  -42.6346   57.6454   66.1095 C   0  0  0  0  0  0  0  0  0  0  0  0
  -44.0733   57.1802   65.8182 C   0  0  0  0  0  0  0  0  0  0  0  0
  -44.7471   58.1007   64.7723 C   0  0  0  0  0  0  0  0  0  0  0  0
  -46.2815   58.2592   64.9213 C   0  0  0  0  0  0  0  0  0  0  0  0
  -46.7108   59.3909   65.8844 C   0  0  0  0  0  0  0  0  0  0  0  0
  -48.2415   59.5659   65.9882 C   0  0  0  0  0  0  0  0  0  0  0  0
  -49.0156   58.2423   65.9935 C   0  0  0  0  0  0  0  0  0  0  0  0
  -50.2685   58.1937   65.1215 C   0  0  0  0  0  0  0  0  0  0  0  0
  -50.5484   59.5013   64.3549 C   0  0  0  0  0  0  0  0  0  0  0  0
  -51.2764   59.3305   63.0129 C   0  0  0  0  0  0  0  0  0  0  0  0
  -50.4443   58.4916   62.0388 C   0  0  0  0  0  0  0  0  0  0  0  0
  -51.1983   57.4518   61.2289 C   0  0  0  0  0  0  0  0  0  0  0  0
  -36.8491   59.4206   64.5760 C   0  0  0  0  0  0  0  0  0  0  0  0
  -35.9777   60.3109   63.8335 O   0  0  0  0  0  0  0  0  0  0  0  0
  -34.0144   61.9703   62.5807 O   0  0  0  0  0  0  0  0  0  0  0  0
  -35.5548   64.8520   65.1734 O   0  0  0  0  0  0  0  0  0  0  0  0
  -35.8173   61.8800   65.6768 O   0  0  0  0  0  0  0  0  0  0  0  0
  -35.1472   61.3191   64.5218 C   0  0  0  0  0  0  0  0  0  0  0  0
  -34.6916   62.5138   63.6716 C   0  0  0  0  0  0  0  0  0  0  0  0
  -33.7310   63.4708   64.4110 C   0  0  0  0  0  0  0  0  0  0  0  0
  -34.4929   63.9995   65.5948 C   0  0  0  0  0  0  0  0  0  0  0  0
  -35.0241   62.8428   66.4220 C   0  0  0  0  0  0  0  0  0  0  0  0
  -34.6035   61.3652   62.1033 H   0  0  0  0  0  0  0  0  0  0  0  0
  -35.1935   65.5827   64.6475 H   0  0  0  0  0  0  0  0  0  0  0  0
  -36.4750   62.6712   68.3139 O   0  0  0  0  0  0  0  0  0  0  0  0
  -35.7563   63.5833   67.5390 C   0  0  0  0  0  0  0  0  0  0  0  0
  -36.9390   63.1440   69.0225 H   0  0  0  0  0  0  0  0  0  0  0  0
  -33.2918   64.6293   63.6660 O   0  0  0  0  0  0  0  0  0  0  0  0
  -33.1247   66.8860   64.9294 O   0  0  0  0  0  0  0  0  0  0  0  0
  -31.5325   66.3784   63.1698 O   0  0  0  0  0  0  0  0  0  0  0  0
  -31.3477   65.2961   65.3306 O   0  0  0  0  0  0  0  0  0  0  0  0
  -32.3034   65.8060   64.3067 S   0  0  0  0  0  0  0  0  0  0  0  0
  -33.7539   67.2308   64.2767 H   0  0  0  0  0  0  0  0  0  0  0  0
  -31.8422   64.9209   66.0758 H   0  0  0  0  0  0  0  0  0  0  0  0
  2  1  1  0  0  0
  2  4  1  0  0  0
  2  5  1  0  0  0
 41 42  1  0  0  0
 41  1  1  0  0  0
 42 46  1  0  0  0
  1 24  1  0  0  0
 23 24  1  0  0  0
 23 25  1  0  0  0
 24 26  1  0  0  0
  3  4  2  0  0  0
 26 27  2  0  0  0
 27 28  1  0  0  0
 43 47  1  0  0  0
 43 51  1  0  0  0
 28 29  1  0  0  0
 56 48  1  0  0  0
 56 60  1  0  0  0
 29 30  1  0  0  0
 57 60  1  0  0  0
 57 61  1  0  0  0
 30 31  1  0  0  0
 44 49  1  0  0  0
 44 52  1  0  0  0
 31 32  1  0  0  0
 45 46  1  0  0  0
 45 50  1  0  0  0
 32 33  1  0  0  0
 53 54  1  0  0  0
 53 55  1  0  0  0
 33 34  1  0  0  0
 34 35  1  0  0  0
 35 36  1  0  0  0
 58 60  1  0  0  0
 36 37  1  0  0  0
 59 60  1  0  0  0
 59 62  1  0  0  0
 37 38  1  0  0  0
 38 39  1  0  0  0
 39 40  1  0  0  0
  4  6  1  0  0  0
  6  7  1  0  0  0
  7  8  1  0  0  0
  8  9  1  0  0  0
  9 10  1  0  0  0
 10 11  1  0  0  0
 11 12  1  0  0  0
 12 13  1  0  0  0
 13 14  1  0  0  0
 14 15  1  0  0  0
 15 16  1  0  0  0
 16 17  1  0  0  0
 17 18  1  0  0  0
 18 19  1  0  0  0
 19 20  1  0  0  0
 20 21  1  0  0  0
 21 22  1  0  0  0
 46 47  1  0  0  0
 47 48  1  0  0  0
 48 49  1  0  0  0
 49 50  1  0  0  0
 50 54  1  0  0  0
M  CHG 1  58  -1
M  END
> <minimizedAffinity>
-9.51525

> <CNNscore>
0.3404790461

> <CNNaffinity>
7.1249847412

> <CNN_VS>
2.4259080887

> <CNNaffinity_variance>
1.0488479137

$$$$
/media/chris/experiments/cd1a-new-docking/inputs/ligands/1onq_ligand.pdb


 62 62  0  0  0  0  0  0  0  0999 V2000
  -40.1747   59.1016   64.9110 C   0  0  0  0  0  0  0  0  0  0  0  0
  -39.7167   58.4122   63.7210 N   0  0  0  0  0  0  0  0  0  0  0  0
  -38.3197   57.0513   62.5618 O   0  0  0  0  0  0  0  0  0  0  0  0
  -38.6633   57.5938   63.5940 C   0  0  0  0  0  0  0  0  0  0  0  0
  -40.2453   58.5642   62.9045 H   0  0  0  0  0  0  0  0  0  0  0  0
  -37.8755   57.3687   64.8505 C   0  0  0  0  0  0  0  0  0  0  0  0
  -36.4403   57.0728   64.4148 C   0  0  0  0  0  0  0  0  0  0  0  0
  -35.6096   58.3533   64.4517 C   0  0  0  0  0  0  0  0  0  0  0  0
  -34.1520   58.2093   64.0869 C   0  0  0  0  0  0  0  0  0  0  0  0
  -33.9653   58.7993   62.6930 C   0  0  0  0  0  0  0  0  0  0  0  0
  -32.8923   58.0657   61.8773 C   0  0  0  0  0  0  0  0  0  0  0  0
  -33.1606   56.5615   61.6876 C   0  0  0  0  0  0  0  0  0  0  0  0
  -34.5972   56.2640   61.2047 C   0  0  0  0  0  0  0  0  0  0  0  0
  -34.5735   55.5101   59.8720 C   0  0  0  0  0  0  0  0  0  0  0  0
  -33.8699   56.2369   58.7322 C   0  0  0  0  0  0  0  0  0  0  0  0
  -34.8052   57.1708   57.9786 C   0  0  0  0  0  0  0  0  0  0  0  0
  -36.1984   56.6185   57.6685 C   0  0  0  0  0  0  0  0  0  0  0  0
  -37.2207   57.7021   57.9836 C   0  0  0  0  0  0  0  0  0  0  0  0
  -37.2742   58.2657   59.3960 C   0  0  0  0  0  0  0  0  0  0  0  0
  -38.0512   59.5912   59.4301 C   0  0  0  0  0  0  0  0  0  0  0  0
  -39.2614   59.5976   60.3822 C   0  0  0  0  0  0  0  0  0  0  0  0
  -40.4605   60.3648   59.8297 C   0  0  0  0  0  0  0  0  0  0  0  0
  -41.3940   61.0379   64.5112 O   0  0  0  0  0  0  0  0  0  0  0  0
  -41.5339   59.6296   64.4852 C   0  0  0  0  0  0  0  0  0  0  0  0
  -40.7115   61.3068   63.8766 H   0  0  0  0  0  0  0  0  0  0  0  0
  -42.5993   59.1376   65.4676 C   0  0  0  0  0  0  0  0  0  0  0  0
  -43.8944   59.0016   65.1351 C   0  0  0  0  0  0  0  0  0  0  0  0
  -44.8980   58.5050   66.1741 C   0  0  0  0  0  0  0  0  0  0  0  0
  -45.5405   57.1553   65.8224 C   0  0  0  0  0  0  0  0  0  0  0  0
  -47.0664   57.0737   66.0127 C   0  0  0  0  0  0  0  0  0  0  0  0
  -47.7943   58.0183   65.0263 C   0  0  0  0  0  0  0  0  0  0  0  0
  -48.9579   58.8413   65.6350 C   0  0  0  0  0  0  0  0  0  0  0  0
  -50.3577   58.4421   65.1115 C   0  0  0  0  0  0  0  0  0  0  0  0
  -51.0939   59.5870   64.3825 C   0  0  0  0  0  0  0  0  0  0  0  0
  -51.1056   59.4408   62.8561 C   0  0  0  0  0  0  0  0  0  0  0  0
  -50.9324   58.0227   62.3162 C   0  0  0  0  0  0  0  0  0  0  0  0
  -49.5631   57.7673   61.6560 C   0  0  0  0  0  0  0  0  0  0  0  0
  -49.3950   58.3572   60.2476 C   0  0  0  0  0  0  0  0  0  0  0  0
  -48.5301   57.4477   59.3701 C   0  0  0  0  0  0  0  0  0  0  0  0
  -48.7113   55.9525   59.5631 C   0  0  0  0  0  0  0  0  0  0  0  0
  -39.1828   60.1235   65.5117 C   0  0  0  0  0  0  0  0  0  0  0  0
  -38.5340   61.0232   64.5775 O   0  0  0  0  0  0  0  0  0  0  0  0
  -36.6529   61.3423   62.4474 O   0  0  0  0  0  0  0  0  0  0  0  0
  -35.3791   64.5743   64.7562 O   0  0  0  0  0  0  0  0  0  0  0  0
  -36.9057   62.2306   65.9103 O   0  0  0  0  0  0  0  0  0  0  0  0
  -37.1167   61.4037   64.7401 C   0  0  0  0  0  0  0  0  0  0  0  0
  -36.4807   62.1590   63.5642 C   0  0  0  0  0  0  0  0  0  0  0  0
  -34.9697   62.4250   63.7423 C   0  0  0  0  0  0  0  0  0  0  0  0
  -34.8348   63.2751   64.9754 C   0  0  0  0  0  0  0  0  0  0  0  0
  -35.5185   62.5932   66.1467 C   0  0  0  0  0  0  0  0  0  0  0  0
  -37.5979   61.1642   62.3198 H   0  0  0  0  0  0  0  0  0  0  0  0
  -34.9287   64.9910   64.0049 H   0  0  0  0  0  0  0  0  0  0  0  0
  -36.5021   64.0218   67.7914 O   0  0  0  0  0  0  0  0  0  0  0  0
  -35.2782   63.6045   67.2654 C   0  0  0  0  0  0  0  0  0  0  0  0
  -36.3467   64.6640   68.5017 H   0  0  0  0  0  0  0  0  0  0  0  0
  -34.3247   63.1582   62.6763 O   0  0  0  0  0  0  0  0  0  0  0  0
  -32.3181   64.0708   61.3133 O   0  0  0  0  0  0  0  0  0  0  0  0
  -32.3513   61.7372   61.9783 O   0  0  0  0  0  0  0  0  0  0  0  0
  -31.8691   63.4632   63.6101 O   0  0  0  0  0  0  0  0  0  0  0  0
  -32.6819   63.1230   62.4079 S   0  0  0  0  0  0  0  0  0  0  0  0
  -32.8381   63.8645   60.5209 H   0  0  0  0  0  0  0  0  0  0  0  0
  -32.0786   64.3657   63.8972 H   0  0  0  0  0  0  0  0  0  0  0  0
  2  1  1  0  0  0
  2  4  1  0  0  0
  2  5  1  0  0  0
 41 42  1  0  0  0
 41  1  1  0  0  0
 42 46  1  0  0  0
  1 24  1  0  0  0
 23 24  1  0  0  0
 23 25  1  0  0  0
 24 26  1  0  0  0
  3  4  2  0  0  0
 26 27  2  0  0  0
 27 28  1  0  0  0
 43 47  1  0  0  0
 43 51  1  0  0  0
 28 29  1  0  0  0
 56 48  1  0  0  0
 56 60  1  0  0  0
 29 30  1  0  0  0
 57 60  1  0  0  0
 57 61  1  0  0  0
 30 31  1  0  0  0
 44 49  1  0  0  0
 44 52  1  0  0  0
 31 32  1  0  0  0
 45 46  1  0  0  0
 45 50  1  0  0  0
 32 33  1  0  0  0
 53 54  1  0  0  0
 53 55  1  0  0  0
 33 34  1  0  0  0
 34 35  1  0  0  0
 35 36  1  0  0  0
 58 60  1  0  0  0
 36 37  1  0  0  0
 59 60  1  0  0  0
 59 62  1  0  0  0
 37 38  1  0  0  0
 38 39  1  0  0  0
 39 40  1  0  0  0
  4  6  1  0  0  0
  6  7  1  0  0  0
  7  8  1  0  0  0
  8  9  1  0  0  0
  9 10  1  0  0  0
 10 11  1  0  0  0
 11 12  1  0  0  0
 12 13  1  0  0  0
 13 14  1  0  0  0
 14 15  1  0  0  0
 15 16  1  0  0  0
 16 17  1  0  0  0
 17 18  1  0  0  0
 18 19  1  0  0  0
 19 20  1  0  0  0
 20 21  1  0  0  0
 21 22  1  0  0  0
 46 47  1  0  0  0
 47 48  1  0  0  0
 48 49  1  0  0  0
 49 50  1  0  0  0
 50 54  1  0  0  0
M  CHG 1  58  -1
M  END
> <minimizedAffinity>
-10.03814

> <CNNscore>
0.3318807483

> <CNNaffinity>
7.3175964355

> <CNN_VS>
2.4285693169

> <CNNaffinity_variance>
1.3730303049

$$$$
/media/chris/experiments/cd1a-new-docking/inputs/ligands/1onq_ligand.pdb


 62 62  0  0  0  0  0  0  0  0999 V2000
  -37.7912   60.3097   64.7414 C   0  0  0  0  0  0  0  0  0  0  0  0
  -38.9762   60.6870   63.9967 N   0  0  0  0  0  0  0  0  0  0  0  0
  -41.2154   60.8265   63.6590 O   0  0  0  0  0  0  0  0  0  0  0  0
  -40.2593   60.4973   64.3337 C   0  0  0  0  0  0  0  0  0  0  0  0
  -38.8188   61.1389   63.1363 H   0  0  0  0  0  0  0  0  0  0  0  0
  -40.4782   59.8146   65.6511 C   0  0  0  0  0  0  0  0  0  0  0  0
  -41.1491   58.4767   65.3395 C   0  0  0  0  0  0  0  0  0  0  0  0
  -42.5143   58.4069   66.0196 C   0  0  0  0  0  0  0  0  0  0  0  0
  -43.0914   57.0250   66.2088 C   0  0  0  0  0  0  0  0  0  0  0  0
  -44.4970   57.0276   65.6172 C   0  0  0  0  0  0  0  0  0  0  0  0
  -44.9010   58.3968   65.0542 C   0  0  0  0  0  0  0  0  0  0  0  0
  -46.1933   58.9736   65.6608 C   0  0  0  0  0  0  0  0  0  0  0  0
  -47.2733   57.8973   65.9074 C   0  0  0  0  0  0  0  0  0  0  0  0
  -48.2891   57.8792   64.7615 C   0  0  0  0  0  0  0  0  0  0  0  0
  -49.1033   59.1573   64.6013 C   0  0  0  0  0  0  0  0  0  0  0  0
  -50.5921   58.8788   64.4559 C   0  0  0  0  0  0  0  0  0  0  0  0
  -51.2185   59.2620   63.1132 C   0  0  0  0  0  0  0  0  0  0  0  0
  -50.8743   58.1777   62.1010 C   0  0  0  0  0  0  0  0  0  0  0  0
  -49.9577   58.5297   60.9385 C   0  0  0  0  0  0  0  0  0  0  0  0
  -50.1405   57.5421   59.7754 C   0  0  0  0  0  0  0  0  0  0  0  0
  -48.9280   56.6290   59.5163 C   0  0  0  0  0  0  0  0  0  0  0  0
  -47.8559   57.2810   58.6462 C   0  0  0  0  0  0  0  0  0  0  0  0
  -37.7768   58.0525   65.2895 O   0  0  0  0  0  0  0  0  0  0  0  0
  -37.4932   58.9194   64.2070 C   0  0  0  0  0  0  0  0  0  0  0  0
  -38.7134   58.1303   65.5293 H   0  0  0  0  0  0  0  0  0  0  0  0
  -36.0261   58.8450   63.7777 C   0  0  0  0  0  0  0  0  0  0  0  0
  -35.1012   58.1401   64.4515 C   0  0  0  0  0  0  0  0  0  0  0  0
  -33.6554   58.1166   63.9588 C   0  0  0  0  0  0  0  0  0  0  0  0
  -33.4626   58.7371   62.5674 C   0  0  0  0  0  0  0  0  0  0  0  0
  -33.0521   57.7581   61.4521 C   0  0  0  0  0  0  0  0  0  0  0  0
  -33.7514   56.3899   61.6373 C   0  0  0  0  0  0  0  0  0  0  0  0
  -34.4981   55.8541   60.3895 C   0  0  0  0  0  0  0  0  0  0  0  0
  -33.6684   55.9039   59.0850 C   0  0  0  0  0  0  0  0  0  0  0  0
  -34.2824   56.8113   57.9969 C   0  0  0  0  0  0  0  0  0  0  0  0
  -35.8003   56.6543   57.8459 C   0  0  0  0  0  0  0  0  0  0  0  0
  -36.6164   57.9443   57.8906 C   0  0  0  0  0  0  0  0  0  0  0  0
  -37.3024   58.2042   59.2463 C   0  0  0  0  0  0  0  0  0  0  0  0
  -38.2491   59.4136   59.2799 C   0  0  0  0  0  0  0  0  0  0  0  0
  -39.0771   59.4280   60.5680 C   0  0  0  0  0  0  0  0  0  0  0  0
  -40.2931   60.3374   60.5788 C   0  0  0  0  0  0  0  0  0  0  0  0
  -37.8923   60.4638   66.2760 C   0  0  0  0  0  0  0  0  0  0  0  0
  -37.0679   61.4930   66.8798 O   0  0  0  0  0  0  0  0  0  0  0  0
  -34.3960   62.3677   67.4025 O   0  0  0  0  0  0  0  0  0  0  0  0
  -34.0410   62.0559   63.2581 O   0  0  0  0  0  0  0  0  0  0  0  0
  -36.7013   62.3972   64.6587 O   0  0  0  0  0  0  0  0  0  0  0  0
  -36.3041   62.4464   66.0506 C   0  0  0  0  0  0  0  0  0  0  0  0
  -34.7776   62.2818   66.0642 C   0  0  0  0  0  0  0  0  0  0  0  0
  -34.0284   63.3778   65.2750 C   0  0  0  0  0  0  0  0  0  0  0  0
  -34.5005   63.2679   63.8514 C   0  0  0  0  0  0  0  0  0  0  0  0
  -36.0155   63.3522   63.8047 C   0  0  0  0  0  0  0  0  0  0  0  0
  -34.8576   61.6853   67.9147 H   0  0  0  0  0  0  0  0  0  0  0  0
  -33.0724   62.0230   63.2988 H   0  0  0  0  0  0  0  0  0  0  0  0
  -36.6925   61.9091   62.0235 O   0  0  0  0  0  0  0  0  0  0  0  0
  -36.2784   63.2117   62.3070 C   0  0  0  0  0  0  0  0  0  0  0  0
  -36.8589   61.8225   61.0718 H   0  0  0  0  0  0  0  0  0  0  0  0
  -32.5886   63.2560   65.2313 O   0  0  0  0  0  0  0  0  0  0  0  0
  -31.3682   65.2440   66.3607 O   0  0  0  0  0  0  0  0  0  0  0  0
  -32.2384   65.4966   64.1096 O   0  0  0  0  0  0  0  0  0  0  0  0
  -30.2283   64.2002   64.5013 O   0  0  0  0  0  0  0  0  0  0  0  0
  -31.5672   64.5584   65.0497 S   0  0  0  0  0  0  0  0  0  0  0  0
  -32.2305   65.4852   66.7337 H   0  0  0  0  0  0  0  0  0  0  0  0
  -29.7835   63.5883   65.1084 H   0  0  0  0  0  0  0  0  0  0  0  0
  2  1  1  0  0  0
  2  4  1  0  0  0
  2  5  1  0  0  0
 41 42  1  0  0  0
 41  1  1  0  0  0
 42 46  1  0  0  0
  1 24  1  0  0  0
 23 24  1  0  0  0
 23 25  1  0  0  0
 24 26  1  0  0  0
  3  4  2  0  0  0
 26 27  2  0  0  0
 27 28  1  0  0  0
 43 47  1  0  0  0
 43 51  1  0  0  0
 28 29  1  0  0  0
 56 48  1  0  0  0
 56 60  1  0  0  0
 29 30  1  0  0  0
 57 60  1  0  0  0
 57 61  1  0  0  0
 30 31  1  0  0  0
 44 49  1  0  0  0
 44 52  1  0  0  0
 31 32  1  0  0  0
 45 46  1  0  0  0
 45 50  1  0  0  0
 32 33  1  0  0  0
 53 54  1  0  0  0
 53 55  1  0  0  0
 33 34  1  0  0  0
 34 35  1  0  0  0
 35 36  1  0  0  0
 58 60  1  0  0  0
 36 37  1  0  0  0
 59 60  1  0  0  0
 59 62  1  0  0  0
 37 38  1  0  0  0
 38 39  1  0  0  0
 39 40  1  0  0  0
  4  6  1  0  0  0
  6  7  1  0  0  0
  7  8  1  0  0  0
  8  9  1  0  0  0
  9 10  1  0  0  0
 10 11  1  0  0  0
 11 12  1  0  0  0
 12 13  1  0  0  0
 13 14  1  0  0  0
 14 15  1  0  0  0
 15 16  1  0  0  0
 16 17  1  0  0  0
 17 18  1  0  0  0
 18 19  1  0  0  0
 19 20  1  0  0  0
 20 21  1  0  0  0
 21 22  1  0  0  0
 46 47  1  0  0  0
 47 48  1  0  0  0
 48 49  1  0  0  0
 49 50  1  0  0  0
 50 54  1  0  0  0
M  CHG 1  58  -1
M  END
> <minimizedAffinity>
-9.84246

> <CNNscore>
0.2685784101

> <CNNaffinity>
6.9953155518

> <CNN_VS>
1.8787907362

> <CNNaffinity_variance>
1.4344904423

$$$$
/media/chris/experiments/cd1a-new-docking/inputs/ligands/1onq_ligand.pdb


 62 62  0  0  0  0  0  0  0  0999 V2000
  -40.1972   59.8081   63.8829 C   0  0  0  0  0  0  0  0  0  0  0  0
  -40.4026   60.2970   62.5338 N   0  0  0  0  0  0  0  0  0  0  0  0
  -40.0816   60.2837   60.2878 O   0  0  0  0  0  0  0  0  0  0  0  0
  -39.8812   59.8220   61.3944 C   0  0  0  0  0  0  0  0  0  0  0  0
  -40.9994   61.0747   62.4434 H   0  0  0  0  0  0  0  0  0  0  0  0
  -38.9813   58.6325   61.5522 C   0  0  0  0  0  0  0  0  0  0  0  0
  -37.6314   59.0280   60.9532 C   0  0  0  0  0  0  0  0  0  0  0  0
  -37.2589   58.0670   59.8269 C   0  0  0  0  0  0  0  0  0  0  0  0
  -37.6336   58.5034   58.4313 C   0  0  0  0  0  0  0  0  0  0  0  0
  -37.2470   57.3783   57.4771 C   0  0  0  0  0  0  0  0  0  0  0  0
  -36.1449   56.4729   58.0434 C   0  0  0  0  0  0  0  0  0  0  0  0
  -34.7174   57.0135   57.8428 C   0  0  0  0  0  0  0  0  0  0  0  0
  -33.6586   56.2256   58.6451 C   0  0  0  0  0  0  0  0  0  0  0  0
  -34.3144   55.4597   59.7978 C   0  0  0  0  0  0  0  0  0  0  0  0
  -34.2701   56.1646   61.1481 C   0  0  0  0  0  0  0  0  0  0  0  0
  -33.6928   57.5687   61.0477 C   0  0  0  0  0  0  0  0  0  0  0  0
  -32.5185   57.8796   61.9786 C   0  0  0  0  0  0  0  0  0  0  0  0
  -32.8718   59.1166   62.7932 C   0  0  0  0  0  0  0  0  0  0  0  0
  -34.3254   59.3432   63.1819 C   0  0  0  0  0  0  0  0  0  0  0  0
  -34.6163   58.7729   64.5790 C   0  0  0  0  0  0  0  0  0  0  0  0
  -35.2180   57.3555   64.5776 C   0  0  0  0  0  0  0  0  0  0  0  0
  -36.6019   57.2875   63.9358 C   0  0  0  0  0  0  0  0  0  0  0  0
  -40.9462   60.9914   65.7361 O   0  0  0  0  0  0  0  0  0  0  0  0
  -41.4404   60.2981   64.6053 C   0  0  0  0  0  0  0  0  0  0  0  0
  -40.4053   61.7418   65.4444 H   0  0  0  0  0  0  0  0  0  0  0  0
  -42.3052   59.0978   64.9972 C   0  0  0  0  0  0  0  0  0  0  0  0
  -43.6364   59.1781   65.1636 C   0  0  0  0  0  0  0  0  0  0  0  0
  -44.4300   57.9334   65.5567 C   0  0  0  0  0  0  0  0  0  0  0  0
  -45.9179   58.2034   65.8236 C   0  0  0  0  0  0  0  0  0  0  0  0
  -46.8176   58.2698   64.5757 C   0  0  0  0  0  0  0  0  0  0  0  0
  -48.2559   58.6950   64.9573 C   0  0  0  0  0  0  0  0  0  0  0  0
  -49.3847   58.0230   64.1354 C   0  0  0  0  0  0  0  0  0  0  0  0
  -50.6309   58.9146   63.9236 C   0  0  0  0  0  0  0  0  0  0  0  0
  -51.0770   59.0121   62.4486 C   0  0  0  0  0  0  0  0  0  0  0  0
  -49.9410   59.3675   61.4818 C   0  0  0  0  0  0  0  0  0  0  0  0
  -49.6587   58.3530   60.3757 C   0  0  0  0  0  0  0  0  0  0  0  0
  -48.3297   57.5918   60.5490 C   0  0  0  0  0  0  0  0  0  0  0  0
  -47.5318   57.3644   59.2561 C   0  0  0  0  0  0  0  0  0  0  0  0
  -48.4505   56.9214   58.1138 C   0  0  0  0  0  0  0  0  0  0  0  0
  -47.7740   56.5727   56.7999 C   0  0  0  0  0  0  0  0  0  0  0  0
  -38.8330   60.1604   64.5181 C   0  0  0  0  0  0  0  0  0  0  0  0
  -38.3203   61.4914   64.2559 O   0  0  0  0  0  0  0  0  0  0  0  0
  -36.4185   62.0561   62.1963 O   0  0  0  0  0  0  0  0  0  0  0  0
  -35.1040   64.9278   64.9210 O   0  0  0  0  0  0  0  0  0  0  0  0
  -36.6803   62.4802   65.7453 O   0  0  0  0  0  0  0  0  0  0  0  0
  -36.8976   61.8205   64.4744 C   0  0  0  0  0  0  0  0  0  0  0  0
  -36.2398   62.7136   63.4127 C   0  0  0  0  0  0  0  0  0  0  0  0
  -34.7257   62.9254   63.6317 C   0  0  0  0  0  0  0  0  0  0  0  0
  -34.5846   63.6012   64.9677 C   0  0  0  0  0  0  0  0  0  0  0  0
  -35.2886   62.7822   66.0345 C   0  0  0  0  0  0  0  0  0  0  0  0
  -37.3656   61.9142   62.0416 H   0  0  0  0  0  0  0  0  0  0  0  0
  -34.6409   65.4324   64.2340 H   0  0  0  0  0  0  0  0  0  0  0  0
  -36.2581   64.0423   67.8195 O   0  0  0  0  0  0  0  0  0  0  0  0
  -35.0384   63.6311   67.2791 C   0  0  0  0  0  0  0  0  0  0  0  0
  -36.0964   64.5811   68.6098 H   0  0  0  0  0  0  0  0  0  0  0  0
  -34.0602   63.7818   62.6760 O   0  0  0  0  0  0  0  0  0  0  0  0
  -31.9087   64.3482   61.3466 O   0  0  0  0  0  0  0  0  0  0  0  0
  -31.7690   62.9022   63.2903 O   0  0  0  0  0  0  0  0  0  0  0  0
  -32.0786   65.2901   63.5670 O   0  0  0  0  0  0  0  0  0  0  0  0
  -32.4287   64.1106   62.7256 S   0  0  0  0  0  0  0  0  0  0  0  0
  -32.1275   63.5896   60.7833 H   0  0  0  0  0  0  0  0  0  0  0  0
  -32.5050   66.0828   63.2057 H   0  0  0  0  0  0  0  0  0  0  0  0
  2  1  1  0  0  0
  2  4  1  0  0  0
  2  5  1  0  0  0
 41 42  1  0  0  0
 41  1  1  0  0  0
 42 46  1  0  0  0
  1 24  1  0  0  0
 23 24  1  0  0  0
 23 25  1  0  0  0
 24 26  1  0  0  0
  3  4  2  0  0  0
 26 27  2  0  0  0
 27 28  1  0  0  0
 43 47  1  0  0  0
 43 51  1  0  0  0
 28 29  1  0  0  0
 56 48  1  0  0  0
 56 60  1  0  0  0
 29 30  1  0  0  0
 57 60  1  0  0  0
 57 61  1  0  0  0
 30 31  1  0  0  0
 44 49  1  0  0  0
 44 52  1  0  0  0
 31 32  1  0  0  0
 45 46  1  0  0  0
 45 50  1  0  0  0
 32 33  1  0  0  0
 53 54  1  0  0  0
 53 55  1  0  0  0
 33 34  1  0  0  0
 34 35  1  0  0  0
 35 36  1  0  0  0
 58 60  1  0  0  0
 36 37  1  0  0  0
 59 60  1  0  0  0
 59 62  1  0  0  0
 37 38  1  0  0  0
 38 39  1  0  0  0
 39 40  1  0  0  0
  4  6  1  0  0  0
  6  7  1  0  0  0
  7  8  1  0  0  0
  8  9  1  0  0  0
  9 10  1  0  0  0
 10 11  1  0  0  0
 11 12  1  0  0  0
 12 13  1  0  0  0
 13 14  1  0  0  0
 14 15  1  0  0  0
 15 16  1  0  0  0
 16 17  1  0  0  0
 17 18  1  0  0  0
 18 19  1  0  0  0
 19 20  1  0  0  0
 20 21  1  0  0  0
 21 22  1  0  0  0
 46 47  1  0  0  0
 47 48  1  0  0  0
 48 49  1  0  0  0
 49 50  1  0  0  0
 50 54  1  0  0  0
M  CHG 1  58  -1
M  END
> <minimizedAffinity>
-9.55066

> <CNNscore>
0.2511352599

> <CNNaffinity>
7.1606545448

> <CNN_VS>
1.7982928753

> <CNNaffinity_variance>
1.2230970860

$$$$
/media/chris/experiments/cd1a-new-docking/inputs/ligands/1onq_ligand.pdb


 62 62  0  0  0  0  0  0  0  0999 V2000
  -34.3063   57.8300   62.1523 C   0  0  0  0  0  0  0  0  0  0  0  0
  -34.8980   57.3348   63.3794 N   0  0  0  0  0  0  0  0  0  0  0  0
  -36.6076   57.0159   64.8365 O   0  0  0  0  0  0  0  0  0  0  0  0
  -36.1704   57.4433   63.7858 C   0  0  0  0  0  0  0  0  0  0  0  0
  -34.2894   56.8597   63.9902 H   0  0  0  0  0  0  0  0  0  0  0  0
  -37.0833   58.1632   62.8381 C   0  0  0  0  0  0  0  0  0  0  0  0
  -38.4516   57.4924   62.9611 C   0  0  0  0  0  0  0  0  0  0  0  0
  -39.4912   58.5097   63.4252 C   0  0  0  0  0  0  0  0  0  0  0  0
  -40.0477   58.3035   64.8131 C   0  0  0  0  0  0  0  0  0  0  0  0
  -41.4383   58.9286   64.8497 C   0  0  0  0  0  0  0  0  0  0  0  0
  -41.7246   59.6616   66.1671 C   0  0  0  0  0  0  0  0  0  0  0  0
  -42.6450   58.8918   67.1318 C   0  0  0  0  0  0  0  0  0  0  0  0
  -43.1358   57.5481   66.5496 C   0  0  0  0  0  0  0  0  0  0  0  0
  -44.6499   57.5792   66.3220 C   0  0  0  0  0  0  0  0  0  0  0  0
  -45.1820   58.8637   65.6983 C   0  0  0  0  0  0  0  0  0  0  0  0
  -46.6307   59.1325   66.0778 C   0  0  0  0  0  0  0  0  0  0  0  0
  -47.4221   57.9306   66.5985 C   0  0  0  0  0  0  0  0  0  0  0  0
  -48.4106   57.5085   65.5199 C   0  0  0  0  0  0  0  0  0  0  0  0
  -49.7737   58.1833   65.4754 C   0  0  0  0  0  0  0  0  0  0  0  0
  -50.1409   58.5870   64.0387 C   0  0  0  0  0  0  0  0  0  0  0  0
  -48.9333   58.8782   63.1288 C   0  0  0  0  0  0  0  0  0  0  0  0
  -48.9292   58.0488   61.8468 C   0  0  0  0  0  0  0  0  0  0  0  0
  -32.9486   56.2308   61.1549 O   0  0  0  0  0  0  0  0  0  0  0  0
  -34.3111   56.5990   61.2623 C   0  0  0  0  0  0  0  0  0  0  0  0
  -32.6024   56.0124   62.0343 H   0  0  0  0  0  0  0  0  0  0  0  0
  -34.9203   56.9574   59.9048 C   0  0  0  0  0  0  0  0  0  0  0  0
  -36.2456   57.0307   59.6938 C   0  0  0  0  0  0  0  0  0  0  0  0
  -36.7759   57.3941   58.3081 C   0  0  0  0  0  0  0  0  0  0  0  0
  -37.8858   58.4552   58.3257 C   0  0  0  0  0  0  0  0  0  0  0  0
  -37.8846   59.4008   59.5411 C   0  0  0  0  0  0  0  0  0  0  0  0
  -39.3192   59.5927   60.0892 C   0  0  0  0  0  0  0  0  0  0  0  0
  -40.2923   60.3457   59.1470 C   0  0  0  0  0  0  0  0  0  0  0  0
  -41.5919   59.5700   58.8275 C   0  0  0  0  0  0  0  0  0  0  0  0
  -41.7327   59.1880   57.3380 C   0  0  0  0  0  0  0  0  0  0  0  0
  -43.1473   58.7457   56.9448 C   0  0  0  0  0  0  0  0  0  0  0  0
  -44.0962   58.4274   58.0983 C   0  0  0  0  0  0  0  0  0  0  0  0
  -45.5065   57.9979   57.6483 C   0  0  0  0  0  0  0  0  0  0  0  0
  -46.4191   57.4725   58.7668 C   0  0  0  0  0  0  0  0  0  0  0  0
  -47.3086   56.3332   58.2610 C   0  0  0  0  0  0  0  0  0  0  0  0
  -47.9570   56.5349   56.9029 C   0  0  0  0  0  0  0  0  0  0  0  0
  -32.9603   58.5722   62.3145 C   0  0  0  0  0  0  0  0  0  0  0  0
  -33.0054   60.0199   62.2409 O   0  0  0  0  0  0  0  0  0  0  0  0
  -31.8504   62.4314   63.2550 O   0  0  0  0  0  0  0  0  0  0  0  0
  -35.8411   63.6190   63.5062 O   0  0  0  0  0  0  0  0  0  0  0  0
  -34.9910   60.7157   63.4487 O   0  0  0  0  0  0  0  0  0  0  0  0
  -33.5502   60.8262   63.3514 C   0  0  0  0  0  0  0  0  0  0  0  0
  -33.2398   62.3294   63.3106 C   0  0  0  0  0  0  0  0  0  0  0  0
  -33.7332   63.0987   64.5557 C   0  0  0  0  0  0  0  0  0  0  0  0
  -35.2269   62.9277   64.5910 C   0  0  0  0  0  0  0  0  0  0  0  0
  -35.5757   61.4507   64.5576 C   0  0  0  0  0  0  0  0  0  0  0  0
  -31.5220   61.9531   62.4776 H   0  0  0  0  0  0  0  0  0  0  0  0
  -35.6053   64.5591   63.5469 H   0  0  0  0  0  0  0  0  0  0  0  0
  -37.5445   61.4780   65.9128 O   0  0  0  0  0  0  0  0  0  0  0  0
  -37.1017   61.5013   64.5892 C   0  0  0  0  0  0  0  0  0  0  0  0
  -38.5138   61.5104   65.9301 H   0  0  0  0  0  0  0  0  0  0  0  0
  -33.4919   64.5241   64.5575 O   0  0  0  0  0  0  0  0  0  0  0  0
  -32.5813   65.4533   66.7990 O   0  0  0  0  0  0  0  0  0  0  0  0
  -31.9891   66.5530   64.7184 O   0  0  0  0  0  0  0  0  0  0  0  0
  -30.9599   64.4421   65.3175 O   0  0  0  0  0  0  0  0  0  0  0  0
  -32.2217   65.2340   65.3668 S   0  0  0  0  0  0  0  0  0  0  0  0
  -33.4016   65.9681   66.8512 H   0  0  0  0  0  0  0  0  0  0  0  0
  -31.1027   63.5799   65.7383 H   0  0  0  0  0  0  0  0  0  0  0  0
  2  1  1  0  0  0
  2  4  1  0  0  0
  2  5  1  0  0  0
 41 42  1  0  0  0
 41  1  1  0  0  0
 42 46  1  0  0  0
  1 24  1  0  0  0
 23 24  1  0  0  0
 23 25  1  0  0  0
 24 26  1  0  0  0
  3  4  2  0  0  0
 26 27  2  0  0  0
 27 28  1  0  0  0
 43 47  1  0  0  0
 43 51  1  0  0  0
 28 29  1  0  0  0
 56 48  1  0  0  0
 56 60  1  0  0  0
 29 30  1  0  0  0
 57 60  1  0  0  0
 57 61  1  0  0  0
 30 31  1  0  0  0
 44 49  1  0  0  0
 44 52  1  0  0  0
 31 32  1  0  0  0
 45 46  1  0  0  0
 45 50  1  0  0  0
 32 33  1  0  0  0
 53 54  1  0  0  0
 53 55  1  0  0  0
 33 34  1  0  0  0
 34 35  1  0  0  0
 35 36  1  0  0  0
 58 60  1  0  0  0
 36 37  1  0  0  0
 59 60  1  0  0  0
 59 62  1  0  0  0
 37 38  1  0  0  0
 38 39  1  0  0  0
 39 40  1  0  0  0
  4  6  1  0  0  0
  6  7  1  0  0  0
  7  8  1  0  0  0
  8  9  1  0  0  0
  9 10  1  0  0  0
 10 11  1  0  0  0
 11 12  1  0  0  0
 12 13  1  0  0  0
 13 14  1  0  0  0
 14 15  1  0  0  0
 15 16  1  0  0  0
 16 17  1  0  0  0
 17 18  1  0  0  0
 18 19  1  0  0  0
 19 20  1  0  0  0
 20 21  1  0  0  0
 21 22  1  0  0  0
 46 47  1  0  0  0
 47 48  1  0  0  0
 48 49  1  0  0  0
 49 50  1  0  0  0
 50 54  1  0  0  0
M  CHG 1  58  -1
M  END
> <minimizedAffinity>
-8.90082

> <CNNscore>
0.2432365119

> <CNNaffinity>
6.9181733131

> <CNN_VS>
1.6827523708

> <CNNaffinity_variance>
1.4794753790

$$$$
/media/chris/experiments/cd1a-new-docking/inputs/ligands/1onq_ligand.pdb


 62 62  0  0  0  0  0  0  0  0999 V2000
  -39.0780   59.3733   63.9016 C   0  0  0  0  0  0  0  0  0  0  0  0
  -40.4632   59.7301   63.6670 N   0  0  0  0  0  0  0  0  0  0  0  0
  -42.6544   59.8858   64.2347 O   0  0  0  0  0  0  0  0  0  0  0  0
  -41.5073   59.5768   64.4929 C   0  0  0  0  0  0  0  0  0  0  0  0
  -40.6617   60.1355   62.7920 H   0  0  0  0  0  0  0  0  0  0  0  0
  -41.1833   58.9650   65.8235 C   0  0  0  0  0  0  0  0  0  0  0  0
  -42.4309   59.1303   66.6916 C   0  0  0  0  0  0  0  0  0  0  0  0
  -42.9470   57.7615   67.1289 C   0  0  0  0  0  0  0  0  0  0  0  0
  -43.2821   56.7936   66.0201 C   0  0  0  0  0  0  0  0  0  0  0  0
  -44.6174   57.2229   65.4215 C   0  0  0  0  0  0  0  0  0  0  0  0
  -45.7955   57.0013   66.3795 C   0  0  0  0  0  0  0  0  0  0  0  0
  -46.7413   58.2093   66.5087 C   0  0  0  0  0  0  0  0  0  0  0  0
  -48.1826   57.8952   66.0509 C   0  0  0  0  0  0  0  0  0  0  0  0
  -48.2549   57.7967   64.5244 C   0  0  0  0  0  0  0  0  0  0  0  0
  -48.8752   59.0024   63.8290 C   0  0  0  0  0  0  0  0  0  0  0  0
  -49.3628   58.6718   62.4261 C   0  0  0  0  0  0  0  0  0  0  0  0
  -50.7732   58.0860   62.3266 C   0  0  0  0  0  0  0  0  0  0  0  0
  -50.9020   57.3816   60.9827 C   0  0  0  0  0  0  0  0  0  0  0  0
  -49.7616   56.4895   60.5147 C   0  0  0  0  0  0  0  0  0  0  0  0
  -49.2145   56.9623   59.1586 C   0  0  0  0  0  0  0  0  0  0  0  0
  -47.9156   57.7846   59.2456 C   0  0  0  0  0  0  0  0  0  0  0  0
  -46.8696   57.3727   58.2123 C   0  0  0  0  0  0  0  0  0  0  0  0
  -38.3449   57.5213   65.0967 O   0  0  0  0  0  0  0  0  0  0  0  0
  -39.1340   57.8568   63.9706 C   0  0  0  0  0  0  0  0  0  0  0  0
  -38.7362   57.9119   65.8937 H   0  0  0  0  0  0  0  0  0  0  0  0
  -38.5695   57.2693   62.6750 C   0  0  0  0  0  0  0  0  0  0  0  0
  -38.1692   58.0283   61.6406 C   0  0  0  0  0  0  0  0  0  0  0  0
  -37.6172   57.3654   60.3800 C   0  0  0  0  0  0  0  0  0  0  0  0
  -37.4062   58.3359   59.2087 C   0  0  0  0  0  0  0  0  0  0  0  0
  -37.0808   57.6831   57.8526 C   0  0  0  0  0  0  0  0  0  0  0  0
  -36.0099   56.5781   58.0177 C   0  0  0  0  0  0  0  0  0  0  0  0
  -34.5502   57.0263   57.7530 C   0  0  0  0  0  0  0  0  0  0  0  0
  -33.6085   56.8682   58.9700 C   0  0  0  0  0  0  0  0  0  0  0  0
  -34.0977   55.8249   59.9979 C   0  0  0  0  0  0  0  0  0  0  0  0
  -34.0369   56.3131   61.4502 C   0  0  0  0  0  0  0  0  0  0  0  0
  -34.3793   57.7837   61.6791 C   0  0  0  0  0  0  0  0  0  0  0  0
  -33.4061   58.5129   62.6261 C   0  0  0  0  0  0  0  0  0  0  0  0
  -31.9721   58.6694   62.0977 C   0  0  0  0  0  0  0  0  0  0  0  0
  -31.5340   60.1365   62.1226 C   0  0  0  0  0  0  0  0  0  0  0  0
  -30.1149   60.4252   61.6660 C   0  0  0  0  0  0  0  0  0  0  0  0
  -38.3927   60.1035   65.0788 C   0  0  0  0  0  0  0  0  0  0  0  0
  -38.0326   61.4911   64.8596 O   0  0  0  0  0  0  0  0  0  0  0  0
  -36.1564   61.7916   62.7224 O   0  0  0  0  0  0  0  0  0  0  0  0
  -35.0651   65.2045   64.8578 O   0  0  0  0  0  0  0  0  0  0  0  0
  -36.4770   62.8507   66.1311 O   0  0  0  0  0  0  0  0  0  0  0  0
  -36.6377   61.9523   65.0066 C   0  0  0  0  0  0  0  0  0  0  0  0
  -36.0336   62.6751   63.7940 C   0  0  0  0  0  0  0  0  0  0  0  0
  -34.5395   63.0277   63.9631 C   0  0  0  0  0  0  0  0  0  0  0  0
  -34.4564   63.9488   65.1489 C   0  0  0  0  0  0  0  0  0  0  0  0
  -35.1119   63.2966   66.3528 C   0  0  0  0  0  0  0  0  0  0  0  0
  -37.0902   61.5585   62.6010 H   0  0  0  0  0  0  0  0  0  0  0  0
  -34.6318   65.6029   64.0867 H   0  0  0  0  0  0  0  0  0  0  0  0
  -33.6770   64.9735   67.2708 O   0  0  0  0  0  0  0  0  0  0  0  0
  -34.9310   64.3777   67.4161 C   0  0  0  0  0  0  0  0  0  0  0  0
  -33.5647   65.6598   67.9472 H   0  0  0  0  0  0  0  0  0  0  0  0
  -33.9260   63.7348   62.8614 O   0  0  0  0  0  0  0  0  0  0  0  0
  -31.5601   63.1670   63.7540 O   0  0  0  0  0  0  0  0  0  0  0  0
  -32.0553   65.4297   63.0304 O   0  0  0  0  0  0  0  0  0  0  0  0
  -31.7258   63.6715   61.3951 O   0  0  0  0  0  0  0  0  0  0  0  0
  -32.2849   63.9885   62.7399 S   0  0  0  0  0  0  0  0  0  0  0  0
  -31.9110   63.3601   64.6374 H   0  0  0  0  0  0  0  0  0  0  0  0
  -31.8713   62.7331   61.1975 H   0  0  0  0  0  0  0  0  0  0  0  0
  2  1  1  0  0  0
  2  4  1  0  0  0
  2  5  1  0  0  0
 41 42  1  0  0  0
 41  1  1  0  0  0
 42 46  1  0  0  0
  1 24  1  0  0  0
 23 24  1  0  0  0
 23 25  1  0  0  0
 24 26  1  0  0  0
  3  4  2  0  0  0
 26 27  2  0  0  0
 27 28  1  0  0  0
 43 47  1  0  0  0
 43 51  1  0  0  0
 28 29  1  0  0  0
 56 48  1  0  0  0
 56 60  1  0  0  0
 29 30  1  0  0  0
 57 60  1  0  0  0
 57 61  1  0  0  0
 30 31  1  0  0  0
 44 49  1  0  0  0
 44 52  1  0  0  0
 31 32  1  0  0  0
 45 46  1  0  0  0
 45 50  1  0  0  0
 32 33  1  0  0  0
 53 54  1  0  0  0
 53 55  1  0  0  0
 33 34  1  0  0  0
 34 35  1  0  0  0
 35 36  1  0  0  0
 58 60  1  0  0  0
 36 37  1  0  0  0
 59 60  1  0  0  0
 59 62  1  0  0  0
 37 38  1  0  0  0
 38 39  1  0  0  0
 39 40  1  0  0  0
  4  6  1  0  0  0
  6  7  1  0  0  0
  7  8  1  0  0  0
  8  9  1  0  0  0
  9 10  1  0  0  0
 10 11  1  0  0  0
 11 12  1  0  0  0
 12 13  1  0  0  0
 13 14  1  0  0  0
 14 15  1  0  0  0
 15 16  1  0  0  0
 16 17  1  0  0  0
 17 18  1  0  0  0
 18 19  1  0  0  0
 19 20  1  0  0  0
 20 21  1  0  0  0
 21 22  1  0  0  0
 46 47  1  0  0  0
 47 48  1  0  0  0
 48 49  1  0  0  0
 49 50  1  0  0  0
 50 54  1  0  0  0
M  CHG 1  58  -1
M  END
> <minimizedAffinity>
-9.59097

> <CNNscore>
0.2312095910

> <CNNaffinity>
6.9197974205

> <CNN_VS>
1.5999234915

> <CNNaffinity_variance>
1.4207745790

$$$$
/media/chris/experiments/cd1a-new-docking/inputs/ligands/1onq_ligand.pdb


 62 62  0  0  0  0  0  0  0  0999 V2000
  -40.3238   59.0218   64.9824 C   0  0  0  0  0  0  0  0  0  0  0  0
  -41.1584   58.5419   66.0660 N   0  0  0  0  0  0  0  0  0  0  0  0
  -43.1431   58.1502   67.0932 O   0  0  0  0  0  0  0  0  0  0  0  0
  -42.4958   58.5583   66.1486 C   0  0  0  0  0  0  0  0  0  0  0  0
  -40.6837   58.1559   66.8373 H   0  0  0  0  0  0  0  0  0  0  0  0
  -43.2009   59.1428   64.9607 C   0  0  0  0  0  0  0  0  0  0  0  0
  -44.6973   59.0676   65.2648 C   0  0  0  0  0  0  0  0  0  0  0  0
  -45.3150   57.8681   64.5502 C   0  0  0  0  0  0  0  0  0  0  0  0
  -45.8007   56.7462   65.4356 C   0  0  0  0  0  0  0  0  0  0  0  0
  -46.8420   57.3272   66.3863 C   0  0  0  0  0  0  0  0  0  0  0  0
  -48.2717   57.2153   65.8400 C   0  0  0  0  0  0  0  0  0  0  0  0
  -49.0460   58.5458   65.8178 C   0  0  0  0  0  0  0  0  0  0  0  0
  -50.4470   58.4147   65.1809 C   0  0  0  0  0  0  0  0  0  0  0  0
  -50.6050   59.3972   64.0169 C   0  0  0  0  0  0  0  0  0  0  0  0
  -51.2498   58.8152   62.7648 C   0  0  0  0  0  0  0  0  0  0  0  0
  -50.2185   58.3570   61.7442 C   0  0  0  0  0  0  0  0  0  0  0  0
  -50.6536   57.2230   60.8132 C   0  0  0  0  0  0  0  0  0  0  0  0
  -50.1195   57.5210   59.4187 C   0  0  0  0  0  0  0  0  0  0  0  0
  -48.6437   57.2813   59.1364 C   0  0  0  0  0  0  0  0  0  0  0  0
  -48.3310   55.7775   59.0840 C   0  0  0  0  0  0  0  0  0  0  0  0
  -47.5671   55.3276   57.8250 C   0  0  0  0  0  0  0  0  0  0  0  0
  -47.3710   56.4470   56.8052 C   0  0  0  0  0  0  0  0  0  0  0  0
  -38.2118   58.1753   65.4499 O   0  0  0  0  0  0  0  0  0  0  0  0
  -39.3909   57.8481   64.7384 C   0  0  0  0  0  0  0  0  0  0  0  0
  -38.4161   58.2556   66.3947 H   0  0  0  0  0  0  0  0  0  0  0  0
  -39.1372   57.7061   63.2358 C   0  0  0  0  0  0  0  0  0  0  0  0
  -38.0118   57.1724   62.7308 C   0  0  0  0  0  0  0  0  0  0  0  0
  -37.8331   57.0666   61.2175 C   0  0  0  0  0  0  0  0  0  0  0  0
  -37.1426   58.2844   60.5863 C   0  0  0  0  0  0  0  0  0  0  0  0
  -37.8054   58.8404   59.3124 C   0  0  0  0  0  0  0  0  0  0  0  0
  -37.0586   58.3533   58.0473 C   0  0  0  0  0  0  0  0  0  0  0  0
  -36.2905   57.0167   58.2058 C   0  0  0  0  0  0  0  0  0  0  0  0
  -34.7720   57.1224   57.9309 C   0  0  0  0  0  0  0  0  0  0  0  0
  -33.9183   56.1846   58.8117 C   0  0  0  0  0  0  0  0  0  0  0  0
  -34.6279   55.7219   60.0898 C   0  0  0  0  0  0  0  0  0  0  0  0
  -34.0419   56.2311   61.4050 C   0  0  0  0  0  0  0  0  0  0  0  0
  -33.2667   57.5568   61.2730 C   0  0  0  0  0  0  0  0  0  0  0  0
  -33.1301   58.3675   62.5708 C   0  0  0  0  0  0  0  0  0  0  0  0
  -34.5046   58.7423   63.1323 C   0  0  0  0  0  0  0  0  0  0  0  0
  -34.8596   58.1641   64.4907 C   0  0  0  0  0  0  0  0  0  0  0  0
  -39.6678   60.4029   65.2088 C   0  0  0  0  0  0  0  0  0  0  0  0
  -38.7949   60.8862   64.1564 O   0  0  0  0  0  0  0  0  0  0  0  0
  -36.7739   61.3655   62.1908 O   0  0  0  0  0  0  0  0  0  0  0  0
  -35.7768   64.5118   64.7413 O   0  0  0  0  0  0  0  0  0  0  0  0
  -37.3081   62.0706   65.6638 O   0  0  0  0  0  0  0  0  0  0  0  0
  -37.4062   61.2981   64.4426 C   0  0  0  0  0  0  0  0  0  0  0  0
  -36.7103   62.1295   63.3554 C   0  0  0  0  0  0  0  0  0  0  0  0
  -35.2257   62.4288   63.6585 C   0  0  0  0  0  0  0  0  0  0  0  0
  -35.2088   63.2192   64.9378 C   0  0  0  0  0  0  0  0  0  0  0  0
  -35.9543   62.4600   66.0204 C   0  0  0  0  0  0  0  0  0  0  0  0
  -37.7008   61.1674   61.9844 H   0  0  0  0  0  0  0  0  0  0  0  0
  -35.2862   64.9785   64.0467 H   0  0  0  0  0  0  0  0  0  0  0  0
  -34.4819   63.6969   67.4403 O   0  0  0  0  0  0  0  0  0  0  0  0
  -35.8291   63.4201   67.2014 C   0  0  0  0  0  0  0  0  0  0  0  0
  -34.4052   64.3068   68.1906 H   0  0  0  0  0  0  0  0  0  0  0  0
  -34.5282   63.2329   62.6803 O   0  0  0  0  0  0  0  0  0  0  0  0
  -32.5065   63.8287   61.1721 O   0  0  0  0  0  0  0  0  0  0  0  0
  -32.5025   61.7415   62.4098 O   0  0  0  0  0  0  0  0  0  0  0  0
  -32.1077   63.8398   63.5569 O   0  0  0  0  0  0  0  0  0  0  0  0
  -32.8780   63.1803   62.4644 S   0  0  0  0  0  0  0  0  0  0  0  0
  -32.9989   63.4119   60.4478 H   0  0  0  0  0  0  0  0  0  0  0  0
  -32.3467   64.7789   63.5995 H   0  0  0  0  0  0  0  0  0  0  0  0
  2  1  1  0  0  0
  2  4  1  0  0  0
  2  5  1  0  0  0
 41 42  1  0  0  0
 41  1  1  0  0  0
 42 46  1  0  0  0
  1 24  1  0  0  0
 23 24  1  0  0  0
 23 25  1  0  0  0
 24 26  1  0  0  0
  3  4  2  0  0  0
 26 27  2  0  0  0
 27 28  1  0  0  0
 43 47  1  0  0  0
 43 51  1  0  0  0
 28 29  1  0  0  0
 56 48  1  0  0  0
 56 60  1  0  0  0
 29 30  1  0  0  0
 57 60  1  0  0  0
 57 61  1  0  0  0
 30 31  1  0  0  0
 44 49  1  0  0  0
 44 52  1  0  0  0
 31 32  1  0  0  0
 45 46  1  0  0  0
 45 50  1  0  0  0
 32 33  1  0  0  0
 53 54  1  0  0  0
 53 55  1  0  0  0
 33 34  1  0  0  0
 34 35  1  0  0  0
 35 36  1  0  0  0
 58 60  1  0  0  0
 36 37  1  0  0  0
 59 60  1  0  0  0
 59 62  1  0  0  0
 37 38  1  0  0  0
 38 39  1  0  0  0
 39 40  1  0  0  0
  4  6  1  0  0  0
  6  7  1  0  0  0
  7  8  1  0  0  0
  8  9  1  0  0  0
  9 10  1  0  0  0
 10 11  1  0  0  0
 11 12  1  0  0  0
 12 13  1  0  0  0
 13 14  1  0  0  0
 14 15  1  0  0  0
 15 16  1  0  0  0
 16 17  1  0  0  0
 17 18  1  0  0  0
 18 19  1  0  0  0
 19 20  1  0  0  0
 20 21  1  0  0  0
 21 22  1  0  0  0
 46 47  1  0  0  0
 47 48  1  0  0  0
 48 49  1  0  0  0
 49 50  1  0  0  0
 50 54  1  0  0  0
M  CHG 1  58  -1
M  END
> <minimizedAffinity>
-10.31351

> <CNNscore>
0.2182463706

> <CNNaffinity>
6.9757528305

> <CNN_VS>
1.5224326849

> <CNNaffinity_variance>
1.2684172392

$$$$
/media/chris/experiments/cd1a-new-docking/inputs/ligands/1onq_ligand.pdb


 62 62  0  0  0  0  0  0  0  0999 V2000
  -38.9543   58.8313   65.2417 C   0  0  0  0  0  0  0  0  0  0  0  0
  -39.8839   59.6903   64.5352 N   0  0  0  0  0  0  0  0  0  0  0  0
  -41.9531   60.4336   63.9752 O   0  0  0  0  0  0  0  0  0  0  0  0
  -41.2222   59.6933   64.6042 C   0  0  0  0  0  0  0  0  0  0  0  0
  -39.4821   60.3541   63.9293 H   0  0  0  0  0  0  0  0  0  0  0  0
  -41.8148   58.6804   65.5384 C   0  0  0  0  0  0  0  0  0  0  0  0
  -43.3309   58.7595   65.3580 C   0  0  0  0  0  0  0  0  0  0  0  0
  -43.9797   57.4569   65.8198 C   0  0  0  0  0  0  0  0  0  0  0  0
  -45.2697   57.0785   65.1333 C   0  0  0  0  0  0  0  0  0  0  0  0
  -46.3862   57.9050   65.7625 C   0  0  0  0  0  0  0  0  0  0  0  0
  -47.7442   57.6817   65.0835 C   0  0  0  0  0  0  0  0  0  0  0  0
  -48.0642   58.6885   63.9634 C   0  0  0  0  0  0  0  0  0  0  0  0
  -49.5154   59.2135   64.0245 C   0  0  0  0  0  0  0  0  0  0  0  0
  -50.4479   58.3201   63.2014 C   0  0  0  0  0  0  0  0  0  0  0  0
  -50.4312   58.5803   61.7000 C   0  0  0  0  0  0  0  0  0  0  0  0
  -50.8284   57.3507   60.8966 C   0  0  0  0  0  0  0  0  0  0  0  0
  -49.8590   56.9307   59.7894 C   0  0  0  0  0  0  0  0  0  0  0  0
  -48.5329   57.6418   60.0231 C   0  0  0  0  0  0  0  0  0  0  0  0
  -47.2752   57.0667   59.3885 C   0  0  0  0  0  0  0  0  0  0  0  0
  -47.0227   57.6891   58.0062 C   0  0  0  0  0  0  0  0  0  0  0  0
  -47.1824   56.7118   56.8270 C   0  0  0  0  0  0  0  0  0  0  0  0
  -47.5630   55.2982   57.2614 C   0  0  0  0  0  0  0  0  0  0  0  0
  -38.5437   61.0285   65.8735 O   0  0  0  0  0  0  0  0  0  0  0  0
  -37.8673   59.8018   65.6704 C   0  0  0  0  0  0  0  0  0  0  0  0
  -39.2011   60.9224   66.5787 H   0  0  0  0  0  0  0  0  0  0  0  0
  -36.8120   59.9010   64.5664 C   0  0  0  0  0  0  0  0  0  0  0  0
  -35.5021   59.6954   64.7854 C   0  0  0  0  0  0  0  0  0  0  0  0
  -34.5102   59.8140   63.6298 C   0  0  0  0  0  0  0  0  0  0  0  0
  -33.8459   58.4849   63.2417 C   0  0  0  0  0  0  0  0  0  0  0  0
  -32.4270   58.5956   62.6539 C   0  0  0  0  0  0  0  0  0  0  0  0
  -32.0740   60.0704   62.3446 C   0  0  0  0  0  0  0  0  0  0  0  0
  -30.6458   60.3070   61.7917 C   0  0  0  0  0  0  0  0  0  0  0  0
  -29.9029   61.4965   62.4442 C   0  0  0  0  0  0  0  0  0  0  0  0
  -30.2619   62.8641   61.8236 C   0  0  0  0  0  0  0  0  0  0  0  0
  -31.3644   63.6153   62.5797 C   0  0  0  0  0  0  0  0  0  0  0  0
  -32.7059   63.7407   61.8607 C   0  0  0  0  0  0  0  0  0  0  0  0
  -33.9212   63.3738   62.7350 C   0  0  0  0  0  0  0  0  0  0  0  0
  -33.6330   63.2520   64.2390 C   0  0  0  0  0  0  0  0  0  0  0  0
  -34.6373   64.0668   65.0591 C   0  0  0  0  0  0  0  0  0  0  0  0
  -36.0716   63.5684   65.0584 C   0  0  0  0  0  0  0  0  0  0  0  0
  -38.5027   57.5669   64.4760 C   0  0  0  0  0  0  0  0  0  0  0  0
  -38.9536   57.4449   63.1031 O   0  0  0  0  0  0  0  0  0  0  0  0
  -36.6956   56.7158   61.5071 O   0  0  0  0  0  0  0  0  0  0  0  0
  -38.9358   58.4828   58.4643 O   0  0  0  0  0  0  0  0  0  0  0  0
  -39.3518   59.1190   61.3930 O   0  0  0  0  0  0  0  0  0  0  0  0
  -38.3660   58.2692   62.0283 C   0  0  0  0  0  0  0  0  0  0  0  0
  -37.6689   57.5039   60.8943 C   0  0  0  0  0  0  0  0  0  0  0  0
  -36.9730   58.4201   59.8639 C   0  0  0  0  0  0  0  0  0  0  0  0
  -38.0552   59.2721   59.2603 C   0  0  0  0  0  0  0  0  0  0  0  0
  -38.8172   59.9897   60.3598 C   0  0  0  0  0  0  0  0  0  0  0  0
  -37.1152   56.1326   62.1589 H   0  0  0  0  0  0  0  0  0  0  0  0
  -38.4289   58.0340   57.7695 H   0  0  0  0  0  0  0  0  0  0  0  0
  -40.9845   59.9815   59.3516 O   0  0  0  0  0  0  0  0  0  0  0  0
  -39.8499   60.7703   59.5497 C   0  0  0  0  0  0  0  0  0  0  0  0
  -41.6388   60.4795   58.8370 H   0  0  0  0  0  0  0  0  0  0  0  0
  -36.3236   57.7526   58.7581 O   0  0  0  0  0  0  0  0  0  0  0  0
  -34.1309   57.2767   60.0553 O   0  0  0  0  0  0  0  0  0  0  0  0
  -34.2213   56.8652   57.6655 O   0  0  0  0  0  0  0  0  0  0  0  0
  -35.3167   55.3482   59.2060 O   0  0  0  0  0  0  0  0  0  0  0  0
  -34.9865   56.7769   58.9387 S   0  0  0  0  0  0  0  0  0  0  0  0
  -33.9054   58.2069   59.8984 H   0  0  0  0  0  0  0  0  0  0  0  0
  -35.8161   55.2815   60.0349 H   0  0  0  0  0  0  0  0  0  0  0  0
  2  1  1  0  0  0
  2  4  1  0  0  0
  2  5  1  0  0  0
 41 42  1  0  0  0
 41  1  1  0  0  0
 42 46  1  0  0  0
  1 24  1  0  0  0
 23 24  1  0  0  0
 23 25  1  0  0  0
 24 26  1  0  0  0
  3  4  2  0  0  0
 26 27  2  0  0  0
 27 28  1  0  0  0
 43 47  1  0  0  0
 43 51  1  0  0  0
 28 29  1  0  0  0
 56 48  1  0  0  0
 56 60  1  0  0  0
 29 30  1  0  0  0
 57 60  1  0  0  0
 57 61  1  0  0  0
 30 31  1  0  0  0
 44 49  1  0  0  0
 44 52  1  0  0  0
 31 32  1  0  0  0
 45 46  1  0  0  0
 45 50  1  0  0  0
 32 33  1  0  0  0
 53 54  1  0  0  0
 53 55  1  0  0  0
 33 34  1  0  0  0
 34 35  1  0  0  0
 35 36  1  0  0  0
 58 60  1  0  0  0
 36 37  1  0  0  0
 59 60  1  0  0  0
 59 62  1  0  0  0
 37 38  1  0  0  0
 38 39  1  0  0  0
 39 40  1  0  0  0
  4  6  1  0  0  0
  6  7  1  0  0  0
  7  8  1  0  0  0
  8  9  1  0  0  0
  9 10  1  0  0  0
 10 11  1  0  0  0
 11 12  1  0  0  0
 12 13  1  0  0  0
 13 14  1  0  0  0
 14 15  1  0  0  0
 15 16  1  0  0  0
 16 17  1  0  0  0
 17 18  1  0  0  0
 18 19  1  0  0  0
 19 20  1  0  0  0
 20 21  1  0  0  0
 21 22  1  0  0  0
 46 47  1  0  0  0
 47 48  1  0  0  0
 48 49  1  0  0  0
 49 50  1  0  0  0
 50 54  1  0  0  0
M  CHG 1  58  -1
M  END
> <minimizedAffinity>
-9.11476

> <CNNscore>
0.2105069309

> <CNNaffinity>
6.9348630905

> <CNN_VS>
1.4598367214

> <CNNaffinity_variance>
1.3339818716

$$$$
