/media/chris/experiments/cd1a-new-docking/inputs/ligands/1onq_ligand.pdb


 62 62  0  0  0  0  0  0  0  0999 V2000
  -38.5668   59.8307   62.8225 C   0  0  0  0  0  0  0  0  0  0  0  0
  -39.0270   60.3758   61.5607 N   0  0  0  0  0  0  0  0  0  0  0  0
  -39.3126   60.3505   59.3101 O   0  0  0  0  0  0  0  0  0  0  0  0
  -38.9158   59.8379   60.3385 C   0  0  0  0  0  0  0  0  0  0  0  0
  -39.4771   61.2501   61.6074 H   0  0  0  0  0  0  0  0  0  0  0  0
  -38.2344   58.5027   60.2890 C   0  0  0  0  0  0  0  0  0  0  0  0
  -37.0890   58.6375   59.2855 C   0  0  0  0  0  0  0  0  0  0  0  0
  -37.3697   57.7783   58.0550 C   0  0  0  0  0  0  0  0  0  0  0  0
  -36.4687   56.5829   57.8610 C   0  0  0  0  0  0  0  0  0  0  0  0
  -35.0304   57.0896   57.8334 C   0  0  0  0  0  0  0  0  0  0  0  0
  -34.0978   56.2764   58.7410 C   0  0  0  0  0  0  0  0  0  0  0  0
  -34.7796   55.7030   59.9968 C   0  0  0  0  0  0  0  0  0  0  0  0
  -34.0544   56.0912   61.3040 C   0  0  0  0  0  0  0  0  0  0  0  0
  -34.8604   57.1380   62.0784 C   0  0  0  0  0  0  0  0  0  0  0  0
  -34.0272   58.1230   62.8893 C   0  0  0  0  0  0  0  0  0  0  0  0
  -32.5493   57.7616   62.8947 C   0  0  0  0  0  0  0  0  0  0  0  0
  -31.6040   58.7929   62.2743 C   0  0  0  0  0  0  0  0  0  0  0  0
  -32.2390   60.1692   62.4209 C   0  0  0  0  0  0  0  0  0  0  0  0
  -31.4032   61.3969   62.0902 C   0  0  0  0  0  0  0  0  0  0  0  0
  -30.0890   60.9978   61.4004 C   0  0  0  0  0  0  0  0  0  0  0  0
  -28.8223   61.2735   62.2313 C   0  0  0  0  0  0  0  0  0  0  0  0
  -27.7856   60.1560   62.1409 C   0  0  0  0  0  0  0  0  0  0  0  0
  -38.7226   60.8781   64.8900 O   0  0  0  0  0  0  0  0  0  0  0  0
  -39.5381   60.4388   63.8196 C   0  0  0  0  0  0  0  0  0  0  0  0
  -38.1014   61.5501   64.5684 H   0  0  0  0  0  0  0  0  0  0  0  0
  -40.5447   59.3737   64.2610 C   0  0  0  0  0  0  0  0  0  0  0  0
  -40.8766   59.1687   65.5471 C   0  0  0  0  0  0  0  0  0  0  0  0
  -41.8901   58.0839   65.9071 C   0  0  0  0  0  0  0  0  0  0  0  0
  -43.1897   58.6260   66.5198 C   0  0  0  0  0  0  0  0  0  0  0  0
  -44.2179   59.1819   65.5172 C   0  0  0  0  0  0  0  0  0  0  0  0
  -44.9516   58.0308   64.7878 C   0  0  0  0  0  0  0  0  0  0  0  0
  -45.2841   56.7972   65.6650 C   0  0  0  0  0  0  0  0  0  0  0  0
  -46.5118   56.9876   66.5865 C   0  0  0  0  0  0  0  0  0  0  0  0
  -47.8441   56.5539   65.9378 C   0  0  0  0  0  0  0  0  0  0  0  0
  -48.9329   57.6326   65.9822 C   0  0  0  0  0  0  0  0  0  0  0  0
  -48.4779   59.0586   65.6791 C   0  0  0  0  0  0  0  0  0  0  0  0
  -48.3346   59.3635   64.1749 C   0  0  0  0  0  0  0  0  0  0  0  0
  -49.4371   60.2520   63.5791 C   0  0  0  0  0  0  0  0  0  0  0  0
  -50.7969   59.5496   63.6299 C   0  0  0  0  0  0  0  0  0  0  0  0
  -51.0535   58.4974   62.5655 C   0  0  0  0  0  0  0  0  0  0  0  0
  -37.0596   60.0088   63.1146 C   0  0  0  0  0  0  0  0  0  0  0  0
  -36.4751   61.2850   62.7501 O   0  0  0  0  0  0  0  0  0  0  0  0
  -34.3075   62.9459   61.9013 O   0  0  0  0  0  0  0  0  0  0  0  0
  -35.4881   65.2579   65.1661 O   0  0  0  0  0  0  0  0  0  0  0  0
  -36.1301   62.3111   64.9211 O   0  0  0  0  0  0  0  0  0  0  0  0
  -35.5282   61.9773   63.6468 C   0  0  0  0  0  0  0  0  0  0  0  0
  -34.9180   63.2799   63.1094 C   0  0  0  0  0  0  0  0  0  0  0  0
  -33.8491   63.8942   64.0395 C   0  0  0  0  0  0  0  0  0  0  0  0
  -34.5463   64.2014   65.3361 C   0  0  0  0  0  0  0  0  0  0  0  0
  -35.2264   62.9505   65.8625 C   0  0  0  0  0  0  0  0  0  0  0  0
  -34.9651   62.5577   61.3031 H   0  0  0  0  0  0  0  0  0  0  0  0
  -35.0330   66.0457   64.8297 H   0  0  0  0  0  0  0  0  0  0  0  0
  -36.2330   62.4000   67.9594 O   0  0  0  0  0  0  0  0  0  0  0  0
  -35.8667   63.4739   67.1463 C   0  0  0  0  0  0  0  0  0  0  0  0
  -36.6394   62.7350   68.7740 H   0  0  0  0  0  0  0  0  0  0  0  0
  -33.2607   65.1378   63.5953 O   0  0  0  0  0  0  0  0  0  0  0  0
  -30.7613   64.4555   63.6605 O   0  0  0  0  0  0  0  0  0  0  0  0
  -31.3778   66.6699   62.8825 O   0  0  0  0  0  0  0  0  0  0  0  0
  -31.7415   64.7357   61.4680 O   0  0  0  0  0  0  0  0  0  0  0  0
  -31.7636   65.2328   62.8731 S   0  0  0  0  0  0  0  0  0  0  0  0
  -30.7613   64.7656   64.5796 H   0  0  0  0  0  0  0  0  0  0  0  0
  -31.9920   63.7988   61.4526 H   0  0  0  0  0  0  0  0  0  0  0  0
  2  1  1  0  0  0
  2  4  1  0  0  0
  2  5  1  0  0  0
 41 42  1  0  0  0
 41  1  1  0  0  0
 42 46  1  0  0  0
  1 24  1  0  0  0
 23 24  1  0  0  0
 23 25  1  0  0  0
 24 26  1  0  0  0
  3  4  2  0  0  0
 26 27  2  0  0  0
 27 28  1  0  0  0
 43 47  1  0  0  0
 43 51  1  0  0  0
 28 29  1  0  0  0
 56 48  1  0  0  0
 56 60  1  0  0  0
 29 30  1  0  0  0
 57 60  1  0  0  0
 57 61  1  0  0  0
 30 31  1  0  0  0
 44 49  1  0  0  0
 44 52  1  0  0  0
 31 32  1  0  0  0
 45 46  1  0  0  0
 45 50  1  0  0  0
 32 33  1  0  0  0
 53 54  1  0  0  0
 53 55  1  0  0  0
 33 34  1  0  0  0
 34 35  1  0  0  0
 35 36  1  0  0  0
 58 60  1  0  0  0
 36 37  1  0  0  0
 59 60  1  0  0  0
 59 62  1  0  0  0
 37 38  1  0  0  0
 38 39  1  0  0  0
 39 40  1  0  0  0
  4  6  1  0  0  0
  6  7  1  0  0  0
  7  8  1  0  0  0
  8  9  1  0  0  0
  9 10  1  0  0  0
 10 11  1  0  0  0
 11 12  1  0  0  0
 12 13  1  0  0  0
 13 14  1  0  0  0
 14 15  1  0  0  0
 15 16  1  0  0  0
 16 17  1  0  0  0
 17 18  1  0  0  0
 18 19  1  0  0  0
 19 20  1  0  0  0
 20 21  1  0  0  0
 21 22  1  0  0  0
 46 47  1  0  0  0
 47 48  1  0  0  0
 48 49  1  0  0  0
 49 50  1  0  0  0
 50 54  1  0  0  0
M  CHG 1  58  -1
M  END
> <minimizedAffinity>
-9.59881

> <CNNscore>
0.5705879927

> <CNNaffinity>
7.3103027344

> <CNN_VS>
4.1711711884

> <CNNaffinity_variance>
1.1853642464

$$$$
/media/chris/experiments/cd1a-new-docking/inputs/ligands/1onq_ligand.pdb


 62 62  0  0  0  0  0  0  0  0999 V2000
  -40.1650   59.0472   64.9483 C   0  0  0  0  0  0  0  0  0  0  0  0
  -39.7765   58.3306   63.7497 N   0  0  0  0  0  0  0  0  0  0  0  0
  -38.4000   57.0172   62.5136 O   0  0  0  0  0  0  0  0  0  0  0  0
  -38.6792   57.5876   63.5502 C   0  0  0  0  0  0  0  0  0  0  0  0
  -40.3957   58.3981   62.9874 H   0  0  0  0  0  0  0  0  0  0  0  0
  -37.7525   57.4905   64.7255 C   0  0  0  0  0  0  0  0  0  0  0  0
  -36.4046   57.0220   64.1771 C   0  0  0  0  0  0  0  0  0  0  0  0
  -35.4936   58.2232   63.9358 C   0  0  0  0  0  0  0  0  0  0  0  0
  -34.1765   58.2157   64.6732 C   0  0  0  0  0  0  0  0  0  0  0  0
  -33.0666   58.1076   63.6329 C   0  0  0  0  0  0  0  0  0  0  0  0
  -33.6034   58.0548   62.1963 C   0  0  0  0  0  0  0  0  0  0  0  0
  -33.3509   56.7178   61.4757 C   0  0  0  0  0  0  0  0  0  0  0  0
  -34.6482   56.0639   60.9514 C   0  0  0  0  0  0  0  0  0  0  0  0
  -34.4384   55.5016   59.5425 C   0  0  0  0  0  0  0  0  0  0  0  0
  -33.8850   56.4946   58.5277 C   0  0  0  0  0  0  0  0  0  0  0  0
  -34.9811   57.3225   57.8732 C   0  0  0  0  0  0  0  0  0  0  0  0
  -36.3140   56.6074   57.6407 C   0  0  0  0  0  0  0  0  0  0  0  0
  -37.4384   57.5620   58.0191 C   0  0  0  0  0  0  0  0  0  0  0  0
  -37.5053   58.0800   59.4482 C   0  0  0  0  0  0  0  0  0  0  0  0
  -37.9595   59.5480   59.4803 C   0  0  0  0  0  0  0  0  0  0  0  0
  -39.0945   59.8435   60.4780 C   0  0  0  0  0  0  0  0  0  0  0  0
  -40.3862   60.3020   59.8049 C   0  0  0  0  0  0  0  0  0  0  0  0
  -41.2926   61.0445   64.5809 O   0  0  0  0  0  0  0  0  0  0  0  0
  -41.5053   59.6452   64.5566 C   0  0  0  0  0  0  0  0  0  0  0  0
  -40.6130   61.2795   63.9300 H   0  0  0  0  0  0  0  0  0  0  0  0
  -42.5702   59.2061   65.5644 C   0  0  0  0  0  0  0  0  0  0  0  0
  -43.8722   59.0932   65.2508 C   0  0  0  0  0  0  0  0  0  0  0  0
  -44.8747   58.6494   66.3145 C   0  0  0  0  0  0  0  0  0  0  0  0
  -45.9413   57.6742   65.7952 C   0  0  0  0  0  0  0  0  0  0  0  0
  -46.6100   58.0649   64.4642 C   0  0  0  0  0  0  0  0  0  0  0  0
  -48.1292   58.2887   64.6577 C   0  0  0  0  0  0  0  0  0  0  0  0
  -49.0011   58.0309   63.4028 C   0  0  0  0  0  0  0  0  0  0  0  0
  -50.4774   58.4664   63.5568 C   0  0  0  0  0  0  0  0  0  0  0  0
  -51.2207   58.6162   62.2118 C   0  0  0  0  0  0  0  0  0  0  0  0
  -51.1274   57.3772   61.3132 C   0  0  0  0  0  0  0  0  0  0  0  0
  -50.3843   57.5608   59.9916 C   0  0  0  0  0  0  0  0  0  0  0  0
  -49.1883   56.6059   59.8080 C   0  0  0  0  0  0  0  0  0  0  0  0
  -47.8085   57.2811   59.7878 C   0  0  0  0  0  0  0  0  0  0  0  0
  -47.0887   57.0213   58.4615 C   0  0  0  0  0  0  0  0  0  0  0  0
  -45.9370   57.9519   58.1246 C   0  0  0  0  0  0  0  0  0  0  0  0
  -39.1045   60.0169   65.5174 C   0  0  0  0  0  0  0  0  0  0  0  0
  -38.5292   60.9677   64.5856 O   0  0  0  0  0  0  0  0  0  0  0  0
  -36.7418   61.4375   62.4034 O   0  0  0  0  0  0  0  0  0  0  0  0
  -35.5373   64.6570   64.7663 O   0  0  0  0  0  0  0  0  0  0  0  0
  -36.9120   62.2109   65.8987 O   0  0  0  0  0  0  0  0  0  0  0  0
  -37.1261   61.4097   64.7114 C   0  0  0  0  0  0  0  0  0  0  0  0
  -36.5678   62.2284   63.5385 C   0  0  0  0  0  0  0  0  0  0  0  0
  -35.0655   62.5601   63.6729 C   0  0  0  0  0  0  0  0  0  0  0  0
  -34.9262   63.3790   64.9264 C   0  0  0  0  0  0  0  0  0  0  0  0
  -35.5355   62.6316   66.0987 C   0  0  0  0  0  0  0  0  0  0  0  0
  -37.6815   61.2189   62.3027 H   0  0  0  0  0  0  0  0  0  0  0  0
  -35.1336   65.1163   64.0133 H   0  0  0  0  0  0  0  0  0  0  0  0
  -36.5264   63.9769   67.8081 O   0  0  0  0  0  0  0  0  0  0  0  0
  -35.3025   63.6199   67.2394 C   0  0  0  0  0  0  0  0  0  0  0  0
  -36.3757   64.6045   68.5321 H   0  0  0  0  0  0  0  0  0  0  0  0
  -34.4934   63.3538   62.6087 O   0  0  0  0  0  0  0  0  0  0  0  0
  -32.3642   63.7638   61.1891 O   0  0  0  0  0  0  0  0  0  0  0  0
  -32.1519   62.8656   63.4334 O   0  0  0  0  0  0  0  0  0  0  0  0
  -32.6743   65.2091   63.1026 O   0  0  0  0  0  0  0  0  0  0  0  0
  -32.8984   63.8307   62.5815 S   0  0  0  0  0  0  0  0  0  0  0  0
  -32.5014   62.8722   60.8326 H   0  0  0  0  0  0  0  0  0  0  0  0
  -33.1577   65.8452   62.5526 H   0  0  0  0  0  0  0  0  0  0  0  0
  2  1  1  0  0  0
  2  4  1  0  0  0
  2  5  1  0  0  0
 41 42  1  0  0  0
 41  1  1  0  0  0
 42 46  1  0  0  0
  1 24  1  0  0  0
 23 24  1  0  0  0
 23 25  1  0  0  0
 24 26  1  0  0  0
  3  4  2  0  0  0
 26 27  2  0  0  0
 27 28  1  0  0  0
 43 47  1  0  0  0
 43 51  1  0  0  0
 28 29  1  0  0  0
 56 48  1  0  0  0
 56 60  1  0  0  0
 29 30  1  0  0  0
 57 60  1  0  0  0
 57 61  1  0  0  0
 30 31  1  0  0  0
 44 49  1  0  0  0
 44 52  1  0  0  0
 31 32  1  0  0  0
 45 46  1  0  0  0
 45 50  1  0  0  0
 32 33  1  0  0  0
 53 54  1  0  0  0
 53 55  1  0  0  0
 33 34  1  0  0  0
 34 35  1  0  0  0
 35 36  1  0  0  0
 58 60  1  0  0  0
 36 37  1  0  0  0
 59 60  1  0  0  0
 59 62  1  0  0  0
 37 38  1  0  0  0
 38 39  1  0  0  0
 39 40  1  0  0  0
  4  6  1  0  0  0
  6  7  1  0  0  0
  7  8  1  0  0  0
  8  9  1  0  0  0
  9 10  1  0  0  0
 10 11  1  0  0  0
 11 12  1  0  0  0
 12 13  1  0  0  0
 13 14  1  0  0  0
 14 15  1  0  0  0
 15 16  1  0  0  0
 16 17  1  0  0  0
 17 18  1  0  0  0
 18 19  1  0  0  0
 19 20  1  0  0  0
 20 21  1  0  0  0
 21 22  1  0  0  0
 46 47  1  0  0  0
 47 48  1  0  0  0
 48 49  1  0  0  0
 49 50  1  0  0  0
 50 54  1  0  0  0
M  CHG 1  58  -1
M  END
> <minimizedAffinity>
-10.22753

> <CNNscore>
0.4136039317

> <CNNaffinity>
7.3862900734

> <CNN_VS>
3.0549986362

> <CNNaffinity_variance>
1.5502187014

$$$$
/media/chris/experiments/cd1a-new-docking/inputs/ligands/1onq_ligand.pdb


 62 62  0  0  0  0  0  0  0  0999 V2000
  -37.0884   60.8588   64.3516 C   0  0  0  0  0  0  0  0  0  0  0  0
  -37.1536   59.4521   64.6952 N   0  0  0  0  0  0  0  0  0  0  0  0
  -38.2005   57.5767   65.4263 O   0  0  0  0  0  0  0  0  0  0  0  0
  -38.2096   58.7586   65.1420 C   0  0  0  0  0  0  0  0  0  0  0  0
  -36.3181   58.9428   64.5868 H   0  0  0  0  0  0  0  0  0  0  0  0
  -39.4746   59.5501   65.2929 C   0  0  0  0  0  0  0  0  0  0  0  0
  -40.6277   58.5678   65.0863 C   0  0  0  0  0  0  0  0  0  0  0  0
  -41.9600   59.2636   65.3540 C   0  0  0  0  0  0  0  0  0  0  0  0
  -42.4920   59.1587   66.7628 C   0  0  0  0  0  0  0  0  0  0  0  0
  -43.9188   58.6266   66.6781 C   0  0  0  0  0  0  0  0  0  0  0  0
  -43.9820   57.1754   66.1834 C   0  0  0  0  0  0  0  0  0  0  0  0
  -45.2266   56.8493   65.3377 C   0  0  0  0  0  0  0  0  0  0  0  0
  -45.7285   58.0578   64.5174 C   0  0  0  0  0  0  0  0  0  0  0  0
  -47.0590   58.5731   65.0737 C   0  0  0  0  0  0  0  0  0  0  0  0
  -48.2995   57.8776   64.5264 C   0  0  0  0  0  0  0  0  0  0  0  0
  -49.2595   58.8508   63.8582 C   0  0  0  0  0  0  0  0  0  0  0  0
  -50.4491   58.2245   63.1270 C   0  0  0  0  0  0  0  0  0  0  0  0
  -50.2793   58.4808   61.6356 C   0  0  0  0  0  0  0  0  0  0  0  0
  -49.2735   57.6417   60.8613 C   0  0  0  0  0  0  0  0  0  0  0  0
  -49.7968   57.3168   59.4531 C   0  0  0  0  0  0  0  0  0  0  0  0
  -48.7061   56.9127   58.4441 C   0  0  0  0  0  0  0  0  0  0  0  0
  -48.0408   55.5789   58.7757 C   0  0  0  0  0  0  0  0  0  0  0  0
  -36.6450   62.1351   62.4620 O   0  0  0  0  0  0  0  0  0  0  0  0
  -36.4351   60.8347   62.9805 C   0  0  0  0  0  0  0  0  0  0  0  0
  -36.2089   62.7855   63.0343 H   0  0  0  0  0  0  0  0  0  0  0  0
  -37.0999   59.7569   62.1210 C   0  0  0  0  0  0  0  0  0  0  0  0
  -38.0492   60.0299   61.2097 C   0  0  0  0  0  0  0  0  0  0  0  0
  -38.6656   58.8970   60.3911 C   0  0  0  0  0  0  0  0  0  0  0  0
  -38.1815   58.8478   58.9346 C   0  0  0  0  0  0  0  0  0  0  0  0
  -37.1106   57.7859   58.6237 C   0  0  0  0  0  0  0  0  0  0  0  0
  -36.9331   56.8186   59.8189 C   0  0  0  0  0  0  0  0  0  0  0  0
  -35.7863   55.7870   59.6705 C   0  0  0  0  0  0  0  0  0  0  0  0
  -34.6951   55.8915   60.7618 C   0  0  0  0  0  0  0  0  0  0  0  0
  -34.3845   57.3429   61.1876 C   0  0  0  0  0  0  0  0  0  0  0  0
  -33.1040   57.4820   62.0194 C   0  0  0  0  0  0  0  0  0  0  0  0
  -32.6798   58.9077   62.3655 C   0  0  0  0  0  0  0  0  0  0  0  0
  -31.2457   59.2591   61.9229 C   0  0  0  0  0  0  0  0  0  0  0  0
  -30.9347   60.7614   61.8430 C   0  0  0  0  0  0  0  0  0  0  0  0
  -29.7071   61.1144   62.6875 C   0  0  0  0  0  0  0  0  0  0  0  0
  -28.3654   60.6359   62.1617 C   0  0  0  0  0  0  0  0  0  0  0  0
  -36.4465   61.7754   65.4177 C   0  0  0  0  0  0  0  0  0  0  0  0
  -35.0700   61.4899   65.7740 O   0  0  0  0  0  0  0  0  0  0  0  0
  -33.6861   61.9643   63.3169 O   0  0  0  0  0  0  0  0  0  0  0  0
  -34.0068   65.9477   64.5119 O   0  0  0  0  0  0  0  0  0  0  0  0
  -34.1569   63.6321   66.4539 O   0  0  0  0  0  0  0  0  0  0  0  0
  -34.0040   62.4918   65.5743 C   0  0  0  0  0  0  0  0  0  0  0  0
  -33.8708   63.0630   64.1553 C   0  0  0  0  0  0  0  0  0  0  0  0
  -32.6671   64.0145   63.9800 C   0  0  0  0  0  0  0  0  0  0  0  0
  -32.8945   65.1593   64.9283 C   0  0  0  0  0  0  0  0  0  0  0  0
  -33.1049   64.6276   66.3344 C   0  0  0  0  0  0  0  0  0  0  0  0
  -34.4342   61.3543   63.4138 H   0  0  0  0  0  0  0  0  0  0  0  0
  -33.8515   66.2766   63.6127 H   0  0  0  0  0  0  0  0  0  0  0  0
  -33.6680   65.6204   68.4345 O   0  0  0  0  0  0  0  0  0  0  0  0
  -33.3235   65.9214   67.1157 C   0  0  0  0  0  0  0  0  0  0  0  0
  -33.8063   66.4437   68.9285 H   0  0  0  0  0  0  0  0  0  0  0  0
  -32.5098   64.6037   62.6692 O   0  0  0  0  0  0  0  0  0  0  0  0
  -30.9620   65.2884   60.7065 O   0  0  0  0  0  0  0  0  0  0  0  0
  -29.9892   64.7178   62.8552 O   0  0  0  0  0  0  0  0  0  0  0  0
  -31.1105   66.8448   62.5509 O   0  0  0  0  0  0  0  0  0  0  0  0
  -31.1298   65.3998   62.1857 S   0  0  0  0  0  0  0  0  0  0  0  0
  -30.9721   64.3531   60.4495 H   0  0  0  0  0  0  0  0  0  0  0  0
  -31.8513   67.2975   62.1183 H   0  0  0  0  0  0  0  0  0  0  0  0
  2  1  1  0  0  0
  2  4  1  0  0  0
  2  5  1  0  0  0
 41 42  1  0  0  0
 41  1  1  0  0  0
 42 46  1  0  0  0
  1 24  1  0  0  0
 23 24  1  0  0  0
 23 25  1  0  0  0
 24 26  1  0  0  0
  3  4  2  0  0  0
 26 27  2  0  0  0
 27 28  1  0  0  0
 43 47  1  0  0  0
 43 51  1  0  0  0
 28 29  1  0  0  0
 56 48  1  0  0  0
 56 60  1  0  0  0
 29 30  1  0  0  0
 57 60  1  0  0  0
 57 61  1  0  0  0
 30 31  1  0  0  0
 44 49  1  0  0  0
 44 52  1  0  0  0
 31 32  1  0  0  0
 45 46  1  0  0  0
 45 50  1  0  0  0
 32 33  1  0  0  0
 53 54  1  0  0  0
 53 55  1  0  0  0
 33 34  1  0  0  0
 34 35  1  0  0  0
 35 36  1  0  0  0
 58 60  1  0  0  0
 36 37  1  0  0  0
 59 60  1  0  0  0
 59 62  1  0  0  0
 37 38  1  0  0  0
 38 39  1  0  0  0
 39 40  1  0  0  0
  4  6  1  0  0  0
  6  7  1  0  0  0
  7  8  1  0  0  0
  8  9  1  0  0  0
  9 10  1  0  0  0
 10 11  1  0  0  0
 11 12  1  0  0  0
 12 13  1  0  0  0
 13 14  1  0  0  0
 14 15  1  0  0  0
 15 16  1  0  0  0
 16 17  1  0  0  0
 17 18  1  0  0  0
 18 19  1  0  0  0
 19 20  1  0  0  0
 20 21  1  0  0  0
 21 22  1  0  0  0
 46 47  1  0  0  0
 47 48  1  0  0  0
 48 49  1  0  0  0
 49 50  1  0  0  0
 50 54  1  0  0  0
M  CHG 1  58  -1
M  END
> <minimizedAffinity>
-9.30319

> <CNNscore>
0.4051662087

> <CNNaffinity>
6.9302163124

> <CNN_VS>
2.8078894615

> <CNNaffinity_variance>
0.9607419968

$$$$
/media/chris/experiments/cd1a-new-docking/inputs/ligands/1onq_ligand.pdb


 62 62  0  0  0  0  0  0  0  0999 V2000
  -37.7231   59.6719   62.2982 C   0  0  0  0  0  0  0  0  0  0  0  0
  -39.0806   60.1765   62.3587 N   0  0  0  0  0  0  0  0  0  0  0  0
  -41.1905   60.2620   63.1885 O   0  0  0  0  0  0  0  0  0  0  0  0
  -40.0624   59.8090   63.1933 C   0  0  0  0  0  0  0  0  0  0  0  0
  -39.3099   60.8763   61.7052 H   0  0  0  0  0  0  0  0  0  0  0  0
  -39.6914   58.7478   64.1862 C   0  0  0  0  0  0  0  0  0  0  0  0
  -40.1906   59.2338   65.5470 C   0  0  0  0  0  0  0  0  0  0  0  0
  -41.4655   58.4873   65.9320 C   0  0  0  0  0  0  0  0  0  0  0  0
  -42.4358   59.2402   66.8095 C   0  0  0  0  0  0  0  0  0  0  0  0
  -43.8186   58.6342   66.5931 C   0  0  0  0  0  0  0  0  0  0  0  0
  -44.4323   59.0250   65.2420 C   0  0  0  0  0  0  0  0  0  0  0  0
  -45.6220   58.1479   64.8107 C   0  0  0  0  0  0  0  0  0  0  0  0
  -46.2454   57.3619   65.9850 C   0  0  0  0  0  0  0  0  0  0  0  0
  -47.2248   58.2434   66.7653 C   0  0  0  0  0  0  0  0  0  0  0  0
  -48.2616   58.9657   65.9137 C   0  0  0  0  0  0  0  0  0  0  0  0
  -49.4399   58.0716   65.5570 C   0  0  0  0  0  0  0  0  0  0  0  0
  -50.5619   58.7299   64.7508 C   0  0  0  0  0  0  0  0  0  0  0  0
  -49.9275   59.5632   63.6453 C   0  0  0  0  0  0  0  0  0  0  0  0
  -50.4863   59.4498   62.2346 C   0  0  0  0  0  0  0  0  0  0  0  0
  -51.1615   58.0860   62.0187 C   0  0  0  0  0  0  0  0  0  0  0  0
  -50.5258   57.2272   60.9100 C   0  0  0  0  0  0  0  0  0  0  0  0
  -49.1260   57.6914   60.5141 C   0  0  0  0  0  0  0  0  0  0  0  0
  -36.8978   57.6102   62.9792 O   0  0  0  0  0  0  0  0  0  0  0  0
  -37.9323   58.1711   62.1924 C   0  0  0  0  0  0  0  0  0  0  0  0
  -36.9964   57.9025   63.8988 H   0  0  0  0  0  0  0  0  0  0  0  0
  -37.8347   57.7479   60.7248 C   0  0  0  0  0  0  0  0  0  0  0  0
  -37.2532   58.5078   59.7812 C   0  0  0  0  0  0  0  0  0  0  0  0
  -37.1966   58.0149   58.3364 C   0  0  0  0  0  0  0  0  0  0  0  0
  -36.2584   56.8178   58.1242 C   0  0  0  0  0  0  0  0  0  0  0  0
  -34.7648   57.1604   57.9723 C   0  0  0  0  0  0  0  0  0  0  0  0
  -33.9142   56.3766   59.0007 C   0  0  0  0  0  0  0  0  0  0  0  0
  -34.7146   55.6971   60.1405 C   0  0  0  0  0  0  0  0  0  0  0  0
  -34.2011   56.0305   61.5611 C   0  0  0  0  0  0  0  0  0  0  0  0
  -32.8180   56.7168   61.5725 C   0  0  0  0  0  0  0  0  0  0  0  0
  -32.8165   58.0923   62.2501 C   0  0  0  0  0  0  0  0  0  0  0  0
  -32.0938   59.2093   61.5003 C   0  0  0  0  0  0  0  0  0  0  0  0
  -30.8270   59.7234   62.2122 C   0  0  0  0  0  0  0  0  0  0  0  0
  -30.2012   60.9874   61.6034 C   0  0  0  0  0  0  0  0  0  0  0  0
  -28.8494   61.2987   62.2519 C   0  0  0  0  0  0  0  0  0  0  0  0
  -27.7842   60.2220   62.1431 C   0  0  0  0  0  0  0  0  0  0  0  0
  -36.7772   60.1707   63.4142 C   0  0  0  0  0  0  0  0  0  0  0  0
  -35.5149   60.7425   62.9865 O   0  0  0  0  0  0  0  0  0  0  0  0
  -33.3999   62.4676   62.1331 O   0  0  0  0  0  0  0  0  0  0  0  0
  -35.1811   65.1158   64.8188 O   0  0  0  0  0  0  0  0  0  0  0  0
  -35.5405   62.1160   64.9859 O   0  0  0  0  0  0  0  0  0  0  0  0
  -34.7528   61.6558   63.8611 C   0  0  0  0  0  0  0  0  0  0  0  0
  -34.1876   62.9171   63.1921 C   0  0  0  0  0  0  0  0  0  0  0  0
  -33.3029   63.7713   64.1262 C   0  0  0  0  0  0  0  0  0  0  0  0
  -34.1854   64.1990   65.2662 C   0  0  0  0  0  0  0  0  0  0  0  0
  -34.8225   62.9798   65.9080 C   0  0  0  0  0  0  0  0  0  0  0  0
  -33.9401   61.9281   61.5346 H   0  0  0  0  0  0  0  0  0  0  0  0
  -34.7527   65.8857   64.4130 H   0  0  0  0  0  0  0  0  0  0  0  0
  -36.9668   63.8233   66.5437 O   0  0  0  0  0  0  0  0  0  0  0  0
  -35.6650   63.6239   67.0068 C   0  0  0  0  0  0  0  0  0  0  0  0
  -37.4997   64.2325   67.2432 H   0  0  0  0  0  0  0  0  0  0  0  0
  -32.7664   64.9865   63.5557 O   0  0  0  0  0  0  0  0  0  0  0  0
  -31.5416   64.3355   61.3664 O   0  0  0  0  0  0  0  0  0  0  0  0
  -30.3303   64.3093   63.4690 O   0  0  0  0  0  0  0  0  0  0  0  0
  -30.8665   66.4159   62.3972 O   0  0  0  0  0  0  0  0  0  0  0  0
  -31.3561   65.0352   62.6721 S   0  0  0  0  0  0  0  0  0  0  0  0
  -31.8605   63.4334   61.5255 H   0  0  0  0  0  0  0  0  0  0  0  0
  -31.5297   66.8966   61.8776 H   0  0  0  0  0  0  0  0  0  0  0  0
  2  1  1  0  0  0
  2  4  1  0  0  0
  2  5  1  0  0  0
 41 42  1  0  0  0
 41  1  1  0  0  0
 42 46  1  0  0  0
  1 24  1  0  0  0
 23 24  1  0  0  0
 23 25  1  0  0  0
 24 26  1  0  0  0
  3  4  2  0  0  0
 26 27  2  0  0  0
 27 28  1  0  0  0
 43 47  1  0  0  0
 43 51  1  0  0  0
 28 29  1  0  0  0
 56 48  1  0  0  0
 56 60  1  0  0  0
 29 30  1  0  0  0
 57 60  1  0  0  0
 57 61  1  0  0  0
 30 31  1  0  0  0
 44 49  1  0  0  0
 44 52  1  0  0  0
 31 32  1  0  0  0
 45 46  1  0  0  0
 45 50  1  0  0  0
 32 33  1  0  0  0
 53 54  1  0  0  0
 53 55  1  0  0  0
 33 34  1  0  0  0
 34 35  1  0  0  0
 35 36  1  0  0  0
 58 60  1  0  0  0
 36 37  1  0  0  0
 59 60  1  0  0  0
 59 62  1  0  0  0
 37 38  1  0  0  0
 38 39  1  0  0  0
 39 40  1  0  0  0
  4  6  1  0  0  0
  6  7  1  0  0  0
  7  8  1  0  0  0
  8  9  1  0  0  0
  9 10  1  0  0  0
 10 11  1  0  0  0
 11 12  1  0  0  0
 12 13  1  0  0  0
 13 14  1  0  0  0
 14 15  1  0  0  0
 15 16  1  0  0  0
 16 17  1  0  0  0
 17 18  1  0  0  0
 18 19  1  0  0  0
 19 20  1  0  0  0
 20 21  1  0  0  0
 21 22  1  0  0  0
 46 47  1  0  0  0
 47 48  1  0  0  0
 48 49  1  0  0  0
 49 50  1  0  0  0
 50 54  1  0  0  0
M  CHG 1  58  -1
M  END
> <minimizedAffinity>
-9.66614

> <CNNscore>
0.3994467854

> <CNNaffinity>
6.9101867676

> <CNN_VS>
2.7602519989

> <CNNaffinity_variance>
1.1521524191

$$$$
/media/chris/experiments/cd1a-new-docking/inputs/ligands/1onq_ligand.pdb


 62 62  0  0  0  0  0  0  0  0999 V2000
  -37.6333   59.1039   62.1436 C   0  0  0  0  0  0  0  0  0  0  0  0
  -38.8336   59.7555   61.6581 N   0  0  0  0  0  0  0  0  0  0  0  0
  -40.8392   60.7863   61.9083 O   0  0  0  0  0  0  0  0  0  0  0  0
  -39.8479   60.2591   62.3744 C   0  0  0  0  0  0  0  0  0  0  0  0
  -38.9136   59.8385   60.6804 H   0  0  0  0  0  0  0  0  0  0  0  0
  -39.7038   60.1302   63.8618 C   0  0  0  0  0  0  0  0  0  0  0  0
  -41.0990   60.3363   64.4519 C   0  0  0  0  0  0  0  0  0  0  0  0
  -41.2422   59.5362   65.7443 C   0  0  0  0  0  0  0  0  0  0  0  0
  -41.5223   58.0617   65.5841 C   0  0  0  0  0  0  0  0  0  0  0  0
  -42.7037   57.7165   66.4847 C   0  0  0  0  0  0  0  0  0  0  0  0
  -44.0566   57.8974   65.7835 C   0  0  0  0  0  0  0  0  0  0  0  0
  -45.0055   58.8859   66.4857 C   0  0  0  0  0  0  0  0  0  0  0  0
  -46.0729   59.4714   65.5354 C   0  0  0  0  0  0  0  0  0  0  0  0
  -47.4436   59.5041   66.2174 C   0  0  0  0  0  0  0  0  0  0  0  0
  -48.4126   58.4164   65.7701 C   0  0  0  0  0  0  0  0  0  0  0  0
  -48.2988   58.1180   64.2825 C   0  0  0  0  0  0  0  0  0  0  0  0
  -49.0450   59.0726   63.3475 C   0  0  0  0  0  0  0  0  0  0  0  0
  -50.5125   58.6668   63.3257 C   0  0  0  0  0  0  0  0  0  0  0  0
  -51.0763   58.0377   62.0601 C   0  0  0  0  0  0  0  0  0  0  0  0
  -49.9982   57.9357   60.9694 C   0  0  0  0  0  0  0  0  0  0  0  0
  -49.8582   56.5381   60.3386 C   0  0  0  0  0  0  0  0  0  0  0  0
  -48.7427   56.4534   59.2993 C   0  0  0  0  0  0  0  0  0  0  0  0
  -37.5635   57.3804   63.6995 O   0  0  0  0  0  0  0  0  0  0  0  0
  -38.1170   57.6937   62.4349 C   0  0  0  0  0  0  0  0  0  0  0  0
  -37.9039   57.9999   64.3637 H   0  0  0  0  0  0  0  0  0  0  0  0
  -37.6189   56.7501   61.3376 C   0  0  0  0  0  0  0  0  0  0  0  0
  -36.9349   57.1753   60.2617 C   0  0  0  0  0  0  0  0  0  0  0  0
  -36.4724   56.1699   59.2086 C   0  0  0  0  0  0  0  0  0  0  0  0
  -35.1594   55.4572   59.5639 C   0  0  0  0  0  0  0  0  0  0  0  0
  -33.9919   56.3751   59.9709 C   0  0  0  0  0  0  0  0  0  0  0  0
  -33.5226   56.0605   61.4119 C   0  0  0  0  0  0  0  0  0  0  0  0
  -32.5526   57.0972   62.0330 C   0  0  0  0  0  0  0  0  0  0  0  0
  -33.2456   58.3734   62.5656 C   0  0  0  0  0  0  0  0  0  0  0  0
  -32.4875   59.6751   62.2267 C   0  0  0  0  0  0  0  0  0  0  0  0
  -30.9672   59.4984   62.1343 C   0  0  0  0  0  0  0  0  0  0  0  0
  -30.1648   60.7530   61.7961 C   0  0  0  0  0  0  0  0  0  0  0  0
  -30.3326   61.8971   62.8152 C   0  0  0  0  0  0  0  0  0  0  0  0
  -29.6795   63.2294   62.4174 C   0  0  0  0  0  0  0  0  0  0  0  0
  -30.6931   64.1596   61.7450 C   0  0  0  0  0  0  0  0  0  0  0  0
  -30.1417   65.4451   61.1542 C   0  0  0  0  0  0  0  0  0  0  0  0
  -36.8908   59.8392   63.2824 C   0  0  0  0  0  0  0  0  0  0  0  0
  -35.9233   60.8430   62.8832 O   0  0  0  0  0  0  0  0  0  0  0  0
  -33.8883   62.7681   62.3085 O   0  0  0  0  0  0  0  0  0  0  0  0
  -35.9134   64.9963   65.1951 O   0  0  0  0  0  0  0  0  0  0  0  0
  -36.0977   61.9813   65.0184 O   0  0  0  0  0  0  0  0  0  0  0  0
  -35.2468   61.6943   63.8821 C   0  0  0  0  0  0  0  0  0  0  0  0
  -34.7363   63.0519   63.3782 C   0  0  0  0  0  0  0  0  0  0  0  0
  -33.9359   63.8447   64.4346 C   0  0  0  0  0  0  0  0  0  0  0  0
  -34.8800   64.0924   65.5786 C   0  0  0  0  0  0  0  0  0  0  0  0
  -35.4639   62.7755   66.0572 C   0  0  0  0  0  0  0  0  0  0  0  0
  -34.3749   62.2694   61.6336 H   0  0  0  0  0  0  0  0  0  0  0  0
  -35.5186   65.8294   64.8933 H   0  0  0  0  0  0  0  0  0  0  0  0
  -36.4028   62.2865   68.2003 O   0  0  0  0  0  0  0  0  0  0  0  0
  -36.3796   63.2449   67.1856 C   0  0  0  0  0  0  0  0  0  0  0  0
  -36.9850   62.5870   68.9156 H   0  0  0  0  0  0  0  0  0  0  0  0
  -33.4546   65.1440   64.0222 O   0  0  0  0  0  0  0  0  0  0  0  0
  -32.7826   66.7166   65.9696 O   0  0  0  0  0  0  0  0  0  0  0  0
  -31.6617   66.9183   63.8268 O   0  0  0  0  0  0  0  0  0  0  0  0
  -31.1428   65.0688   65.3047 O   0  0  0  0  0  0  0  0  0  0  0  0
  -32.2324   65.9565   64.8084 S   0  0  0  0  0  0  0  0  0  0  0  0
  -33.4945   67.3010   65.6654 H   0  0  0  0  0  0  0  0  0  0  0  0
  -31.5063   64.4381   65.9458 H   0  0  0  0  0  0  0  0  0  0  0  0
  2  1  1  0  0  0
  2  4  1  0  0  0
  2  5  1  0  0  0
 41 42  1  0  0  0
 41  1  1  0  0  0
 42 46  1  0  0  0
  1 24  1  0  0  0
 23 24  1  0  0  0
 23 25  1  0  0  0
 24 26  1  0  0  0
  3  4  2  0  0  0
 26 27  2  0  0  0
 27 28  1  0  0  0
 43 47  1  0  0  0
 43 51  1  0  0  0
 28 29  1  0  0  0
 56 48  1  0  0  0
 56 60  1  0  0  0
 29 30  1  0  0  0
 57 60  1  0  0  0
 57 61  1  0  0  0
 30 31  1  0  0  0
 44 49  1  0  0  0
 44 52  1  0  0  0
 31 32  1  0  0  0
 45 46  1  0  0  0
 45 50  1  0  0  0
 32 33  1  0  0  0
 53 54  1  0  0  0
 53 55  1  0  0  0
 33 34  1  0  0  0
 34 35  1  0  0  0
 35 36  1  0  0  0
 58 60  1  0  0  0
 36 37  1  0  0  0
 59 60  1  0  0  0
 59 62  1  0  0  0
 37 38  1  0  0  0
 38 39  1  0  0  0
 39 40  1  0  0  0
  4  6  1  0  0  0
  6  7  1  0  0  0
  7  8  1  0  0  0
  8  9  1  0  0  0
  9 10  1  0  0  0
 10 11  1  0  0  0
 11 12  1  0  0  0
 12 13  1  0  0  0
 13 14  1  0  0  0
 14 15  1  0  0  0
 15 16  1  0  0  0
 16 17  1  0  0  0
 17 18  1  0  0  0
 18 19  1  0  0  0
 19 20  1  0  0  0
 20 21  1  0  0  0
 21 22  1  0  0  0
 46 47  1  0  0  0
 47 48  1  0  0  0
 48 49  1  0  0  0
 49 50  1  0  0  0
 50 54  1  0  0  0
M  CHG 1  58  -1
M  END
> <minimizedAffinity>
-9.20982

> <CNNscore>
0.3735358715

> <CNNaffinity>
6.9246568680

> <CNN_VS>
2.5866076946

> <CNNaffinity_variance>
1.2121732235

$$$$
/media/chris/experiments/cd1a-new-docking/inputs/ligands/1onq_ligand.pdb


 62 62  0  0  0  0  0  0  0  0999 V2000
  -39.9854   59.6990   64.1051 C   0  0  0  0  0  0  0  0  0  0  0  0
  -40.2659   60.2691   62.8022 N   0  0  0  0  0  0  0  0  0  0  0  0
  -40.1052   60.3688   60.5412 O   0  0  0  0  0  0  0  0  0  0  0  0
  -39.8458   59.8394   61.6044 C   0  0  0  0  0  0  0  0  0  0  0  0
  -40.8358   61.0718   62.7965 H   0  0  0  0  0  0  0  0  0  0  0  0
  -38.9854   58.6112   61.6334 C   0  0  0  0  0  0  0  0  0  0  0  0
  -37.5792   59.0576   61.2327 C   0  0  0  0  0  0  0  0  0  0  0  0
  -37.1189   58.2861   59.9983 C   0  0  0  0  0  0  0  0  0  0  0  0
  -37.8523   58.5900   58.7144 C   0  0  0  0  0  0  0  0  0  0  0  0
  -37.2349   57.7302   57.6164 C   0  0  0  0  0  0  0  0  0  0  0  0
  -36.2260   56.7094   58.1595 C   0  0  0  0  0  0  0  0  0  0  0  0
  -34.7610   57.0135   57.7961 C   0  0  0  0  0  0  0  0  0  0  0  0
  -33.7518   56.2578   58.6882 C   0  0  0  0  0  0  0  0  0  0  0  0
  -34.4700   55.5691   59.8523 C   0  0  0  0  0  0  0  0  0  0  0  0
  -34.2660   56.2230   61.2134 C   0  0  0  0  0  0  0  0  0  0  0  0
  -32.8195   56.1473   61.6793 C   0  0  0  0  0  0  0  0  0  0  0  0
  -32.2882   57.3760   62.4210 C   0  0  0  0  0  0  0  0  0  0  0  0
  -33.1118   58.5832   61.9927 C   0  0  0  0  0  0  0  0  0  0  0  0
  -33.8344   59.3893   63.0619 C   0  0  0  0  0  0  0  0  0  0  0  0
  -34.2055   58.5033   64.2617 C   0  0  0  0  0  0  0  0  0  0  0  0
  -35.7158   58.4169   64.5488 C   0  0  0  0  0  0  0  0  0  0  0  0
  -36.3380   57.0911   64.1167 C   0  0  0  0  0  0  0  0  0  0  0  0
  -40.8763   60.7276   65.9877 O   0  0  0  0  0  0  0  0  0  0  0  0
  -41.2739   59.9617   64.8656 C   0  0  0  0  0  0  0  0  0  0  0  0
  -40.4837   61.5620   65.6869 H   0  0  0  0  0  0  0  0  0  0  0  0
  -41.9037   58.6273   65.2719 C   0  0  0  0  0  0  0  0  0  0  0  0
  -43.1012   58.5369   65.8752 C   0  0  0  0  0  0  0  0  0  0  0  0
  -43.6619   57.1664   66.2507 C   0  0  0  0  0  0  0  0  0  0  0  0
  -44.9771   56.8165   65.5393 C   0  0  0  0  0  0  0  0  0  0  0  0
  -46.1688   57.7411   65.8493 C   0  0  0  0  0  0  0  0  0  0  0  0
  -46.8987   58.1513   64.5476 C   0  0  0  0  0  0  0  0  0  0  0  0
  -48.4305   57.9160   64.5456 C   0  0  0  0  0  0  0  0  0  0  0  0
  -49.2076   58.8114   63.5520 C   0  0  0  0  0  0  0  0  0  0  0  0
  -50.5385   58.1920   63.0733 C   0  0  0  0  0  0  0  0  0  0  0  0
  -50.7684   58.3140   61.5623 C   0  0  0  0  0  0  0  0  0  0  0  0
  -50.4899   57.0594   60.7373 C   0  0  0  0  0  0  0  0  0  0  0  0
  -49.9539   57.3476   59.3211 C   0  0  0  0  0  0  0  0  0  0  0  0
  -48.5361   56.8277   59.0392 C   0  0  0  0  0  0  0  0  0  0  0  0
  -48.3363   56.5581   57.5451 C   0  0  0  0  0  0  0  0  0  0  0  0
  -47.5965   55.2827   57.1821 C   0  0  0  0  0  0  0  0  0  0  0  0
  -38.6715   60.1699   64.7689 C   0  0  0  0  0  0  0  0  0  0  0  0
  -38.2109   61.5007   64.4225 O   0  0  0  0  0  0  0  0  0  0  0  0
  -36.1748   61.9608   62.4680 O   0  0  0  0  0  0  0  0  0  0  0  0
  -35.2365   65.1689   64.9632 O   0  0  0  0  0  0  0  0  0  0  0  0
  -36.7521   62.7311   65.9202 O   0  0  0  0  0  0  0  0  0  0  0  0
  -36.8296   61.9328   64.7142 C   0  0  0  0  0  0  0  0  0  0  0  0
  -36.1310   62.7490   63.6172 C   0  0  0  0  0  0  0  0  0  0  0  0
  -34.6529   63.0701   63.9290 C   0  0  0  0  0  0  0  0  0  0  0  0
  -34.6573   63.8866   65.1919 C   0  0  0  0  0  0  0  0  0  0  0  0
  -35.4061   63.1420   66.2824 C   0  0  0  0  0  0  0  0  0  0  0  0
  -37.0975   61.7487   62.2563 H   0  0  0  0  0  0  0  0  0  0  0  0
  -34.7435   65.6263   64.2641 H   0  0  0  0  0  0  0  0  0  0  0  0
  -33.9917   64.5949   67.5480 O   0  0  0  0  0  0  0  0  0  0  0  0
  -35.3029   64.1272   67.4446 C   0  0  0  0  0  0  0  0  0  0  0  0
  -33.9288   65.2204   68.2868 H   0  0  0  0  0  0  0  0  0  0  0  0
  -33.9536   63.8612   62.9415 O   0  0  0  0  0  0  0  0  0  0  0  0
  -32.3719   62.1289   61.8396 O   0  0  0  0  0  0  0  0  0  0  0  0
  -31.5302   63.5651   63.6053 O   0  0  0  0  0  0  0  0  0  0  0  0
  -31.9019   64.4562   61.3822 O   0  0  0  0  0  0  0  0  0  0  0  0
  -32.4157   63.5075   62.4107 S   0  0  0  0  0  0  0  0  0  0  0  0
  -32.7033   61.4963   62.4960 H   0  0  0  0  0  0  0  0  0  0  0  0
  -32.4737   64.4250   60.5994 H   0  0  0  0  0  0  0  0  0  0  0  0
  2  1  1  0  0  0
  2  4  1  0  0  0
  2  5  1  0  0  0
 41 42  1  0  0  0
 41  1  1  0  0  0
 42 46  1  0  0  0
  1 24  1  0  0  0
 23 24  1  0  0  0
 23 25  1  0  0  0
 24 26  1  0  0  0
  3  4  2  0  0  0
 26 27  2  0  0  0
 27 28  1  0  0  0
 43 47  1  0  0  0
 43 51  1  0  0  0
 28 29  1  0  0  0
 56 48  1  0  0  0
 56 60  1  0  0  0
 29 30  1  0  0  0
 57 60  1  0  0  0
 57 61  1  0  0  0
 30 31  1  0  0  0
 44 49  1  0  0  0
 44 52  1  0  0  0
 31 32  1  0  0  0
 45 46  1  0  0  0
 45 50  1  0  0  0
 32 33  1  0  0  0
 53 54  1  0  0  0
 53 55  1  0  0  0
 33 34  1  0  0  0
 34 35  1  0  0  0
 35 36  1  0  0  0
 58 60  1  0  0  0
 36 37  1  0  0  0
 59 60  1  0  0  0
 59 62  1  0  0  0
 37 38  1  0  0  0
 38 39  1  0  0  0
 39 40  1  0  0  0
  4  6  1  0  0  0
  6  7  1  0  0  0
  7  8  1  0  0  0
  8  9  1  0  0  0
  9 10  1  0  0  0
 10 11  1  0  0  0
 11 12  1  0  0  0
 12 13  1  0  0  0
 13 14  1  0  0  0
 14 15  1  0  0  0
 15 16  1  0  0  0
 16 17  1  0  0  0
 17 18  1  0  0  0
 18 19  1  0  0  0
 19 20  1  0  0  0
 20 21  1  0  0  0
 21 22  1  0  0  0
 46 47  1  0  0  0
 47 48  1  0  0  0
 48 49  1  0  0  0
 49 50  1  0  0  0
 50 54  1  0  0  0
M  CHG 1  58  -1
M  END
> <minimizedAffinity>
-9.53332

> <CNNscore>
0.3487289548

> <CNNaffinity>
7.3069696426

> <CNN_VS>
2.5481519699

> <CNNaffinity_variance>
1.0248095989

$$$$
/media/chris/experiments/cd1a-new-docking/inputs/ligands/1onq_ligand.pdb


 62 62  0  0  0  0  0  0  0  0999 V2000
  -37.3565   59.7373   63.0046 C   0  0  0  0  0  0  0  0  0  0  0  0
  -37.0869   60.0480   61.6147 N   0  0  0  0  0  0  0  0  0  0  0  0
  -37.5521   60.0368   59.3941 O   0  0  0  0  0  0  0  0  0  0  0  0
  -37.8375   59.7595   60.5428 C   0  0  0  0  0  0  0  0  0  0  0  0
  -36.2479   60.5311   61.4359 H   0  0  0  0  0  0  0  0  0  0  0  0
  -39.1149   59.0305   60.8364 C   0  0  0  0  0  0  0  0  0  0  0  0
  -40.2486   60.0260   60.5899 C   0  0  0  0  0  0  0  0  0  0  0  0
  -40.6453   60.0102   59.1156 C   0  0  0  0  0  0  0  0  0  0  0  0
  -42.0540   59.5605   58.8124 C   0  0  0  0  0  0  0  0  0  0  0  0
  -42.1529   59.3386   57.3068 C   0  0  0  0  0  0  0  0  0  0  0  0
  -43.3660   58.4860   56.9115 C   0  0  0  0  0  0  0  0  0  0  0  0
  -44.3237   58.1713   58.0753 C   0  0  0  0  0  0  0  0  0  0  0  0
  -45.8053   58.4213   57.7180 C   0  0  0  0  0  0  0  0  0  0  0  0
  -46.6531   57.1859   58.0343 C   0  0  0  0  0  0  0  0  0  0  0  0
  -47.1602   57.1017   59.4688 C   0  0  0  0  0  0  0  0  0  0  0  0
  -48.5136   56.4129   59.5631 C   0  0  0  0  0  0  0  0  0  0  0  0
  -49.5344   57.0643   60.4990 C   0  0  0  0  0  0  0  0  0  0  0  0
  -49.4094   58.5757   60.3612 C   0  0  0  0  0  0  0  0  0  0  0  0
  -49.8231   59.4516   61.5346 C   0  0  0  0  0  0  0  0  0  0  0  0
  -50.8365   58.7246   62.4329 C   0  0  0  0  0  0  0  0  0  0  0  0
  -51.9547   59.6237   62.9916 C   0  0  0  0  0  0  0  0  0  0  0  0
  -51.5596   60.3531   64.2735 C   0  0  0  0  0  0  0  0  0  0  0  0
  -37.6958   61.7761   64.0648 O   0  0  0  0  0  0  0  0  0  0  0  0
  -38.4100   60.7668   63.3756 C   0  0  0  0  0  0  0  0  0  0  0  0
  -37.0343   62.1660   63.4722 H   0  0  0  0  0  0  0  0  0  0  0  0
  -39.4737   60.1084   64.2575 C   0  0  0  0  0  0  0  0  0  0  0  0
  -39.6497   58.7776   64.3218 C   0  0  0  0  0  0  0  0  0  0  0  0
  -40.7351   58.1971   65.2264 C   0  0  0  0  0  0  0  0  0  0  0  0
  -41.4350   59.2423   66.1072 C   0  0  0  0  0  0  0  0  0  0  0  0
  -42.7015   58.7583   66.8372 C   0  0  0  0  0  0  0  0  0  0  0  0
  -43.9762   59.2220   66.0917 C   0  0  0  0  0  0  0  0  0  0  0  0
  -44.3732   58.3643   64.8635 C   0  0  0  0  0  0  0  0  0  0  0  0
  -45.0053   56.9988   65.2221 C   0  0  0  0  0  0  0  0  0  0  0  0
  -45.5570   56.9329   66.6627 C   0  0  0  0  0  0  0  0  0  0  0  0
  -47.0758   56.7344   66.7341 C   0  0  0  0  0  0  0  0  0  0  0  0
  -47.8448   56.9655   65.4350 C   0  0  0  0  0  0  0  0  0  0  0  0
  -48.9759   58.0059   65.5537 C   0  0  0  0  0  0  0  0  0  0  0  0
  -48.6497   59.2316   66.4205 C   0  0  0  0  0  0  0  0  0  0  0  0
  -47.5899   60.1117   65.7517 C   0  0  0  0  0  0  0  0  0  0  0  0
  -47.9359   60.6597   64.3785 C   0  0  0  0  0  0  0  0  0  0  0  0
  -36.1140   59.6453   63.9193 C   0  0  0  0  0  0  0  0  0  0  0  0
  -34.8877   60.2262   63.4073 O   0  0  0  0  0  0  0  0  0  0  0  0
  -32.9107   61.9411   62.2548 O   0  0  0  0  0  0  0  0  0  0  0  0
  -34.9773   64.8793   64.3749 O   0  0  0  0  0  0  0  0  0  0  0  0
  -35.0793   61.9454   65.1082 O   0  0  0  0  0  0  0  0  0  0  0  0
  -34.2284   61.3531   64.0969 C   0  0  0  0  0  0  0  0  0  0  0  0
  -33.7591   62.5105   63.2036 C   0  0  0  0  0  0  0  0  0  0  0  0
  -32.9739   63.6017   63.9636 C   0  0  0  0  0  0  0  0  0  0  0  0
  -33.9167   64.1566   64.9954 C   0  0  0  0  0  0  0  0  0  0  0  0
  -34.4607   63.0288   65.8535 C   0  0  0  0  0  0  0  0  0  0  0  0
  -33.3879   61.2519   61.7666 H   0  0  0  0  0  0  0  0  0  0  0  0
  -34.6078   65.5937   63.8326 H   0  0  0  0  0  0  0  0  0  0  0  0
  -34.6199   64.4243   67.7876 O   0  0  0  0  0  0  0  0  0  0  0  0
  -35.3815   63.7912   66.8038 C   0  0  0  0  0  0  0  0  0  0  0  0
  -35.2069   64.9076   68.3898 H   0  0  0  0  0  0  0  0  0  0  0  0
  -32.5315   64.7300   63.1755 O   0  0  0  0  0  0  0  0  0  0  0  0
  -29.9836   64.3377   63.4426 O   0  0  0  0  0  0  0  0  0  0  0  0
  -30.7740   66.2630   62.1946 O   0  0  0  0  0  0  0  0  0  0  0  0
  -30.8879   64.0472   61.2191 O   0  0  0  0  0  0  0  0  0  0  0  0
  -31.0198   64.8242   62.4842 S   0  0  0  0  0  0  0  0  0  0  0  0
  -30.0541   64.8329   64.2738 H   0  0  0  0  0  0  0  0  0  0  0  0
  -31.0467   63.1074   61.3989 H   0  0  0  0  0  0  0  0  0  0  0  0
  2  1  1  0  0  0
  2  4  1  0  0  0
  2  5  1  0  0  0
 41 42  1  0  0  0
 41  1  1  0  0  0
 42 46  1  0  0  0
  1 24  1  0  0  0
 23 24  1  0  0  0
 23 25  1  0  0  0
 24 26  1  0  0  0
  3  4  2  0  0  0
 26 27  2  0  0  0
 27 28  1  0  0  0
 43 47  1  0  0  0
 43 51  1  0  0  0
 28 29  1  0  0  0
 56 48  1  0  0  0
 56 60  1  0  0  0
 29 30  1  0  0  0
 57 60  1  0  0  0
 57 61  1  0  0  0
 30 31  1  0  0  0
 44 49  1  0  0  0
 44 52  1  0  0  0
 31 32  1  0  0  0
 45 46  1  0  0  0
 45 50  1  0  0  0
 32 33  1  0  0  0
 53 54  1  0  0  0
 53 55  1  0  0  0
 33 34  1  0  0  0
 34 35  1  0  0  0
 35 36  1  0  0  0
 58 60  1  0  0  0
 36 37  1  0  0  0
 59 60  1  0  0  0
 59 62  1  0  0  0
 37 38  1  0  0  0
 38 39  1  0  0  0
 39 40  1  0  0  0
  4  6  1  0  0  0
  6  7  1  0  0  0
  7  8  1  0  0  0
  8  9  1  0  0  0
  9 10  1  0  0  0
 10 11  1  0  0  0
 11 12  1  0  0  0
 12 13  1  0  0  0
 13 14  1  0  0  0
 14 15  1  0  0  0
 15 16  1  0  0  0
 16 17  1  0  0  0
 17 18  1  0  0  0
 18 19  1  0  0  0
 19 20  1  0  0  0
 20 21  1  0  0  0
 21 22  1  0  0  0
 46 47  1  0  0  0
 47 48  1  0  0  0
 48 49  1  0  0  0
 49 50  1  0  0  0
 50 54  1  0  0  0
M  CHG 1  58  -1
M  END
> <minimizedAffinity>
-9.17267

> <CNNscore>
0.3114841580

> <CNNaffinity>
6.9379134178

> <CNN_VS>
2.1610500813

> <CNNaffinity_variance>
0.7850809097

$$$$
/media/chris/experiments/cd1a-new-docking/inputs/ligands/1onq_ligand.pdb


 62 62  0  0  0  0  0  0  0  0999 V2000
  -40.1151   59.6829   64.1128 C   0  0  0  0  0  0  0  0  0  0  0  0
  -40.3671   60.1093   62.7505 N   0  0  0  0  0  0  0  0  0  0  0  0
  -40.0910   60.0195   60.5003 O   0  0  0  0  0  0  0  0  0  0  0  0
  -39.8500   59.6104   61.6194 C   0  0  0  0  0  0  0  0  0  0  0  0
  -40.9963   60.8587   62.6428 H   0  0  0  0  0  0  0  0  0  0  0  0
  -38.8999   58.4645   61.8037 C   0  0  0  0  0  0  0  0  0  0  0  0
  -37.5783   58.8900   61.1638 C   0  0  0  0  0  0  0  0  0  0  0  0
  -37.2638   57.9919   59.9699 C   0  0  0  0  0  0  0  0  0  0  0  0
  -37.7243   58.4936   58.6228 C   0  0  0  0  0  0  0  0  0  0  0  0
  -36.6639   58.1031   57.5986 C   0  0  0  0  0  0  0  0  0  0  0  0
  -35.8538   56.8712   58.0241 C   0  0  0  0  0  0  0  0  0  0  0  0
  -34.3391   56.9943   57.7769 C   0  0  0  0  0  0  0  0  0  0  0  0
  -33.4950   56.2707   58.8490 C   0  0  0  0  0  0  0  0  0  0  0  0
  -34.3933   55.7070   59.9537 C   0  0  0  0  0  0  0  0  0  0  0  0
  -34.0809   56.2093   61.3580 C   0  0  0  0  0  0  0  0  0  0  0  0
  -33.4224   57.5810   61.3473 C   0  0  0  0  0  0  0  0  0  0  0  0
  -33.5349   58.3895   62.6418 C   0  0  0  0  0  0  0  0  0  0  0  0
  -32.7099   59.6595   62.4827 C   0  0  0  0  0  0  0  0  0  0  0  0
  -31.1929   59.5452   62.4573 C   0  0  0  0  0  0  0  0  0  0  0  0
  -30.5828   60.5445   61.4615 C   0  0  0  0  0  0  0  0  0  0  0  0
  -29.3179   61.2606   61.9694 C   0  0  0  0  0  0  0  0  0  0  0  0
  -28.1227   60.3260   62.1416 C   0  0  0  0  0  0  0  0  0  0  0  0
  -40.9498   60.7609   65.9935 O   0  0  0  0  0  0  0  0  0  0  0  0
  -41.3919   60.0895   64.8283 C   0  0  0  0  0  0  0  0  0  0  0  0
  -40.4384   61.5452   65.7402 H   0  0  0  0  0  0  0  0  0  0  0  0
  -42.2084   58.8378   65.1588 C   0  0  0  0  0  0  0  0  0  0  0  0
  -42.3535   58.3678   66.4095 C   0  0  0  0  0  0  0  0  0  0  0  0
  -43.1846   57.1103   66.6574 C   0  0  0  0  0  0  0  0  0  0  0  0
  -44.2553   56.8518   65.5874 C   0  0  0  0  0  0  0  0  0  0  0  0
  -45.6652   57.3776   65.9146 C   0  0  0  0  0  0  0  0  0  0  0  0
  -46.1768   58.3127   64.7924 C   0  0  0  0  0  0  0  0  0  0  0  0
  -47.0627   59.4924   65.2668 C   0  0  0  0  0  0  0  0  0  0  0  0
  -48.1507   59.0952   66.2920 C   0  0  0  0  0  0  0  0  0  0  0  0
  -49.2783   58.2281   65.6913 C   0  0  0  0  0  0  0  0  0  0  0  0
  -50.5419   59.0194   65.3334 C   0  0  0  0  0  0  0  0  0  0  0  0
  -50.7130   59.3804   63.8593 C   0  0  0  0  0  0  0  0  0  0  0  0
  -50.6462   58.1704   62.9067 C   0  0  0  0  0  0  0  0  0  0  0  0
  -49.3587   58.0617   62.0757 C   0  0  0  0  0  0  0  0  0  0  0  0
  -49.5929   58.5265   60.6356 C   0  0  0  0  0  0  0  0  0  0  0  0
  -50.2544   57.5276   59.7027 C   0  0  0  0  0  0  0  0  0  0  0  0
  -38.7826   60.1688   64.7268 C   0  0  0  0  0  0  0  0  0  0  0  0
  -38.2872   61.4522   64.2676 O   0  0  0  0  0  0  0  0  0  0  0  0
  -36.2957   61.9499   62.2766 O   0  0  0  0  0  0  0  0  0  0  0  0
  -35.2973   65.1070   64.8132 O   0  0  0  0  0  0  0  0  0  0  0  0
  -36.7932   62.6515   65.7558 O   0  0  0  0  0  0  0  0  0  0  0  0
  -36.8990   61.8775   64.5362 C   0  0  0  0  0  0  0  0  0  0  0  0
  -36.2248   62.7151   63.4400 C   0  0  0  0  0  0  0  0  0  0  0  0
  -34.7396   63.0290   63.7243 C   0  0  0  0  0  0  0  0  0  0  0  0
  -34.7144   63.8200   65.0030 C   0  0  0  0  0  0  0  0  0  0  0  0
  -35.4388   63.0543   66.0953 C   0  0  0  0  0  0  0  0  0  0  0  0
  -37.2232   61.7427   62.0819 H   0  0  0  0  0  0  0  0  0  0  0  0
  -34.8199   65.5780   64.1124 H   0  0  0  0  0  0  0  0  0  0  0  0
  -36.4258   63.8978   68.1021 O   0  0  0  0  0  0  0  0  0  0  0  0
  -35.3081   64.0160   67.2742 C   0  0  0  0  0  0  0  0  0  0  0  0
  -36.3404   64.5096   68.8500 H   0  0  0  0  0  0  0  0  0  0  0  0
  -34.0622   63.8392   62.7371 O   0  0  0  0  0  0  0  0  0  0  0  0
  -31.8651   63.9860   61.3704 O   0  0  0  0  0  0  0  0  0  0  0  0
  -31.8211   63.0553   63.6111 O   0  0  0  0  0  0  0  0  0  0  0  0
  -32.0367   65.4478   63.2888 O   0  0  0  0  0  0  0  0  0  0  0  0
  -32.4198   64.1116   62.7507 S   0  0  0  0  0  0  0  0  0  0  0  0
  -32.1048   63.1209   61.0031 H   0  0  0  0  0  0  0  0  0  0  0  0
  -32.4230   66.1428   62.7334 H   0  0  0  0  0  0  0  0  0  0  0  0
  2  1  1  0  0  0
  2  4  1  0  0  0
  2  5  1  0  0  0
 41 42  1  0  0  0
 41  1  1  0  0  0
 42 46  1  0  0  0
  1 24  1  0  0  0
 23 24  1  0  0  0
 23 25  1  0  0  0
 24 26  1  0  0  0
  3  4  2  0  0  0
 26 27  2  0  0  0
 27 28  1  0  0  0
 43 47  1  0  0  0
 43 51  1  0  0  0
 28 29  1  0  0  0
 56 48  1  0  0  0
 56 60  1  0  0  0
 29 30  1  0  0  0
 57 60  1  0  0  0
 57 61  1  0  0  0
 30 31  1  0  0  0
 44 49  1  0  0  0
 44 52  1  0  0  0
 31 32  1  0  0  0
 45 46  1  0  0  0
 45 50  1  0  0  0
 32 33  1  0  0  0
 53 54  1  0  0  0
 53 55  1  0  0  0
 33 34  1  0  0  0
 34 35  1  0  0  0
 35 36  1  0  0  0
 58 60  1  0  0  0
 36 37  1  0  0  0
 59 60  1  0  0  0
 59 62  1  0  0  0
 37 38  1  0  0  0
 38 39  1  0  0  0
 39 40  1  0  0  0
  4  6  1  0  0  0
  6  7  1  0  0  0
  7  8  1  0  0  0
  8  9  1  0  0  0
  9 10  1  0  0  0
 10 11  1  0  0  0
 11 12  1  0  0  0
 12 13  1  0  0  0
 13 14  1  0  0  0
 14 15  1  0  0  0
 15 16  1  0  0  0
 16 17  1  0  0  0
 17 18  1  0  0  0
 18 19  1  0  0  0
 19 20  1  0  0  0
 20 21  1  0  0  0
 21 22  1  0  0  0
 46 47  1  0  0  0
 47 48  1  0  0  0
 48 49  1  0  0  0
 49 50  1  0  0  0
 50 54  1  0  0  0
M  CHG 1  58  -1
M  END
> <minimizedAffinity>
-9.64426

> <CNNscore>
0.2367119193

> <CNNaffinity>
7.0278863907

> <CNN_VS>
1.6635844707

> <CNNaffinity_variance>
0.9680384398

$$$$
/media/chris/experiments/cd1a-new-docking/inputs/ligands/1onq_ligand.pdb


 62 62  0  0  0  0  0  0  0  0999 V2000
  -40.2320   59.0721   65.1628 C   0  0  0  0  0  0  0  0  0  0  0  0
  -41.1217   58.5933   66.2022 N   0  0  0  0  0  0  0  0  0  0  0  0
  -43.1571   58.1551   67.1036 O   0  0  0  0  0  0  0  0  0  0  0  0
  -42.4612   58.5592   66.1924 C   0  0  0  0  0  0  0  0  0  0  0  0
  -40.6878   58.2506   67.0167 H   0  0  0  0  0  0  0  0  0  0  0  0
  -43.1031   59.0781   64.9401 C   0  0  0  0  0  0  0  0  0  0  0  0
  -44.5944   59.2211   65.2447 C   0  0  0  0  0  0  0  0  0  0  0  0
  -45.3775   58.1095   64.5502 C   0  0  0  0  0  0  0  0  0  0  0  0
  -46.8463   58.0224   64.8873 C   0  0  0  0  0  0  0  0  0  0  0  0
  -47.1843   59.2083   65.7848 C   0  0  0  0  0  0  0  0  0  0  0  0
  -48.6619   59.2372   66.1977 C   0  0  0  0  0  0  0  0  0  0  0  0
  -49.5045   58.0892   65.6123 C   0  0  0  0  0  0  0  0  0  0  0  0
  -50.6169   58.5849   64.6624 C   0  0  0  0  0  0  0  0  0  0  0  0
  -50.0840   58.7256   63.2336 C   0  0  0  0  0  0  0  0  0  0  0  0
  -51.0832   58.3813   62.1359 C   0  0  0  0  0  0  0  0  0  0  0  0
  -50.6047   57.2337   61.2588 C   0  0  0  0  0  0  0  0  0  0  0  0
  -50.0321   57.6252   59.8947 C   0  0  0  0  0  0  0  0  0  0  0  0
  -48.5336   57.8451   60.0531 C   0  0  0  0  0  0  0  0  0  0  0  0
  -47.5787   56.9229   59.3096 C   0  0  0  0  0  0  0  0  0  0  0  0
  -47.1584   57.5356   57.9641 C   0  0  0  0  0  0  0  0  0  0  0  0
  -47.2409   56.5686   56.7686 C   0  0  0  0  0  0  0  0  0  0  0  0
  -47.7227   55.1718   57.1537 C   0  0  0  0  0  0  0  0  0  0  0  0
  -38.2385   57.9168   65.4575 O   0  0  0  0  0  0  0  0  0  0  0  0
  -39.4729   57.8157   64.7721 C   0  0  0  0  0  0  0  0  0  0  0  0
  -38.4000   57.9321   66.4138 H   0  0  0  0  0  0  0  0  0  0  0  0
  -39.2885   57.7866   63.2530 C   0  0  0  0  0  0  0  0  0  0  0  0
  -38.0928   57.6140   62.6642 C   0  0  0  0  0  0  0  0  0  0  0  0
  -37.9912   57.5978   61.1400 C   0  0  0  0  0  0  0  0  0  0  0  0
  -38.3442   58.9382   60.4791 C   0  0  0  0  0  0  0  0  0  0  0  0
  -37.5897   59.2576   59.1753 C   0  0  0  0  0  0  0  0  0  0  0  0
  -37.6622   58.0643   58.1923 C   0  0  0  0  0  0  0  0  0  0  0  0
  -36.3359   57.2873   57.9959 C   0  0  0  0  0  0  0  0  0  0  0  0
  -36.4409   55.7715   58.2857 C   0  0  0  0  0  0  0  0  0  0  0  0
  -35.7456   55.3436   59.5963 C   0  0  0  0  0  0  0  0  0  0  0  0
  -34.3790   56.0039   59.8147 C   0  0  0  0  0  0  0  0  0  0  0  0
  -34.2966   57.0147   60.9565 C   0  0  0  0  0  0  0  0  0  0  0  0
  -33.0220   56.8878   61.8140 C   0  0  0  0  0  0  0  0  0  0  0  0
  -32.8447   57.9719   62.8879 C   0  0  0  0  0  0  0  0  0  0  0  0
  -34.1683   58.6888   63.1693 C   0  0  0  0  0  0  0  0  0  0  0  0
  -34.8638   58.3357   64.4721 C   0  0  0  0  0  0  0  0  0  0  0  0
  -39.3891   60.3149   65.5284 C   0  0  0  0  0  0  0  0  0  0  0  0
  -38.5242   60.8401   64.4895 O   0  0  0  0  0  0  0  0  0  0  0  0
  -36.4457   61.3104   62.5826 O   0  0  0  0  0  0  0  0  0  0  0  0
  -35.7684   64.6874   64.9354 O   0  0  0  0  0  0  0  0  0  0  0  0
  -37.1873   62.2225   65.9683 O   0  0  0  0  0  0  0  0  0  0  0  0
  -37.1790   61.3610   64.8041 C   0  0  0  0  0  0  0  0  0  0  0  0
  -36.4850   62.1573   63.6896 C   0  0  0  0  0  0  0  0  0  0  0  0
  -35.0381   62.5737   64.0333 C   0  0  0  0  0  0  0  0  0  0  0  0
  -35.1312   63.4518   65.2506 C   0  0  0  0  0  0  0  0  0  0  0  0
  -35.8788   62.7240   66.3531 C   0  0  0  0  0  0  0  0  0  0  0  0
  -37.3476   61.0380   62.3517 H   0  0  0  0  0  0  0  0  0  0  0  0
  -35.2752   65.1349   64.2301 H   0  0  0  0  0  0  0  0  0  0  0  0
  -34.5699   64.2441   67.6529 O   0  0  0  0  0  0  0  0  0  0  0  0
  -35.8697   63.7711   67.4646 C   0  0  0  0  0  0  0  0  0  0  0  0
  -34.5668   64.9089   68.3592 H   0  0  0  0  0  0  0  0  0  0  0  0
  -34.3461   63.3505   63.0295 O   0  0  0  0  0  0  0  0  0  0  0  0
  -31.8506   63.3539   63.7290 O   0  0  0  0  0  0  0  0  0  0  0  0
  -32.4628   64.0110   61.4746 O   0  0  0  0  0  0  0  0  0  0  0  0
  -32.5129   61.6753   62.1197 O   0  0  0  0  0  0  0  0  0  0  0  0
  -32.7666   63.0684   62.5852 S   0  0  0  0  0  0  0  0  0  0  0  0
  -32.0015   64.2581   64.0461 H   0  0  0  0  0  0  0  0  0  0  0  0
  -32.7085   61.0537   62.8381 H   0  0  0  0  0  0  0  0  0  0  0  0
  2  1  1  0  0  0
  2  4  1  0  0  0
  2  5  1  0  0  0
 41 42  1  0  0  0
 41  1  1  0  0  0
 42 46  1  0  0  0
  1 24  1  0  0  0
 23 24  1  0  0  0
 23 25  1  0  0  0
 24 26  1  0  0  0
  3  4  2  0  0  0
 26 27  2  0  0  0
 27 28  1  0  0  0
 43 47  1  0  0  0
 43 51  1  0  0  0
 28 29  1  0  0  0
 56 48  1  0  0  0
 56 60  1  0  0  0
 29 30  1  0  0  0
 57 60  1  0  0  0
 57 61  1  0  0  0
 30 31  1  0  0  0
 44 49  1  0  0  0
 44 52  1  0  0  0
 31 32  1  0  0  0
 45 46  1  0  0  0
 45 50  1  0  0  0
 32 33  1  0  0  0
 53 54  1  0  0  0
 53 55  1  0  0  0
 33 34  1  0  0  0
 34 35  1  0  0  0
 35 36  1  0  0  0
 58 60  1  0  0  0
 36 37  1  0  0  0
 59 60  1  0  0  0
 59 62  1  0  0  0
 37 38  1  0  0  0
 38 39  1  0  0  0
 39 40  1  0  0  0
  4  6  1  0  0  0
  6  7  1  0  0  0
  7  8  1  0  0  0
  8  9  1  0  0  0
  9 10  1  0  0  0
 10 11  1  0  0  0
 11 12  1  0  0  0
 12 13  1  0  0  0
 13 14  1  0  0  0
 14 15  1  0  0  0
 15 16  1  0  0  0
 16 17  1  0  0  0
 17 18  1  0  0  0
 18 19  1  0  0  0
 19 20  1  0  0  0
 20 21  1  0  0  0
 21 22  1  0  0  0
 46 47  1  0  0  0
 47 48  1  0  0  0
 48 49  1  0  0  0
 49 50  1  0  0  0
 50 54  1  0  0  0
M  CHG 1  58  -1
M  END
> <minimizedAffinity>
-10.19211

> <CNNscore>
0.2245870084

> <CNNaffinity>
7.0632834435

> <CNN_VS>
1.5863217115

> <CNNaffinity_variance>
1.2791585922

$$$$
