/media/chris/experiments/cd1a-new-docking/inputs/ligands/1onq_ligand.pdb


 62 62  0  0  0  0  0  0  0  0999 V2000
  -37.1220   58.9750   63.3740 C   0  0  0  0  0  0  0  0  0  0  0  0
  -36.3860   58.2237   62.3765 N   0  0  0  0  0  0  0  0  0  0  0  0
  -37.9404   56.7333   61.6624 O   0  0  0  0  0  0  0  0  0  0  0  0
  -36.8201   57.2036   61.6237 C   0  0  0  0  0  0  0  0  0  0  0  0
  -35.4509   58.4968   62.2345 H   0  0  0  0  0  0  0  0  0  0  0  0
  -35.8091   56.6396   60.6700 C   0  0  0  0  0  0  0  0  0  0  0  0
  -36.5268   56.4637   59.3317 C   0  0  0  0  0  0  0  0  0  0  0  0
  -36.5738   57.7953   58.5861 C   0  0  0  0  0  0  0  0  0  0  0  0
  -37.9495   58.3358   58.2795 C   0  0  0  0  0  0  0  0  0  0  0  0
  -38.2417   59.4474   59.2821 C   0  0  0  0  0  0  0  0  0  0  0  0
  -39.7315   59.8096   59.3482 C   0  0  0  0  0  0  0  0  0  0  0  0
  -40.5480   59.3525   58.1254 C   0  0  0  0  0  0  0  0  0  0  0  0
  -42.0727   59.4601   58.3474 C   0  0  0  0  0  0  0  0  0  0  0  0
  -42.8325   59.0590   57.0798 C   0  0  0  0  0  0  0  0  0  0  0  0
  -44.1425   58.3186   57.3199 C   0  0  0  0  0  0  0  0  0  0  0  0
  -44.3976   58.0613   58.7976 C   0  0  0  0  0  0  0  0  0  0  0  0
  -45.8174   57.6262   59.1679 C   0  0  0  0  0  0  0  0  0  0  0  0
  -46.7162   57.8583   57.9607 C   0  0  0  0  0  0  0  0  0  0  0  0
  -47.8362   56.8664   57.6838 C   0  0  0  0  0  0  0  0  0  0  0  0
  -48.6025   56.5285   58.9725 C   0  0  0  0  0  0  0  0  0  0  0  0
  -49.6589   57.5721   59.3796 C   0  0  0  0  0  0  0  0  0  0  0  0
  -50.5816   57.0930   60.4980 C   0  0  0  0  0  0  0  0  0  0  0  0
  -36.9235   60.9901   62.2356 O   0  0  0  0  0  0  0  0  0  0  0  0
  -37.8787   59.9887   62.5330 C   0  0  0  0  0  0  0  0  0  0  0  0
  -36.1959   60.6014   61.7253 H   0  0  0  0  0  0  0  0  0  0  0  0
  -39.0576   60.5378   63.3400 C   0  0  0  0  0  0  0  0  0  0  0  0
  -40.3214   60.1126   63.1713 C   0  0  0  0  0  0  0  0  0  0  0  0
  -41.4442   60.7115   64.0160 C   0  0  0  0  0  0  0  0  0  0  0  0
  -42.3606   59.6638   64.6649 C   0  0  0  0  0  0  0  0  0  0  0  0
  -41.6654   58.6597   65.6028 C   0  0  0  0  0  0  0  0  0  0  0  0
  -42.6728   58.0683   66.6181 C   0  0  0  0  0  0  0  0  0  0  0  0
  -43.4022   56.7821   66.1539 C   0  0  0  0  0  0  0  0  0  0  0  0
  -44.7688   57.0385   65.4761 C   0  0  0  0  0  0  0  0  0  0  0  0
  -45.9771   56.6733   66.3652 C   0  0  0  0  0  0  0  0  0  0  0  0
  -47.2630   57.4242   65.9987 C   0  0  0  0  0  0  0  0  0  0  0  0
  -47.3004   58.9076   66.3598 C   0  0  0  0  0  0  0  0  0  0  0  0
  -48.5322   59.6544   65.8114 C   0  0  0  0  0  0  0  0  0  0  0  0
  -49.8110   58.8111   65.6945 C   0  0  0  0  0  0  0  0  0  0  0  0
  -50.5522   59.1142   64.3893 C   0  0  0  0  0  0  0  0  0  0  0  0
  -49.6990   59.5679   63.2180 C   0  0  0  0  0  0  0  0  0  0  0  0
  -36.2802   59.5266   64.5471 C   0  0  0  0  0  0  0  0  0  0  0  0
  -36.3628   60.9541   64.7892 O   0  0  0  0  0  0  0  0  0  0  0  0
  -33.8805   61.0970   63.3768 O   0  0  0  0  0  0  0  0  0  0  0  0
  -34.0384   65.0941   64.5588 O   0  0  0  0  0  0  0  0  0  0  0  0
  -35.5449   62.8958   65.9918 O   0  0  0  0  0  0  0  0  0  0  0  0
  -35.1803   61.7275   65.2176 C   0  0  0  0  0  0  0  0  0  0  0  0
  -34.2590   62.2296   64.0964 C   0  0  0  0  0  0  0  0  0  0  0  0
  -32.9806   62.9276   64.6100 C   0  0  0  0  0  0  0  0  0  0  0  0
  -33.4420   64.1162   65.4074 C   0  0  0  0  0  0  0  0  0  0  0  0
  -34.4154   63.6673   66.4821 C   0  0  0  0  0  0  0  0  0  0  0  0
  -34.6722   60.6447   63.0458 H   0  0  0  0  0  0  0  0  0  0  0  0
  -33.4003   65.3663   63.8808 H   0  0  0  0  0  0  0  0  0  0  0  0
  -33.9672   65.1692   68.2868 O   0  0  0  0  0  0  0  0  0  0  0  0
  -34.7595   64.9966   67.1505 C   0  0  0  0  0  0  0  0  0  0  0  0
  -34.1877   66.0140   68.7095 H   0  0  0  0  0  0  0  0  0  0  0  0
  -32.0896   63.4453   63.5960 O   0  0  0  0  0  0  0  0  0  0  0  0
  -32.0469   62.3968   61.2262 O   0  0  0  0  0  0  0  0  0  0  0  0
  -31.8235   64.8003   61.4761 O   0  0  0  0  0  0  0  0  0  0  0  0
  -33.9823   63.7392   61.7724 O   0  0  0  0  0  0  0  0  0  0  0  0
  -32.5160   63.5888   61.9930 S   0  0  0  0  0  0  0  0  0  0  0  0
  -31.0927   62.2827   61.3580 H   0  0  0  0  0  0  0  0  0  0  0  0
  -34.4420   62.9531   62.1067 H   0  0  0  0  0  0  0  0  0  0  0  0
  2  1  1  0  0  0
  2  4  1  0  0  0
  2  5  1  0  0  0
 41 42  1  0  0  0
 41  1  1  0  0  0
 42 46  1  0  0  0
  1 24  1  0  0  0
 23 24  1  0  0  0
 23 25  1  0  0  0
 24 26  1  0  0  0
  3  4  2  0  0  0
 26 27  2  0  0  0
 27 28  1  0  0  0
 43 47  1  0  0  0
 43 51  1  0  0  0
 28 29  1  0  0  0
 56 48  1  0  0  0
 56 60  1  0  0  0
 29 30  1  0  0  0
 57 60  1  0  0  0
 57 61  1  0  0  0
 30 31  1  0  0  0
 44 49  1  0  0  0
 44 52  1  0  0  0
 31 32  1  0  0  0
 45 46  1  0  0  0
 45 50  1  0  0  0
 32 33  1  0  0  0
 53 54  1  0  0  0
 53 55  1  0  0  0
 33 34  1  0  0  0
 34 35  1  0  0  0
 35 36  1  0  0  0
 58 60  1  0  0  0
 36 37  1  0  0  0
 59 60  1  0  0  0
 59 62  1  0  0  0
 37 38  1  0  0  0
 38 39  1  0  0  0
 39 40  1  0  0  0
  4  6  1  0  0  0
  6  7  1  0  0  0
  7  8  1  0  0  0
  8  9  1  0  0  0
  9 10  1  0  0  0
 10 11  1  0  0  0
 11 12  1  0  0  0
 12 13  1  0  0  0
 13 14  1  0  0  0
 14 15  1  0  0  0
 15 16  1  0  0  0
 16 17  1  0  0  0
 17 18  1  0  0  0
 18 19  1  0  0  0
 19 20  1  0  0  0
 20 21  1  0  0  0
 21 22  1  0  0  0
 46 47  1  0  0  0
 47 48  1  0  0  0
 48 49  1  0  0  0
 49 50  1  0  0  0
 50 54  1  0  0  0
M  CHG 1  58  -1
M  END
> <minimizedAffinity>
-8.52598

> <CNNscore>
0.4782695770

> <CNNaffinity>
7.1899056435

> <CNN_VS>
3.4387130737

> <CNNaffinity_variance>
0.5212121606

$$$$
/media/chris/experiments/cd1a-new-docking/inputs/ligands/1onq_ligand.pdb


 62 62  0  0  0  0  0  0  0  0999 V2000
  -39.5248   58.6789   63.7762 C   0  0  0  0  0  0  0  0  0  0  0  0
  -40.4360   58.5532   64.8964 N   0  0  0  0  0  0  0  0  0  0  0  0
  -42.2046   59.7986   64.2119 O   0  0  0  0  0  0  0  0  0  0  0  0
  -41.6545   59.0933   65.0352 C   0  0  0  0  0  0  0  0  0  0  0  0
  -40.1204   58.0024   65.6490 H   0  0  0  0  0  0  0  0  0  0  0  0
  -42.3550   58.7650   66.3202 C   0  0  0  0  0  0  0  0  0  0  0  0
  -43.0806   57.4390   66.0916 C   0  0  0  0  0  0  0  0  0  0  0  0
  -44.5895   57.6441   66.2037 C   0  0  0  0  0  0  0  0  0  0  0  0
  -45.1079   58.9981   65.7838 C   0  0  0  0  0  0  0  0  0  0  0  0
  -46.5647   59.0910   66.2256 C   0  0  0  0  0  0  0  0  0  0  0  0
  -47.5323   58.4624   65.2139 C   0  0  0  0  0  0  0  0  0  0  0  0
  -48.6732   57.6487   65.8517 C   0  0  0  0  0  0  0  0  0  0  0  0
  -50.0737   58.1546   65.4412 C   0  0  0  0  0  0  0  0  0  0  0  0
  -49.9907   58.9977   64.1656 C   0  0  0  0  0  0  0  0  0  0  0  0
  -50.8698   58.5182   63.0170 C   0  0  0  0  0  0  0  0  0  0  0  0
  -50.0753   57.7746   61.9536 C   0  0  0  0  0  0  0  0  0  0  0  0
  -50.8656   57.3083   60.7288 C   0  0  0  0  0  0  0  0  0  0  0  0
  -49.9547   57.3992   59.5119 C   0  0  0  0  0  0  0  0  0  0  0  0
  -48.4761   57.6859   59.7274 C   0  0  0  0  0  0  0  0  0  0  0  0
  -47.6759   57.4469   58.4373 C   0  0  0  0  0  0  0  0  0  0  0  0
  -48.3315   56.4614   57.4525 C   0  0  0  0  0  0  0  0  0  0  0  0
  -47.4383   55.2734   57.1022 C   0  0  0  0  0  0  0  0  0  0  0  0
  -38.1932   58.0075   65.5572 O   0  0  0  0  0  0  0  0  0  0  0  0
  -38.3808   57.7628   64.1756 C   0  0  0  0  0  0  0  0  0  0  0  0
  -39.0010   57.7719   66.0398 H   0  0  0  0  0  0  0  0  0  0  0  0
  -37.1386   58.1150   63.3537 C   0  0  0  0  0  0  0  0  0  0  0  0
  -35.9356   58.3444   63.9073 C   0  0  0  0  0  0  0  0  0  0  0  0
  -34.7433   58.6917   63.0179 C   0  0  0  0  0  0  0  0  0  0  0  0
  -33.4322   58.0149   63.4438 C   0  0  0  0  0  0  0  0  0  0  0  0
  -32.4401   57.7090   62.3066 C   0  0  0  0  0  0  0  0  0  0  0  0
  -32.7505   56.3371   61.6609 C   0  0  0  0  0  0  0  0  0  0  0  0
  -34.0743   56.2680   60.8580 C   0  0  0  0  0  0  0  0  0  0  0  0
  -33.9288   55.6460   59.4492 C   0  0  0  0  0  0  0  0  0  0  0  0
  -33.9495   56.6872   58.3093 C   0  0  0  0  0  0  0  0  0  0  0  0
  -35.3609   57.1063   57.8811 C   0  0  0  0  0  0  0  0  0  0  0  0
  -36.5145   56.4507   58.6372 C   0  0  0  0  0  0  0  0  0  0  0  0
  -37.3081   57.4222   59.5330 C   0  0  0  0  0  0  0  0  0  0  0  0
  -37.7668   58.7184   58.8478 C   0  0  0  0  0  0  0  0  0  0  0  0
  -38.3119   59.7184   59.8715 C   0  0  0  0  0  0  0  0  0  0  0  0
  -39.7769   60.0935   59.7350 C   0  0  0  0  0  0  0  0  0  0  0  0
  -39.1569   60.1259   63.3764 C   0  0  0  0  0  0  0  0  0  0  0  0
  -38.8013   61.0262   64.4564 O   0  0  0  0  0  0  0  0  0  0  0  0
  -36.8148   61.3995   62.4336 O   0  0  0  0  0  0  0  0  0  0  0  0
  -35.6865   64.5933   64.8678 O   0  0  0  0  0  0  0  0  0  0  0  0
  -37.2534   62.2174   65.8952 O   0  0  0  0  0  0  0  0  0  0  0  0
  -37.3973   61.4126   64.6998 C   0  0  0  0  0  0  0  0  0  0  0  0
  -36.7068   62.1951   63.5735 C   0  0  0  0  0  0  0  0  0  0  0  0
  -35.2092   62.4672   63.8349 C   0  0  0  0  0  0  0  0  0  0  0  0
  -35.1447   63.2935   65.0897 C   0  0  0  0  0  0  0  0  0  0  0  0
  -35.8831   62.5843   66.2104 C   0  0  0  0  0  0  0  0  0  0  0  0
  -37.7505   61.2179   62.2535 H   0  0  0  0  0  0  0  0  0  0  0  0
  -35.2009   65.0277   64.1492 H   0  0  0  0  0  0  0  0  0  0  0  0
  -34.3612   63.9183   67.4822 O   0  0  0  0  0  0  0  0  0  0  0  0
  -35.7087   63.5747   67.3595 C   0  0  0  0  0  0  0  0  0  0  0  0
  -34.2530   64.5473   68.2126 H   0  0  0  0  0  0  0  0  0  0  0  0
  -34.5153   63.2255   62.8183 O   0  0  0  0  0  0  0  0  0  0  0  0
  -32.5259   63.8050   61.2615 O   0  0  0  0  0  0  0  0  0  0  0  0
  -32.6659   61.5943   62.2526 O   0  0  0  0  0  0  0  0  0  0  0  0
  -32.0039   63.4957   63.6020 O   0  0  0  0  0  0  0  0  0  0  0  0
  -32.8924   63.0452   62.4933 S   0  0  0  0  0  0  0  0  0  0  0  0
  -33.0949   63.5247   60.5276 H   0  0  0  0  0  0  0  0  0  0  0  0
  -32.1450   64.4413   63.7657 H   0  0  0  0  0  0  0  0  0  0  0  0
  2  1  1  0  0  0
  2  4  1  0  0  0
  2  5  1  0  0  0
 41 42  1  0  0  0
 41  1  1  0  0  0
 42 46  1  0  0  0
  1 24  1  0  0  0
 23 24  1  0  0  0
 23 25  1  0  0  0
 24 26  1  0  0  0
  3  4  2  0  0  0
 26 27  2  0  0  0
 27 28  1  0  0  0
 43 47  1  0  0  0
 43 51  1  0  0  0
 28 29  1  0  0  0
 56 48  1  0  0  0
 56 60  1  0  0  0
 29 30  1  0  0  0
 57 60  1  0  0  0
 57 61  1  0  0  0
 30 31  1  0  0  0
 44 49  1  0  0  0
 44 52  1  0  0  0
 31 32  1  0  0  0
 45 46  1  0  0  0
 45 50  1  0  0  0
 32 33  1  0  0  0
 53 54  1  0  0  0
 53 55  1  0  0  0
 33 34  1  0  0  0
 34 35  1  0  0  0
 35 36  1  0  0  0
 58 60  1  0  0  0
 36 37  1  0  0  0
 59 60  1  0  0  0
 59 62  1  0  0  0
 37 38  1  0  0  0
 38 39  1  0  0  0
 39 40  1  0  0  0
  4  6  1  0  0  0
  6  7  1  0  0  0
  7  8  1  0  0  0
  8  9  1  0  0  0
  9 10  1  0  0  0
 10 11  1  0  0  0
 11 12  1  0  0  0
 12 13  1  0  0  0
 13 14  1  0  0  0
 14 15  1  0  0  0
 15 16  1  0  0  0
 16 17  1  0  0  0
 17 18  1  0  0  0
 18 19  1  0  0  0
 19 20  1  0  0  0
 20 21  1  0  0  0
 21 22  1  0  0  0
 46 47  1  0  0  0
 47 48  1  0  0  0
 48 49  1  0  0  0
 49 50  1  0  0  0
 50 54  1  0  0  0
M  CHG 1  58  -1
M  END
> <minimizedAffinity>
-10.17466

> <CNNscore>
0.4506101012

> <CNNaffinity>
7.4326524734

> <CNN_VS>
3.3492283821

> <CNNaffinity_variance>
0.9674739838

$$$$
/media/chris/experiments/cd1a-new-docking/inputs/ligands/1onq_ligand.pdb


 62 62  0  0  0  0  0  0  0  0999 V2000
  -40.1123   59.1537   65.1858 C   0  0  0  0  0  0  0  0  0  0  0  0
  -39.7105   58.3968   64.0167 N   0  0  0  0  0  0  0  0  0  0  0  0
  -37.7759   57.4382   64.7136 O   0  0  0  0  0  0  0  0  0  0  0  0
  -38.6241   57.6274   63.8636 C   0  0  0  0  0  0  0  0  0  0  0  0
  -40.3105   58.4552   63.2383 H   0  0  0  0  0  0  0  0  0  0  0  0
  -38.4959   56.9645   62.5243 C   0  0  0  0  0  0  0  0  0  0  0  0
  -37.0786   57.2554   62.0307 C   0  0  0  0  0  0  0  0  0  0  0  0
  -37.0575   58.5663   61.2482 C   0  0  0  0  0  0  0  0  0  0  0  0
  -38.3894   59.0495   60.7275 C   0  0  0  0  0  0  0  0  0  0  0  0
  -38.2240   59.3413   59.2397 C   0  0  0  0  0  0  0  0  0  0  0  0
  -37.7657   58.1131   58.4420 C   0  0  0  0  0  0  0  0  0  0  0  0
  -36.3630   58.2494   57.8218 C   0  0  0  0  0  0  0  0  0  0  0  0
  -35.5734   56.9219   57.8253 C   0  0  0  0  0  0  0  0  0  0  0  0
  -36.3373   55.8413   58.5959 C   0  0  0  0  0  0  0  0  0  0  0  0
  -35.5287   55.1191   59.6666 C   0  0  0  0  0  0  0  0  0  0  0  0
  -34.1169   55.6717   59.7947 C   0  0  0  0  0  0  0  0  0  0  0  0
  -33.6827   56.0838   61.2031 C   0  0  0  0  0  0  0  0  0  0  0  0
  -33.4247   57.5846   61.2015 C   0  0  0  0  0  0  0  0  0  0  0  0
  -32.5521   58.1759   62.2987 C   0  0  0  0  0  0  0  0  0  0  0  0
  -33.2077   59.4244   62.9098 C   0  0  0  0  0  0  0  0  0  0  0  0
  -34.4587   59.1373   63.7604 C   0  0  0  0  0  0  0  0  0  0  0  0
  -34.2627   57.9973   64.7572 C   0  0  0  0  0  0  0  0  0  0  0  0
  -41.4818   61.0272   65.2872 O   0  0  0  0  0  0  0  0  0  0  0  0
  -41.4644   59.7088   64.7721 C   0  0  0  0  0  0  0  0  0  0  0  0
  -40.7657   61.5417   64.8830 H   0  0  0  0  0  0  0  0  0  0  0  0
  -42.5736   58.8409   65.3712 C   0  0  0  0  0  0  0  0  0  0  0  0
  -43.8807   59.0906   65.1826 C   0  0  0  0  0  0  0  0  0  0  0  0
  -44.9283   58.1768   65.8158 C   0  0  0  0  0  0  0  0  0  0  0  0
  -45.9532   58.9169   66.6877 C   0  0  0  0  0  0  0  0  0  0  0  0
  -47.1494   59.5291   65.9358 C   0  0  0  0  0  0  0  0  0  0  0  0
  -47.8149   58.4787   65.0143 C   0  0  0  0  0  0  0  0  0  0  0  0
  -49.1670   57.9158   65.5210 C   0  0  0  0  0  0  0  0  0  0  0  0
  -50.3871   58.8092   65.1952 C   0  0  0  0  0  0  0  0  0  0  0  0
  -50.2188   59.6366   63.9025 C   0  0  0  0  0  0  0  0  0  0  0  0
  -51.1346   59.1871   62.7577 C   0  0  0  0  0  0  0  0  0  0  0  0
  -50.8378   57.8132   62.1605 C   0  0  0  0  0  0  0  0  0  0  0  0
  -50.3185   57.8603   60.7099 C   0  0  0  0  0  0  0  0  0  0  0  0
  -48.8614   57.4116   60.5212 C   0  0  0  0  0  0  0  0  0  0  0  0
  -48.5095   57.2970   59.0352 C   0  0  0  0  0  0  0  0  0  0  0  0
  -47.1165   57.7494   58.6343 C   0  0  0  0  0  0  0  0  0  0  0  0
  -39.0708   60.1663   65.7136 C   0  0  0  0  0  0  0  0  0  0  0  0
  -38.4760   61.0547   64.7335 O   0  0  0  0  0  0  0  0  0  0  0  0
  -36.6196   61.5851   62.6241 O   0  0  0  0  0  0  0  0  0  0  0  0
  -35.7293   64.9279   64.9548 O   0  0  0  0  0  0  0  0  0  0  0  0
  -37.0027   62.4272   66.0865 O   0  0  0  0  0  0  0  0  0  0  0  0
  -37.1104   61.5868   64.9120 C   0  0  0  0  0  0  0  0  0  0  0  0
  -36.5488   62.4116   63.7449 C   0  0  0  0  0  0  0  0  0  0  0  0
  -35.0778   62.8400   63.9393 C   0  0  0  0  0  0  0  0  0  0  0  0
  -35.0489   63.6950   65.1761 C   0  0  0  0  0  0  0  0  0  0  0  0
  -35.6659   62.9382   66.3384 C   0  0  0  0  0  0  0  0  0  0  0  0
  -37.5381   61.3056   62.4861 H   0  0  0  0  0  0  0  0  0  0  0  0
  -35.3196   65.3942   64.2094 H   0  0  0  0  0  0  0  0  0  0  0  0
  -34.2433   64.4573   67.5138 O   0  0  0  0  0  0  0  0  0  0  0  0
  -35.5487   63.9654   67.4623 C   0  0  0  0  0  0  0  0  0  0  0  0
  -34.1714   65.1094   68.2284 H   0  0  0  0  0  0  0  0  0  0  0  0
  -34.5059   63.6433   62.8822 O   0  0  0  0  0  0  0  0  0  0  0  0
  -32.4019   63.9236   61.3948 O   0  0  0  0  0  0  0  0  0  0  0  0
  -32.1710   63.0303   63.6394 O   0  0  0  0  0  0  0  0  0  0  0  0
  -32.5719   65.3970   63.3043 O   0  0  0  0  0  0  0  0  0  0  0  0
  -32.8884   64.0298   62.8023 S   0  0  0  0  0  0  0  0  0  0  0  0
  -32.5997   63.0386   61.0504 H   0  0  0  0  0  0  0  0  0  0  0  0
  -33.0358   66.0555   62.7638 H   0  0  0  0  0  0  0  0  0  0  0  0
  2  1  1  0  0  0
  2  4  1  0  0  0
  2  5  1  0  0  0
 41 42  1  0  0  0
 41  1  1  0  0  0
 42 46  1  0  0  0
  1 24  1  0  0  0
 23 24  1  0  0  0
 23 25  1  0  0  0
 24 26  1  0  0  0
  3  4  2  0  0  0
 26 27  2  0  0  0
 27 28  1  0  0  0
 43 47  1  0  0  0
 43 51  1  0  0  0
 28 29  1  0  0  0
 56 48  1  0  0  0
 56 60  1  0  0  0
 29 30  1  0  0  0
 57 60  1  0  0  0
 57 61  1  0  0  0
 30 31  1  0  0  0
 44 49  1  0  0  0
 44 52  1  0  0  0
 31 32  1  0  0  0
 45 46  1  0  0  0
 45 50  1  0  0  0
 32 33  1  0  0  0
 53 54  1  0  0  0
 53 55  1  0  0  0
 33 34  1  0  0  0
 34 35  1  0  0  0
 35 36  1  0  0  0
 58 60  1  0  0  0
 36 37  1  0  0  0
 59 60  1  0  0  0
 59 62  1  0  0  0
 37 38  1  0  0  0
 38 39  1  0  0  0
 39 40  1  0  0  0
  4  6  1  0  0  0
  6  7  1  0  0  0
  7  8  1  0  0  0
  8  9  1  0  0  0
  9 10  1  0  0  0
 10 11  1  0  0  0
 11 12  1  0  0  0
 12 13  1  0  0  0
 13 14  1  0  0  0
 14 15  1  0  0  0
 15 16  1  0  0  0
 16 17  1  0  0  0
 17 18  1  0  0  0
 18 19  1  0  0  0
 19 20  1  0  0  0
 20 21  1  0  0  0
 21 22  1  0  0  0
 46 47  1  0  0  0
 47 48  1  0  0  0
 48 49  1  0  0  0
 49 50  1  0  0  0
 50 54  1  0  0  0
M  CHG 1  58  -1
M  END
> <minimizedAffinity>
-9.53564

> <CNNscore>
0.2920058370

> <CNNaffinity>
7.1722612381

> <CNN_VS>
2.0943422318

> <CNNaffinity_variance>
1.3238132000

$$$$
/media/chris/experiments/cd1a-new-docking/inputs/ligands/1onq_ligand.pdb


 62 62  0  0  0  0  0  0  0  0999 V2000
  -38.6627   59.6360   60.4652 C   0  0  0  0  0  0  0  0  0  0  0  0
  -38.2335   58.8965   59.2946 N   0  0  0  0  0  0  0  0  0  0  0  0
  -37.1148   57.1524   60.2187 O   0  0  0  0  0  0  0  0  0  0  0  0
  -37.5237   57.7608   59.2490 C   0  0  0  0  0  0  0  0  0  0  0  0
  -38.4962   59.2758   58.4249 H   0  0  0  0  0  0  0  0  0  0  0  0
  -37.2462   57.2373   57.8711 C   0  0  0  0  0  0  0  0  0  0  0  0
  -36.0568   56.2856   58.0005 C   0  0  0  0  0  0  0  0  0  0  0  0
  -34.7510   57.0540   57.8114 C   0  0  0  0  0  0  0  0  0  0  0  0
  -33.5410   56.4891   58.5150 C   0  0  0  0  0  0  0  0  0  0  0  0
  -34.0399   55.6359   59.6766 C   0  0  0  0  0  0  0  0  0  0  0  0
  -33.4850   56.0959   61.0313 C   0  0  0  0  0  0  0  0  0  0  0  0
  -33.7048   57.5902   61.3301 C   0  0  0  0  0  0  0  0  0  0  0  0
  -33.2399   57.9940   62.7466 C   0  0  0  0  0  0  0  0  0  0  0  0
  -34.2199   58.9901   63.3730 C   0  0  0  0  0  0  0  0  0  0  0  0
  -35.1134   58.4156   64.4656 C   0  0  0  0  0  0  0  0  0  0  0  0
  -36.2805   57.6211   63.8984 C   0  0  0  0  0  0  0  0  0  0  0  0
  -37.5917   57.7013   64.6836 C   0  0  0  0  0  0  0  0  0  0  0  0
  -38.7413   57.7502   63.6862 C   0  0  0  0  0  0  0  0  0  0  0  0
  -39.8838   58.7232   63.9371 C   0  0  0  0  0  0  0  0  0  0  0  0
  -40.2547   58.7630   65.4280 C   0  0  0  0  0  0  0  0  0  0  0  0
  -41.6107   58.1167   65.7662 C   0  0  0  0  0  0  0  0  0  0  0  0
  -42.6284   59.1069   66.3280 C   0  0  0  0  0  0  0  0  0  0  0  0
  -40.7873   60.3890   61.0264 O   0  0  0  0  0  0  0  0  0  0  0  0
  -39.8690   60.4014   59.9492 C   0  0  0  0  0  0  0  0  0  0  0  0
  -40.3972   60.8443   61.7890 H   0  0  0  0  0  0  0  0  0  0  0  0
  -40.4247   59.6962   58.7097 C   0  0  0  0  0  0  0  0  0  0  0  0
  -41.7397   59.6041   58.4478 C   0  0  0  0  0  0  0  0  0  0  0  0
  -42.2154   58.8823   57.1885 C   0  0  0  0  0  0  0  0  0  0  0  0
  -43.7387   58.7034   57.1125 C   0  0  0  0  0  0  0  0  0  0  0  0
  -44.4133   58.1813   58.3944 C   0  0  0  0  0  0  0  0  0  0  0  0
  -45.9184   57.9136   58.1532 C   0  0  0  0  0  0  0  0  0  0  0  0
  -46.6973   57.3654   59.3757 C   0  0  0  0  0  0  0  0  0  0  0  0
  -47.6993   56.2374   59.0345 C   0  0  0  0  0  0  0  0  0  0  0  0
  -49.1104   56.7523   58.6770 C   0  0  0  0  0  0  0  0  0  0  0  0
  -49.6788   57.7515   59.6919 C   0  0  0  0  0  0  0  0  0  0  0  0
  -50.6521   57.1820   60.7219 C   0  0  0  0  0  0  0  0  0  0  0  0
  -50.9355   58.1282   61.9053 C   0  0  0  0  0  0  0  0  0  0  0  0
  -50.0556   59.3862   61.9633 C   0  0  0  0  0  0  0  0  0  0  0  0
  -49.9209   59.8971   63.4006 C   0  0  0  0  0  0  0  0  0  0  0  0
  -51.1772   59.8555   64.2525 C   0  0  0  0  0  0  0  0  0  0  0  0
  -37.5621   60.4577   61.1739 C   0  0  0  0  0  0  0  0  0  0  0  0
  -37.9469   61.1393   62.3949 O   0  0  0  0  0  0  0  0  0  0  0  0
  -35.9993   63.2026   62.0389 O   0  0  0  0  0  0  0  0  0  0  0  0
  -36.9049   64.0232   66.0270 O   0  0  0  0  0  0  0  0  0  0  0  0
  -37.3998   61.3246   64.7511 O   0  0  0  0  0  0  0  0  0  0  0  0
  -36.9396   61.5441   63.3955 C   0  0  0  0  0  0  0  0  0  0  0  0
  -36.4763   63.0068   63.3343 C   0  0  0  0  0  0  0  0  0  0  0  0
  -35.3393   63.3394   64.3252 C   0  0  0  0  0  0  0  0  0  0  0  0
  -35.8897   63.0775   65.7000 C   0  0  0  0  0  0  0  0  0  0  0  0
  -36.4267   61.6598   65.7769 C   0  0  0  0  0  0  0  0  0  0  0  0
  -36.7014   62.9981   61.4015 H   0  0  0  0  0  0  0  0  0  0  0  0
  -36.5409   64.9206   65.9717 H   0  0  0  0  0  0  0  0  0  0  0  0
  -36.1169   62.3932   68.0306 O   0  0  0  0  0  0  0  0  0  0  0  0
  -36.9349   61.6083   67.2160 C   0  0  0  0  0  0  0  0  0  0  0  0
  -36.4417   62.3588   68.9441 H   0  0  0  0  0  0  0  0  0  0  0  0
  -34.8828   64.7110   64.3297 O   0  0  0  0  0  0  0  0  0  0  0  0
  -33.0223   66.5127   64.2298 O   0  0  0  0  0  0  0  0  0  0  0  0
  -32.4184   64.1632   64.1623 O   0  0  0  0  0  0  0  0  0  0  0  0
  -33.1219   65.1819   66.2460 O   0  0  0  0  0  0  0  0  0  0  0  0
  -33.3413   65.1587   64.7719 S   0  0  0  0  0  0  0  0  0  0  0  0
  -33.1596   66.5170   63.2696 H   0  0  0  0  0  0  0  0  0  0  0  0
  -33.7200   65.8288   66.6519 H   0  0  0  0  0  0  0  0  0  0  0  0
  2  1  1  0  0  0
  2  4  1  0  0  0
  2  5  1  0  0  0
 41 42  1  0  0  0
 41  1  1  0  0  0
 42 46  1  0  0  0
  1 24  1  0  0  0
 23 24  1  0  0  0
 23 25  1  0  0  0
 24 26  1  0  0  0
  3  4  2  0  0  0
 26 27  2  0  0  0
 27 28  1  0  0  0
 43 47  1  0  0  0
 43 51  1  0  0  0
 28 29  1  0  0  0
 56 48  1  0  0  0
 56 60  1  0  0  0
 29 30  1  0  0  0
 57 60  1  0  0  0
 57 61  1  0  0  0
 30 31  1  0  0  0
 44 49  1  0  0  0
 44 52  1  0  0  0
 31 32  1  0  0  0
 45 46  1  0  0  0
 45 50  1  0  0  0
 32 33  1  0  0  0
 53 54  1  0  0  0
 53 55  1  0  0  0
 33 34  1  0  0  0
 34 35  1  0  0  0
 35 36  1  0  0  0
 58 60  1  0  0  0
 36 37  1  0  0  0
 59 60  1  0  0  0
 59 62  1  0  0  0
 37 38  1  0  0  0
 38 39  1  0  0  0
 39 40  1  0  0  0
  4  6  1  0  0  0
  6  7  1  0  0  0
  7  8  1  0  0  0
  8  9  1  0  0  0
  9 10  1  0  0  0
 10 11  1  0  0  0
 11 12  1  0  0  0
 12 13  1  0  0  0
 13 14  1  0  0  0
 14 15  1  0  0  0
 15 16  1  0  0  0
 16 17  1  0  0  0
 17 18  1  0  0  0
 18 19  1  0  0  0
 19 20  1  0  0  0
 20 21  1  0  0  0
 21 22  1  0  0  0
 46 47  1  0  0  0
 47 48  1  0  0  0
 48 49  1  0  0  0
 49 50  1  0  0  0
 50 54  1  0  0  0
M  CHG 1  58  -1
M  END
> <minimizedAffinity>
-9.13605

> <CNNscore>
0.2721604407

> <CNNaffinity>
6.8688683510

> <CNN_VS>
1.8694342375

> <CNNaffinity_variance>
1.0739902258

$$$$
/media/chris/experiments/cd1a-new-docking/inputs/ligands/1onq_ligand.pdb


 62 62  0  0  0  0  0  0  0  0999 V2000
  -39.8973   58.6699   64.2603 C   0  0  0  0  0  0  0  0  0  0  0  0
  -40.8311   58.4774   65.3521 N   0  0  0  0  0  0  0  0  0  0  0  0
  -42.6607   59.5986   64.6153 O   0  0  0  0  0  0  0  0  0  0  0  0
  -42.0880   58.9308   65.4542 C   0  0  0  0  0  0  0  0  0  0  0  0
  -40.5009   57.9475   66.1134 H   0  0  0  0  0  0  0  0  0  0  0  0
  -42.8025   58.5503   66.7169 C   0  0  0  0  0  0  0  0  0  0  0  0
  -43.3727   57.1506   66.4872 C   0  0  0  0  0  0  0  0  0  0  0  0
  -44.8501   57.2441   66.1137 C   0  0  0  0  0  0  0  0  0  0  0  0
  -45.5521   58.5237   66.4988 C   0  0  0  0  0  0  0  0  0  0  0  0
  -46.9329   58.1504   67.0281 C   0  0  0  0  0  0  0  0  0  0  0  0
  -47.6128   57.0577   66.1923 C   0  0  0  0  0  0  0  0  0  0  0  0
  -48.5170   57.5932   65.0670 C   0  0  0  0  0  0  0  0  0  0  0  0
  -49.7790   58.3070   65.5993 C   0  0  0  0  0  0  0  0  0  0  0  0
  -50.2348   59.3964   64.6243 C   0  0  0  0  0  0  0  0  0  0  0  0
  -49.3729   59.5473   63.3768 C   0  0  0  0  0  0  0  0  0  0  0  0
  -50.1408   59.2282   62.1026 C   0  0  0  0  0  0  0  0  0  0  0  0
  -51.0261   57.9806   62.1471 C   0  0  0  0  0  0  0  0  0  0  0  0
  -51.0092   57.3358   60.7677 C   0  0  0  0  0  0  0  0  0  0  0  0
  -49.7632   56.5793   60.3314 C   0  0  0  0  0  0  0  0  0  0  0  0
  -49.1985   57.1573   59.0241 C   0  0  0  0  0  0  0  0  0  0  0  0
  -47.7207   57.5829   59.1000 C   0  0  0  0  0  0  0  0  0  0  0  0
  -46.8928   57.1059   57.9088 C   0  0  0  0  0  0  0  0  0  0  0  0
  -38.1578   57.9409   65.6163 O   0  0  0  0  0  0  0  0  0  0  0  0
  -38.8988   57.5458   64.4768 C   0  0  0  0  0  0  0  0  0  0  0  0
  -38.7531   58.0175   66.3784 H   0  0  0  0  0  0  0  0  0  0  0  0
  -38.0156   57.4060   63.2346 C   0  0  0  0  0  0  0  0  0  0  0  0
  -38.5119   57.1923   62.0040 C   0  0  0  0  0  0  0  0  0  0  0  0
  -37.5634   57.0630   60.8137 C   0  0  0  0  0  0  0  0  0  0  0  0
  -37.2038   58.4038   60.1570 C   0  0  0  0  0  0  0  0  0  0  0  0
  -37.6625   58.5752   58.6971 C   0  0  0  0  0  0  0  0  0  0  0  0
  -36.5100   58.2480   57.7172 C   0  0  0  0  0  0  0  0  0  0  0  0
  -35.7902   56.8989   57.9690 C   0  0  0  0  0  0  0  0  0  0  0  0
  -34.2542   56.9584   57.7955 C   0  0  0  0  0  0  0  0  0  0  0  0
  -33.4799   56.1743   58.8770 C   0  0  0  0  0  0  0  0  0  0  0  0
  -34.3617   55.6733   60.0271 C   0  0  0  0  0  0  0  0  0  0  0  0
  -34.2220   56.4173   61.3534 C   0  0  0  0  0  0  0  0  0  0  0  0
  -32.7708   56.5226   61.8623 C   0  0  0  0  0  0  0  0  0  0  0  0
  -32.4601   57.7712   62.7015 C   0  0  0  0  0  0  0  0  0  0  0  0
  -32.1961   58.9845   61.8052 C   0  0  0  0  0  0  0  0  0  0  0  0
  -30.9294   59.7717   62.0903 C   0  0  0  0  0  0  0  0  0  0  0  0
  -39.3244   60.0983   64.1183 C   0  0  0  0  0  0  0  0  0  0  0  0
  -38.7641   60.6940   65.3161 O   0  0  0  0  0  0  0  0  0  0  0  0
  -37.0388   60.8989   63.0448 O   0  0  0  0  0  0  0  0  0  0  0  0
  -35.9527   64.4986   64.8508 O   0  0  0  0  0  0  0  0  0  0  0  0
  -37.1874   62.1989   66.3813 O   0  0  0  0  0  0  0  0  0  0  0  0
  -37.3822   61.2136   65.3379 C   0  0  0  0  0  0  0  0  0  0  0  0
  -36.8844   61.8641   64.0391 C   0  0  0  0  0  0  0  0  0  0  0  0
  -35.3979   62.2806   64.0840 C   0  0  0  0  0  0  0  0  0  0  0  0
  -35.2775   63.2904   65.1919 C   0  0  0  0  0  0  0  0  0  0  0  0
  -35.8299   62.7079   66.4802 C   0  0  0  0  0  0  0  0  0  0  0  0
  -37.9683   60.6247   63.0019 H   0  0  0  0  0  0  0  0  0  0  0  0
  -35.5847   64.8530   64.0262 H   0  0  0  0  0  0  0  0  0  0  0  0
  -34.2838   64.2547   67.4446 O   0  0  0  0  0  0  0  0  0  0  0  0
  -35.6261   63.8713   67.4481 C   0  0  0  0  0  0  0  0  0  0  0  0
  -34.1569   64.9937   68.0601 H   0  0  0  0  0  0  0  0  0  0  0  0
  -34.8832   62.9241   62.8962 O   0  0  0  0  0  0  0  0  0  0  0  0
  -33.2464   64.9126   63.1863 O   0  0  0  0  0  0  0  0  0  0  0  0
  -32.9528   63.3818   61.3262 O   0  0  0  0  0  0  0  0  0  0  0  0
  -32.3352   62.7062   63.5705 O   0  0  0  0  0  0  0  0  0  0  0  0
  -33.3201   63.4823   62.7648 S   0  0  0  0  0  0  0  0  0  0  0  0
  -33.8819   65.4344   62.6717 H   0  0  0  0  0  0  0  0  0  0  0  0
  -32.5673   62.7663   64.5104 H   0  0  0  0  0  0  0  0  0  0  0  0
  2  1  1  0  0  0
  2  4  1  0  0  0
  2  5  1  0  0  0
 41 42  1  0  0  0
 41  1  1  0  0  0
 42 46  1  0  0  0
  1 24  1  0  0  0
 23 24  1  0  0  0
 23 25  1  0  0  0
 24 26  1  0  0  0
  3  4  2  0  0  0
 26 27  2  0  0  0
 27 28  1  0  0  0
 43 47  1  0  0  0
 43 51  1  0  0  0
 28 29  1  0  0  0
 56 48  1  0  0  0
 56 60  1  0  0  0
 29 30  1  0  0  0
 57 60  1  0  0  0
 57 61  1  0  0  0
 30 31  1  0  0  0
 44 49  1  0  0  0
 44 52  1  0  0  0
 31 32  1  0  0  0
 45 46  1  0  0  0
 45 50  1  0  0  0
 32 33  1  0  0  0
 53 54  1  0  0  0
 53 55  1  0  0  0
 33 34  1  0  0  0
 34 35  1  0  0  0
 35 36  1  0  0  0
 58 60  1  0  0  0
 36 37  1  0  0  0
 59 60  1  0  0  0
 59 62  1  0  0  0
 37 38  1  0  0  0
 38 39  1  0  0  0
 39 40  1  0  0  0
  4  6  1  0  0  0
  6  7  1  0  0  0
  7  8  1  0  0  0
  8  9  1  0  0  0
  9 10  1  0  0  0
 10 11  1  0  0  0
 11 12  1  0  0  0
 12 13  1  0  0  0
 13 14  1  0  0  0
 14 15  1  0  0  0
 15 16  1  0  0  0
 16 17  1  0  0  0
 17 18  1  0  0  0
 18 19  1  0  0  0
 19 20  1  0  0  0
 20 21  1  0  0  0
 21 22  1  0  0  0
 46 47  1  0  0  0
 47 48  1  0  0  0
 48 49  1  0  0  0
 49 50  1  0  0  0
 50 54  1  0  0  0
M  CHG 1  58  -1
M  END
> <minimizedAffinity>
-10.14664

> <CNNscore>
0.2606992722

> <CNNaffinity>
6.9949522018

> <CNN_VS>
1.8235789537

> <CNNaffinity_variance>
1.0772014856

$$$$
/media/chris/experiments/cd1a-new-docking/inputs/ligands/1onq_ligand.pdb


 62 62  0  0  0  0  0  0  0  0999 V2000
  -40.1802   59.3041   64.7324 C   0  0  0  0  0  0  0  0  0  0  0  0
  -40.1922   59.2734   63.2833 N   0  0  0  0  0  0  0  0  0  0  0  0
  -40.8303   61.3889   62.7688 O   0  0  0  0  0  0  0  0  0  0  0  0
  -40.5006   60.2666   62.4382 C   0  0  0  0  0  0  0  0  0  0  0  0
  -39.9426   58.4162   62.8683 H   0  0  0  0  0  0  0  0  0  0  0  0
  -40.4084   59.9169   60.9825 C   0  0  0  0  0  0  0  0  0  0  0  0
  -38.9424   60.0933   60.5865 C   0  0  0  0  0  0  0  0  0  0  0  0
  -38.3276   58.7381   60.2452 C   0  0  0  0  0  0  0  0  0  0  0  0
  -37.0561   58.3831   60.9772 C   0  0  0  0  0  0  0  0  0  0  0  0
  -37.3306   57.1243   61.7935 C   0  0  0  0  0  0  0  0  0  0  0  0
  -37.3219   57.3848   63.3058 C   0  0  0  0  0  0  0  0  0  0  0  0
  -35.9906   57.0411   63.9988 C   0  0  0  0  0  0  0  0  0  0  0  0
  -35.2270   58.2921   64.4862 C   0  0  0  0  0  0  0  0  0  0  0  0
  -34.3041   58.8240   63.3861 C   0  0  0  0  0  0  0  0  0  0  0  0
  -32.9273   58.1736   63.3287 C   0  0  0  0  0  0  0  0  0  0  0  0
  -32.5599   57.7229   61.9227 C   0  0  0  0  0  0  0  0  0  0  0  0
  -32.8698   56.2632   61.5833 C   0  0  0  0  0  0  0  0  0  0  0  0
  -34.0865   56.2355   60.6680 C   0  0  0  0  0  0  0  0  0  0  0  0
  -33.9287   55.6763   59.2618 C   0  0  0  0  0  0  0  0  0  0  0  0
  -33.9836   56.7994   58.2141 C   0  0  0  0  0  0  0  0  0  0  0  0
  -35.3978   57.3367   57.9273 C   0  0  0  0  0  0  0  0  0  0  0  0
  -36.4765   56.2572   57.9817 C   0  0  0  0  0  0  0  0  0  0  0  0
  -41.1126   60.9802   66.0428 O   0  0  0  0  0  0  0  0  0  0  0  0
  -41.4745   60.0292   65.0588 C   0  0  0  0  0  0  0  0  0  0  0  0
  -40.4622   61.5972   65.6724 H   0  0  0  0  0  0  0  0  0  0  0  0
  -42.5021   59.0221   65.5805 C   0  0  0  0  0  0  0  0  0  0  0  0
  -43.7887   59.0212   65.1919 C   0  0  0  0  0  0  0  0  0  0  0  0
  -44.7537   57.9824   65.7600 C   0  0  0  0  0  0  0  0  0  0  0  0
  -45.6412   58.5136   66.8952 C   0  0  0  0  0  0  0  0  0  0  0  0
  -47.0976   58.8314   66.5096 C   0  0  0  0  0  0  0  0  0  0  0  0
  -47.3781   58.4272   65.0422 C   0  0  0  0  0  0  0  0  0  0  0  0
  -48.8091   57.9021   64.7623 C   0  0  0  0  0  0  0  0  0  0  0  0
  -49.9357   58.8317   65.2715 C   0  0  0  0  0  0  0  0  0  0  0  0
  -50.9125   59.2821   64.1637 C   0  0  0  0  0  0  0  0  0  0  0  0
  -50.7443   58.5191   62.8443 C   0  0  0  0  0  0  0  0  0  0  0  0
  -49.9731   59.2439   61.7433 C   0  0  0  0  0  0  0  0  0  0  0  0
  -49.8822   58.4572   60.4208 C   0  0  0  0  0  0  0  0  0  0  0  0
  -50.1189   56.9441   60.5413 C   0  0  0  0  0  0  0  0  0  0  0  0
  -49.0416   56.1574   59.7892 C   0  0  0  0  0  0  0  0  0  0  0  0
  -48.4982   56.7971   58.5238 C   0  0  0  0  0  0  0  0  0  0  0  0
  -38.8872   59.8546   65.3759 C   0  0  0  0  0  0  0  0  0  0  0  0
  -38.4454   61.1611   64.9276 O   0  0  0  0  0  0  0  0  0  0  0  0
  -36.4991   61.3692   62.8429 O   0  0  0  0  0  0  0  0  0  0  0  0
  -35.4052   64.8152   64.9231 O   0  0  0  0  0  0  0  0  0  0  0  0
  -36.9025   62.5233   66.2118 O   0  0  0  0  0  0  0  0  0  0  0  0
  -37.0467   61.5991   65.1062 C   0  0  0  0  0  0  0  0  0  0  0  0
  -36.3914   62.2780   63.8949 C   0  0  0  0  0  0  0  0  0  0  0  0
  -34.8964   62.6060   64.1012 C   0  0  0  0  0  0  0  0  0  0  0  0
  -34.8311   63.5560   65.2651 C   0  0  0  0  0  0  0  0  0  0  0  0
  -35.5361   62.9485   66.4643 C   0  0  0  0  0  0  0  0  0  0  0  0
  -37.4332   61.1511   62.6985 H   0  0  0  0  0  0  0  0  0  0  0  0
  -34.9406   65.1848   64.1560 H   0  0  0  0  0  0  0  0  0  0  0  0
  -34.0331   64.4662   67.5370 O   0  0  0  0  0  0  0  0  0  0  0  0
  -35.3662   64.0533   67.5047 C   0  0  0  0  0  0  0  0  0  0  0  0
  -33.9278   65.1678   68.1985 H   0  0  0  0  0  0  0  0  0  0  0  0
  -34.2354   63.2720   63.0014 O   0  0  0  0  0  0  0  0  0  0  0  0
  -32.2603   63.8458   61.4243 O   0  0  0  0  0  0  0  0  0  0  0  0
  -32.5647   61.5594   62.1786 O   0  0  0  0  0  0  0  0  0  0  0  0
  -31.6825   63.2351   63.6913 O   0  0  0  0  0  0  0  0  0  0  0  0
  -32.6488   62.9889   62.5835 S   0  0  0  0  0  0  0  0  0  0  0  0
  -32.8793   63.6989   60.6920 H   0  0  0  0  0  0  0  0  0  0  0  0
  -31.7306   64.1654   63.9617 H   0  0  0  0  0  0  0  0  0  0  0  0
  2  1  1  0  0  0
  2  4  1  0  0  0
  2  5  1  0  0  0
 41 42  1  0  0  0
 41  1  1  0  0  0
 42 46  1  0  0  0
  1 24  1  0  0  0
 23 24  1  0  0  0
 23 25  1  0  0  0
 24 26  1  0  0  0
  3  4  2  0  0  0
 26 27  2  0  0  0
 27 28  1  0  0  0
 43 47  1  0  0  0
 43 51  1  0  0  0
 28 29  1  0  0  0
 56 48  1  0  0  0
 56 60  1  0  0  0
 29 30  1  0  0  0
 57 60  1  0  0  0
 57 61  1  0  0  0
 30 31  1  0  0  0
 44 49  1  0  0  0
 44 52  1  0  0  0
 31 32  1  0  0  0
 45 46  1  0  0  0
 45 50  1  0  0  0
 32 33  1  0  0  0
 53 54  1  0  0  0
 53 55  1  0  0  0
 33 34  1  0  0  0
 34 35  1  0  0  0
 35 36  1  0  0  0
 58 60  1  0  0  0
 36 37  1  0  0  0
 59 60  1  0  0  0
 59 62  1  0  0  0
 37 38  1  0  0  0
 38 39  1  0  0  0
 39 40  1  0  0  0
  4  6  1  0  0  0
  6  7  1  0  0  0
  7  8  1  0  0  0
  8  9  1  0  0  0
  9 10  1  0  0  0
 10 11  1  0  0  0
 11 12  1  0  0  0
 12 13  1  0  0  0
 13 14  1  0  0  0
 14 15  1  0  0  0
 15 16  1  0  0  0
 16 17  1  0  0  0
 17 18  1  0  0  0
 18 19  1  0  0  0
 19 20  1  0  0  0
 20 21  1  0  0  0
 21 22  1  0  0  0
 46 47  1  0  0  0
 47 48  1  0  0  0
 48 49  1  0  0  0
 49 50  1  0  0  0
 50 54  1  0  0  0
M  CHG 1  58  -1
M  END
> <minimizedAffinity>
-9.55060

> <CNNscore>
0.2254040092

> <CNNaffinity>
7.2784891129

> <CNN_VS>
1.6406006813

> <CNNaffinity_variance>
1.0018273592

$$$$
/media/chris/experiments/cd1a-new-docking/inputs/ligands/1onq_ligand.pdb


 62 62  0  0  0  0  0  0  0  0999 V2000
  -40.2902   58.8544   64.8413 C   0  0  0  0  0  0  0  0  0  0  0  0
  -41.2835   58.2853   65.7306 N   0  0  0  0  0  0  0  0  0  0  0  0
  -43.2206   59.0481   64.8288 O   0  0  0  0  0  0  0  0  0  0  0  0
  -42.6161   58.4123   65.6703 C   0  0  0  0  0  0  0  0  0  0  0  0
  -40.9357   57.7374   66.4710 H   0  0  0  0  0  0  0  0  0  0  0  0
  -43.3748   57.6878   66.7424 C   0  0  0  0  0  0  0  0  0  0  0  0
  -44.4822   56.9054   66.0363 C   0  0  0  0  0  0  0  0  0  0  0  0
  -45.8309   57.2113   66.6834 C   0  0  0  0  0  0  0  0  0  0  0  0
  -47.0092   56.4224   66.1659 C   0  0  0  0  0  0  0  0  0  0  0  0
  -48.0461   57.4205   65.6613 C   0  0  0  0  0  0  0  0  0  0  0  0
  -47.5370   58.2584   64.4807 C   0  0  0  0  0  0  0  0  0  0  0  0
  -48.6033   58.5563   63.4107 C   0  0  0  0  0  0  0  0  0  0  0  0
  -50.0443   58.3379   63.9219 C   0  0  0  0  0  0  0  0  0  0  0  0
  -51.0604   58.6303   62.8142 C   0  0  0  0  0  0  0  0  0  0  0  0
  -50.5173   58.5183   61.3948 C   0  0  0  0  0  0  0  0  0  0  0  0
  -50.8309   57.1709   60.7615 C   0  0  0  0  0  0  0  0  0  0  0  0
  -49.6377   56.4079   60.1816 C   0  0  0  0  0  0  0  0  0  0  0  0
  -48.8999   57.3346   59.2247 C   0  0  0  0  0  0  0  0  0  0  0  0
  -47.3813   57.3971   59.2954 C   0  0  0  0  0  0  0  0  0  0  0  0
  -46.7730   57.5860   57.8967 C   0  0  0  0  0  0  0  0  0  0  0  0
  -47.4436   56.7508   56.7905 C   0  0  0  0  0  0  0  0  0  0  0  0
  -47.4394   55.2514   57.0793 C   0  0  0  0  0  0  0  0  0  0  0  0
  -38.1932   57.9708   65.3081 O   0  0  0  0  0  0  0  0  0  0  0  0
  -39.3688   57.6759   64.5769 C   0  0  0  0  0  0  0  0  0  0  0  0
  -38.4062   58.0298   66.2527 H   0  0  0  0  0  0  0  0  0  0  0  0
  -39.1014   57.5689   63.0738 C   0  0  0  0  0  0  0  0  0  0  0  0
  -37.9100   57.2095   62.5661 C   0  0  0  0  0  0  0  0  0  0  0  0
  -37.7223   57.1266   61.0525 C   0  0  0  0  0  0  0  0  0  0  0  0
  -37.8867   58.4723   60.3311 C   0  0  0  0  0  0  0  0  0  0  0  0
  -37.2602   58.5567   58.9270 C   0  0  0  0  0  0  0  0  0  0  0  0
  -36.7377   57.1720   58.4744 C   0  0  0  0  0  0  0  0  0  0  0  0
  -35.3665   57.1859   57.7523 C   0  0  0  0  0  0  0  0  0  0  0  0
  -34.2218   56.5223   58.5538 C   0  0  0  0  0  0  0  0  0  0  0  0
  -34.7145   55.5157   59.6158 C   0  0  0  0  0  0  0  0  0  0  0  0
  -34.4745   55.9737   61.0594 C   0  0  0  0  0  0  0  0  0  0  0  0
  -33.1266   56.6352   61.3385 C   0  0  0  0  0  0  0  0  0  0  0  0
  -33.2364   58.0534   61.9324 C   0  0  0  0  0  0  0  0  0  0  0  0
  -32.6008   58.2337   63.3192 C   0  0  0  0  0  0  0  0  0  0  0  0
  -33.6191   57.9622   64.4303 C   0  0  0  0  0  0  0  0  0  0  0  0
  -35.0286   58.4755   64.1944 C   0  0  0  0  0  0  0  0  0  0  0  0
  -39.6305   60.1636   65.3308 C   0  0  0  0  0  0  0  0  0  0  0  0
  -38.8789   60.9181   64.3464 O   0  0  0  0  0  0  0  0  0  0  0  0
  -36.8890   61.1633   62.3074 O   0  0  0  0  0  0  0  0  0  0  0  0
  -35.6687   64.4132   64.6200 O   0  0  0  0  0  0  0  0  0  0  0  0
  -37.2955   62.1196   65.7374 O   0  0  0  0  0  0  0  0  0  0  0  0
  -37.4643   61.2754   64.5728 C   0  0  0  0  0  0  0  0  0  0  0  0
  -36.7564   61.9972   63.4170 C   0  0  0  0  0  0  0  0  0  0  0  0
  -35.2513   62.2385   63.6653 C   0  0  0  0  0  0  0  0  0  0  0  0
  -35.1612   63.1085   64.8886 C   0  0  0  0  0  0  0  0  0  0  0  0
  -35.9151   62.4610   66.0361 C   0  0  0  0  0  0  0  0  0  0  0  0
  -37.8297   61.0003   62.1360 H   0  0  0  0  0  0  0  0  0  0  0  0
  -35.1738   64.8077   63.8849 H   0  0  0  0  0  0  0  0  0  0  0  0
  -34.3463   63.6452   67.3962 O   0  0  0  0  0  0  0  0  0  0  0  0
  -35.7109   63.4881   67.1477 C   0  0  0  0  0  0  0  0  0  0  0  0
  -34.2192   64.2979   68.1025 H   0  0  0  0  0  0  0  0  0  0  0  0
  -34.5404   62.9400   62.6201 O   0  0  0  0  0  0  0  0  0  0  0  0
  -32.4518   63.8569   61.3895 O   0  0  0  0  0  0  0  0  0  0  0  0
  -32.2362   61.9168   62.8312 O   0  0  0  0  0  0  0  0  0  0  0  0
  -32.4884   64.1276   63.7918 O   0  0  0  0  0  0  0  0  0  0  0  0
  -32.9030   63.2374   62.6707 S   0  0  0  0  0  0  0  0  0  0  0  0
  -32.7135   63.2904   60.6468 H   0  0  0  0  0  0  0  0  0  0  0  0
  -32.9188   64.9915   63.6950 H   0  0  0  0  0  0  0  0  0  0  0  0
  2  1  1  0  0  0
  2  4  1  0  0  0
  2  5  1  0  0  0
 41 42  1  0  0  0
 41  1  1  0  0  0
 42 46  1  0  0  0
  1 24  1  0  0  0
 23 24  1  0  0  0
 23 25  1  0  0  0
 24 26  1  0  0  0
  3  4  2  0  0  0
 26 27  2  0  0  0
 27 28  1  0  0  0
 43 47  1  0  0  0
 43 51  1  0  0  0
 28 29  1  0  0  0
 56 48  1  0  0  0
 56 60  1  0  0  0
 29 30  1  0  0  0
 57 60  1  0  0  0
 57 61  1  0  0  0
 30 31  1  0  0  0
 44 49  1  0  0  0
 44 52  1  0  0  0
 31 32  1  0  0  0
 45 46  1  0  0  0
 45 50  1  0  0  0
 32 33  1  0  0  0
 53 54  1  0  0  0
 53 55  1  0  0  0
 33 34  1  0  0  0
 34 35  1  0  0  0
 35 36  1  0  0  0
 58 60  1  0  0  0
 36 37  1  0  0  0
 59 60  1  0  0  0
 59 62  1  0  0  0
 37 38  1  0  0  0
 38 39  1  0  0  0
 39 40  1  0  0  0
  4  6  1  0  0  0
  6  7  1  0  0  0
  7  8  1  0  0  0
  8  9  1  0  0  0
  9 10  1  0  0  0
 10 11  1  0  0  0
 11 12  1  0  0  0
 12 13  1  0  0  0
 13 14  1  0  0  0
 14 15  1  0  0  0
 15 16  1  0  0  0
 16 17  1  0  0  0
 17 18  1  0  0  0
 18 19  1  0  0  0
 19 20  1  0  0  0
 20 21  1  0  0  0
 21 22  1  0  0  0
 46 47  1  0  0  0
 47 48  1  0  0  0
 48 49  1  0  0  0
 49 50  1  0  0  0
 50 54  1  0  0  0
M  CHG 1  58  -1
M  END
> <minimizedAffinity>
-10.23825

> <CNNscore>
0.2203675508

> <CNNaffinity>
7.0075011253

> <CNN_VS>
1.5442258120

> <CNNaffinity_variance>
1.1368277073

$$$$
/media/chris/experiments/cd1a-new-docking/inputs/ligands/1onq_ligand.pdb


 62 62  0  0  0  0  0  0  0  0999 V2000
  -39.4112   59.5528   65.1850 C   0  0  0  0  0  0  0  0  0  0  0  0
  -39.1372   59.4145   63.7683 N   0  0  0  0  0  0  0  0  0  0  0  0
  -39.3431   57.1760   63.4613 O   0  0  0  0  0  0  0  0  0  0  0  0
  -39.1215   58.2928   63.0353 C   0  0  0  0  0  0  0  0  0  0  0  0
  -38.9378   60.2484   63.2845 H   0  0  0  0  0  0  0  0  0  0  0  0
  -38.8091   58.4858   61.5811 C   0  0  0  0  0  0  0  0  0  0  0  0
  -37.5856   57.6193   61.2821 C   0  0  0  0  0  0  0  0  0  0  0  0
  -36.8159   58.1953   60.0958 C   0  0  0  0  0  0  0  0  0  0  0  0
  -37.6326   58.5150   58.8673 C   0  0  0  0  0  0  0  0  0  0  0  0
  -36.9193   57.9009   57.6672 C   0  0  0  0  0  0  0  0  0  0  0  0
  -36.0227   56.7166   58.0527 C   0  0  0  0  0  0  0  0  0  0  0  0
  -34.5201   56.9598   57.8212 C   0  0  0  0  0  0  0  0  0  0  0  0
  -33.6248   56.1305   58.7680 C   0  0  0  0  0  0  0  0  0  0  0  0
  -34.4620   55.4883   59.8778 C   0  0  0  0  0  0  0  0  0  0  0  0
  -34.2071   56.0356   61.2769 C   0  0  0  0  0  0  0  0  0  0  0  0
  -32.7319   56.0066   61.6482 C   0  0  0  0  0  0  0  0  0  0  0  0
  -32.1478   57.3173   62.1800 C   0  0  0  0  0  0  0  0  0  0  0  0
  -33.1509   58.4303   61.9082 C   0  0  0  0  0  0  0  0  0  0  0  0
  -33.6447   59.2688   63.0778 C   0  0  0  0  0  0  0  0  0  0  0  0
  -34.0684   58.3757   64.2546 C   0  0  0  0  0  0  0  0  0  0  0  0
  -35.5913   58.2410   64.4380 C   0  0  0  0  0  0  0  0  0  0  0  0
  -36.0691   56.7911   64.4760 C   0  0  0  0  0  0  0  0  0  0  0  0
  -40.8057   61.0036   66.3454 O   0  0  0  0  0  0  0  0  0  0  0  0
  -40.7951   60.1792   65.1948 C   0  0  0  0  0  0  0  0  0  0  0  0
  -40.1240   61.6883   66.2588 H   0  0  0  0  0  0  0  0  0  0  0  0
  -41.8513   59.0739   65.2676 C   0  0  0  0  0  0  0  0  0  0  0  0
  -43.1502   59.3177   65.5120 C   0  0  0  0  0  0  0  0  0  0  0  0
  -44.1435   58.1588   65.5699 C   0  0  0  0  0  0  0  0  0  0  0  0
  -45.5946   58.5957   65.8187 C   0  0  0  0  0  0  0  0  0  0  0  0
  -46.6298   58.0790   64.8026 C   0  0  0  0  0  0  0  0  0  0  0  0
  -47.9102   58.9477   64.8329 C   0  0  0  0  0  0  0  0  0  0  0  0
  -48.9854   58.5062   65.8581 C   0  0  0  0  0  0  0  0  0  0  0  0
  -50.4082   58.3727   65.2660 C   0  0  0  0  0  0  0  0  0  0  0  0
  -50.8200   59.5637   64.3740 C   0  0  0  0  0  0  0  0  0  0  0  0
  -51.1768   59.1649   62.9370 C   0  0  0  0  0  0  0  0  0  0  0  0
  -50.5277   57.8850   62.4146 C   0  0  0  0  0  0  0  0  0  0  0  0
  -51.0707   57.4202   61.0489 C   0  0  0  0  0  0  0  0  0  0  0  0
  -50.0136   56.8822   60.0726 C   0  0  0  0  0  0  0  0  0  0  0  0
  -48.6401   57.4976   60.3554 C   0  0  0  0  0  0  0  0  0  0  0  0
  -47.7003   57.6252   59.1696 C   0  0  0  0  0  0  0  0  0  0  0  0
  -38.3141   60.2645   66.0089 C   0  0  0  0  0  0  0  0  0  0  0  0
  -37.9063   61.5775   65.5475 O   0  0  0  0  0  0  0  0  0  0  0  0
  -36.3417   61.2510   63.1763 O   0  0  0  0  0  0  0  0  0  0  0  0
  -34.7505   64.9241   64.3488 O   0  0  0  0  0  0  0  0  0  0  0  0
  -36.1049   63.0283   66.2794 O   0  0  0  0  0  0  0  0  0  0  0  0
  -36.4794   61.9317   65.4108 C   0  0  0  0  0  0  0  0  0  0  0  0
  -36.0130   62.3255   64.0018 C   0  0  0  0  0  0  0  0  0  0  0  0
  -34.4916   62.5695   63.8976 C   0  0  0  0  0  0  0  0  0  0  0  0
  -34.1835   63.7081   64.8304 C   0  0  0  0  0  0  0  0  0  0  0  0
  -34.6976   63.3859   66.2218 C   0  0  0  0  0  0  0  0  0  0  0  0
  -37.2956   61.0827   63.2290 H   0  0  0  0  0  0  0  0  0  0  0  0
  -34.4091   65.1105   63.4602 H   0  0  0  0  0  0  0  0  0  0  0  0
  -33.0333   65.0638   66.5796 O   0  0  0  0  0  0  0  0  0  0  0  0
  -34.3009   64.6457   66.9883 C   0  0  0  0  0  0  0  0  0  0  0  0
  -32.7837   65.8640   67.0678 H   0  0  0  0  0  0  0  0  0  0  0  0
  -34.0010   62.9705   62.5983 O   0  0  0  0  0  0  0  0  0  0  0  0
  -31.9545   61.8401   61.4796 O   0  0  0  0  0  0  0  0  0  0  0  0
  -31.6482   63.1246   63.5157 O   0  0  0  0  0  0  0  0  0  0  0  0
  -32.0215   64.2559   61.4050 O   0  0  0  0  0  0  0  0  0  0  0  0
  -32.3816   63.0627   62.2224 S   0  0  0  0  0  0  0  0  0  0  0  0
  -32.1812   61.0517   61.9972 H   0  0  0  0  0  0  0  0  0  0  0  0
  -32.4955   64.2237   60.5593 H   0  0  0  0  0  0  0  0  0  0  0  0
  2  1  1  0  0  0
  2  4  1  0  0  0
  2  5  1  0  0  0
 41 42  1  0  0  0
 41  1  1  0  0  0
 42 46  1  0  0  0
  1 24  1  0  0  0
 23 24  1  0  0  0
 23 25  1  0  0  0
 24 26  1  0  0  0
  3  4  2  0  0  0
 26 27  2  0  0  0
 27 28  1  0  0  0
 43 47  1  0  0  0
 43 51  1  0  0  0
 28 29  1  0  0  0
 56 48  1  0  0  0
 56 60  1  0  0  0
 29 30  1  0  0  0
 57 60  1  0  0  0
 57 61  1  0  0  0
 30 31  1  0  0  0
 44 49  1  0  0  0
 44 52  1  0  0  0
 31 32  1  0  0  0
 45 46  1  0  0  0
 45 50  1  0  0  0
 32 33  1  0  0  0
 53 54  1  0  0  0
 53 55  1  0  0  0
 33 34  1  0  0  0
 34 35  1  0  0  0
 35 36  1  0  0  0
 58 60  1  0  0  0
 36 37  1  0  0  0
 59 60  1  0  0  0
 59 62  1  0  0  0
 37 38  1  0  0  0
 38 39  1  0  0  0
 39 40  1  0  0  0
  4  6  1  0  0  0
  6  7  1  0  0  0
  7  8  1  0  0  0
  8  9  1  0  0  0
  9 10  1  0  0  0
 10 11  1  0  0  0
 11 12  1  0  0  0
 12 13  1  0  0  0
 13 14  1  0  0  0
 14 15  1  0  0  0
 15 16  1  0  0  0
 16 17  1  0  0  0
 17 18  1  0  0  0
 18 19  1  0  0  0
 19 20  1  0  0  0
 20 21  1  0  0  0
 21 22  1  0  0  0
 46 47  1  0  0  0
 47 48  1  0  0  0
 48 49  1  0  0  0
 49 50  1  0  0  0
 50 54  1  0  0  0
M  CHG 1  58  -1
M  END
> <minimizedAffinity>
-9.43206

> <CNNscore>
0.2126162052

> <CNNaffinity>
6.8314909935

> <CNN_VS>
1.4524856806

> <CNNaffinity_variance>
1.3458690643

$$$$
/media/chris/experiments/cd1a-new-docking/inputs/ligands/1onq_ligand.pdb


 62 62  0  0  0  0  0  0  0  0999 V2000
  -40.7362   60.0125   65.6597 C   0  0  0  0  0  0  0  0  0  0  0  0
  -41.4011   58.7386   65.8506 N   0  0  0  0  0  0  0  0  0  0  0  0
  -43.0872   59.2905   67.2648 O   0  0  0  0  0  0  0  0  0  0  0  0
  -42.4783   58.4732   66.6022 C   0  0  0  0  0  0  0  0  0  0  0  0
  -41.0129   57.9733   65.3681 H   0  0  0  0  0  0  0  0  0  0  0  0
  -42.9321   57.0437   66.5836 C   0  0  0  0  0  0  0  0  0  0  0  0
  -44.4585   57.0747   66.5038 C   0  0  0  0  0  0  0  0  0  0  0  0
  -44.9047   57.0631   65.0437 C   0  0  0  0  0  0  0  0  0  0  0  0
  -45.9386   58.0929   64.6577 C   0  0  0  0  0  0  0  0  0  0  0  0
  -46.3444   58.8362   65.9261 C   0  0  0  0  0  0  0  0  0  0  0  0
  -47.8509   59.1212   65.9900 C   0  0  0  0  0  0  0  0  0  0  0  0
  -48.7374   57.8698   65.8527 C   0  0  0  0  0  0  0  0  0  0  0  0
  -50.1703   58.1982   65.3788 C   0  0  0  0  0  0  0  0  0  0  0  0
  -50.1363   59.0929   64.1364 C   0  0  0  0  0  0  0  0  0  0  0  0
  -50.8534   58.5292   62.9158 C   0  0  0  0  0  0  0  0  0  0  0  0
  -50.0603   58.7359   61.6339 C   0  0  0  0  0  0  0  0  0  0  0  0
  -49.2415   57.5367   61.1505 C   0  0  0  0  0  0  0  0  0  0  0  0
  -48.6255   57.8928   59.8041 C   0  0  0  0  0  0  0  0  0  0  0  0
  -47.4138   57.1068   59.3257 C   0  0  0  0  0  0  0  0  0  0  0  0
  -46.9479   57.6000   57.9467 C   0  0  0  0  0  0  0  0  0  0  0  0
  -47.3668   56.6985   56.7709 C   0  0  0  0  0  0  0  0  0  0  0  0
  -47.5524   55.2356   57.1677 C   0  0  0  0  0  0  0  0  0  0  0  0
  -42.5530   60.1254   64.2166 O   0  0  0  0  0  0  0  0  0  0  0  0
  -41.1654   60.4027   64.2557 C   0  0  0  0  0  0  0  0  0  0  0  0
  -43.0104   60.6712   64.8753 H   0  0  0  0  0  0  0  0  0  0  0  0
  -40.3824   59.5714   63.2368 C   0  0  0  0  0  0  0  0  0  0  0  0
  -39.9248   60.0754   62.0780 C   0  0  0  0  0  0  0  0  0  0  0  0
  -39.1514   59.1797   61.1121 C   0  0  0  0  0  0  0  0  0  0  0  0
  -38.5279   57.9429   61.7752 C   0  0  0  0  0  0  0  0  0  0  0  0
  -37.5768   57.1190   60.8877 C   0  0  0  0  0  0  0  0  0  0  0  0
  -36.7652   58.0421   59.9473 C   0  0  0  0  0  0  0  0  0  0  0  0
  -36.6889   57.5796   58.4701 C   0  0  0  0  0  0  0  0  0  0  0  0
  -35.3742   56.8529   58.1010 C   0  0  0  0  0  0  0  0  0  0  0  0
  -34.9955   55.7243   59.0843 C   0  0  0  0  0  0  0  0  0  0  0  0
  -33.6852   55.9770   59.8395 C   0  0  0  0  0  0  0  0  0  0  0  0
  -33.7912   56.0535   61.3611 C   0  0  0  0  0  0  0  0  0  0  0  0
  -33.0353   57.2446   61.9822 C   0  0  0  0  0  0  0  0  0  0  0  0
  -33.9251   58.3611   62.5493 C   0  0  0  0  0  0  0  0  0  0  0  0
  -34.3277   58.0617   63.9962 C   0  0  0  0  0  0  0  0  0  0  0  0
  -35.7228   57.5002   64.2065 C   0  0  0  0  0  0  0  0  0  0  0  0
  -39.2195   60.0230   65.9571 C   0  0  0  0  0  0  0  0  0  0  0  0
  -38.3406   60.2868   64.8340 O   0  0  0  0  0  0  0  0  0  0  0  0
  -36.3750   60.6824   62.7951 O   0  0  0  0  0  0  0  0  0  0  0  0
  -35.9303   64.3806   64.6724 O   0  0  0  0  0  0  0  0  0  0  0  0
  -37.0873   61.9579   66.0678 O   0  0  0  0  0  0  0  0  0  0  0  0
  -37.0385   60.9570   65.0222 C   0  0  0  0  0  0  0  0  0  0  0  0
  -36.4552   61.6588   63.7872 C   0  0  0  0  0  0  0  0  0  0  0  0
  -35.0415   62.2382   64.0129 C   0  0  0  0  0  0  0  0  0  0  0  0
  -35.1745   63.2551   65.1128 C   0  0  0  0  0  0  0  0  0  0  0  0
  -35.8178   62.6147   66.3295 C   0  0  0  0  0  0  0  0  0  0  0  0
  -37.2556   60.3064   62.6396 H   0  0  0  0  0  0  0  0  0  0  0  0
  -35.5022   64.7737   63.8957 H   0  0  0  0  0  0  0  0  0  0  0  0
  -34.5746   64.2653   67.5309 O   0  0  0  0  0  0  0  0  0  0  0  0
  -35.8678   63.7937   67.2988 C   0  0  0  0  0  0  0  0  0  0  0  0
  -34.6090   65.0139   68.1468 H   0  0  0  0  0  0  0  0  0  0  0  0
  -34.4548   62.9349   62.8903 O   0  0  0  0  0  0  0  0  0  0  0  0
  -32.5222   63.8383   61.4184 O   0  0  0  0  0  0  0  0  0  0  0  0
  -32.4668   61.5370   62.1867 O   0  0  0  0  0  0  0  0  0  0  0  0
  -31.9786   63.3472   63.7226 O   0  0  0  0  0  0  0  0  0  0  0  0
  -32.8217   62.9315   62.5660 S   0  0  0  0  0  0  0  0  0  0  0  0
  -33.0629   63.5826   60.6547 H   0  0  0  0  0  0  0  0  0  0  0  0
  -32.2034   64.2559   63.9767 H   0  0  0  0  0  0  0  0  0  0  0  0
  2  1  1  0  0  0
  2  4  1  0  0  0
  2  5  1  0  0  0
 41 42  1  0  0  0
 41  1  1  0  0  0
 42 46  1  0  0  0
  1 24  1  0  0  0
 23 24  1  0  0  0
 23 25  1  0  0  0
 24 26  1  0  0  0
  3  4  2  0  0  0
 26 27  2  0  0  0
 27 28  1  0  0  0
 43 47  1  0  0  0
 43 51  1  0  0  0
 28 29  1  0  0  0
 56 48  1  0  0  0
 56 60  1  0  0  0
 29 30  1  0  0  0
 57 60  1  0  0  0
 57 61  1  0  0  0
 30 31  1  0  0  0
 44 49  1  0  0  0
 44 52  1  0  0  0
 31 32  1  0  0  0
 45 46  1  0  0  0
 45 50  1  0  0  0
 32 33  1  0  0  0
 53 54  1  0  0  0
 53 55  1  0  0  0
 33 34  1  0  0  0
 34 35  1  0  0  0
 35 36  1  0  0  0
 58 60  1  0  0  0
 36 37  1  0  0  0
 59 60  1  0  0  0
 59 62  1  0  0  0
 37 38  1  0  0  0
 38 39  1  0  0  0
 39 40  1  0  0  0
  4  6  1  0  0  0
  6  7  1  0  0  0
  7  8  1  0  0  0
  8  9  1  0  0  0
  9 10  1  0  0  0
 10 11  1  0  0  0
 11 12  1  0  0  0
 12 13  1  0  0  0
 13 14  1  0  0  0
 14 15  1  0  0  0
 15 16  1  0  0  0
 16 17  1  0  0  0
 17 18  1  0  0  0
 18 19  1  0  0  0
 19 20  1  0  0  0
 20 21  1  0  0  0
 21 22  1  0  0  0
 46 47  1  0  0  0
 47 48  1  0  0  0
 48 49  1  0  0  0
 49 50  1  0  0  0
 50 54  1  0  0  0
M  CHG 1  58  -1
M  END
> <minimizedAffinity>
-10.08595

> <CNNscore>
0.1768748313

> <CNNaffinity>
7.1827383041

> <CNN_VS>
1.2704455853

> <CNNaffinity_variance>
1.1586360931

$$$$
