/media/chris/experiments/cd1a-new-docking/inputs/ligands/1onq_ligand.pdb


 62 62  0  0  0  0  0  0  0  0999 V2000
  -34.1490   57.8772   62.1176 C   0  0  0  0  0  0  0  0  0  0  0  0
  -35.1676   57.7769   63.1439 N   0  0  0  0  0  0  0  0  0  0  0  0
  -37.0739   57.7076   61.9156 O   0  0  0  0  0  0  0  0  0  0  0  0
  -36.4961   57.7024   62.9852 C   0  0  0  0  0  0  0  0  0  0  0  0
  -34.8431   57.7615   64.0733 H   0  0  0  0  0  0  0  0  0  0  0  0
  -37.2853   57.5979   64.2564 C   0  0  0  0  0  0  0  0  0  0  0  0
  -38.7555   57.7562   63.8679 C   0  0  0  0  0  0  0  0  0  0  0  0
  -39.5883   58.0896   65.1033 C   0  0  0  0  0  0  0  0  0  0  0  0
  -40.4694   59.3108   64.9997 C   0  0  0  0  0  0  0  0  0  0  0  0
  -41.6865   59.0779   65.8887 C   0  0  0  0  0  0  0  0  0  0  0  0
  -42.1437   57.6131   65.8961 C   0  0  0  0  0  0  0  0  0  0  0  0
  -43.4649   57.3672   66.6474 C   0  0  0  0  0  0  0  0  0  0  0  0
  -44.6461   57.0610   65.7006 C   0  0  0  0  0  0  0  0  0  0  0  0
  -45.9818   57.3381   66.3963 C   0  0  0  0  0  0  0  0  0  0  0  0
  -47.1850   56.6270   65.7892 C   0  0  0  0  0  0  0  0  0  0  0  0
  -48.2721   57.5993   65.3556 C   0  0  0  0  0  0  0  0  0  0  0  0
  -47.9421   58.4799   64.1481 C   0  0  0  0  0  0  0  0  0  0  0  0
  -49.1470   59.3660   63.8621 C   0  0  0  0  0  0  0  0  0  0  0  0
  -49.7500   59.3484   62.4653 C   0  0  0  0  0  0  0  0  0  0  0  0
  -50.3186   57.9605   62.1294 C   0  0  0  0  0  0  0  0  0  0  0  0
  -49.5779   57.2237   60.9982 C   0  0  0  0  0  0  0  0  0  0  0  0
  -50.1644   57.4956   59.6148 C   0  0  0  0  0  0  0  0  0  0  0  0
  -32.4881   56.2739   61.8592 O   0  0  0  0  0  0  0  0  0  0  0  0
  -33.8924   56.4227   61.7625 C   0  0  0  0  0  0  0  0  0  0  0  0
  -32.2056   56.4559   62.7692 H   0  0  0  0  0  0  0  0  0  0  0  0
  -34.4053   56.1484   60.3468 C   0  0  0  0  0  0  0  0  0  0  0  0
  -34.7099   57.1262   59.4765 C   0  0  0  0  0  0  0  0  0  0  0  0
  -35.2174   56.7704   58.0804 C   0  0  0  0  0  0  0  0  0  0  0  0
  -36.6495   57.2480   57.7990 C   0  0  0  0  0  0  0  0  0  0  0  0
  -37.4385   57.7468   59.0237 C   0  0  0  0  0  0  0  0  0  0  0  0
  -38.2614   59.0090   58.6701 C   0  0  0  0  0  0  0  0  0  0  0  0
  -38.9718   59.6923   59.8659 C   0  0  0  0  0  0  0  0  0  0  0  0
  -40.3086   60.3794   59.5000 C   0  0  0  0  0  0  0  0  0  0  0  0
  -41.4020   59.3939   59.0336 C   0  0  0  0  0  0  0  0  0  0  0  0
  -41.9189   59.6702   57.6166 C   0  0  0  0  0  0  0  0  0  0  0  0
  -42.7327   58.5518   56.9690 C   0  0  0  0  0  0  0  0  0  0  0  0
  -44.2267   58.5647   57.3482 C   0  0  0  0  0  0  0  0  0  0  0  0
  -44.5626   57.9337   58.7080 C   0  0  0  0  0  0  0  0  0  0  0  0
  -46.0703   57.7078   58.8520 C   0  0  0  0  0  0  0  0  0  0  0  0
  -46.8091   57.2645   57.6018 C   0  0  0  0  0  0  0  0  0  0  0  0
  -32.9177   58.7368   62.4835 C   0  0  0  0  0  0  0  0  0  0  0  0
  -33.0998   60.1754   62.4550 O   0  0  0  0  0  0  0  0  0  0  0  0
  -32.0522   62.6254   63.4927 O   0  0  0  0  0  0  0  0  0  0  0  0
  -36.0918   63.5219   64.0182 O   0  0  0  0  0  0  0  0  0  0  0  0
  -35.0520   60.6887   63.8007 O   0  0  0  0  0  0  0  0  0  0  0  0
  -33.6305   60.9030   63.6250 C   0  0  0  0  0  0  0  0  0  0  0  0
  -33.4257   62.4248   63.6241 C   0  0  0  0  0  0  0  0  0  0  0  0
  -33.8944   63.1145   64.9240 C   0  0  0  0  0  0  0  0  0  0  0  0
  -35.3682   62.8384   65.0386 C   0  0  0  0  0  0  0  0  0  0  0  0
  -35.6176   61.3427   64.9685 C   0  0  0  0  0  0  0  0  0  0  0  0
  -31.7393   62.1982   62.6800 H   0  0  0  0  0  0  0  0  0  0  0  0
  -35.9183   64.4742   64.0813 H   0  0  0  0  0  0  0  0  0  0  0  0
  -37.5272   61.7537   66.3463 O   0  0  0  0  0  0  0  0  0  0  0  0
  -37.1388   61.2854   65.0898 C   0  0  0  0  0  0  0  0  0  0  0  0
  -38.4936   61.7163   66.4207 H   0  0  0  0  0  0  0  0  0  0  0  0
  -33.7505   64.5524   64.9666 O   0  0  0  0  0  0  0  0  0  0  0  0
  -32.7400   65.8050   66.9982 O   0  0  0  0  0  0  0  0  0  0  0  0
  -32.1359   66.4880   64.7492 O   0  0  0  0  0  0  0  0  0  0  0  0
  -31.2105   64.4584   65.6970 O   0  0  0  0  0  0  0  0  0  0  0  0
  -32.4255   65.3183   65.6223 S   0  0  0  0  0  0  0  0  0  0  0  0
  -33.5298   66.3675   66.9694 H   0  0  0  0  0  0  0  0  0  0  0  0
  -31.3905   63.6927   66.2648 H   0  0  0  0  0  0  0  0  0  0  0  0
  2  1  1  0  0  0
  2  4  1  0  0  0
  2  5  1  0  0  0
 41 42  1  0  0  0
 41  1  1  0  0  0
 42 46  1  0  0  0
  1 24  1  0  0  0
 23 24  1  0  0  0
 23 25  1  0  0  0
 24 26  1  0  0  0
  3  4  2  0  0  0
 26 27  2  0  0  0
 27 28  1  0  0  0
 43 47  1  0  0  0
 43 51  1  0  0  0
 28 29  1  0  0  0
 56 48  1  0  0  0
 56 60  1  0  0  0
 29 30  1  0  0  0
 57 60  1  0  0  0
 57 61  1  0  0  0
 30 31  1  0  0  0
 44 49  1  0  0  0
 44 52  1  0  0  0
 31 32  1  0  0  0
 45 46  1  0  0  0
 45 50  1  0  0  0
 32 33  1  0  0  0
 53 54  1  0  0  0
 53 55  1  0  0  0
 33 34  1  0  0  0
 34 35  1  0  0  0
 35 36  1  0  0  0
 58 60  1  0  0  0
 36 37  1  0  0  0
 59 60  1  0  0  0
 59 62  1  0  0  0
 37 38  1  0  0  0
 38 39  1  0  0  0
 39 40  1  0  0  0
  4  6  1  0  0  0
  6  7  1  0  0  0
  7  8  1  0  0  0
  8  9  1  0  0  0
  9 10  1  0  0  0
 10 11  1  0  0  0
 11 12  1  0  0  0
 12 13  1  0  0  0
 13 14  1  0  0  0
 14 15  1  0  0  0
 15 16  1  0  0  0
 16 17  1  0  0  0
 17 18  1  0  0  0
 18 19  1  0  0  0
 19 20  1  0  0  0
 20 21  1  0  0  0
 21 22  1  0  0  0
 46 47  1  0  0  0
 47 48  1  0  0  0
 48 49  1  0  0  0
 49 50  1  0  0  0
 50 54  1  0  0  0
M  CHG 1  58  -1
M  END
> <minimizedAffinity>
-8.64711

> <CNNscore>
0.4819591641

> <CNNaffinity>
7.1758623123

> <CNN_VS>
3.4584724903

> <CNNaffinity_variance>
1.0425443649

$$$$
/media/chris/experiments/cd1a-new-docking/inputs/ligands/1onq_ligand.pdb


 62 62  0  0  0  0  0  0  0  0999 V2000
  -40.1453   58.7387   64.6364 C   0  0  0  0  0  0  0  0  0  0  0  0
  -41.2072   58.1896   65.4561 N   0  0  0  0  0  0  0  0  0  0  0  0
  -42.9868   59.4532   64.8366 O   0  0  0  0  0  0  0  0  0  0  0  0
  -42.4934   58.5629   65.5012 C   0  0  0  0  0  0  0  0  0  0  0  0
  -40.9517   57.4504   66.0541 H   0  0  0  0  0  0  0  0  0  0  0  0
  -43.3500   57.7852   66.4558 C   0  0  0  0  0  0  0  0  0  0  0  0
  -44.2345   56.8761   65.6022 C   0  0  0  0  0  0  0  0  0  0  0  0
  -45.7066   57.1791   65.8709 C   0  0  0  0  0  0  0  0  0  0  0  0
  -46.4179   57.9973   64.8206 C   0  0  0  0  0  0  0  0  0  0  0  0
  -46.6452   59.3906   65.3976 C   0  0  0  0  0  0  0  0  0  0  0  0
  -48.1331   59.7398   65.5354 C   0  0  0  0  0  0  0  0  0  0  0  0
  -49.0255   58.5538   65.9448 C   0  0  0  0  0  0  0  0  0  0  0  0
  -50.4534   58.6480   65.3636 C   0  0  0  0  0  0  0  0  0  0  0  0
  -50.5061   59.6687   64.2232 C   0  0  0  0  0  0  0  0  0  0  0  0
  -51.1594   59.1694   62.9403 C   0  0  0  0  0  0  0  0  0  0  0  0
  -50.4025   58.0025   62.3233 C   0  0  0  0  0  0  0  0  0  0  0  0
  -51.0429   57.3653   61.0879 C   0  0  0  0  0  0  0  0  0  0  0  0
  -49.9282   56.8794   60.1714 C   0  0  0  0  0  0  0  0  0  0  0  0
  -48.5626   57.5432   60.2689 C   0  0  0  0  0  0  0  0  0  0  0  0
  -47.5765   56.9222   59.2669 C   0  0  0  0  0  0  0  0  0  0  0  0
  -47.0059   57.9126   58.2351 C   0  0  0  0  0  0  0  0  0  0  0  0
  -45.4796   57.9510   58.2145 C   0  0  0  0  0  0  0  0  0  0  0  0
  -38.0135   58.0446   65.2445 O   0  0  0  0  0  0  0  0  0  0  0  0
  -39.1606   57.5849   64.5540 C   0  0  0  0  0  0  0  0  0  0  0  0
  -38.2445   58.2283   66.1686 H   0  0  0  0  0  0  0  0  0  0  0  0
  -38.8638   57.2757   63.0848 C   0  0  0  0  0  0  0  0  0  0  0  0
  -38.1042   58.0680   62.3090 C   0  0  0  0  0  0  0  0  0  0  0  0
  -37.8551   57.6904   60.8501 C   0  0  0  0  0  0  0  0  0  0  0  0
  -37.9760   58.8692   59.8734 C   0  0  0  0  0  0  0  0  0  0  0  0
  -37.1421   58.7546   58.5840 C   0  0  0  0  0  0  0  0  0  0  0  0
  -37.4695   57.4415   57.8330 C   0  0  0  0  0  0  0  0  0  0  0  0
  -36.3062   56.4214   57.7455 C   0  0  0  0  0  0  0  0  0  0  0  0
  -36.5006   55.1622   58.6225 C   0  0  0  0  0  0  0  0  0  0  0  0
  -35.4660   55.0373   59.7619 C   0  0  0  0  0  0  0  0  0  0  0  0
  -34.1304   55.7283   59.4620 C   0  0  0  0  0  0  0  0  0  0  0  0
  -33.9138   57.0870   60.1249 C   0  0  0  0  0  0  0  0  0  0  0  0
  -34.1335   57.0810   61.6506 C   0  0  0  0  0  0  0  0  0  0  0  0
  -33.7645   58.3871   62.3704 C   0  0  0  0  0  0  0  0  0  0  0  0
  -34.7147   58.6576   63.5404 C   0  0  0  0  0  0  0  0  0  0  0  0
  -34.3361   58.0393   64.8745 C   0  0  0  0  0  0  0  0  0  0  0  0
  -39.5874   60.1045   65.0969 C   0  0  0  0  0  0  0  0  0  0  0  0
  -38.8048   60.8456   64.1264 O   0  0  0  0  0  0  0  0  0  0  0  0
  -36.7650   61.2353   62.1605 O   0  0  0  0  0  0  0  0  0  0  0  0
  -35.7298   64.4356   64.6273 O   0  0  0  0  0  0  0  0  0  0  0  0
  -37.3069   62.0472   65.6090 O   0  0  0  0  0  0  0  0  0  0  0  0
  -37.4111   61.2423   64.4095 C   0  0  0  0  0  0  0  0  0  0  0  0
  -36.6951   62.0309   63.3035 C   0  0  0  0  0  0  0  0  0  0  0  0
  -35.2075   62.3140   63.6071 C   0  0  0  0  0  0  0  0  0  0  0  0
  -35.1847   63.1398   64.8636 C   0  0  0  0  0  0  0  0  0  0  0  0
  -35.9489   62.4242   65.9627 C   0  0  0  0  0  0  0  0  0  0  0  0
  -37.6939   61.0469   61.9541 H   0  0  0  0  0  0  0  0  0  0  0  0
  -35.2275   64.8743   63.9229 H   0  0  0  0  0  0  0  0  0  0  0  0
  -36.9381   64.2423   67.1584 O   0  0  0  0  0  0  0  0  0  0  0  0
  -35.8143   63.4150   67.1169 C   0  0  0  0  0  0  0  0  0  0  0  0
  -36.8502   64.8705   67.8921 H   0  0  0  0  0  0  0  0  0  0  0  0
  -34.4911   63.0783   62.6108 O   0  0  0  0  0  0  0  0  0  0  0  0
  -32.4059   63.9298   61.3285 O   0  0  0  0  0  0  0  0  0  0  0  0
  -32.4563   61.6470   62.1503 O   0  0  0  0  0  0  0  0  0  0  0  0
  -32.1106   63.4888   63.6874 O   0  0  0  0  0  0  0  0  0  0  0  0
  -32.8333   63.0531   62.4589 S   0  0  0  0  0  0  0  0  0  0  0  0
  -32.8669   63.6608   60.5186 H   0  0  0  0  0  0  0  0  0  0  0  0
  -32.3506   64.4052   63.8960 H   0  0  0  0  0  0  0  0  0  0  0  0
  2  1  1  0  0  0
  2  4  1  0  0  0
  2  5  1  0  0  0
 41 42  1  0  0  0
 41  1  1  0  0  0
 42 46  1  0  0  0
  1 24  1  0  0  0
 23 24  1  0  0  0
 23 25  1  0  0  0
 24 26  1  0  0  0
  3  4  2  0  0  0
 26 27  2  0  0  0
 27 28  1  0  0  0
 43 47  1  0  0  0
 43 51  1  0  0  0
 28 29  1  0  0  0
 56 48  1  0  0  0
 56 60  1  0  0  0
 29 30  1  0  0  0
 57 60  1  0  0  0
 57 61  1  0  0  0
 30 31  1  0  0  0
 44 49  1  0  0  0
 44 52  1  0  0  0
 31 32  1  0  0  0
 45 46  1  0  0  0
 45 50  1  0  0  0
 32 33  1  0  0  0
 53 54  1  0  0  0
 53 55  1  0  0  0
 33 34  1  0  0  0
 34 35  1  0  0  0
 35 36  1  0  0  0
 58 60  1  0  0  0
 36 37  1  0  0  0
 59 60  1  0  0  0
 59 62  1  0  0  0
 37 38  1  0  0  0
 38 39  1  0  0  0
 39 40  1  0  0  0
  4  6  1  0  0  0
  6  7  1  0  0  0
  7  8  1  0  0  0
  8  9  1  0  0  0
  9 10  1  0  0  0
 10 11  1  0  0  0
 11 12  1  0  0  0
 12 13  1  0  0  0
 13 14  1  0  0  0
 14 15  1  0  0  0
 15 16  1  0  0  0
 16 17  1  0  0  0
 17 18  1  0  0  0
 18 19  1  0  0  0
 19 20  1  0  0  0
 20 21  1  0  0  0
 21 22  1  0  0  0
 46 47  1  0  0  0
 47 48  1  0  0  0
 48 49  1  0  0  0
 49 50  1  0  0  0
 50 54  1  0  0  0
M  CHG 1  58  -1
M  END
> <minimizedAffinity>
-10.16572

> <CNNscore>
0.3234468400

> <CNNaffinity>
7.1686668396

> <CNN_VS>
2.3186826706

> <CNNaffinity_variance>
1.4796411991

$$$$
/media/chris/experiments/cd1a-new-docking/inputs/ligands/1onq_ligand.pdb


 62 62  0  0  0  0  0  0  0  0999 V2000
  -38.5456   59.6683   60.4783 C   0  0  0  0  0  0  0  0  0  0  0  0
  -38.1598   58.9716   59.2672 N   0  0  0  0  0  0  0  0  0  0  0  0
  -37.3394   57.0199   60.0830 O   0  0  0  0  0  0  0  0  0  0  0  0
  -37.6098   57.7550   59.1533 C   0  0  0  0  0  0  0  0  0  0  0  0
  -38.3219   59.4520   58.4233 H   0  0  0  0  0  0  0  0  0  0  0  0
  -37.3336   57.3091   57.7480 C   0  0  0  0  0  0  0  0  0  0  0  0
  -36.1402   56.3565   57.8224 C   0  0  0  0  0  0  0  0  0  0  0  0
  -34.8370   57.1520   57.8206 C   0  0  0  0  0  0  0  0  0  0  0  0
  -33.7049   56.5726   58.6337 C   0  0  0  0  0  0  0  0  0  0  0  0
  -34.3119   55.6078   59.6469 C   0  0  0  0  0  0  0  0  0  0  0  0
  -34.2380   56.1354   61.0860 C   0  0  0  0  0  0  0  0  0  0  0  0
  -33.6270   57.5429   61.2127 C   0  0  0  0  0  0  0  0  0  0  0  0
  -33.4426   57.9876   62.6802 C   0  0  0  0  0  0  0  0  0  0  0  0
  -34.7567   58.5297   63.2495 C   0  0  0  0  0  0  0  0  0  0  0  0
  -35.3830   57.6798   64.3483 C   0  0  0  0  0  0  0  0  0  0  0  0
  -36.8654   57.9710   64.5292 C   0  0  0  0  0  0  0  0  0  0  0  0
  -37.7724   57.5890   63.3571 C   0  0  0  0  0  0  0  0  0  0  0  0
  -39.2067   57.5301   63.8651 C   0  0  0  0  0  0  0  0  0  0  0  0
  -39.8493   58.8076   64.3847 C   0  0  0  0  0  0  0  0  0  0  0  0
  -41.0168   58.4897   65.3324 C   0  0  0  0  0  0  0  0  0  0  0  0
  -41.5126   59.6900   66.1598 C   0  0  0  0  0  0  0  0  0  0  0  0
  -42.4419   59.2921   67.3042 C   0  0  0  0  0  0  0  0  0  0  0  0
  -40.6654   60.3325   61.1575 O   0  0  0  0  0  0  0  0  0  0  0  0
  -39.7938   60.4182   60.0455 C   0  0  0  0  0  0  0  0  0  0  0  0
  -40.2569   60.7668   61.9227 H   0  0  0  0  0  0  0  0  0  0  0  0
  -40.3805   59.7495   58.8000 C   0  0  0  0  0  0  0  0  0  0  0  0
  -41.7017   59.6651   58.5684 C   0  0  0  0  0  0  0  0  0  0  0  0
  -42.2091   58.9805   57.3007 C   0  0  0  0  0  0  0  0  0  0  0  0
  -43.7089   58.6518   57.3293 C   0  0  0  0  0  0  0  0  0  0  0  0
  -44.2353   58.0546   58.6475 C   0  0  0  0  0  0  0  0  0  0  0  0
  -45.7805   57.9673   58.6325 C   0  0  0  0  0  0  0  0  0  0  0  0
  -46.4052   57.5220   57.2860 C   0  0  0  0  0  0  0  0  0  0  0  0
  -47.7534   56.7772   57.4288 C   0  0  0  0  0  0  0  0  0  0  0  0
  -48.2373   56.6506   58.8897 C   0  0  0  0  0  0  0  0  0  0  0  0
  -49.6618   57.1712   59.1159 C   0  0  0  0  0  0  0  0  0  0  0  0
  -49.8521   58.1117   60.3040 C   0  0  0  0  0  0  0  0  0  0  0  0
  -50.8768   57.6108   61.3408 C   0  0  0  0  0  0  0  0  0  0  0  0
  -51.1381   58.5644   62.5166 C   0  0  0  0  0  0  0  0  0  0  0  0
  -50.0189   58.4734   63.5578 C   0  0  0  0  0  0  0  0  0  0  0  0
  -50.4527   58.4060   65.0113 C   0  0  0  0  0  0  0  0  0  0  0  0
  -37.4294   60.4968   61.1540 C   0  0  0  0  0  0  0  0  0  0  0  0
  -37.8185   61.2950   62.3007 O   0  0  0  0  0  0  0  0  0  0  0  0
  -35.8962   63.3948   62.0308 O   0  0  0  0  0  0  0  0  0  0  0  0
  -36.8813   64.1000   66.0222 O   0  0  0  0  0  0  0  0  0  0  0  0
  -37.3141   61.4279   64.6700 O   0  0  0  0  0  0  0  0  0  0  0  0
  -36.8344   61.6887   63.3286 C   0  0  0  0  0  0  0  0  0  0  0  0
  -36.3920   63.1590   63.3125 C   0  0  0  0  0  0  0  0  0  0  0  0
  -35.2770   63.4826   64.3310 C   0  0  0  0  0  0  0  0  0  0  0  0
  -35.8467   63.1777   65.6889 C   0  0  0  0  0  0  0  0  0  0  0  0
  -36.3637   61.7509   65.7206 C   0  0  0  0  0  0  0  0  0  0  0  0
  -36.5842   63.1965   61.3764 H   0  0  0  0  0  0  0  0  0  0  0  0
  -36.5298   65.0037   65.9959 H   0  0  0  0  0  0  0  0  0  0  0  0
  -36.0960   62.4216   67.9993 O   0  0  0  0  0  0  0  0  0  0  0  0
  -36.8953   61.6553   67.1490 C   0  0  0  0  0  0  0  0  0  0  0  0
  -36.4357   62.3592   68.9056 H   0  0  0  0  0  0  0  0  0  0  0  0
  -34.8412   64.8602   64.3781 O   0  0  0  0  0  0  0  0  0  0  0  0
  -32.3628   64.1162   64.5244 O   0  0  0  0  0  0  0  0  0  0  0  0
  -33.1776   65.8627   65.9994 O   0  0  0  0  0  0  0  0  0  0  0  0
  -32.7686   66.3367   63.6579 O   0  0  0  0  0  0  0  0  0  0  0  0
  -33.2562   65.3085   64.6205 S   0  0  0  0  0  0  0  0  0  0  0  0
  -32.6653   63.4348   65.1450 H   0  0  0  0  0  0  0  0  0  0  0  0
  -32.8164   65.9836   62.7557 H   0  0  0  0  0  0  0  0  0  0  0  0
  2  1  1  0  0  0
  2  4  1  0  0  0
  2  5  1  0  0  0
 41 42  1  0  0  0
 41  1  1  0  0  0
 42 46  1  0  0  0
  1 24  1  0  0  0
 23 24  1  0  0  0
 23 25  1  0  0  0
 24 26  1  0  0  0
  3  4  2  0  0  0
 26 27  2  0  0  0
 27 28  1  0  0  0
 43 47  1  0  0  0
 43 51  1  0  0  0
 28 29  1  0  0  0
 56 48  1  0  0  0
 56 60  1  0  0  0
 29 30  1  0  0  0
 57 60  1  0  0  0
 57 61  1  0  0  0
 30 31  1  0  0  0
 44 49  1  0  0  0
 44 52  1  0  0  0
 31 32  1  0  0  0
 45 46  1  0  0  0
 45 50  1  0  0  0
 32 33  1  0  0  0
 53 54  1  0  0  0
 53 55  1  0  0  0
 33 34  1  0  0  0
 34 35  1  0  0  0
 35 36  1  0  0  0
 58 60  1  0  0  0
 36 37  1  0  0  0
 59 60  1  0  0  0
 59 62  1  0  0  0
 37 38  1  0  0  0
 38 39  1  0  0  0
 39 40  1  0  0  0
  4  6  1  0  0  0
  6  7  1  0  0  0
  7  8  1  0  0  0
  8  9  1  0  0  0
  9 10  1  0  0  0
 10 11  1  0  0  0
 11 12  1  0  0  0
 12 13  1  0  0  0
 13 14  1  0  0  0
 14 15  1  0  0  0
 15 16  1  0  0  0
 16 17  1  0  0  0
 17 18  1  0  0  0
 18 19  1  0  0  0
 19 20  1  0  0  0
 20 21  1  0  0  0
 21 22  1  0  0  0
 46 47  1  0  0  0
 47 48  1  0  0  0
 48 49  1  0  0  0
 49 50  1  0  0  0
 50 54  1  0  0  0
M  CHG 1  58  -1
M  END
> <minimizedAffinity>
-9.14385

> <CNNscore>
0.2994831800

> <CNNaffinity>
6.9266142845

> <CNN_VS>
2.0744044781

> <CNNaffinity_variance>
1.0745513439

$$$$
/media/chris/experiments/cd1a-new-docking/inputs/ligands/1onq_ligand.pdb


 62 62  0  0  0  0  0  0  0  0999 V2000
  -34.3909   58.1518   62.4530 C   0  0  0  0  0  0  0  0  0  0  0  0
  -35.5478   57.6676   63.1800 N   0  0  0  0  0  0  0  0  0  0  0  0
  -36.9333   59.4632   63.1177 O   0  0  0  0  0  0  0  0  0  0  0  0
  -36.6859   58.3208   63.4516 C   0  0  0  0  0  0  0  0  0  0  0  0
  -35.4901   56.7440   63.5160 H   0  0  0  0  0  0  0  0  0  0  0  0
  -37.7040   57.5342   64.2226 C   0  0  0  0  0  0  0  0  0  0  0  0
  -39.0400   57.7360   63.5073 C   0  0  0  0  0  0  0  0  0  0  0  0
  -40.0317   58.4271   64.4400 C   0  0  0  0  0  0  0  0  0  0  0  0
  -40.7929   59.5914   63.8539 C   0  0  0  0  0  0  0  0  0  0  0  0
  -42.1007   59.7233   64.6273 C   0  0  0  0  0  0  0  0  0  0  0  0
  -42.1851   58.7593   65.8181 C   0  0  0  0  0  0  0  0  0  0  0  0
  -43.6204   58.4572   66.2863 C   0  0  0  0  0  0  0  0  0  0  0  0
  -44.0237   56.9816   66.0727 C   0  0  0  0  0  0  0  0  0  0  0  0
  -45.4450   56.8861   65.5110 C   0  0  0  0  0  0  0  0  0  0  0  0
  -45.7876   57.9185   64.4438 C   0  0  0  0  0  0  0  0  0  0  0  0
  -47.1462   58.5621   64.6782 C   0  0  0  0  0  0  0  0  0  0  0  0
  -47.6531   58.5528   66.1222 C   0  0  0  0  0  0  0  0  0  0  0  0
  -49.1054   59.0106   66.1195 C   0  0  0  0  0  0  0  0  0  0  0  0
  -50.0859   58.3201   65.1833 C   0  0  0  0  0  0  0  0  0  0  0  0
  -50.8872   59.3490   64.3700 C   0  0  0  0  0  0  0  0  0  0  0  0
  -50.5500   59.3782   62.8678 C   0  0  0  0  0  0  0  0  0  0  0  0
  -50.9849   58.1160   62.1266 C   0  0  0  0  0  0  0  0  0  0  0  0
  -32.4130   57.2222   61.6660 O   0  0  0  0  0  0  0  0  0  0  0  0
  -33.7530   56.8672   61.9527 C   0  0  0  0  0  0  0  0  0  0  0  0
  -31.9773   57.5233   62.4788 H   0  0  0  0  0  0  0  0  0  0  0  0
  -34.4998   56.3816   60.7082 C   0  0  0  0  0  0  0  0  0  0  0  0
  -34.7120   57.1586   59.6323 C   0  0  0  0  0  0  0  0  0  0  0  0
  -35.4678   56.6000   58.4282 C   0  0  0  0  0  0  0  0  0  0  0  0
  -36.9076   57.1189   58.3024 C   0  0  0  0  0  0  0  0  0  0  0  0
  -37.4876   57.7874   59.5625 C   0  0  0  0  0  0  0  0  0  0  0  0
  -38.1286   59.1525   59.2145 C   0  0  0  0  0  0  0  0  0  0  0  0
  -39.0924   59.7233   60.2854 C   0  0  0  0  0  0  0  0  0  0  0  0
  -40.4429   60.2230   59.7202 C   0  0  0  0  0  0  0  0  0  0  0  0
  -40.8869   59.4852   58.4385 C   0  0  0  0  0  0  0  0  0  0  0  0
  -42.3916   59.5821   58.1598 C   0  0  0  0  0  0  0  0  0  0  0  0
  -42.9499   58.5946   57.1373 C   0  0  0  0  0  0  0  0  0  0  0  0
  -44.4467   58.2781   57.3255 C   0  0  0  0  0  0  0  0  0  0  0  0
  -44.8798   57.9977   58.7725 C   0  0  0  0  0  0  0  0  0  0  0  0
  -46.1409   57.1298   58.8107 C   0  0  0  0  0  0  0  0  0  0  0  0
  -47.4675   57.8618   58.7130 C   0  0  0  0  0  0  0  0  0  0  0  0
  -33.4800   59.1312   63.2276 C   0  0  0  0  0  0  0  0  0  0  0  0
  -32.9401   60.2472   62.4750 O   0  0  0  0  0  0  0  0  0  0  0  0
  -34.8280   61.0347   64.4732 O   0  0  0  0  0  0  0  0  0  0  0  0
  -32.0295   64.0448   65.1850 O   0  0  0  0  0  0  0  0  0  0  0  0
  -32.2134   62.5604   62.5547 O   0  0  0  0  0  0  0  0  0  0  0  0
  -33.3031   61.6398   62.8047 C   0  0  0  0  0  0  0  0  0  0  0  0
  -33.7548   61.8963   64.2497 C   0  0  0  0  0  0  0  0  0  0  0  0
  -34.2333   63.3428   64.5026 C   0  0  0  0  0  0  0  0  0  0  0  0
  -33.0555   64.2319   64.2131 C   0  0  0  0  0  0  0  0  0  0  0  0
  -32.5331   63.9537   62.8153 C   0  0  0  0  0  0  0  0  0  0  0  0
  -34.5455   60.1196   64.3188 H   0  0  0  0  0  0  0  0  0  0  0  0
  -32.3844   64.2274   66.0691 H   0  0  0  0  0  0  0  0  0  0  0  0
  -31.7004   66.1241   63.3717 O   0  0  0  0  0  0  0  0  0  0  0  0
  -31.3620   64.9303   62.7320 C   0  0  0  0  0  0  0  0  0  0  0  0
  -30.9551   66.7425   63.3174 H   0  0  0  0  0  0  0  0  0  0  0  0
  -34.6443   63.6477   65.8546 O   0  0  0  0  0  0  0  0  0  0  0  0
  -35.9377   62.2219   67.5900 O   0  0  0  0  0  0  0  0  0  0  0  0
  -36.8742   62.5526   65.3757 O   0  0  0  0  0  0  0  0  0  0  0  0
  -36.9218   64.3503   67.0006 O   0  0  0  0  0  0  0  0  0  0  0  0
  -36.1218   63.2049   66.4815 S   0  0  0  0  0  0  0  0  0  0  0  0
  -35.4179   61.4678   67.2703 H   0  0  0  0  0  0  0  0  0  0  0  0
  -36.4384   64.7817   67.7225 H   0  0  0  0  0  0  0  0  0  0  0  0
  2  1  1  0  0  0
  2  4  1  0  0  0
  2  5  1  0  0  0
 41 42  1  0  0  0
 41  1  1  0  0  0
 42 46  1  0  0  0
  1 24  1  0  0  0
 23 24  1  0  0  0
 23 25  1  0  0  0
 24 26  1  0  0  0
  3  4  2  0  0  0
 26 27  2  0  0  0
 27 28  1  0  0  0
 43 47  1  0  0  0
 43 51  1  0  0  0
 28 29  1  0  0  0
 56 48  1  0  0  0
 56 60  1  0  0  0
 29 30  1  0  0  0
 57 60  1  0  0  0
 57 61  1  0  0  0
 30 31  1  0  0  0
 44 49  1  0  0  0
 44 52  1  0  0  0
 31 32  1  0  0  0
 45 46  1  0  0  0
 45 50  1  0  0  0
 32 33  1  0  0  0
 53 54  1  0  0  0
 53 55  1  0  0  0
 33 34  1  0  0  0
 34 35  1  0  0  0
 35 36  1  0  0  0
 58 60  1  0  0  0
 36 37  1  0  0  0
 59 60  1  0  0  0
 59 62  1  0  0  0
 37 38  1  0  0  0
 38 39  1  0  0  0
 39 40  1  0  0  0
  4  6  1  0  0  0
  6  7  1  0  0  0
  7  8  1  0  0  0
  8  9  1  0  0  0
  9 10  1  0  0  0
 10 11  1  0  0  0
 11 12  1  0  0  0
 12 13  1  0  0  0
 13 14  1  0  0  0
 14 15  1  0  0  0
 15 16  1  0  0  0
 16 17  1  0  0  0
 17 18  1  0  0  0
 18 19  1  0  0  0
 19 20  1  0  0  0
 20 21  1  0  0  0
 21 22  1  0  0  0
 46 47  1  0  0  0
 47 48  1  0  0  0
 48 49  1  0  0  0
 49 50  1  0  0  0
 50 54  1  0  0  0
M  CHG 1  58  -1
M  END
> <minimizedAffinity>
-8.72093

> <CNNscore>
0.2940672636

> <CNNaffinity>
6.9739789963

> <CNN_VS>
2.0508189201

> <CNNaffinity_variance>
1.2428699732

$$$$
/media/chris/experiments/cd1a-new-docking/inputs/ligands/1onq_ligand.pdb


 62 62  0  0  0  0  0  0  0  0999 V2000
  -40.0145   59.1191   64.7492 C   0  0  0  0  0  0  0  0  0  0  0  0
  -41.0473   58.5537   65.5946 N   0  0  0  0  0  0  0  0  0  0  0  0
  -42.8700   59.7620   64.9901 O   0  0  0  0  0  0  0  0  0  0  0  0
  -42.3419   58.8939   65.6575 C   0  0  0  0  0  0  0  0  0  0  0  0
  -40.7622   57.8296   66.1976 H   0  0  0  0  0  0  0  0  0  0  0  0
  -43.1611   58.1071   66.6371 C   0  0  0  0  0  0  0  0  0  0  0  0
  -43.6266   56.8502   65.9017 C   0  0  0  0  0  0  0  0  0  0  0  0
  -45.1386   56.8971   65.6947 C   0  0  0  0  0  0  0  0  0  0  0  0
  -45.6273   57.7787   64.5712 C   0  0  0  0  0  0  0  0  0  0  0  0
  -46.7015   58.6990   65.1414 C   0  0  0  0  0  0  0  0  0  0  0  0
  -47.6175   57.9892   66.1474 C   0  0  0  0  0  0  0  0  0  0  0  0
  -49.0861   57.8809   65.6980 C   0  0  0  0  0  0  0  0  0  0  0  0
  -49.4469   58.8817   64.5784 C   0  0  0  0  0  0  0  0  0  0  0  0
  -50.7785   58.5030   63.9240 C   0  0  0  0  0  0  0  0  0  0  0  0
  -50.9399   58.9592   62.4790 C   0  0  0  0  0  0  0  0  0  0  0  0
  -50.0285   58.1976   61.5280 C   0  0  0  0  0  0  0  0  0  0  0  0
  -50.7274   57.3770   60.4415 C   0  0  0  0  0  0  0  0  0  0  0  0
  -49.7266   57.1175   59.3236 C   0  0  0  0  0  0  0  0  0  0  0  0
  -48.3853   56.4918   59.6764 C   0  0  0  0  0  0  0  0  0  0  0  0
  -47.6788   55.9605   58.4191 C   0  0  0  0  0  0  0  0  0  0  0  0
  -47.2875   57.0461   57.3996 C   0  0  0  0  0  0  0  0  0  0  0  0
  -46.1067   57.9021   57.8521 C   0  0  0  0  0  0  0  0  0  0  0  0
  -39.9896   56.7974   64.8170 O   0  0  0  0  0  0  0  0  0  0  0  0
  -39.2840   57.8849   64.2486 C   0  0  0  0  0  0  0  0  0  0  0  0
  -40.9052   56.8031   64.4966 H   0  0  0  0  0  0  0  0  0  0  0  0
  -37.8271   57.9341   64.7150 C   0  0  0  0  0  0  0  0  0  0  0  0
  -36.8241   57.3400   64.0461 C   0  0  0  0  0  0  0  0  0  0  0  0
  -35.3952   57.4342   64.5777 C   0  0  0  0  0  0  0  0  0  0  0  0
  -34.6341   58.6786   64.0979 C   0  0  0  0  0  0  0  0  0  0  0  0
  -34.2523   58.6925   62.6062 C   0  0  0  0  0  0  0  0  0  0  0  0
  -32.8570   58.0584   62.3904 C   0  0  0  0  0  0  0  0  0  0  0  0
  -32.8571   56.6911   61.6610 C   0  0  0  0  0  0  0  0  0  0  0  0
  -34.2681   56.1442   61.3406 C   0  0  0  0  0  0  0  0  0  0  0  0
  -34.5947   56.1242   59.8315 C   0  0  0  0  0  0  0  0  0  0  0  0
  -36.0903   55.9803   59.5250 C   0  0  0  0  0  0  0  0  0  0  0  0
  -37.0446   56.6629   60.5026 C   0  0  0  0  0  0  0  0  0  0  0  0
  -37.1942   58.1800   60.2749 C   0  0  0  0  0  0  0  0  0  0  0  0
  -38.4572   58.8116   60.8800 C   0  0  0  0  0  0  0  0  0  0  0  0
  -38.8536   60.0822   60.1227 C   0  0  0  0  0  0  0  0  0  0  0  0
  -40.3116   60.1978   59.7147 C   0  0  0  0  0  0  0  0  0  0  0  0
  -39.1547   60.2269   65.3991 C   0  0  0  0  0  0  0  0  0  0  0  0
  -38.4723   61.1323   64.4947 O   0  0  0  0  0  0  0  0  0  0  0  0
  -36.5423   61.5469   62.4258 O   0  0  0  0  0  0  0  0  0  0  0  0
  -35.3291   64.6745   64.9048 O   0  0  0  0  0  0  0  0  0  0  0  0
  -36.8781   62.2807   65.9177 O   0  0  0  0  0  0  0  0  0  0  0  0
  -37.0600   61.5064   64.7074 C   0  0  0  0  0  0  0  0  0  0  0  0
  -36.3979   62.3136   63.5814 C   0  0  0  0  0  0  0  0  0  0  0  0
  -34.8921   62.5726   63.8066 C   0  0  0  0  0  0  0  0  0  0  0  0
  -34.7878   63.3674   65.0790 C   0  0  0  0  0  0  0  0  0  0  0  0
  -35.4976   62.6338   66.2025 C   0  0  0  0  0  0  0  0  0  0  0  0
  -37.4836   61.3740   62.2682 H   0  0  0  0  0  0  0  0  0  0  0  0
  -34.8620   65.1245   64.1835 H   0  0  0  0  0  0  0  0  0  0  0  0
  -36.5219   64.0392   67.8424 O   0  0  0  0  0  0  0  0  0  0  0  0
  -35.2856   63.5947   67.3703 C   0  0  0  0  0  0  0  0  0  0  0  0
  -36.3844   64.6492   68.5839 H   0  0  0  0  0  0  0  0  0  0  0  0
  -34.2236   63.3529   62.7896 O   0  0  0  0  0  0  0  0  0  0  0  0
  -32.2363   64.0905   61.2983 O   0  0  0  0  0  0  0  0  0  0  0  0
  -32.4017   61.7778   62.0145 O   0  0  0  0  0  0  0  0  0  0  0  0
  -31.7034   63.4918   63.5794 O   0  0  0  0  0  0  0  0  0  0  0  0
  -32.6056   63.1916   62.4316 S   0  0  0  0  0  0  0  0  0  0  0  0
  -32.8142   63.9094   60.5405 H   0  0  0  0  0  0  0  0  0  0  0  0
  -31.8298   64.4123   63.8580 H   0  0  0  0  0  0  0  0  0  0  0  0
  2  1  1  0  0  0
  2  4  1  0  0  0
  2  5  1  0  0  0
 41 42  1  0  0  0
 41  1  1  0  0  0
 42 46  1  0  0  0
  1 24  1  0  0  0
 23 24  1  0  0  0
 23 25  1  0  0  0
 24 26  1  0  0  0
  3  4  2  0  0  0
 26 27  2  0  0  0
 27 28  1  0  0  0
 43 47  1  0  0  0
 43 51  1  0  0  0
 28 29  1  0  0  0
 56 48  1  0  0  0
 56 60  1  0  0  0
 29 30  1  0  0  0
 57 60  1  0  0  0
 57 61  1  0  0  0
 30 31  1  0  0  0
 44 49  1  0  0  0
 44 52  1  0  0  0
 31 32  1  0  0  0
 45 46  1  0  0  0
 45 50  1  0  0  0
 32 33  1  0  0  0
 53 54  1  0  0  0
 53 55  1  0  0  0
 33 34  1  0  0  0
 34 35  1  0  0  0
 35 36  1  0  0  0
 58 60  1  0  0  0
 36 37  1  0  0  0
 59 60  1  0  0  0
 59 62  1  0  0  0
 37 38  1  0  0  0
 38 39  1  0  0  0
 39 40  1  0  0  0
  4  6  1  0  0  0
  6  7  1  0  0  0
  7  8  1  0  0  0
  8  9  1  0  0  0
  9 10  1  0  0  0
 10 11  1  0  0  0
 11 12  1  0  0  0
 12 13  1  0  0  0
 13 14  1  0  0  0
 14 15  1  0  0  0
 15 16  1  0  0  0
 16 17  1  0  0  0
 17 18  1  0  0  0
 18 19  1  0  0  0
 19 20  1  0  0  0
 20 21  1  0  0  0
 21 22  1  0  0  0
 46 47  1  0  0  0
 47 48  1  0  0  0
 48 49  1  0  0  0
 49 50  1  0  0  0
 50 54  1  0  0  0
M  CHG 1  58  -1
M  END
> <minimizedAffinity>
-9.75710

> <CNNscore>
0.2834652364

> <CNNaffinity>
7.3659620285

> <CNN_VS>
2.0879940987

> <CNNaffinity_variance>
1.2232868671

$$$$
/media/chris/experiments/cd1a-new-docking/inputs/ligands/1onq_ligand.pdb


 62 62  0  0  0  0  0  0  0  0999 V2000
  -39.9911   59.0594   64.4911 C   0  0  0  0  0  0  0  0  0  0  0  0
  -39.9756   59.2660   63.0564 N   0  0  0  0  0  0  0  0  0  0  0  0
  -40.8434   61.3538   62.8680 O   0  0  0  0  0  0  0  0  0  0  0  0
  -40.3818   60.3443   62.3724 C   0  0  0  0  0  0  0  0  0  0  0  0
  -39.6228   58.5214   62.5176 H   0  0  0  0  0  0  0  0  0  0  0  0
  -40.2262   60.2508   60.8835 C   0  0  0  0  0  0  0  0  0  0  0  0
  -38.7864   59.8063   60.6254 C   0  0  0  0  0  0  0  0  0  0  0  0
  -38.6455   59.3020   59.1911 C   0  0  0  0  0  0  0  0  0  0  0  0
  -37.2637   58.8577   58.7770 C   0  0  0  0  0  0  0  0  0  0  0  0
  -37.4170   57.5844   57.9517 C   0  0  0  0  0  0  0  0  0  0  0  0
  -36.3118   56.5580   58.2342 C   0  0  0  0  0  0  0  0  0  0  0  0
  -34.8973   57.0308   57.8519 C   0  0  0  0  0  0  0  0  0  0  0  0
  -33.7838   56.1833   58.5055 C   0  0  0  0  0  0  0  0  0  0  0  0
  -34.0107   56.0652   60.0153 C   0  0  0  0  0  0  0  0  0  0  0  0
  -33.6770   57.3169   60.8176 C   0  0  0  0  0  0  0  0  0  0  0  0
  -32.8339   57.0077   62.0459 C   0  0  0  0  0  0  0  0  0  0  0  0
  -32.7850   58.0985   63.1183 C   0  0  0  0  0  0  0  0  0  0  0  0
  -34.2068   58.5822   63.3701 C   0  0  0  0  0  0  0  0  0  0  0  0
  -35.0093   57.9360   64.4897 C   0  0  0  0  0  0  0  0  0  0  0  0
  -36.2520   57.2222   63.9342 C   0  0  0  0  0  0  0  0  0  0  0  0
  -36.6803   57.6860   62.5297 C   0  0  0  0  0  0  0  0  0  0  0  0
  -37.6834   56.7471   61.8635 C   0  0  0  0  0  0  0  0  0  0  0  0
  -41.0875   60.6611   65.7672 O   0  0  0  0  0  0  0  0  0  0  0  0
  -41.3597   59.5867   64.8866 C   0  0  0  0  0  0  0  0  0  0  0  0
  -40.5834   61.3441   65.2977 H   0  0  0  0  0  0  0  0  0  0  0  0
  -42.1556   58.4707   65.5674 C   0  0  0  0  0  0  0  0  0  0  0  0
  -43.4984   58.4159   65.5530 C   0  0  0  0  0  0  0  0  0  0  0  0
  -44.2201   57.2686   66.2574 C   0  0  0  0  0  0  0  0  0  0  0  0
  -45.6433   57.6178   66.7162 C   0  0  0  0  0  0  0  0  0  0  0  0
  -46.4088   58.6078   65.8189 C   0  0  0  0  0  0  0  0  0  0  0  0
  -47.5486   57.8899   65.0567 C   0  0  0  0  0  0  0  0  0  0  0  0
  -48.7855   57.5176   65.9129 C   0  0  0  0  0  0  0  0  0  0  0  0
  -50.0521   58.3443   65.5890 C   0  0  0  0  0  0  0  0  0  0  0  0
  -50.0054   59.0297   64.2061 C   0  0  0  0  0  0  0  0  0  0  0  0
  -50.8692   58.3382   63.1445 C   0  0  0  0  0  0  0  0  0  0  0  0
  -50.4528   58.5596   61.6919 C   0  0  0  0  0  0  0  0  0  0  0  0
  -50.7617   57.3682   60.7639 C   0  0  0  0  0  0  0  0  0  0  0  0
  -49.8737   57.2640   59.5146 C   0  0  0  0  0  0  0  0  0  0  0  0
  -48.4614   57.7834   59.7989 C   0  0  0  0  0  0  0  0  0  0  0  0
  -47.3165   56.9960   59.1866 C   0  0  0  0  0  0  0  0  0  0  0  0
  -38.7740   59.6244   65.2581 C   0  0  0  0  0  0  0  0  0  0  0  0
  -38.3609   60.9719   64.9163 O   0  0  0  0  0  0  0  0  0  0  0  0
  -36.4907   61.0516   62.7546 O   0  0  0  0  0  0  0  0  0  0  0  0
  -35.2589   64.5630   64.6391 O   0  0  0  0  0  0  0  0  0  0  0  0
  -36.7471   62.3586   66.0818 O   0  0  0  0  0  0  0  0  0  0  0  0
  -36.9490   61.3901   65.0241 C   0  0  0  0  0  0  0  0  0  0  0  0
  -36.3276   62.0030   63.7607 C   0  0  0  0  0  0  0  0  0  0  0  0
  -34.8203   62.3108   63.8974 C   0  0  0  0  0  0  0  0  0  0  0  0
  -34.6947   63.3090   65.0151 C   0  0  0  0  0  0  0  0  0  0  0  0
  -35.3650   62.7679   66.2650 C   0  0  0  0  0  0  0  0  0  0  0  0
  -37.4332   60.8455   62.6543 H   0  0  0  0  0  0  0  0  0  0  0  0
  -34.8169   64.8899   63.8399 H   0  0  0  0  0  0  0  0  0  0  0  0
  -36.2755   64.0889   68.0368 O   0  0  0  0  0  0  0  0  0  0  0  0
  -35.1367   63.9135   67.2487 C   0  0  0  0  0  0  0  0  0  0  0  0
  -36.1280   64.8168   68.6606 H   0  0  0  0  0  0  0  0  0  0  0  0
  -34.1893   62.9154   62.7459 O   0  0  0  0  0  0  0  0  0  0  0  0
  -32.2253   61.4268   61.9434 O   0  0  0  0  0  0  0  0  0  0  0  0
  -31.8587   63.0354   63.7232 O   0  0  0  0  0  0  0  0  0  0  0  0
  -32.0675   63.7837   61.4274 O   0  0  0  0  0  0  0  0  0  0  0  0
  -32.5585   62.7978   62.4316 S   0  0  0  0  0  0  0  0  0  0  0  0
  -32.5379   60.7702   62.5854 H   0  0  0  0  0  0  0  0  0  0  0  0
  -32.5188   63.6359   60.5815 H   0  0  0  0  0  0  0  0  0  0  0  0
  2  1  1  0  0  0
  2  4  1  0  0  0
  2  5  1  0  0  0
 41 42  1  0  0  0
 41  1  1  0  0  0
 42 46  1  0  0  0
  1 24  1  0  0  0
 23 24  1  0  0  0
 23 25  1  0  0  0
 24 26  1  0  0  0
  3  4  2  0  0  0
 26 27  2  0  0  0
 27 28  1  0  0  0
 43 47  1  0  0  0
 43 51  1  0  0  0
 28 29  1  0  0  0
 56 48  1  0  0  0
 56 60  1  0  0  0
 29 30  1  0  0  0
 57 60  1  0  0  0
 57 61  1  0  0  0
 30 31  1  0  0  0
 44 49  1  0  0  0
 44 52  1  0  0  0
 31 32  1  0  0  0
 45 46  1  0  0  0
 45 50  1  0  0  0
 32 33  1  0  0  0
 53 54  1  0  0  0
 53 55  1  0  0  0
 33 34  1  0  0  0
 34 35  1  0  0  0
 35 36  1  0  0  0
 58 60  1  0  0  0
 36 37  1  0  0  0
 59 60  1  0  0  0
 59 62  1  0  0  0
 37 38  1  0  0  0
 38 39  1  0  0  0
 39 40  1  0  0  0
  4  6  1  0  0  0
  6  7  1  0  0  0
  7  8  1  0  0  0
  8  9  1  0  0  0
  9 10  1  0  0  0
 10 11  1  0  0  0
 11 12  1  0  0  0
 12 13  1  0  0  0
 13 14  1  0  0  0
 14 15  1  0  0  0
 15 16  1  0  0  0
 16 17  1  0  0  0
 17 18  1  0  0  0
 18 19  1  0  0  0
 19 20  1  0  0  0
 20 21  1  0  0  0
 21 22  1  0  0  0
 46 47  1  0  0  0
 47 48  1  0  0  0
 48 49  1  0  0  0
 49 50  1  0  0  0
 50 54  1  0  0  0
M  CHG 1  58  -1
M  END
> <minimizedAffinity>
-9.80938

> <CNNscore>
0.2336895764

> <CNNaffinity>
7.3302598000

> <CNN_VS>
1.7130053043

> <CNNaffinity_variance>
1.1766088009

$$$$
/media/chris/experiments/cd1a-new-docking/inputs/ligands/1onq_ligand.pdb


 62 62  0  0  0  0  0  0  0  0999 V2000
  -37.2318   59.3444   64.8235 C   0  0  0  0  0  0  0  0  0  0  0  0
  -37.7277   58.5658   63.7059 N   0  0  0  0  0  0  0  0  0  0  0  0
  -35.9842   57.1766   63.2842 O   0  0  0  0  0  0  0  0  0  0  0  0
  -37.1042   57.5827   63.0423 C   0  0  0  0  0  0  0  0  0  0  0  0
  -38.6356   58.7868   63.3958 H   0  0  0  0  0  0  0  0  0  0  0  0
  -37.8957   56.9629   61.9291 C   0  0  0  0  0  0  0  0  0  0  0  0
  -38.7908   58.0674   61.3669 C   0  0  0  0  0  0  0  0  0  0  0  0
  -37.9457   59.2813   60.9880 C   0  0  0  0  0  0  0  0  0  0  0  0
  -37.8308   59.5750   59.5119 C   0  0  0  0  0  0  0  0  0  0  0  0
  -39.1623   59.2098   58.8643 C   0  0  0  0  0  0  0  0  0  0  0  0
  -40.2924   60.1745   59.2475 C   0  0  0  0  0  0  0  0  0  0  0  0
  -41.7057   59.6469   58.9396 C   0  0  0  0  0  0  0  0  0  0  0  0
  -41.9922   59.5458   57.4253 C   0  0  0  0  0  0  0  0  0  0  0  0
  -42.9368   58.3769   57.1312 C   0  0  0  0  0  0  0  0  0  0  0  0
  -44.3776   58.5826   57.5825 C   0  0  0  0  0  0  0  0  0  0  0  0
  -44.6698   57.8995   58.9103 C   0  0  0  0  0  0  0  0  0  0  0  0
  -46.1063   57.4113   59.1121 C   0  0  0  0  0  0  0  0  0  0  0  0
  -46.8469   57.5523   57.7891 C   0  0  0  0  0  0  0  0  0  0  0  0
  -48.2513   56.9782   57.6748 C   0  0  0  0  0  0  0  0  0  0  0  0
  -48.8544   56.7197   59.0646 C   0  0  0  0  0  0  0  0  0  0  0  0
  -50.1172   57.5440   59.3760 C   0  0  0  0  0  0  0  0  0  0  0  0
  -50.8410   57.0860   60.6401 C   0  0  0  0  0  0  0  0  0  0  0  0
  -38.0113   60.9645   66.2944 O   0  0  0  0  0  0  0  0  0  0  0  0
  -38.3902   60.2834   65.1127 C   0  0  0  0  0  0  0  0  0  0  0  0
  -37.1988   61.4684   66.1306 H   0  0  0  0  0  0  0  0  0  0  0  0
  -39.6700   59.4659   65.3035 C   0  0  0  0  0  0  0  0  0  0  0  0
  -40.8767   59.8879   64.8886 C   0  0  0  0  0  0  0  0  0  0  0  0
  -42.1079   59.0133   65.1171 C   0  0  0  0  0  0  0  0  0  0  0  0
  -42.1480   58.3449   66.4991 C   0  0  0  0  0  0  0  0  0  0  0  0
  -42.9015   57.0038   66.5693 C   0  0  0  0  0  0  0  0  0  0  0  0
  -44.1046   56.9981   65.5956 C   0  0  0  0  0  0  0  0  0  0  0  0
  -45.5002   57.0399   66.2678 C   0  0  0  0  0  0  0  0  0  0  0  0
  -45.7617   58.3133   67.1061 C   0  0  0  0  0  0  0  0  0  0  0  0
  -46.9501   59.1562   66.5946 C   0  0  0  0  0  0  0  0  0  0  0  0
  -48.1714   58.3212   66.1914 C   0  0  0  0  0  0  0  0  0  0  0  0
  -49.4518   59.1013   65.9011 C   0  0  0  0  0  0  0  0  0  0  0  0
  -50.3699   58.4321   64.8593 C   0  0  0  0  0  0  0  0  0  0  0  0
  -50.8443   59.3475   63.7205 C   0  0  0  0  0  0  0  0  0  0  0  0
  -49.6818   59.7250   62.7978 C   0  0  0  0  0  0  0  0  0  0  0  0
  -48.6059   58.6717   62.6018 C   0  0  0  0  0  0  0  0  0  0  0  0
  -35.8414   59.9884   64.6213 C   0  0  0  0  0  0  0  0  0  0  0  0
  -35.6313   60.6989   63.3745 O   0  0  0  0  0  0  0  0  0  0  0  0
  -36.3934   62.9154   65.0125 O   0  0  0  0  0  0  0  0  0  0  0  0
  -32.2714   63.5281   65.1916 O   0  0  0  0  0  0  0  0  0  0  0  0
  -33.6063   61.9712   62.9668 O   0  0  0  0  0  0  0  0  0  0  0  0
  -35.0013   62.0340   63.3512 C   0  0  0  0  0  0  0  0  0  0  0  0
  -35.0458   62.8252   64.6664 C   0  0  0  0  0  0  0  0  0  0  0  0
  -34.4783   64.2568   64.5487 C   0  0  0  0  0  0  0  0  0  0  0  0
  -33.0393   64.1062   64.1389 C   0  0  0  0  0  0  0  0  0  0  0  0
  -32.9493   63.2643   62.8790 C   0  0  0  0  0  0  0  0  0  0  0  0
  -36.7674   62.0239   65.0911 H   0  0  0  0  0  0  0  0  0  0  0  0
  -32.3429   64.0811   65.9853 H   0  0  0  0  0  0  0  0  0  0  0  0
  -31.1735   62.7694   61.3574 O   0  0  0  0  0  0  0  0  0  0  0  0
  -31.4401   63.2277   62.6489 C   0  0  0  0  0  0  0  0  0  0  0  0
  -30.2145   62.7471   61.2138 H   0  0  0  0  0  0  0  0  0  0  0  0
  -34.4701   65.0379   65.7651 O   0  0  0  0  0  0  0  0  0  0  0  0
  -34.0495   63.0639   67.3911 O   0  0  0  0  0  0  0  0  0  0  0  0
  -36.2069   64.1752   67.3900 O   0  0  0  0  0  0  0  0  0  0  0  0
  -34.2816   65.2516   68.3944 O   0  0  0  0  0  0  0  0  0  0  0  0
  -34.7382   64.3832   67.2723 S   0  0  0  0  0  0  0  0  0  0  0  0
  -34.3347   62.4841   66.6677 H   0  0  0  0  0  0  0  0  0  0  0  0
  -33.3243   65.3925   68.3254 H   0  0  0  0  0  0  0  0  0  0  0  0
  2  1  1  0  0  0
  2  4  1  0  0  0
  2  5  1  0  0  0
 41 42  1  0  0  0
 41  1  1  0  0  0
 42 46  1  0  0  0
  1 24  1  0  0  0
 23 24  1  0  0  0
 23 25  1  0  0  0
 24 26  1  0  0  0
  3  4  2  0  0  0
 26 27  2  0  0  0
 27 28  1  0  0  0
 43 47  1  0  0  0
 43 51  1  0  0  0
 28 29  1  0  0  0
 56 48  1  0  0  0
 56 60  1  0  0  0
 29 30  1  0  0  0
 57 60  1  0  0  0
 57 61  1  0  0  0
 30 31  1  0  0  0
 44 49  1  0  0  0
 44 52  1  0  0  0
 31 32  1  0  0  0
 45 46  1  0  0  0
 45 50  1  0  0  0
 32 33  1  0  0  0
 53 54  1  0  0  0
 53 55  1  0  0  0
 33 34  1  0  0  0
 34 35  1  0  0  0
 35 36  1  0  0  0
 58 60  1  0  0  0
 36 37  1  0  0  0
 59 60  1  0  0  0
 59 62  1  0  0  0
 37 38  1  0  0  0
 38 39  1  0  0  0
 39 40  1  0  0  0
  4  6  1  0  0  0
  6  7  1  0  0  0
  7  8  1  0  0  0
  8  9  1  0  0  0
  9 10  1  0  0  0
 10 11  1  0  0  0
 11 12  1  0  0  0
 12 13  1  0  0  0
 13 14  1  0  0  0
 14 15  1  0  0  0
 15 16  1  0  0  0
 16 17  1  0  0  0
 17 18  1  0  0  0
 18 19  1  0  0  0
 19 20  1  0  0  0
 20 21  1  0  0  0
 21 22  1  0  0  0
 46 47  1  0  0  0
 47 48  1  0  0  0
 48 49  1  0  0  0
 49 50  1  0  0  0
 50 54  1  0  0  0
M  CHG 1  58  -1
M  END
> <minimizedAffinity>
-8.92046

> <CNNscore>
0.2335197181

> <CNNaffinity>
6.8437628746

> <CNN_VS>
1.5981535912

> <CNNaffinity_variance>
1.0035387278

$$$$
/media/chris/experiments/cd1a-new-docking/inputs/ligands/1onq_ligand.pdb


 62 62  0  0  0  0  0  0  0  0999 V2000
  -38.2627   60.4529   65.0723 C   0  0  0  0  0  0  0  0  0  0  0  0
  -39.3225   59.6051   65.5813 N   0  0  0  0  0  0  0  0  0  0  0  0
  -41.1828   60.7446   64.9580 O   0  0  0  0  0  0  0  0  0  0  0  0
  -40.6461   59.7956   65.4959 C   0  0  0  0  0  0  0  0  0  0  0  0
  -39.0339   58.7876   66.0479 H   0  0  0  0  0  0  0  0  0  0  0  0
  -41.4866   58.7220   66.1211 C   0  0  0  0  0  0  0  0  0  0  0  0
  -42.5709   59.4357   66.9286 C   0  0  0  0  0  0  0  0  0  0  0  0
  -43.9398   58.8446   66.6003 C   0  0  0  0  0  0  0  0  0  0  0  0
  -44.5069   59.1964   65.2464 C   0  0  0  0  0  0  0  0  0  0  0  0
  -45.8849   58.5513   65.1420 C   0  0  0  0  0  0  0  0  0  0  0  0
  -46.9991   59.4370   65.7154 C   0  0  0  0  0  0  0  0  0  0  0  0
  -47.9963   59.9581   64.6645 C   0  0  0  0  0  0  0  0  0  0  0  0
  -48.6267   58.8273   63.8222 C   0  0  0  0  0  0  0  0  0  0  0  0
  -50.0786   58.5847   64.2440 C   0  0  0  0  0  0  0  0  0  0  0  0
  -51.1153   58.8187   63.1520 C   0  0  0  0  0  0  0  0  0  0  0  0
  -50.5332   58.6463   61.7568 C   0  0  0  0  0  0  0  0  0  0  0  0
  -50.8754   57.3359   61.0440 C   0  0  0  0  0  0  0  0  0  0  0  0
  -49.6064   56.8032   60.3924 C   0  0  0  0  0  0  0  0  0  0  0  0
  -48.7930   57.7374   59.5089 C   0  0  0  0  0  0  0  0  0  0  0  0
  -47.3710   57.1942   59.2968 C   0  0  0  0  0  0  0  0  0  0  0  0
  -46.9449   57.0791   57.8216 C   0  0  0  0  0  0  0  0  0  0  0  0
  -48.0287   56.4859   56.9243 C   0  0  0  0  0  0  0  0  0  0  0  0
  -36.2545   59.8476   64.0740 O   0  0  0  0  0  0  0  0  0  0  0  0
  -37.6438   59.5919   63.9845 C   0  0  0  0  0  0  0  0  0  0  0  0
  -35.9312   59.5754   64.9471 H   0  0  0  0  0  0  0  0  0  0  0  0
  -38.2190   60.0002   62.6262 C   0  0  0  0  0  0  0  0  0  0  0  0
  -38.9662   59.1774   61.8706 C   0  0  0  0  0  0  0  0  0  0  0  0
  -39.5035   59.6596   60.5245 C   0  0  0  0  0  0  0  0  0  0  0  0
  -38.5022   59.5187   59.3688 C   0  0  0  0  0  0  0  0  0  0  0  0
  -37.6533   58.2340   59.3754 C   0  0  0  0  0  0  0  0  0  0  0  0
  -36.6472   58.2344   58.1992 C   0  0  0  0  0  0  0  0  0  0  0  0
  -36.1795   56.8342   57.7279 C   0  0  0  0  0  0  0  0  0  0  0  0
  -36.7422   55.6628   58.5668 C   0  0  0  0  0  0  0  0  0  0  0  0
  -35.6498   54.7424   59.1531 C   0  0  0  0  0  0  0  0  0  0  0  0
  -35.0541   55.2524   60.4708 C   0  0  0  0  0  0  0  0  0  0  0  0
  -33.8789   56.2197   60.3462 C   0  0  0  0  0  0  0  0  0  0  0  0
  -34.1313   57.5974   60.9898 C   0  0  0  0  0  0  0  0  0  0  0  0
  -34.2082   57.5992   62.5241 C   0  0  0  0  0  0  0  0  0  0  0  0
  -32.8653   57.9992   63.1417 C   0  0  0  0  0  0  0  0  0  0  0  0
  -31.8529   58.6327   62.2040 C   0  0  0  0  0  0  0  0  0  0  0  0
  -37.3042   61.0324   66.1373 C   0  0  0  0  0  0  0  0  0  0  0  0
  -36.9773   62.4403   66.0177 O   0  0  0  0  0  0  0  0  0  0  0  0
  -35.2340   62.3488   63.7528 O   0  0  0  0  0  0  0  0  0  0  0  0
  -34.0053   66.0604   65.2065 O   0  0  0  0  0  0  0  0  0  0  0  0
  -35.3436   63.9758   66.9442 O   0  0  0  0  0  0  0  0  0  0  0  0
  -35.5748   62.9016   66.0008 C   0  0  0  0  0  0  0  0  0  0  0  0
  -35.0437   63.3999   64.6489 C   0  0  0  0  0  0  0  0  0  0  0  0
  -33.5411   63.7566   64.6662 C   0  0  0  0  0  0  0  0  0  0  0  0
  -33.3835   64.8645   65.6707 C   0  0  0  0  0  0  0  0  0  0  0  0
  -33.9663   64.4351   67.0049 C   0  0  0  0  0  0  0  0  0  0  0  0
  -36.1740   62.1106   63.7287 H   0  0  0  0  0  0  0  0  0  0  0  0
  -33.6187   66.3162   64.3545 H   0  0  0  0  0  0  0  0  0  0  0  0
  -32.3919   66.0897   67.7102 O   0  0  0  0  0  0  0  0  0  0  0  0
  -33.7181   65.6787   67.8558 C   0  0  0  0  0  0  0  0  0  0  0  0
  -32.2369   66.8795   68.2514 H   0  0  0  0  0  0  0  0  0  0  0  0
  -32.9939   64.2580   63.4256 O   0  0  0  0  0  0  0  0  0  0  0  0
  -31.5832   63.7751   61.3057 O   0  0  0  0  0  0  0  0  0  0  0  0
  -33.9910   63.4808   61.2341 O   0  0  0  0  0  0  0  0  0  0  0  0
  -32.5984   61.8614   62.3797 O   0  0  0  0  0  0  0  0  0  0  0  0
  -32.7752   63.3096   62.0748 S   0  0  0  0  0  0  0  0  0  0  0  0
  -31.6805   64.7175   61.0979 H   0  0  0  0  0  0  0  0  0  0  0  0
  -31.8073   61.7405   62.9279 H   0  0  0  0  0  0  0  0  0  0  0  0
  2  1  1  0  0  0
  2  4  1  0  0  0
  2  5  1  0  0  0
 41 42  1  0  0  0
 41  1  1  0  0  0
 42 46  1  0  0  0
  1 24  1  0  0  0
 23 24  1  0  0  0
 23 25  1  0  0  0
 24 26  1  0  0  0
  3  4  2  0  0  0
 26 27  2  0  0  0
 27 28  1  0  0  0
 43 47  1  0  0  0
 43 51  1  0  0  0
 28 29  1  0  0  0
 56 48  1  0  0  0
 56 60  1  0  0  0
 29 30  1  0  0  0
 57 60  1  0  0  0
 57 61  1  0  0  0
 30 31  1  0  0  0
 44 49  1  0  0  0
 44 52  1  0  0  0
 31 32  1  0  0  0
 45 46  1  0  0  0
 45 50  1  0  0  0
 32 33  1  0  0  0
 53 54  1  0  0  0
 53 55  1  0  0  0
 33 34  1  0  0  0
 34 35  1  0  0  0
 35 36  1  0  0  0
 58 60  1  0  0  0
 36 37  1  0  0  0
 59 60  1  0  0  0
 59 62  1  0  0  0
 37 38  1  0  0  0
 38 39  1  0  0  0
 39 40  1  0  0  0
  4  6  1  0  0  0
  6  7  1  0  0  0
  7  8  1  0  0  0
  8  9  1  0  0  0
  9 10  1  0  0  0
 10 11  1  0  0  0
 11 12  1  0  0  0
 12 13  1  0  0  0
 13 14  1  0  0  0
 14 15  1  0  0  0
 15 16  1  0  0  0
 16 17  1  0  0  0
 17 18  1  0  0  0
 18 19  1  0  0  0
 19 20  1  0  0  0
 20 21  1  0  0  0
 21 22  1  0  0  0
 46 47  1  0  0  0
 47 48  1  0  0  0
 48 49  1  0  0  0
 49 50  1  0  0  0
 50 54  1  0  0  0
M  CHG 1  58  -1
M  END
> <minimizedAffinity>
-9.28583

> <CNNscore>
0.2100252956

> <CNNaffinity>
6.9539771080

> <CNN_VS>
1.4605110884

> <CNNaffinity_variance>
0.8449937701

$$$$
/media/chris/experiments/cd1a-new-docking/inputs/ligands/1onq_ligand.pdb


 62 62  0  0  0  0  0  0  0  0999 V2000
  -39.1234   60.5340   61.3953 C   0  0  0  0  0  0  0  0  0  0  0  0
  -40.2125   60.0010   62.1895 N   0  0  0  0  0  0  0  0  0  0  0  0
  -40.1201   61.2949   64.0509 O   0  0  0  0  0  0  0  0  0  0  0  0
  -40.6198   60.3954   63.4037 C   0  0  0  0  0  0  0  0  0  0  0  0
  -40.7155   59.2567   61.7869 H   0  0  0  0  0  0  0  0  0  0  0  0
  -41.7917   59.6417   63.9591 C   0  0  0  0  0  0  0  0  0  0  0  0
  -41.3292   59.0376   65.2851 C   0  0  0  0  0  0  0  0  0  0  0  0
  -40.2839   57.9548   65.0285 C   0  0  0  0  0  0  0  0  0  0  0  0
  -38.8785   58.2689   65.4808 C   0  0  0  0  0  0  0  0  0  0  0  0
  -37.9395   57.9522   64.3216 C   0  0  0  0  0  0  0  0  0  0  0  0
  -36.4674   58.2221   64.6601 C   0  0  0  0  0  0  0  0  0  0  0  0
  -35.4673   57.6246   63.6535 C   0  0  0  0  0  0  0  0  0  0  0  0
  -34.6067   58.6985   62.9525 C   0  0  0  0  0  0  0  0  0  0  0  0
  -33.1925   58.1720   62.6921 C   0  0  0  0  0  0  0  0  0  0  0  0
  -32.9570   57.6216   61.2908 C   0  0  0  0  0  0  0  0  0  0  0  0
  -33.2916   56.1409   61.1884 C   0  0  0  0  0  0  0  0  0  0  0  0
  -33.8905   55.6786   59.8580 C   0  0  0  0  0  0  0  0  0  0  0  0
  -33.7708   56.8221   58.8595 C   0  0  0  0  0  0  0  0  0  0  0  0
  -34.9201   57.0703   57.8939 C   0  0  0  0  0  0  0  0  0  0  0  0
  -36.1733   56.2883   58.3181 C   0  0  0  0  0  0  0  0  0  0  0  0
  -37.1655   57.0908   59.1798 C   0  0  0  0  0  0  0  0  0  0  0  0
  -37.1599   56.6779   60.6499 C   0  0  0  0  0  0  0  0  0  0  0  0
  -38.2281   60.2792   59.2670 O   0  0  0  0  0  0  0  0  0  0  0  0
  -39.2551   59.7630   60.0931 C   0  0  0  0  0  0  0  0  0  0  0  0
  -37.3661   60.1074   59.6774 H   0  0  0  0  0  0  0  0  0  0  0  0
  -40.6462   60.0018   59.5011 C   0  0  0  0  0  0  0  0  0  0  0  0
  -41.0786   59.3972   58.3814 C   0  0  0  0  0  0  0  0  0  0  0  0
  -42.4818   59.6893   57.8531 C   0  0  0  0  0  0  0  0  0  0  0  0
  -43.0711   58.5595   56.9961 C   0  0  0  0  0  0  0  0  0  0  0  0
  -44.5635   58.2576   57.2261 C   0  0  0  0  0  0  0  0  0  0  0  0
  -44.8317   57.9130   58.7110 C   0  0  0  0  0  0  0  0  0  0  0  0
  -46.2675   57.4238   59.0280 C   0  0  0  0  0  0  0  0  0  0  0  0
  -47.1012   57.0546   57.7785 C   0  0  0  0  0  0  0  0  0  0  0  0
  -48.5637   56.6783   58.1009 C   0  0  0  0  0  0  0  0  0  0  0  0
  -48.9384   56.8639   59.5762 C   0  0  0  0  0  0  0  0  0  0  0  0
  -50.0990   57.8153   59.8594 C   0  0  0  0  0  0  0  0  0  0  0  0
  -51.0393   57.3382   60.9838 C   0  0  0  0  0  0  0  0  0  0  0  0
  -51.0510   58.2163   62.2443 C   0  0  0  0  0  0  0  0  0  0  0  0
  -49.8124   59.1151   62.2999 C   0  0  0  0  0  0  0  0  0  0  0  0
  -48.6854   58.6563   63.2081 C   0  0  0  0  0  0  0  0  0  0  0  0
  -37.7363   60.5261   62.0771 C   0  0  0  0  0  0  0  0  0  0  0  0
  -37.0369   61.7951   62.1386 O   0  0  0  0  0  0  0  0  0  0  0  0
  -35.1094   63.9065   62.1996 O   0  0  0  0  0  0  0  0  0  0  0  0
  -36.6064   64.4560   66.0539 O   0  0  0  0  0  0  0  0  0  0  0  0
  -36.8437   61.8374   64.5565 O   0  0  0  0  0  0  0  0  0  0  0  0
  -36.1964   62.1504   63.2993 C   0  0  0  0  0  0  0  0  0  0  0  0
  -35.7651   63.6209   63.3964 C   0  0  0  0  0  0  0  0  0  0  0  0
  -34.7932   63.9066   64.5622 C   0  0  0  0  0  0  0  0  0  0  0  0
  -35.5315   63.5488   65.8225 C   0  0  0  0  0  0  0  0  0  0  0  0
  -36.0391   62.1210   65.7328 C   0  0  0  0  0  0  0  0  0  0  0  0
  -35.7058   63.7326   61.4546 H   0  0  0  0  0  0  0  0  0  0  0  0
  -36.2603   65.3606   66.1077 H   0  0  0  0  0  0  0  0  0  0  0  0
  -36.0700   62.7004   68.0516 O   0  0  0  0  0  0  0  0  0  0  0  0
  -36.7502   61.9697   67.0757 C   0  0  0  0  0  0  0  0  0  0  0  0
  -36.5235   62.6026   68.9034 H   0  0  0  0  0  0  0  0  0  0  0  0
  -34.3759   65.2819   64.7176 O   0  0  0  0  0  0  0  0  0  0  0  0
  -32.1918   66.4959   64.0295 O   0  0  0  0  0  0  0  0  0  0  0  0
  -32.0668   64.4619   65.3473 O   0  0  0  0  0  0  0  0  0  0  0  0
  -32.7527   66.5441   66.3809 O   0  0  0  0  0  0  0  0  0  0  0  0
  -32.8269   65.7241   65.1385 S   0  0  0  0  0  0  0  0  0  0  0  0
  -32.2308   65.9769   63.2109 H   0  0  0  0  0  0  0  0  0  0  0  0
  -33.2460   67.3696   66.2535 H   0  0  0  0  0  0  0  0  0  0  0  0
  2  1  1  0  0  0
  2  4  1  0  0  0
  2  5  1  0  0  0
 41 42  1  0  0  0
 41  1  1  0  0  0
 42 46  1  0  0  0
  1 24  1  0  0  0
 23 24  1  0  0  0
 23 25  1  0  0  0
 24 26  1  0  0  0
  3  4  2  0  0  0
 26 27  2  0  0  0
 27 28  1  0  0  0
 43 47  1  0  0  0
 43 51  1  0  0  0
 28 29  1  0  0  0
 56 48  1  0  0  0
 56 60  1  0  0  0
 29 30  1  0  0  0
 57 60  1  0  0  0
 57 61  1  0  0  0
 30 31  1  0  0  0
 44 49  1  0  0  0
 44 52  1  0  0  0
 31 32  1  0  0  0
 45 46  1  0  0  0
 45 50  1  0  0  0
 32 33  1  0  0  0
 53 54  1  0  0  0
 53 55  1  0  0  0
 33 34  1  0  0  0
 34 35  1  0  0  0
 35 36  1  0  0  0
 58 60  1  0  0  0
 36 37  1  0  0  0
 59 60  1  0  0  0
 59 62  1  0  0  0
 37 38  1  0  0  0
 38 39  1  0  0  0
 39 40  1  0  0  0
  4  6  1  0  0  0
  6  7  1  0  0  0
  7  8  1  0  0  0
  8  9  1  0  0  0
  9 10  1  0  0  0
 10 11  1  0  0  0
 11 12  1  0  0  0
 12 13  1  0  0  0
 13 14  1  0  0  0
 14 15  1  0  0  0
 15 16  1  0  0  0
 16 17  1  0  0  0
 17 18  1  0  0  0
 18 19  1  0  0  0
 19 20  1  0  0  0
 20 21  1  0  0  0
 21 22  1  0  0  0
 46 47  1  0  0  0
 47 48  1  0  0  0
 48 49  1  0  0  0
 49 50  1  0  0  0
 50 54  1  0  0  0
M  CHG 1  58  -1
M  END
> <minimizedAffinity>
-8.87145

> <CNNscore>
0.2057595849

> <CNNaffinity>
6.9903168678

> <CNN_VS>
1.4383246899

> <CNNaffinity_variance>
0.9330085516

$$$$
