/media/chris/experiments/cd1a-new-docking/inputs/ligands/1onq_ligand.pdb


 62 62  0  0  0  0  0  0  0  0999 V2000
  -39.7434   59.0741   63.4521 C   0  0  0  0  0  0  0  0  0  0  0  0
  -40.4447   58.9386   64.7134 N   0  0  0  0  0  0  0  0  0  0  0  0
  -42.1250   60.4460   64.4866 O   0  0  0  0  0  0  0  0  0  0  0  0
  -41.5343   59.5991   65.1282 C   0  0  0  0  0  0  0  0  0  0  0  0
  -40.0745   58.2791   65.3437 H   0  0  0  0  0  0  0  0  0  0  0  0
  -42.0275   59.2218   66.4935 C   0  0  0  0  0  0  0  0  0  0  0  0
  -42.7678   57.8936   66.3351 C   0  0  0  0  0  0  0  0  0  0  0  0
  -44.2504   58.1505   66.0761 C   0  0  0  0  0  0  0  0  0  0  0  0
  -45.0485   56.9744   65.5678 C   0  0  0  0  0  0  0  0  0  0  0  0
  -46.2062   56.7506   66.5353 C   0  0  0  0  0  0  0  0  0  0  0  0
  -47.5725   57.0521   65.9050 C   0  0  0  0  0  0  0  0  0  0  0  0
  -47.9854   58.5339   65.9697 C   0  0  0  0  0  0  0  0  0  0  0  0
  -48.2479   59.1455   64.5759 C   0  0  0  0  0  0  0  0  0  0  0  0
  -49.0399   58.1713   63.6993 C   0  0  0  0  0  0  0  0  0  0  0  0
  -50.5324   58.4622   63.5977 C   0  0  0  0  0  0  0  0  0  0  0  0
  -50.9878   58.6464   62.1576 C   0  0  0  0  0  0  0  0  0  0  0  0
  -51.1228   57.3676   61.3277 C   0  0  0  0  0  0  0  0  0  0  0  0
  -50.1487   57.4532   60.1603 C   0  0  0  0  0  0  0  0  0  0  0  0
  -49.2461   56.2620   59.8749 C   0  0  0  0  0  0  0  0  0  0  0  0
  -48.3630   56.5236   58.6446 C   0  0  0  0  0  0  0  0  0  0  0  0
  -47.4738   57.7761   58.7515 C   0  0  0  0  0  0  0  0  0  0  0  0
  -46.0271   57.4598   59.1237 C   0  0  0  0  0  0  0  0  0  0  0  0
  -39.3739   57.0369   64.5052 O   0  0  0  0  0  0  0  0  0  0  0  0
  -39.0142   57.7467   63.3345 C   0  0  0  0  0  0  0  0  0  0  0  0
  -40.3336   56.8969   64.5163 H   0  0  0  0  0  0  0  0  0  0  0  0
  -37.5071   58.0016   63.2548 C   0  0  0  0  0  0  0  0  0  0  0  0
  -36.6330   57.5070   64.1479 C   0  0  0  0  0  0  0  0  0  0  0  0
  -35.1426   57.8076   63.9998 C   0  0  0  0  0  0  0  0  0  0  0  0
  -34.7415   58.2870   62.5971 C   0  0  0  0  0  0  0  0  0  0  0  0
  -33.2483   58.1492   62.2472 C   0  0  0  0  0  0  0  0  0  0  0  0
  -32.9311   56.7193   61.7468 C   0  0  0  0  0  0  0  0  0  0  0  0
  -34.0980   55.9957   61.0283 C   0  0  0  0  0  0  0  0  0  0  0  0
  -33.8477   55.7282   59.5254 C   0  0  0  0  0  0  0  0  0  0  0  0
  -34.0864   56.9634   58.6302 C   0  0  0  0  0  0  0  0  0  0  0  0
  -35.4381   56.9498   57.9063 C   0  0  0  0  0  0  0  0  0  0  0  0
  -36.6294   56.4460   58.7182 C   0  0  0  0  0  0  0  0  0  0  0  0
  -37.2855   57.5248   59.6024 C   0  0  0  0  0  0  0  0  0  0  0  0
  -37.6245   58.8410   58.8866 C   0  0  0  0  0  0  0  0  0  0  0  0
  -38.2711   59.8402   59.8503 C   0  0  0  0  0  0  0  0  0  0  0  0
  -39.7694   60.0419   59.7088 C   0  0  0  0  0  0  0  0  0  0  0  0
  -38.8942   60.3562   63.2970 C   0  0  0  0  0  0  0  0  0  0  0  0
  -38.5679   61.0691   64.5170 O   0  0  0  0  0  0  0  0  0  0  0  0
  -36.5212   61.4378   62.5543 O   0  0  0  0  0  0  0  0  0  0  0  0
  -35.6065   64.7683   64.8932 O   0  0  0  0  0  0  0  0  0  0  0  0
  -37.1215   62.3765   65.9606 O   0  0  0  0  0  0  0  0  0  0  0  0
  -37.1895   61.5193   64.7952 C   0  0  0  0  0  0  0  0  0  0  0  0
  -36.4864   62.2821   63.6633 C   0  0  0  0  0  0  0  0  0  0  0  0
  -35.0111   62.6226   63.9677 C   0  0  0  0  0  0  0  0  0  0  0  0
  -35.0254   63.5006   65.1885 C   0  0  0  0  0  0  0  0  0  0  0  0
  -35.7788   62.8088   66.3101 C   0  0  0  0  0  0  0  0  0  0  0  0
  -37.4419   61.2129   62.3480 H   0  0  0  0  0  0  0  0  0  0  0  0
  -35.1105   65.1920   64.1752 H   0  0  0  0  0  0  0  0  0  0  0  0
  -34.3751   64.3240   67.5129 O   0  0  0  0  0  0  0  0  0  0  0  0
  -35.6853   63.8506   67.4226 C   0  0  0  0  0  0  0  0  0  0  0  0
  -34.3184   64.9856   68.2202 H   0  0  0  0  0  0  0  0  0  0  0  0
  -34.3078   63.3659   62.9465 O   0  0  0  0  0  0  0  0  0  0  0  0
  -32.2990   63.9785   61.4278 O   0  0  0  0  0  0  0  0  0  0  0  0
  -32.5697   61.6905   62.1898 O   0  0  0  0  0  0  0  0  0  0  0  0
  -31.7779   63.3983   63.7164 O   0  0  0  0  0  0  0  0  0  0  0  0
  -32.7023   63.1202   62.5808 S   0  0  0  0  0  0  0  0  0  0  0  0
  -32.8906   63.8111   60.6776 H   0  0  0  0  0  0  0  0  0  0  0  0
  -31.8579   64.3289   63.9780 H   0  0  0  0  0  0  0  0  0  0  0  0
  2  1  1  0  0  0
  2  4  1  0  0  0
  2  5  1  0  0  0
 41 42  1  0  0  0
 41  1  1  0  0  0
 42 46  1  0  0  0
  1 24  1  0  0  0
 23 24  1  0  0  0
 23 25  1  0  0  0
 24 26  1  0  0  0
  3  4  2  0  0  0
 26 27  2  0  0  0
 27 28  1  0  0  0
 43 47  1  0  0  0
 43 51  1  0  0  0
 28 29  1  0  0  0
 56 48  1  0  0  0
 56 60  1  0  0  0
 29 30  1  0  0  0
 57 60  1  0  0  0
 57 61  1  0  0  0
 30 31  1  0  0  0
 44 49  1  0  0  0
 44 52  1  0  0  0
 31 32  1  0  0  0
 45 46  1  0  0  0
 45 50  1  0  0  0
 32 33  1  0  0  0
 53 54  1  0  0  0
 53 55  1  0  0  0
 33 34  1  0  0  0
 34 35  1  0  0  0
 35 36  1  0  0  0
 58 60  1  0  0  0
 36 37  1  0  0  0
 59 60  1  0  0  0
 59 62  1  0  0  0
 37 38  1  0  0  0
 38 39  1  0  0  0
 39 40  1  0  0  0
  4  6  1  0  0  0
  6  7  1  0  0  0
  7  8  1  0  0  0
  8  9  1  0  0  0
  9 10  1  0  0  0
 10 11  1  0  0  0
 11 12  1  0  0  0
 12 13  1  0  0  0
 13 14  1  0  0  0
 14 15  1  0  0  0
 15 16  1  0  0  0
 16 17  1  0  0  0
 17 18  1  0  0  0
 18 19  1  0  0  0
 19 20  1  0  0  0
 20 21  1  0  0  0
 21 22  1  0  0  0
 46 47  1  0  0  0
 47 48  1  0  0  0
 48 49  1  0  0  0
 49 50  1  0  0  0
 50 54  1  0  0  0
M  CHG 1  58  -1
M  END
> <minimizedAffinity>
-9.95513

> <CNNscore>
0.5403158069

> <CNNaffinity>
7.6115522385

> <CNN_VS>
4.1126418114

> <CNNaffinity_variance>
1.1415767670

$$$$
/media/chris/experiments/cd1a-new-docking/inputs/ligands/1onq_ligand.pdb


 62 62  0  0  0  0  0  0  0  0999 V2000
  -38.9239   60.4249   63.4694 C   0  0  0  0  0  0  0  0  0  0  0  0
  -39.9610   59.5804   64.0283 N   0  0  0  0  0  0  0  0  0  0  0  0
  -40.2520   60.4859   66.0880 O   0  0  0  0  0  0  0  0  0  0  0  0
  -40.5291   59.6610   65.2392 C   0  0  0  0  0  0  0  0  0  0  0  0
  -40.2888   58.8576   63.4456 H   0  0  0  0  0  0  0  0  0  0  0  0
  -41.5885   58.6360   65.5161 C   0  0  0  0  0  0  0  0  0  0  0  0
  -42.8758   59.4095   65.8021 C   0  0  0  0  0  0  0  0  0  0  0  0
  -44.0728   58.6649   65.2157 C   0  0  0  0  0  0  0  0  0  0  0  0
  -45.3944   59.3929   65.2618 C   0  0  0  0  0  0  0  0  0  0  0  0
  -46.4105   58.4622   65.9155 C   0  0  0  0  0  0  0  0  0  0  0  0
  -47.4380   57.9114   64.9175 C   0  0  0  0  0  0  0  0  0  0  0  0
  -48.8898   57.9298   65.4299 C   0  0  0  0  0  0  0  0  0  0  0  0
  -49.8938   58.4364   64.3712 C   0  0  0  0  0  0  0  0  0  0  0  0
  -49.1701   59.2183   63.2713 C   0  0  0  0  0  0  0  0  0  0  0  0
  -49.8738   59.2314   61.9197 C   0  0  0  0  0  0  0  0  0  0  0  0
  -50.7208   57.9870   61.6977 C   0  0  0  0  0  0  0  0  0  0  0  0
  -50.6735   57.3851   60.2915 C   0  0  0  0  0  0  0  0  0  0  0  0
  -49.5545   56.3530   60.2532 C   0  0  0  0  0  0  0  0  0  0  0  0
  -48.3446   56.6215   59.3705 C   0  0  0  0  0  0  0  0  0  0  0  0
  -47.8022   55.3154   58.7689 C   0  0  0  0  0  0  0  0  0  0  0  0
  -47.5352   55.3728   57.2535 C   0  0  0  0  0  0  0  0  0  0  0  0
  -47.8631   56.7290   56.6333 C   0  0  0  0  0  0  0  0  0  0  0  0
  -40.7041   60.0778   62.0180 O   0  0  0  0  0  0  0  0  0  0  0  0
  -39.4072   60.6446   62.0461 C   0  0  0  0  0  0  0  0  0  0  0  0
  -41.2753   60.5464   62.6464 H   0  0  0  0  0  0  0  0  0  0  0  0
  -38.4524   59.9484   61.0734 C   0  0  0  0  0  0  0  0  0  0  0  0
  -38.8191   59.5591   59.8406 C   0  0  0  0  0  0  0  0  0  0  0  0
  -37.8066   58.8686   58.9286 C   0  0  0  0  0  0  0  0  0  0  0  0
  -37.1506   57.6290   59.5542 C   0  0  0  0  0  0  0  0  0  0  0  0
  -36.7468   56.5186   58.5667 C   0  0  0  0  0  0  0  0  0  0  0  0
  -35.5102   56.9431   57.7385 C   0  0  0  0  0  0  0  0  0  0  0  0
  -34.1751   56.9979   58.5234 C   0  0  0  0  0  0  0  0  0  0  0  0
  -33.8940   55.7431   59.3831 C   0  0  0  0  0  0  0  0  0  0  0  0
  -34.2419   55.9267   60.8761 C   0  0  0  0  0  0  0  0  0  0  0  0
  -34.3534   57.3936   61.3086 C   0  0  0  0  0  0  0  0  0  0  0  0
  -34.2557   57.6604   62.8092 C   0  0  0  0  0  0  0  0  0  0  0  0
  -32.9162   58.2840   63.2482 C   0  0  0  0  0  0  0  0  0  0  0  0
  -31.7700   58.1551   62.2336 C   0  0  0  0  0  0  0  0  0  0  0  0
  -30.9832   59.4643   62.1236 C   0  0  0  0  0  0  0  0  0  0  0  0
  -31.8001   60.7443   62.1146 C   0  0  0  0  0  0  0  0  0  0  0  0
  -37.4778   59.9090   63.6466 C   0  0  0  0  0  0  0  0  0  0  0  0
  -36.8664   60.1264   64.9436 O   0  0  0  0  0  0  0  0  0  0  0  0
  -35.0875   61.0215   62.8915 O   0  0  0  0  0  0  0  0  0  0  0  0
  -35.6115   64.7080   64.7717 O   0  0  0  0  0  0  0  0  0  0  0  0
  -36.0846   62.0673   66.1712 O   0  0  0  0  0  0  0  0  0  0  0  0
  -35.7835   61.1138   65.1235 C   0  0  0  0  0  0  0  0  0  0  0  0
  -35.4129   61.9433   63.8858 C   0  0  0  0  0  0  0  0  0  0  0  0
  -34.1983   62.8723   64.1024 C   0  0  0  0  0  0  0  0  0  0  0  0
  -34.5846   63.8193   65.2048 C   0  0  0  0  0  0  0  0  0  0  0  0
  -35.0292   63.0333   66.4250 C   0  0  0  0  0  0  0  0  0  0  0  0
  -35.8402   60.4285   62.7416 H   0  0  0  0  0  0  0  0  0  0  0  0
  -35.3068   65.1991   63.9926 H   0  0  0  0  0  0  0  0  0  0  0  0
  -36.5087   63.8053   68.1362 O   0  0  0  0  0  0  0  0  0  0  0  0
  -35.3785   64.1584   67.3966 C   0  0  0  0  0  0  0  0  0  0  0  0
  -36.7285   64.5214   68.7526 H   0  0  0  0  0  0  0  0  0  0  0  0
  -33.8223   63.6979   62.9768 O   0  0  0  0  0  0  0  0  0  0  0  0
  -31.7990   64.3000   61.4732 O   0  0  0  0  0  0  0  0  0  0  0  0
  -31.4363   63.7740   63.8144 O   0  0  0  0  0  0  0  0  0  0  0  0
  -32.3875   65.9104   63.1780 O   0  0  0  0  0  0  0  0  0  0  0  0
  -32.3453   64.4563   62.8538 S   0  0  0  0  0  0  0  0  0  0  0  0
  -31.7640   63.3581   61.2441 H   0  0  0  0  0  0  0  0  0  0  0  0
  -32.9784   66.3633   62.5562 H   0  0  0  0  0  0  0  0  0  0  0  0
  2  1  1  0  0  0
  2  4  1  0  0  0
  2  5  1  0  0  0
 41 42  1  0  0  0
 41  1  1  0  0  0
 42 46  1  0  0  0
  1 24  1  0  0  0
 23 24  1  0  0  0
 23 25  1  0  0  0
 24 26  1  0  0  0
  3  4  2  0  0  0
 26 27  2  0  0  0
 27 28  1  0  0  0
 43 47  1  0  0  0
 43 51  1  0  0  0
 28 29  1  0  0  0
 56 48  1  0  0  0
 56 60  1  0  0  0
 29 30  1  0  0  0
 57 60  1  0  0  0
 57 61  1  0  0  0
 30 31  1  0  0  0
 44 49  1  0  0  0
 44 52  1  0  0  0
 31 32  1  0  0  0
 45 46  1  0  0  0
 45 50  1  0  0  0
 32 33  1  0  0  0
 53 54  1  0  0  0
 53 55  1  0  0  0
 33 34  1  0  0  0
 34 35  1  0  0  0
 35 36  1  0  0  0
 58 60  1  0  0  0
 36 37  1  0  0  0
 59 60  1  0  0  0
 59 62  1  0  0  0
 37 38  1  0  0  0
 38 39  1  0  0  0
 39 40  1  0  0  0
  4  6  1  0  0  0
  6  7  1  0  0  0
  7  8  1  0  0  0
  8  9  1  0  0  0
  9 10  1  0  0  0
 10 11  1  0  0  0
 11 12  1  0  0  0
 12 13  1  0  0  0
 13 14  1  0  0  0
 14 15  1  0  0  0
 15 16  1  0  0  0
 16 17  1  0  0  0
 17 18  1  0  0  0
 18 19  1  0  0  0
 19 20  1  0  0  0
 20 21  1  0  0  0
 21 22  1  0  0  0
 46 47  1  0  0  0
 47 48  1  0  0  0
 48 49  1  0  0  0
 49 50  1  0  0  0
 50 54  1  0  0  0
M  CHG 1  58  -1
M  END
> <minimizedAffinity>
-9.51914

> <CNNscore>
0.4271844029

> <CNNaffinity>
7.3044099808

> <CNN_VS>
3.1203300953

> <CNNaffinity_variance>
0.5946515799

$$$$
/media/chris/experiments/cd1a-new-docking/inputs/ligands/1onq_ligand.pdb


 62 62  0  0  0  0  0  0  0  0999 V2000
  -40.1246   59.3461   64.7455 C   0  0  0  0  0  0  0  0  0  0  0  0
  -40.0963   59.1751   63.3063 N   0  0  0  0  0  0  0  0  0  0  0  0
  -40.5863   61.2645   62.5703 O   0  0  0  0  0  0  0  0  0  0  0  0
  -40.3175   60.0977   62.3600 C   0  0  0  0  0  0  0  0  0  0  0  0
  -39.8886   58.2683   62.9841 H   0  0  0  0  0  0  0  0  0  0  0  0
  -40.2050   59.6031   60.9485 C   0  0  0  0  0  0  0  0  0  0  0  0
  -38.8746   60.1292   60.4096 C   0  0  0  0  0  0  0  0  0  0  0  0
  -37.7454   59.1721   60.7833 C   0  0  0  0  0  0  0  0  0  0  0  0
  -38.1304   57.7210   60.9405 C   0  0  0  0  0  0  0  0  0  0  0  0
  -37.4189   57.1871   62.1794 C   0  0  0  0  0  0  0  0  0  0  0  0
  -36.5595   58.2516   62.8746 C   0  0  0  0  0  0  0  0  0  0  0  0
  -35.8533   57.7593   64.1511 C   0  0  0  0  0  0  0  0  0  0  0  0
  -34.5583   58.5419   64.4607 C   0  0  0  0  0  0  0  0  0  0  0  0
  -33.3380   57.8143   63.8895 C   0  0  0  0  0  0  0  0  0  0  0  0
  -32.7254   58.4567   62.6508 C   0  0  0  0  0  0  0  0  0  0  0  0
  -33.2957   57.8841   61.3616 C   0  0  0  0  0  0  0  0  0  0  0  0
  -33.6946   56.4071   61.4021 C   0  0  0  0  0  0  0  0  0  0  0  0
  -34.0758   55.9785   59.9915 C   0  0  0  0  0  0  0  0  0  0  0  0
  -35.2563   55.0360   59.8097 C   0  0  0  0  0  0  0  0  0  0  0  0
  -36.2719   55.6131   58.8109 C   0  0  0  0  0  0  0  0  0  0  0  0
  -35.7894   56.8703   58.0641 C   0  0  0  0  0  0  0  0  0  0  0  0
  -36.9300   57.7782   57.6102 C   0  0  0  0  0  0  0  0  0  0  0  0
  -41.1484   61.1776   65.7421 O   0  0  0  0  0  0  0  0  0  0  0  0
  -41.4609   60.0324   64.9710 C   0  0  0  0  0  0  0  0  0  0  0  0
  -40.5520   61.7535   65.2386 H   0  0  0  0  0  0  0  0  0  0  0  0
  -42.4022   59.0785   65.7103 C   0  0  0  0  0  0  0  0  0  0  0  0
  -43.7243   59.0266   65.4750 C   0  0  0  0  0  0  0  0  0  0  0  0
  -44.5977   58.0466   66.2563 C   0  0  0  0  0  0  0  0  0  0  0  0
  -46.0260   58.5514   66.5081 C   0  0  0  0  0  0  0  0  0  0  0  0
  -46.6159   59.4573   65.4115 C   0  0  0  0  0  0  0  0  0  0  0  0
  -47.7742   58.7436   64.6737 C   0  0  0  0  0  0  0  0  0  0  0  0
  -48.8283   58.0722   65.5900 C   0  0  0  0  0  0  0  0  0  0  0  0
  -50.2920   58.4272   65.2374 C   0  0  0  0  0  0  0  0  0  0  0  0
  -50.4245   59.6664   64.3259 C   0  0  0  0  0  0  0  0  0  0  0  0
  -51.3117   59.4369   63.0965 C   0  0  0  0  0  0  0  0  0  0  0  0
  -51.0072   58.1876   62.2726 C   0  0  0  0  0  0  0  0  0  0  0  0
  -49.9754   58.4142   61.1501 C   0  0  0  0  0  0  0  0  0  0  0  0
  -50.1862   57.5672   59.8860 C   0  0  0  0  0  0  0  0  0  0  0  0
  -48.8460   57.1496   59.2740 C   0  0  0  0  0  0  0  0  0  0  0  0
  -48.4992   55.6733   59.3513 C   0  0  0  0  0  0  0  0  0  0  0  0
  -38.8776   60.0213   65.3603 C   0  0  0  0  0  0  0  0  0  0  0  0
  -38.3626   61.1860   64.6663 O   0  0  0  0  0  0  0  0  0  0  0  0
  -36.5843   61.8235   62.5196 O   0  0  0  0  0  0  0  0  0  0  0  0
  -35.3480   64.8317   65.1315 O   0  0  0  0  0  0  0  0  0  0  0  0
  -36.7311   62.3085   66.0675 O   0  0  0  0  0  0  0  0  0  0  0  0
  -36.9562   61.6087   64.8197 C   0  0  0  0  0  0  0  0  0  0  0  0
  -36.3995   62.5177   63.7147 C   0  0  0  0  0  0  0  0  0  0  0  0
  -34.8945   62.8291   63.8671 C   0  0  0  0  0  0  0  0  0  0  0  0
  -34.7437   63.5417   65.1826 C   0  0  0  0  0  0  0  0  0  0  0  0
  -35.3511   62.7040   66.2933 C   0  0  0  0  0  0  0  0  0  0  0  0
  -37.5257   61.6190   62.4068 H   0  0  0  0  0  0  0  0  0  0  0  0
  -34.9458   65.3491   64.4163 H   0  0  0  0  0  0  0  0  0  0  0  0
  -36.3227   64.0931   67.9783 O   0  0  0  0  0  0  0  0  0  0  0  0
  -35.1061   63.5940   67.5097 C   0  0  0  0  0  0  0  0  0  0  0  0
  -36.1645   64.6580   68.7509 H   0  0  0  0  0  0  0  0  0  0  0  0
  -34.3235   63.7044   62.8682 O   0  0  0  0  0  0  0  0  0  0  0  0
  -32.4435   62.8665   61.2931 O   0  0  0  0  0  0  0  0  0  0  0  0
  -31.9861   63.1472   63.6598 O   0  0  0  0  0  0  0  0  0  0  0  0
  -32.1643   65.0845   62.2143 O   0  0  0  0  0  0  0  0  0  0  0  0
  -32.7025   63.7220   62.4889 S   0  0  0  0  0  0  0  0  0  0  0  0
  -32.7877   61.9739   61.4535 H   0  0  0  0  0  0  0  0  0  0  0  0
  -32.6261   65.4669   61.4518 H   0  0  0  0  0  0  0  0  0  0  0  0
  2  1  1  0  0  0
  2  4  1  0  0  0
  2  5  1  0  0  0
 41 42  1  0  0  0
 41  1  1  0  0  0
 42 46  1  0  0  0
  1 24  1  0  0  0
 23 24  1  0  0  0
 23 25  1  0  0  0
 24 26  1  0  0  0
  3  4  2  0  0  0
 26 27  2  0  0  0
 27 28  1  0  0  0
 43 47  1  0  0  0
 43 51  1  0  0  0
 28 29  1  0  0  0
 56 48  1  0  0  0
 56 60  1  0  0  0
 29 30  1  0  0  0
 57 60  1  0  0  0
 57 61  1  0  0  0
 30 31  1  0  0  0
 44 49  1  0  0  0
 44 52  1  0  0  0
 31 32  1  0  0  0
 45 46  1  0  0  0
 45 50  1  0  0  0
 32 33  1  0  0  0
 53 54  1  0  0  0
 53 55  1  0  0  0
 33 34  1  0  0  0
 34 35  1  0  0  0
 35 36  1  0  0  0
 58 60  1  0  0  0
 36 37  1  0  0  0
 59 60  1  0  0  0
 59 62  1  0  0  0
 37 38  1  0  0  0
 38 39  1  0  0  0
 39 40  1  0  0  0
  4  6  1  0  0  0
  6  7  1  0  0  0
  7  8  1  0  0  0
  8  9  1  0  0  0
  9 10  1  0  0  0
 10 11  1  0  0  0
 11 12  1  0  0  0
 12 13  1  0  0  0
 13 14  1  0  0  0
 14 15  1  0  0  0
 15 16  1  0  0  0
 16 17  1  0  0  0
 17 18  1  0  0  0
 18 19  1  0  0  0
 19 20  1  0  0  0
 20 21  1  0  0  0
 21 22  1  0  0  0
 46 47  1  0  0  0
 47 48  1  0  0  0
 48 49  1  0  0  0
 49 50  1  0  0  0
 50 54  1  0  0  0
M  CHG 1  58  -1
M  END
> <minimizedAffinity>
-9.39147

> <CNNscore>
0.3045397997

> <CNNaffinity>
7.4001474380

> <CNN_VS>
2.2536394596

> <CNNaffinity_variance>
0.8479970694

$$$$
/media/chris/experiments/cd1a-new-docking/inputs/ligands/1onq_ligand.pdb


 62 62  0  0  0  0  0  0  0  0999 V2000
  -40.1122   59.2019   65.0133 C   0  0  0  0  0  0  0  0  0  0  0  0
  -39.6853   58.4882   63.8260 N   0  0  0  0  0  0  0  0  0  0  0  0
  -37.8215   57.4214   64.5577 O   0  0  0  0  0  0  0  0  0  0  0  0
  -38.6223   57.6852   63.6820 C   0  0  0  0  0  0  0  0  0  0  0  0
  -40.2463   58.6084   63.0259 H   0  0  0  0  0  0  0  0  0  0  0  0
  -38.4572   57.0845   62.3176 C   0  0  0  0  0  0  0  0  0  0  0  0
  -36.9921   57.2857   61.9299 C   0  0  0  0  0  0  0  0  0  0  0  0
  -36.8643   58.4648   60.9684 C   0  0  0  0  0  0  0  0  0  0  0  0
  -38.1506   59.1647   60.6021 C   0  0  0  0  0  0  0  0  0  0  0  0
  -38.3476   59.0089   59.0978 C   0  0  0  0  0  0  0  0  0  0  0  0
  -37.0704   58.5590   58.3759 C   0  0  0  0  0  0  0  0  0  0  0  0
  -37.2091   57.2266   57.6170 C   0  0  0  0  0  0  0  0  0  0  0  0
  -36.0203   56.2708   57.8597 C   0  0  0  0  0  0  0  0  0  0  0  0
  -34.6988   57.0444   57.8693 C   0  0  0  0  0  0  0  0  0  0  0  0
  -33.6602   56.5345   58.8612 C   0  0  0  0  0  0  0  0  0  0  0  0
  -34.2957   55.8426   60.0580 C   0  0  0  0  0  0  0  0  0  0  0  0
  -33.7274   56.2163   61.4290 C   0  0  0  0  0  0  0  0  0  0  0  0
  -33.0516   57.5757   61.3093 C   0  0  0  0  0  0  0  0  0  0  0  0
  -32.6925   58.3263   62.5832 C   0  0  0  0  0  0  0  0  0  0  0  0
  -33.7533   59.3882   62.9132 C   0  0  0  0  0  0  0  0  0  0  0  0
  -34.5883   59.0874   64.1715 C   0  0  0  0  0  0  0  0  0  0  0  0
  -34.2100   57.7713   64.8470 C   0  0  0  0  0  0  0  0  0  0  0  0
  -41.3544   61.1046   64.5313 O   0  0  0  0  0  0  0  0  0  0  0  0
  -41.4933   59.6988   64.6222 C   0  0  0  0  0  0  0  0  0  0  0  0
  -40.7078   61.3216   63.8416 H   0  0  0  0  0  0  0  0  0  0  0  0
  -42.5031   59.2873   65.6962 C   0  0  0  0  0  0  0  0  0  0  0  0
  -43.8208   59.1754   65.4572 C   0  0  0  0  0  0  0  0  0  0  0  0
  -44.7652   58.7599   66.5838 C   0  0  0  0  0  0  0  0  0  0  0  0
  -46.2258   58.5916   66.1403 C   0  0  0  0  0  0  0  0  0  0  0  0
  -46.7750   59.6981   65.2210 C   0  0  0  0  0  0  0  0  0  0  0  0
  -48.2972   59.5247   65.0017 C   0  0  0  0  0  0  0  0  0  0  0  0
  -48.7427   59.3997   63.5227 C   0  0  0  0  0  0  0  0  0  0  0  0
  -49.3813   58.0364   63.1667 C   0  0  0  0  0  0  0  0  0  0  0  0
  -50.7391   58.1608   62.4423 C   0  0  0  0  0  0  0  0  0  0  0  0
  -50.7469   57.5509   61.0355 C   0  0  0  0  0  0  0  0  0  0  0  0
  -49.4405   56.9078   60.5753 C   0  0  0  0  0  0  0  0  0  0  0  0
  -48.6072   57.7925   59.6272 C   0  0  0  0  0  0  0  0  0  0  0  0
  -47.2152   57.2460   59.2759 C   0  0  0  0  0  0  0  0  0  0  0  0
  -46.8495   57.5656   57.8235 C   0  0  0  0  0  0  0  0  0  0  0  0
  -47.4776   56.6832   56.7593 C   0  0  0  0  0  0  0  0  0  0  0  0
  -39.1158   60.2534   65.5522 C   0  0  0  0  0  0  0  0  0  0  0  0
  -38.4848   61.1123   64.5687 O   0  0  0  0  0  0  0  0  0  0  0  0
  -36.6214   61.5778   62.4502 O   0  0  0  0  0  0  0  0  0  0  0  0
  -35.5677   64.8583   64.8013 O   0  0  0  0  0  0  0  0  0  0  0  0
  -36.9428   62.4070   65.9220 O   0  0  0  0  0  0  0  0  0  0  0  0
  -37.0957   61.5821   64.7415 C   0  0  0  0  0  0  0  0  0  0  0  0
  -36.5062   62.3909   63.5771 C   0  0  0  0  0  0  0  0  0  0  0  0
  -35.0163   62.7522   63.7643 C   0  0  0  0  0  0  0  0  0  0  0  0
  -34.9411   63.5947   65.0077 C   0  0  0  0  0  0  0  0  0  0  0  0
  -35.5829   62.8562   66.1682 C   0  0  0  0  0  0  0  0  0  0  0  0
  -37.5523   61.3404   62.3167 H   0  0  0  0  0  0  0  0  0  0  0  0
  -35.1429   65.3122   64.0566 H   0  0  0  0  0  0  0  0  0  0  0  0
  -36.5204   63.8143   68.1472 O   0  0  0  0  0  0  0  0  0  0  0  0
  -35.4124   63.8676   67.2995 C   0  0  0  0  0  0  0  0  0  0  0  0
  -36.4097   64.4576   68.8649 H   0  0  0  0  0  0  0  0  0  0  0  0
  -34.4168   63.5382   62.7095 O   0  0  0  0  0  0  0  0  0  0  0  0
  -32.0426   62.6438   63.2388 O   0  0  0  0  0  0  0  0  0  0  0  0
  -32.4423   65.0373   63.2139 O   0  0  0  0  0  0  0  0  0  0  0  0
  -32.3097   63.8017   61.1331 O   0  0  0  0  0  0  0  0  0  0  0  0
  -32.7730   63.7479   62.5487 S   0  0  0  0  0  0  0  0  0  0  0  0
  -32.3316   62.5933   64.1633 H   0  0  0  0  0  0  0  0  0  0  0  0
  -32.5215   62.9644   60.6915 H   0  0  0  0  0  0  0  0  0  0  0  0
  2  1  1  0  0  0
  2  4  1  0  0  0
  2  5  1  0  0  0
 41 42  1  0  0  0
 41  1  1  0  0  0
 42 46  1  0  0  0
  1 24  1  0  0  0
 23 24  1  0  0  0
 23 25  1  0  0  0
 24 26  1  0  0  0
  3  4  2  0  0  0
 26 27  2  0  0  0
 27 28  1  0  0  0
 43 47  1  0  0  0
 43 51  1  0  0  0
 28 29  1  0  0  0
 56 48  1  0  0  0
 56 60  1  0  0  0
 29 30  1  0  0  0
 57 60  1  0  0  0
 57 61  1  0  0  0
 30 31  1  0  0  0
 44 49  1  0  0  0
 44 52  1  0  0  0
 31 32  1  0  0  0
 45 46  1  0  0  0
 45 50  1  0  0  0
 32 33  1  0  0  0
 53 54  1  0  0  0
 53 55  1  0  0  0
 33 34  1  0  0  0
 34 35  1  0  0  0
 35 36  1  0  0  0
 58 60  1  0  0  0
 36 37  1  0  0  0
 59 60  1  0  0  0
 59 62  1  0  0  0
 37 38  1  0  0  0
 38 39  1  0  0  0
 39 40  1  0  0  0
  4  6  1  0  0  0
  6  7  1  0  0  0
  7  8  1  0  0  0
  8  9  1  0  0  0
  9 10  1  0  0  0
 10 11  1  0  0  0
 11 12  1  0  0  0
 12 13  1  0  0  0
 13 14  1  0  0  0
 14 15  1  0  0  0
 15 16  1  0  0  0
 16 17  1  0  0  0
 17 18  1  0  0  0
 18 19  1  0  0  0
 19 20  1  0  0  0
 20 21  1  0  0  0
 21 22  1  0  0  0
 46 47  1  0  0  0
 47 48  1  0  0  0
 48 49  1  0  0  0
 49 50  1  0  0  0
 50 54  1  0  0  0
M  CHG 1  58  -1
M  END
> <minimizedAffinity>
-9.74493

> <CNNscore>
0.2709325552

> <CNNaffinity>
7.2023873329

> <CNN_VS>
1.9513611794

> <CNNaffinity_variance>
1.2797365189

$$$$
/media/chris/experiments/cd1a-new-docking/inputs/ligands/1onq_ligand.pdb


 62 62  0  0  0  0  0  0  0  0999 V2000
  -40.1993   58.9006   64.7292 C   0  0  0  0  0  0  0  0  0  0  0  0
  -41.2450   58.3264   65.5527 N   0  0  0  0  0  0  0  0  0  0  0  0
  -43.0886   59.4201   64.8096 O   0  0  0  0  0  0  0  0  0  0  0  0
  -42.5549   58.6085   65.5405 C   0  0  0  0  0  0  0  0  0  0  0  0
  -40.9570   57.6443   66.2015 H   0  0  0  0  0  0  0  0  0  0  0  0
  -43.3840   57.8296   66.5180 C   0  0  0  0  0  0  0  0  0  0  0  0
  -44.1883   56.8213   65.6973 C   0  0  0  0  0  0  0  0  0  0  0  0
  -45.6827   57.0835   65.8681 C   0  0  0  0  0  0  0  0  0  0  0  0
  -46.3211   57.9808   64.8357 C   0  0  0  0  0  0  0  0  0  0  0  0
  -47.5828   58.5719   65.4560 C   0  0  0  0  0  0  0  0  0  0  0  0
  -48.7155   57.5450   65.5886 C   0  0  0  0  0  0  0  0  0  0  0  0
  -50.1287   58.1430   65.4633 C   0  0  0  0  0  0  0  0  0  0  0  0
  -50.1216   59.5962   64.9403 C   0  0  0  0  0  0  0  0  0  0  0  0
  -51.2117   59.7952   63.8835 C   0  0  0  0  0  0  0  0  0  0  0  0
  -51.1647   58.8165   62.7163 C   0  0  0  0  0  0  0  0  0  0  0  0
  -49.9788   59.0704   61.7974 C   0  0  0  0  0  0  0  0  0  0  0  0
  -48.9141   57.9718   61.7569 C   0  0  0  0  0  0  0  0  0  0  0  0
  -48.9547   57.3205   60.3810 C   0  0  0  0  0  0  0  0  0  0  0  0
  -48.1556   57.9528   59.2510 C   0  0  0  0  0  0  0  0  0  0  0  0
  -46.9841   57.0497   58.8339 C   0  0  0  0  0  0  0  0  0  0  0  0
  -47.0160   56.6018   57.3609 C   0  0  0  0  0  0  0  0  0  0  0  0
  -47.5949   55.2022   57.1675 C   0  0  0  0  0  0  0  0  0  0  0  0
  -38.2131   57.8128   65.2469 O   0  0  0  0  0  0  0  0  0  0  0  0
  -39.3391   57.6934   64.3973 C   0  0  0  0  0  0  0  0  0  0  0  0
  -38.5015   57.7798   66.1723 H   0  0  0  0  0  0  0  0  0  0  0  0
  -38.9521   57.7382   62.9172 C   0  0  0  0  0  0  0  0  0  0  0  0
  -38.0152   56.9377   62.3811 C   0  0  0  0  0  0  0  0  0  0  0  0
  -37.6847   57.0442   60.8935 C   0  0  0  0  0  0  0  0  0  0  0  0
  -37.9704   58.4274   60.2907 C   0  0  0  0  0  0  0  0  0  0  0  0
  -37.2379   58.7449   58.9740 C   0  0  0  0  0  0  0  0  0  0  0  0
  -37.4837   57.6323   57.9266 C   0  0  0  0  0  0  0  0  0  0  0  0
  -36.2891   56.6750   57.6853 C   0  0  0  0  0  0  0  0  0  0  0  0
  -34.9047   57.3081   57.9600 C   0  0  0  0  0  0  0  0  0  0  0  0
  -33.8983   56.3342   58.6100 C   0  0  0  0  0  0  0  0  0  0  0  0
  -34.3966   55.7147   59.9211 C   0  0  0  0  0  0  0  0  0  0  0  0
  -33.6230   56.0971   61.1811 C   0  0  0  0  0  0  0  0  0  0  0  0
  -33.4408   57.6164   61.3668 C   0  0  0  0  0  0  0  0  0  0  0  0
  -34.5542   58.3174   62.1597 C   0  0  0  0  0  0  0  0  0  0  0  0
  -34.7154   57.6944   63.5493 C   0  0  0  0  0  0  0  0  0  0  0  0
  -34.6802   58.6523   64.7269 C   0  0  0  0  0  0  0  0  0  0  0  0
  -39.4797   60.1302   65.3285 C   0  0  0  0  0  0  0  0  0  0  0  0
  -38.7260   60.9547   64.4036 O   0  0  0  0  0  0  0  0  0  0  0  0
  -36.6347   61.1168   62.4601 O   0  0  0  0  0  0  0  0  0  0  0  0
  -35.5613   64.4920   64.6636 O   0  0  0  0  0  0  0  0  0  0  0  0
  -37.2264   62.2412   65.8112 O   0  0  0  0  0  0  0  0  0  0  0  0
  -37.3279   61.3376   64.6840 C   0  0  0  0  0  0  0  0  0  0  0  0
  -36.5664   62.0071   63.5310 C   0  0  0  0  0  0  0  0  0  0  0  0
  -35.0782   62.2762   63.8440 C   0  0  0  0  0  0  0  0  0  0  0  0
  -35.0585   63.2078   65.0243 C   0  0  0  0  0  0  0  0  0  0  0  0
  -35.8660   62.6115   66.1630 C   0  0  0  0  0  0  0  0  0  0  0  0
  -37.5639   60.9358   62.2490 H   0  0  0  0  0  0  0  0  0  0  0  0
  -35.0318   64.8538   63.9357 H   0  0  0  0  0  0  0  0  0  0  0  0
  -34.3831   64.0413   67.3753 O   0  0  0  0  0  0  0  0  0  0  0  0
  -35.7277   63.6955   67.2296 C   0  0  0  0  0  0  0  0  0  0  0  0
  -34.2979   64.7300   68.0533 H   0  0  0  0  0  0  0  0  0  0  0  0
  -34.3192   62.9312   62.8024 O   0  0  0  0  0  0  0  0  0  0  0  0
  -32.2010   63.5176   61.4288 O   0  0  0  0  0  0  0  0  0  0  0  0
  -32.4971   61.2596   62.2674 O   0  0  0  0  0  0  0  0  0  0  0  0
  -31.8631   63.0472   63.7763 O   0  0  0  0  0  0  0  0  0  0  0  0
  -32.6850   62.7020   62.5818 S   0  0  0  0  0  0  0  0  0  0  0  0
  -32.7253   63.3061   60.6406 H   0  0  0  0  0  0  0  0  0  0  0  0
  -31.9798   63.9865   63.9886 H   0  0  0  0  0  0  0  0  0  0  0  0
  2  1  1  0  0  0
  2  4  1  0  0  0
  2  5  1  0  0  0
 41 42  1  0  0  0
 41  1  1  0  0  0
 42 46  1  0  0  0
  1 24  1  0  0  0
 23 24  1  0  0  0
 23 25  1  0  0  0
 24 26  1  0  0  0
  3  4  2  0  0  0
 26 27  2  0  0  0
 27 28  1  0  0  0
 43 47  1  0  0  0
 43 51  1  0  0  0
 28 29  1  0  0  0
 56 48  1  0  0  0
 56 60  1  0  0  0
 29 30  1  0  0  0
 57 60  1  0  0  0
 57 61  1  0  0  0
 30 31  1  0  0  0
 44 49  1  0  0  0
 44 52  1  0  0  0
 31 32  1  0  0  0
 45 46  1  0  0  0
 45 50  1  0  0  0
 32 33  1  0  0  0
 53 54  1  0  0  0
 53 55  1  0  0  0
 33 34  1  0  0  0
 34 35  1  0  0  0
 35 36  1  0  0  0
 58 60  1  0  0  0
 36 37  1  0  0  0
 59 60  1  0  0  0
 59 62  1  0  0  0
 37 38  1  0  0  0
 38 39  1  0  0  0
 39 40  1  0  0  0
  4  6  1  0  0  0
  6  7  1  0  0  0
  7  8  1  0  0  0
  8  9  1  0  0  0
  9 10  1  0  0  0
 10 11  1  0  0  0
 11 12  1  0  0  0
 12 13  1  0  0  0
 13 14  1  0  0  0
 14 15  1  0  0  0
 15 16  1  0  0  0
 16 17  1  0  0  0
 17 18  1  0  0  0
 18 19  1  0  0  0
 19 20  1  0  0  0
 20 21  1  0  0  0
 21 22  1  0  0  0
 46 47  1  0  0  0
 47 48  1  0  0  0
 48 49  1  0  0  0
 49 50  1  0  0  0
 50 54  1  0  0  0
M  CHG 1  58  -1
M  END
> <minimizedAffinity>
-10.17256

> <CNNscore>
0.2706041932

> <CNNaffinity>
7.0229835510

> <CNN_VS>
1.9004487991

> <CNNaffinity_variance>
1.3415255547

$$$$
/media/chris/experiments/cd1a-new-docking/inputs/ligands/1onq_ligand.pdb


 62 62  0  0  0  0  0  0  0  0999 V2000
  -39.5974   59.4639   64.2031 C   0  0  0  0  0  0  0  0  0  0  0  0
  -38.5704   60.0644   65.0312 N   0  0  0  0  0  0  0  0  0  0  0  0
  -37.1865   60.9785   63.4832 O   0  0  0  0  0  0  0  0  0  0  0  0
  -37.4868   60.7478   64.6383 C   0  0  0  0  0  0  0  0  0  0  0  0
  -38.6830   59.9567   66.0034 H   0  0  0  0  0  0  0  0  0  0  0  0
  -36.6139   61.2524   65.7488 C   0  0  0  0  0  0  0  0  0  0  0  0
  -35.2604   61.5835   65.1197 C   0  0  0  0  0  0  0  0  0  0  0  0
  -35.0071   63.0875   65.1888 C   0  0  0  0  0  0  0  0  0  0  0  0
  -34.3714   63.5955   66.4602 C   0  0  0  0  0  0  0  0  0  0  0  0
  -33.6662   64.9071   66.1306 C   0  0  0  0  0  0  0  0  0  0  0  0
  -33.6857   65.2301   64.6305 C   0  0  0  0  0  0  0  0  0  0  0  0
  -32.3241   65.0661   63.9307 C   0  0  0  0  0  0  0  0  0  0  0  0
  -31.3049   64.2738   64.7787 C   0  0  0  0  0  0  0  0  0  0  0  0
  -30.8585   63.0075   64.0424 C   0  0  0  0  0  0  0  0  0  0  0  0
  -31.7856   62.5521   62.9219 C   0  0  0  0  0  0  0  0  0  0  0  0
  -31.0313   61.8713   61.7894 C   0  0  0  0  0  0  0  0  0  0  0  0
  -30.7453   60.3794   61.9751 C   0  0  0  0  0  0  0  0  0  0  0  0
  -32.0769   59.6532   62.1117 C   0  0  0  0  0  0  0  0  0  0  0  0
  -32.0871   58.2558   62.7136 C   0  0  0  0  0  0  0  0  0  0  0  0
  -33.5258   57.7552   62.9169 C   0  0  0  0  0  0  0  0  0  0  0  0
  -34.2029   58.2630   64.2034 C   0  0  0  0  0  0  0  0  0  0  0  0
  -35.5945   57.6754   64.4259 C   0  0  0  0  0  0  0  0  0  0  0  0
  -40.4819   60.7131   65.9504 O   0  0  0  0  0  0  0  0  0  0  0  0
  -40.8668   60.1127   64.7276 C   0  0  0  0  0  0  0  0  0  0  0  0
  -39.8027   61.3846   65.7811 H   0  0  0  0  0  0  0  0  0  0  0  0
  -41.9403   59.0397   64.9248 C   0  0  0  0  0  0  0  0  0  0  0  0
  -43.2264   59.3304   65.1846 C   0  0  0  0  0  0  0  0  0  0  0  0
  -44.2387   58.2013   65.3698 C   0  0  0  0  0  0  0  0  0  0  0  0
  -45.6996   58.6738   65.3929 C   0  0  0  0  0  0  0  0  0  0  0  0
  -46.6911   57.8138   64.5875 C   0  0  0  0  0  0  0  0  0  0  0  0
  -48.0967   57.8449   65.2345 C   0  0  0  0  0  0  0  0  0  0  0  0
  -49.0111   59.0086   64.7748 C   0  0  0  0  0  0  0  0  0  0  0  0
  -50.5001   58.6198   64.6176 C   0  0  0  0  0  0  0  0  0  0  0  0
  -51.1669   59.2240   63.3629 C   0  0  0  0  0  0  0  0  0  0  0  0
  -51.0759   58.3272   62.1224 C   0  0  0  0  0  0  0  0  0  0  0  0
  -49.6826   57.8132   61.7664 C   0  0  0  0  0  0  0  0  0  0  0  0
  -49.2857   58.0479   60.2956 C   0  0  0  0  0  0  0  0  0  0  0  0
  -48.9211   56.7820   59.5056 C   0  0  0  0  0  0  0  0  0  0  0  0
  -47.4302   56.7621   59.1564 C   0  0  0  0  0  0  0  0  0  0  0  0
  -46.9538   57.8131   58.1694 C   0  0  0  0  0  0  0  0  0  0  0  0
  -39.5772   57.9201   64.1322 C   0  0  0  0  0  0  0  0  0  0  0  0
  -38.9998   57.3335   62.9381 O   0  0  0  0  0  0  0  0  0  0  0  0
  -36.7205   56.6185   61.3663 O   0  0  0  0  0  0  0  0  0  0  0  0
  -38.8920   58.4696   58.3237 O   0  0  0  0  0  0  0  0  0  0  0  0
  -39.3539   59.0471   61.2577 O   0  0  0  0  0  0  0  0  0  0  0  0
  -38.3866   58.1752   61.8915 C   0  0  0  0  0  0  0  0  0  0  0  0
  -37.6762   57.4282   60.7537 C   0  0  0  0  0  0  0  0  0  0  0  0
  -36.9547   58.3598   59.7553 C   0  0  0  0  0  0  0  0  0  0  0  0
  -38.0189   59.2340   59.1515 C   0  0  0  0  0  0  0  0  0  0  0  0
  -38.7940   59.9347   60.2526 C   0  0  0  0  0  0  0  0  0  0  0  0
  -37.1564   56.0254   61.9980 H   0  0  0  0  0  0  0  0  0  0  0  0
  -38.3769   58.0312   57.6283 H   0  0  0  0  0  0  0  0  0  0  0  0
  -40.9386   59.9633   59.1977 O   0  0  0  0  0  0  0  0  0  0  0  0
  -39.8056   60.7415   59.4418 C   0  0  0  0  0  0  0  0  0  0  0  0
  -41.5796   60.4780   58.6826 H   0  0  0  0  0  0  0  0  0  0  0  0
  -36.2917   57.7102   58.6469 O   0  0  0  0  0  0  0  0  0  0  0  0
  -34.1022   56.8470   57.5612 O   0  0  0  0  0  0  0  0  0  0  0  0
  -35.3482   55.3990   59.0579 O   0  0  0  0  0  0  0  0  0  0  0  0
  -34.0384   57.2341   59.9471 O   0  0  0  0  0  0  0  0  0  0  0  0
  -34.9080   56.8000   58.8172 S   0  0  0  0  0  0  0  0  0  0  0  0
  -34.6528   56.5672   56.8133 H   0  0  0  0  0  0  0  0  0  0  0  0
  -33.7466   58.1472   59.7982 H   0  0  0  0  0  0  0  0  0  0  0  0
  2  1  1  0  0  0
  2  4  1  0  0  0
  2  5  1  0  0  0
 41 42  1  0  0  0
 41  1  1  0  0  0
 42 46  1  0  0  0
  1 24  1  0  0  0
 23 24  1  0  0  0
 23 25  1  0  0  0
 24 26  1  0  0  0
  3  4  2  0  0  0
 26 27  2  0  0  0
 27 28  1  0  0  0
 43 47  1  0  0  0
 43 51  1  0  0  0
 28 29  1  0  0  0
 56 48  1  0  0  0
 56 60  1  0  0  0
 29 30  1  0  0  0
 57 60  1  0  0  0
 57 61  1  0  0  0
 30 31  1  0  0  0
 44 49  1  0  0  0
 44 52  1  0  0  0
 31 32  1  0  0  0
 45 46  1  0  0  0
 45 50  1  0  0  0
 32 33  1  0  0  0
 53 54  1  0  0  0
 53 55  1  0  0  0
 33 34  1  0  0  0
 34 35  1  0  0  0
 35 36  1  0  0  0
 58 60  1  0  0  0
 36 37  1  0  0  0
 59 60  1  0  0  0
 59 62  1  0  0  0
 37 38  1  0  0  0
 38 39  1  0  0  0
 39 40  1  0  0  0
  4  6  1  0  0  0
  6  7  1  0  0  0
  7  8  1  0  0  0
  8  9  1  0  0  0
  9 10  1  0  0  0
 10 11  1  0  0  0
 11 12  1  0  0  0
 12 13  1  0  0  0
 13 14  1  0  0  0
 14 15  1  0  0  0
 15 16  1  0  0  0
 16 17  1  0  0  0
 17 18  1  0  0  0
 18 19  1  0  0  0
 19 20  1  0  0  0
 20 21  1  0  0  0
 21 22  1  0  0  0
 46 47  1  0  0  0
 47 48  1  0  0  0
 48 49  1  0  0  0
 49 50  1  0  0  0
 50 54  1  0  0  0
M  CHG 1  58  -1
M  END
> <minimizedAffinity>
-8.92680

> <CNNscore>
0.2666061819

> <CNNaffinity>
6.8526830673

> <CNN_VS>
1.8269677162

> <CNNaffinity_variance>
1.1964085102

$$$$
/media/chris/experiments/cd1a-new-docking/inputs/ligands/1onq_ligand.pdb


 62 62  0  0  0  0  0  0  0  0999 V2000
  -40.1151   59.1181   64.2065 C   0  0  0  0  0  0  0  0  0  0  0  0
  -41.4923   59.4753   64.4834 N   0  0  0  0  0  0  0  0  0  0  0  0
  -42.2266   57.6699   65.6449 O   0  0  0  0  0  0  0  0  0  0  0  0
  -42.4121   58.7649   65.1504 C   0  0  0  0  0  0  0  0  0  0  0  0
  -41.7889   60.3484   64.1385 H   0  0  0  0  0  0  0  0  0  0  0  0
  -43.7559   59.4193   65.2753 C   0  0  0  0  0  0  0  0  0  0  0  0
  -44.4299   58.7954   66.4975 C   0  0  0  0  0  0  0  0  0  0  0  0
  -45.8952   58.4968   66.1896 C   0  0  0  0  0  0  0  0  0  0  0  0
  -46.2120   57.0779   65.7838 C   0  0  0  0  0  0  0  0  0  0  0  0
  -47.7280   56.9154   65.8217 C   0  0  0  0  0  0  0  0  0  0  0  0
  -48.4723   58.2230   65.5198 C   0  0  0  0  0  0  0  0  0  0  0  0
  -50.0058   58.1098   65.5967 C   0  0  0  0  0  0  0  0  0  0  0  0
  -50.7183   58.7859   64.4047 C   0  0  0  0  0  0  0  0  0  0  0  0
  -49.7091   59.1659   63.3174 C   0  0  0  0  0  0  0  0  0  0  0  0
  -50.2422   59.1000   61.8913 C   0  0  0  0  0  0  0  0  0  0  0  0
  -50.9263   57.7744   61.5914 C   0  0  0  0  0  0  0  0  0  0  0  0
  -50.2495   56.8930   60.5391 C   0  0  0  0  0  0  0  0  0  0  0  0
  -49.2402   57.7457   59.7821 C   0  0  0  0  0  0  0  0  0  0  0  0
  -47.7573   57.4698   59.9816 C   0  0  0  0  0  0  0  0  0  0  0  0
  -47.0640   57.1927   58.6382 C   0  0  0  0  0  0  0  0  0  0  0  0
  -47.9832   56.5966   57.5562 C   0  0  0  0  0  0  0  0  0  0  0  0
  -47.5741   55.1906   57.1237 C   0  0  0  0  0  0  0  0  0  0  0  0
  -39.5250   60.4157   66.0406 O   0  0  0  0  0  0  0  0  0  0  0  0
  -39.4995   59.0726   65.5945 C   0  0  0  0  0  0  0  0  0  0  0  0
  -40.4436   60.7236   66.0868 H   0  0  0  0  0  0  0  0  0  0  0  0
  -38.0740   58.5235   65.4990 C   0  0  0  0  0  0  0  0  0  0  0  0
  -37.6943   57.6311   64.5687 C   0  0  0  0  0  0  0  0  0  0  0  0
  -36.2515   57.1300   64.5400 C   0  0  0  0  0  0  0  0  0  0  0  0
  -35.2083   58.2470   64.3912 C   0  0  0  0  0  0  0  0  0  0  0  0
  -34.9323   58.7136   62.9499 C   0  0  0  0  0  0  0  0  0  0  0  0
  -33.4260   58.5968   62.6138 C   0  0  0  0  0  0  0  0  0  0  0  0
  -33.0549   57.4645   61.6230 C   0  0  0  0  0  0  0  0  0  0  0  0
  -34.0591   56.2882   61.6006 C   0  0  0  0  0  0  0  0  0  0  0  0
  -34.5029   55.8820   60.1786 C   0  0  0  0  0  0  0  0  0  0  0  0
  -33.9994   56.8266   59.0808 C   0  0  0  0  0  0  0  0  0  0  0  0
  -34.9325   57.0283   57.8887 C   0  0  0  0  0  0  0  0  0  0  0  0
  -36.4099   56.7072   58.1888 C   0  0  0  0  0  0  0  0  0  0  0  0
  -37.3643   57.9099   58.1411 C   0  0  0  0  0  0  0  0  0  0  0  0
  -37.5229   58.5414   59.5272 C   0  0  0  0  0  0  0  0  0  0  0  0
  -37.6742   57.5809   60.6934 C   0  0  0  0  0  0  0  0  0  0  0  0
  -39.4000   59.9922   63.1512 C   0  0  0  0  0  0  0  0  0  0  0  0
  -38.9154   61.2834   63.5996 O   0  0  0  0  0  0  0  0  0  0  0  0
  -36.8375   61.7355   61.6878 O   0  0  0  0  0  0  0  0  0  0  0  0
  -35.4994   64.4455   64.5626 O   0  0  0  0  0  0  0  0  0  0  0  0
  -37.3121   62.1137   65.2199 O   0  0  0  0  0  0  0  0  0  0  0  0
  -37.4904   61.4964   63.9220 C   0  0  0  0  0  0  0  0  0  0  0  0
  -36.6939   62.3547   62.9288 C   0  0  0  0  0  0  0  0  0  0  0  0
  -35.1869   62.4436   63.2551 C   0  0  0  0  0  0  0  0  0  0  0  0
  -35.0877   63.0817   64.6131 C   0  0  0  0  0  0  0  0  0  0  0  0
  -35.9249   62.3010   65.6100 C   0  0  0  0  0  0  0  0  0  0  0  0
  -37.7795   61.6708   61.4659 H   0  0  0  0  0  0  0  0  0  0  0  0
  -34.9524   64.9249   63.9207 H   0  0  0  0  0  0  0  0  0  0  0  0
  -36.8076   63.9138   67.1375 O   0  0  0  0  0  0  0  0  0  0  0  0
  -35.6975   63.1047   66.8884 C   0  0  0  0  0  0  0  0  0  0  0  0
  -36.6607   64.4231   67.9499 H   0  0  0  0  0  0  0  0  0  0  0  0
  -34.3929   63.2628   62.3672 O   0  0  0  0  0  0  0  0  0  0  0  0
  -32.1422   63.9595   61.2873 O   0  0  0  0  0  0  0  0  0  0  0  0
  -32.1749   62.1975   62.9556 O   0  0  0  0  0  0  0  0  0  0  0  0
  -32.4300   64.5134   63.6232 O   0  0  0  0  0  0  0  0  0  0  0  0
  -32.7592   63.5109   62.5706 S   0  0  0  0  0  0  0  0  0  0  0  0
  -32.3461   63.3181   60.5888 H   0  0  0  0  0  0  0  0  0  0  0  0
  -32.8074   65.3733   63.3800 H   0  0  0  0  0  0  0  0  0  0  0  0
  2  1  1  0  0  0
  2  4  1  0  0  0
  2  5  1  0  0  0
 41 42  1  0  0  0
 41  1  1  0  0  0
 42 46  1  0  0  0
  1 24  1  0  0  0
 23 24  1  0  0  0
 23 25  1  0  0  0
 24 26  1  0  0  0
  3  4  2  0  0  0
 26 27  2  0  0  0
 27 28  1  0  0  0
 43 47  1  0  0  0
 43 51  1  0  0  0
 28 29  1  0  0  0
 56 48  1  0  0  0
 56 60  1  0  0  0
 29 30  1  0  0  0
 57 60  1  0  0  0
 57 61  1  0  0  0
 30 31  1  0  0  0
 44 49  1  0  0  0
 44 52  1  0  0  0
 31 32  1  0  0  0
 45 46  1  0  0  0
 45 50  1  0  0  0
 32 33  1  0  0  0
 53 54  1  0  0  0
 53 55  1  0  0  0
 33 34  1  0  0  0
 34 35  1  0  0  0
 35 36  1  0  0  0
 58 60  1  0  0  0
 36 37  1  0  0  0
 59 60  1  0  0  0
 59 62  1  0  0  0
 37 38  1  0  0  0
 38 39  1  0  0  0
 39 40  1  0  0  0
  4  6  1  0  0  0
  6  7  1  0  0  0
  7  8  1  0  0  0
  8  9  1  0  0  0
  9 10  1  0  0  0
 10 11  1  0  0  0
 11 12  1  0  0  0
 12 13  1  0  0  0
 13 14  1  0  0  0
 14 15  1  0  0  0
 15 16  1  0  0  0
 16 17  1  0  0  0
 17 18  1  0  0  0
 18 19  1  0  0  0
 19 20  1  0  0  0
 20 21  1  0  0  0
 21 22  1  0  0  0
 46 47  1  0  0  0
 47 48  1  0  0  0
 48 49  1  0  0  0
 49 50  1  0  0  0
 50 54  1  0  0  0
M  CHG 1  58  -1
M  END
> <minimizedAffinity>
-9.84313

> <CNNscore>
0.2655186653

> <CNNaffinity>
7.1705489159

> <CNN_VS>
1.9039145708

> <CNNaffinity_variance>
1.0985084772

$$$$
/media/chris/experiments/cd1a-new-docking/inputs/ligands/1onq_ligand.pdb


 62 62  0  0  0  0  0  0  0  0999 V2000
  -39.8845   59.2124   64.8726 C   0  0  0  0  0  0  0  0  0  0  0  0
  -39.9591   59.3332   63.4300 N   0  0  0  0  0  0  0  0  0  0  0  0
  -40.9544   61.3559   63.1739 O   0  0  0  0  0  0  0  0  0  0  0  0
  -40.4632   60.3450   62.7105 C   0  0  0  0  0  0  0  0  0  0  0  0
  -39.5939   58.5779   62.9148 H   0  0  0  0  0  0  0  0  0  0  0  0
  -40.3839   60.1711   61.2228 C   0  0  0  0  0  0  0  0  0  0  0  0
  -38.9012   60.2408   60.8568 C   0  0  0  0  0  0  0  0  0  0  0  0
  -38.6547   59.5112   59.5384 C   0  0  0  0  0  0  0  0  0  0  0  0
  -37.4086   58.6618   59.4732 C   0  0  0  0  0  0  0  0  0  0  0  0
  -37.3645   58.0135   58.0934 C   0  0  0  0  0  0  0  0  0  0  0  0
  -36.2787   56.9352   57.9793 C   0  0  0  0  0  0  0  0  0  0  0  0
  -36.4780   55.7349   58.9228 C   0  0  0  0  0  0  0  0  0  0  0  0
  -35.3168   55.5606   59.9261 C   0  0  0  0  0  0  0  0  0  0  0  0
  -34.1620   56.5067   59.5852 C   0  0  0  0  0  0  0  0  0  0  0  0
  -33.8066   57.5100   60.6758 C   0  0  0  0  0  0  0  0  0  0  0  0
  -33.0728   56.8611   61.8402 C   0  0  0  0  0  0  0  0  0  0  0  0
  -32.7407   57.7787   63.0191 C   0  0  0  0  0  0  0  0  0  0  0  0
  -33.9594   58.6460   63.3049 C   0  0  0  0  0  0  0  0  0  0  0  0
  -34.8899   58.2449   64.4400 C   0  0  0  0  0  0  0  0  0  0  0  0
  -35.9748   57.2754   63.9451 C   0  0  0  0  0  0  0  0  0  0  0  0
  -36.9246   57.8662   62.8868 C   0  0  0  0  0  0  0  0  0  0  0  0
  -37.8646   56.8309   62.2737 C   0  0  0  0  0  0  0  0  0  0  0  0
  -40.9819   60.7305   66.2463 O   0  0  0  0  0  0  0  0  0  0  0  0
  -41.2536   59.6982   65.3166 C   0  0  0  0  0  0  0  0  0  0  0  0
  -40.4957   61.4440   65.8041 H   0  0  0  0  0  0  0  0  0  0  0  0
  -42.0219   58.5371   65.9524 C   0  0  0  0  0  0  0  0  0  0  0  0
  -43.2751   58.2069   65.5967 C   0  0  0  0  0  0  0  0  0  0  0  0
  -43.9752   57.0336   66.2800 C   0  0  0  0  0  0  0  0  0  0  0  0
  -45.3478   56.6943   65.6808 C   0  0  0  0  0  0  0  0  0  0  0  0
  -46.5391   56.7808   66.6526 C   0  0  0  0  0  0  0  0  0  0  0  0
  -46.7187   58.2268   67.1741 C   0  0  0  0  0  0  0  0  0  0  0  0
  -47.5190   59.1718   66.2423 C   0  0  0  0  0  0  0  0  0  0  0  0
  -48.3685   58.4401   65.1766 C   0  0  0  0  0  0  0  0  0  0  0  0
  -49.8321   58.2048   65.6085 C   0  0  0  0  0  0  0  0  0  0  0  0
  -50.7980   59.2998   65.1404 C   0  0  0  0  0  0  0  0  0  0  0  0
  -50.6437   59.7567   63.6914 C   0  0  0  0  0  0  0  0  0  0  0  0
  -51.2426   58.7803   62.6600 C   0  0  0  0  0  0  0  0  0  0  0  0
  -50.2354   57.8277   61.9981 C   0  0  0  0  0  0  0  0  0  0  0  0
  -50.8414   57.1604   60.7601 C   0  0  0  0  0  0  0  0  0  0  0  0
  -50.2604   57.5717   59.4189 C   0  0  0  0  0  0  0  0  0  0  0  0
  -38.6564   59.8782   65.5338 C   0  0  0  0  0  0  0  0  0  0  0  0
  -38.2355   61.1526   64.9840 O   0  0  0  0  0  0  0  0  0  0  0  0
  -36.2839   61.3779   62.9062 O   0  0  0  0  0  0  0  0  0  0  0  0
  -35.3243   64.9095   64.9077 O   0  0  0  0  0  0  0  0  0  0  0  0
  -36.7495   62.5986   66.2435 O   0  0  0  0  0  0  0  0  0  0  0  0
  -36.8541   61.6434   65.1599 C   0  0  0  0  0  0  0  0  0  0  0  0
  -36.2148   62.3151   63.9362 C   0  0  0  0  0  0  0  0  0  0  0  0
  -34.7335   62.7002   64.1431 C   0  0  0  0  0  0  0  0  0  0  0  0
  -34.7091   63.6798   65.2837 C   0  0  0  0  0  0  0  0  0  0  0  0
  -35.4004   63.0773   66.4934 C   0  0  0  0  0  0  0  0  0  0  0  0
  -37.2088   61.1238   62.7618 H   0  0  0  0  0  0  0  0  0  0  0  0
  -34.8678   65.2764   64.1344 H   0  0  0  0  0  0  0  0  0  0  0  0
  -33.9717   64.7101   67.4963 O   0  0  0  0  0  0  0  0  0  0  0  0
  -35.2759   64.2123   67.5074 C   0  0  0  0  0  0  0  0  0  0  0  0
  -33.8952   65.4308   68.1411 H   0  0  0  0  0  0  0  0  0  0  0  0
  -34.0888   63.3619   63.0312 O   0  0  0  0  0  0  0  0  0  0  0  0
  -32.1269   63.9498   61.4429 O   0  0  0  0  0  0  0  0  0  0  0  0
  -32.4796   61.6425   62.1069 O   0  0  0  0  0  0  0  0  0  0  0  0
  -31.5262   63.2291   63.6713 O   0  0  0  0  0  0  0  0  0  0  0  0
  -32.5180   63.0554   62.5724 S   0  0  0  0  0  0  0  0  0  0  0  0
  -32.7623   63.8503   60.7168 H   0  0  0  0  0  0  0  0  0  0  0  0
  -31.5446   64.1482   63.9811 H   0  0  0  0  0  0  0  0  0  0  0  0
  2  1  1  0  0  0
  2  4  1  0  0  0
  2  5  1  0  0  0
 41 42  1  0  0  0
 41  1  1  0  0  0
 42 46  1  0  0  0
  1 24  1  0  0  0
 23 24  1  0  0  0
 23 25  1  0  0  0
 24 26  1  0  0  0
  3  4  2  0  0  0
 26 27  2  0  0  0
 27 28  1  0  0  0
 43 47  1  0  0  0
 43 51  1  0  0  0
 28 29  1  0  0  0
 56 48  1  0  0  0
 56 60  1  0  0  0
 29 30  1  0  0  0
 57 60  1  0  0  0
 57 61  1  0  0  0
 30 31  1  0  0  0
 44 49  1  0  0  0
 44 52  1  0  0  0
 31 32  1  0  0  0
 45 46  1  0  0  0
 45 50  1  0  0  0
 32 33  1  0  0  0
 53 54  1  0  0  0
 53 55  1  0  0  0
 33 34  1  0  0  0
 34 35  1  0  0  0
 35 36  1  0  0  0
 58 60  1  0  0  0
 36 37  1  0  0  0
 59 60  1  0  0  0
 59 62  1  0  0  0
 37 38  1  0  0  0
 38 39  1  0  0  0
 39 40  1  0  0  0
  4  6  1  0  0  0
  6  7  1  0  0  0
  7  8  1  0  0  0
  8  9  1  0  0  0
  9 10  1  0  0  0
 10 11  1  0  0  0
 11 12  1  0  0  0
 12 13  1  0  0  0
 13 14  1  0  0  0
 14 15  1  0  0  0
 15 16  1  0  0  0
 16 17  1  0  0  0
 17 18  1  0  0  0
 18 19  1  0  0  0
 19 20  1  0  0  0
 20 21  1  0  0  0
 21 22  1  0  0  0
 46 47  1  0  0  0
 47 48  1  0  0  0
 48 49  1  0  0  0
 49 50  1  0  0  0
 50 54  1  0  0  0
M  CHG 1  58  -1
M  END
> <minimizedAffinity>
-9.69326

> <CNNscore>
0.2491513342

> <CNNaffinity>
7.2186331749

> <CNN_VS>
1.7985321283

> <CNNaffinity_variance>
1.4175640345

$$$$
/media/chris/experiments/cd1a-new-docking/inputs/ligands/1onq_ligand.pdb


 62 62  0  0  0  0  0  0  0  0999 V2000
  -39.8969   59.1307   65.0355 C   0  0  0  0  0  0  0  0  0  0  0  0
  -39.3636   58.3962   63.9053 N   0  0  0  0  0  0  0  0  0  0  0  0
  -37.4865   57.4721   64.7828 O   0  0  0  0  0  0  0  0  0  0  0  0
  -38.2501   57.6524   63.8542 C   0  0  0  0  0  0  0  0  0  0  0  0
  -39.8843   58.4504   63.0715 H   0  0  0  0  0  0  0  0  0  0  0  0
  -37.9741   57.0078   62.5283 C   0  0  0  0  0  0  0  0  0  0  0  0
  -38.5534   57.9402   61.4642 C   0  0  0  0  0  0  0  0  0  0  0  0
  -37.4253   58.6781   60.7473 C   0  0  0  0  0  0  0  0  0  0  0  0
  -37.8007   59.3770   59.4631 C   0  0  0  0  0  0  0  0  0  0  0  0
  -36.9677   58.7620   58.3433 C   0  0  0  0  0  0  0  0  0  0  0  0
  -37.3527   57.3059   58.0490 C   0  0  0  0  0  0  0  0  0  0  0  0
  -36.1717   56.4125   57.6275 C   0  0  0  0  0  0  0  0  0  0  0  0
  -34.7997   57.0149   58.0020 C   0  0  0  0  0  0  0  0  0  0  0  0
  -34.0499   56.0919   58.9667 C   0  0  0  0  0  0  0  0  0  0  0  0
  -34.8649   55.6065   60.1594 C   0  0  0  0  0  0  0  0  0  0  0  0
  -34.4435   56.2778   61.4582 C   0  0  0  0  0  0  0  0  0  0  0  0
  -32.9403   56.4984   61.6426 C   0  0  0  0  0  0  0  0  0  0  0  0
  -32.6473   57.9778   61.4318 C   0  0  0  0  0  0  0  0  0  0  0  0
  -32.3015   58.8325   62.6422 C   0  0  0  0  0  0  0  0  0  0  0  0
  -33.4788   59.7423   63.0273 C   0  0  0  0  0  0  0  0  0  0  0  0
  -34.5929   59.0413   63.8264 C   0  0  0  0  0  0  0  0  0  0  0  0
  -34.0637   58.0317   64.8423 C   0  0  0  0  0  0  0  0  0  0  0  0
  -41.2739   60.9771   64.7349 O   0  0  0  0  0  0  0  0  0  0  0  0
  -41.2573   59.5769   64.5280 C   0  0  0  0  0  0  0  0  0  0  0  0
  -40.5661   61.3891   64.2152 H   0  0  0  0  0  0  0  0  0  0  0  0
  -42.3537   58.8634   65.3227 C   0  0  0  0  0  0  0  0  0  0  0  0
  -42.1811   57.6555   65.8858 C   0  0  0  0  0  0  0  0  0  0  0  0
  -43.3259   57.0085   66.6633 C   0  0  0  0  0  0  0  0  0  0  0  0
  -44.6604   56.9894   65.9039 C   0  0  0  0  0  0  0  0  0  0  0  0
  -45.6321   58.1372   66.2348 C   0  0  0  0  0  0  0  0  0  0  0  0
  -46.4618   58.5309   64.9889 C   0  0  0  0  0  0  0  0  0  0  0  0
  -47.3148   59.8157   65.1408 C   0  0  0  0  0  0  0  0  0  0  0  0
  -48.5905   59.6315   65.9960 C   0  0  0  0  0  0  0  0  0  0  0  0
  -49.2464   58.2430   65.8355 C   0  0  0  0  0  0  0  0  0  0  0  0
  -50.5759   58.2722   65.0721 C   0  0  0  0  0  0  0  0  0  0  0  0
  -50.9706   59.6156   64.4623 C   0  0  0  0  0  0  0  0  0  0  0  0
  -51.3616   59.5365   62.9734 C   0  0  0  0  0  0  0  0  0  0  0  0
  -50.3832   58.7596   62.0797 C   0  0  0  0  0  0  0  0  0  0  0  0
  -51.0834   57.5867   61.3876 C   0  0  0  0  0  0  0  0  0  0  0  0
  -50.2702   56.8311   60.3515 C   0  0  0  0  0  0  0  0  0  0  0  0
  -38.9717   60.2249   65.6147 C   0  0  0  0  0  0  0  0  0  0  0  0
  -38.3712   61.1377   64.6609 O   0  0  0  0  0  0  0  0  0  0  0  0
  -36.4952   61.6686   62.5690 O   0  0  0  0  0  0  0  0  0  0  0  0
  -35.5863   64.9800   64.9371 O   0  0  0  0  0  0  0  0  0  0  0  0
  -36.8930   62.4822   66.0366 O   0  0  0  0  0  0  0  0  0  0  0  0
  -37.0014   61.6540   64.8534 C   0  0  0  0  0  0  0  0  0  0  0  0
  -36.4234   62.4837   63.6980 C   0  0  0  0  0  0  0  0  0  0  0  0
  -34.9494   62.8951   63.9064 C   0  0  0  0  0  0  0  0  0  0  0  0
  -34.9201   63.7380   65.1513 C   0  0  0  0  0  0  0  0  0  0  0  0
  -35.5527   62.9768   66.3022 C   0  0  0  0  0  0  0  0  0  0  0  0
  -37.4156   61.3999   62.4223 H   0  0  0  0  0  0  0  0  0  0  0  0
  -35.1667   65.4489   64.1988 H   0  0  0  0  0  0  0  0  0  0  0  0
  -34.1516   64.5475   67.4350 O   0  0  0  0  0  0  0  0  0  0  0  0
  -35.4324   63.9921   67.4365 C   0  0  0  0  0  0  0  0  0  0  0  0
  -34.0778   65.1920   68.1562 H   0  0  0  0  0  0  0  0  0  0  0  0
  -34.3622   63.7022   62.8606 O   0  0  0  0  0  0  0  0  0  0  0  0
  -32.2289   64.0282   61.4253 O   0  0  0  0  0  0  0  0  0  0  0  0
  -32.0364   63.1177   63.6666 O   0  0  0  0  0  0  0  0  0  0  0  0
  -32.4656   65.4811   63.3434 O   0  0  0  0  0  0  0  0  0  0  0  0
  -32.7495   64.1140   62.8219 S   0  0  0  0  0  0  0  0  0  0  0  0
  -32.4049   63.1435   61.0685 H   0  0  0  0  0  0  0  0  0  0  0  0
  -32.9270   66.1374   62.7981 H   0  0  0  0  0  0  0  0  0  0  0  0
  2  1  1  0  0  0
  2  4  1  0  0  0
  2  5  1  0  0  0
 41 42  1  0  0  0
 41  1  1  0  0  0
 42 46  1  0  0  0
  1 24  1  0  0  0
 23 24  1  0  0  0
 23 25  1  0  0  0
 24 26  1  0  0  0
  3  4  2  0  0  0
 26 27  2  0  0  0
 27 28  1  0  0  0
 43 47  1  0  0  0
 43 51  1  0  0  0
 28 29  1  0  0  0
 56 48  1  0  0  0
 56 60  1  0  0  0
 29 30  1  0  0  0
 57 60  1  0  0  0
 57 61  1  0  0  0
 30 31  1  0  0  0
 44 49  1  0  0  0
 44 52  1  0  0  0
 31 32  1  0  0  0
 45 46  1  0  0  0
 45 50  1  0  0  0
 32 33  1  0  0  0
 53 54  1  0  0  0
 53 55  1  0  0  0
 33 34  1  0  0  0
 34 35  1  0  0  0
 35 36  1  0  0  0
 58 60  1  0  0  0
 36 37  1  0  0  0
 59 60  1  0  0  0
 59 62  1  0  0  0
 37 38  1  0  0  0
 38 39  1  0  0  0
 39 40  1  0  0  0
  4  6  1  0  0  0
  6  7  1  0  0  0
  7  8  1  0  0  0
  8  9  1  0  0  0
  9 10  1  0  0  0
 10 11  1  0  0  0
 11 12  1  0  0  0
 12 13  1  0  0  0
 13 14  1  0  0  0
 14 15  1  0  0  0
 15 16  1  0  0  0
 16 17  1  0  0  0
 17 18  1  0  0  0
 18 19  1  0  0  0
 19 20  1  0  0  0
 20 21  1  0  0  0
 21 22  1  0  0  0
 46 47  1  0  0  0
 47 48  1  0  0  0
 48 49  1  0  0  0
 49 50  1  0  0  0
 50 54  1  0  0  0
M  CHG 1  58  -1
M  END
> <minimizedAffinity>
-9.54680

> <CNNscore>
0.2428122163

> <CNNaffinity>
6.9708604813

> <CNN_VS>
1.6926100254

> <CNNaffinity_variance>
1.6312005520

$$$$
