/media/chris/experiments/cd1a-new-docking/inputs/ligands/1onq_ligand.pdb


 62 62  0  0  0  0  0  0  0  0999 V2000
  -38.4391   59.9245   62.5985 C   0  0  0  0  0  0  0  0  0  0  0  0
  -39.2088   59.6104   63.7860 N   0  0  0  0  0  0  0  0  0  0  0  0
  -40.7836   61.2436   63.7768 O   0  0  0  0  0  0  0  0  0  0  0  0
  -40.2765   60.2568   64.2736 C   0  0  0  0  0  0  0  0  0  0  0  0
  -38.9098   58.8244   64.2980 H   0  0  0  0  0  0  0  0  0  0  0  0
  -40.8582   59.6725   65.5267 C   0  0  0  0  0  0  0  0  0  0  0  0
  -42.3365   59.4116   65.2375 C   0  0  0  0  0  0  0  0  0  0  0  0
  -42.7773   58.1119   65.9066 C   0  0  0  0  0  0  0  0  0  0  0  0
  -44.2330   58.0272   66.2968 C   0  0  0  0  0  0  0  0  0  0  0  0
  -45.0485   58.6613   65.1748 C   0  0  0  0  0  0  0  0  0  0  0  0
  -46.4466   59.0981   65.6319 C   0  0  0  0  0  0  0  0  0  0  0  0
  -47.5735   58.7463   64.6435 C   0  0  0  0  0  0  0  0  0  0  0  0
  -48.4223   59.9719   64.2396 C   0  0  0  0  0  0  0  0  0  0  0  0
  -49.6349   59.5394   63.4104 C   0  0  0  0  0  0  0  0  0  0  0  0
  -49.5097   58.1721   62.7494 C   0  0  0  0  0  0  0  0  0  0  0  0
  -50.7509   57.8008   61.9513 C   0  0  0  0  0  0  0  0  0  0  0  0
  -50.5027   57.1849   60.5724 C   0  0  0  0  0  0  0  0  0  0  0  0
  -49.6124   58.1334   59.7809 C   0  0  0  0  0  0  0  0  0  0  0  0
  -48.2924   57.6097   59.2348 C   0  0  0  0  0  0  0  0  0  0  0  0
  -48.2184   56.0789   59.3500 C   0  0  0  0  0  0  0  0  0  0  0  0
  -47.8222   55.3589   58.0479 C   0  0  0  0  0  0  0  0  0  0  0  0
  -47.8006   56.2805   56.8306 C   0  0  0  0  0  0  0  0  0  0  0  0
  -38.7037   57.6176   62.5343 O   0  0  0  0  0  0  0  0  0  0  0  0
  -38.7450   58.7496   61.6854 C   0  0  0  0  0  0  0  0  0  0  0  0
  -39.3857   57.7018   63.2189 H   0  0  0  0  0  0  0  0  0  0  0  0
  -37.6901   58.6795   60.5788 C   0  0  0  0  0  0  0  0  0  0  0  0
  -37.9061   58.0729   59.3992 C   0  0  0  0  0  0  0  0  0  0  0  0
  -36.8009   58.0447   58.3451 C   0  0  0  0  0  0  0  0  0  0  0  0
  -36.3999   56.6299   57.9025 C   0  0  0  0  0  0  0  0  0  0  0  0
  -36.0254   55.6579   59.0365 C   0  0  0  0  0  0  0  0  0  0  0  0
  -34.5406   55.8289   59.4385 C   0  0  0  0  0  0  0  0  0  0  0  0
  -34.2846   56.0359   60.9528 C   0  0  0  0  0  0  0  0  0  0  0  0
  -34.7547   57.4068   61.4933 C   0  0  0  0  0  0  0  0  0  0  0  0
  -34.1466   57.7715   62.8648 C   0  0  0  0  0  0  0  0  0  0  0  0
  -33.2457   59.0120   62.8309 C   0  0  0  0  0  0  0  0  0  0  0  0
  -32.2049   59.0554   61.7141 C   0  0  0  0  0  0  0  0  0  0  0  0
  -30.8360   59.6095   62.1556 C   0  0  0  0  0  0  0  0  0  0  0  0
  -30.4929   61.0086   61.6219 C   0  0  0  0  0  0  0  0  0  0  0  0
  -29.1241   61.4706   62.1301 C   0  0  0  0  0  0  0  0  0  0  0  0
  -28.0257   60.4226   62.1593 C   0  0  0  0  0  0  0  0  0  0  0  0
  -36.9486   60.2552   62.8394 C   0  0  0  0  0  0  0  0  0  0  0  0
  -36.5672   61.6496   62.7238 O   0  0  0  0  0  0  0  0  0  0  0  0
  -34.2581   63.0698   61.8135 O   0  0  0  0  0  0  0  0  0  0  0  0
  -35.0890   65.4850   65.1112 O   0  0  0  0  0  0  0  0  0  0  0  0
  -36.0519   62.6255   64.8842 O   0  0  0  0  0  0  0  0  0  0  0  0
  -35.5261   62.2329   63.5932 C   0  0  0  0  0  0  0  0  0  0  0  0
  -34.7945   63.4638   63.0387 C   0  0  0  0  0  0  0  0  0  0  0  0
  -33.6394   63.9563   63.9379 C   0  0  0  0  0  0  0  0  0  0  0  0
  -34.2623   64.3326   65.2539 C   0  0  0  0  0  0  0  0  0  0  0  0
  -35.0582   63.1607   65.7994 C   0  0  0  0  0  0  0  0  0  0  0  0
  -34.9705   62.7567   61.2343 H   0  0  0  0  0  0  0  0  0  0  0  0
  -34.5613   66.2203   64.7620 H   0  0  0  0  0  0  0  0  0  0  0  0
  -36.9461   64.0844   66.9380 O   0  0  0  0  0  0  0  0  0  0  0  0
  -35.6015   63.7460   67.1010 C   0  0  0  0  0  0  0  0  0  0  0  0
  -37.2888   64.4557   67.7659 H   0  0  0  0  0  0  0  0  0  0  0  0
  -32.9332   65.1305   63.4772 O   0  0  0  0  0  0  0  0  0  0  0  0
  -30.4516   64.3839   63.4469 O   0  0  0  0  0  0  0  0  0  0  0  0
  -31.0877   66.4685   62.3795 O   0  0  0  0  0  0  0  0  0  0  0  0
  -31.6097   64.3496   61.3247 O   0  0  0  0  0  0  0  0  0  0  0  0
  -31.5017   65.0611   62.6299 S   0  0  0  0  0  0  0  0  0  0  0  0
  -30.3668   64.8340   64.3019 H   0  0  0  0  0  0  0  0  0  0  0  0
  -31.8794   63.4307   61.4787 H   0  0  0  0  0  0  0  0  0  0  0  0
  2  1  1  0  0  0
  2  4  1  0  0  0
  2  5  1  0  0  0
 41 42  1  0  0  0
 41  1  1  0  0  0
 42 46  1  0  0  0
  1 24  1  0  0  0
 23 24  1  0  0  0
 23 25  1  0  0  0
 24 26  1  0  0  0
  3  4  2  0  0  0
 26 27  2  0  0  0
 27 28  1  0  0  0
 43 47  1  0  0  0
 43 51  1  0  0  0
 28 29  1  0  0  0
 56 48  1  0  0  0
 56 60  1  0  0  0
 29 30  1  0  0  0
 57 60  1  0  0  0
 57 61  1  0  0  0
 30 31  1  0  0  0
 44 49  1  0  0  0
 44 52  1  0  0  0
 31 32  1  0  0  0
 45 46  1  0  0  0
 45 50  1  0  0  0
 32 33  1  0  0  0
 53 54  1  0  0  0
 53 55  1  0  0  0
 33 34  1  0  0  0
 34 35  1  0  0  0
 35 36  1  0  0  0
 58 60  1  0  0  0
 36 37  1  0  0  0
 59 60  1  0  0  0
 59 62  1  0  0  0
 37 38  1  0  0  0
 38 39  1  0  0  0
 39 40  1  0  0  0
  4  6  1  0  0  0
  6  7  1  0  0  0
  7  8  1  0  0  0
  8  9  1  0  0  0
  9 10  1  0  0  0
 10 11  1  0  0  0
 11 12  1  0  0  0
 12 13  1  0  0  0
 13 14  1  0  0  0
 14 15  1  0  0  0
 15 16  1  0  0  0
 16 17  1  0  0  0
 17 18  1  0  0  0
 18 19  1  0  0  0
 19 20  1  0  0  0
 20 21  1  0  0  0
 21 22  1  0  0  0
 46 47  1  0  0  0
 47 48  1  0  0  0
 48 49  1  0  0  0
 49 50  1  0  0  0
 50 54  1  0  0  0
M  CHG 1  58  -1
M  END
> <minimizedAffinity>
-9.71142

> <CNNscore>
0.6864110827

> <CNNaffinity>
7.3292007446

> <CNN_VS>
5.0308446884

> <CNNaffinity_variance>
1.0512691736

$$$$
/media/chris/experiments/cd1a-new-docking/inputs/ligands/1onq_ligand.pdb


 62 62  0  0  0  0  0  0  0  0999 V2000
  -37.3794   58.2399   63.7404 C   0  0  0  0  0  0  0  0  0  0  0  0
  -36.8034   57.9340   62.4458 N   0  0  0  0  0  0  0  0  0  0  0  0
  -34.9370   56.7777   63.0178 O   0  0  0  0  0  0  0  0  0  0  0  0
  -35.6773   57.2574   62.1814 C   0  0  0  0  0  0  0  0  0  0  0  0
  -37.3015   58.2644   61.6635 H   0  0  0  0  0  0  0  0  0  0  0  0
  -35.3546   57.1010   60.7249 C   0  0  0  0  0  0  0  0  0  0  0  0
  -36.3516   56.0853   60.1668 C   0  0  0  0  0  0  0  0  0  0  0  0
  -36.3801   56.1659   58.6424 C   0  0  0  0  0  0  0  0  0  0  0  0
  -36.2632   57.5489   58.0489 C   0  0  0  0  0  0  0  0  0  0  0  0
  -37.6558   58.1708   58.0518 C   0  0  0  0  0  0  0  0  0  0  0  0
  -37.8026   59.2909   59.0903 C   0  0  0  0  0  0  0  0  0  0  0  0
  -39.1482   59.2866   59.8388 C   0  0  0  0  0  0  0  0  0  0  0  0
  -40.1496   60.3210   59.2798 C   0  0  0  0  0  0  0  0  0  0  0  0
  -41.4714   59.6449   58.9043 C   0  0  0  0  0  0  0  0  0  0  0  0
  -41.6435   59.3450   57.4202 C   0  0  0  0  0  0  0  0  0  0  0  0
  -43.0511   58.8735   57.0862 C   0  0  0  0  0  0  0  0  0  0  0  0
  -43.9267   58.4775   58.2774 C   0  0  0  0  0  0  0  0  0  0  0  0
  -45.3004   58.0870   57.7491 C   0  0  0  0  0  0  0  0  0  0  0  0
  -46.3793   57.6901   58.7459 C   0  0  0  0  0  0  0  0  0  0  0  0
  -47.7064   57.3925   58.0302 C   0  0  0  0  0  0  0  0  0  0  0  0
  -47.5669   56.5431   56.7534 C   0  0  0  0  0  0  0  0  0  0  0  0
  -47.5875   55.0402   57.0225 C   0  0  0  0  0  0  0  0  0  0  0  0
  -38.7816   60.0367   63.2920 O   0  0  0  0  0  0  0  0  0  0  0  0
  -38.8054   58.6245   63.3856 C   0  0  0  0  0  0  0  0  0  0  0  0
  -38.1724   60.3037   62.5859 H   0  0  0  0  0  0  0  0  0  0  0  0
  -39.7509   58.1353   64.4853 C   0  0  0  0  0  0  0  0  0  0  0  0
  -40.8284   58.8310   64.8869 C   0  0  0  0  0  0  0  0  0  0  0  0
  -41.7236   58.2749   65.9926 C   0  0  0  0  0  0  0  0  0  0  0  0
  -43.0369   59.0492   66.1776 C   0  0  0  0  0  0  0  0  0  0  0  0
  -44.2886   58.3945   65.5647 C   0  0  0  0  0  0  0  0  0  0  0  0
  -45.4947   59.3633   65.6132 C   0  0  0  0  0  0  0  0  0  0  0  0
  -46.7108   58.8654   66.4346 C   0  0  0  0  0  0  0  0  0  0  0  0
  -48.0795   59.3354   65.8883 C   0  0  0  0  0  0  0  0  0  0  0  0
  -47.9677   60.3992   64.7750 C   0  0  0  0  0  0  0  0  0  0  0  0
  -49.2051   60.4820   63.8731 C   0  0  0  0  0  0  0  0  0  0  0  0
  -50.1557   59.2879   63.9263 C   0  0  0  0  0  0  0  0  0  0  0  0
  -49.9331   58.2601   62.7994 C   0  0  0  0  0  0  0  0  0  0  0  0
  -51.1817   57.9120   61.9748 C   0  0  0  0  0  0  0  0  0  0  0  0
  -50.7971   57.4065   60.5813 C   0  0  0  0  0  0  0  0  0  0  0  0
  -49.7782   56.2819   60.5284 C   0  0  0  0  0  0  0  0  0  0  0  0
  -36.5787   59.2393   64.6058 C   0  0  0  0  0  0  0  0  0  0  0  0
  -35.8326   60.2597   63.8948 O   0  0  0  0  0  0  0  0  0  0  0  0
  -33.4996   61.5239   62.8291 O   0  0  0  0  0  0  0  0  0  0  0  0
  -34.9932   64.8328   64.8832 O   0  0  0  0  0  0  0  0  0  0  0  0
  -35.7298   61.9860   65.5962 O   0  0  0  0  0  0  0  0  0  0  0  0
  -34.9815   61.2273   64.6155 C   0  0  0  0  0  0  0  0  0  0  0  0
  -34.2479   62.2596   63.7472 C   0  0  0  0  0  0  0  0  0  0  0  0
  -33.2837   63.1664   64.5430 C   0  0  0  0  0  0  0  0  0  0  0  0
  -34.1305   63.9076   65.5404 C   0  0  0  0  0  0  0  0  0  0  0  0
  -34.9297   62.9196   66.3707 C   0  0  0  0  0  0  0  0  0  0  0  0
  -34.0898   60.9474   62.3190 H   0  0  0  0  0  0  0  0  0  0  0  0
  -34.4628   65.4536   64.3595 H   0  0  0  0  0  0  0  0  0  0  0  0
  -36.9785   64.0893   66.7557 O   0  0  0  0  0  0  0  0  0  0  0  0
  -35.7088   63.8590   67.2886 C   0  0  0  0  0  0  0  0  0  0  0  0
  -37.4712   64.6860   67.3405 H   0  0  0  0  0  0  0  0  0  0  0  0
  -32.5865   64.1762   63.7787 O   0  0  0  0  0  0  0  0  0  0  0  0
  -31.6679   63.5315   61.4426 O   0  0  0  0  0  0  0  0  0  0  0  0
  -30.5952   62.6539   63.4347 O   0  0  0  0  0  0  0  0  0  0  0  0
  -30.2644   64.9669   62.7901 O   0  0  0  0  0  0  0  0  0  0  0  0
  -31.2505   63.8505   62.8400 S   0  0  0  0  0  0  0  0  0  0  0  0
  -32.3111   62.8056   61.4549 H   0  0  0  0  0  0  0  0  0  0  0  0
  -30.6836   65.7515   62.4035 H   0  0  0  0  0  0  0  0  0  0  0  0
  2  1  1  0  0  0
  2  4  1  0  0  0
  2  5  1  0  0  0
 41 42  1  0  0  0
 41  1  1  0  0  0
 42 46  1  0  0  0
  1 24  1  0  0  0
 23 24  1  0  0  0
 23 25  1  0  0  0
 24 26  1  0  0  0
  3  4  2  0  0  0
 26 27  2  0  0  0
 27 28  1  0  0  0
 43 47  1  0  0  0
 43 51  1  0  0  0
 28 29  1  0  0  0
 56 48  1  0  0  0
 56 60  1  0  0  0
 29 30  1  0  0  0
 57 60  1  0  0  0
 57 61  1  0  0  0
 30 31  1  0  0  0
 44 49  1  0  0  0
 44 52  1  0  0  0
 31 32  1  0  0  0
 45 46  1  0  0  0
 45 50  1  0  0  0
 32 33  1  0  0  0
 53 54  1  0  0  0
 53 55  1  0  0  0
 33 34  1  0  0  0
 34 35  1  0  0  0
 35 36  1  0  0  0
 58 60  1  0  0  0
 36 37  1  0  0  0
 59 60  1  0  0  0
 59 62  1  0  0  0
 37 38  1  0  0  0
 38 39  1  0  0  0
 39 40  1  0  0  0
  4  6  1  0  0  0
  6  7  1  0  0  0
  7  8  1  0  0  0
  8  9  1  0  0  0
  9 10  1  0  0  0
 10 11  1  0  0  0
 11 12  1  0  0  0
 12 13  1  0  0  0
 13 14  1  0  0  0
 14 15  1  0  0  0
 15 16  1  0  0  0
 16 17  1  0  0  0
 17 18  1  0  0  0
 18 19  1  0  0  0
 19 20  1  0  0  0
 20 21  1  0  0  0
 21 22  1  0  0  0
 46 47  1  0  0  0
 47 48  1  0  0  0
 48 49  1  0  0  0
 49 50  1  0  0  0
 50 54  1  0  0  0
M  CHG 1  58  -1
M  END
> <minimizedAffinity>
-9.18046

> <CNNscore>
0.5674270391

> <CNNaffinity>
7.3606328964

> <CNN_VS>
4.1766219139

> <CNNaffinity_variance>
0.5612458587

$$$$
/media/chris/experiments/cd1a-new-docking/inputs/ligands/1onq_ligand.pdb


 62 62  0  0  0  0  0  0  0  0999 V2000
  -38.8606   59.9232   62.6364 C   0  0  0  0  0  0  0  0  0  0  0  0
  -39.4778   59.7403   63.9351 N   0  0  0  0  0  0  0  0  0  0  0  0
  -41.1300   61.2949   63.8986 O   0  0  0  0  0  0  0  0  0  0  0  0
  -40.5192   60.4037   64.4559 C   0  0  0  0  0  0  0  0  0  0  0  0
  -39.0829   59.0419   64.5056 H   0  0  0  0  0  0  0  0  0  0  0  0
  -40.9282   59.9694   65.8321 C   0  0  0  0  0  0  0  0  0  0  0  0
  -41.3675   58.5099   65.7132 C   0  0  0  0  0  0  0  0  0  0  0  0
  -42.7958   58.3515   66.2290 C   0  0  0  0  0  0  0  0  0  0  0  0
  -43.8866   58.8978   65.3401 C   0  0  0  0  0  0  0  0  0  0  0  0
  -45.1803   58.9020   66.1477 C   0  0  0  0  0  0  0  0  0  0  0  0
  -46.3901   59.3684   65.3270 C   0  0  0  0  0  0  0  0  0  0  0  0
  -47.0682   58.2529   64.5107 C   0  0  0  0  0  0  0  0  0  0  0  0
  -48.2593   57.6061   65.2513 C   0  0  0  0  0  0  0  0  0  0  0  0
  -49.1634   58.6806   65.8620 C   0  0  0  0  0  0  0  0  0  0  0  0
  -50.6127   58.6472   65.3923 C   0  0  0  0  0  0  0  0  0  0  0  0
  -50.9190   59.7474   64.3867 C   0  0  0  0  0  0  0  0  0  0  0  0
  -51.3775   59.2826   63.0025 C   0  0  0  0  0  0  0  0  0  0  0  0
  -50.1456   59.1260   62.1211 C   0  0  0  0  0  0  0  0  0  0  0  0
  -49.6921   57.7234   61.7441 C   0  0  0  0  0  0  0  0  0  0  0  0
  -50.2875   57.2978   60.3927 C   0  0  0  0  0  0  0  0  0  0  0  0
  -49.2609   56.7399   59.3898 C   0  0  0  0  0  0  0  0  0  0  0  0
  -48.0039   57.5988   59.2714 C   0  0  0  0  0  0  0  0  0  0  0  0
  -39.0094   57.6220   62.9155 O   0  0  0  0  0  0  0  0  0  0  0  0
  -39.1881   58.6201   61.9278 C   0  0  0  0  0  0  0  0  0  0  0  0
  -39.6285   57.7758   63.6463 H   0  0  0  0  0  0  0  0  0  0  0  0
  -38.2379   58.4349   60.7424 C   0  0  0  0  0  0  0  0  0  0  0  0
  -38.3872   59.0859   59.5761 C   0  0  0  0  0  0  0  0  0  0  0  0
  -37.3961   58.8457   58.4389 C   0  0  0  0  0  0  0  0  0  0  0  0
  -37.5996   57.5102   57.7086 C   0  0  0  0  0  0  0  0  0  0  0  0
  -36.3838   56.5653   57.6964 C   0  0  0  0  0  0  0  0  0  0  0  0
  -35.0806   57.3432   57.9997 C   0  0  0  0  0  0  0  0  0  0  0  0
  -33.7943   56.4810   58.0609 C   0  0  0  0  0  0  0  0  0  0  0  0
  -33.7207   55.5391   59.2857 C   0  0  0  0  0  0  0  0  0  0  0  0
  -34.3593   56.1323   60.5601 C   0  0  0  0  0  0  0  0  0  0  0  0
  -33.6447   57.3837   61.0842 C   0  0  0  0  0  0  0  0  0  0  0  0
  -32.5613   57.1478   62.1344 C   0  0  0  0  0  0  0  0  0  0  0  0
  -32.7584   57.9593   63.4301 C   0  0  0  0  0  0  0  0  0  0  0  0
  -33.9758   58.8961   63.4371 C   0  0  0  0  0  0  0  0  0  0  0  0
  -34.9828   58.4812   64.5136 C   0  0  0  0  0  0  0  0  0  0  0  0
  -35.8074   57.2394   64.2242 C   0  0  0  0  0  0  0  0  0  0  0  0
  -37.3765   60.3545   62.6595 C   0  0  0  0  0  0  0  0  0  0  0  0
  -37.1021   61.7096   63.0973 O   0  0  0  0  0  0  0  0  0  0  0  0
  -35.1852   63.3705   61.7766 O   0  0  0  0  0  0  0  0  0  0  0  0
  -34.6104   64.8708   65.6259 O   0  0  0  0  0  0  0  0  0  0  0  0
  -35.7800   62.1327   65.0870 O   0  0  0  0  0  0  0  0  0  0  0  0
  -35.7813   62.0861   63.6395 C   0  0  0  0  0  0  0  0  0  0  0  0
  -35.2173   63.4346   63.1691 C   0  0  0  0  0  0  0  0  0  0  0  0
  -33.7859   63.7186   63.6746 C   0  0  0  0  0  0  0  0  0  0  0  0
  -33.8670   63.7408   65.1761 C   0  0  0  0  0  0  0  0  0  0  0  0
  -34.4902   62.4501   65.6760 C   0  0  0  0  0  0  0  0  0  0  0  0
  -36.0775   63.1924   61.4405 H   0  0  0  0  0  0  0  0  0  0  0  0
  -34.1956   65.6831   65.2957 H   0  0  0  0  0  0  0  0  0  0  0  0
  -35.8015   62.8092   67.6421 O   0  0  0  0  0  0  0  0  0  0  0  0
  -34.4884   62.6802   67.1857 C   0  0  0  0  0  0  0  0  0  0  0  0
  -35.7977   62.9552   68.6010 H   0  0  0  0  0  0  0  0  0  0  0  0
  -33.2156   64.9883   63.2843 O   0  0  0  0  0  0  0  0  0  0  0  0
  -31.5469   64.4696   61.3703 O   0  0  0  0  0  0  0  0  0  0  0  0
  -30.7677   64.4770   63.6686 O   0  0  0  0  0  0  0  0  0  0  0  0
  -31.2314   66.5667   62.5315 O   0  0  0  0  0  0  0  0  0  0  0  0
  -31.6675   65.1507   62.6933 S   0  0  0  0  0  0  0  0  0  0  0  0
  -31.8270   63.5449   61.4559 H   0  0  0  0  0  0  0  0  0  0  0  0
  -31.8130   67.0137   61.8969 H   0  0  0  0  0  0  0  0  0  0  0  0
  2  1  1  0  0  0
  2  4  1  0  0  0
  2  5  1  0  0  0
 41 42  1  0  0  0
 41  1  1  0  0  0
 42 46  1  0  0  0
  1 24  1  0  0  0
 23 24  1  0  0  0
 23 25  1  0  0  0
 24 26  1  0  0  0
  3  4  2  0  0  0
 26 27  2  0  0  0
 27 28  1  0  0  0
 43 47  1  0  0  0
 43 51  1  0  0  0
 28 29  1  0  0  0
 56 48  1  0  0  0
 56 60  1  0  0  0
 29 30  1  0  0  0
 57 60  1  0  0  0
 57 61  1  0  0  0
 30 31  1  0  0  0
 44 49  1  0  0  0
 44 52  1  0  0  0
 31 32  1  0  0  0
 45 46  1  0  0  0
 45 50  1  0  0  0
 32 33  1  0  0  0
 53 54  1  0  0  0
 53 55  1  0  0  0
 33 34  1  0  0  0
 34 35  1  0  0  0
 35 36  1  0  0  0
 58 60  1  0  0  0
 36 37  1  0  0  0
 59 60  1  0  0  0
 59 62  1  0  0  0
 37 38  1  0  0  0
 38 39  1  0  0  0
 39 40  1  0  0  0
  4  6  1  0  0  0
  6  7  1  0  0  0
  7  8  1  0  0  0
  8  9  1  0  0  0
  9 10  1  0  0  0
 10 11  1  0  0  0
 11 12  1  0  0  0
 12 13  1  0  0  0
 13 14  1  0  0  0
 14 15  1  0  0  0
 15 16  1  0  0  0
 16 17  1  0  0  0
 17 18  1  0  0  0
 18 19  1  0  0  0
 19 20  1  0  0  0
 20 21  1  0  0  0
 21 22  1  0  0  0
 46 47  1  0  0  0
 47 48  1  0  0  0
 48 49  1  0  0  0
 49 50  1  0  0  0
 50 54  1  0  0  0
M  CHG 1  58  -1
M  END
> <minimizedAffinity>
-9.71196

> <CNNscore>
0.4508740902

> <CNNaffinity>
7.0468835831

> <CNN_VS>
3.1772572994

> <CNNaffinity_variance>
1.4482581615

$$$$
/media/chris/experiments/cd1a-new-docking/inputs/ligands/1onq_ligand.pdb


 62 62  0  0  0  0  0  0  0  0999 V2000
  -40.5544   59.1860   65.1951 C   0  0  0  0  0  0  0  0  0  0  0  0
  -40.6041   59.3541   63.7562 N   0  0  0  0  0  0  0  0  0  0  0  0
  -39.9529   61.5132   63.5076 O   0  0  0  0  0  0  0  0  0  0  0  0
  -40.3150   60.4504   63.0418 C   0  0  0  0  0  0  0  0  0  0  0  0
  -40.8852   58.5646   63.2394 H   0  0  0  0  0  0  0  0  0  0  0  0
  -40.4575   60.2993   61.5563 C   0  0  0  0  0  0  0  0  0  0  0  0
  -39.1950   59.5876   61.0699 C   0  0  0  0  0  0  0  0  0  0  0  0
  -38.9622   59.8905   59.5916 C   0  0  0  0  0  0  0  0  0  0  0  0
  -38.1678   58.8639   58.8212 C   0  0  0  0  0  0  0  0  0  0  0  0
  -37.0987   58.3108   59.7577 C   0  0  0  0  0  0  0  0  0  0  0  0
  -37.1196   56.7787   59.8422 C   0  0  0  0  0  0  0  0  0  0  0  0
  -36.4253   56.0710   58.6642 C   0  0  0  0  0  0  0  0  0  0  0  0
  -35.4579   56.9963   57.8937 C   0  0  0  0  0  0  0  0  0  0  0  0
  -34.0048   56.6893   58.2668 C   0  0  0  0  0  0  0  0  0  0  0  0
  -33.8178   55.5135   59.2180 C   0  0  0  0  0  0  0  0  0  0  0  0
  -33.4329   55.9612   60.6204 C   0  0  0  0  0  0  0  0  0  0  0  0
  -33.7360   57.4211   60.9656 C   0  0  0  0  0  0  0  0  0  0  0  0
  -33.6992   57.5691   62.4807 C   0  0  0  0  0  0  0  0  0  0  0  0
  -32.6887   58.5260   63.0957 C   0  0  0  0  0  0  0  0  0  0  0  0
  -31.4691   58.7025   62.1774 C   0  0  0  0  0  0  0  0  0  0  0  0
  -31.1983   60.1561   61.7476 C   0  0  0  0  0  0  0  0  0  0  0  0
  -29.7332   60.5637   61.8856 C   0  0  0  0  0  0  0  0  0  0  0  0
  -41.9270   59.5192   67.0392 O   0  0  0  0  0  0  0  0  0  0  0  0
  -41.9128   59.7038   65.6358 C   0  0  0  0  0  0  0  0  0  0  0  0
  -41.2170   60.0438   67.4415 H   0  0  0  0  0  0  0  0  0  0  0  0
  -43.0125   58.9005   64.9374 C   0  0  0  0  0  0  0  0  0  0  0  0
  -44.1836   58.5994   65.5239 C   0  0  0  0  0  0  0  0  0  0  0  0
  -45.2312   57.7919   64.7599 C   0  0  0  0  0  0  0  0  0  0  0  0
  -46.6644   57.9868   65.2760 C   0  0  0  0  0  0  0  0  0  0  0  0
  -47.1370   59.4475   65.3951 C   0  0  0  0  0  0  0  0  0  0  0  0
  -48.2015   59.7698   64.3187 C   0  0  0  0  0  0  0  0  0  0  0  0
  -48.9246   58.5396   63.7140 C   0  0  0  0  0  0  0  0  0  0  0  0
  -50.3073   58.8573   63.0977 C   0  0  0  0  0  0  0  0  0  0  0  0
  -50.5314   58.2070   61.7154 C   0  0  0  0  0  0  0  0  0  0  0  0
  -49.2824   58.2004   60.8259 C   0  0  0  0  0  0  0  0  0  0  0  0
  -49.1379   57.0098   59.8804 C   0  0  0  0  0  0  0  0  0  0  0  0
  -47.6991   56.7818   59.3765 C   0  0  0  0  0  0  0  0  0  0  0  0
  -47.3276   57.5379   58.0919 C   0  0  0  0  0  0  0  0  0  0  0  0
  -47.3168   56.5971   56.8837 C   0  0  0  0  0  0  0  0  0  0  0  0
  -47.6642   55.1443   57.1560 C   0  0  0  0  0  0  0  0  0  0  0  0
  -39.3144   59.7891   65.8933 C   0  0  0  0  0  0  0  0  0  0  0  0
  -38.0232   59.4557   65.3231 O   0  0  0  0  0  0  0  0  0  0  0  0
  -36.0205   59.7081   63.2976 O   0  0  0  0  0  0  0  0  0  0  0  0
  -36.4963   63.7794   64.0703 O   0  0  0  0  0  0  0  0  0  0  0  0
  -37.2431   61.6298   66.0646 O   0  0  0  0  0  0  0  0  0  0  0  0
  -36.9055   60.4202   65.3433 C   0  0  0  0  0  0  0  0  0  0  0  0
  -36.3794   60.8735   63.9738 C   0  0  0  0  0  0  0  0  0  0  0  0
  -35.1372   61.7874   64.0580 C   0  0  0  0  0  0  0  0  0  0  0  0
  -35.5647   63.0082   64.8250 C   0  0  0  0  0  0  0  0  0  0  0  0
  -36.1605   62.5946   66.1585 C   0  0  0  0  0  0  0  0  0  0  0  0
  -36.7898   59.1207   63.2350 H   0  0  0  0  0  0  0  0  0  0  0  0
  -36.0958   64.0325   63.2239 H   0  0  0  0  0  0  0  0  0  0  0  0
  -36.4820   63.8769   68.1500 O   0  0  0  0  0  0  0  0  0  0  0  0
  -36.5295   63.9503   66.7566 C   0  0  0  0  0  0  0  0  0  0  0  0
  -36.7166   64.7390   68.5274 H   0  0  0  0  0  0  0  0  0  0  0  0
  -34.6159   62.2669   62.7977 O   0  0  0  0  0  0  0  0  0  0  0  0
  -32.1849   62.7307   63.5670 O   0  0  0  0  0  0  0  0  0  0  0  0
  -33.6815   64.5929   63.1409 O   0  0  0  0  0  0  0  0  0  0  0  0
  -32.7282   63.3473   61.2931 O   0  0  0  0  0  0  0  0  0  0  0  0
  -33.2702   63.2399   62.6773 S   0  0  0  0  0  0  0  0  0  0  0  0
  -32.5196   62.6540   64.4742 H   0  0  0  0  0  0  0  0  0  0  0  0
  -32.4574   62.4691   60.9828 H   0  0  0  0  0  0  0  0  0  0  0  0
  2  1  1  0  0  0
  2  4  1  0  0  0
  2  5  1  0  0  0
 41 42  1  0  0  0
 41  1  1  0  0  0
 42 46  1  0  0  0
  1 24  1  0  0  0
 23 24  1  0  0  0
 23 25  1  0  0  0
 24 26  1  0  0  0
  3  4  2  0  0  0
 26 27  2  0  0  0
 27 28  1  0  0  0
 43 47  1  0  0  0
 43 51  1  0  0  0
 28 29  1  0  0  0
 56 48  1  0  0  0
 56 60  1  0  0  0
 29 30  1  0  0  0
 57 60  1  0  0  0
 57 61  1  0  0  0
 30 31  1  0  0  0
 44 49  1  0  0  0
 44 52  1  0  0  0
 31 32  1  0  0  0
 45 46  1  0  0  0
 45 50  1  0  0  0
 32 33  1  0  0  0
 53 54  1  0  0  0
 53 55  1  0  0  0
 33 34  1  0  0  0
 34 35  1  0  0  0
 35 36  1  0  0  0
 58 60  1  0  0  0
 36 37  1  0  0  0
 59 60  1  0  0  0
 59 62  1  0  0  0
 37 38  1  0  0  0
 38 39  1  0  0  0
 39 40  1  0  0  0
  4  6  1  0  0  0
  6  7  1  0  0  0
  7  8  1  0  0  0
  8  9  1  0  0  0
  9 10  1  0  0  0
 10 11  1  0  0  0
 11 12  1  0  0  0
 12 13  1  0  0  0
 13 14  1  0  0  0
 14 15  1  0  0  0
 15 16  1  0  0  0
 16 17  1  0  0  0
 17 18  1  0  0  0
 18 19  1  0  0  0
 19 20  1  0  0  0
 20 21  1  0  0  0
 21 22  1  0  0  0
 46 47  1  0  0  0
 47 48  1  0  0  0
 48 49  1  0  0  0
 49 50  1  0  0  0
 50 54  1  0  0  0
M  CHG 1  58  -1
M  END
> <minimizedAffinity>
-9.40566

> <CNNscore>
0.3549911082

> <CNNaffinity>
7.2487449646

> <CNN_VS>
2.5732400417

> <CNNaffinity_variance>
0.9118301272

$$$$
/media/chris/experiments/cd1a-new-docking/inputs/ligands/1onq_ligand.pdb


 62 62  0  0  0  0  0  0  0  0999 V2000
  -40.0405   58.8530   64.7707 C   0  0  0  0  0  0  0  0  0  0  0  0
  -41.1226   58.3405   65.5878 N   0  0  0  0  0  0  0  0  0  0  0  0
  -42.9179   59.4403   64.7421 O   0  0  0  0  0  0  0  0  0  0  0  0
  -42.4246   58.6511   65.5242 C   0  0  0  0  0  0  0  0  0  0  0  0
  -40.8695   57.6825   66.2750 H   0  0  0  0  0  0  0  0  0  0  0  0
  -43.2995   57.9362   66.5108 C   0  0  0  0  0  0  0  0  0  0  0  0
  -44.0505   56.8614   65.7248 C   0  0  0  0  0  0  0  0  0  0  0  0
  -45.5566   57.0582   65.8803 C   0  0  0  0  0  0  0  0  0  0  0  0
  -45.9951   58.3669   66.4914 C   0  0  0  0  0  0  0  0  0  0  0  0
  -46.7953   59.1230   65.4360 C   0  0  0  0  0  0  0  0  0  0  0  0
  -47.7911   58.2245   64.6905 C   0  0  0  0  0  0  0  0  0  0  0  0
  -49.1015   57.9625   65.4554 C   0  0  0  0  0  0  0  0  0  0  0  0
  -50.2608   58.8703   64.9889 C   0  0  0  0  0  0  0  0  0  0  0  0
  -49.9730   59.4418   63.5976 C   0  0  0  0  0  0  0  0  0  0  0  0
  -51.0511   59.1737   62.5546 C   0  0  0  0  0  0  0  0  0  0  0  0
  -51.0674   57.7213   62.1014 C   0  0  0  0  0  0  0  0  0  0  0  0
  -50.9587   57.4878   60.5927 C   0  0  0  0  0  0  0  0  0  0  0  0
  -49.6103   56.8404   60.3075 C   0  0  0  0  0  0  0  0  0  0  0  0
  -48.3619   57.7096   60.3429 C   0  0  0  0  0  0  0  0  0  0  0  0
  -47.5664   57.5828   59.0342 C   0  0  0  0  0  0  0  0  0  0  0  0
  -48.0383   56.4473   58.1074 C   0  0  0  0  0  0  0  0  0  0  0  0
  -47.5481   56.5984   56.6691 C   0  0  0  0  0  0  0  0  0  0  0  0
  -37.9392   57.9773   65.2327 O   0  0  0  0  0  0  0  0  0  0  0  0
  -39.1538   57.6325   64.5926 C   0  0  0  0  0  0  0  0  0  0  0  0
  -38.1052   58.1416   66.1742 H   0  0  0  0  0  0  0  0  0  0  0  0
  -38.9612   57.3594   63.0990 C   0  0  0  0  0  0  0  0  0  0  0  0
  -37.7530   57.3229   62.5115 C   0  0  0  0  0  0  0  0  0  0  0  0
  -37.6441   57.0447   61.0135 C   0  0  0  0  0  0  0  0  0  0  0  0
  -37.7533   58.3018   60.1382 C   0  0  0  0  0  0  0  0  0  0  0  0
  -37.1565   58.1829   58.7236 C   0  0  0  0  0  0  0  0  0  0  0  0
  -36.3444   56.8733   58.5785 C   0  0  0  0  0  0  0  0  0  0  0  0
  -34.9374   57.0336   57.9491 C   0  0  0  0  0  0  0  0  0  0  0  0
  -33.7965   56.3980   58.7781 C   0  0  0  0  0  0  0  0  0  0  0  0
  -34.2624   55.8298   60.1360 C   0  0  0  0  0  0  0  0  0  0  0  0
  -33.5519   56.4536   61.3432 C   0  0  0  0  0  0  0  0  0  0  0  0
  -34.2075   57.6976   61.9389 C   0  0  0  0  0  0  0  0  0  0  0  0
  -33.2099   58.6919   62.5651 C   0  0  0  0  0  0  0  0  0  0  0  0
  -31.8432   58.7744   61.8684 C   0  0  0  0  0  0  0  0  0  0  0  0
  -31.3413   60.2200   61.8116 C   0  0  0  0  0  0  0  0  0  0  0  0
  -29.8752   60.4393   62.1405 C   0  0  0  0  0  0  0  0  0  0  0  0
  -39.3639   60.1405   65.2933 C   0  0  0  0  0  0  0  0  0  0  0  0
  -38.6519   60.9412   64.3159 O   0  0  0  0  0  0  0  0  0  0  0  0
  -36.6755   61.4960   62.3252 O   0  0  0  0  0  0  0  0  0  0  0  0
  -35.8512   64.7514   64.7995 O   0  0  0  0  0  0  0  0  0  0  0  0
  -37.2288   62.2445   65.7861 O   0  0  0  0  0  0  0  0  0  0  0  0
  -37.2884   61.4409   64.5827 C   0  0  0  0  0  0  0  0  0  0  0  0
  -36.6500   62.2880   63.4725 C   0  0  0  0  0  0  0  0  0  0  0  0
  -35.1840   62.6814   63.7577 C   0  0  0  0  0  0  0  0  0  0  0  0
  -35.2061   63.4993   65.0195 C   0  0  0  0  0  0  0  0  0  0  0  0
  -35.8984   62.7214   66.1239 C   0  0  0  0  0  0  0  0  0  0  0  0
  -37.5902   61.2388   62.1301 H   0  0  0  0  0  0  0  0  0  0  0  0
  -35.3935   65.2309   64.0913 H   0  0  0  0  0  0  0  0  0  0  0  0
  -34.5024   64.1301   67.4582 O   0  0  0  0  0  0  0  0  0  0  0  0
  -35.8231   63.7129   67.2829 C   0  0  0  0  0  0  0  0  0  0  0  0
  -34.4572   64.7597   68.1947 H   0  0  0  0  0  0  0  0  0  0  0  0
  -34.5417   63.5036   62.7571 O   0  0  0  0  0  0  0  0  0  0  0  0
  -32.3217   63.7700   61.4464 O   0  0  0  0  0  0  0  0  0  0  0  0
  -32.2743   62.9331   63.7239 O   0  0  0  0  0  0  0  0  0  0  0  0
  -32.6649   65.2870   63.2977 O   0  0  0  0  0  0  0  0  0  0  0  0
  -32.9265   63.9050   62.8047 S   0  0  0  0  0  0  0  0  0  0  0  0
  -32.4821   62.8750   61.1085 H   0  0  0  0  0  0  0  0  0  0  0  0
  -33.0868   65.9274   62.7038 H   0  0  0  0  0  0  0  0  0  0  0  0
  2  1  1  0  0  0
  2  4  1  0  0  0
  2  5  1  0  0  0
 41 42  1  0  0  0
 41  1  1  0  0  0
 42 46  1  0  0  0
  1 24  1  0  0  0
 23 24  1  0  0  0
 23 25  1  0  0  0
 24 26  1  0  0  0
  3  4  2  0  0  0
 26 27  2  0  0  0
 27 28  1  0  0  0
 43 47  1  0  0  0
 43 51  1  0  0  0
 28 29  1  0  0  0
 56 48  1  0  0  0
 56 60  1  0  0  0
 29 30  1  0  0  0
 57 60  1  0  0  0
 57 61  1  0  0  0
 30 31  1  0  0  0
 44 49  1  0  0  0
 44 52  1  0  0  0
 31 32  1  0  0  0
 45 46  1  0  0  0
 45 50  1  0  0  0
 32 33  1  0  0  0
 53 54  1  0  0  0
 53 55  1  0  0  0
 33 34  1  0  0  0
 34 35  1  0  0  0
 35 36  1  0  0  0
 58 60  1  0  0  0
 36 37  1  0  0  0
 59 60  1  0  0  0
 59 62  1  0  0  0
 37 38  1  0  0  0
 38 39  1  0  0  0
 39 40  1  0  0  0
  4  6  1  0  0  0
  6  7  1  0  0  0
  7  8  1  0  0  0
  8  9  1  0  0  0
  9 10  1  0  0  0
 10 11  1  0  0  0
 11 12  1  0  0  0
 12 13  1  0  0  0
 13 14  1  0  0  0
 14 15  1  0  0  0
 15 16  1  0  0  0
 16 17  1  0  0  0
 17 18  1  0  0  0
 18 19  1  0  0  0
 19 20  1  0  0  0
 20 21  1  0  0  0
 21 22  1  0  0  0
 46 47  1  0  0  0
 47 48  1  0  0  0
 48 49  1  0  0  0
 49 50  1  0  0  0
 50 54  1  0  0  0
M  CHG 1  58  -1
M  END
> <minimizedAffinity>
-10.34280

> <CNNscore>
0.3532718122

> <CNNaffinity>
6.9526686668

> <CNN_VS>
2.4561817646

> <CNNaffinity_variance>
1.2672544718

$$$$
/media/chris/experiments/cd1a-new-docking/inputs/ligands/1onq_ligand.pdb


 62 62  0  0  0  0  0  0  0  0999 V2000
  -38.4305   59.1589   64.1221 C   0  0  0  0  0  0  0  0  0  0  0  0
  -39.7789   59.3244   64.6279 N   0  0  0  0  0  0  0  0  0  0  0  0
  -40.8475   60.2302   62.8433 O   0  0  0  0  0  0  0  0  0  0  0  0
  -40.8457   59.8236   63.9888 C   0  0  0  0  0  0  0  0  0  0  0  0
  -39.9296   59.0338   65.5564 H   0  0  0  0  0  0  0  0  0  0  0  0
  -42.1129   59.8537   64.7909 C   0  0  0  0  0  0  0  0  0  0  0  0
  -41.7223   59.5210   66.2309 C   0  0  0  0  0  0  0  0  0  0  0  0
  -42.8122   58.6749   66.8848 C   0  0  0  0  0  0  0  0  0  0  0  0
  -42.8265   57.2113   66.5162 C   0  0  0  0  0  0  0  0  0  0  0  0
  -44.1280   56.9366   65.7702 C   0  0  0  0  0  0  0  0  0  0  0  0
  -45.2551   57.8978   66.1706 C   0  0  0  0  0  0  0  0  0  0  0  0
  -46.1268   58.3749   64.9945 C   0  0  0  0  0  0  0  0  0  0  0  0
  -46.9726   59.6201   65.3403 C   0  0  0  0  0  0  0  0  0  0  0  0
  -48.2138   59.2235   66.1448 C   0  0  0  0  0  0  0  0  0  0  0  0
  -48.8595   57.9078   65.7276 C   0  0  0  0  0  0  0  0  0  0  0  0
  -50.2888   58.0952   65.2405 C   0  0  0  0  0  0  0  0  0  0  0  0
  -50.8962   59.4827   65.4604 C   0  0  0  0  0  0  0  0  0  0  0  0
  -51.3495   60.0229   64.1107 C   0  0  0  0  0  0  0  0  0  0  0  0
  -51.2975   59.1009   62.9014 C   0  0  0  0  0  0  0  0  0  0  0  0
  -50.2693   59.5996   61.8737 C   0  0  0  0  0  0  0  0  0  0  0  0
  -49.4574   58.4843   61.1897 C   0  0  0  0  0  0  0  0  0  0  0  0
  -48.3426   57.9227   62.0691 C   0  0  0  0  0  0  0  0  0  0  0  0
  -37.1705   57.2344   64.4451 O   0  0  0  0  0  0  0  0  0  0  0  0
  -38.3677   57.6699   63.8281 C   0  0  0  0  0  0  0  0  0  0  0  0
  -37.2245   57.3896   65.4011 H   0  0  0  0  0  0  0  0  0  0  0  0
  -38.3479   57.4527   62.3132 C   0  0  0  0  0  0  0  0  0  0  0  0
  -37.2197   57.2151   61.6226 C   0  0  0  0  0  0  0  0  0  0  0  0
  -37.2829   57.0095   60.1104 C   0  0  0  0  0  0  0  0  0  0  0  0
  -37.1088   58.3020   59.2994 C   0  0  0  0  0  0  0  0  0  0  0  0
  -38.3984   58.8898   58.6972 C   0  0  0  0  0  0  0  0  0  0  0  0
  -39.0971   59.8309   59.7079 C   0  0  0  0  0  0  0  0  0  0  0  0
  -40.4467   60.4268   59.2334 C   0  0  0  0  0  0  0  0  0  0  0  0
  -41.4888   59.3690   58.8003 C   0  0  0  0  0  0  0  0  0  0  0  0
  -41.9244   59.4992   57.3247 C   0  0  0  0  0  0  0  0  0  0  0  0
  -43.1764   58.6855   56.9759 C   0  0  0  0  0  0  0  0  0  0  0  0
  -44.1279   58.3887   58.1330 C   0  0  0  0  0  0  0  0  0  0  0  0
  -45.5568   58.0184   57.6890 C   0  0  0  0  0  0  0  0  0  0  0  0
  -46.4691   57.4794   58.8013 C   0  0  0  0  0  0  0  0  0  0  0  0
  -47.7551   56.8864   58.2187 C   0  0  0  0  0  0  0  0  0  0  0  0
  -47.7275   56.5335   56.7421 C   0  0  0  0  0  0  0  0  0  0  0  0
  -37.3098   59.7458   65.0100 C   0  0  0  0  0  0  0  0  0  0  0  0
  -36.0391   60.0072   64.3617 O   0  0  0  0  0  0  0  0  0  0  0  0
  -33.7864   61.0537   62.9449 O   0  0  0  0  0  0  0  0  0  0  0  0
  -35.0760   64.6556   64.6067 O   0  0  0  0  0  0  0  0  0  0  0  0
  -35.7823   61.9579   65.7810 O   0  0  0  0  0  0  0  0  0  0  0  0
  -35.1230   61.0497   64.8655 C   0  0  0  0  0  0  0  0  0  0  0  0
  -34.4509   61.9300   63.8019 C   0  0  0  0  0  0  0  0  0  0  0  0
  -33.4166   62.9207   64.3799 C   0  0  0  0  0  0  0  0  0  0  0  0
  -34.1730   63.8161   65.3221 C   0  0  0  0  0  0  0  0  0  0  0  0
  -34.9130   62.9756   66.3468 C   0  0  0  0  0  0  0  0  0  0  0  0
  -34.4215   60.4227   62.5716 H   0  0  0  0  0  0  0  0  0  0  0  0
  -34.5830   65.1828   63.9586 H   0  0  0  0  0  0  0  0  0  0  0  0
  -36.9650   64.0898   66.8582 O   0  0  0  0  0  0  0  0  0  0  0  0
  -35.6062   64.0541   67.1765 C   0  0  0  0  0  0  0  0  0  0  0  0
  -37.4030   64.7754   67.3864 H   0  0  0  0  0  0  0  0  0  0  0  0
  -32.7728   63.7945   63.4251 O   0  0  0  0  0  0  0  0  0  0  0  0
  -30.8781   65.4499   62.8029 O   0  0  0  0  0  0  0  0  0  0  0  0
  -30.4761   63.0610   62.6580 O   0  0  0  0  0  0  0  0  0  0  0  0
  -30.5544   64.1553   64.8192 O   0  0  0  0  0  0  0  0  0  0  0  0
  -31.1422   64.1306   63.4498 S   0  0  0  0  0  0  0  0  0  0  0  0
  -31.2542   65.4527   61.9088 H   0  0  0  0  0  0  0  0  0  0  0  0
  -30.9833   64.8503   65.3427 H   0  0  0  0  0  0  0  0  0  0  0  0
  2  1  1  0  0  0
  2  4  1  0  0  0
  2  5  1  0  0  0
 41 42  1  0  0  0
 41  1  1  0  0  0
 42 46  1  0  0  0
  1 24  1  0  0  0
 23 24  1  0  0  0
 23 25  1  0  0  0
 24 26  1  0  0  0
  3  4  2  0  0  0
 26 27  2  0  0  0
 27 28  1  0  0  0
 43 47  1  0  0  0
 43 51  1  0  0  0
 28 29  1  0  0  0
 56 48  1  0  0  0
 56 60  1  0  0  0
 29 30  1  0  0  0
 57 60  1  0  0  0
 57 61  1  0  0  0
 30 31  1  0  0  0
 44 49  1  0  0  0
 44 52  1  0  0  0
 31 32  1  0  0  0
 45 46  1  0  0  0
 45 50  1  0  0  0
 32 33  1  0  0  0
 53 54  1  0  0  0
 53 55  1  0  0  0
 33 34  1  0  0  0
 34 35  1  0  0  0
 35 36  1  0  0  0
 58 60  1  0  0  0
 36 37  1  0  0  0
 59 60  1  0  0  0
 59 62  1  0  0  0
 37 38  1  0  0  0
 38 39  1  0  0  0
 39 40  1  0  0  0
  4  6  1  0  0  0
  6  7  1  0  0  0
  7  8  1  0  0  0
  8  9  1  0  0  0
  9 10  1  0  0  0
 10 11  1  0  0  0
 11 12  1  0  0  0
 12 13  1  0  0  0
 13 14  1  0  0  0
 14 15  1  0  0  0
 15 16  1  0  0  0
 16 17  1  0  0  0
 17 18  1  0  0  0
 18 19  1  0  0  0
 19 20  1  0  0  0
 20 21  1  0  0  0
 21 22  1  0  0  0
 46 47  1  0  0  0
 47 48  1  0  0  0
 48 49  1  0  0  0
 49 50  1  0  0  0
 50 54  1  0  0  0
M  CHG 1  58  -1
M  END
> <minimizedAffinity>
-9.22154

> <CNNscore>
0.3271774650

> <CNNaffinity>
7.1166353226

> <CNN_VS>
2.3284027576

> <CNNaffinity_variance>
0.9450404048

$$$$
/media/chris/experiments/cd1a-new-docking/inputs/ligands/1onq_ligand.pdb


 62 62  0  0  0  0  0  0  0  0999 V2000
  -37.4155   60.1780   64.5194 C   0  0  0  0  0  0  0  0  0  0  0  0
  -38.6394   59.4346   64.7442 N   0  0  0  0  0  0  0  0  0  0  0  0
  -39.8184   60.8505   66.0681 O   0  0  0  0  0  0  0  0  0  0  0  0
  -39.7072   59.7998   65.4669 C   0  0  0  0  0  0  0  0  0  0  0  0
  -38.6928   58.5515   64.3123 H   0  0  0  0  0  0  0  0  0  0  0  0
  -40.8275   58.8030   65.4975 C   0  0  0  0  0  0  0  0  0  0  0  0
  -42.0537   59.5455   66.0289 C   0  0  0  0  0  0  0  0  0  0  0  0
  -43.0231   58.5574   66.6732 C   0  0  0  0  0  0  0  0  0  0  0  0
  -43.1720   57.2255   65.9787 C   0  0  0  0  0  0  0  0  0  0  0  0
  -44.6510   57.0354   65.6588 C   0  0  0  0  0  0  0  0  0  0  0  0
  -45.2173   58.1603   64.7820 C   0  0  0  0  0  0  0  0  0  0  0  0
  -46.6210   58.6387   65.1960 C   0  0  0  0  0  0  0  0  0  0  0  0
  -47.7404   58.0593   64.3034 C   0  0  0  0  0  0  0  0  0  0  0  0
  -49.1139   58.2952   64.9383 C   0  0  0  0  0  0  0  0  0  0  0  0
  -50.2557   58.4958   63.9492 C   0  0  0  0  0  0  0  0  0  0  0  0
  -49.8624   58.1168   62.5290 C   0  0  0  0  0  0  0  0  0  0  0  0
  -51.0022   57.6569   61.6171 C   0  0  0  0  0  0  0  0  0  0  0  0
  -50.4388   57.4533   60.2172 C   0  0  0  0  0  0  0  0  0  0  0  0
  -49.3994   56.3633   60.0007 C   0  0  0  0  0  0  0  0  0  0  0  0
  -48.1907   56.9035   59.2203 C   0  0  0  0  0  0  0  0  0  0  0  0
  -47.6342   55.9388   58.1570 C   0  0  0  0  0  0  0  0  0  0  0  0
  -47.6181   56.5340   56.7509 C   0  0  0  0  0  0  0  0  0  0  0  0
  -35.2955   59.7539   63.6697 O   0  0  0  0  0  0  0  0  0  0  0  0
  -36.4104   59.0785   64.2217 C   0  0  0  0  0  0  0  0  0  0  0  0
  -34.9366   60.3737   64.3239 H   0  0  0  0  0  0  0  0  0  0  0  0
  -37.0263   58.0817   63.2370 C   0  0  0  0  0  0  0  0  0  0  0  0
  -36.7501   58.0867   61.9217 C   0  0  0  0  0  0  0  0  0  0  0  0
  -37.4070   57.0582   61.0030 C   0  0  0  0  0  0  0  0  0  0  0  0
  -37.3695   57.4393   59.5158 C   0  0  0  0  0  0  0  0  0  0  0  0
  -36.6056   56.4673   58.5978 C   0  0  0  0  0  0  0  0  0  0  0  0
  -35.3709   57.1593   57.9715 C   0  0  0  0  0  0  0  0  0  0  0  0
  -34.0047   56.7508   58.5782 C   0  0  0  0  0  0  0  0  0  0  0  0
  -34.0979   55.6621   59.6731 C   0  0  0  0  0  0  0  0  0  0  0  0
  -33.7729   56.1820   61.0902 C   0  0  0  0  0  0  0  0  0  0  0  0
  -33.2899   57.6371   61.1187 C   0  0  0  0  0  0  0  0  0  0  0  0
  -32.6718   58.1136   62.4314 C   0  0  0  0  0  0  0  0  0  0  0  0
  -31.4026   58.9696   62.2512 C   0  0  0  0  0  0  0  0  0  0  0  0
  -31.6493   60.4730   62.0542 C   0  0  0  0  0  0  0  0  0  0  0  0
  -30.4023   61.1666   61.4982 C   0  0  0  0  0  0  0  0  0  0  0  0
  -29.0784   60.7922   62.1405 C   0  0  0  0  0  0  0  0  0  0  0  0
  -37.0392   61.1908   65.6246 C   0  0  0  0  0  0  0  0  0  0  0  0
  -36.7118   62.5346   65.1881 O   0  0  0  0  0  0  0  0  0  0  0  0
  -35.0152   62.5141   62.8863 O   0  0  0  0  0  0  0  0  0  0  0  0
  -33.7884   66.2001   64.4053 O   0  0  0  0  0  0  0  0  0  0  0  0
  -35.0723   64.0617   66.1183 O   0  0  0  0  0  0  0  0  0  0  0  0
  -35.3140   63.0088   65.1538 C   0  0  0  0  0  0  0  0  0  0  0  0
  -34.8153   63.5447   63.8039 C   0  0  0  0  0  0  0  0  0  0  0  0
  -33.3158   63.9145   63.7990 C   0  0  0  0  0  0  0  0  0  0  0  0
  -33.1468   64.9990   64.8270 C   0  0  0  0  0  0  0  0  0  0  0  0
  -33.6980   64.5319   66.1620 C   0  0  0  0  0  0  0  0  0  0  0  0
  -35.9534   62.2681   62.8757 H   0  0  0  0  0  0  0  0  0  0  0  0
  -33.4217   66.4802   63.5520 H   0  0  0  0  0  0  0  0  0  0  0  0
  -33.7923   65.4695   68.3587 O   0  0  0  0  0  0  0  0  0  0  0  0
  -33.4429   65.7565   67.0379 C   0  0  0  0  0  0  0  0  0  0  0  0
  -33.6294   66.2487   68.9129 H   0  0  0  0  0  0  0  0  0  0  0  0
  -32.7988   64.4510   62.5602 O   0  0  0  0  0  0  0  0  0  0  0  0
  -30.3491   64.2689   63.3862 O   0  0  0  0  0  0  0  0  0  0  0  0
  -31.1804   66.3957   62.5647 O   0  0  0  0  0  0  0  0  0  0  0  0
  -30.6599   64.6083   61.0126 O   0  0  0  0  0  0  0  0  0  0  0  0
  -31.2145   64.9220   62.3599 S   0  0  0  0  0  0  0  0  0  0  0  0
  -30.6951   64.4623   64.2715 H   0  0  0  0  0  0  0  0  0  0  0  0
  -30.6784   63.6490   60.8707 H   0  0  0  0  0  0  0  0  0  0  0  0
  2  1  1  0  0  0
  2  4  1  0  0  0
  2  5  1  0  0  0
 41 42  1  0  0  0
 41  1  1  0  0  0
 42 46  1  0  0  0
  1 24  1  0  0  0
 23 24  1  0  0  0
 23 25  1  0  0  0
 24 26  1  0  0  0
  3  4  2  0  0  0
 26 27  2  0  0  0
 27 28  1  0  0  0
 43 47  1  0  0  0
 43 51  1  0  0  0
 28 29  1  0  0  0
 56 48  1  0  0  0
 56 60  1  0  0  0
 29 30  1  0  0  0
 57 60  1  0  0  0
 57 61  1  0  0  0
 30 31  1  0  0  0
 44 49  1  0  0  0
 44 52  1  0  0  0
 31 32  1  0  0  0
 45 46  1  0  0  0
 45 50  1  0  0  0
 32 33  1  0  0  0
 53 54  1  0  0  0
 53 55  1  0  0  0
 33 34  1  0  0  0
 34 35  1  0  0  0
 35 36  1  0  0  0
 58 60  1  0  0  0
 36 37  1  0  0  0
 59 60  1  0  0  0
 59 62  1  0  0  0
 37 38  1  0  0  0
 38 39  1  0  0  0
 39 40  1  0  0  0
  4  6  1  0  0  0
  6  7  1  0  0  0
  7  8  1  0  0  0
  8  9  1  0  0  0
  9 10  1  0  0  0
 10 11  1  0  0  0
 11 12  1  0  0  0
 12 13  1  0  0  0
 13 14  1  0  0  0
 14 15  1  0  0  0
 15 16  1  0  0  0
 16 17  1  0  0  0
 17 18  1  0  0  0
 18 19  1  0  0  0
 19 20  1  0  0  0
 20 21  1  0  0  0
 21 22  1  0  0  0
 46 47  1  0  0  0
 47 48  1  0  0  0
 48 49  1  0  0  0
 49 50  1  0  0  0
 50 54  1  0  0  0
M  CHG 1  58  -1
M  END
> <minimizedAffinity>
-9.96320

> <CNNscore>
0.3239636719

> <CNNaffinity>
6.8209428787

> <CNN_VS>
2.2097377777

> <CNNaffinity_variance>
0.7122277021

$$$$
/media/chris/experiments/cd1a-new-docking/inputs/ligands/1onq_ligand.pdb


 62 62  0  0  0  0  0  0  0  0999 V2000
  -40.1351   58.8406   64.7584 C   0  0  0  0  0  0  0  0  0  0  0  0
  -41.1720   58.2122   65.5528 N   0  0  0  0  0  0  0  0  0  0  0  0
  -43.0282   59.3303   64.8807 O   0  0  0  0  0  0  0  0  0  0  0  0
  -42.4843   58.4834   65.5623 C   0  0  0  0  0  0  0  0  0  0  0  0
  -40.8752   57.4971   66.1610 H   0  0  0  0  0  0  0  0  0  0  0  0
  -43.3021   57.6436   66.4981 C   0  0  0  0  0  0  0  0  0  0  0  0
  -44.4428   57.0552   65.6676 C   0  0  0  0  0  0  0  0  0  0  0  0
  -45.7499   57.1243   66.4538 C   0  0  0  0  0  0  0  0  0  0  0  0
  -46.2841   58.5083   66.7323 C   0  0  0  0  0  0  0  0  0  0  0  0
  -46.5482   59.1794   65.3885 C   0  0  0  0  0  0  0  0  0  0  0  0
  -47.9471   58.8728   64.8374 C   0  0  0  0  0  0  0  0  0  0  0  0
  -48.9831   58.5005   65.9139 C   0  0  0  0  0  0  0  0  0  0  0  0
  -50.3917   58.2521   65.3312 C   0  0  0  0  0  0  0  0  0  0  0  0
  -50.7934   59.3883   64.3863 C   0  0  0  0  0  0  0  0  0  0  0  0
  -51.1460   58.9540   62.9689 C   0  0  0  0  0  0  0  0  0  0  0  0
  -50.2224   59.5716   61.9293 C   0  0  0  0  0  0  0  0  0  0  0  0
  -49.2638   58.6076   61.2261 C   0  0  0  0  0  0  0  0  0  0  0  0
  -49.9604   57.2607   61.0876 C   0  0  0  0  0  0  0  0  0  0  0  0
  -49.4659   56.2896   60.0258 C   0  0  0  0  0  0  0  0  0  0  0  0
  -48.0729   56.6934   59.5175 C   0  0  0  0  0  0  0  0  0  0  0  0
  -47.5483   55.8412   58.3472 C   0  0  0  0  0  0  0  0  0  0  0  0
  -48.0187   56.3360   56.9814 C   0  0  0  0  0  0  0  0  0  0  0  0
  -38.0587   57.8910   65.1858 O   0  0  0  0  0  0  0  0  0  0  0  0
  -39.2265   57.6723   64.4162 C   0  0  0  0  0  0  0  0  0  0  0  0
  -38.2860   57.8793   66.1288 H   0  0  0  0  0  0  0  0  0  0  0  0
  -38.9364   57.6788   62.9135 C   0  0  0  0  0  0  0  0  0  0  0  0
  -37.9144   57.0020   62.3624 C   0  0  0  0  0  0  0  0  0  0  0  0
  -37.6904   57.0598   60.8526 C   0  0  0  0  0  0  0  0  0  0  0  0
  -37.9442   58.4445   60.2389 C   0  0  0  0  0  0  0  0  0  0  0  0
  -37.2303   58.7225   58.9032 C   0  0  0  0  0  0  0  0  0  0  0  0
  -37.4513   57.5569   57.9093 C   0  0  0  0  0  0  0  0  0  0  0  0
  -36.2125   56.6615   57.6535 C   0  0  0  0  0  0  0  0  0  0  0  0
  -34.8628   57.3344   57.9970 C   0  0  0  0  0  0  0  0  0  0  0  0
  -33.8294   56.3666   58.6130 C   0  0  0  0  0  0  0  0  0  0  0  0
  -34.3821   55.5285   59.7721 C   0  0  0  0  0  0  0  0  0  0  0  0
  -34.3851   56.1997   61.1439 C   0  0  0  0  0  0  0  0  0  0  0  0
  -32.9826   56.5810   61.6572 C   0  0  0  0  0  0  0  0  0  0  0  0
  -32.8998   57.9230   62.4003 C   0  0  0  0  0  0  0  0  0  0  0  0
  -34.2954   58.4356   62.7669 C   0  0  0  0  0  0  0  0  0  0  0  0
  -34.7084   58.2888   64.2206 C   0  0  0  0  0  0  0  0  0  0  0  0
  -39.4702   60.0826   65.3941 C   0  0  0  0  0  0  0  0  0  0  0  0
  -38.7790   60.9819   64.4902 O   0  0  0  0  0  0  0  0  0  0  0  0
  -36.7584   61.1011   62.4702 O   0  0  0  0  0  0  0  0  0  0  0  0
  -35.5817   64.4980   64.5857 O   0  0  0  0  0  0  0  0  0  0  0  0
  -37.2201   62.2761   65.8244 O   0  0  0  0  0  0  0  0  0  0  0  0
  -37.3689   61.3578   64.7145 C   0  0  0  0  0  0  0  0  0  0  0  0
  -36.6450   62.0056   63.5253 C   0  0  0  0  0  0  0  0  0  0  0  0
  -35.1445   62.2675   63.7804 C   0  0  0  0  0  0  0  0  0  0  0  0
  -35.0753   63.2151   64.9460 C   0  0  0  0  0  0  0  0  0  0  0  0
  -35.8452   62.6408   66.1214 C   0  0  0  0  0  0  0  0  0  0  0  0
  -37.6960   60.9243   62.2954 H   0  0  0  0  0  0  0  0  0  0  0  0
  -35.0764   64.8457   63.8342 H   0  0  0  0  0  0  0  0  0  0  0  0
  -34.3036   63.8819   67.4620 O   0  0  0  0  0  0  0  0  0  0  0  0
  -35.6607   63.7384   67.1671 C   0  0  0  0  0  0  0  0  0  0  0  0
  -34.1891   64.5794   68.1261 H   0  0  0  0  0  0  0  0  0  0  0  0
  -34.4192   62.9022   62.7029 O   0  0  0  0  0  0  0  0  0  0  0  0
  -32.3042   63.7464   61.4656 O   0  0  0  0  0  0  0  0  0  0  0  0
  -32.4357   61.4264   62.1653 O   0  0  0  0  0  0  0  0  0  0  0  0
  -32.0265   63.1708   63.7975 O   0  0  0  0  0  0  0  0  0  0  0  0
  -32.7631   62.8267   62.5483 S   0  0  0  0  0  0  0  0  0  0  0  0
  -32.7736   63.5371   60.6429 H   0  0  0  0  0  0  0  0  0  0  0  0
  -32.2344   64.0827   64.0546 H   0  0  0  0  0  0  0  0  0  0  0  0
  2  1  1  0  0  0
  2  4  1  0  0  0
  2  5  1  0  0  0
 41 42  1  0  0  0
 41  1  1  0  0  0
 42 46  1  0  0  0
  1 24  1  0  0  0
 23 24  1  0  0  0
 23 25  1  0  0  0
 24 26  1  0  0  0
  3  4  2  0  0  0
 26 27  2  0  0  0
 27 28  1  0  0  0
 43 47  1  0  0  0
 43 51  1  0  0  0
 28 29  1  0  0  0
 56 48  1  0  0  0
 56 60  1  0  0  0
 29 30  1  0  0  0
 57 60  1  0  0  0
 57 61  1  0  0  0
 30 31  1  0  0  0
 44 49  1  0  0  0
 44 52  1  0  0  0
 31 32  1  0  0  0
 45 46  1  0  0  0
 45 50  1  0  0  0
 32 33  1  0  0  0
 53 54  1  0  0  0
 53 55  1  0  0  0
 33 34  1  0  0  0
 34 35  1  0  0  0
 35 36  1  0  0  0
 58 60  1  0  0  0
 36 37  1  0  0  0
 59 60  1  0  0  0
 59 62  1  0  0  0
 37 38  1  0  0  0
 38 39  1  0  0  0
 39 40  1  0  0  0
  4  6  1  0  0  0
  6  7  1  0  0  0
  7  8  1  0  0  0
  8  9  1  0  0  0
  9 10  1  0  0  0
 10 11  1  0  0  0
 11 12  1  0  0  0
 12 13  1  0  0  0
 13 14  1  0  0  0
 14 15  1  0  0  0
 15 16  1  0  0  0
 16 17  1  0  0  0
 17 18  1  0  0  0
 18 19  1  0  0  0
 19 20  1  0  0  0
 20 21  1  0  0  0
 21 22  1  0  0  0
 46 47  1  0  0  0
 47 48  1  0  0  0
 48 49  1  0  0  0
 49 50  1  0  0  0
 50 54  1  0  0  0
M  CHG 1  58  -1
M  END
> <minimizedAffinity>
-10.23828

> <CNNscore>
0.3035421371

> <CNNaffinity>
7.0172691345

> <CNN_VS>
2.1300368309

> <CNNaffinity_variance>
1.3986928463

$$$$
/media/chris/experiments/cd1a-new-docking/inputs/ligands/1onq_ligand.pdb


 62 62  0  0  0  0  0  0  0  0999 V2000
  -40.1284   58.9582   65.0832 C   0  0  0  0  0  0  0  0  0  0  0  0
  -39.5530   58.3410   63.9045 N   0  0  0  0  0  0  0  0  0  0  0  0
  -37.6292   57.4586   64.7218 O   0  0  0  0  0  0  0  0  0  0  0  0
  -38.3999   57.6657   63.8047 C   0  0  0  0  0  0  0  0  0  0  0  0
  -40.0743   58.4290   63.0740 H   0  0  0  0  0  0  0  0  0  0  0  0
  -38.0861   57.1386   62.4360 C   0  0  0  0  0  0  0  0  0  0  0  0
  -38.7390   58.0989   61.4417 C   0  0  0  0  0  0  0  0  0  0  0  0
  -37.6683   58.7696   60.5844 C   0  0  0  0  0  0  0  0  0  0  0  0
  -38.1167   59.2665   59.2315 C   0  0  0  0  0  0  0  0  0  0  0  0
  -37.6830   58.2353   58.1949 C   0  0  0  0  0  0  0  0  0  0  0  0
  -36.1577   58.1315   58.0640 C   0  0  0  0  0  0  0  0  0  0  0  0
  -35.6451   56.7140   57.7501 C   0  0  0  0  0  0  0  0  0  0  0  0
  -34.1058   56.6041   57.8144 C   0  0  0  0  0  0  0  0  0  0  0  0
  -33.6730   55.7931   59.0392 C   0  0  0  0  0  0  0  0  0  0  0  0
  -34.8007   55.4076   59.9888 C   0  0  0  0  0  0  0  0  0  0  0  0
  -34.7295   56.1644   61.3069 C   0  0  0  0  0  0  0  0  0  0  0  0
  -34.3223   57.6368   61.2143 C   0  0  0  0  0  0  0  0  0  0  0  0
  -34.4689   58.2588   62.5964 C   0  0  0  0  0  0  0  0  0  0  0  0
  -33.3431   59.1354   63.1249 C   0  0  0  0  0  0  0  0  0  0  0  0
  -32.0069   58.7773   62.4553 C   0  0  0  0  0  0  0  0  0  0  0  0
  -31.3704   59.9229   61.6470 C   0  0  0  0  0  0  0  0  0  0  0  0
  -29.9660   60.2892   62.1215 C   0  0  0  0  0  0  0  0  0  0  0  0
  -41.5590   60.6344   64.3486 O   0  0  0  0  0  0  0  0  0  0  0  0
  -41.5525   59.2497   64.6424 C   0  0  0  0  0  0  0  0  0  0  0  0
  -40.9367   60.8146   63.6266 H   0  0  0  0  0  0  0  0  0  0  0  0
  -42.5168   58.8964   65.7773 C   0  0  0  0  0  0  0  0  0  0  0  0
  -43.8527   58.9773   65.6544 C   0  0  0  0  0  0  0  0  0  0  0  0
  -44.7486   58.6076   66.8351 C   0  0  0  0  0  0  0  0  0  0  0  0
  -46.2444   58.8406   66.5773 C   0  0  0  0  0  0  0  0  0  0  0  0
  -46.6185   59.2391   65.1376 C   0  0  0  0  0  0  0  0  0  0  0  0
  -48.0117   59.9120   65.0984 C   0  0  0  0  0  0  0  0  0  0  0  0
  -49.0938   59.2452   65.9850 C   0  0  0  0  0  0  0  0  0  0  0  0
  -50.3336   58.7479   65.2051 C   0  0  0  0  0  0  0  0  0  0  0  0
  -50.7642   59.6927   64.0624 C   0  0  0  0  0  0  0  0  0  0  0  0
  -51.3382   58.9639   62.8414 C   0  0  0  0  0  0  0  0  0  0  0  0
  -50.4185   57.9425   62.1757 C   0  0  0  0  0  0  0  0  0  0  0  0
  -50.9995   57.3215   60.8901 C   0  0  0  0  0  0  0  0  0  0  0  0
  -50.1622   57.5405   59.6208 C   0  0  0  0  0  0  0  0  0  0  0  0
  -48.6663   57.4030   59.9184 C   0  0  0  0  0  0  0  0  0  0  0  0
  -47.7323   57.4552   58.7224 C   0  0  0  0  0  0  0  0  0  0  0  0
  -39.3238   60.1364   65.6777 C   0  0  0  0  0  0  0  0  0  0  0  0
  -38.7086   61.0451   64.7295 O   0  0  0  0  0  0  0  0  0  0  0  0
  -36.9355   61.4259   62.5186 O   0  0  0  0  0  0  0  0  0  0  0  0
  -35.5137   64.5618   64.8731 O   0  0  0  0  0  0  0  0  0  0  0  0
  -37.0027   62.1902   66.0194 O   0  0  0  0  0  0  0  0  0  0  0  0
  -37.2812   61.4080   64.8328 C   0  0  0  0  0  0  0  0  0  0  0  0
  -36.6985   62.2003   63.6536 C   0  0  0  0  0  0  0  0  0  0  0  0
  -35.1779   62.4475   63.7633 C   0  0  0  0  0  0  0  0  0  0  0  0
  -34.9720   63.2512   65.0175 C   0  0  0  0  0  0  0  0  0  0  0  0
  -35.6018   62.5330   66.1972 C   0  0  0  0  0  0  0  0  0  0  0  0
  -37.8874   61.2602   62.4332 H   0  0  0  0  0  0  0  0  0  0  0  0
  -35.0981   65.0018   64.1151 H   0  0  0  0  0  0  0  0  0  0  0  0
  -36.4864   64.0271   67.8399 O   0  0  0  0  0  0  0  0  0  0  0  0
  -35.2948   63.5011   67.3376 C   0  0  0  0  0  0  0  0  0  0  0  0
  -36.2888   64.6415   68.5640 H   0  0  0  0  0  0  0  0  0  0  0  0
  -34.5809   63.2136   62.6925 O   0  0  0  0  0  0  0  0  0  0  0  0
  -32.1730   62.5998   63.4292 O   0  0  0  0  0  0  0  0  0  0  0  0
  -32.8096   64.9342   63.2431 O   0  0  0  0  0  0  0  0  0  0  0  0
  -32.4024   63.6187   61.2485 O   0  0  0  0  0  0  0  0  0  0  0  0
  -32.9593   63.5862   62.6306 S   0  0  0  0  0  0  0  0  0  0  0  0
  -32.5217   62.5646   64.3337 H   0  0  0  0  0  0  0  0  0  0  0  0
  -32.4960   62.7433   60.8415 H   0  0  0  0  0  0  0  0  0  0  0  0
  2  1  1  0  0  0
  2  4  1  0  0  0
  2  5  1  0  0  0
 41 42  1  0  0  0
 41  1  1  0  0  0
 42 46  1  0  0  0
  1 24  1  0  0  0
 23 24  1  0  0  0
 23 25  1  0  0  0
 24 26  1  0  0  0
  3  4  2  0  0  0
 26 27  2  0  0  0
 27 28  1  0  0  0
 43 47  1  0  0  0
 43 51  1  0  0  0
 28 29  1  0  0  0
 56 48  1  0  0  0
 56 60  1  0  0  0
 29 30  1  0  0  0
 57 60  1  0  0  0
 57 61  1  0  0  0
 30 31  1  0  0  0
 44 49  1  0  0  0
 44 52  1  0  0  0
 31 32  1  0  0  0
 45 46  1  0  0  0
 45 50  1  0  0  0
 32 33  1  0  0  0
 53 54  1  0  0  0
 53 55  1  0  0  0
 33 34  1  0  0  0
 34 35  1  0  0  0
 35 36  1  0  0  0
 58 60  1  0  0  0
 36 37  1  0  0  0
 59 60  1  0  0  0
 59 62  1  0  0  0
 37 38  1  0  0  0
 38 39  1  0  0  0
 39 40  1  0  0  0
  4  6  1  0  0  0
  6  7  1  0  0  0
  7  8  1  0  0  0
  8  9  1  0  0  0
  9 10  1  0  0  0
 10 11  1  0  0  0
 11 12  1  0  0  0
 12 13  1  0  0  0
 13 14  1  0  0  0
 14 15  1  0  0  0
 15 16  1  0  0  0
 16 17  1  0  0  0
 17 18  1  0  0  0
 18 19  1  0  0  0
 19 20  1  0  0  0
 20 21  1  0  0  0
 21 22  1  0  0  0
 46 47  1  0  0  0
 47 48  1  0  0  0
 48 49  1  0  0  0
 49 50  1  0  0  0
 50 54  1  0  0  0
M  CHG 1  58  -1
M  END
> <minimizedAffinity>
-9.90411

> <CNNscore>
0.3010232151

> <CNNaffinity>
7.0605230331

> <CNN_VS>
2.1253812313

> <CNNaffinity_variance>
0.8777395487

$$$$
