/media/chris/experiments/cd1a-new-docking/inputs/ligands/1onq_ligand.pdb


 62 62  0  0  0  0  0  0  0  0999 V2000
  -36.1752   57.7082   62.8099 C   0  0  0  0  0  0  0  0  0  0  0  0
  -35.8796   56.9364   61.6191 N   0  0  0  0  0  0  0  0  0  0  0  0
  -33.6119   56.9890   61.5702 O   0  0  0  0  0  0  0  0  0  0  0  0
  -34.6788   56.6416   61.1024 C   0  0  0  0  0  0  0  0  0  0  0  0
  -36.6578   56.5850   61.1290 H   0  0  0  0  0  0  0  0  0  0  0  0
  -34.7084   55.8097   59.8547 C   0  0  0  0  0  0  0  0  0  0  0  0
  -34.5261   56.7767   58.6847 C   0  0  0  0  0  0  0  0  0  0  0  0
  -35.8097   56.8466   57.8610 C   0  0  0  0  0  0  0  0  0  0  0  0
  -36.5252   58.1757   57.8591 C   0  0  0  0  0  0  0  0  0  0  0  0
  -37.6528   58.0934   58.8828 C   0  0  0  0  0  0  0  0  0  0  0  0
  -38.0023   59.4583   59.4910 C   0  0  0  0  0  0  0  0  0  0  0  0
  -39.4245   59.5449   60.0744 C   0  0  0  0  0  0  0  0  0  0  0  0
  -40.3650   60.4362   59.2338 C   0  0  0  0  0  0  0  0  0  0  0  0
  -41.6510   59.6831   58.8819 C   0  0  0  0  0  0  0  0  0  0  0  0
  -41.8064   59.3252   57.4088 C   0  0  0  0  0  0  0  0  0  0  0  0
  -43.1497   58.6756   57.1111 C   0  0  0  0  0  0  0  0  0  0  0  0
  -43.9760   58.2546   58.3286 C   0  0  0  0  0  0  0  0  0  0  0  0
  -45.4294   58.1213   57.8940 C   0  0  0  0  0  0  0  0  0  0  0  0
  -46.3739   57.2925   58.7519 C   0  0  0  0  0  0  0  0  0  0  0  0
  -47.7704   57.9318   58.8072 C   0  0  0  0  0  0  0  0  0  0  0  0
  -48.5585   57.6341   60.0962 C   0  0  0  0  0  0  0  0  0  0  0  0
  -49.9402   57.0390   59.8355 C   0  0  0  0  0  0  0  0  0  0  0  0
  -38.1434   56.7682   62.0107 O   0  0  0  0  0  0  0  0  0  0  0  0
  -37.5345   57.1708   63.2236 C   0  0  0  0  0  0  0  0  0  0  0  0
  -37.6127   56.0682   61.5994 H   0  0  0  0  0  0  0  0  0  0  0  0
  -38.3247   58.2774   63.9261 C   0  0  0  0  0  0  0  0  0  0  0  0
  -39.5596   58.6483   63.5472 C   0  0  0  0  0  0  0  0  0  0  0  0
  -40.2830   59.7635   64.2998 C   0  0  0  0  0  0  0  0  0  0  0  0
  -41.7200   59.4076   64.7078 C   0  0  0  0  0  0  0  0  0  0  0  0
  -42.0067   59.4235   66.2206 C   0  0  0  0  0  0  0  0  0  0  0  0
  -42.5342   58.0477   66.6942 C   0  0  0  0  0  0  0  0  0  0  0  0
  -43.7356   57.4876   65.8914 C   0  0  0  0  0  0  0  0  0  0  0  0
  -45.1013   57.6495   66.5995 C   0  0  0  0  0  0  0  0  0  0  0  0
  -46.2537   58.0206   65.6413 C   0  0  0  0  0  0  0  0  0  0  0  0
  -46.6918   59.4868   65.7405 C   0  0  0  0  0  0  0  0  0  0  0  0
  -48.1924   59.7479   65.6296 C   0  0  0  0  0  0  0  0  0  0  0  0
  -49.0640   58.4976   65.8596 C   0  0  0  0  0  0  0  0  0  0  0  0
  -50.3697   58.4518   65.0514 C   0  0  0  0  0  0  0  0  0  0  0  0
  -50.1281   58.8521   63.5932 C   0  0  0  0  0  0  0  0  0  0  0  0
  -51.3609   58.9894   62.7175 C   0  0  0  0  0  0  0  0  0  0  0  0
  -36.0439   59.2408   62.6595 C   0  0  0  0  0  0  0  0  0  0  0  0
  -34.7185   59.7992   62.8464 O   0  0  0  0  0  0  0  0  0  0  0  0
  -33.0468   62.1107   62.6472 O   0  0  0  0  0  0  0  0  0  0  0  0
  -35.9981   63.8079   65.0574 O   0  0  0  0  0  0  0  0  0  0  0  0
  -35.5269   60.8236   64.8915 O   0  0  0  0  0  0  0  0  0  0  0  0
  -34.4339   60.7441   63.9447 C   0  0  0  0  0  0  0  0  0  0  0  0
  -34.1238   62.1893   63.5293 C   0  0  0  0  0  0  0  0  0  0  0  0
  -33.7192   63.1006   64.7088 C   0  0  0  0  0  0  0  0  0  0  0  0
  -34.8952   63.1226   65.6458 C   0  0  0  0  0  0  0  0  0  0  0  0
  -35.2793   61.7029   66.0216 C   0  0  0  0  0  0  0  0  0  0  0  0
  -33.2832   61.5412   61.8985 H   0  0  0  0  0  0  0  0  0  0  0  0
  -35.7310   64.7112   64.8254 H   0  0  0  0  0  0  0  0  0  0  0  0
  -36.1283   62.8986   67.9091 O   0  0  0  0  0  0  0  0  0  0  0  0
  -36.4701   61.9480   66.9455 C   0  0  0  0  0  0  0  0  0  0  0  0
  -36.8863   63.0525   68.4946 H   0  0  0  0  0  0  0  0  0  0  0  0
  -33.4428   64.4806   64.3785 O   0  0  0  0  0  0  0  0  0  0  0  0
  -31.2988   65.0097   65.7350 O   0  0  0  0  0  0  0  0  0  0  0  0
  -32.0591   66.5715   64.0403 O   0  0  0  0  0  0  0  0  0  0  0  0
  -30.9886   64.4956   63.3928 O   0  0  0  0  0  0  0  0  0  0  0  0
  -31.9097   65.1299   64.3781 S   0  0  0  0  0  0  0  0  0  0  0  0
  -31.8853   65.4179   66.3910 H   0  0  0  0  0  0  0  0  0  0  0  0
  -30.8854   63.5548   63.6057 H   0  0  0  0  0  0  0  0  0  0  0  0
  2  1  1  0  0  0
  2  4  1  0  0  0
  2  5  1  0  0  0
 41 42  1  0  0  0
 41  1  1  0  0  0
 42 46  1  0  0  0
  1 24  1  0  0  0
 23 24  1  0  0  0
 23 25  1  0  0  0
 24 26  1  0  0  0
  3  4  2  0  0  0
 26 27  2  0  0  0
 27 28  1  0  0  0
 43 47  1  0  0  0
 43 51  1  0  0  0
 28 29  1  0  0  0
 56 48  1  0  0  0
 56 60  1  0  0  0
 29 30  1  0  0  0
 57 60  1  0  0  0
 57 61  1  0  0  0
 30 31  1  0  0  0
 44 49  1  0  0  0
 44 52  1  0  0  0
 31 32  1  0  0  0
 45 46  1  0  0  0
 45 50  1  0  0  0
 32 33  1  0  0  0
 53 54  1  0  0  0
 53 55  1  0  0  0
 33 34  1  0  0  0
 34 35  1  0  0  0
 35 36  1  0  0  0
 58 60  1  0  0  0
 36 37  1  0  0  0
 59 60  1  0  0  0
 59 62  1  0  0  0
 37 38  1  0  0  0
 38 39  1  0  0  0
 39 40  1  0  0  0
  4  6  1  0  0  0
  6  7  1  0  0  0
  7  8  1  0  0  0
  8  9  1  0  0  0
  9 10  1  0  0  0
 10 11  1  0  0  0
 11 12  1  0  0  0
 12 13  1  0  0  0
 13 14  1  0  0  0
 14 15  1  0  0  0
 15 16  1  0  0  0
 16 17  1  0  0  0
 17 18  1  0  0  0
 18 19  1  0  0  0
 19 20  1  0  0  0
 20 21  1  0  0  0
 21 22  1  0  0  0
 46 47  1  0  0  0
 47 48  1  0  0  0
 48 49  1  0  0  0
 49 50  1  0  0  0
 50 54  1  0  0  0
M  CHG 1  58  -1
M  END
> <minimizedAffinity>
-8.91950

> <CNNscore>
0.5007509589

> <CNNaffinity>
7.2680711746

> <CNN_VS>
3.6394937038

> <CNNaffinity_variance>
0.9652492404

$$$$
/media/chris/experiments/cd1a-new-docking/inputs/ligands/1onq_ligand.pdb


 62 62  0  0  0  0  0  0  0  0999 V2000
  -38.9168   59.8986   61.8945 C   0  0  0  0  0  0  0  0  0  0  0  0
  -39.3288   59.5033   63.2268 N   0  0  0  0  0  0  0  0  0  0  0  0
  -40.8015   61.1402   63.7737 O   0  0  0  0  0  0  0  0  0  0  0  0
  -40.1997   60.1178   64.0389 C   0  0  0  0  0  0  0  0  0  0  0  0
  -38.9175   58.6810   63.5789 H   0  0  0  0  0  0  0  0  0  0  0  0
  -40.4195   59.4474   65.3626 C   0  0  0  0  0  0  0  0  0  0  0  0
  -41.8122   59.8659   65.8343 C   0  0  0  0  0  0  0  0  0  0  0  0
  -42.8461   58.8357   65.3862 C   0  0  0  0  0  0  0  0  0  0  0  0
  -44.1347   58.8041   66.1716 C   0  0  0  0  0  0  0  0  0  0  0  0
  -45.2790   58.6581   65.1739 C   0  0  0  0  0  0  0  0  0  0  0  0
  -46.5177   59.4733   65.5688 C   0  0  0  0  0  0  0  0  0  0  0  0
  -47.8054   59.0643   64.8304 C   0  0  0  0  0  0  0  0  0  0  0  0
  -48.6970   58.1140   65.6597 C   0  0  0  0  0  0  0  0  0  0  0  0
  -50.1686   58.2754   65.2681 C   0  0  0  0  0  0  0  0  0  0  0  0
  -50.4532   59.3986   64.2781 C   0  0  0  0  0  0  0  0  0  0  0  0
  -51.0302   58.8814   62.9687 C   0  0  0  0  0  0  0  0  0  0  0  0
  -50.1512   57.9010   62.1888 C   0  0  0  0  0  0  0  0  0  0  0  0
  -50.9239   57.4441   60.9587 C   0  0  0  0  0  0  0  0  0  0  0  0
  -50.1926   57.3620   59.6270 C   0  0  0  0  0  0  0  0  0  0  0  0
  -48.6825   57.5778   59.8147 C   0  0  0  0  0  0  0  0  0  0  0  0
  -47.8067   56.9574   58.7106 C   0  0  0  0  0  0  0  0  0  0  0  0
  -46.7651   57.9238   58.1515 C   0  0  0  0  0  0  0  0  0  0  0  0
  -38.8277   57.5926   62.1595 O   0  0  0  0  0  0  0  0  0  0  0  0
  -38.9065   58.5771   61.1455 C   0  0  0  0  0  0  0  0  0  0  0  0
  -39.6097   57.6531   62.7302 H   0  0  0  0  0  0  0  0  0  0  0  0
  -37.6985   58.5360   60.2066 C   0  0  0  0  0  0  0  0  0  0  0  0
  -37.7948   58.2221   58.9034 C   0  0  0  0  0  0  0  0  0  0  0  0
  -36.5407   58.2020   58.0315 C   0  0  0  0  0  0  0  0  0  0  0  0
  -35.8735   56.8223   57.9337 C   0  0  0  0  0  0  0  0  0  0  0  0
  -34.3337   56.8253   57.9291 C   0  0  0  0  0  0  0  0  0  0  0  0
  -33.7794   55.8964   59.0361 C   0  0  0  0  0  0  0  0  0  0  0  0
  -34.7220   55.6726   60.2455 C   0  0  0  0  0  0  0  0  0  0  0  0
  -34.3780   56.5325   61.4845 C   0  0  0  0  0  0  0  0  0  0  0  0
  -33.6541   57.8518   61.1389 C   0  0  0  0  0  0  0  0  0  0  0  0
  -32.9969   58.5306   62.3467 C   0  0  0  0  0  0  0  0  0  0  0  0
  -32.7992   57.6560   63.5830 C   0  0  0  0  0  0  0  0  0  0  0  0
  -33.7816   57.9630   64.7304 C   0  0  0  0  0  0  0  0  0  0  0  0
  -34.7986   59.0774   64.4411 C   0  0  0  0  0  0  0  0  0  0  0  0
  -36.2145   58.5092   64.3094 C   0  0  0  0  0  0  0  0  0  0  0  0
  -36.3712   57.0207   64.5652 C   0  0  0  0  0  0  0  0  0  0  0  0
  -37.6325   60.7555   61.8215 C   0  0  0  0  0  0  0  0  0  0  0  0
  -37.5690   61.9047   62.7039 O   0  0  0  0  0  0  0  0  0  0  0  0
  -35.3182   63.3177   61.6485 O   0  0  0  0  0  0  0  0  0  0  0  0
  -35.3068   65.0716   65.4331 O   0  0  0  0  0  0  0  0  0  0  0  0
  -36.5872   62.3887   64.8689 O   0  0  0  0  0  0  0  0  0  0  0  0
  -36.3376   62.2288   63.4512 C   0  0  0  0  0  0  0  0  0  0  0  0
  -35.5893   63.4930   63.0049 C   0  0  0  0  0  0  0  0  0  0  0  0
  -34.2506   63.7146   63.7426 C   0  0  0  0  0  0  0  0  0  0  0  0
  -34.5926   63.8602   65.1997 C   0  0  0  0  0  0  0  0  0  0  0  0
  -35.3992   62.6598   65.6606 C   0  0  0  0  0  0  0  0  0  0  0  0
  -36.1490   63.1770   61.1683 H   0  0  0  0  0  0  0  0  0  0  0  0
  -34.7742   65.8243   65.1318 H   0  0  0  0  0  0  0  0  0  0  0  0
  -34.4224   63.1054   67.7961 O   0  0  0  0  0  0  0  0  0  0  0  0
  -35.6439   63.0070   67.1274 C   0  0  0  0  0  0  0  0  0  0  0  0
  -34.5806   63.3260   68.7275 H   0  0  0  0  0  0  0  0  0  0  0  0
  -33.5168   64.9065   63.3810 O   0  0  0  0  0  0  0  0  0  0  0  0
  -31.9572   66.2997   64.9118 O   0  0  0  0  0  0  0  0  0  0  0  0
  -31.2036   65.6666   62.6936 O   0  0  0  0  0  0  0  0  0  0  0  0
  -31.2759   64.0218   64.4723 O   0  0  0  0  0  0  0  0  0  0  0  0
  -31.9612   65.2107   63.8906 S   0  0  0  0  0  0  0  0  0  0  0  0
  -32.3999   67.0835   64.5504 H   0  0  0  0  0  0  0  0  0  0  0  0
  -31.7636   63.7177   65.2538 H   0  0  0  0  0  0  0  0  0  0  0  0
  2  1  1  0  0  0
  2  4  1  0  0  0
  2  5  1  0  0  0
 41 42  1  0  0  0
 41  1  1  0  0  0
 42 46  1  0  0  0
  1 24  1  0  0  0
 23 24  1  0  0  0
 23 25  1  0  0  0
 24 26  1  0  0  0
  3  4  2  0  0  0
 26 27  2  0  0  0
 27 28  1  0  0  0
 43 47  1  0  0  0
 43 51  1  0  0  0
 28 29  1  0  0  0
 56 48  1  0  0  0
 56 60  1  0  0  0
 29 30  1  0  0  0
 57 60  1  0  0  0
 57 61  1  0  0  0
 30 31  1  0  0  0
 44 49  1  0  0  0
 44 52  1  0  0  0
 31 32  1  0  0  0
 45 46  1  0  0  0
 45 50  1  0  0  0
 32 33  1  0  0  0
 53 54  1  0  0  0
 53 55  1  0  0  0
 33 34  1  0  0  0
 34 35  1  0  0  0
 35 36  1  0  0  0
 58 60  1  0  0  0
 36 37  1  0  0  0
 59 60  1  0  0  0
 59 62  1  0  0  0
 37 38  1  0  0  0
 38 39  1  0  0  0
 39 40  1  0  0  0
  4  6  1  0  0  0
  6  7  1  0  0  0
  7  8  1  0  0  0
  8  9  1  0  0  0
  9 10  1  0  0  0
 10 11  1  0  0  0
 11 12  1  0  0  0
 12 13  1  0  0  0
 13 14  1  0  0  0
 14 15  1  0  0  0
 15 16  1  0  0  0
 16 17  1  0  0  0
 17 18  1  0  0  0
 18 19  1  0  0  0
 19 20  1  0  0  0
 20 21  1  0  0  0
 21 22  1  0  0  0
 46 47  1  0  0  0
 47 48  1  0  0  0
 48 49  1  0  0  0
 49 50  1  0  0  0
 50 54  1  0  0  0
M  CHG 1  58  -1
M  END
> <minimizedAffinity>
-9.42281

> <CNNscore>
0.4717582762

> <CNNaffinity>
7.2499094009

> <CNN_VS>
3.4202048779

> <CNNaffinity_variance>
1.1370245218

$$$$
/media/chris/experiments/cd1a-new-docking/inputs/ligands/1onq_ligand.pdb


 62 62  0  0  0  0  0  0  0  0999 V2000
  -39.4750   59.3261   64.9993 C   0  0  0  0  0  0  0  0  0  0  0  0
  -40.6006   59.0779   65.8781 N   0  0  0  0  0  0  0  0  0  0  0  0
  -42.3571   59.7161   64.5917 O   0  0  0  0  0  0  0  0  0  0  0  0
  -41.9022   59.2785   65.6306 C   0  0  0  0  0  0  0  0  0  0  0  0
  -40.3816   58.7170   66.7676 H   0  0  0  0  0  0  0  0  0  0  0  0
  -42.8285   58.9113   66.7518 C   0  0  0  0  0  0  0  0  0  0  0  0
  -43.1791   57.4359   66.5588 C   0  0  0  0  0  0  0  0  0  0  0  0
  -44.6858   57.2783   66.3690 C   0  0  0  0  0  0  0  0  0  0  0  0
  -45.1715   57.2145   64.9412 C   0  0  0  0  0  0  0  0  0  0  0  0
  -46.1660   58.3535   64.7415 C   0  0  0  0  0  0  0  0  0  0  0  0
  -47.6135   57.8608   64.6115 C   0  0  0  0  0  0  0  0  0  0  0  0
  -48.6601   58.9873   64.5332 C   0  0  0  0  0  0  0  0  0  0  0  0
  -50.0407   58.4917   64.0497 C   0  0  0  0  0  0  0  0  0  0  0  0
  -50.2237   58.7757   62.5562 C   0  0  0  0  0  0  0  0  0  0  0  0
  -51.1555   57.8157   61.8264 C   0  0  0  0  0  0  0  0  0  0  0  0
  -50.6184   57.4169   60.4599 C   0  0  0  0  0  0  0  0  0  0  0  0
  -49.1769   56.9035   60.4291 C   0  0  0  0  0  0  0  0  0  0  0  0
  -48.3850   57.7675   59.4568 C   0  0  0  0  0  0  0  0  0  0  0  0
  -46.9161   57.4456   59.2250 C   0  0  0  0  0  0  0  0  0  0  0  0
  -46.5930   57.4023   57.7231 C   0  0  0  0  0  0  0  0  0  0  0  0
  -47.6280   56.6473   56.8688 C   0  0  0  0  0  0  0  0  0  0  0  0
  -47.5461   55.1303   57.0215 C   0  0  0  0  0  0  0  0  0  0  0  0
  -38.2347   57.3685   64.8393 O   0  0  0  0  0  0  0  0  0  0  0  0
  -39.3470   58.0129   64.2465 C   0  0  0  0  0  0  0  0  0  0  0  0
  -38.4180   57.2052   65.7776 H   0  0  0  0  0  0  0  0  0  0  0  0
  -39.1223   58.3005   62.7601 C   0  0  0  0  0  0  0  0  0  0  0  0
  -39.6225   59.3829   62.1404 C   0  0  0  0  0  0  0  0  0  0  0  0
  -39.3542   59.5988   60.6521 C   0  0  0  0  0  0  0  0  0  0  0  0
  -37.9265   59.2351   60.2187 C   0  0  0  0  0  0  0  0  0  0  0  0
  -37.8159   58.3545   58.9604 C   0  0  0  0  0  0  0  0  0  0  0  0
  -36.3695   58.3626   58.4097 C   0  0  0  0  0  0  0  0  0  0  0  0
  -35.8648   57.0063   57.8553 C   0  0  0  0  0  0  0  0  0  0  0  0
  -36.6497   55.7785   58.3741 C   0  0  0  0  0  0  0  0  0  0  0  0
  -36.0549   55.1631   59.6592 C   0  0  0  0  0  0  0  0  0  0  0  0
  -34.6198   55.6160   59.9540 C   0  0  0  0  0  0  0  0  0  0  0  0
  -34.3780   56.2245   61.3336 C   0  0  0  0  0  0  0  0  0  0  0  0
  -32.9947   56.8859   61.4923 C   0  0  0  0  0  0  0  0  0  0  0  0
  -33.0190   58.3553   61.9399 C   0  0  0  0  0  0  0  0  0  0  0  0
  -31.6035   58.8687   62.2185 C   0  0  0  0  0  0  0  0  0  0  0  0
  -31.2977   60.2855   61.7658 C   0  0  0  0  0  0  0  0  0  0  0  0
  -38.2005   59.8669   65.6864 C   0  0  0  0  0  0  0  0  0  0  0  0
  -36.9637   59.7568   64.9371 O   0  0  0  0  0  0  0  0  0  0  0  0
  -35.0413   60.4301   62.9301 O   0  0  0  0  0  0  0  0  0  0  0  0
  -35.6556   64.2927   64.3801 O   0  0  0  0  0  0  0  0  0  0  0  0
  -36.2481   61.8123   66.0087 O   0  0  0  0  0  0  0  0  0  0  0  0
  -35.8859   60.7546   65.0879 C   0  0  0  0  0  0  0  0  0  0  0  0
  -35.4243   61.4506   63.7995 C   0  0  0  0  0  0  0  0  0  0  0  0
  -34.2182   62.3938   64.0018 C   0  0  0  0  0  0  0  0  0  0  0  0
  -34.6690   63.4508   64.9717 C   0  0  0  0  0  0  0  0  0  0  0  0
  -35.2029   62.7965   66.2332 C   0  0  0  0  0  0  0  0  0  0  0  0
  -35.7878   59.8267   62.7910 H   0  0  0  0  0  0  0  0  0  0  0  0
  -35.2940   64.6997   63.5772 H   0  0  0  0  0  0  0  0  0  0  0  0
  -36.9947   64.1614   67.0330 O   0  0  0  0  0  0  0  0  0  0  0  0
  -35.6063   64.0170   67.0575 C   0  0  0  0  0  0  0  0  0  0  0  0
  -37.2484   64.9372   67.5572 H   0  0  0  0  0  0  0  0  0  0  0  0
  -33.7589   63.0975   62.8255 O   0  0  0  0  0  0  0  0  0  0  0  0
  -31.9984   64.4277   61.4660 O   0  0  0  0  0  0  0  0  0  0  0  0
  -31.4272   63.5944   63.6725 O   0  0  0  0  0  0  0  0  0  0  0  0
  -32.8831   65.5175   63.4347 O   0  0  0  0  0  0  0  0  0  0  0  0
  -32.5101   64.1984   62.8496 S   0  0  0  0  0  0  0  0  0  0  0  0
  -31.7501   63.5785   61.0683 H   0  0  0  0  0  0  0  0  0  0  0  0
  -33.5891   65.9187   62.9040 H   0  0  0  0  0  0  0  0  0  0  0  0
  2  1  1  0  0  0
  2  4  1  0  0  0
  2  5  1  0  0  0
 41 42  1  0  0  0
 41  1  1  0  0  0
 42 46  1  0  0  0
  1 24  1  0  0  0
 23 24  1  0  0  0
 23 25  1  0  0  0
 24 26  1  0  0  0
  3  4  2  0  0  0
 26 27  2  0  0  0
 27 28  1  0  0  0
 43 47  1  0  0  0
 43 51  1  0  0  0
 28 29  1  0  0  0
 56 48  1  0  0  0
 56 60  1  0  0  0
 29 30  1  0  0  0
 57 60  1  0  0  0
 57 61  1  0  0  0
 30 31  1  0  0  0
 44 49  1  0  0  0
 44 52  1  0  0  0
 31 32  1  0  0  0
 45 46  1  0  0  0
 45 50  1  0  0  0
 32 33  1  0  0  0
 53 54  1  0  0  0
 53 55  1  0  0  0
 33 34  1  0  0  0
 34 35  1  0  0  0
 35 36  1  0  0  0
 58 60  1  0  0  0
 36 37  1  0  0  0
 59 60  1  0  0  0
 59 62  1  0  0  0
 37 38  1  0  0  0
 38 39  1  0  0  0
 39 40  1  0  0  0
  4  6  1  0  0  0
  6  7  1  0  0  0
  7  8  1  0  0  0
  8  9  1  0  0  0
  9 10  1  0  0  0
 10 11  1  0  0  0
 11 12  1  0  0  0
 12 13  1  0  0  0
 13 14  1  0  0  0
 14 15  1  0  0  0
 15 16  1  0  0  0
 16 17  1  0  0  0
 17 18  1  0  0  0
 18 19  1  0  0  0
 19 20  1  0  0  0
 20 21  1  0  0  0
 21 22  1  0  0  0
 46 47  1  0  0  0
 47 48  1  0  0  0
 48 49  1  0  0  0
 49 50  1  0  0  0
 50 54  1  0  0  0
M  CHG 1  58  -1
M  END
> <minimizedAffinity>
-9.84270

> <CNNscore>
0.4191636741

> <CNNaffinity>
7.2050833702

> <CNN_VS>
3.0201091766

> <CNNaffinity_variance>
1.1508620977

$$$$
/media/chris/experiments/cd1a-new-docking/inputs/ligands/1onq_ligand.pdb


 62 62  0  0  0  0  0  0  0  0999 V2000
  -40.1174   59.2425   64.1494 C   0  0  0  0  0  0  0  0  0  0  0  0
  -40.0820   59.3428   62.7038 N   0  0  0  0  0  0  0  0  0  0  0  0
  -40.7570   61.4813   62.3597 O   0  0  0  0  0  0  0  0  0  0  0  0
  -40.3883   60.4012   61.9412 C   0  0  0  0  0  0  0  0  0  0  0  0
  -39.7974   58.5326   62.2224 H   0  0  0  0  0  0  0  0  0  0  0  0
  -40.2405   60.1869   60.4640 C   0  0  0  0  0  0  0  0  0  0  0  0
  -38.7491   59.9744   60.2040 C   0  0  0  0  0  0  0  0  0  0  0  0
  -38.5547   59.0998   58.9677 C   0  0  0  0  0  0  0  0  0  0  0  0
  -37.1332   58.6995   58.6551 C   0  0  0  0  0  0  0  0  0  0  0  0
  -37.1885   57.4924   57.7245 C   0  0  0  0  0  0  0  0  0  0  0  0
  -36.1374   56.4289   58.0696 C   0  0  0  0  0  0  0  0  0  0  0  0
  -34.6824   56.8867   57.8598 C   0  0  0  0  0  0  0  0  0  0  0  0
  -33.6703   56.0723   58.6954 C   0  0  0  0  0  0  0  0  0  0  0  0
  -34.0757   56.0596   60.1720 C   0  0  0  0  0  0  0  0  0  0  0  0
  -33.7722   57.3432   60.9353 C   0  0  0  0  0  0  0  0  0  0  0  0
  -32.8133   57.1127   62.0940 C   0  0  0  0  0  0  0  0  0  0  0  0
  -32.7774   58.2070   63.1632 C   0  0  0  0  0  0  0  0  0  0  0  0
  -34.1813   58.7796   63.3052 C   0  0  0  0  0  0  0  0  0  0  0  0
  -35.0817   58.2384   64.4059 C   0  0  0  0  0  0  0  0  0  0  0  0
  -36.1739   57.3268   63.8243 C   0  0  0  0  0  0  0  0  0  0  0  0
  -36.8211   57.8517   62.5294 C   0  0  0  0  0  0  0  0  0  0  0  0
  -37.7286   56.8288   61.8501 C   0  0  0  0  0  0  0  0  0  0  0  0
  -41.0591   60.9632   65.3938 O   0  0  0  0  0  0  0  0  0  0  0  0
  -41.4260   59.9312   64.4970 C   0  0  0  0  0  0  0  0  0  0  0  0
  -40.4587   61.5808   64.9477 H   0  0  0  0  0  0  0  0  0  0  0  0
  -42.3762   58.9186   65.1407 C   0  0  0  0  0  0  0  0  0  0  0  0
  -43.7039   59.1102   65.2220 C   0  0  0  0  0  0  0  0  0  0  0  0
  -44.5860   58.0513   65.8811 C   0  0  0  0  0  0  0  0  0  0  0  0
  -45.5827   58.6200   66.9016 C   0  0  0  0  0  0  0  0  0  0  0  0
  -47.0697   58.3635   66.5951 C   0  0  0  0  0  0  0  0  0  0  0  0
  -47.4200   58.8155   65.1569 C   0  0  0  0  0  0  0  0  0  0  0  0
  -48.5441   58.0047   64.4637 C   0  0  0  0  0  0  0  0  0  0  0  0
  -49.1191   58.6763   63.1945 C   0  0  0  0  0  0  0  0  0  0  0  0
  -50.3948   57.9920   62.6576 C   0  0  0  0  0  0  0  0  0  0  0  0
  -50.5227   58.0348   61.1301 C   0  0  0  0  0  0  0  0  0  0  0  0
  -50.0213   56.8028   60.3797 C   0  0  0  0  0  0  0  0  0  0  0  0
  -49.4044   57.1168   59.0025 C   0  0  0  0  0  0  0  0  0  0  0  0
  -47.8714   57.2146   58.9787 C   0  0  0  0  0  0  0  0  0  0  0  0
  -47.3137   56.7807   57.6201 C   0  0  0  0  0  0  0  0  0  0  0  0
  -47.5751   55.3419   57.2113 C   0  0  0  0  0  0  0  0  0  0  0  0
  -38.8493   59.7365   64.8822 C   0  0  0  0  0  0  0  0  0  0  0  0
  -38.4352   61.1002   64.6136 O   0  0  0  0  0  0  0  0  0  0  0  0
  -36.5928   61.5994   62.4843 O   0  0  0  0  0  0  0  0  0  0  0  0
  -35.4017   64.7441   64.9524 O   0  0  0  0  0  0  0  0  0  0  0  0
  -36.8327   62.2896   65.9930 O   0  0  0  0  0  0  0  0  0  0  0  0
  -37.0298   61.5205   64.7817 C   0  0  0  0  0  0  0  0  0  0  0  0
  -36.4347   62.3600   63.6422 C   0  0  0  0  0  0  0  0  0  0  0  0
  -34.9317   62.6685   63.8185 C   0  0  0  0  0  0  0  0  0  0  0  0
  -34.8107   63.4547   65.0946 C   0  0  0  0  0  0  0  0  0  0  0  0
  -35.4560   62.6871   66.2341 C   0  0  0  0  0  0  0  0  0  0  0  0
  -37.5326   61.3957   62.3572 H   0  0  0  0  0  0  0  0  0  0  0  0
  -34.9752   65.2163   64.2201 H   0  0  0  0  0  0  0  0  0  0  0  0
  -36.4694   64.0203   67.9396 O   0  0  0  0  0  0  0  0  0  0  0  0
  -35.2365   63.6440   67.4037 C   0  0  0  0  0  0  0  0  0  0  0  0
  -36.3273   64.6280   68.6823 H   0  0  0  0  0  0  0  0  0  0  0  0
  -34.3255   63.4804   62.7873 O   0  0  0  0  0  0  0  0  0  0  0  0
  -32.7557   65.4433   63.4192 O   0  0  0  0  0  0  0  0  0  0  0  0
  -32.2405   64.0741   61.4829 O   0  0  0  0  0  0  0  0  0  0  0  0
  -31.8641   63.2158   63.7181 O   0  0  0  0  0  0  0  0  0  0  0  0
  -32.7646   64.0529   62.8756 S   0  0  0  0  0  0  0  0  0  0  0  0
  -33.3374   66.0041   62.8825 H   0  0  0  0  0  0  0  0  0  0  0  0
  -32.1986   63.1964   64.6285 H   0  0  0  0  0  0  0  0  0  0  0  0
  2  1  1  0  0  0
  2  4  1  0  0  0
  2  5  1  0  0  0
 41 42  1  0  0  0
 41  1  1  0  0  0
 42 46  1  0  0  0
  1 24  1  0  0  0
 23 24  1  0  0  0
 23 25  1  0  0  0
 24 26  1  0  0  0
  3  4  2  0  0  0
 26 27  2  0  0  0
 27 28  1  0  0  0
 43 47  1  0  0  0
 43 51  1  0  0  0
 28 29  1  0  0  0
 56 48  1  0  0  0
 56 60  1  0  0  0
 29 30  1  0  0  0
 57 60  1  0  0  0
 57 61  1  0  0  0
 30 31  1  0  0  0
 44 49  1  0  0  0
 44 52  1  0  0  0
 31 32  1  0  0  0
 45 46  1  0  0  0
 45 50  1  0  0  0
 32 33  1  0  0  0
 53 54  1  0  0  0
 53 55  1  0  0  0
 33 34  1  0  0  0
 34 35  1  0  0  0
 35 36  1  0  0  0
 58 60  1  0  0  0
 36 37  1  0  0  0
 59 60  1  0  0  0
 59 62  1  0  0  0
 37 38  1  0  0  0
 38 39  1  0  0  0
 39 40  1  0  0  0
  4  6  1  0  0  0
  6  7  1  0  0  0
  7  8  1  0  0  0
  8  9  1  0  0  0
  9 10  1  0  0  0
 10 11  1  0  0  0
 11 12  1  0  0  0
 12 13  1  0  0  0
 13 14  1  0  0  0
 14 15  1  0  0  0
 15 16  1  0  0  0
 16 17  1  0  0  0
 17 18  1  0  0  0
 18 19  1  0  0  0
 19 20  1  0  0  0
 20 21  1  0  0  0
 21 22  1  0  0  0
 46 47  1  0  0  0
 47 48  1  0  0  0
 48 49  1  0  0  0
 49 50  1  0  0  0
 50 54  1  0  0  0
M  CHG 1  58  -1
M  END
> <minimizedAffinity>
-9.68176

> <CNNscore>
0.3847072423

> <CNNaffinity>
7.4567174911

> <CNN_VS>
2.8686532974

> <CNNaffinity_variance>
0.9836785197

$$$$
/media/chris/experiments/cd1a-new-docking/inputs/ligands/1onq_ligand.pdb


 62 62  0  0  0  0  0  0  0  0999 V2000
  -37.4540   60.0102   65.3766 C   0  0  0  0  0  0  0  0  0  0  0  0
  -36.5028   59.4055   64.4652 N   0  0  0  0  0  0  0  0  0  0  0  0
  -36.9560   57.1953   64.7038 O   0  0  0  0  0  0  0  0  0  0  0  0
  -36.3242   58.1040   64.2010 C   0  0  0  0  0  0  0  0  0  0  0  0
  -35.9149   60.0285   63.9799 H   0  0  0  0  0  0  0  0  0  0  0  0
  -35.2552   57.7986   63.1942 C   0  0  0  0  0  0  0  0  0  0  0  0
  -35.8047   58.2298   61.8343 C   0  0  0  0  0  0  0  0  0  0  0  0
  -36.6565   57.1119   61.2377 C   0  0  0  0  0  0  0  0  0  0  0  0
  -37.5475   57.5009   60.0831 C   0  0  0  0  0  0  0  0  0  0  0  0
  -37.9215   58.9685   60.2638 C   0  0  0  0  0  0  0  0  0  0  0  0
  -39.1572   59.1603   61.1533 C   0  0  0  0  0  0  0  0  0  0  0  0
  -40.1627   60.1989   60.6233 C   0  0  0  0  0  0  0  0  0  0  0  0
  -40.3604   60.1169   59.0937 C   0  0  0  0  0  0  0  0  0  0  0  0
  -41.7349   59.5318   58.7575 C   0  0  0  0  0  0  0  0  0  0  0  0
  -42.0335   59.4006   57.2688 C   0  0  0  0  0  0  0  0  0  0  0  0
  -43.2781   58.5672   57.0010 C   0  0  0  0  0  0  0  0  0  0  0  0
  -44.1603   58.2692   58.2155 C   0  0  0  0  0  0  0  0  0  0  0  0
  -45.6120   58.2518   57.7560 C   0  0  0  0  0  0  0  0  0  0  0  0
  -46.5526   57.2138   58.3502 C   0  0  0  0  0  0  0  0  0  0  0  0
  -47.8028   57.8812   58.9450 C   0  0  0  0  0  0  0  0  0  0  0  0
  -49.0517   56.9811   58.9800 C   0  0  0  0  0  0  0  0  0  0  0  0
  -48.8120   55.6422   59.6738 C   0  0  0  0  0  0  0  0  0  0  0  0
  -38.5870   61.3567   63.8604 O   0  0  0  0  0  0  0  0  0  0  0  0
  -38.7082   60.1132   64.5258 C   0  0  0  0  0  0  0  0  0  0  0  0
  -37.7961   61.3473   63.2990 H   0  0  0  0  0  0  0  0  0  0  0  0
  -39.9408   60.0614   65.4315 C   0  0  0  0  0  0  0  0  0  0  0  0
  -41.0803   59.4406   65.0818 C   0  0  0  0  0  0  0  0  0  0  0  0
  -42.2683   59.4342   66.0423 C   0  0  0  0  0  0  0  0  0  0  0  0
  -42.4101   58.1339   66.8468 C   0  0  0  0  0  0  0  0  0  0  0  0
  -43.0197   56.9422   66.0857 C   0  0  0  0  0  0  0  0  0  0  0  0
  -44.5648   57.0313   66.0726 C   0  0  0  0  0  0  0  0  0  0  0  0
  -45.1892   57.5033   64.7351 C   0  0  0  0  0  0  0  0  0  0  0  0
  -46.2349   58.6329   64.8880 C   0  0  0  0  0  0  0  0  0  0  0  0
  -46.6362   58.9089   66.3531 C   0  0  0  0  0  0  0  0  0  0  0  0
  -48.1262   59.2211   66.5372 C   0  0  0  0  0  0  0  0  0  0  0  0
  -49.0918   58.4272   65.6598 C   0  0  0  0  0  0  0  0  0  0  0  0
  -50.2742   59.2566   65.1213 C   0  0  0  0  0  0  0  0  0  0  0  0
  -50.1614   59.6778   63.6482 C   0  0  0  0  0  0  0  0  0  0  0  0
  -51.3505   59.1581   62.8352 C   0  0  0  0  0  0  0  0  0  0  0  0
  -51.0819   57.9681   61.9311 C   0  0  0  0  0  0  0  0  0  0  0  0
  -36.9752   61.3015   66.0782 C   0  0  0  0  0  0  0  0  0  0  0  0
  -36.3152   62.2864   65.2430 O   0  0  0  0  0  0  0  0  0  0  0  0
  -34.0222   61.2827   63.8602 O   0  0  0  0  0  0  0  0  0  0  0  0
  -32.7835   65.2582   64.1066 O   0  0  0  0  0  0  0  0  0  0  0  0
  -34.8287   64.0547   65.9839 O   0  0  0  0  0  0  0  0  0  0  0  0
  -34.9189   62.6936   65.4974 C   0  0  0  0  0  0  0  0  0  0  0  0
  -33.9603   62.6040   64.3014 C   0  0  0  0  0  0  0  0  0  0  0  0
  -32.4928   62.9285   64.6569 C   0  0  0  0  0  0  0  0  0  0  0  0
  -32.4855   64.3455   65.1603 C   0  0  0  0  0  0  0  0  0  0  0  0
  -33.4789   64.4913   66.2988 C   0  0  0  0  0  0  0  0  0  0  0  0
  -34.9384   61.0608   63.6319 H   0  0  0  0  0  0  0  0  0  0  0  0
  -32.1378   65.1481   63.3911 H   0  0  0  0  0  0  0  0  0  0  0  0
  -32.5502   66.1022   67.8006 O   0  0  0  0  0  0  0  0  0  0  0  0
  -33.3236   65.9702   66.6459 C   0  0  0  0  0  0  0  0  0  0  0  0
  -32.4529   67.0424   68.0190 H   0  0  0  0  0  0  0  0  0  0  0  0
  -31.5505   62.8865   63.5613 O   0  0  0  0  0  0  0  0  0  0  0  0
  -31.2662   62.4340   61.0253 O   0  0  0  0  0  0  0  0  0  0  0  0
  -31.4207   64.7206   61.8235 O   0  0  0  0  0  0  0  0  0  0  0  0
  -33.4015   63.3274   61.7243 O   0  0  0  0  0  0  0  0  0  0  0  0
  -31.9379   63.3372   62.0061 S   0  0  0  0  0  0  0  0  0  0  0  0
  -30.3109   62.4276   61.1934 H   0  0  0  0  0  0  0  0  0  0  0  0
  -33.7472   62.4286   61.8411 H   0  0  0  0  0  0  0  0  0  0  0  0
  2  1  1  0  0  0
  2  4  1  0  0  0
  2  5  1  0  0  0
 41 42  1  0  0  0
 41  1  1  0  0  0
 42 46  1  0  0  0
  1 24  1  0  0  0
 23 24  1  0  0  0
 23 25  1  0  0  0
 24 26  1  0  0  0
  3  4  2  0  0  0
 26 27  2  0  0  0
 27 28  1  0  0  0
 43 47  1  0  0  0
 43 51  1  0  0  0
 28 29  1  0  0  0
 56 48  1  0  0  0
 56 60  1  0  0  0
 29 30  1  0  0  0
 57 60  1  0  0  0
 57 61  1  0  0  0
 30 31  1  0  0  0
 44 49  1  0  0  0
 44 52  1  0  0  0
 31 32  1  0  0  0
 45 46  1  0  0  0
 45 50  1  0  0  0
 32 33  1  0  0  0
 53 54  1  0  0  0
 53 55  1  0  0  0
 33 34  1  0  0  0
 34 35  1  0  0  0
 35 36  1  0  0  0
 58 60  1  0  0  0
 36 37  1  0  0  0
 59 60  1  0  0  0
 59 62  1  0  0  0
 37 38  1  0  0  0
 38 39  1  0  0  0
 39 40  1  0  0  0
  4  6  1  0  0  0
  6  7  1  0  0  0
  7  8  1  0  0  0
  8  9  1  0  0  0
  9 10  1  0  0  0
 10 11  1  0  0  0
 11 12  1  0  0  0
 12 13  1  0  0  0
 13 14  1  0  0  0
 14 15  1  0  0  0
 15 16  1  0  0  0
 16 17  1  0  0  0
 17 18  1  0  0  0
 18 19  1  0  0  0
 19 20  1  0  0  0
 20 21  1  0  0  0
 21 22  1  0  0  0
 46 47  1  0  0  0
 47 48  1  0  0  0
 48 49  1  0  0  0
 49 50  1  0  0  0
 50 54  1  0  0  0
M  CHG 1  58  -1
M  END
> <minimizedAffinity>
-8.74461

> <CNNscore>
0.3784845173

> <CNNaffinity>
6.9374985695

> <CNN_VS>
2.6257357597

> <CNNaffinity_variance>
0.8563907743

$$$$
/media/chris/experiments/cd1a-new-docking/inputs/ligands/1onq_ligand.pdb


 62 62  0  0  0  0  0  0  0  0999 V2000
  -40.2213   59.2197   64.6862 C   0  0  0  0  0  0  0  0  0  0  0  0
  -40.2454   59.1989   63.2370 N   0  0  0  0  0  0  0  0  0  0  0  0
  -40.6684   61.3714   62.7381 O   0  0  0  0  0  0  0  0  0  0  0  0
  -40.4565   60.2233   62.3993 C   0  0  0  0  0  0  0  0  0  0  0  0
  -40.0868   58.3233   62.8158 H   0  0  0  0  0  0  0  0  0  0  0  0
  -40.4095   59.8747   60.9412 C   0  0  0  0  0  0  0  0  0  0  0  0
  -39.0705   60.3918   60.4149 C   0  0  0  0  0  0  0  0  0  0  0  0
  -38.3348   59.2766   59.6760 C   0  0  0  0  0  0  0  0  0  0  0  0
  -37.2340   58.5857   60.4439 C   0  0  0  0  0  0  0  0  0  0  0  0
  -37.7878   57.2571   60.9480 C   0  0  0  0  0  0  0  0  0  0  0  0
  -37.8118   57.1676   62.4798 C   0  0  0  0  0  0  0  0  0  0  0  0
  -36.7244   58.0039   63.1791 C   0  0  0  0  0  0  0  0  0  0  0  0
  -35.9293   57.1974   64.2292 C   0  0  0  0  0  0  0  0  0  0  0  0
  -34.7109   57.9906   64.7100 C   0  0  0  0  0  0  0  0  0  0  0  0
  -34.0218   58.8268   63.6384 C   0  0  0  0  0  0  0  0  0  0  0  0
  -32.9592   58.0394   62.8862 C   0  0  0  0  0  0  0  0  0  0  0  0
  -33.2679   57.7265   61.4203 C   0  0  0  0  0  0  0  0  0  0  0  0
  -33.7309   56.2786   61.3302 C   0  0  0  0  0  0  0  0  0  0  0  0
  -34.5716   55.8548   60.1349 C   0  0  0  0  0  0  0  0  0  0  0  0
  -33.9520   56.3571   58.8211 C   0  0  0  0  0  0  0  0  0  0  0  0
  -34.9457   57.0495   57.8702 C   0  0  0  0  0  0  0  0  0  0  0  0
  -36.2904   56.3325   57.7752 C   0  0  0  0  0  0  0  0  0  0  0  0
  -41.1472   60.9342   65.9506 O   0  0  0  0  0  0  0  0  0  0  0  0
  -41.5211   59.9272   65.0287 C   0  0  0  0  0  0  0  0  0  0  0  0
  -40.5286   61.5483   65.5252 H   0  0  0  0  0  0  0  0  0  0  0  0
  -42.5002   58.9214   65.6389 C   0  0  0  0  0  0  0  0  0  0  0  0
  -43.8265   59.1313   65.6924 C   0  0  0  0  0  0  0  0  0  0  0  0
  -44.7383   58.0780   66.3191 C   0  0  0  0  0  0  0  0  0  0  0  0
  -46.2071   58.5129   66.4283 C   0  0  0  0  0  0  0  0  0  0  0  0
  -46.6338   59.6599   65.4938 C   0  0  0  0  0  0  0  0  0  0  0  0
  -48.1660   59.8713   65.5479 C   0  0  0  0  0  0  0  0  0  0  0  0
  -49.0008   58.5949   65.8230 C   0  0  0  0  0  0  0  0  0  0  0  0
  -50.4375   58.6423   65.2515 C   0  0  0  0  0  0  0  0  0  0  0  0
  -50.6449   59.7468   64.1928 C   0  0  0  0  0  0  0  0  0  0  0  0
  -51.1974   59.2286   62.8595 C   0  0  0  0  0  0  0  0  0  0  0  0
  -50.7298   57.8384   62.4340 C   0  0  0  0  0  0  0  0  0  0  0  0
  -50.8204   57.5848   60.9163 C   0  0  0  0  0  0  0  0  0  0  0  0
  -49.6672   56.7637   60.3197 C   0  0  0  0  0  0  0  0  0  0  0  0
  -48.6513   57.6705   59.6192 C   0  0  0  0  0  0  0  0  0  0  0  0
  -47.3134   57.0427   59.2707 C   0  0  0  0  0  0  0  0  0  0  0  0
  -38.9293   59.7807   65.3225 C   0  0  0  0  0  0  0  0  0  0  0  0
  -38.4357   61.0355   64.7884 O   0  0  0  0  0  0  0  0  0  0  0  0
  -36.6031   61.3635   62.6179 O   0  0  0  0  0  0  0  0  0  0  0  0
  -35.2829   64.5909   64.9071 O   0  0  0  0  0  0  0  0  0  0  0  0
  -36.7799   62.2415   66.0881 O   0  0  0  0  0  0  0  0  0  0  0  0
  -37.0157   61.4178   64.9205 C   0  0  0  0  0  0  0  0  0  0  0  0
  -36.4072   62.1773   63.7330 C   0  0  0  0  0  0  0  0  0  0  0  0
  -34.8931   62.4452   63.8780 C   0  0  0  0  0  0  0  0  0  0  0  0
  -34.7320   63.2920   65.1102 C   0  0  0  0  0  0  0  0  0  0  0  0
  -35.3884   62.6057   66.2946 C   0  0  0  0  0  0  0  0  0  0  0  0
  -37.5503   61.1844   62.5109 H   0  0  0  0  0  0  0  0  0  0  0  0
  -34.8500   65.0105   64.1470 H   0  0  0  0  0  0  0  0  0  0  0  0
  -36.3379   64.1122   67.8890 O   0  0  0  0  0  0  0  0  0  0  0  0
  -35.1246   63.6141   67.4106 C   0  0  0  0  0  0  0  0  0  0  0  0
  -36.1677   64.7524   68.5977 H   0  0  0  0  0  0  0  0  0  0  0  0
  -34.2731   63.1824   62.8000 O   0  0  0  0  0  0  0  0  0  0  0  0
  -32.3629   63.8247   61.1705 O   0  0  0  0  0  0  0  0  0  0  0  0
  -32.4155   61.5986   62.1354 O   0  0  0  0  0  0  0  0  0  0  0  0
  -31.7373   63.4957   63.4828 O   0  0  0  0  0  0  0  0  0  0  0  0
  -32.6618   63.0412   62.4056 S   0  0  0  0  0  0  0  0  0  0  0  0
  -32.9560   63.5421   60.4569 H   0  0  0  0  0  0  0  0  0  0  0  0
  -31.8911   64.4359   63.6655 H   0  0  0  0  0  0  0  0  0  0  0  0
  2  1  1  0  0  0
  2  4  1  0  0  0
  2  5  1  0  0  0
 41 42  1  0  0  0
 41  1  1  0  0  0
 42 46  1  0  0  0
  1 24  1  0  0  0
 23 24  1  0  0  0
 23 25  1  0  0  0
 24 26  1  0  0  0
  3  4  2  0  0  0
 26 27  2  0  0  0
 27 28  1  0  0  0
 43 47  1  0  0  0
 43 51  1  0  0  0
 28 29  1  0  0  0
 56 48  1  0  0  0
 56 60  1  0  0  0
 29 30  1  0  0  0
 57 60  1  0  0  0
 57 61  1  0  0  0
 30 31  1  0  0  0
 44 49  1  0  0  0
 44 52  1  0  0  0
 31 32  1  0  0  0
 45 46  1  0  0  0
 45 50  1  0  0  0
 32 33  1  0  0  0
 53 54  1  0  0  0
 53 55  1  0  0  0
 33 34  1  0  0  0
 34 35  1  0  0  0
 35 36  1  0  0  0
 58 60  1  0  0  0
 36 37  1  0  0  0
 59 60  1  0  0  0
 59 62  1  0  0  0
 37 38  1  0  0  0
 38 39  1  0  0  0
 39 40  1  0  0  0
  4  6  1  0  0  0
  6  7  1  0  0  0
  7  8  1  0  0  0
  8  9  1  0  0  0
  9 10  1  0  0  0
 10 11  1  0  0  0
 11 12  1  0  0  0
 12 13  1  0  0  0
 13 14  1  0  0  0
 14 15  1  0  0  0
 15 16  1  0  0  0
 16 17  1  0  0  0
 17 18  1  0  0  0
 18 19  1  0  0  0
 19 20  1  0  0  0
 20 21  1  0  0  0
 21 22  1  0  0  0
 46 47  1  0  0  0
 47 48  1  0  0  0
 48 49  1  0  0  0
 49 50  1  0  0  0
 50 54  1  0  0  0
M  CHG 1  58  -1
M  END
> <minimizedAffinity>
-9.68917

> <CNNscore>
0.3438159823

> <CNNaffinity>
7.3798637390

> <CNN_VS>
2.5373151302

> <CNNaffinity_variance>
0.8485742807

$$$$
/media/chris/experiments/cd1a-new-docking/inputs/ligands/1onq_ligand.pdb


 62 62  0  0  0  0  0  0  0  0999 V2000
  -39.8866   59.1616   64.7990 C   0  0  0  0  0  0  0  0  0  0  0  0
  -40.9360   58.6086   65.6321 N   0  0  0  0  0  0  0  0  0  0  0  0
  -42.7702   59.7120   64.8799 O   0  0  0  0  0  0  0  0  0  0  0  0
  -42.2430   58.9041   65.6196 C   0  0  0  0  0  0  0  0  0  0  0  0
  -40.6534   57.9316   66.2887 H   0  0  0  0  0  0  0  0  0  0  0  0
  -43.0776   58.1460   66.6087 C   0  0  0  0  0  0  0  0  0  0  0  0
  -43.4516   56.8244   65.9374 C   0  0  0  0  0  0  0  0  0  0  0  0
  -44.9569   56.7741   65.6873 C   0  0  0  0  0  0  0  0  0  0  0  0
  -45.7329   58.0145   66.0583 C   0  0  0  0  0  0  0  0  0  0  0  0
  -46.9846   57.5683   66.8068 C   0  0  0  0  0  0  0  0  0  0  0  0
  -48.0407   56.9504   65.8806 C   0  0  0  0  0  0  0  0  0  0  0  0
  -48.7172   57.9575   64.9326 C   0  0  0  0  0  0  0  0  0  0  0  0
  -50.1120   58.4021   65.4251 C   0  0  0  0  0  0  0  0  0  0  0  0
  -50.8293   59.2208   64.3480 C   0  0  0  0  0  0  0  0  0  0  0  0
  -49.9395   59.7139   63.2133 C   0  0  0  0  0  0  0  0  0  0  0  0
  -50.4137   59.2237   61.8532 C   0  0  0  0  0  0  0  0  0  0  0  0
  -51.0218   57.8196   61.8205 C   0  0  0  0  0  0  0  0  0  0  0  0
  -50.2836   57.0060   60.7660 C   0  0  0  0  0  0  0  0  0  0  0  0
  -50.1764   57.5665   59.3555 C   0  0  0  0  0  0  0  0  0  0  0  0
  -48.8858   57.0893   58.6709 C   0  0  0  0  0  0  0  0  0  0  0  0
  -47.5916   57.4609   59.4180 C   0  0  0  0  0  0  0  0  0  0  0  0
  -46.3819   57.6023   58.4971 C   0  0  0  0  0  0  0  0  0  0  0  0
  -40.0260   56.8454   64.6906 O   0  0  0  0  0  0  0  0  0  0  0  0
  -39.2226   57.9177   64.2339 C   0  0  0  0  0  0  0  0  0  0  0  0
  -40.9241   56.9410   64.3370 H   0  0  0  0  0  0  0  0  0  0  0  0
  -37.7874   57.8267   64.7576 C   0  0  0  0  0  0  0  0  0  0  0  0
  -36.7269   57.6298   63.9558 C   0  0  0  0  0  0  0  0  0  0  0  0
  -35.3245   57.5496   64.5561 C   0  0  0  0  0  0  0  0  0  0  0  0
  -34.3509   58.6011   64.0040 C   0  0  0  0  0  0  0  0  0  0  0  0
  -33.1985   58.0546   63.1413 C   0  0  0  0  0  0  0  0  0  0  0  0
  -33.6752   57.7880   61.6931 C   0  0  0  0  0  0  0  0  0  0  0  0
  -33.3942   56.3618   61.1559 C   0  0  0  0  0  0  0  0  0  0  0  0
  -33.9952   56.0815   59.7584 C   0  0  0  0  0  0  0  0  0  0  0  0
  -35.1917   55.1060   59.7849 C   0  0  0  0  0  0  0  0  0  0  0  0
  -36.5575   55.8032   59.7795 C   0  0  0  0  0  0  0  0  0  0  0  0
  -36.5464   57.2989   59.4712 C   0  0  0  0  0  0  0  0  0  0  0  0
  -37.4002   58.1435   60.4374 C   0  0  0  0  0  0  0  0  0  0  0  0
  -38.0311   59.4027   59.8238 C   0  0  0  0  0  0  0  0  0  0  0  0
  -39.2400   59.8663   60.6414 C   0  0  0  0  0  0  0  0  0  0  0  0
  -40.4451   60.3462   59.8520 C   0  0  0  0  0  0  0  0  0  0  0  0
  -38.9666   60.1960   65.4863 C   0  0  0  0  0  0  0  0  0  0  0  0
  -38.2948   61.1439   64.6182 O   0  0  0  0  0  0  0  0  0  0  0  0
  -36.1871   61.3269   62.6944 O   0  0  0  0  0  0  0  0  0  0  0  0
  -35.2915   64.8247   64.7832 O   0  0  0  0  0  0  0  0  0  0  0  0
  -36.8717   62.5462   65.9943 O   0  0  0  0  0  0  0  0  0  0  0  0
  -36.9186   61.5982   64.9004 C   0  0  0  0  0  0  0  0  0  0  0  0
  -36.1719   62.2580   63.7322 C   0  0  0  0  0  0  0  0  0  0  0  0
  -34.7012   62.6039   64.0523 C   0  0  0  0  0  0  0  0  0  0  0  0
  -34.7379   63.5781   65.1972 C   0  0  0  0  0  0  0  0  0  0  0  0
  -35.5335   62.9888   66.3479 C   0  0  0  0  0  0  0  0  0  0  0  0
  -37.1046   61.0974   62.4795 H   0  0  0  0  0  0  0  0  0  0  0  0
  -34.7688   65.1827   64.0485 H   0  0  0  0  0  0  0  0  0  0  0  0
  -34.1292   64.5182   67.5320 O   0  0  0  0  0  0  0  0  0  0  0  0
  -35.4569   64.1162   67.3750 C   0  0  0  0  0  0  0  0  0  0  0  0
  -34.0833   65.2344   68.1848 H   0  0  0  0  0  0  0  0  0  0  0  0
  -33.9579   63.2531   62.9959 O   0  0  0  0  0  0  0  0  0  0  0  0
  -32.4172   61.3403   62.1686 O   0  0  0  0  0  0  0  0  0  0  0  0
  -31.5483   62.9908   63.7211 O   0  0  0  0  0  0  0  0  0  0  0  0
  -31.8798   63.5655   61.3899 O   0  0  0  0  0  0  0  0  0  0  0  0
  -32.4268   62.7870   62.5373 S   0  0  0  0  0  0  0  0  0  0  0  0
  -32.7704   60.8167   62.9048 H   0  0  0  0  0  0  0  0  0  0  0  0
  -32.4469   63.4383   60.6132 H   0  0  0  0  0  0  0  0  0  0  0  0
  2  1  1  0  0  0
  2  4  1  0  0  0
  2  5  1  0  0  0
 41 42  1  0  0  0
 41  1  1  0  0  0
 42 46  1  0  0  0
  1 24  1  0  0  0
 23 24  1  0  0  0
 23 25  1  0  0  0
 24 26  1  0  0  0
  3  4  2  0  0  0
 26 27  2  0  0  0
 27 28  1  0  0  0
 43 47  1  0  0  0
 43 51  1  0  0  0
 28 29  1  0  0  0
 56 48  1  0  0  0
 56 60  1  0  0  0
 29 30  1  0  0  0
 57 60  1  0  0  0
 57 61  1  0  0  0
 30 31  1  0  0  0
 44 49  1  0  0  0
 44 52  1  0  0  0
 31 32  1  0  0  0
 45 46  1  0  0  0
 45 50  1  0  0  0
 32 33  1  0  0  0
 53 54  1  0  0  0
 53 55  1  0  0  0
 33 34  1  0  0  0
 34 35  1  0  0  0
 35 36  1  0  0  0
 58 60  1  0  0  0
 36 37  1  0  0  0
 59 60  1  0  0  0
 59 62  1  0  0  0
 37 38  1  0  0  0
 38 39  1  0  0  0
 39 40  1  0  0  0
  4  6  1  0  0  0
  6  7  1  0  0  0
  7  8  1  0  0  0
  8  9  1  0  0  0
  9 10  1  0  0  0
 10 11  1  0  0  0
 11 12  1  0  0  0
 12 13  1  0  0  0
 13 14  1  0  0  0
 14 15  1  0  0  0
 15 16  1  0  0  0
 16 17  1  0  0  0
 17 18  1  0  0  0
 18 19  1  0  0  0
 19 20  1  0  0  0
 20 21  1  0  0  0
 21 22  1  0  0  0
 46 47  1  0  0  0
 47 48  1  0  0  0
 48 49  1  0  0  0
 49 50  1  0  0  0
 50 54  1  0  0  0
M  CHG 1  58  -1
M  END
> <minimizedAffinity>
-9.83044

> <CNNscore>
0.3023656607

> <CNNaffinity>
7.3132696152

> <CNN_VS>
2.2112815380

> <CNNaffinity_variance>
1.2222080231

$$$$
/media/chris/experiments/cd1a-new-docking/inputs/ligands/1onq_ligand.pdb


 62 62  0  0  0  0  0  0  0  0999 V2000
  -40.1295   58.9849   64.9083 C   0  0  0  0  0  0  0  0  0  0  0  0
  -41.2262   58.4852   65.7136 N   0  0  0  0  0  0  0  0  0  0  0  0
  -43.0224   59.4559   64.7243 O   0  0  0  0  0  0  0  0  0  0  0  0
  -42.5347   58.7396   65.5769 C   0  0  0  0  0  0  0  0  0  0  0  0
  -40.9790   57.8839   66.4529 H   0  0  0  0  0  0  0  0  0  0  0  0
  -43.4245   58.0573   66.5731 C   0  0  0  0  0  0  0  0  0  0  0  0
  -43.9674   56.8056   65.8834 C   0  0  0  0  0  0  0  0  0  0  0  0
  -45.4197   57.0273   65.4680 C   0  0  0  0  0  0  0  0  0  0  0  0
  -46.4363   57.0276   66.5838 C   0  0  0  0  0  0  0  0  0  0  0  0
  -47.0026   58.4397   66.6908 C   0  0  0  0  0  0  0  0  0  0  0  0
  -46.8703   59.2323   65.3833 C   0  0  0  0  0  0  0  0  0  0  0  0
  -48.2072   59.4994   64.6679 C   0  0  0  0  0  0  0  0  0  0  0  0
  -49.2569   58.3960   64.9252 C   0  0  0  0  0  0  0  0  0  0  0  0
  -50.6735   58.9400   64.7201 C   0  0  0  0  0  0  0  0  0  0  0  0
  -50.9650   59.4688   63.3209 C   0  0  0  0  0  0  0  0  0  0  0  0
  -51.0393   58.3551   62.2868 C   0  0  0  0  0  0  0  0  0  0  0  0
  -49.9449   58.3586   61.2170 C   0  0  0  0  0  0  0  0  0  0  0  0
  -50.2990   57.3102   60.1709 C   0  0  0  0  0  0  0  0  0  0  0  0
  -49.4197   57.1869   58.9353 C   0  0  0  0  0  0  0  0  0  0  0  0
  -47.9319   57.2900   59.3066 C   0  0  0  0  0  0  0  0  0  0  0  0
  -46.9925   57.5484   58.1142 C   0  0  0  0  0  0  0  0  0  0  0  0
  -47.3379   56.7160   56.8817 C   0  0  0  0  0  0  0  0  0  0  0  0
  -38.2060   57.7593   65.3483 O   0  0  0  0  0  0  0  0  0  0  0  0
  -39.3753   57.7154   64.5518 C   0  0  0  0  0  0  0  0  0  0  0  0
  -38.4533   57.7550   66.2862 H   0  0  0  0  0  0  0  0  0  0  0  0
  -39.0543   57.7198   63.0553 C   0  0  0  0  0  0  0  0  0  0  0  0
  -37.9491   57.1528   62.5423 C   0  0  0  0  0  0  0  0  0  0  0  0
  -37.6994   57.2003   61.0360 C   0  0  0  0  0  0  0  0  0  0  0  0
  -37.4477   58.6141   60.4919 C   0  0  0  0  0  0  0  0  0  0  0  0
  -37.9295   58.8696   59.0518 C   0  0  0  0  0  0  0  0  0  0  0  0
  -36.8619   58.4164   58.0270 C   0  0  0  0  0  0  0  0  0  0  0  0
  -37.0083   56.9596   57.5193 C   0  0  0  0  0  0  0  0  0  0  0  0
  -35.8690   56.0147   57.9686 C   0  0  0  0  0  0  0  0  0  0  0  0
  -34.6623   56.7529   58.5872 C   0  0  0  0  0  0  0  0  0  0  0  0
  -33.9223   55.9396   59.6562 C   0  0  0  0  0  0  0  0  0  0  0  0
  -34.1099   56.4008   61.0999 C   0  0  0  0  0  0  0  0  0  0  0  0
  -32.7945   56.7630   61.8172 C   0  0  0  0  0  0  0  0  0  0  0  0
  -32.9099   57.8683   62.8779 C   0  0  0  0  0  0  0  0  0  0  0  0
  -34.3572   58.3492   63.0157 C   0  0  0  0  0  0  0  0  0  0  0  0
  -34.8568   58.5910   64.4290 C   0  0  0  0  0  0  0  0  0  0  0  0
  -39.3097   60.1333   65.5392 C   0  0  0  0  0  0  0  0  0  0  0  0
  -38.6424   61.0346   64.6196 O   0  0  0  0  0  0  0  0  0  0  0  0
  -36.6707   61.1197   62.5502 O   0  0  0  0  0  0  0  0  0  0  0  0
  -35.4285   64.5368   64.5946 O   0  0  0  0  0  0  0  0  0  0  0  0
  -37.0462   62.3379   65.8997 O   0  0  0  0  0  0  0  0  0  0  0  0
  -37.2257   61.4067   64.8051 C   0  0  0  0  0  0  0  0  0  0  0  0
  -36.5279   62.0364   63.5910 C   0  0  0  0  0  0  0  0  0  0  0  0
  -35.0205   62.2946   63.8068 C   0  0  0  0  0  0  0  0  0  0  0  0
  -34.9192   63.2561   64.9585 C   0  0  0  0  0  0  0  0  0  0  0  0
  -35.6630   62.6999   66.1591 C   0  0  0  0  0  0  0  0  0  0  0  0
  -37.6129   60.9451   62.4003 H   0  0  0  0  0  0  0  0  0  0  0  0
  -34.9400   64.8729   63.8269 H   0  0  0  0  0  0  0  0  0  0  0  0
  -36.5291   63.8462   68.0694 O   0  0  0  0  0  0  0  0  0  0  0  0
  -35.4485   63.8093   67.1863 C   0  0  0  0  0  0  0  0  0  0  0  0
  -36.3905   64.5515   68.7208 H   0  0  0  0  0  0  0  0  0  0  0  0
  -34.3186   62.9127   62.7044 O   0  0  0  0  0  0  0  0  0  0  0  0
  -31.9730   63.0382   63.7993 O   0  0  0  0  0  0  0  0  0  0  0  0
  -32.2912   63.8912   61.5498 O   0  0  0  0  0  0  0  0  0  0  0  0
  -32.2134   61.5017   61.9480 O   0  0  0  0  0  0  0  0  0  0  0  0
  -32.6697   62.8093   62.4990 S   0  0  0  0  0  0  0  0  0  0  0  0
  -32.2579   63.8864   64.1739 H   0  0  0  0  0  0  0  0  0  0  0  0
  -32.4563   60.7901   62.5609 H   0  0  0  0  0  0  0  0  0  0  0  0
  2  1  1  0  0  0
  2  4  1  0  0  0
  2  5  1  0  0  0
 41 42  1  0  0  0
 41  1  1  0  0  0
 42 46  1  0  0  0
  1 24  1  0  0  0
 23 24  1  0  0  0
 23 25  1  0  0  0
 24 26  1  0  0  0
  3  4  2  0  0  0
 26 27  2  0  0  0
 27 28  1  0  0  0
 43 47  1  0  0  0
 43 51  1  0  0  0
 28 29  1  0  0  0
 56 48  1  0  0  0
 56 60  1  0  0  0
 29 30  1  0  0  0
 57 60  1  0  0  0
 57 61  1  0  0  0
 30 31  1  0  0  0
 44 49  1  0  0  0
 44 52  1  0  0  0
 31 32  1  0  0  0
 45 46  1  0  0  0
 45 50  1  0  0  0
 32 33  1  0  0  0
 53 54  1  0  0  0
 53 55  1  0  0  0
 33 34  1  0  0  0
 34 35  1  0  0  0
 35 36  1  0  0  0
 58 60  1  0  0  0
 36 37  1  0  0  0
 59 60  1  0  0  0
 59 62  1  0  0  0
 37 38  1  0  0  0
 38 39  1  0  0  0
 39 40  1  0  0  0
  4  6  1  0  0  0
  6  7  1  0  0  0
  7  8  1  0  0  0
  8  9  1  0  0  0
  9 10  1  0  0  0
 10 11  1  0  0  0
 11 12  1  0  0  0
 12 13  1  0  0  0
 13 14  1  0  0  0
 14 15  1  0  0  0
 15 16  1  0  0  0
 16 17  1  0  0  0
 17 18  1  0  0  0
 18 19  1  0  0  0
 19 20  1  0  0  0
 20 21  1  0  0  0
 21 22  1  0  0  0
 46 47  1  0  0  0
 47 48  1  0  0  0
 48 49  1  0  0  0
 49 50  1  0  0  0
 50 54  1  0  0  0
M  CHG 1  58  -1
M  END
> <minimizedAffinity>
-10.31235

> <CNNscore>
0.2956788242

> <CNNaffinity>
7.0938773155

> <CNN_VS>
2.0975093842

> <CNNaffinity_variance>
1.4150009155

$$$$
/media/chris/experiments/cd1a-new-docking/inputs/ligands/1onq_ligand.pdb


 62 62  0  0  0  0  0  0  0  0999 V2000
  -38.8580   59.5168   63.6351 C   0  0  0  0  0  0  0  0  0  0  0  0
  -39.7615   59.3932   64.7618 N   0  0  0  0  0  0  0  0  0  0  0  0
  -41.7153   60.1460   63.8882 O   0  0  0  0  0  0  0  0  0  0  0  0
  -41.0649   59.6999   64.8133 C   0  0  0  0  0  0  0  0  0  0  0  0
  -39.3687   59.0400   65.5926 H   0  0  0  0  0  0  0  0  0  0  0  0
  -41.7277   59.4474   66.1349 C   0  0  0  0  0  0  0  0  0  0  0  0
  -42.1496   57.9780   66.1343 C   0  0  0  0  0  0  0  0  0  0  0  0
  -43.6190   57.8574   65.7376 C   0  0  0  0  0  0  0  0  0  0  0  0
  -44.5044   59.0218   66.1102 C   0  0  0  0  0  0  0  0  0  0  0  0
  -45.8472   58.4545   66.5588 C   0  0  0  0  0  0  0  0  0  0  0  0
  -47.0201   58.9668   65.7120 C   0  0  0  0  0  0  0  0  0  0  0  0
  -47.9576   57.8602   65.1953 C   0  0  0  0  0  0  0  0  0  0  0  0
  -49.4161   58.0381   65.6717 C   0  0  0  0  0  0  0  0  0  0  0  0
  -50.3406   58.3242   64.4850 C   0  0  0  0  0  0  0  0  0  0  0  0
  -49.6674   58.2837   63.1184 C   0  0  0  0  0  0  0  0  0  0  0  0
  -50.6290   58.6282   61.9907 C   0  0  0  0  0  0  0  0  0  0  0  0
  -51.2113   57.4416   61.2194 C   0  0  0  0  0  0  0  0  0  0  0  0
  -50.0621   56.6973   60.5529 C   0  0  0  0  0  0  0  0  0  0  0  0
  -49.5328   57.2135   59.2231 C   0  0  0  0  0  0  0  0  0  0  0  0
  -48.1466   56.6245   58.9171 C   0  0  0  0  0  0  0  0  0  0  0  0
  -46.9854   57.6286   59.0373 C   0  0  0  0  0  0  0  0  0  0  0  0
  -46.1912   57.7913   57.7434 C   0  0  0  0  0  0  0  0  0  0  0  0
  -37.9284   58.1594   65.2750 O   0  0  0  0  0  0  0  0  0  0  0  0
  -37.8678   58.3911   63.8799 C   0  0  0  0  0  0  0  0  0  0  0  0
  -38.8253   57.8812   65.5179 H   0  0  0  0  0  0  0  0  0  0  0  0
  -36.4741   58.8348   63.4290 C   0  0  0  0  0  0  0  0  0  0  0  0
  -35.4069   58.8370   64.2457 C   0  0  0  0  0  0  0  0  0  0  0  0
  -34.0480   59.2958   63.7198 C   0  0  0  0  0  0  0  0  0  0  0  0
  -33.0722   58.1455   63.4320 C   0  0  0  0  0  0  0  0  0  0  0  0
  -32.5139   58.0882   61.9981 C   0  0  0  0  0  0  0  0  0  0  0  0
  -33.5989   57.6064   61.0050 C   0  0  0  0  0  0  0  0  0  0  0  0
  -33.6712   56.0725   60.7969 C   0  0  0  0  0  0  0  0  0  0  0  0
  -33.9239   55.6432   59.3324 C   0  0  0  0  0  0  0  0  0  0  0  0
  -34.1453   56.8303   58.3703 C   0  0  0  0  0  0  0  0  0  0  0  0
  -35.5955   56.9772   57.8939 C   0  0  0  0  0  0  0  0  0  0  0  0
  -36.6681   56.4162   58.8251 C   0  0  0  0  0  0  0  0  0  0  0  0
  -37.3664   57.4836   59.6905 C   0  0  0  0  0  0  0  0  0  0  0  0
  -37.6613   58.8129   58.9790 C   0  0  0  0  0  0  0  0  0  0  0  0
  -38.2451   59.8402   59.9531 C   0  0  0  0  0  0  0  0  0  0  0  0
  -39.7427   60.0762   59.8683 C   0  0  0  0  0  0  0  0  0  0  0  0
  -38.2714   60.9279   63.4037 C   0  0  0  0  0  0  0  0  0  0  0  0
  -37.6752   61.5788   64.5544 O   0  0  0  0  0  0  0  0  0  0  0  0
  -36.6768   63.2297   66.6650 O   0  0  0  0  0  0  0  0  0  0  0  0
  -33.0851   62.8138   64.5850 O   0  0  0  0  0  0  0  0  0  0  0  0
  -35.7907   62.4298   63.2858 O   0  0  0  0  0  0  0  0  0  0  0  0
  -36.6926   62.6690   64.3934 C   0  0  0  0  0  0  0  0  0  0  0  0
  -35.8042   62.9632   65.6106 C   0  0  0  0  0  0  0  0  0  0  0  0
  -34.8811   64.1871   65.4236 C   0  0  0  0  0  0  0  0  0  0  0  0
  -33.9886   63.8663   64.2566 C   0  0  0  0  0  0  0  0  0  0  0  0
  -34.8330   63.4971   63.0504 C   0  0  0  0  0  0  0  0  0  0  0  0
  -37.2654   62.4703   66.7973 H   0  0  0  0  0  0  0  0  0  0  0  0
  -32.5566   63.0703   65.3570 H   0  0  0  0  0  0  0  0  0  0  0  0
  -32.8129   64.2339   62.0067 O   0  0  0  0  0  0  0  0  0  0  0  0
  -33.7564   63.2049   62.0076 C   0  0  0  0  0  0  0  0  0  0  0  0
  -32.1301   64.0460   61.3436 H   0  0  0  0  0  0  0  0  0  0  0  0
  -34.0019   64.4934   66.5295 O   0  0  0  0  0  0  0  0  0  0  0  0
  -32.5580   66.2593   67.7599 O   0  0  0  0  0  0  0  0  0  0  0  0
  -33.2005   66.6368   65.4504 O   0  0  0  0  0  0  0  0  0  0  0  0
  -31.4691   65.0278   65.9867 O   0  0  0  0  0  0  0  0  0  0  0  0
  -32.7678   65.6069   66.4335 S   0  0  0  0  0  0  0  0  0  0  0  0
  -33.3942   66.6428   68.0674 H   0  0  0  0  0  0  0  0  0  0  0  0
  -31.1794   64.3548   66.6224 H   0  0  0  0  0  0  0  0  0  0  0  0
  2  1  1  0  0  0
  2  4  1  0  0  0
  2  5  1  0  0  0
 41 42  1  0  0  0
 41  1  1  0  0  0
 42 46  1  0  0  0
  1 24  1  0  0  0
 23 24  1  0  0  0
 23 25  1  0  0  0
 24 26  1  0  0  0
  3  4  2  0  0  0
 26 27  2  0  0  0
 27 28  1  0  0  0
 43 47  1  0  0  0
 43 51  1  0  0  0
 28 29  1  0  0  0
 56 48  1  0  0  0
 56 60  1  0  0  0
 29 30  1  0  0  0
 57 60  1  0  0  0
 57 61  1  0  0  0
 30 31  1  0  0  0
 44 49  1  0  0  0
 44 52  1  0  0  0
 31 32  1  0  0  0
 45 46  1  0  0  0
 45 50  1  0  0  0
 32 33  1  0  0  0
 53 54  1  0  0  0
 53 55  1  0  0  0
 33 34  1  0  0  0
 34 35  1  0  0  0
 35 36  1  0  0  0
 58 60  1  0  0  0
 36 37  1  0  0  0
 59 60  1  0  0  0
 59 62  1  0  0  0
 37 38  1  0  0  0
 38 39  1  0  0  0
 39 40  1  0  0  0
  4  6  1  0  0  0
  6  7  1  0  0  0
  7  8  1  0  0  0
  8  9  1  0  0  0
  9 10  1  0  0  0
 10 11  1  0  0  0
 11 12  1  0  0  0
 12 13  1  0  0  0
 13 14  1  0  0  0
 14 15  1  0  0  0
 15 16  1  0  0  0
 16 17  1  0  0  0
 17 18  1  0  0  0
 18 19  1  0  0  0
 19 20  1  0  0  0
 20 21  1  0  0  0
 21 22  1  0  0  0
 46 47  1  0  0  0
 47 48  1  0  0  0
 48 49  1  0  0  0
 49 50  1  0  0  0
 50 54  1  0  0  0
M  CHG 1  58  -1
M  END
> <minimizedAffinity>
-9.77784

> <CNNscore>
0.2938275337

> <CNNaffinity>
7.0736150742

> <CNN_VS>
2.0784227848

> <CNNaffinity_variance>
1.0684440136

$$$$
