/media/chris/experiments/cd1a-new-docking/inputs/ligands/1onq_ligand.pdb


 62 62  0  0  0  0  0  0  0  0999 V2000
  -41.6123   60.0052   65.3922 C   0  0  0  0  0  0  0  0  0  0  0  0
  -41.6504   58.6899   64.7843 N   0  0  0  0  0  0  0  0  0  0  0  0
  -42.5424   57.4256   66.4437 O   0  0  0  0  0  0  0  0  0  0  0  0
  -42.0903   57.5437   65.3215 C   0  0  0  0  0  0  0  0  0  0  0  0
  -41.3108   58.6313   63.8621 H   0  0  0  0  0  0  0  0  0  0  0  0
  -42.0039   56.3447   64.4245 C   0  0  0  0  0  0  0  0  0  0  0  0
  -41.4974   56.8498   63.0735 C   0  0  0  0  0  0  0  0  0  0  0  0
  -41.2880   55.6741   62.1222 C   0  0  0  0  0  0  0  0  0  0  0  0
  -41.1660   56.0191   60.6578 C   0  0  0  0  0  0  0  0  0  0  0  0
  -41.7212   57.4269   60.4682 C   0  0  0  0  0  0  0  0  0  0  0  0
  -40.9569   58.2275   59.4054 C   0  0  0  0  0  0  0  0  0  0  0  0
  -40.4850   59.6150   59.8772 C   0  0  0  0  0  0  0  0  0  0  0  0
  -38.9494   59.7750   59.8302 C   0  0  0  0  0  0  0  0  0  0  0  0
  -38.2604   58.4144   59.9682 C   0  0  0  0  0  0  0  0  0  0  0  0
  -37.2316   58.3233   61.0886 C   0  0  0  0  0  0  0  0  0  0  0  0
  -37.7202   57.4753   62.2536 C   0  0  0  0  0  0  0  0  0  0  0  0
  -38.3003   58.2417   63.4446 C   0  0  0  0  0  0  0  0  0  0  0  0
  -37.5212   57.8443   64.6911 C   0  0  0  0  0  0  0  0  0  0  0  0
  -36.0261   57.5909   64.5667 C   0  0  0  0  0  0  0  0  0  0  0  0
  -35.2508   58.9139   64.4651 C   0  0  0  0  0  0  0  0  0  0  0  0
  -33.7724   58.8218   64.8858 C   0  0  0  0  0  0  0  0  0  0  0  0
  -32.8140   58.7044   63.7029 C   0  0  0  0  0  0  0  0  0  0  0  0
  -42.4862   62.1254   65.0218 O   0  0  0  0  0  0  0  0  0  0  0  0
  -42.4870   60.8260   64.4601 C   0  0  0  0  0  0  0  0  0  0  0  0
  -41.5806   62.4730   65.0312 H   0  0  0  0  0  0  0  0  0  0  0  0
  -43.8907   60.2178   64.4156 C   0  0  0  0  0  0  0  0  0  0  0  0
  -44.9914   60.8888   64.7958 C   0  0  0  0  0  0  0  0  0  0  0  0
  -46.3583   60.2108   64.7225 C   0  0  0  0  0  0  0  0  0  0  0  0
  -46.9320   59.8188   66.0919 C   0  0  0  0  0  0  0  0  0  0  0  0
  -48.4442   60.0473   66.2712 C   0  0  0  0  0  0  0  0  0  0  0  0
  -49.2397   59.3879   65.1190 C   0  0  0  0  0  0  0  0  0  0  0  0
  -50.7144   59.8456   64.9863 C   0  0  0  0  0  0  0  0  0  0  0  0
  -51.1365   60.2121   63.5440 C   0  0  0  0  0  0  0  0  0  0  0  0
  -50.3010   59.5022   62.4567 C   0  0  0  0  0  0  0  0  0  0  0  0
  -50.9089   58.1789   61.9763 C   0  0  0  0  0  0  0  0  0  0  0  0
  -50.3191   57.5955   60.6940 C   0  0  0  0  0  0  0  0  0  0  0  0
  -49.8995   58.6574   59.6585 C   0  0  0  0  0  0  0  0  0  0  0  0
  -48.6384   58.3199   58.8488 C   0  0  0  0  0  0  0  0  0  0  0  0
  -47.9118   57.1092   59.4418 C   0  0  0  0  0  0  0  0  0  0  0  0
  -47.0993   56.2684   58.4731 C   0  0  0  0  0  0  0  0  0  0  0  0
  -40.2011   60.5574   65.6963 C   0  0  0  0  0  0  0  0  0  0  0  0
  -39.5097   61.2082   64.6001 O   0  0  0  0  0  0  0  0  0  0  0  0
  -37.7819   61.5618   62.3490 O   0  0  0  0  0  0  0  0  0  0  0  0
  -36.1387   64.5566   64.7428 O   0  0  0  0  0  0  0  0  0  0  0  0
  -37.7128   62.2309   65.8692 O   0  0  0  0  0  0  0  0  0  0  0  0
  -38.0634   61.4968   64.6710 C   0  0  0  0  0  0  0  0  0  0  0  0
  -37.4746   62.2916   63.4966 C   0  0  0  0  0  0  0  0  0  0  0  0
  -35.9410   62.4598   63.5683 C   0  0  0  0  0  0  0  0  0  0  0  0
  -35.6599   63.2172   64.8367 C   0  0  0  0  0  0  0  0  0  0  0  0
  -36.2919   62.4985   66.0149 C   0  0  0  0  0  0  0  0  0  0  0  0
  -38.7430   61.4461   62.2873 H   0  0  0  0  0  0  0  0  0  0  0  0
  -35.7227   64.9963   63.9848 H   0  0  0  0  0  0  0  0  0  0  0  0
  -36.2424   62.8147   68.3837 O   0  0  0  0  0  0  0  0  0  0  0  0
  -35.9048   63.4182   67.1710 C   0  0  0  0  0  0  0  0  0  0  0  0
  -35.9956   63.4008   69.1162 H   0  0  0  0  0  0  0  0  0  0  0  0
  -35.3362   63.2248   62.5011 O   0  0  0  0  0  0  0  0  0  0  0  0
  -32.9574   62.3236   62.9973 O   0  0  0  0  0  0  0  0  0  0  0  0
  -33.3771   64.7117   63.0943 O   0  0  0  0  0  0  0  0  0  0  0  0
  -33.2226   63.5871   60.9529 O   0  0  0  0  0  0  0  0  0  0  0  0
  -33.6932   63.4560   62.3611 S   0  0  0  0  0  0  0  0  0  0  0  0
  -33.2510   62.2228   63.9162 H   0  0  0  0  0  0  0  0  0  0  0  0
  -33.4250   62.7722   60.4673 H   0  0  0  0  0  0  0  0  0  0  0  0
  2  1  1  0  0  0
  2  4  1  0  0  0
  2  5  1  0  0  0
 41 42  1  0  0  0
 41  1  1  0  0  0
 42 46  1  0  0  0
  1 24  1  0  0  0
 23 24  1  0  0  0
 23 25  1  0  0  0
 24 26  1  0  0  0
  3  4  2  0  0  0
 26 27  2  0  0  0
 27 28  1  0  0  0
 43 47  1  0  0  0
 43 51  1  0  0  0
 28 29  1  0  0  0
 56 48  1  0  0  0
 56 60  1  0  0  0
 29 30  1  0  0  0
 57 60  1  0  0  0
 57 61  1  0  0  0
 30 31  1  0  0  0
 44 49  1  0  0  0
 44 52  1  0  0  0
 31 32  1  0  0  0
 45 46  1  0  0  0
 45 50  1  0  0  0
 32 33  1  0  0  0
 53 54  1  0  0  0
 53 55  1  0  0  0
 33 34  1  0  0  0
 34 35  1  0  0  0
 35 36  1  0  0  0
 58 60  1  0  0  0
 36 37  1  0  0  0
 59 60  1  0  0  0
 59 62  1  0  0  0
 37 38  1  0  0  0
 38 39  1  0  0  0
 39 40  1  0  0  0
  4  6  1  0  0  0
  6  7  1  0  0  0
  7  8  1  0  0  0
  8  9  1  0  0  0
  9 10  1  0  0  0
 10 11  1  0  0  0
 11 12  1  0  0  0
 12 13  1  0  0  0
 13 14  1  0  0  0
 14 15  1  0  0  0
 15 16  1  0  0  0
 16 17  1  0  0  0
 17 18  1  0  0  0
 18 19  1  0  0  0
 19 20  1  0  0  0
 20 21  1  0  0  0
 21 22  1  0  0  0
 46 47  1  0  0  0
 47 48  1  0  0  0
 48 49  1  0  0  0
 49 50  1  0  0  0
 50 54  1  0  0  0
M  CHG 1  58  -1
M  END
> <minimizedAffinity>
-9.97621

> <CNNscore>
0.2879954875

> <CNNaffinity>
7.1891188622

> <CNN_VS>
2.0704338551

> <CNNaffinity_variance>
2.1508204937

$$$$
/media/chris/experiments/cd1a-new-docking/inputs/ligands/1onq_ligand.pdb


 62 62  0  0  0  0  0  0  0  0999 V2000
  -41.6931   60.6032   64.2694 C   0  0  0  0  0  0  0  0  0  0  0  0
  -42.3733   59.3321   64.4196 N   0  0  0  0  0  0  0  0  0  0  0  0
  -41.9007   58.7920   66.5719 O   0  0  0  0  0  0  0  0  0  0  0  0
  -42.4304   58.5486   65.5051 C   0  0  0  0  0  0  0  0  0  0  0  0
  -42.8531   59.0035   63.6252 H   0  0  0  0  0  0  0  0  0  0  0  0
  -43.2289   57.2895   65.3415 C   0  0  0  0  0  0  0  0  0  0  0  0
  -44.6940   57.7150   65.2450 C   0  0  0  0  0  0  0  0  0  0  0  0
  -45.2571   57.9670   66.6416 C   0  0  0  0  0  0  0  0  0  0  0  0
  -46.3462   59.0075   66.7401 C   0  0  0  0  0  0  0  0  0  0  0  0
  -46.4283   59.7176   65.3929 C   0  0  0  0  0  0  0  0  0  0  0  0
  -47.8359   59.6725   64.7836 C   0  0  0  0  0  0  0  0  0  0  0  0
  -48.6423   58.4125   65.1476 C   0  0  0  0  0  0  0  0  0  0  0  0
  -50.1637   58.5968   64.9550 C   0  0  0  0  0  0  0  0  0  0  0  0
  -50.4664   59.9549   64.3155 C   0  0  0  0  0  0  0  0  0  0  0  0
  -51.1779   59.8897   62.9695 C   0  0  0  0  0  0  0  0  0  0  0  0
  -50.7773   58.6631   62.1635 C   0  0  0  0  0  0  0  0  0  0  0  0
  -49.4042   58.7215   61.4902 C   0  0  0  0  0  0  0  0  0  0  0  0
  -49.4233   57.7865   60.2885 C   0  0  0  0  0  0  0  0  0  0  0  0
  -48.1121   57.4851   59.5780 C   0  0  0  0  0  0  0  0  0  0  0  0
  -47.9240   58.4020   58.3590 C   0  0  0  0  0  0  0  0  0  0  0  0
  -47.4179   57.6859   57.0933 C   0  0  0  0  0  0  0  0  0  0  0  0
  -47.2606   56.1780   57.2745 C   0  0  0  0  0  0  0  0  0  0  0  0
  -43.3390   61.4532   62.8678 O   0  0  0  0  0  0  0  0  0  0  0  0
  -42.0061   60.9782   62.8310 C   0  0  0  0  0  0  0  0  0  0  0  0
  -43.3881   62.2346   63.4406 H   0  0  0  0  0  0  0  0  0  0  0  0
  -41.8589   59.7416   61.9412 C   0  0  0  0  0  0  0  0  0  0  0  0
  -41.1519   59.7422   60.7983 C   0  0  0  0  0  0  0  0  0  0  0  0
  -41.0535   58.4661   59.9645 C   0  0  0  0  0  0  0  0  0  0  0  0
  -39.6200   58.1030   59.5506 C   0  0  0  0  0  0  0  0  0  0  0  0
  -38.5448   59.1557   59.8781 C   0  0  0  0  0  0  0  0  0  0  0  0
  -37.5911   58.6413   60.9831 C   0  0  0  0  0  0  0  0  0  0  0  0
  -38.0563   57.3559   61.7131 C   0  0  0  0  0  0  0  0  0  0  0  0
  -38.7982   57.6172   63.0450 C   0  0  0  0  0  0  0  0  0  0  0  0
  -37.8671   58.0625   64.1935 C   0  0  0  0  0  0  0  0  0  0  0  0
  -36.3831   57.7803   63.9303 C   0  0  0  0  0  0  0  0  0  0  0  0
  -35.4008   58.8431   64.4184 C   0  0  0  0  0  0  0  0  0  0  0  0
  -33.9364   58.3648   64.4711 C   0  0  0  0  0  0  0  0  0  0  0  0
  -33.2318   58.2621   63.1098 C   0  0  0  0  0  0  0  0  0  0  0  0
  -32.0303   59.2091   63.0397 C   0  0  0  0  0  0  0  0  0  0  0  0
  -32.2721   60.5593   62.3887 C   0  0  0  0  0  0  0  0  0  0  0  0
  -40.2056   60.6159   64.6890 C   0  0  0  0  0  0  0  0  0  0  0  0
  -39.3363   61.5254   63.9677 O   0  0  0  0  0  0  0  0  0  0  0  0
  -37.2500   61.9748   62.0643 O   0  0  0  0  0  0  0  0  0  0  0  0
  -35.7123   64.3848   65.1019 O   0  0  0  0  0  0  0  0  0  0  0  0
  -37.6680   62.1348   65.6201 O   0  0  0  0  0  0  0  0  0  0  0  0
  -37.8976   61.6227   64.2850 C   0  0  0  0  0  0  0  0  0  0  0  0
  -37.0554   62.4950   63.3432 C   0  0  0  0  0  0  0  0  0  0  0  0
  -35.5430   62.4631   63.6548 C   0  0  0  0  0  0  0  0  0  0  0  0
  -35.3903   62.9970   65.0524 C   0  0  0  0  0  0  0  0  0  0  0  0
  -36.2681   62.2041   66.0038 C   0  0  0  0  0  0  0  0  0  0  0  0
  -38.1962   61.9869   61.8509 H   0  0  0  0  0  0  0  0  0  0  0  0
  -35.1407   64.8714   64.4875 H   0  0  0  0  0  0  0  0  0  0  0  0
  -34.6147   63.1898   67.4210 O   0  0  0  0  0  0  0  0  0  0  0  0
  -35.9774   62.9001   67.3317 C   0  0  0  0  0  0  0  0  0  0  0  0
  -34.4327   63.6316   68.2651 H   0  0  0  0  0  0  0  0  0  0  0  0
  -34.7048   63.2894   62.8154 O   0  0  0  0  0  0  0  0  0  0  0  0
  -35.6241   63.8645   60.4614 O   0  0  0  0  0  0  0  0  0  0  0  0
  -34.2288   65.4717   61.6271 O   0  0  0  0  0  0  0  0  0  0  0  0
  -36.5303   65.1349   62.3084 O   0  0  0  0  0  0  0  0  0  0  0  0
  -35.3059   64.4585   61.7935 S   0  0  0  0  0  0  0  0  0  0  0  0
  -34.8375   63.4191   60.1098 H   0  0  0  0  0  0  0  0  0  0  0  0
  -37.2381   64.4810   62.4200 H   0  0  0  0  0  0  0  0  0  0  0  0
  2  1  1  0  0  0
  2  4  1  0  0  0
  2  5  1  0  0  0
 41 42  1  0  0  0
 41  1  1  0  0  0
 42 46  1  0  0  0
  1 24  1  0  0  0
 23 24  1  0  0  0
 23 25  1  0  0  0
 24 26  1  0  0  0
  3  4  2  0  0  0
 26 27  2  0  0  0
 27 28  1  0  0  0
 43 47  1  0  0  0
 43 51  1  0  0  0
 28 29  1  0  0  0
 56 48  1  0  0  0
 56 60  1  0  0  0
 29 30  1  0  0  0
 57 60  1  0  0  0
 57 61  1  0  0  0
 30 31  1  0  0  0
 44 49  1  0  0  0
 44 52  1  0  0  0
 31 32  1  0  0  0
 45 46  1  0  0  0
 45 50  1  0  0  0
 32 33  1  0  0  0
 53 54  1  0  0  0
 53 55  1  0  0  0
 33 34  1  0  0  0
 34 35  1  0  0  0
 35 36  1  0  0  0
 58 60  1  0  0  0
 36 37  1  0  0  0
 59 60  1  0  0  0
 59 62  1  0  0  0
 37 38  1  0  0  0
 38 39  1  0  0  0
 39 40  1  0  0  0
  4  6  1  0  0  0
  6  7  1  0  0  0
  7  8  1  0  0  0
  8  9  1  0  0  0
  9 10  1  0  0  0
 10 11  1  0  0  0
 11 12  1  0  0  0
 12 13  1  0  0  0
 13 14  1  0  0  0
 14 15  1  0  0  0
 15 16  1  0  0  0
 16 17  1  0  0  0
 17 18  1  0  0  0
 18 19  1  0  0  0
 19 20  1  0  0  0
 20 21  1  0  0  0
 21 22  1  0  0  0
 46 47  1  0  0  0
 47 48  1  0  0  0
 48 49  1  0  0  0
 49 50  1  0  0  0
 50 54  1  0  0  0
M  CHG 1  58  -1
M  END
> <minimizedAffinity>
-9.53552

> <CNNscore>
0.2774093151

> <CNNaffinity>
7.2427458763

> <CNN_VS>
2.0092051029

> <CNNaffinity_variance>
1.3877052069

$$$$
/media/chris/experiments/cd1a-new-docking/inputs/ligands/1onq_ligand.pdb


 62 62  0  0  0  0  0  0  0  0999 V2000
  -40.7580   60.5267   63.9099 C   0  0  0  0  0  0  0  0  0  0  0  0
  -41.5901   59.3581   64.1177 N   0  0  0  0  0  0  0  0  0  0  0  0
  -41.7839   59.3091   66.3777 O   0  0  0  0  0  0  0  0  0  0  0  0
  -42.0270   58.8506   65.2784 C   0  0  0  0  0  0  0  0  0  0  0  0
  -41.8689   58.8775   63.3050 H   0  0  0  0  0  0  0  0  0  0  0  0
  -42.8854   57.6266   65.1563 C   0  0  0  0  0  0  0  0  0  0  0  0
  -44.3308   58.1175   65.0741 C   0  0  0  0  0  0  0  0  0  0  0  0
  -45.1365   57.5661   66.2479 C   0  0  0  0  0  0  0  0  0  0  0  0
  -46.6382   57.6400   66.1148 C   0  0  0  0  0  0  0  0  0  0  0  0
  -46.9559   58.6919   65.0572 C   0  0  0  0  0  0  0  0  0  0  0  0
  -47.6220   59.9425   65.6462 C   0  0  0  0  0  0  0  0  0  0  0  0
  -49.0328   59.7000   66.2130 C   0  0  0  0  0  0  0  0  0  0  0  0
  -49.9935   59.0674   65.1821 C   0  0  0  0  0  0  0  0  0  0  0  0
  -50.6497   60.1499   64.3204 C   0  0  0  0  0  0  0  0  0  0  0  0
  -51.1775   59.6703   62.9737 C   0  0  0  0  0  0  0  0  0  0  0  0
  -50.5649   58.3426   62.5532 C   0  0  0  0  0  0  0  0  0  0  0  0
  -50.5438   58.0597   61.0492 C   0  0  0  0  0  0  0  0  0  0  0  0
  -49.5920   56.8982   60.7970 C   0  0  0  0  0  0  0  0  0  0  0  0
  -48.7921   56.8786   59.5028 C   0  0  0  0  0  0  0  0  0  0  0  0
  -48.8238   58.2532   58.8162 C   0  0  0  0  0  0  0  0  0  0  0  0
  -47.6094   58.5454   57.9157 C   0  0  0  0  0  0  0  0  0  0  0  0
  -46.9674   57.2853   57.3398 C   0  0  0  0  0  0  0  0  0  0  0  0
  -42.5301   61.5834   62.8428 O   0  0  0  0  0  0  0  0  0  0  0  0
  -41.2484   61.0481   62.5701 C   0  0  0  0  0  0  0  0  0  0  0  0
  -42.4481   62.3099   63.4803 H   0  0  0  0  0  0  0  0  0  0  0  0
  -41.3071   59.8934   61.5673 C   0  0  0  0  0  0  0  0  0  0  0  0
  -40.9161   60.0150   60.2873 C   0  0  0  0  0  0  0  0  0  0  0  0
  -41.0068   58.8143   59.3473 C   0  0  0  0  0  0  0  0  0  0  0  0
  -39.7104   57.9962   59.2570 C   0  0  0  0  0  0  0  0  0  0  0  0
  -38.4064   58.8148   59.2271 C   0  0  0  0  0  0  0  0  0  0  0  0
  -37.6143   58.6344   60.5444 C   0  0  0  0  0  0  0  0  0  0  0  0
  -38.1332   57.5136   61.4805 C   0  0  0  0  0  0  0  0  0  0  0  0
  -37.5938   57.5970   62.9279 C   0  0  0  0  0  0  0  0  0  0  0  0
  -36.1112   58.0200   63.0110 C   0  0  0  0  0  0  0  0  0  0  0  0
  -35.5462   58.0146   64.4365 C   0  0  0  0  0  0  0  0  0  0  0  0
  -34.0580   58.3309   64.5701 C   0  0  0  0  0  0  0  0  0  0  0  0
  -33.5812   59.4886   63.6710 C   0  0  0  0  0  0  0  0  0  0  0  0
  -32.1990   59.2930   63.0297 C   0  0  0  0  0  0  0  0  0  0  0  0
  -31.5997   60.6336   62.5951 C   0  0  0  0  0  0  0  0  0  0  0  0
  -30.9492   60.6694   61.2237 C   0  0  0  0  0  0  0  0  0  0  0  0
  -39.2369   60.2956   64.0576 C   0  0  0  0  0  0  0  0  0  0  0  0
  -38.3848   60.9425   63.0785 O   0  0  0  0  0  0  0  0  0  0  0  0
  -36.7687   61.2243   65.4208 O   0  0  0  0  0  0  0  0  0  0  0  0
  -34.1729   63.1235   62.7649 O   0  0  0  0  0  0  0  0  0  0  0  0
  -37.1427   62.8552   62.2515 O   0  0  0  0  0  0  0  0  0  0  0  0
  -37.5871   62.1351   63.4269 C   0  0  0  0  0  0  0  0  0  0  0  0
  -36.3308   61.8841   64.2732 C   0  0  0  0  0  0  0  0  0  0  0  0
  -35.6048   63.1773   64.7045 C   0  0  0  0  0  0  0  0  0  0  0  0
  -35.1868   63.8679   63.4357 C   0  0  0  0  0  0  0  0  0  0  0  0
  -36.3944   64.0675   62.5378 C   0  0  0  0  0  0  0  0  0  0  0  0
  -37.2281   60.4079   65.1689 H   0  0  0  0  0  0  0  0  0  0  0  0
  -33.4123   63.0079   63.3557 H   0  0  0  0  0  0  0  0  0  0  0  0
  -35.5065   63.8153   60.3328 O   0  0  0  0  0  0  0  0  0  0  0  0
  -35.7611   64.7572   61.3313 C   0  0  0  0  0  0  0  0  0  0  0  0
  -35.1044   64.2557   59.5678 H   0  0  0  0  0  0  0  0  0  0  0  0
  -34.3984   62.9987   65.4809 O   0  0  0  0  0  0  0  0  0  0  0  0
  -35.1827   64.5838   67.3754 O   0  0  0  0  0  0  0  0  0  0  0  0
  -33.1550   65.0993   66.1459 O   0  0  0  0  0  0  0  0  0  0  0  0
  -33.1621   63.3242   67.7962 O   0  0  0  0  0  0  0  0  0  0  0  0
  -33.9652   64.0005   66.7382 S   0  0  0  0  0  0  0  0  0  0  0  0
  -35.7189   65.0291   66.7009 H   0  0  0  0  0  0  0  0  0  0  0  0
  -33.6832   62.6059   68.1879 H   0  0  0  0  0  0  0  0  0  0  0  0
  2  1  1  0  0  0
  2  4  1  0  0  0
  2  5  1  0  0  0
 41 42  1  0  0  0
 41  1  1  0  0  0
 42 46  1  0  0  0
  1 24  1  0  0  0
 23 24  1  0  0  0
 23 25  1  0  0  0
 24 26  1  0  0  0
  3  4  2  0  0  0
 26 27  2  0  0  0
 27 28  1  0  0  0
 43 47  1  0  0  0
 43 51  1  0  0  0
 28 29  1  0  0  0
 56 48  1  0  0  0
 56 60  1  0  0  0
 29 30  1  0  0  0
 57 60  1  0  0  0
 57 61  1  0  0  0
 30 31  1  0  0  0
 44 49  1  0  0  0
 44 52  1  0  0  0
 31 32  1  0  0  0
 45 46  1  0  0  0
 45 50  1  0  0  0
 32 33  1  0  0  0
 53 54  1  0  0  0
 53 55  1  0  0  0
 33 34  1  0  0  0
 34 35  1  0  0  0
 35 36  1  0  0  0
 58 60  1  0  0  0
 36 37  1  0  0  0
 59 60  1  0  0  0
 59 62  1  0  0  0
 37 38  1  0  0  0
 38 39  1  0  0  0
 39 40  1  0  0  0
  4  6  1  0  0  0
  6  7  1  0  0  0
  7  8  1  0  0  0
  8  9  1  0  0  0
  9 10  1  0  0  0
 10 11  1  0  0  0
 11 12  1  0  0  0
 12 13  1  0  0  0
 13 14  1  0  0  0
 14 15  1  0  0  0
 15 16  1  0  0  0
 16 17  1  0  0  0
 17 18  1  0  0  0
 18 19  1  0  0  0
 19 20  1  0  0  0
 20 21  1  0  0  0
 21 22  1  0  0  0
 46 47  1  0  0  0
 47 48  1  0  0  0
 48 49  1  0  0  0
 49 50  1  0  0  0
 50 54  1  0  0  0
M  CHG 1  58  -1
M  END
> <minimizedAffinity>
-9.79376

> <CNNscore>
0.2089704871

> <CNNaffinity>
7.0224046707

> <CNN_VS>
1.4674752951

> <CNNaffinity_variance>
0.9213654399

$$$$
/media/chris/experiments/cd1a-new-docking/inputs/ligands/1onq_ligand.pdb


 62 62  0  0  0  0  0  0  0  0999 V2000
  -41.0085   60.4554   63.3119 C   0  0  0  0  0  0  0  0  0  0  0  0
  -40.7824   60.2603   61.8935 N   0  0  0  0  0  0  0  0  0  0  0  0
  -42.1036   61.8612   60.9774 O   0  0  0  0  0  0  0  0  0  0  0  0
  -41.3169   60.9406   60.8702 C   0  0  0  0  0  0  0  0  0  0  0  0
  -40.1586   59.5380   61.6519 H   0  0  0  0  0  0  0  0  0  0  0  0
  -40.8714   60.4979   59.5081 C   0  0  0  0  0  0  0  0  0  0  0  0
  -39.9724   59.2799   59.7209 C   0  0  0  0  0  0  0  0  0  0  0  0
  -40.6976   58.0122   59.2758 C   0  0  0  0  0  0  0  0  0  0  0  0
  -41.5954   57.3662   60.3030 C   0  0  0  0  0  0  0  0  0  0  0  0
  -40.9361   56.0607   60.7354 C   0  0  0  0  0  0  0  0  0  0  0  0
  -41.3452   55.6302   62.1503 C   0  0  0  0  0  0  0  0  0  0  0  0
  -41.8848   56.7742   63.0281 C   0  0  0  0  0  0  0  0  0  0  0  0
  -41.3923   56.6931   64.4898 C   0  0  0  0  0  0  0  0  0  0  0  0
  -40.3899   57.8126   64.7847 C   0  0  0  0  0  0  0  0  0  0  0  0
  -39.0149   57.6297   64.1538 C   0  0  0  0  0  0  0  0  0  0  0  0
  -37.8992   58.1755   65.0326 C   0  0  0  0  0  0  0  0  0  0  0  0
  -36.4752   57.7883   64.6270 C   0  0  0  0  0  0  0  0  0  0  0  0
  -36.1530   58.4756   63.3069 C   0  0  0  0  0  0  0  0  0  0  0  0
  -34.7232   58.4264   62.7890 C   0  0  0  0  0  0  0  0  0  0  0  0
  -33.7850   59.2498   63.6855 C   0  0  0  0  0  0  0  0  0  0  0  0
  -32.2996   59.1851   63.2853 C   0  0  0  0  0  0  0  0  0  0  0  0
  -31.9788   59.9823   62.0232 C   0  0  0  0  0  0  0  0  0  0  0  0
  -42.3137   62.2118   64.0913 O   0  0  0  0  0  0  0  0  0  0  0  0
  -42.4215   61.0118   63.3483 C   0  0  0  0  0  0  0  0  0  0  0  0
  -41.7193   62.8248   63.6309 H   0  0  0  0  0  0  0  0  0  0  0  0
  -43.3486   59.9976   64.0224 C   0  0  0  0  0  0  0  0  0  0  0  0
  -44.3268   60.3524   64.8728 C   0  0  0  0  0  0  0  0  0  0  0  0
  -45.2102   59.2791   65.5061 C   0  0  0  0  0  0  0  0  0  0  0  0
  -46.2336   59.8291   66.5101 C   0  0  0  0  0  0  0  0  0  0  0  0
  -47.7126   59.6021   66.1463 C   0  0  0  0  0  0  0  0  0  0  0  0
  -47.8989   58.2449   65.4262 C   0  0  0  0  0  0  0  0  0  0  0  0
  -48.8743   58.2632   64.2220 C   0  0  0  0  0  0  0  0  0  0  0  0
  -50.2834   58.8068   64.5564 C   0  0  0  0  0  0  0  0  0  0  0  0
  -51.0173   59.4105   63.3395 C   0  0  0  0  0  0  0  0  0  0  0  0
  -50.8793   58.5777   62.0593 C   0  0  0  0  0  0  0  0  0  0  0  0
  -50.0717   59.2127   60.9291 C   0  0  0  0  0  0  0  0  0  0  0  0
  -48.9548   58.3076   60.3730 C   0  0  0  0  0  0  0  0  0  0  0  0
  -48.9981   58.0714   58.8557 C   0  0  0  0  0  0  0  0  0  0  0  0
  -47.6582   58.4276   58.2053 C   0  0  0  0  0  0  0  0  0  0  0  0
  -47.1062   57.4274   57.2051 C   0  0  0  0  0  0  0  0  0  0  0  0
  -39.9188   61.2611   64.0551 C   0  0  0  0  0  0  0  0  0  0  0  0
  -38.6001   61.2774   63.4518 O   0  0  0  0  0  0  0  0  0  0  0  0
  -36.8026   61.4823   65.6664 O   0  0  0  0  0  0  0  0  0  0  0  0
  -34.2213   62.9925   62.7586 O   0  0  0  0  0  0  0  0  0  0  0  0
  -37.2318   63.0154   62.4556 O   0  0  0  0  0  0  0  0  0  0  0  0
  -37.6630   62.3932   63.6903 C   0  0  0  0  0  0  0  0  0  0  0  0
  -36.3821   62.0464   64.4627 C   0  0  0  0  0  0  0  0  0  0  0  0
  -35.5001   63.2730   64.7838 C   0  0  0  0  0  0  0  0  0  0  0  0
  -35.1047   63.8649   63.4592 C   0  0  0  0  0  0  0  0  0  0  0  0
  -36.3461   64.1535   62.6345 C   0  0  0  0  0  0  0  0  0  0  0  0
  -37.3590   60.7089   65.4840 H   0  0  0  0  0  0  0  0  0  0  0  0
  -33.4366   62.8219   63.3027 H   0  0  0  0  0  0  0  0  0  0  0  0
  -35.5432   63.6992   60.4293 O   0  0  0  0  0  0  0  0  0  0  0  0
  -35.7328   64.7244   61.3577 C   0  0  0  0  0  0  0  0  0  0  0  0
  -35.1536   64.0644   59.6195 H   0  0  0  0  0  0  0  0  0  0  0  0
  -34.2663   63.0006   65.4864 O   0  0  0  0  0  0  0  0  0  0  0  0
  -34.8129   64.7620   67.3073 O   0  0  0  0  0  0  0  0  0  0  0  0
  -32.6752   64.8478   66.1622 O   0  0  0  0  0  0  0  0  0  0  0  0
  -33.0876   63.1569   67.8489 O   0  0  0  0  0  0  0  0  0  0  0  0
  -33.7031   63.9403   66.7402 S   0  0  0  0  0  0  0  0  0  0  0  0
  -35.2264   65.2798   66.5990 H   0  0  0  0  0  0  0  0  0  0  0  0
  -33.7513   62.5621   68.2317 H   0  0  0  0  0  0  0  0  0  0  0  0
  2  1  1  0  0  0
  2  4  1  0  0  0
  2  5  1  0  0  0
 41 42  1  0  0  0
 41  1  1  0  0  0
 42 46  1  0  0  0
  1 24  1  0  0  0
 23 24  1  0  0  0
 23 25  1  0  0  0
 24 26  1  0  0  0
  3  4  2  0  0  0
 26 27  2  0  0  0
 27 28  1  0  0  0
 43 47  1  0  0  0
 43 51  1  0  0  0
 28 29  1  0  0  0
 56 48  1  0  0  0
 56 60  1  0  0  0
 29 30  1  0  0  0
 57 60  1  0  0  0
 57 61  1  0  0  0
 30 31  1  0  0  0
 44 49  1  0  0  0
 44 52  1  0  0  0
 31 32  1  0  0  0
 45 46  1  0  0  0
 45 50  1  0  0  0
 32 33  1  0  0  0
 53 54  1  0  0  0
 53 55  1  0  0  0
 33 34  1  0  0  0
 34 35  1  0  0  0
 35 36  1  0  0  0
 58 60  1  0  0  0
 36 37  1  0  0  0
 59 60  1  0  0  0
 59 62  1  0  0  0
 37 38  1  0  0  0
 38 39  1  0  0  0
 39 40  1  0  0  0
  4  6  1  0  0  0
  6  7  1  0  0  0
  7  8  1  0  0  0
  8  9  1  0  0  0
  9 10  1  0  0  0
 10 11  1  0  0  0
 11 12  1  0  0  0
 12 13  1  0  0  0
 13 14  1  0  0  0
 14 15  1  0  0  0
 15 16  1  0  0  0
 16 17  1  0  0  0
 17 18  1  0  0  0
 18 19  1  0  0  0
 19 20  1  0  0  0
 20 21  1  0  0  0
 21 22  1  0  0  0
 46 47  1  0  0  0
 47 48  1  0  0  0
 48 49  1  0  0  0
 49 50  1  0  0  0
 50 54  1  0  0  0
M  CHG 1  58  -1
M  END
> <minimizedAffinity>
-9.02178

> <CNNscore>
0.1838319898

> <CNNaffinity>
7.0847077370

> <CNN_VS>
1.3023959398

> <CNNaffinity_variance>
1.0074259043

$$$$
/media/chris/experiments/cd1a-new-docking/inputs/ligands/1onq_ligand.pdb


 62 62  0  0  0  0  0  0  0  0999 V2000
  -40.4484   59.7868   64.8094 C   0  0  0  0  0  0  0  0  0  0  0  0
  -41.1995   58.8233   64.0293 N   0  0  0  0  0  0  0  0  0  0  0  0
  -39.8147   57.0260   64.0335 O   0  0  0  0  0  0  0  0  0  0  0  0
  -40.8523   57.5695   63.7080 C   0  0  0  0  0  0  0  0  0  0  0  0
  -42.0734   59.1279   63.6937 H   0  0  0  0  0  0  0  0  0  0  0  0
  -41.8601   56.8186   62.8893 C   0  0  0  0  0  0  0  0  0  0  0  0
  -41.0655   55.9424   61.9209 C   0  0  0  0  0  0  0  0  0  0  0  0
  -40.9802   56.6193   60.5550 C   0  0  0  0  0  0  0  0  0  0  0  0
  -41.7913   57.8813   60.3882 C   0  0  0  0  0  0  0  0  0  0  0  0
  -40.9243   58.8912   59.6436 C   0  0  0  0  0  0  0  0  0  0  0  0
  -39.7471   58.2350   58.9100 C   0  0  0  0  0  0  0  0  0  0  0  0
  -38.3935   58.9334   59.1349 C   0  0  0  0  0  0  0  0  0  0  0  0
  -38.1711   59.3527   60.6048 C   0  0  0  0  0  0  0  0  0  0  0  0
  -37.7110   58.1570   61.4436 C   0  0  0  0  0  0  0  0  0  0  0  0
  -36.4418   58.3883   62.2546 C   0  0  0  0  0  0  0  0  0  0  0  0
  -36.1185   57.2153   63.1681 C   0  0  0  0  0  0  0  0  0  0  0  0
  -35.6046   57.5739   64.5644 C   0  0  0  0  0  0  0  0  0  0  0  0
  -35.1133   59.0149   64.5350 C   0  0  0  0  0  0  0  0  0  0  0  0
  -33.7245   59.3230   65.0748 C   0  0  0  0  0  0  0  0  0  0  0  0
  -32.6428   58.6090   64.2489 C   0  0  0  0  0  0  0  0  0  0  0  0
  -32.5968   59.0197   62.7656 C   0  0  0  0  0  0  0  0  0  0  0  0
  -31.5286   60.0676   62.4618 C   0  0  0  0  0  0  0  0  0  0  0  0
  -41.2049   61.3947   66.3054 O   0  0  0  0  0  0  0  0  0  0  0  0
  -41.4498   60.9135   64.9969 C   0  0  0  0  0  0  0  0  0  0  0  0
  -40.2979   61.7342   66.3605 H   0  0  0  0  0  0  0  0  0  0  0  0
  -42.8688   60.3616   64.8415 C   0  0  0  0  0  0  0  0  0  0  0  0
  -43.9517   60.9727   65.3515 C   0  0  0  0  0  0  0  0  0  0  0  0
  -45.3357   60.3571   65.1541 C   0  0  0  0  0  0  0  0  0  0  0  0
  -45.9127   59.7062   66.4196 C   0  0  0  0  0  0  0  0  0  0  0  0
  -47.4464   59.5745   66.4613 C   0  0  0  0  0  0  0  0  0  0  0  0
  -48.0355   59.5596   65.0302 C   0  0  0  0  0  0  0  0  0  0  0  0
  -49.4473   58.9333   64.9022 C   0  0  0  0  0  0  0  0  0  0  0  0
  -50.5942   59.9681   64.8214 C   0  0  0  0  0  0  0  0  0  0  0  0
  -51.1715   60.1403   63.3997 C   0  0  0  0  0  0  0  0  0  0  0  0
  -50.3732   59.4062   62.3157 C   0  0  0  0  0  0  0  0  0  0  0  0
  -51.0024   58.1261   61.7696 C   0  0  0  0  0  0  0  0  0  0  0  0
  -50.3874   57.6439   60.4410 C   0  0  0  0  0  0  0  0  0  0  0  0
  -49.4690   58.6559   59.7393 C   0  0  0  0  0  0  0  0  0  0  0  0
  -48.1256   58.0179   59.3736 C   0  0  0  0  0  0  0  0  0  0  0  0
  -47.7260   58.0777   57.9100 C   0  0  0  0  0  0  0  0  0  0  0  0
  -39.0626   60.1683   64.2410 C   0  0  0  0  0  0  0  0  0  0  0  0
  -38.9920   61.3985   63.4762 O   0  0  0  0  0  0  0  0  0  0  0  0
  -37.4294   61.6423   65.8587 O   0  0  0  0  0  0  0  0  0  0  0  0
  -34.3254   62.2370   63.1365 O   0  0  0  0  0  0  0  0  0  0  0  0
  -37.2324   62.7110   62.4436 O   0  0  0  0  0  0  0  0  0  0  0  0
  -37.8970   62.3669   63.6835 C   0  0  0  0  0  0  0  0  0  0  0  0
  -36.7891   61.9363   64.6556 C   0  0  0  0  0  0  0  0  0  0  0  0
  -35.7363   63.0345   64.9221 C   0  0  0  0  0  0  0  0  0  0  0  0
  -35.1029   63.3412   63.5931 C   0  0  0  0  0  0  0  0  0  0  0  0
  -36.1773   63.7005   62.5827 C   0  0  0  0  0  0  0  0  0  0  0  0
  -38.0956   60.9530   65.7104 H   0  0  0  0  0  0  0  0  0  0  0  0
  -33.6465   62.0249   63.7960 H   0  0  0  0  0  0  0  0  0  0  0  0
  -34.1453   64.5867   61.6886 O   0  0  0  0  0  0  0  0  0  0  0  0
  -35.3397   63.9580   61.3320 C   0  0  0  0  0  0  0  0  0  0  0  0
  -33.6153   64.7492   60.8926 H   0  0  0  0  0  0  0  0  0  0  0  0
  -34.6537   62.6734   65.8094 O   0  0  0  0  0  0  0  0  0  0  0  0
  -33.2339   63.2766   67.8920 O   0  0  0  0  0  0  0  0  0  0  0  0
  -34.5125   65.0087   66.7723 O   0  0  0  0  0  0  0  0  0  0  0  0
  -32.4699   64.1651   65.7770 O   0  0  0  0  0  0  0  0  0  0  0  0
  -33.6797   63.7932   66.5643 S   0  0  0  0  0  0  0  0  0  0  0  0
  -34.0092   63.0289   68.4196 H   0  0  0  0  0  0  0  0  0  0  0  0
  -31.9210   63.3779   65.6366 H   0  0  0  0  0  0  0  0  0  0  0  0
  2  1  1  0  0  0
  2  4  1  0  0  0
  2  5  1  0  0  0
 41 42  1  0  0  0
 41  1  1  0  0  0
 42 46  1  0  0  0
  1 24  1  0  0  0
 23 24  1  0  0  0
 23 25  1  0  0  0
 24 26  1  0  0  0
  3  4  2  0  0  0
 26 27  2  0  0  0
 27 28  1  0  0  0
 43 47  1  0  0  0
 43 51  1  0  0  0
 28 29  1  0  0  0
 56 48  1  0  0  0
 56 60  1  0  0  0
 29 30  1  0  0  0
 57 60  1  0  0  0
 57 61  1  0  0  0
 30 31  1  0  0  0
 44 49  1  0  0  0
 44 52  1  0  0  0
 31 32  1  0  0  0
 45 46  1  0  0  0
 45 50  1  0  0  0
 32 33  1  0  0  0
 53 54  1  0  0  0
 53 55  1  0  0  0
 33 34  1  0  0  0
 34 35  1  0  0  0
 35 36  1  0  0  0
 58 60  1  0  0  0
 36 37  1  0  0  0
 59 60  1  0  0  0
 59 62  1  0  0  0
 37 38  1  0  0  0
 38 39  1  0  0  0
 39 40  1  0  0  0
  4  6  1  0  0  0
  6  7  1  0  0  0
  7  8  1  0  0  0
  8  9  1  0  0  0
  9 10  1  0  0  0
 10 11  1  0  0  0
 11 12  1  0  0  0
 12 13  1  0  0  0
 13 14  1  0  0  0
 14 15  1  0  0  0
 15 16  1  0  0  0
 16 17  1  0  0  0
 17 18  1  0  0  0
 18 19  1  0  0  0
 19 20  1  0  0  0
 20 21  1  0  0  0
 21 22  1  0  0  0
 46 47  1  0  0  0
 47 48  1  0  0  0
 48 49  1  0  0  0
 49 50  1  0  0  0
 50 54  1  0  0  0
M  CHG 1  58  -1
M  END
> <minimizedAffinity>
-9.08688

> <CNNscore>
0.1665885597

> <CNNaffinity>
6.9749765396

> <CNN_VS>
1.1619513035

> <CNNaffinity_variance>
1.3541496992

$$$$
/media/chris/experiments/cd1a-new-docking/inputs/ligands/1onq_ligand.pdb


 62 62  0  0  0  0  0  0  0  0999 V2000
  -41.3870   60.1315   63.7739 C   0  0  0  0  0  0  0  0  0  0  0  0
  -41.2061   60.0405   62.3386 N   0  0  0  0  0  0  0  0  0  0  0  0
  -41.7321   57.8716   61.9303 O   0  0  0  0  0  0  0  0  0  0  0  0
  -41.3812   58.9715   61.5497 C   0  0  0  0  0  0  0  0  0  0  0  0
  -40.9187   60.8669   61.8872 H   0  0  0  0  0  0  0  0  0  0  0  0
  -41.1187   59.2052   60.0916 C   0  0  0  0  0  0  0  0  0  0  0  0
  -39.7323   59.8424   59.9976 C   0  0  0  0  0  0  0  0  0  0  0  0
  -38.7794   58.9106   59.2526 C   0  0  0  0  0  0  0  0  0  0  0  0
  -37.4993   58.5584   59.9707 C   0  0  0  0  0  0  0  0  0  0  0  0
  -37.7285   58.7884   61.4608 C   0  0  0  0  0  0  0  0  0  0  0  0
  -37.6837   57.4885   62.2752 C   0  0  0  0  0  0  0  0  0  0  0  0
  -38.4658   57.5453   63.6002 C   0  0  0  0  0  0  0  0  0  0  0  0
  -37.6001   58.0184   64.7886 C   0  0  0  0  0  0  0  0  0  0  0  0
  -36.1199   57.7242   64.5292 C   0  0  0  0  0  0  0  0  0  0  0  0
  -35.2090   58.9458   64.5343 C   0  0  0  0  0  0  0  0  0  0  0  0
  -34.1205   58.8589   63.4749 C   0  0  0  0  0  0  0  0  0  0  0  0
  -32.6881   58.7154   63.9946 C   0  0  0  0  0  0  0  0  0  0  0  0
  -31.7335   58.9915   62.8408 C   0  0  0  0  0  0  0  0  0  0  0  0
  -31.0324   60.3405   62.7811 C   0  0  0  0  0  0  0  0  0  0  0  0
  -31.1354   60.9519   61.3749 C   0  0  0  0  0  0  0  0  0  0  0  0
  -31.4424   62.4607   61.3555 C   0  0  0  0  0  0  0  0  0  0  0  0
  -31.0640   63.1708   62.6531 C   0  0  0  0  0  0  0  0  0  0  0  0
  -42.3387   61.8192   65.0552 O   0  0  0  0  0  0  0  0  0  0  0  0
  -42.5943   61.0451   63.8980 C   0  0  0  0  0  0  0  0  0  0  0  0
  -41.5310   62.3402   64.9238 H   0  0  0  0  0  0  0  0  0  0  0  0
  -43.8599   60.1962   64.0400 C   0  0  0  0  0  0  0  0  0  0  0  0
  -44.9037   60.5607   64.8041 C   0  0  0  0  0  0  0  0  0  0  0  0
  -46.1319   59.6570   64.8946 C   0  0  0  0  0  0  0  0  0  0  0  0
  -47.4587   60.3828   64.6281 C   0  0  0  0  0  0  0  0  0  0  0  0
  -48.5156   59.5757   63.8516 C   0  0  0  0  0  0  0  0  0  0  0  0
  -49.4855   60.5198   63.1012 C   0  0  0  0  0  0  0  0  0  0  0  0
  -50.7757   59.8511   62.5627 C   0  0  0  0  0  0  0  0  0  0  0  0
  -50.8191   58.3162   62.7498 C   0  0  0  0  0  0  0  0  0  0  0  0
  -50.5740   57.5278   61.4450 C   0  0  0  0  0  0  0  0  0  0  0  0
  -50.4080   58.4178   60.2074 C   0  0  0  0  0  0  0  0  0  0  0  0
  -48.9739   58.7860   59.8327 C   0  0  0  0  0  0  0  0  0  0  0  0
  -48.1207   57.5883   59.3706 C   0  0  0  0  0  0  0  0  0  0  0  0
  -48.5115   56.9923   58.0097 C   0  0  0  0  0  0  0  0  0  0  0  0
  -47.3841   57.1681   56.9882 C   0  0  0  0  0  0  0  0  0  0  0  0
  -46.7102   58.5283   56.9541 C   0  0  0  0  0  0  0  0  0  0  0  0
  -40.1274   60.5213   64.5803 C   0  0  0  0  0  0  0  0  0  0  0  0
  -39.2986   61.5714   64.0203 O   0  0  0  0  0  0  0  0  0  0  0  0
  -37.2175   61.8955   62.0860 O   0  0  0  0  0  0  0  0  0  0  0  0
  -35.6077   64.3994   65.0080 O   0  0  0  0  0  0  0  0  0  0  0  0
  -37.6058   62.2152   65.6344 O   0  0  0  0  0  0  0  0  0  0  0  0
  -37.8559   61.6517   64.3239 C   0  0  0  0  0  0  0  0  0  0  0  0
  -37.0027   62.4654   63.3402 C   0  0  0  0  0  0  0  0  0  0  0  0
  -35.4890   62.4150   63.6431 C   0  0  0  0  0  0  0  0  0  0  0  0
  -35.3150   63.0043   65.0157 C   0  0  0  0  0  0  0  0  0  0  0  0
  -36.2020   62.2712   66.0057 C   0  0  0  0  0  0  0  0  0  0  0  0
  -38.1648   61.9185   61.8785 H   0  0  0  0  0  0  0  0  0  0  0  0
  -35.0307   64.8474   64.3698 H   0  0  0  0  0  0  0  0  0  0  0  0
  -34.5038   63.1213   67.4574 O   0  0  0  0  0  0  0  0  0  0  0  0
  -35.8871   63.0167   67.3008 C   0  0  0  0  0  0  0  0  0  0  0  0
  -34.3066   63.5950   68.2806 H   0  0  0  0  0  0  0  0  0  0  0  0
  -34.6401   63.1870   62.7638 O   0  0  0  0  0  0  0  0  0  0  0  0
  -35.6824   63.8456   60.4842 O   0  0  0  0  0  0  0  0  0  0  0  0
  -34.0608   65.3178   61.5290 O   0  0  0  0  0  0  0  0  0  0  0  0
  -36.3238   65.1917   62.3877 O   0  0  0  0  0  0  0  0  0  0  0  0
  -35.2095   64.4070   61.7841 S   0  0  0  0  0  0  0  0  0  0  0  0
  -34.9693   63.3306   60.0758 H   0  0  0  0  0  0  0  0  0  0  0  0
  -37.0773   64.6051   62.5574 H   0  0  0  0  0  0  0  0  0  0  0  0
  2  1  1  0  0  0
  2  4  1  0  0  0
  2  5  1  0  0  0
 41 42  1  0  0  0
 41  1  1  0  0  0
 42 46  1  0  0  0
  1 24  1  0  0  0
 23 24  1  0  0  0
 23 25  1  0  0  0
 24 26  1  0  0  0
  3  4  2  0  0  0
 26 27  2  0  0  0
 27 28  1  0  0  0
 43 47  1  0  0  0
 43 51  1  0  0  0
 28 29  1  0  0  0
 56 48  1  0  0  0
 56 60  1  0  0  0
 29 30  1  0  0  0
 57 60  1  0  0  0
 57 61  1  0  0  0
 30 31  1  0  0  0
 44 49  1  0  0  0
 44 52  1  0  0  0
 31 32  1  0  0  0
 45 46  1  0  0  0
 45 50  1  0  0  0
 32 33  1  0  0  0
 53 54  1  0  0  0
 53 55  1  0  0  0
 33 34  1  0  0  0
 34 35  1  0  0  0
 35 36  1  0  0  0
 58 60  1  0  0  0
 36 37  1  0  0  0
 59 60  1  0  0  0
 59 62  1  0  0  0
 37 38  1  0  0  0
 38 39  1  0  0  0
 39 40  1  0  0  0
  4  6  1  0  0  0
  6  7  1  0  0  0
  7  8  1  0  0  0
  8  9  1  0  0  0
  9 10  1  0  0  0
 10 11  1  0  0  0
 11 12  1  0  0  0
 12 13  1  0  0  0
 13 14  1  0  0  0
 14 15  1  0  0  0
 15 16  1  0  0  0
 16 17  1  0  0  0
 17 18  1  0  0  0
 18 19  1  0  0  0
 19 20  1  0  0  0
 20 21  1  0  0  0
 21 22  1  0  0  0
 46 47  1  0  0  0
 47 48  1  0  0  0
 48 49  1  0  0  0
 49 50  1  0  0  0
 50 54  1  0  0  0
M  CHG 1  58  -1
M  END
> <minimizedAffinity>
-9.22203

> <CNNscore>
0.1656586081

> <CNNaffinity>
6.8182129860

> <CNN_VS>
1.1294956207

> <CNNaffinity_variance>
1.1771051884

$$$$
/media/chris/experiments/cd1a-new-docking/inputs/ligands/1onq_ligand.pdb


 62 62  0  0  0  0  0  0  0  0999 V2000
  -42.8904   58.2374   63.5366 C   0  0  0  0  0  0  0  0  0  0  0  0
  -43.7453   57.7505   64.6011 N   0  0  0  0  0  0  0  0  0  0  0  0
  -43.4244   59.3090   66.2183 O   0  0  0  0  0  0  0  0  0  0  0  0
  -43.9470   58.2897   65.8111 C   0  0  0  0  0  0  0  0  0  0  0  0
  -44.2393   56.9202   64.4114 H   0  0  0  0  0  0  0  0  0  0  0  0
  -44.9067   57.5437   66.6898 C   0  0  0  0  0  0  0  0  0  0  0  0
  -46.2884   57.7025   66.0551 C   0  0  0  0  0  0  0  0  0  0  0  0
  -46.8639   59.0752   66.3950 C   0  0  0  0  0  0  0  0  0  0  0  0
  -46.9848   60.0469   65.2463 C   0  0  0  0  0  0  0  0  0  0  0  0
  -48.4130   60.5819   65.2436 C   0  0  0  0  0  0  0  0  0  0  0  0
  -49.3856   59.6796   66.0148 C   0  0  0  0  0  0  0  0  0  0  0  0
  -50.7171   59.4179   65.2874 C   0  0  0  0  0  0  0  0  0  0  0  0
  -51.0493   60.4991   64.2356 C   0  0  0  0  0  0  0  0  0  0  0  0
  -51.1465   59.8810   62.8380 C   0  0  0  0  0  0  0  0  0  0  0  0
  -50.5850   58.4696   62.7165 C   0  0  0  0  0  0  0  0  0  0  0  0
  -51.0596   57.7660   61.4537 C   0  0  0  0  0  0  0  0  0  0  0  0
  -50.3511   58.1643   60.1569 C   0  0  0  0  0  0  0  0  0  0  0  0
  -48.8962   57.7260   60.2557 C   0  0  0  0  0  0  0  0  0  0  0  0
  -48.5385   56.2955   59.8805 C   0  0  0  0  0  0  0  0  0  0  0  0
  -47.5012   56.2676   58.7468 C   0  0  0  0  0  0  0  0  0  0  0  0
  -47.2148   57.6396   58.1093 C   0  0  0  0  0  0  0  0  0  0  0  0
  -47.7106   57.7520   56.6695 C   0  0  0  0  0  0  0  0  0  0  0  0
  -42.2249   56.0993   64.1542 O   0  0  0  0  0  0  0  0  0  0  0  0
  -41.7001   57.2967   63.6116 C   0  0  0  0  0  0  0  0  0  0  0  0
  -42.9017   55.7433   63.5574 H   0  0  0  0  0  0  0  0  0  0  0  0
  -40.6229   57.9124   64.5078 C   0  0  0  0  0  0  0  0  0  0  0  0
  -39.3092   57.8254   64.2384 C   0  0  0  0  0  0  0  0  0  0  0  0
  -38.2951   58.4665   65.1840 C   0  0  0  0  0  0  0  0  0  0  0  0
  -36.8646   57.9345   65.0149 C   0  0  0  0  0  0  0  0  0  0  0  0
  -36.4233   57.6581   63.5657 C   0  0  0  0  0  0  0  0  0  0  0  0
  -34.9227   57.9862   63.3765 C   0  0  0  0  0  0  0  0  0  0  0  0
  -34.1817   58.4558   64.6540 C   0  0  0  0  0  0  0  0  0  0  0  0
  -32.6638   58.6813   64.4591 C   0  0  0  0  0  0  0  0  0  0  0  0
  -32.2421   58.7989   62.9784 C   0  0  0  0  0  0  0  0  0  0  0  0
  -31.1335   59.8292   62.7318 C   0  0  0  0  0  0  0  0  0  0  0  0
  -31.3647   60.8006   61.5762 C   0  0  0  0  0  0  0  0  0  0  0  0
  -31.2715   62.2856   61.9787 C   0  0  0  0  0  0  0  0  0  0  0  0
  -32.2006   62.7127   63.1252 C   0  0  0  0  0  0  0  0  0  0  0  0
  -32.9828   63.9769   62.7571 C   0  0  0  0  0  0  0  0  0  0  0  0
  -33.4687   64.0762   61.3220 C   0  0  0  0  0  0  0  0  0  0  0  0
  -42.5887   59.7530   63.5657 C   0  0  0  0  0  0  0  0  0  0  0  0
  -42.5290   60.4268   62.2829 O   0  0  0  0  0  0  0  0  0  0  0  0
  -40.1128   61.4900   63.3826 O   0  0  0  0  0  0  0  0  0  0  0  0
  -38.3653   58.4409   61.1357 O   0  0  0  0  0  0  0  0  0  0  0  0
  -41.0994   59.5792   60.5156 O   0  0  0  0  0  0  0  0  0  0  0  0
  -41.2529   60.5758   61.5552 C   0  0  0  0  0  0  0  0  0  0  0  0
  -39.9771   60.5037   62.4065 C   0  0  0  0  0  0  0  0  0  0  0  0
  -38.6836   60.7837   61.6105 C   0  0  0  0  0  0  0  0  0  0  0  0
  -38.6029   59.7193   60.5513 C   0  0  0  0  0  0  0  0  0  0  0  0
  -39.8818   59.7105   59.7335 C   0  0  0  0  0  0  0  0  0  0  0  0
  -40.9217   61.3300   63.8936 H   0  0  0  0  0  0  0  0  0  0  0  0
  -37.5450   58.4692   61.6527 H   0  0  0  0  0  0  0  0  0  0  0  0
  -38.2719   58.6440   58.3247 O   0  0  0  0  0  0  0  0  0  0  0  0
  -39.6006   58.5784   58.7479 C   0  0  0  0  0  0  0  0  0  0  0  0
  -38.0959   57.9241   57.6989 H   0  0  0  0  0  0  0  0  0  0  0  0
  -37.4486   60.7014   62.3576 O   0  0  0  0  0  0  0  0  0  0  0  0
  -36.7498   63.1964   62.2999 O   0  0  0  0  0  0  0  0  0  0  0  0
  -35.3996   61.6034   63.5360 O   0  0  0  0  0  0  0  0  0  0  0  0
  -37.5276   62.3476   64.4262 O   0  0  0  0  0  0  0  0  0  0  0  0
  -36.7914   61.9913   63.1800 S   0  0  0  0  0  0  0  0  0  0  0  0
  -36.2736   62.9834   61.4823 H   0  0  0  0  0  0  0  0  0  0  0  0
  -38.4366   62.6019   64.2031 H   0  0  0  0  0  0  0  0  0  0  0  0
  2  1  1  0  0  0
  2  4  1  0  0  0
  2  5  1  0  0  0
 41 42  1  0  0  0
 41  1  1  0  0  0
 42 46  1  0  0  0
  1 24  1  0  0  0
 23 24  1  0  0  0
 23 25  1  0  0  0
 24 26  1  0  0  0
  3  4  2  0  0  0
 26 27  2  0  0  0
 27 28  1  0  0  0
 43 47  1  0  0  0
 43 51  1  0  0  0
 28 29  1  0  0  0
 56 48  1  0  0  0
 56 60  1  0  0  0
 29 30  1  0  0  0
 57 60  1  0  0  0
 57 61  1  0  0  0
 30 31  1  0  0  0
 44 49  1  0  0  0
 44 52  1  0  0  0
 31 32  1  0  0  0
 45 46  1  0  0  0
 45 50  1  0  0  0
 32 33  1  0  0  0
 53 54  1  0  0  0
 53 55  1  0  0  0
 33 34  1  0  0  0
 34 35  1  0  0  0
 35 36  1  0  0  0
 58 60  1  0  0  0
 36 37  1  0  0  0
 59 60  1  0  0  0
 59 62  1  0  0  0
 37 38  1  0  0  0
 38 39  1  0  0  0
 39 40  1  0  0  0
  4  6  1  0  0  0
  6  7  1  0  0  0
  7  8  1  0  0  0
  8  9  1  0  0  0
  9 10  1  0  0  0
 10 11  1  0  0  0
 11 12  1  0  0  0
 12 13  1  0  0  0
 13 14  1  0  0  0
 14 15  1  0  0  0
 15 16  1  0  0  0
 16 17  1  0  0  0
 17 18  1  0  0  0
 18 19  1  0  0  0
 19 20  1  0  0  0
 20 21  1  0  0  0
 21 22  1  0  0  0
 46 47  1  0  0  0
 47 48  1  0  0  0
 48 49  1  0  0  0
 49 50  1  0  0  0
 50 54  1  0  0  0
M  CHG 1  58  -1
M  END
> <minimizedAffinity>
-9.35649

> <CNNscore>
0.1503164172

> <CNNaffinity>
6.7421579361

> <CNN_VS>
1.0134570599

> <CNNaffinity_variance>
1.3726884127

$$$$
/media/chris/experiments/cd1a-new-docking/inputs/ligands/1onq_ligand.pdb


 62 62  0  0  0  0  0  0  0  0999 V2000
  -40.3919   59.7076   64.7150 C   0  0  0  0  0  0  0  0  0  0  0  0
  -41.1559   60.2176   63.5937 N   0  0  0  0  0  0  0  0  0  0  0  0
  -39.5414   60.5654   62.0381 O   0  0  0  0  0  0  0  0  0  0  0  0
  -40.7048   60.5943   62.3894 C   0  0  0  0  0  0  0  0  0  0  0  0
  -42.1270   60.2971   63.7344 H   0  0  0  0  0  0  0  0  0  0  0  0
  -41.7582   61.0730   61.4350 C   0  0  0  0  0  0  0  0  0  0  0  0
  -41.1867   60.8861   60.0295 C   0  0  0  0  0  0  0  0  0  0  0  0
  -40.4754   59.5388   59.9306 C   0  0  0  0  0  0  0  0  0  0  0  0
  -41.2293   58.4412   59.2196 C   0  0  0  0  0  0  0  0  0  0  0  0
  -40.9741   57.1420   59.9765 C   0  0  0  0  0  0  0  0  0  0  0  0
  -41.3966   57.2211   61.4496 C   0  0  0  0  0  0  0  0  0  0  0  0
  -40.2811   56.8599   62.4474 C   0  0  0  0  0  0  0  0  0  0  0  0
  -38.8802   56.8314   61.7976 C   0  0  0  0  0  0  0  0  0  0  0  0
  -37.8615   57.5607   62.6781 C   0  0  0  0  0  0  0  0  0  0  0  0
  -36.7933   58.3388   61.9195 C   0  0  0  0  0  0  0  0  0  0  0  0
  -35.3934   58.0626   62.4476 C   0  0  0  0  0  0  0  0  0  0  0  0
  -35.2727   57.8717   63.9613 C   0  0  0  0  0  0  0  0  0  0  0  0
  -34.0859   58.6905   64.4509 C   0  0  0  0  0  0  0  0  0  0  0  0
  -32.7194   58.4363   63.8319 C   0  0  0  0  0  0  0  0  0  0  0  0
  -32.1736   59.7079   63.1633 C   0  0  0  0  0  0  0  0  0  0  0  0
  -33.1713   60.8795   63.1090 C   0  0  0  0  0  0  0  0  0  0  0  0
  -32.4955   62.2487   63.1037 C   0  0  0  0  0  0  0  0  0  0  0  0
  -41.6877   58.0382   65.6793 O   0  0  0  0  0  0  0  0  0  0  0  0
  -41.4680   59.4347   65.7519 C   0  0  0  0  0  0  0  0  0  0  0  0
  -40.8695   57.5699   65.9080 H   0  0  0  0  0  0  0  0  0  0  0  0
  -42.7245   60.2351   65.4013 C   0  0  0  0  0  0  0  0  0  0  0  0
  -43.9668   59.7364   65.5199 C   0  0  0  0  0  0  0  0  0  0  0  0
  -45.1712   60.5993   65.1482 C   0  0  0  0  0  0  0  0  0  0  0  0
  -46.3529   59.8035   64.5750 C   0  0  0  0  0  0  0  0  0  0  0  0
  -47.7515   60.2907   64.9966 C   0  0  0  0  0  0  0  0  0  0  0  0
  -48.6754   60.4410   63.7641 C   0  0  0  0  0  0  0  0  0  0  0  0
  -50.1565   60.7670   64.0830 C   0  0  0  0  0  0  0  0  0  0  0  0
  -51.1770   59.9584   63.2479 C   0  0  0  0  0  0  0  0  0  0  0  0
  -50.8067   58.4672   63.0953 C   0  0  0  0  0  0  0  0  0  0  0  0
  -50.7356   57.9944   61.6383 C   0  0  0  0  0  0  0  0  0  0  0  0
  -49.3365   57.8852   61.0354 C   0  0  0  0  0  0  0  0  0  0  0  0
  -49.1369   58.7284   59.7606 C   0  0  0  0  0  0  0  0  0  0  0  0
  -48.9493   57.9232   58.4658 C   0  0  0  0  0  0  0  0  0  0  0  0
  -47.4708   57.6039   58.2262 C   0  0  0  0  0  0  0  0  0  0  0  0
  -46.8171   58.2855   57.0373 C   0  0  0  0  0  0  0  0  0  0  0  0
  -39.1968   60.5816   65.1588 C   0  0  0  0  0  0  0  0  0  0  0  0
  -37.9039   60.2468   64.5937 O   0  0  0  0  0  0  0  0  0  0  0  0
  -37.4385   62.1603   62.5201 O   0  0  0  0  0  0  0  0  0  0  0  0
  -36.4795   64.6352   65.7379 O   0  0  0  0  0  0  0  0  0  0  0  0
  -36.3877   61.6153   65.9028 O   0  0  0  0  0  0  0  0  0  0  0  0
  -36.8015   61.2287   64.5698 C   0  0  0  0  0  0  0  0  0  0  0  0
  -37.0773   62.5360   63.8133 C   0  0  0  0  0  0  0  0  0  0  0  0
  -35.8509   63.4705   63.7221 C   0  0  0  0  0  0  0  0  0  0  0  0
  -35.4793   63.8159   65.1377 C   0  0  0  0  0  0  0  0  0  0  0  0
  -35.2703   62.5435   65.9388 C   0  0  0  0  0  0  0  0  0  0  0  0
  -38.2088   61.5718   62.5578 H   0  0  0  0  0  0  0  0  0  0  0  0
  -36.5966   65.4410   65.2107 H   0  0  0  0  0  0  0  0  0  0  0  0
  -36.0482   63.0731   68.1362 O   0  0  0  0  0  0  0  0  0  0  0  0
  -34.9204   63.1082   67.3140 C   0  0  0  0  0  0  0  0  0  0  0  0
  -35.8234   63.4322   69.0088 H   0  0  0  0  0  0  0  0  0  0  0  0
  -36.0619   64.7295   63.0435 O   0  0  0  0  0  0  0  0  0  0  0  0
  -36.1573   66.2006   60.9119 O   0  0  0  0  0  0  0  0  0  0  0  0
  -35.5345   63.8626   60.7260 O   0  0  0  0  0  0  0  0  0  0  0  0
  -33.9618   65.4759   61.6195 O   0  0  0  0  0  0  0  0  0  0  0  0
  -35.3998   65.0886   61.5586 S   0  0  0  0  0  0  0  0  0  0  0  0
  -37.0972   65.9662   60.8633 H   0  0  0  0  0  0  0  0  0  0  0  0
  -33.8649   66.2748   62.1609 H   0  0  0  0  0  0  0  0  0  0  0  0
  2  1  1  0  0  0
  2  4  1  0  0  0
  2  5  1  0  0  0
 41 42  1  0  0  0
 41  1  1  0  0  0
 42 46  1  0  0  0
  1 24  1  0  0  0
 23 24  1  0  0  0
 23 25  1  0  0  0
 24 26  1  0  0  0
  3  4  2  0  0  0
 26 27  2  0  0  0
 27 28  1  0  0  0
 43 47  1  0  0  0
 43 51  1  0  0  0
 28 29  1  0  0  0
 56 48  1  0  0  0
 56 60  1  0  0  0
 29 30  1  0  0  0
 57 60  1  0  0  0
 57 61  1  0  0  0
 30 31  1  0  0  0
 44 49  1  0  0  0
 44 52  1  0  0  0
 31 32  1  0  0  0
 45 46  1  0  0  0
 45 50  1  0  0  0
 32 33  1  0  0  0
 53 54  1  0  0  0
 53 55  1  0  0  0
 33 34  1  0  0  0
 34 35  1  0  0  0
 35 36  1  0  0  0
 58 60  1  0  0  0
 36 37  1  0  0  0
 59 60  1  0  0  0
 59 62  1  0  0  0
 37 38  1  0  0  0
 38 39  1  0  0  0
 39 40  1  0  0  0
  4  6  1  0  0  0
  6  7  1  0  0  0
  7  8  1  0  0  0
  8  9  1  0  0  0
  9 10  1  0  0  0
 10 11  1  0  0  0
 11 12  1  0  0  0
 12 13  1  0  0  0
 13 14  1  0  0  0
 14 15  1  0  0  0
 15 16  1  0  0  0
 16 17  1  0  0  0
 17 18  1  0  0  0
 18 19  1  0  0  0
 19 20  1  0  0  0
 20 21  1  0  0  0
 21 22  1  0  0  0
 46 47  1  0  0  0
 47 48  1  0  0  0
 48 49  1  0  0  0
 49 50  1  0  0  0
 50 54  1  0  0  0
M  CHG 1  58  -1
M  END
> <minimizedAffinity>
-9.20529

> <CNNscore>
0.1418140531

> <CNNaffinity>
6.9603071213

> <CNN_VS>
0.9870693684

> <CNNaffinity_variance>
1.3923127651

$$$$
/media/chris/experiments/cd1a-new-docking/inputs/ligands/1onq_ligand.pdb


 62 62  0  0  0  0  0  0  0  0999 V2000
  -41.1173   58.0195   63.4771 C   0  0  0  0  0  0  0  0  0  0  0  0
  -42.1699   58.1127   64.4693 N   0  0  0  0  0  0  0  0  0  0  0  0
  -42.2827   55.9830   65.2434 O   0  0  0  0  0  0  0  0  0  0  0  0
  -42.6597   57.1387   65.2485 C   0  0  0  0  0  0  0  0  0  0  0  0
  -42.5754   59.0023   64.5852 H   0  0  0  0  0  0  0  0  0  0  0  0
  -43.7504   57.5611   66.1876 C   0  0  0  0  0  0  0  0  0  0  0  0
  -45.0447   57.5658   65.3742 C   0  0  0  0  0  0  0  0  0  0  0  0
  -46.2498   57.5526   66.3116 C   0  0  0  0  0  0  0  0  0  0  0  0
  -46.7431   58.9011   66.7770 C   0  0  0  0  0  0  0  0  0  0  0  0
  -47.5089   59.5358   65.6209 C   0  0  0  0  0  0  0  0  0  0  0  0
  -48.8560   60.1279   66.0561 C   0  0  0  0  0  0  0  0  0  0  0  0
  -50.0834   59.3744   65.5117 C   0  0  0  0  0  0  0  0  0  0  0  0
  -50.9346   60.2302   64.5480 C   0  0  0  0  0  0  0  0  0  0  0  0
  -51.1075   59.5185   63.2032 C   0  0  0  0  0  0  0  0  0  0  0  0
  -50.2501   58.2724   63.0180 C   0  0  0  0  0  0  0  0  0  0  0  0
  -49.2009   58.4499   61.9306 C   0  0  0  0  0  0  0  0  0  0  0  0
  -49.6137   59.3098   60.7337 C   0  0  0  0  0  0  0  0  0  0  0  0
  -50.2239   58.3962   59.6794 C   0  0  0  0  0  0  0  0  0  0  0  0
  -49.2940   57.6560   58.7294 C   0  0  0  0  0  0  0  0  0  0  0  0
  -48.0048   58.4567   58.4869 C   0  0  0  0  0  0  0  0  0  0  0  0
  -47.1764   57.9829   57.2785 C   0  0  0  0  0  0  0  0  0  0  0  0
  -47.0922   56.4627   57.1627 C   0  0  0  0  0  0  0  0  0  0  0  0
  -40.9520   55.8394   62.6922 O   0  0  0  0  0  0  0  0  0  0  0  0
  -41.6903   57.0282   62.4789 C   0  0  0  0  0  0  0  0  0  0  0  0
  -41.0953   55.5284   63.5998 H   0  0  0  0  0  0  0  0  0  0  0  0
  -41.5075   57.5738   61.0607 C   0  0  0  0  0  0  0  0  0  0  0  0
  -40.3933   57.3722   60.3369 C   0  0  0  0  0  0  0  0  0  0  0  0
  -40.2871   57.9512   58.9273 C   0  0  0  0  0  0  0  0  0  0  0  0
  -38.9258   58.5914   58.6191 C   0  0  0  0  0  0  0  0  0  0  0  0
  -38.1227   59.0711   59.8423 C   0  0  0  0  0  0  0  0  0  0  0  0
  -38.7321   60.3690   60.4248 C   0  0  0  0  0  0  0  0  0  0  0  0
  -39.1549   60.2914   61.9138 C   0  0  0  0  0  0  0  0  0  0  0  0
  -40.3243   61.2315   62.2900 C   0  0  0  0  0  0  0  0  0  0  0  0
  -41.5440   61.1059   61.3516 C   0  0  0  0  0  0  0  0  0  0  0  0
  -42.7809   61.8689   61.8407 C   0  0  0  0  0  0  0  0  0  0  0  0
  -42.8944   62.0660   63.3510 C   0  0  0  0  0  0  0  0  0  0  0  0
  -44.1284   61.3892   63.9795 C   0  0  0  0  0  0  0  0  0  0  0  0
  -43.9917   61.0299   65.4668 C   0  0  0  0  0  0  0  0  0  0  0  0
  -42.7164   61.6326   66.0631 C   0  0  0  0  0  0  0  0  0  0  0  0
  -41.7372   60.6560   66.6898 C   0  0  0  0  0  0  0  0  0  0  0  0
  -39.7055   57.7200   64.0304 C   0  0  0  0  0  0  0  0  0  0  0  0
  -39.2948   58.4723   65.2003 O   0  0  0  0  0  0  0  0  0  0  0  0
  -36.8831   57.4799   64.0272 O   0  0  0  0  0  0  0  0  0  0  0  0
  -36.2952   61.5044   63.1017 O   0  0  0  0  0  0  0  0  0  0  0  0
  -38.1043   60.5811   65.3445 O   0  0  0  0  0  0  0  0  0  0  0  0
  -37.9796   59.1408   65.2577 C   0  0  0  0  0  0  0  0  0  0  0  0
  -37.0298   58.8653   64.0832 C   0  0  0  0  0  0  0  0  0  0  0  0
  -35.6300   59.4946   64.2566 C   0  0  0  0  0  0  0  0  0  0  0  0
  -35.8454   60.9801   64.3487 C   0  0  0  0  0  0  0  0  0  0  0  0
  -36.8391   61.2874   65.4543 C   0  0  0  0  0  0  0  0  0  0  0  0
  -37.7539   57.0667   63.9183 H   0  0  0  0  0  0  0  0  0  0  0  0
  -35.6466   61.2969   62.4109 H   0  0  0  0  0  0  0  0  0  0  0  0
  -35.6333   63.3432   65.2708 O   0  0  0  0  0  0  0  0  0  0  0  0
  -36.9196   62.8102   65.3714 C   0  0  0  0  0  0  0  0  0  0  0  0
  -35.6872   64.3102   65.2184 H   0  0  0  0  0  0  0  0  0  0  0  0
  -34.7030   59.2899   63.1663 O   0  0  0  0  0  0  0  0  0  0  0  0
  -32.1751   59.7943   62.8974 O   0  0  0  0  0  0  0  0  0  0  0  0
  -32.9865   57.5319   62.5633 O   0  0  0  0  0  0  0  0  0  0  0  0
  -32.8044   58.4436   64.8016 O   0  0  0  0  0  0  0  0  0  0  0  0
  -33.1386   58.7634   63.3846 S   0  0  0  0  0  0  0  0  0  0  0  0
  -32.3773   60.0156   61.9749 H   0  0  0  0  0  0  0  0  0  0  0  0
  -32.9011   59.2416   65.3445 H   0  0  0  0  0  0  0  0  0  0  0  0
  2  1  1  0  0  0
  2  4  1  0  0  0
  2  5  1  0  0  0
 41 42  1  0  0  0
 41  1  1  0  0  0
 42 46  1  0  0  0
  1 24  1  0  0  0
 23 24  1  0  0  0
 23 25  1  0  0  0
 24 26  1  0  0  0
  3  4  2  0  0  0
 26 27  2  0  0  0
 27 28  1  0  0  0
 43 47  1  0  0  0
 43 51  1  0  0  0
 28 29  1  0  0  0
 56 48  1  0  0  0
 56 60  1  0  0  0
 29 30  1  0  0  0
 57 60  1  0  0  0
 57 61  1  0  0  0
 30 31  1  0  0  0
 44 49  1  0  0  0
 44 52  1  0  0  0
 31 32  1  0  0  0
 45 46  1  0  0  0
 45 50  1  0  0  0
 32 33  1  0  0  0
 53 54  1  0  0  0
 53 55  1  0  0  0
 33 34  1  0  0  0
 34 35  1  0  0  0
 35 36  1  0  0  0
 58 60  1  0  0  0
 36 37  1  0  0  0
 59 60  1  0  0  0
 59 62  1  0  0  0
 37 38  1  0  0  0
 38 39  1  0  0  0
 39 40  1  0  0  0
  4  6  1  0  0  0
  6  7  1  0  0  0
  7  8  1  0  0  0
  8  9  1  0  0  0
  9 10  1  0  0  0
 10 11  1  0  0  0
 11 12  1  0  0  0
 12 13  1  0  0  0
 13 14  1  0  0  0
 14 15  1  0  0  0
 15 16  1  0  0  0
 16 17  1  0  0  0
 17 18  1  0  0  0
 18 19  1  0  0  0
 19 20  1  0  0  0
 20 21  1  0  0  0
 21 22  1  0  0  0
 46 47  1  0  0  0
 47 48  1  0  0  0
 48 49  1  0  0  0
 49 50  1  0  0  0
 50 54  1  0  0  0
M  CHG 1  58  -1
M  END
> <minimizedAffinity>
-9.15494

> <CNNscore>
0.1389689595

> <CNNaffinity>
7.2604341507

> <CNN_VS>
1.0089750290

> <CNNaffinity_variance>
2.1545791626

$$$$
