/media/chris/experiments/cd1a-new-docking/inputs/ligands/1onq_ligand.pdb


 62 62  0  0  0  0  0  0  0  0999 V2000
  -41.3837   59.8711   65.6070 C   0  0  0  0  0  0  0  0  0  0  0  0
  -41.5964   58.9677   64.4936 N   0  0  0  0  0  0  0  0  0  0  0  0
  -42.2531   57.0666   65.5435 O   0  0  0  0  0  0  0  0  0  0  0  0
  -41.9967   57.6894   64.5315 C   0  0  0  0  0  0  0  0  0  0  0  0
  -41.4254   59.3393   63.5981 H   0  0  0  0  0  0  0  0  0  0  0  0
  -42.1310   57.0233   63.1942 C   0  0  0  0  0  0  0  0  0  0  0  0
  -41.6559   58.0386   62.1548 C   0  0  0  0  0  0  0  0  0  0  0  0
  -41.1651   57.3137   60.9038 C   0  0  0  0  0  0  0  0  0  0  0  0
  -41.0261   58.1574   59.6599 C   0  0  0  0  0  0  0  0  0  0  0  0
  -39.5369   58.2960   59.3612 C   0  0  0  0  0  0  0  0  0  0  0  0
  -38.7742   59.0260   60.4748 C   0  0  0  0  0  0  0  0  0  0  0  0
  -37.4700   58.3317   60.9079 C   0  0  0  0  0  0  0  0  0  0  0  0
  -37.6641   57.3894   62.1162 C   0  0  0  0  0  0  0  0  0  0  0  0
  -38.1303   58.1757   63.3448 C   0  0  0  0  0  0  0  0  0  0  0  0
  -37.3758   57.8673   64.6323 C   0  0  0  0  0  0  0  0  0  0  0  0
  -35.8735   57.7688   64.4117 C   0  0  0  0  0  0  0  0  0  0  0  0
  -35.0909   59.0789   64.5271 C   0  0  0  0  0  0  0  0  0  0  0  0
  -33.6287   58.7388   64.7817 C   0  0  0  0  0  0  0  0  0  0  0  0
  -32.7603   58.3247   63.6029 C   0  0  0  0  0  0  0  0  0  0  0  0
  -32.5495   59.5003   62.6356 C   0  0  0  0  0  0  0  0  0  0  0  0
  -31.0949   59.9965   62.5411 C   0  0  0  0  0  0  0  0  0  0  0  0
  -30.8163   60.8142   61.2820 C   0  0  0  0  0  0  0  0  0  0  0  0
  -42.1090   61.9732   66.2786 O   0  0  0  0  0  0  0  0  0  0  0  0
  -42.4446   60.9340   65.3780 C   0  0  0  0  0  0  0  0  0  0  0  0
  -41.2294   62.3190   66.0600 H   0  0  0  0  0  0  0  0  0  0  0  0
  -43.8259   60.3425   65.6689 C   0  0  0  0  0  0  0  0  0  0  0  0
  -44.8378   60.3772   64.7851 C   0  0  0  0  0  0  0  0  0  0  0  0
  -46.1884   59.7649   65.1514 C   0  0  0  0  0  0  0  0  0  0  0  0
  -47.3284   60.1606   64.2015 C   0  0  0  0  0  0  0  0  0  0  0  0
  -48.4765   60.9661   64.8374 C   0  0  0  0  0  0  0  0  0  0  0  0
  -49.2102   60.1243   65.9090 C   0  0  0  0  0  0  0  0  0  0  0  0
  -50.5838   59.5527   65.4753 C   0  0  0  0  0  0  0  0  0  0  0  0
  -51.3027   60.3873   64.3892 C   0  0  0  0  0  0  0  0  0  0  0  0
  -51.5247   59.6206   63.0675 C   0  0  0  0  0  0  0  0  0  0  0  0
  -50.5979   58.4118   62.8914 C   0  0  0  0  0  0  0  0  0  0  0  0
  -50.3685   57.9453   61.4553 C   0  0  0  0  0  0  0  0  0  0  0  0
  -49.0243   58.4031   60.8556 C   0  0  0  0  0  0  0  0  0  0  0  0
  -49.0296   58.6340   59.3369 C   0  0  0  0  0  0  0  0  0  0  0  0
  -47.9174   57.8321   58.6549 C   0  0  0  0  0  0  0  0  0  0  0  0
  -47.7141   56.4089   59.1437 C   0  0  0  0  0  0  0  0  0  0  0  0
  -39.9304   60.3614   65.7982 C   0  0  0  0  0  0  0  0  0  0  0  0
  -39.3570   61.1297   64.7101 O   0  0  0  0  0  0  0  0  0  0  0  0
  -37.7452   61.5498   62.3857 O   0  0  0  0  0  0  0  0  0  0  0  0
  -36.2365   64.7148   64.6451 O   0  0  0  0  0  0  0  0  0  0  0  0
  -37.5933   62.3110   65.8846 O   0  0  0  0  0  0  0  0  0  0  0  0
  -37.9340   61.5235   64.7178 C   0  0  0  0  0  0  0  0  0  0  0  0
  -37.4491   62.3286   63.5036 C   0  0  0  0  0  0  0  0  0  0  0  0
  -35.9304   62.6087   63.5114 C   0  0  0  0  0  0  0  0  0  0  0  0
  -35.6580   63.4162   64.7504 C   0  0  0  0  0  0  0  0  0  0  0  0
  -36.1914   62.6840   65.9683 C   0  0  0  0  0  0  0  0  0  0  0  0
  -38.6968   61.3635   62.3642 H   0  0  0  0  0  0  0  0  0  0  0  0
  -35.8824   65.1641   63.8617 H   0  0  0  0  0  0  0  0  0  0  0  0
  -36.1703   63.1023   68.3217 O   0  0  0  0  0  0  0  0  0  0  0  0
  -35.8294   63.6581   67.0873 C   0  0  0  0  0  0  0  0  0  0  0  0
  -35.9395   63.7228   69.0306 H   0  0  0  0  0  0  0  0  0  0  0  0
  -35.4234   63.3880   62.4043 O   0  0  0  0  0  0  0  0  0  0  0  0
  -33.3761   63.7227   60.8506 O   0  0  0  0  0  0  0  0  0  0  0  0
  -33.0417   62.9140   63.1141 O   0  0  0  0  0  0  0  0  0  0  0  0
  -33.5681   65.2464   62.7181 O   0  0  0  0  0  0  0  0  0  0  0  0
  -33.8298   63.8502   62.2672 S   0  0  0  0  0  0  0  0  0  0  0  0
  -33.5388   62.8186   60.5392 H   0  0  0  0  0  0  0  0  0  0  0  0
  -34.0783   65.8639   62.1709 H   0  0  0  0  0  0  0  0  0  0  0  0
  2  1  1  0  0  0
  2  4  1  0  0  0
  2  5  1  0  0  0
 41 42  1  0  0  0
 41  1  1  0  0  0
 42 46  1  0  0  0
  1 24  1  0  0  0
 23 24  1  0  0  0
 23 25  1  0  0  0
 24 26  1  0  0  0
  3  4  2  0  0  0
 26 27  2  0  0  0
 27 28  1  0  0  0
 43 47  1  0  0  0
 43 51  1  0  0  0
 28 29  1  0  0  0
 56 48  1  0  0  0
 56 60  1  0  0  0
 29 30  1  0  0  0
 57 60  1  0  0  0
 57 61  1  0  0  0
 30 31  1  0  0  0
 44 49  1  0  0  0
 44 52  1  0  0  0
 31 32  1  0  0  0
 45 46  1  0  0  0
 45 50  1  0  0  0
 32 33  1  0  0  0
 53 54  1  0  0  0
 53 55  1  0  0  0
 33 34  1  0  0  0
 34 35  1  0  0  0
 35 36  1  0  0  0
 58 60  1  0  0  0
 36 37  1  0  0  0
 59 60  1  0  0  0
 59 62  1  0  0  0
 37 38  1  0  0  0
 38 39  1  0  0  0
 39 40  1  0  0  0
  4  6  1  0  0  0
  6  7  1  0  0  0
  7  8  1  0  0  0
  8  9  1  0  0  0
  9 10  1  0  0  0
 10 11  1  0  0  0
 11 12  1  0  0  0
 12 13  1  0  0  0
 13 14  1  0  0  0
 14 15  1  0  0  0
 15 16  1  0  0  0
 16 17  1  0  0  0
 17 18  1  0  0  0
 18 19  1  0  0  0
 19 20  1  0  0  0
 20 21  1  0  0  0
 21 22  1  0  0  0
 46 47  1  0  0  0
 47 48  1  0  0  0
 48 49  1  0  0  0
 49 50  1  0  0  0
 50 54  1  0  0  0
M  CHG 1  58  -1
M  END
> <minimizedAffinity>
-9.87971

> <CNNscore>
0.3424137831

> <CNNaffinity>
7.0810804367

> <CNN_VS>
2.4246594906

> <CNNaffinity_variance>
2.1453652382

$$$$
/media/chris/experiments/cd1a-new-docking/inputs/ligands/1onq_ligand.pdb


 62 62  0  0  0  0  0  0  0  0999 V2000
  -37.3118   59.1564   63.4123 C   0  0  0  0  0  0  0  0  0  0  0  0
  -38.7028   59.3085   63.7907 N   0  0  0  0  0  0  0  0  0  0  0  0
  -38.9407   61.5644   63.8284 O   0  0  0  0  0  0  0  0  0  0  0  0
  -39.3922   60.4441   63.9655 C   0  0  0  0  0  0  0  0  0  0  0  0
  -39.2032   58.4735   63.9377 H   0  0  0  0  0  0  0  0  0  0  0  0
  -40.8304   60.2640   64.3517 C   0  0  0  0  0  0  0  0  0  0  0  0
  -41.6622   60.7752   63.1754 C   0  0  0  0  0  0  0  0  0  0  0  0
  -43.1376   60.4532   63.4007 C   0  0  0  0  0  0  0  0  0  0  0  0
  -43.8328   61.2480   64.4793 C   0  0  0  0  0  0  0  0  0  0  0  0
  -45.2943   61.3995   64.0704 C   0  0  0  0  0  0  0  0  0  0  0  0
  -46.2104   60.3751   64.7531 C   0  0  0  0  0  0  0  0  0  0  0  0
  -47.6785   60.4344   64.2932 C   0  0  0  0  0  0  0  0  0  0  0  0
  -48.6768   60.4468   65.4717 C   0  0  0  0  0  0  0  0  0  0  0  0
  -49.8768   59.5438   65.1724 C   0  0  0  0  0  0  0  0  0  0  0  0
  -51.0590   60.2406   64.5100 C   0  0  0  0  0  0  0  0  0  0  0  0
  -51.3868   59.6507   63.1462 C   0  0  0  0  0  0  0  0  0  0  0  0
  -50.5677   58.4268   62.7300 C   0  0  0  0  0  0  0  0  0  0  0  0
  -49.7260   58.8068   61.5193 C   0  0  0  0  0  0  0  0  0  0  0  0
  -49.9783   58.0892   60.2014 C   0  0  0  0  0  0  0  0  0  0  0  0
  -49.0717   58.6437   59.0912 C   0  0  0  0  0  0  0  0  0  0  0  0
  -48.2763   57.5729   58.3220 C   0  0  0  0  0  0  0  0  0  0  0  0
  -47.1207   58.1484   57.5066 C   0  0  0  0  0  0  0  0  0  0  0  0
  -35.9354   57.5092   62.5244 O   0  0  0  0  0  0  0  0  0  0  0  0
  -37.3063   57.8123   62.7047 C   0  0  0  0  0  0  0  0  0  0  0  0
  -35.5034   57.4388   63.3901 H   0  0  0  0  0  0  0  0  0  0  0  0
  -38.0492   57.9377   61.3724 C   0  0  0  0  0  0  0  0  0  0  0  0
  -37.7006   58.8198   60.4202 C   0  0  0  0  0  0  0  0  0  0  0  0
  -38.4937   58.8842   59.1164 C   0  0  0  0  0  0  0  0  0  0  0  0
  -39.7886   58.0588   59.1351 C   0  0  0  0  0  0  0  0  0  0  0  0
  -41.0115   58.7514   59.7645 C   0  0  0  0  0  0  0  0  0  0  0  0
  -41.6797   57.8355   60.8180 C   0  0  0  0  0  0  0  0  0  0  0  0
  -41.3552   56.3261   60.6836 C   0  0  0  0  0  0  0  0  0  0  0  0
  -41.1029   55.6100   62.0314 C   0  0  0  0  0  0  0  0  0  0  0  0
  -41.1560   56.5543   63.2518 C   0  0  0  0  0  0  0  0  0  0  0  0
  -42.2201   56.1681   64.2860 C   0  0  0  0  0  0  0  0  0  0  0  0
  -42.6235   57.2604   65.2743 C   0  0  0  0  0  0  0  0  0  0  0  0
  -44.1445   57.3704   65.4991 C   0  0  0  0  0  0  0  0  0  0  0  0
  -44.5649   58.0113   66.8305 C   0  0  0  0  0  0  0  0  0  0  0  0
  -46.0084   57.6440   67.1860 C   0  0  0  0  0  0  0  0  0  0  0  0
  -46.8494   57.0525   66.0687 C   0  0  0  0  0  0  0  0  0  0  0  0
  -36.2865   59.3524   64.5521 C   0  0  0  0  0  0  0  0  0  0  0  0
  -34.9421   59.7267   64.1574 O   0  0  0  0  0  0  0  0  0  0  0  0
  -32.7888   61.0914   62.8621 O   0  0  0  0  0  0  0  0  0  0  0  0
  -34.9966   64.4731   63.9053 O   0  0  0  0  0  0  0  0  0  0  0  0
  -35.2785   61.8211   65.3346 O   0  0  0  0  0  0  0  0  0  0  0  0
  -34.3334   60.9910   64.6169 C   0  0  0  0  0  0  0  0  0  0  0  0
  -33.7248   61.8835   63.5258 C   0  0  0  0  0  0  0  0  0  0  0  0
  -33.0006   63.1311   64.0773 C   0  0  0  0  0  0  0  0  0  0  0  0
  -34.0406   63.9303   64.8128 C   0  0  0  0  0  0  0  0  0  0  0  0
  -34.7182   63.0574   65.8535 C   0  0  0  0  0  0  0  0  0  0  0  0
  -33.2266   60.3015   62.5083 H   0  0  0  0  0  0  0  0  0  0  0  0
  -34.5429   65.0264   63.2503 H   0  0  0  0  0  0  0  0  0  0  0  0
  -36.9638   63.8764   65.8477 O   0  0  0  0  0  0  0  0  0  0  0  0
  -35.7201   64.0366   66.4613 C   0  0  0  0  0  0  0  0  0  0  0  0
  -37.5982   64.4994   66.2354 H   0  0  0  0  0  0  0  0  0  0  0  0
  -32.4321   64.0223   63.0912 O   0  0  0  0  0  0  0  0  0  0  0  0
  -32.2133   65.0230   60.7104 O   0  0  0  0  0  0  0  0  0  0  0  0
  -34.0013   63.4538   61.1897 O   0  0  0  0  0  0  0  0  0  0  0  0
  -31.7236   62.6658   60.9343 O   0  0  0  0  0  0  0  0  0  0  0  0
  -32.5722   63.7771   61.4504 S   0  0  0  0  0  0  0  0  0  0  0  0
  -32.7565   65.7588   61.0335 H   0  0  0  0  0  0  0  0  0  0  0  0
  -30.7896   62.8685   61.1001 H   0  0  0  0  0  0  0  0  0  0  0  0
  2  1  1  0  0  0
  2  4  1  0  0  0
  2  5  1  0  0  0
 41 42  1  0  0  0
 41  1  1  0  0  0
 42 46  1  0  0  0
  1 24  1  0  0  0
 23 24  1  0  0  0
 23 25  1  0  0  0
 24 26  1  0  0  0
  3  4  2  0  0  0
 26 27  2  0  0  0
 27 28  1  0  0  0
 43 47  1  0  0  0
 43 51  1  0  0  0
 28 29  1  0  0  0
 56 48  1  0  0  0
 56 60  1  0  0  0
 29 30  1  0  0  0
 57 60  1  0  0  0
 57 61  1  0  0  0
 30 31  1  0  0  0
 44 49  1  0  0  0
 44 52  1  0  0  0
 31 32  1  0  0  0
 45 46  1  0  0  0
 45 50  1  0  0  0
 32 33  1  0  0  0
 53 54  1  0  0  0
 53 55  1  0  0  0
 33 34  1  0  0  0
 34 35  1  0  0  0
 35 36  1  0  0  0
 58 60  1  0  0  0
 36 37  1  0  0  0
 59 60  1  0  0  0
 59 62  1  0  0  0
 37 38  1  0  0  0
 38 39  1  0  0  0
 39 40  1  0  0  0
  4  6  1  0  0  0
  6  7  1  0  0  0
  7  8  1  0  0  0
  8  9  1  0  0  0
  9 10  1  0  0  0
 10 11  1  0  0  0
 11 12  1  0  0  0
 12 13  1  0  0  0
 13 14  1  0  0  0
 14 15  1  0  0  0
 15 16  1  0  0  0
 16 17  1  0  0  0
 17 18  1  0  0  0
 18 19  1  0  0  0
 19 20  1  0  0  0
 20 21  1  0  0  0
 21 22  1  0  0  0
 46 47  1  0  0  0
 47 48  1  0  0  0
 48 49  1  0  0  0
 49 50  1  0  0  0
 50 54  1  0  0  0
M  CHG 1  58  -1
M  END
> <minimizedAffinity>
-9.47235

> <CNNscore>
0.3257566690

> <CNNaffinity>
7.3078851700

> <CNN_VS>
2.3805923462

> <CNNaffinity_variance>
1.2136089802

$$$$
/media/chris/experiments/cd1a-new-docking/inputs/ligands/1onq_ligand.pdb


 62 62  0  0  0  0  0  0  0  0999 V2000
  -39.8653   60.2419   64.3024 C   0  0  0  0  0  0  0  0  0  0  0  0
  -41.2421   60.6595   64.4787 N   0  0  0  0  0  0  0  0  0  0  0  0
  -41.8765   61.1152   62.3486 O   0  0  0  0  0  0  0  0  0  0  0  0
  -42.1142   61.0493   63.5390 C   0  0  0  0  0  0  0  0  0  0  0  0
  -41.5783   60.6565   65.4040 H   0  0  0  0  0  0  0  0  0  0  0  0
  -43.4778   61.4139   64.0464 C   0  0  0  0  0  0  0  0  0  0  0  0
  -44.1945   60.0976   64.3472 C   0  0  0  0  0  0  0  0  0  0  0  0
  -44.6410   60.0685   65.8070 C   0  0  0  0  0  0  0  0  0  0  0  0
  -46.1271   59.9512   66.0440 C   0  0  0  0  0  0  0  0  0  0  0  0
  -46.5516   58.5482   65.6229 C   0  0  0  0  0  0  0  0  0  0  0  0
  -48.0321   58.4705   65.2267 C   0  0  0  0  0  0  0  0  0  0  0  0
  -48.9123   59.5683   65.8515 C   0  0  0  0  0  0  0  0  0  0  0  0
  -50.3951   59.4597   65.4329 C   0  0  0  0  0  0  0  0  0  0  0  0
  -50.6440   60.2173   64.1256 C   0  0  0  0  0  0  0  0  0  0  0  0
  -51.3635   59.4196   63.0449 C   0  0  0  0  0  0  0  0  0  0  0  0
  -50.4287   58.4717   62.3081 C   0  0  0  0  0  0  0  0  0  0  0  0
  -49.2099   59.1142   61.6419 C   0  0  0  0  0  0  0  0  0  0  0  0
  -49.4938   59.2406   60.1512 C   0  0  0  0  0  0  0  0  0  0  0  0
  -49.9218   57.9991   59.3825 C   0  0  0  0  0  0  0  0  0  0  0  0
  -48.7008   57.2451   58.8324 C   0  0  0  0  0  0  0  0  0  0  0  0
  -48.3766   57.5448   57.3573 C   0  0  0  0  0  0  0  0  0  0  0  0
  -46.9874   58.1453   57.1542 C   0  0  0  0  0  0  0  0  0  0  0  0
  -38.4926   58.8041   65.5042 O   0  0  0  0  0  0  0  0  0  0  0  0
  -39.8251   58.9143   65.0396 C   0  0  0  0  0  0  0  0  0  0  0  0
  -38.3005   59.5355   66.1118 H   0  0  0  0  0  0  0  0  0  0  0  0
  -40.1939   57.7864   64.0730 C   0  0  0  0  0  0  0  0  0  0  0  0
  -41.3826   57.1598   64.0988 C   0  0  0  0  0  0  0  0  0  0  0  0
  -41.6745   56.0417   63.0998 C   0  0  0  0  0  0  0  0  0  0  0  0
  -40.8371   56.1217   61.8151 C   0  0  0  0  0  0  0  0  0  0  0  0
  -41.5101   56.8279   60.6236 C   0  0  0  0  0  0  0  0  0  0  0  0
  -40.4547   57.5189   59.7271 C   0  0  0  0  0  0  0  0  0  0  0  0
  -40.4346   59.0667   59.8014 C   0  0  0  0  0  0  0  0  0  0  0  0
  -39.0169   59.6844   59.7619 C   0  0  0  0  0  0  0  0  0  0  0  0
  -37.9034   58.7021   60.1851 C   0  0  0  0  0  0  0  0  0  0  0  0
  -37.6364   58.6842   61.6950 C   0  0  0  0  0  0  0  0  0  0  0  0
  -36.4044   57.9045   62.1497 C   0  0  0  0  0  0  0  0  0  0  0  0
  -35.9408   58.2450   63.5798 C   0  0  0  0  0  0  0  0  0  0  0  0
  -34.4739   57.9100   63.8897 C   0  0  0  0  0  0  0  0  0  0  0  0
  -33.5684   58.2571   62.7046 C   0  0  0  0  0  0  0  0  0  0  0  0
  -32.4017   59.1843   62.9951 C   0  0  0  0  0  0  0  0  0  0  0  0
  -38.7970   61.2902   64.6882 C   0  0  0  0  0  0  0  0  0  0  0  0
  -37.6031   61.3318   63.8661 O   0  0  0  0  0  0  0  0  0  0  0  0
  -34.9216   61.3815   64.8583 O   0  0  0  0  0  0  0  0  0  0  0  0
  -34.2852   63.7939   61.5155 O   0  0  0  0  0  0  0  0  0  0  0  0
  -37.0106   63.4158   62.7744 O   0  0  0  0  0  0  0  0  0  0  0  0
  -36.7145   62.5110   63.8659 C   0  0  0  0  0  0  0  0  0  0  0  0
  -35.2086   62.2223   63.7838 C   0  0  0  0  0  0  0  0  0  0  0  0
  -34.3274   63.4846   63.9067 C   0  0  0  0  0  0  0  0  0  0  0  0
  -34.7000   64.3718   62.7509 C   0  0  0  0  0  0  0  0  0  0  0  0
  -36.1975   64.6199   62.7558 C   0  0  0  0  0  0  0  0  0  0  0  0
  -35.4670   60.5816   64.7976 H   0  0  0  0  0  0  0  0  0  0  0  0
  -33.3270   63.6441   61.5342 H   0  0  0  0  0  0  0  0  0  0  0  0
  -36.7502   66.7908   61.9218 O   0  0  0  0  0  0  0  0  0  0  0  0
  -36.3587   65.5107   61.5259 C   0  0  0  0  0  0  0  0  0  0  0  0
  -36.8519   67.3545   61.1390 H   0  0  0  0  0  0  0  0  0  0  0  0
  -32.9006   63.2742   63.8080 O   0  0  0  0  0  0  0  0  0  0  0  0
  -30.5015   64.0393   64.4215 O   0  0  0  0  0  0  0  0  0  0  0  0
  -32.3592   65.5726   64.7166 O   0  0  0  0  0  0  0  0  0  0  0  0
  -31.5085   65.1010   62.4967 O   0  0  0  0  0  0  0  0  0  0  0  0
  -31.7906   64.5148   63.8377 S   0  0  0  0  0  0  0  0  0  0  0  0
  -30.6655   63.6538   65.2963 H   0  0  0  0  0  0  0  0  0  0  0  0
  -31.1372   64.4177   61.9168 H   0  0  0  0  0  0  0  0  0  0  0  0
  2  1  1  0  0  0
  2  4  1  0  0  0
  2  5  1  0  0  0
 41 42  1  0  0  0
 41  1  1  0  0  0
 42 46  1  0  0  0
  1 24  1  0  0  0
 23 24  1  0  0  0
 23 25  1  0  0  0
 24 26  1  0  0  0
  3  4  2  0  0  0
 26 27  2  0  0  0
 27 28  1  0  0  0
 43 47  1  0  0  0
 43 51  1  0  0  0
 28 29  1  0  0  0
 56 48  1  0  0  0
 56 60  1  0  0  0
 29 30  1  0  0  0
 57 60  1  0  0  0
 57 61  1  0  0  0
 30 31  1  0  0  0
 44 49  1  0  0  0
 44 52  1  0  0  0
 31 32  1  0  0  0
 45 46  1  0  0  0
 45 50  1  0  0  0
 32 33  1  0  0  0
 53 54  1  0  0  0
 53 55  1  0  0  0
 33 34  1  0  0  0
 34 35  1  0  0  0
 35 36  1  0  0  0
 58 60  1  0  0  0
 36 37  1  0  0  0
 59 60  1  0  0  0
 59 62  1  0  0  0
 37 38  1  0  0  0
 38 39  1  0  0  0
 39 40  1  0  0  0
  4  6  1  0  0  0
  6  7  1  0  0  0
  7  8  1  0  0  0
  8  9  1  0  0  0
  9 10  1  0  0  0
 10 11  1  0  0  0
 11 12  1  0  0  0
 12 13  1  0  0  0
 13 14  1  0  0  0
 14 15  1  0  0  0
 15 16  1  0  0  0
 16 17  1  0  0  0
 17 18  1  0  0  0
 18 19  1  0  0  0
 19 20  1  0  0  0
 20 21  1  0  0  0
 21 22  1  0  0  0
 46 47  1  0  0  0
 47 48  1  0  0  0
 48 49  1  0  0  0
 49 50  1  0  0  0
 50 54  1  0  0  0
M  CHG 1  58  -1
M  END
> <minimizedAffinity>
-8.90065

> <CNNscore>
0.3141479194

> <CNNaffinity>
7.2291526794

> <CNN_VS>
2.2710232735

> <CNNaffinity_variance>
0.9811345935

$$$$
/media/chris/experiments/cd1a-new-docking/inputs/ligands/1onq_ligand.pdb


 62 62  0  0  0  0  0  0  0  0999 V2000
  -41.6233   59.9336   65.0870 C   0  0  0  0  0  0  0  0  0  0  0  0
  -41.6351   58.5790   64.5712 N   0  0  0  0  0  0  0  0  0  0  0  0
  -42.6835   57.4468   66.2344 O   0  0  0  0  0  0  0  0  0  0  0  0
  -42.1384   57.4794   65.1483 C   0  0  0  0  0  0  0  0  0  0  0  0
  -41.2218   58.4509   63.6869 H   0  0  0  0  0  0  0  0  0  0  0  0
  -42.0003   56.2187   64.3474 C   0  0  0  0  0  0  0  0  0  0  0  0
  -41.0495   56.5400   63.1943 C   0  0  0  0  0  0  0  0  0  0  0  0
  -41.3489   55.6330   62.0031 C   0  0  0  0  0  0  0  0  0  0  0  0
  -41.4385   56.3123   60.6581 C   0  0  0  0  0  0  0  0  0  0  0  0
  -41.7793   57.7783   60.9040 C   0  0  0  0  0  0  0  0  0  0  0  0
  -41.0635   58.7249   59.9311 C   0  0  0  0  0  0  0  0  0  0  0  0
  -39.9718   58.0501   59.0806 C   0  0  0  0  0  0  0  0  0  0  0  0
  -38.6364   58.8261   59.0921 C   0  0  0  0  0  0  0  0  0  0  0  0
  -38.0655   58.8973   60.5113 C   0  0  0  0  0  0  0  0  0  0  0  0
  -38.0979   57.5855   61.2861 C   0  0  0  0  0  0  0  0  0  0  0  0
  -37.2151   57.6246   62.5248 C   0  0  0  0  0  0  0  0  0  0  0  0
  -37.9180   57.9721   63.8391 C   0  0  0  0  0  0  0  0  0  0  0  0
  -36.8849   57.9289   64.9570 C   0  0  0  0  0  0  0  0  0  0  0  0
  -35.4348   57.6386   64.5990 C   0  0  0  0  0  0  0  0  0  0  0  0
  -34.5831   58.9155   64.6768 C   0  0  0  0  0  0  0  0  0  0  0  0
  -33.0629   58.6714   64.6575 C   0  0  0  0  0  0  0  0  0  0  0  0
  -32.5069   58.4355   63.2550 C   0  0  0  0  0  0  0  0  0  0  0  0
  -42.2524   62.0587   64.3910 O   0  0  0  0  0  0  0  0  0  0  0  0
  -42.3954   60.6986   64.0257 C   0  0  0  0  0  0  0  0  0  0  0  0
  -41.3137   62.3023   64.3694 H   0  0  0  0  0  0  0  0  0  0  0  0
  -43.8581   60.2484   64.0398 C   0  0  0  0  0  0  0  0  0  0  0  0
  -44.8471   60.9900   64.5673 C   0  0  0  0  0  0  0  0  0  0  0  0
  -46.2831   60.4698   64.5434 C   0  0  0  0  0  0  0  0  0  0  0  0
  -46.6018   59.4728   65.6671 C   0  0  0  0  0  0  0  0  0  0  0  0
  -47.9890   58.8082   65.5948 C   0  0  0  0  0  0  0  0  0  0  0  0
  -49.0858   59.7684   66.1147 C   0  0  0  0  0  0  0  0  0  0  0  0
  -50.5050   59.5238   65.5423 C   0  0  0  0  0  0  0  0  0  0  0  0
  -50.9386   60.5462   64.4653 C   0  0  0  0  0  0  0  0  0  0  0  0
  -51.3406   59.8966   63.1236 C   0  0  0  0  0  0  0  0  0  0  0  0
  -50.1949   59.8177   62.1075 C   0  0  0  0  0  0  0  0  0  0  0  0
  -49.4206   58.5019   62.0697 C   0  0  0  0  0  0  0  0  0  0  0  0
  -49.9970   57.4644   61.0861 C   0  0  0  0  0  0  0  0  0  0  0  0
  -49.1022   57.1369   59.8811 C   0  0  0  0  0  0  0  0  0  0  0  0
  -48.7176   58.4089   59.1200 C   0  0  0  0  0  0  0  0  0  0  0  0
  -47.6497   58.2593   58.0510 C   0  0  0  0  0  0  0  0  0  0  0  0
  -40.2332   60.4856   65.4765 C   0  0  0  0  0  0  0  0  0  0  0  0
  -39.4929   61.1713   64.4348 O   0  0  0  0  0  0  0  0  0  0  0  0
  -37.7176   61.7205   62.2614 O   0  0  0  0  0  0  0  0  0  0  0  0
  -36.0378   64.3878   64.9931 O   0  0  0  0  0  0  0  0  0  0  0  0
  -37.6919   61.9979   65.8344 O   0  0  0  0  0  0  0  0  0  0  0  0
  -38.0409   61.4096   64.5579 C   0  0  0  0  0  0  0  0  0  0  0  0
  -37.4111   62.3113   63.4865 C   0  0  0  0  0  0  0  0  0  0  0  0
  -35.8751   62.4275   63.5982 C   0  0  0  0  0  0  0  0  0  0  0  0
  -35.5961   63.0332   64.9461 C   0  0  0  0  0  0  0  0  0  0  0  0
  -36.2673   62.2079   66.0290 C   0  0  0  0  0  0  0  0  0  0  0  0
  -38.6802   61.6392   62.1734 H   0  0  0  0  0  0  0  0  0  0  0  0
  -35.5972   64.8960   64.2941 H   0  0  0  0  0  0  0  0  0  0  0  0
  -34.4869   63.1053   67.3474 O   0  0  0  0  0  0  0  0  0  0  0  0
  -35.8761   62.9842   67.2846 C   0  0  0  0  0  0  0  0  0  0  0  0
  -34.2410   63.5986   68.1457 H   0  0  0  0  0  0  0  0  0  0  0  0
  -35.2319   63.2874   62.6304 O   0  0  0  0  0  0  0  0  0  0  0  0
  -33.3232   63.6461   60.9142 O   0  0  0  0  0  0  0  0  0  0  0  0
  -33.1469   61.8569   62.5441 O   0  0  0  0  0  0  0  0  0  0  0  0
  -32.8056   64.1593   63.2196 O   0  0  0  0  0  0  0  0  0  0  0  0
  -33.5944   63.2600   62.3306 S   0  0  0  0  0  0  0  0  0  0  0  0
  -33.8291   63.0705   60.3196 H   0  0  0  0  0  0  0  0  0  0  0  0
  -33.0911   65.0769   63.0867 H   0  0  0  0  0  0  0  0  0  0  0  0
  2  1  1  0  0  0
  2  4  1  0  0  0
  2  5  1  0  0  0
 41 42  1  0  0  0
 41  1  1  0  0  0
 42 46  1  0  0  0
  1 24  1  0  0  0
 23 24  1  0  0  0
 23 25  1  0  0  0
 24 26  1  0  0  0
  3  4  2  0  0  0
 26 27  2  0  0  0
 27 28  1  0  0  0
 43 47  1  0  0  0
 43 51  1  0  0  0
 28 29  1  0  0  0
 56 48  1  0  0  0
 56 60  1  0  0  0
 29 30  1  0  0  0
 57 60  1  0  0  0
 57 61  1  0  0  0
 30 31  1  0  0  0
 44 49  1  0  0  0
 44 52  1  0  0  0
 31 32  1  0  0  0
 45 46  1  0  0  0
 45 50  1  0  0  0
 32 33  1  0  0  0
 53 54  1  0  0  0
 53 55  1  0  0  0
 33 34  1  0  0  0
 34 35  1  0  0  0
 35 36  1  0  0  0
 58 60  1  0  0  0
 36 37  1  0  0  0
 59 60  1  0  0  0
 59 62  1  0  0  0
 37 38  1  0  0  0
 38 39  1  0  0  0
 39 40  1  0  0  0
  4  6  1  0  0  0
  6  7  1  0  0  0
  7  8  1  0  0  0
  8  9  1  0  0  0
  9 10  1  0  0  0
 10 11  1  0  0  0
 11 12  1  0  0  0
 12 13  1  0  0  0
 13 14  1  0  0  0
 14 15  1  0  0  0
 15 16  1  0  0  0
 16 17  1  0  0  0
 17 18  1  0  0  0
 18 19  1  0  0  0
 19 20  1  0  0  0
 20 21  1  0  0  0
 21 22  1  0  0  0
 46 47  1  0  0  0
 47 48  1  0  0  0
 48 49  1  0  0  0
 49 50  1  0  0  0
 50 54  1  0  0  0
M  CHG 1  58  -1
M  END
> <minimizedAffinity>
-9.96187

> <CNNscore>
0.2953575552

> <CNNaffinity>
7.1477117538

> <CNN_VS>
2.1111307144

> <CNNaffinity_variance>
2.1920404434

$$$$
/media/chris/experiments/cd1a-new-docking/inputs/ligands/1onq_ligand.pdb


 62 62  0  0  0  0  0  0  0  0999 V2000
  -42.3384   58.7549   64.7458 C   0  0  0  0  0  0  0  0  0  0  0  0
  -40.9486   58.8393   65.1489 N   0  0  0  0  0  0  0  0  0  0  0  0
  -39.9414   57.4372   63.6768 O   0  0  0  0  0  0  0  0  0  0  0  0
  -39.8938   58.2075   64.6159 C   0  0  0  0  0  0  0  0  0  0  0  0
  -40.7555   59.4347   65.9087 H   0  0  0  0  0  0  0  0  0  0  0  0
  -38.5742   58.5155   65.2592 C   0  0  0  0  0  0  0  0  0  0  0  0
  -37.4963   58.0852   64.2644 C   0  0  0  0  0  0  0  0  0  0  0  0
  -36.3361   57.4249   65.0054 C   0  0  0  0  0  0  0  0  0  0  0  0
  -34.9514   57.8660   64.5972 C   0  0  0  0  0  0  0  0  0  0  0  0
  -35.0590   58.5018   63.2152 C   0  0  0  0  0  0  0  0  0  0  0  0
  -33.7892   58.3121   62.3747 C   0  0  0  0  0  0  0  0  0  0  0  0
  -32.5233   58.9339   62.9924 C   0  0  0  0  0  0  0  0  0  0  0  0
  -31.9845   60.1315   62.1793 C   0  0  0  0  0  0  0  0  0  0  0  0
  -30.5177   60.4030   62.5254 C   0  0  0  0  0  0  0  0  0  0  0  0
  -30.0206   61.8005   62.1762 C   0  0  0  0  0  0  0  0  0  0  0  0
  -31.0022   62.5589   61.2950 C   0  0  0  0  0  0  0  0  0  0  0  0
  -30.6882   64.0382   61.0597 C   0  0  0  0  0  0  0  0  0  0  0  0
  -32.0019   64.8082   61.0532 C   0  0  0  0  0  0  0  0  0  0  0  0
  -33.1626   64.2772   61.8815 C   0  0  0  0  0  0  0  0  0  0  0  0
  -33.7154   65.3660   62.8148 C   0  0  0  0  0  0  0  0  0  0  0  0
  -33.4784   65.1030   64.3134 C   0  0  0  0  0  0  0  0  0  0  0  0
  -32.7237   63.8041   64.5867 C   0  0  0  0  0  0  0  0  0  0  0  0
  -42.8502   56.5136   64.4130 O   0  0  0  0  0  0  0  0  0  0  0  0
  -42.8077   57.4875   65.4394 C   0  0  0  0  0  0  0  0  0  0  0  0
  -41.9603   56.3905   64.0471 H   0  0  0  0  0  0  0  0  0  0  0  0
  -44.1850   57.7303   66.0613 C   0  0  0  0  0  0  0  0  0  0  0  0
  -45.2175   58.2477   65.3740 C   0  0  0  0  0  0  0  0  0  0  0  0
  -46.5618   58.4606   66.0673 C   0  0  0  0  0  0  0  0  0  0  0  0
  -47.5704   59.2649   65.2340 C   0  0  0  0  0  0  0  0  0  0  0  0
  -48.8047   59.7802   65.9971 C   0  0  0  0  0  0  0  0  0  0  0  0
  -50.0986   59.1287   65.4525 C   0  0  0  0  0  0  0  0  0  0  0  0
  -51.0266   60.0731   64.6472 C   0  0  0  0  0  0  0  0  0  0  0  0
  -51.2462   59.6434   63.1774 C   0  0  0  0  0  0  0  0  0  0  0  0
  -50.3822   58.4369   62.7512 C   0  0  0  0  0  0  0  0  0  0  0  0
  -50.4200   58.1513   61.2451 C   0  0  0  0  0  0  0  0  0  0  0  0
  -49.0664   57.9629   60.5633 C   0  0  0  0  0  0  0  0  0  0  0  0
  -49.1292   58.0085   59.0238 C   0  0  0  0  0  0  0  0  0  0  0  0
  -47.8307   58.4442   58.3281 C   0  0  0  0  0  0  0  0  0  0  0  0
  -47.5904   57.6309   57.0531 C   0  0  0  0  0  0  0  0  0  0  0  0
  -47.2705   56.1586   57.2415 C   0  0  0  0  0  0  0  0  0  0  0  0
  -42.5982   58.8591   63.2258 C   0  0  0  0  0  0  0  0  0  0  0  0
  -42.3713   60.1556   62.6169 O   0  0  0  0  0  0  0  0  0  0  0  0
  -39.9910   61.4867   63.4769 O   0  0  0  0  0  0  0  0  0  0  0  0
  -38.1403   58.5617   61.1493 O   0  0  0  0  0  0  0  0  0  0  0  0
  -41.0192   59.4026   60.7485 O   0  0  0  0  0  0  0  0  0  0  0  0
  -41.1840   60.4094   61.7765 C   0  0  0  0  0  0  0  0  0  0  0  0
  -39.8394   60.4903   62.5135 C   0  0  0  0  0  0  0  0  0  0  0  0
  -38.6540   60.8740   61.6010 C   0  0  0  0  0  0  0  0  0  0  0  0
  -38.5561   59.7920   60.5613 C   0  0  0  0  0  0  0  0  0  0  0  0
  -39.8926   59.6313   59.8597 C   0  0  0  0  0  0  0  0  0  0  0  0
  -40.7327   61.2623   64.0603 H   0  0  0  0  0  0  0  0  0  0  0  0
  -37.2860   58.6870   61.5912 H   0  0  0  0  0  0  0  0  0  0  0  0
  -38.2911   58.6634   58.3726 O   0  0  0  0  0  0  0  0  0  0  0  0
  -39.5829   58.5041   58.8771 C   0  0  0  0  0  0  0  0  0  0  0  0
  -38.0968   57.9464   57.7488 H   0  0  0  0  0  0  0  0  0  0  0  0
  -37.3578   60.9376   62.2380 O   0  0  0  0  0  0  0  0  0  0  0  0
  -36.5736   63.3769   61.8478 O   0  0  0  0  0  0  0  0  0  0  0  0
  -35.3932   61.9807   63.4436 O   0  0  0  0  0  0  0  0  0  0  0  0
  -37.5662   62.8987   64.0001 O   0  0  0  0  0  0  0  0  0  0  0  0
  -36.7340   62.3315   62.9014 S   0  0  0  0  0  0  0  0  0  0  0  0
  -36.0336   63.0252   61.1229 H   0  0  0  0  0  0  0  0  0  0  0  0
  -38.4427   63.1304   63.6551 H   0  0  0  0  0  0  0  0  0  0  0  0
  2  1  1  0  0  0
  2  4  1  0  0  0
  2  5  1  0  0  0
 41 42  1  0  0  0
 41  1  1  0  0  0
 42 46  1  0  0  0
  1 24  1  0  0  0
 23 24  1  0  0  0
 23 25  1  0  0  0
 24 26  1  0  0  0
  3  4  2  0  0  0
 26 27  2  0  0  0
 27 28  1  0  0  0
 43 47  1  0  0  0
 43 51  1  0  0  0
 28 29  1  0  0  0
 56 48  1  0  0  0
 56 60  1  0  0  0
 29 30  1  0  0  0
 57 60  1  0  0  0
 57 61  1  0  0  0
 30 31  1  0  0  0
 44 49  1  0  0  0
 44 52  1  0  0  0
 31 32  1  0  0  0
 45 46  1  0  0  0
 45 50  1  0  0  0
 32 33  1  0  0  0
 53 54  1  0  0  0
 53 55  1  0  0  0
 33 34  1  0  0  0
 34 35  1  0  0  0
 35 36  1  0  0  0
 58 60  1  0  0  0
 36 37  1  0  0  0
 59 60  1  0  0  0
 59 62  1  0  0  0
 37 38  1  0  0  0
 38 39  1  0  0  0
 39 40  1  0  0  0
  4  6  1  0  0  0
  6  7  1  0  0  0
  7  8  1  0  0  0
  8  9  1  0  0  0
  9 10  1  0  0  0
 10 11  1  0  0  0
 11 12  1  0  0  0
 12 13  1  0  0  0
 13 14  1  0  0  0
 14 15  1  0  0  0
 15 16  1  0  0  0
 16 17  1  0  0  0
 17 18  1  0  0  0
 18 19  1  0  0  0
 19 20  1  0  0  0
 20 21  1  0  0  0
 21 22  1  0  0  0
 46 47  1  0  0  0
 47 48  1  0  0  0
 48 49  1  0  0  0
 49 50  1  0  0  0
 50 54  1  0  0  0
M  CHG 1  58  -1
M  END
> <minimizedAffinity>
-9.09641

> <CNNscore>
0.2139737159

> <CNNaffinity>
6.6409177780

> <CNN_VS>
1.4209818840

> <CNNaffinity_variance>
1.1094412804

$$$$
/media/chris/experiments/cd1a-new-docking/inputs/ligands/1onq_ligand.pdb


 62 62  0  0  0  0  0  0  0  0999 V2000
  -42.4254   59.6497   64.7309 C   0  0  0  0  0  0  0  0  0  0  0  0
  -43.6783   59.1983   65.3031 N   0  0  0  0  0  0  0  0  0  0  0  0
  -43.4991   56.9440   65.1196 O   0  0  0  0  0  0  0  0  0  0  0  0
  -44.1123   57.9394   65.4529 C   0  0  0  0  0  0  0  0  0  0  0  0
  -44.2861   59.9044   65.6212 H   0  0  0  0  0  0  0  0  0  0  0  0
  -45.4613   57.8020   66.0941 C   0  0  0  0  0  0  0  0  0  0  0  0
  -46.4121   58.6970   65.2993 C   0  0  0  0  0  0  0  0  0  0  0  0
  -47.3233   59.4666   66.2525 C   0  0  0  0  0  0  0  0  0  0  0  0
  -48.3578   60.3568   65.6076 C   0  0  0  0  0  0  0  0  0  0  0  0
  -49.7322   59.8269   66.0026 C   0  0  0  0  0  0  0  0  0  0  0  0
  -50.0227   58.4380   65.4183 C   0  0  0  0  0  0  0  0  0  0  0  0
  -49.9539   58.3714   63.8817 C   0  0  0  0  0  0  0  0  0  0  0  0
  -51.1486   59.0705   63.1963 C   0  0  0  0  0  0  0  0  0  0  0  0
  -50.6604   60.1786   62.2588 C   0  0  0  0  0  0  0  0  0  0  0  0
  -49.3137   59.9158   61.5959 C   0  0  0  0  0  0  0  0  0  0  0  0
  -49.4527   59.5854   60.1172 C   0  0  0  0  0  0  0  0  0  0  0  0
  -50.1494   58.2631   59.7876 C   0  0  0  0  0  0  0  0  0  0  0  0
  -49.2342   57.1237   60.2151 C   0  0  0  0  0  0  0  0  0  0  0  0
  -47.8378   57.0459   59.6158 C   0  0  0  0  0  0  0  0  0  0  0  0
  -47.8369   56.2016   58.3316 C   0  0  0  0  0  0  0  0  0  0  0  0
  -47.0684   56.8301   57.1547 C   0  0  0  0  0  0  0  0  0  0  0  0
  -47.0407   58.3562   57.1976 C   0  0  0  0  0  0  0  0  0  0  0  0
  -41.6124   61.3267   66.1176 O   0  0  0  0  0  0  0  0  0  0  0  0
  -41.5776   59.9201   65.9620 C   0  0  0  0  0  0  0  0  0  0  0  0
  -42.5273   61.6130   66.2660 H   0  0  0  0  0  0  0  0  0  0  0  0
  -40.1576   59.4013   65.7236 C   0  0  0  0  0  0  0  0  0  0  0  0
  -39.0643   60.1702   65.8637 C   0  0  0  0  0  0  0  0  0  0  0  0
  -37.6801   59.5778   65.6064 C   0  0  0  0  0  0  0  0  0  0  0  0
  -37.7022   58.2799   64.7858 C   0  0  0  0  0  0  0  0  0  0  0  0
  -36.3383   57.5929   64.5884 C   0  0  0  0  0  0  0  0  0  0  0  0
  -35.2933   58.5940   64.0397 C   0  0  0  0  0  0  0  0  0  0  0  0
  -34.1658   57.9689   63.1798 C   0  0  0  0  0  0  0  0  0  0  0  0
  -32.7601   58.5521   63.4575 C   0  0  0  0  0  0  0  0  0  0  0  0
  -32.3257   59.6279   62.4388 C   0  0  0  0  0  0  0  0  0  0  0  0
  -30.8536   60.0385   62.5639 C   0  0  0  0  0  0  0  0  0  0  0  0
  -30.2883   60.8695   61.4139 C   0  0  0  0  0  0  0  0  0  0  0  0
  -29.9186   62.3132   61.8076 C   0  0  0  0  0  0  0  0  0  0  0  0
  -30.8291   63.4045   61.2244 C   0  0  0  0  0  0  0  0  0  0  0  0
  -32.2008   63.3978   61.9052 C   0  0  0  0  0  0  0  0  0  0  0  0
  -33.2737   64.2649   61.2708 C   0  0  0  0  0  0  0  0  0  0  0  0
  -42.5397   60.7906   63.6944 C   0  0  0  0  0  0  0  0  0  0  0  0
  -42.4267   60.4123   62.2989 O   0  0  0  0  0  0  0  0  0  0  0  0
  -40.0687   61.6628   63.3252 O   0  0  0  0  0  0  0  0  0  0  0  0
  -38.1666   58.5726   61.2681 O   0  0  0  0  0  0  0  0  0  0  0  0
  -40.9543   59.5301   60.5844 O   0  0  0  0  0  0  0  0  0  0  0  0
  -41.1591   60.5802   61.5605 C   0  0  0  0  0  0  0  0  0  0  0  0
  -39.8821   60.6259   62.4119 C   0  0  0  0  0  0  0  0  0  0  0  0
  -38.6037   60.9211   61.5972 C   0  0  0  0  0  0  0  0  0  0  0  0
  -38.4681   59.7984   60.6059 C   0  0  0  0  0  0  0  0  0  0  0  0
  -39.7441   59.6740   59.7931 C   0  0  0  0  0  0  0  0  0  0  0  0
  -40.8688   61.4942   63.8468 H   0  0  0  0  0  0  0  0  0  0  0  0
  -37.3492   58.6744   61.7805 H   0  0  0  0  0  0  0  0  0  0  0  0
  -38.1320   58.6794   58.3352 O   0  0  0  0  0  0  0  0  0  0  0  0
  -39.4050   58.4986   58.8790 C   0  0  0  0  0  0  0  0  0  0  0  0
  -37.9191   57.9316   57.7551 H   0  0  0  0  0  0  0  0  0  0  0  0
  -37.3670   60.9481   62.3453 O   0  0  0  0  0  0  0  0  0  0  0  0
  -36.5988   63.3878   61.9270 O   0  0  0  0  0  0  0  0  0  0  0  0
  -35.3557   61.9897   63.4728 O   0  0  0  0  0  0  0  0  0  0  0  0
  -37.5047   62.9071   64.1167 O   0  0  0  0  0  0  0  0  0  0  0  0
  -36.7171   62.3411   62.9850 S   0  0  0  0  0  0  0  0  0  0  0  0
  -36.0882   63.0369   61.1807 H   0  0  0  0  0  0  0  0  0  0  0  0
  -38.3943   63.1392   63.8073 H   0  0  0  0  0  0  0  0  0  0  0  0
  2  1  1  0  0  0
  2  4  1  0  0  0
  2  5  1  0  0  0
 41 42  1  0  0  0
 41  1  1  0  0  0
 42 46  1  0  0  0
  1 24  1  0  0  0
 23 24  1  0  0  0
 23 25  1  0  0  0
 24 26  1  0  0  0
  3  4  2  0  0  0
 26 27  2  0  0  0
 27 28  1  0  0  0
 43 47  1  0  0  0
 43 51  1  0  0  0
 28 29  1  0  0  0
 56 48  1  0  0  0
 56 60  1  0  0  0
 29 30  1  0  0  0
 57 60  1  0  0  0
 57 61  1  0  0  0
 30 31  1  0  0  0
 44 49  1  0  0  0
 44 52  1  0  0  0
 31 32  1  0  0  0
 45 46  1  0  0  0
 45 50  1  0  0  0
 32 33  1  0  0  0
 53 54  1  0  0  0
 53 55  1  0  0  0
 33 34  1  0  0  0
 34 35  1  0  0  0
 35 36  1  0  0  0
 58 60  1  0  0  0
 36 37  1  0  0  0
 59 60  1  0  0  0
 59 62  1  0  0  0
 37 38  1  0  0  0
 38 39  1  0  0  0
 39 40  1  0  0  0
  4  6  1  0  0  0
  6  7  1  0  0  0
  7  8  1  0  0  0
  8  9  1  0  0  0
  9 10  1  0  0  0
 10 11  1  0  0  0
 11 12  1  0  0  0
 12 13  1  0  0  0
 13 14  1  0  0  0
 14 15  1  0  0  0
 15 16  1  0  0  0
 16 17  1  0  0  0
 17 18  1  0  0  0
 18 19  1  0  0  0
 19 20  1  0  0  0
 20 21  1  0  0  0
 21 22  1  0  0  0
 46 47  1  0  0  0
 47 48  1  0  0  0
 48 49  1  0  0  0
 49 50  1  0  0  0
 50 54  1  0  0  0
M  CHG 1  58  -1
M  END
> <minimizedAffinity>
-9.20478

> <CNNscore>
0.1932649016

> <CNNaffinity>
6.6612958908

> <CNN_VS>
1.2873946428

> <CNNaffinity_variance>
1.3959934711

$$$$
/media/chris/experiments/cd1a-new-docking/inputs/ligands/1onq_ligand.pdb


 62 62  0  0  0  0  0  0  0  0999 V2000
  -40.9349   60.1903   64.3498 C   0  0  0  0  0  0  0  0  0  0  0  0
  -41.6198   58.9327   64.5745 N   0  0  0  0  0  0  0  0  0  0  0  0
  -41.7672   58.8702   66.8376 O   0  0  0  0  0  0  0  0  0  0  0  0
  -41.9737   58.3819   65.7437 C   0  0  0  0  0  0  0  0  0  0  0  0
  -41.8542   58.4194   63.7678 H   0  0  0  0  0  0  0  0  0  0  0  0
  -42.6840   57.0649   65.6391 C   0  0  0  0  0  0  0  0  0  0  0  0
  -42.7361   56.7177   64.1513 C   0  0  0  0  0  0  0  0  0  0  0  0
  -41.6811   55.6635   63.8243 C   0  0  0  0  0  0  0  0  0  0  0  0
  -41.1995   55.6283   62.3942 C   0  0  0  0  0  0  0  0  0  0  0  0
  -41.5401   56.9728   61.7600 C   0  0  0  0  0  0  0  0  0  0  0  0
  -41.4298   56.9514   60.2295 C   0  0  0  0  0  0  0  0  0  0  0  0
  -41.1470   58.3263   59.5968 C   0  0  0  0  0  0  0  0  0  0  0  0
  -39.7036   58.4559   59.0625 C   0  0  0  0  0  0  0  0  0  0  0  0
  -38.8388   59.2643   60.0339 C   0  0  0  0  0  0  0  0  0  0  0  0
  -37.6295   58.5231   60.5910 C   0  0  0  0  0  0  0  0  0  0  0  0
  -38.0074   57.5553   61.7027 C   0  0  0  0  0  0  0  0  0  0  0  0
  -37.1606   57.6313   62.9752 C   0  0  0  0  0  0  0  0  0  0  0  0
  -35.9090   58.4417   62.6662 C   0  0  0  0  0  0  0  0  0  0  0  0
  -34.5582   57.7427   62.7106 C   0  0  0  0  0  0  0  0  0  0  0  0
  -33.4096   58.7600   62.6218 C   0  0  0  0  0  0  0  0  0  0  0  0
  -32.4722   58.7729   63.8433 C   0  0  0  0  0  0  0  0  0  0  0  0
  -33.2046   58.5771   65.1688 C   0  0  0  0  0  0  0  0  0  0  0  0
  -41.4745   62.1962   63.3100 O   0  0  0  0  0  0  0  0  0  0  0  0
  -41.7408   60.8089   63.2204 C   0  0  0  0  0  0  0  0  0  0  0  0
  -40.5266   62.3528   63.1759 H   0  0  0  0  0  0  0  0  0  0  0  0
  -43.2243   60.4921   63.4236 C   0  0  0  0  0  0  0  0  0  0  0  0
  -44.0120   61.1843   64.2642 C   0  0  0  0  0  0  0  0  0  0  0  0
  -45.4843   60.8054   64.4121 C   0  0  0  0  0  0  0  0  0  0  0  0
  -45.7346   59.2910   64.4604 C   0  0  0  0  0  0  0  0  0  0  0  0
  -47.1353   58.8617   64.9346 C   0  0  0  0  0  0  0  0  0  0  0  0
  -47.8244   60.0050   65.7178 C   0  0  0  0  0  0  0  0  0  0  0  0
  -49.3729   60.0089   65.6573 C   0  0  0  0  0  0  0  0  0  0  0  0
  -49.9533   60.5238   64.3190 C   0  0  0  0  0  0  0  0  0  0  0  0
  -50.8712   59.5040   63.6110 C   0  0  0  0  0  0  0  0  0  0  0  0
  -50.1195   58.5194   62.7073 C   0  0  0  0  0  0  0  0  0  0  0  0
  -50.9644   57.7771   61.6740 C   0  0  0  0  0  0  0  0  0  0  0  0
  -50.5548   58.0550   60.2142 C   0  0  0  0  0  0  0  0  0  0  0  0
  -49.2806   57.3372   59.7438 C   0  0  0  0  0  0  0  0  0  0  0  0
  -48.9238   57.7345   58.3085 C   0  0  0  0  0  0  0  0  0  0  0  0
  -47.4806   58.1341   58.0575 C   0  0  0  0  0  0  0  0  0  0  0  0
  -39.4062   60.0886   64.1457 C   0  0  0  0  0  0  0  0  0  0  0  0
  -38.8354   60.9154   63.0999 O   0  0  0  0  0  0  0  0  0  0  0  0
  -37.3336   61.1791   65.5190 O   0  0  0  0  0  0  0  0  0  0  0  0
  -34.3766   62.5529   62.9176 O   0  0  0  0  0  0  0  0  0  0  0  0
  -37.3226   62.6002   62.2289 O   0  0  0  0  0  0  0  0  0  0  0  0
  -37.9185   62.0280   63.4185 C   0  0  0  0  0  0  0  0  0  0  0  0
  -36.7531   61.6945   64.3608 C   0  0  0  0  0  0  0  0  0  0  0  0
  -35.8997   62.9213   64.7504 C   0  0  0  0  0  0  0  0  0  0  0  0
  -35.3282   63.4604   63.4681 C   0  0  0  0  0  0  0  0  0  0  0  0
  -36.4487   63.7334   62.4811 C   0  0  0  0  0  0  0  0  0  0  0  0
  -37.8745   60.4063   65.2933 H   0  0  0  0  0  0  0  0  0  0  0  0
  -33.6710   62.3929   63.5636 H   0  0  0  0  0  0  0  0  0  0  0  0
  -35.7411   65.6440   61.2312 O   0  0  0  0  0  0  0  0  0  0  0  0
  -35.6677   64.2507   61.2751 C   0  0  0  0  0  0  0  0  0  0  0  0
  -35.2443   65.9700   60.4645 H   0  0  0  0  0  0  0  0  0  0  0  0
  -34.7708   62.6600   65.6149 O   0  0  0  0  0  0  0  0  0  0  0  0
  -35.2589   64.5793   67.2869 O   0  0  0  0  0  0  0  0  0  0  0  0
  -33.2906   64.6957   65.8721 O   0  0  0  0  0  0  0  0  0  0  0  0
  -33.3384   63.1931   67.7732 O   0  0  0  0  0  0  0  0  0  0  0  0
  -34.1526   63.7857   66.6744 S   0  0  0  0  0  0  0  0  0  0  0  0
  -35.8007   64.9735   66.5856 H   0  0  0  0  0  0  0  0  0  0  0  0
  -33.8929   62.5981   68.3018 H   0  0  0  0  0  0  0  0  0  0  0  0
  2  1  1  0  0  0
  2  4  1  0  0  0
  2  5  1  0  0  0
 41 42  1  0  0  0
 41  1  1  0  0  0
 42 46  1  0  0  0
  1 24  1  0  0  0
 23 24  1  0  0  0
 23 25  1  0  0  0
 24 26  1  0  0  0
  3  4  2  0  0  0
 26 27  2  0  0  0
 27 28  1  0  0  0
 43 47  1  0  0  0
 43 51  1  0  0  0
 28 29  1  0  0  0
 56 48  1  0  0  0
 56 60  1  0  0  0
 29 30  1  0  0  0
 57 60  1  0  0  0
 57 61  1  0  0  0
 30 31  1  0  0  0
 44 49  1  0  0  0
 44 52  1  0  0  0
 31 32  1  0  0  0
 45 46  1  0  0  0
 45 50  1  0  0  0
 32 33  1  0  0  0
 53 54  1  0  0  0
 53 55  1  0  0  0
 33 34  1  0  0  0
 34 35  1  0  0  0
 35 36  1  0  0  0
 58 60  1  0  0  0
 36 37  1  0  0  0
 59 60  1  0  0  0
 59 62  1  0  0  0
 37 38  1  0  0  0
 38 39  1  0  0  0
 39 40  1  0  0  0
  4  6  1  0  0  0
  6  7  1  0  0  0
  7  8  1  0  0  0
  8  9  1  0  0  0
  9 10  1  0  0  0
 10 11  1  0  0  0
 11 12  1  0  0  0
 12 13  1  0  0  0
 13 14  1  0  0  0
 14 15  1  0  0  0
 15 16  1  0  0  0
 16 17  1  0  0  0
 17 18  1  0  0  0
 18 19  1  0  0  0
 19 20  1  0  0  0
 20 21  1  0  0  0
 21 22  1  0  0  0
 46 47  1  0  0  0
 47 48  1  0  0  0
 48 49  1  0  0  0
 49 50  1  0  0  0
 50 54  1  0  0  0
M  CHG 1  58  -1
M  END
> <minimizedAffinity>
-9.35492

> <CNNscore>
0.1822037548

> <CNNaffinity>
7.0296506882

> <CNN_VS>
1.2808287144

> <CNNaffinity_variance>
1.5138734579

$$$$
/media/chris/experiments/cd1a-new-docking/inputs/ligands/1onq_ligand.pdb


 62 62  0  0  0  0  0  0  0  0999 V2000
  -41.5425   60.5110   64.9343 C   0  0  0  0  0  0  0  0  0  0  0  0
  -42.2868   59.2738   64.8068 N   0  0  0  0  0  0  0  0  0  0  0  0
  -42.0686   58.3730   66.8777 O   0  0  0  0  0  0  0  0  0  0  0  0
  -42.4914   58.3328   65.7386 C   0  0  0  0  0  0  0  0  0  0  0  0
  -42.6924   59.1035   63.9261 H   0  0  0  0  0  0  0  0  0  0  0  0
  -43.3193   57.1639   65.2935 C   0  0  0  0  0  0  0  0  0  0  0  0
  -44.5959   57.7440   64.6846 C   0  0  0  0  0  0  0  0  0  0  0  0
  -45.4794   58.3286   65.7841 C   0  0  0  0  0  0  0  0  0  0  0  0
  -46.5123   59.3357   65.3399 C   0  0  0  0  0  0  0  0  0  0  0  0
  -47.8846   58.7810   65.7076 C   0  0  0  0  0  0  0  0  0  0  0  0
  -48.8890   59.8806   66.0775 C   0  0  0  0  0  0  0  0  0  0  0  0
  -50.3527   59.5379   65.7447 C   0  0  0  0  0  0  0  0  0  0  0  0
  -51.0200   60.5837   64.8246 C   0  0  0  0  0  0  0  0  0  0  0  0
  -51.3496   59.9707   63.4605 C   0  0  0  0  0  0  0  0  0  0  0  0
  -50.1902   59.9351   62.4723 C   0  0  0  0  0  0  0  0  0  0  0  0
  -49.8040   58.5149   62.0863 C   0  0  0  0  0  0  0  0  0  0  0  0
  -50.7514   57.8011   61.1193 C   0  0  0  0  0  0  0  0  0  0  0  0
  -49.9773   57.4735   59.8496 C   0  0  0  0  0  0  0  0  0  0  0  0
  -48.8183   56.4912   59.9351 C   0  0  0  0  0  0  0  0  0  0  0  0
  -47.5701   57.0515   59.2351 C   0  0  0  0  0  0  0  0  0  0  0  0
  -47.8315   58.2895   58.3576 C   0  0  0  0  0  0  0  0  0  0  0  0
  -46.9511   58.3433   57.1112 C   0  0  0  0  0  0  0  0  0  0  0  0
  -43.5266   61.5137   64.2605 O   0  0  0  0  0  0  0  0  0  0  0  0
  -42.1729   61.3881   63.8661 C   0  0  0  0  0  0  0  0  0  0  0  0
  -43.5720   61.9481   65.1266 H   0  0  0  0  0  0  0  0  0  0  0  0
  -42.0302   60.7079   62.5025 C   0  0  0  0  0  0  0  0  0  0  0  0
  -41.4244   61.2906   61.4538 C   0  0  0  0  0  0  0  0  0  0  0  0
  -41.3230   60.5456   60.1242 C   0  0  0  0  0  0  0  0  0  0  0  0
  -39.9027   60.0708   59.7844 C   0  0  0  0  0  0  0  0  0  0  0  0
  -39.7886   58.6233   59.2718 C   0  0  0  0  0  0  0  0  0  0  0  0
  -41.1099   57.8521   59.5055 C   0  0  0  0  0  0  0  0  0  0  0  0
  -41.0122   56.6524   60.4816 C   0  0  0  0  0  0  0  0  0  0  0  0
  -41.3287   57.0063   61.9539 C   0  0  0  0  0  0  0  0  0  0  0  0
  -40.0785   57.3686   62.7843 C   0  0  0  0  0  0  0  0  0  0  0  0
  -38.7551   57.1016   62.0571 C   0  0  0  0  0  0  0  0  0  0  0  0
  -37.6293   58.0984   62.3243 C   0  0  0  0  0  0  0  0  0  0  0  0
  -36.4404   57.5052   63.1058 C   0  0  0  0  0  0  0  0  0  0  0  0
  -35.8460   58.4200   64.1874 C   0  0  0  0  0  0  0  0  0  0  0  0
  -34.4693   58.9439   63.7687 C   0  0  0  0  0  0  0  0  0  0  0  0
  -33.7861   58.2106   62.6280 C   0  0  0  0  0  0  0  0  0  0  0  0
  -40.0037   60.3682   64.9054 C   0  0  0  0  0  0  0  0  0  0  0  0
  -39.2714   61.3903   64.1827 O   0  0  0  0  0  0  0  0  0  0  0  0
  -37.3651   61.8562   62.1027 O   0  0  0  0  0  0  0  0  0  0  0  0
  -35.7345   64.4835   64.9022 O   0  0  0  0  0  0  0  0  0  0  0  0
  -37.5174   62.1626   65.6702 O   0  0  0  0  0  0  0  0  0  0  0  0
  -37.8201   61.5767   64.3808 C   0  0  0  0  0  0  0  0  0  0  0  0
  -37.1020   62.4458   63.3385 C   0  0  0  0  0  0  0  0  0  0  0  0
  -35.5708   62.5069   63.5306 C   0  0  0  0  0  0  0  0  0  0  0  0
  -35.3411   63.1134   64.8874 C   0  0  0  0  0  0  0  0  0  0  0  0
  -36.0983   62.3223   65.9386 C   0  0  0  0  0  0  0  0  0  0  0  0
  -38.3241   61.8093   61.9645 H   0  0  0  0  0  0  0  0  0  0  0  0
  -35.2394   64.9695   64.2242 H   0  0  0  0  0  0  0  0  0  0  0  0
  -34.3588   63.2163   67.3128 O   0  0  0  0  0  0  0  0  0  0  0  0
  -35.7455   63.0944   67.2080 C   0  0  0  0  0  0  0  0  0  0  0  0
  -34.1374   63.7069   68.1198 H   0  0  0  0  0  0  0  0  0  0  0  0
  -34.8464   63.3347   62.5926 O   0  0  0  0  0  0  0  0  0  0  0  0
  -32.8931   63.7090   60.9306 O   0  0  0  0  0  0  0  0  0  0  0  0
  -32.9581   61.6830   62.2650 O   0  0  0  0  0  0  0  0  0  0  0  0
  -32.3345   63.7929   63.2816 O   0  0  0  0  0  0  0  0  0  0  0  0
  -33.2230   63.1474   62.2740 S   0  0  0  0  0  0  0  0  0  0  0  0
  -33.4626   63.2998   60.2605 H   0  0  0  0  0  0  0  0  0  0  0  0
  -32.5006   64.7485   63.2941 H   0  0  0  0  0  0  0  0  0  0  0  0
  2  1  1  0  0  0
  2  4  1  0  0  0
  2  5  1  0  0  0
 41 42  1  0  0  0
 41  1  1  0  0  0
 42 46  1  0  0  0
  1 24  1  0  0  0
 23 24  1  0  0  0
 23 25  1  0  0  0
 24 26  1  0  0  0
  3  4  2  0  0  0
 26 27  2  0  0  0
 27 28  1  0  0  0
 43 47  1  0  0  0
 43 51  1  0  0  0
 28 29  1  0  0  0
 56 48  1  0  0  0
 56 60  1  0  0  0
 29 30  1  0  0  0
 57 60  1  0  0  0
 57 61  1  0  0  0
 30 31  1  0  0  0
 44 49  1  0  0  0
 44 52  1  0  0  0
 31 32  1  0  0  0
 45 46  1  0  0  0
 45 50  1  0  0  0
 32 33  1  0  0  0
 53 54  1  0  0  0
 53 55  1  0  0  0
 33 34  1  0  0  0
 34 35  1  0  0  0
 35 36  1  0  0  0
 58 60  1  0  0  0
 36 37  1  0  0  0
 59 60  1  0  0  0
 59 62  1  0  0  0
 37 38  1  0  0  0
 38 39  1  0  0  0
 39 40  1  0  0  0
  4  6  1  0  0  0
  6  7  1  0  0  0
  7  8  1  0  0  0
  8  9  1  0  0  0
  9 10  1  0  0  0
 10 11  1  0  0  0
 11 12  1  0  0  0
 12 13  1  0  0  0
 13 14  1  0  0  0
 14 15  1  0  0  0
 15 16  1  0  0  0
 16 17  1  0  0  0
 17 18  1  0  0  0
 18 19  1  0  0  0
 19 20  1  0  0  0
 20 21  1  0  0  0
 21 22  1  0  0  0
 46 47  1  0  0  0
 47 48  1  0  0  0
 48 49  1  0  0  0
 49 50  1  0  0  0
 50 54  1  0  0  0
M  CHG 1  58  -1
M  END
> <minimizedAffinity>
-9.47474

> <CNNscore>
0.1613796353

> <CNNaffinity>
7.1768937111

> <CNN_VS>
1.1582044363

> <CNNaffinity_variance>
1.5916219950

$$$$
/media/chris/experiments/cd1a-new-docking/inputs/ligands/1onq_ligand.pdb


 62 62  0  0  0  0  0  0  0  0999 V2000
  -40.6836   60.0213   63.5807 C   0  0  0  0  0  0  0  0  0  0  0  0
  -41.7716   60.6856   64.2707 N   0  0  0  0  0  0  0  0  0  0  0  0
  -43.0207   61.4677   62.5457 O   0  0  0  0  0  0  0  0  0  0  0  0
  -42.8163   61.3327   63.7364 C   0  0  0  0  0  0  0  0  0  0  0  0
  -41.7390   60.6579   65.2542 H   0  0  0  0  0  0  0  0  0  0  0  0
  -43.7834   61.9098   64.7271 C   0  0  0  0  0  0  0  0  0  0  0  0
  -45.0529   61.0629   64.6372 C   0  0  0  0  0  0  0  0  0  0  0  0
  -45.0045   59.9390   65.6695 C   0  0  0  0  0  0  0  0  0  0  0  0
  -45.6987   58.6549   65.2853 C   0  0  0  0  0  0  0  0  0  0  0  0
  -47.0287   59.0261   64.6378 C   0  0  0  0  0  0  0  0  0  0  0  0
  -48.2384   58.5806   65.4704 C   0  0  0  0  0  0  0  0  0  0  0  0
  -49.0937   59.7400   66.0133 C   0  0  0  0  0  0  0  0  0  0  0  0
  -50.5581   59.6854   65.5252 C   0  0  0  0  0  0  0  0  0  0  0  0
  -50.7352   60.5209   64.2542 C   0  0  0  0  0  0  0  0  0  0  0  0
  -51.4402   59.8079   63.1067 C   0  0  0  0  0  0  0  0  0  0  0  0
  -50.8131   58.4572   62.7940 C   0  0  0  0  0  0  0  0  0  0  0  0
  -49.4885   58.4934   62.0282 C   0  0  0  0  0  0  0  0  0  0  0  0
  -49.6674   59.3898   60.8103 C   0  0  0  0  0  0  0  0  0  0  0  0
  -49.6469   58.7545   59.4279 C   0  0  0  0  0  0  0  0  0  0  0  0
  -48.3755   57.9146   59.2276 C   0  0  0  0  0  0  0  0  0  0  0  0
  -47.5471   58.2958   57.9869 C   0  0  0  0  0  0  0  0  0  0  0  0
  -47.0975   57.0889   57.1667 C   0  0  0  0  0  0  0  0  0  0  0  0
  -39.1930   59.0849   65.0963 O   0  0  0  0  0  0  0  0  0  0  0  0
  -40.4262   58.8087   64.4586 C   0  0  0  0  0  0  0  0  0  0  0  0
  -39.2815   59.8841   65.6389 H   0  0  0  0  0  0  0  0  0  0  0  0
  -40.3548   57.5551   63.5835 C   0  0  0  0  0  0  0  0  0  0  0  0
  -41.4044   57.0893   62.8852 C   0  0  0  0  0  0  0  0  0  0  0  0
  -41.2530   55.8297   62.0346 C   0  0  0  0  0  0  0  0  0  0  0  0
  -41.2211   56.1003   60.5233 C   0  0  0  0  0  0  0  0  0  0  0  0
  -41.6937   57.4992   60.0865 C   0  0  0  0  0  0  0  0  0  0  0  0
  -40.6446   58.1716   59.1686 C   0  0  0  0  0  0  0  0  0  0  0  0
  -40.1339   59.5537   59.6489 C   0  0  0  0  0  0  0  0  0  0  0  0
  -38.6289   59.5839   60.0052 C   0  0  0  0  0  0  0  0  0  0  0  0
  -38.1194   58.2744   60.6452 C   0  0  0  0  0  0  0  0  0  0  0  0
  -37.0228   58.4862   61.6959 C   0  0  0  0  0  0  0  0  0  0  0  0
  -36.9885   57.4783   62.8429 C   0  0  0  0  0  0  0  0  0  0  0  0
  -35.9646   57.8179   63.9441 C   0  0  0  0  0  0  0  0  0  0  0  0
  -35.0360   59.0013   63.6323 C   0  0  0  0  0  0  0  0  0  0  0  0
  -33.9448   59.1395   64.6977 C   0  0  0  0  0  0  0  0  0  0  0  0
  -32.5357   58.7654   64.2735 C   0  0  0  0  0  0  0  0  0  0  0  0
  -39.4670   60.9126   63.2426 C   0  0  0  0  0  0  0  0  0  0  0  0
  -38.8879   61.6627   64.3405 O   0  0  0  0  0  0  0  0  0  0  0  0
  -37.0288   62.0571   62.2038 O   0  0  0  0  0  0  0  0  0  0  0  0
  -35.2055   64.6043   64.9580 O   0  0  0  0  0  0  0  0  0  0  0  0
  -37.0586   62.3563   65.7751 O   0  0  0  0  0  0  0  0  0  0  0  0
  -37.4248   61.7882   64.4942 C   0  0  0  0  0  0  0  0  0  0  0  0
  -36.7036   62.6307   63.4323 C   0  0  0  0  0  0  0  0  0  0  0  0
  -35.1661   62.6278   63.5773 C   0  0  0  0  0  0  0  0  0  0  0  0
  -34.8698   63.2192   64.9278 C   0  0  0  0  0  0  0  0  0  0  0  0
  -35.6265   62.4562   65.9999 C   0  0  0  0  0  0  0  0  0  0  0  0
  -37.9927   62.0504   62.0951 H   0  0  0  0  0  0  0  0  0  0  0  0
  -34.7117   65.0719   64.2663 H   0  0  0  0  0  0  0  0  0  0  0  0
  -36.2349   64.0546   67.6698 O   0  0  0  0  0  0  0  0  0  0  0  0
  -35.2032   63.2083   67.2598 C   0  0  0  0  0  0  0  0  0  0  0  0
  -35.9636   64.5310   68.4700 H   0  0  0  0  0  0  0  0  0  0  0  0
  -34.4371   63.4283   62.6194 O   0  0  0  0  0  0  0  0  0  0  0  0
  -32.5366   63.7923   60.8951 O   0  0  0  0  0  0  0  0  0  0  0  0
  -32.7352   61.6534   62.0241 O   0  0  0  0  0  0  0  0  0  0  0  0
  -31.8631   63.5803   63.2076 O   0  0  0  0  0  0  0  0  0  0  0  0
  -32.8562   63.1270   62.1928 S   0  0  0  0  0  0  0  0  0  0  0  0
  -33.1739   63.5088   60.2209 H   0  0  0  0  0  0  0  0  0  0  0  0
  -31.9350   64.5406   63.3238 H   0  0  0  0  0  0  0  0  0  0  0  0
  2  1  1  0  0  0
  2  4  1  0  0  0
  2  5  1  0  0  0
 41 42  1  0  0  0
 41  1  1  0  0  0
 42 46  1  0  0  0
  1 24  1  0  0  0
 23 24  1  0  0  0
 23 25  1  0  0  0
 24 26  1  0  0  0
  3  4  2  0  0  0
 26 27  2  0  0  0
 27 28  1  0  0  0
 43 47  1  0  0  0
 43 51  1  0  0  0
 28 29  1  0  0  0
 56 48  1  0  0  0
 56 60  1  0  0  0
 29 30  1  0  0  0
 57 60  1  0  0  0
 57 61  1  0  0  0
 30 31  1  0  0  0
 44 49  1  0  0  0
 44 52  1  0  0  0
 31 32  1  0  0  0
 45 46  1  0  0  0
 45 50  1  0  0  0
 32 33  1  0  0  0
 53 54  1  0  0  0
 53 55  1  0  0  0
 33 34  1  0  0  0
 34 35  1  0  0  0
 35 36  1  0  0  0
 58 60  1  0  0  0
 36 37  1  0  0  0
 59 60  1  0  0  0
 59 62  1  0  0  0
 37 38  1  0  0  0
 38 39  1  0  0  0
 39 40  1  0  0  0
  4  6  1  0  0  0
  6  7  1  0  0  0
  7  8  1  0  0  0
  8  9  1  0  0  0
  9 10  1  0  0  0
 10 11  1  0  0  0
 11 12  1  0  0  0
 12 13  1  0  0  0
 13 14  1  0  0  0
 14 15  1  0  0  0
 15 16  1  0  0  0
 16 17  1  0  0  0
 17 18  1  0  0  0
 18 19  1  0  0  0
 19 20  1  0  0  0
 20 21  1  0  0  0
 21 22  1  0  0  0
 46 47  1  0  0  0
 47 48  1  0  0  0
 48 49  1  0  0  0
 49 50  1  0  0  0
 50 54  1  0  0  0
M  CHG 1  58  -1
M  END
> <minimizedAffinity>
-9.57659

> <CNNscore>
0.1562293023

> <CNNaffinity>
7.0623207092

> <CNN_VS>
1.1033414602

> <CNNaffinity_variance>
1.2328698635

$$$$
