/media/chris/experiments/cd1a-new-docking/inputs/ligands/1onq_ligand.pdb


 62 62  0  0  0  0  0  0  0  0999 V2000
  -41.5920   59.6891   65.0360 C   0  0  0  0  0  0  0  0  0  0  0  0
  -41.4676   58.7020   63.9818 N   0  0  0  0  0  0  0  0  0  0  0  0
  -42.0752   56.7924   65.0456 O   0  0  0  0  0  0  0  0  0  0  0  0
  -41.7051   57.3850   64.0508 C   0  0  0  0  0  0  0  0  0  0  0  0
  -41.1719   59.0414   63.1063 H   0  0  0  0  0  0  0  0  0  0  0  0
  -41.4901   56.6305   62.7724 C   0  0  0  0  0  0  0  0  0  0  0  0
  -41.8960   57.5733   61.6394 C   0  0  0  0  0  0  0  0  0  0  0  0
  -41.2442   57.1289   60.3323 C   0  0  0  0  0  0  0  0  0  0  0  0
  -41.1406   58.1783   59.2523 C   0  0  0  0  0  0  0  0  0  0  0  0
  -40.0724   59.1782   59.6822 C   0  0  0  0  0  0  0  0  0  0  0  0
  -38.6637   58.7733   59.2276 C   0  0  0  0  0  0  0  0  0  0  0  0
  -37.6630   58.5659   60.3791 C   0  0  0  0  0  0  0  0  0  0  0  0
  -38.3438   58.5153   61.7646 C   0  0  0  0  0  0  0  0  0  0  0  0
  -37.5798   57.5818   62.7079 C   0  0  0  0  0  0  0  0  0  0  0  0
  -36.0615   57.6726   62.6149 C   0  0  0  0  0  0  0  0  0  0  0  0
  -35.5125   58.9036   63.3208 C   0  0  0  0  0  0  0  0  0  0  0  0
  -34.7958   58.6516   64.6494 C   0  0  0  0  0  0  0  0  0  0  0  0
  -33.3636   59.1525   64.5198 C   0  0  0  0  0  0  0  0  0  0  0  0
  -32.4697   58.5378   63.4529 C   0  0  0  0  0  0  0  0  0  0  0  0
  -31.4157   59.5470   62.9703 C   0  0  0  0  0  0  0  0  0  0  0  0
  -31.7836   60.2808   61.6676 C   0  0  0  0  0  0  0  0  0  0  0  0
  -30.6412   61.1241   61.1061 C   0  0  0  0  0  0  0  0  0  0  0  0
  -42.2201   61.8452   64.4425 O   0  0  0  0  0  0  0  0  0  0  0  0
  -42.7556   60.5400   64.5571 C   0  0  0  0  0  0  0  0  0  0  0  0
  -41.5066   61.8454   63.7853 H   0  0  0  0  0  0  0  0  0  0  0  0
  -43.8902   60.4701   65.5820 C   0  0  0  0  0  0  0  0  0  0  0  0
  -44.8552   59.5355   65.5429 C   0  0  0  0  0  0  0  0  0  0  0  0
  -45.9550   59.5335   66.6030 C   0  0  0  0  0  0  0  0  0  0  0  0
  -47.3770   59.5143   66.0235 C   0  0  0  0  0  0  0  0  0  0  0  0
  -47.4752   59.2700   64.5063 C   0  0  0  0  0  0  0  0  0  0  0  0
  -48.1940   60.4481   63.8057 C   0  0  0  0  0  0  0  0  0  0  0  0
  -49.6185   60.7601   64.3299 C   0  0  0  0  0  0  0  0  0  0  0  0
  -50.5861   59.5539   64.2908 C   0  0  0  0  0  0  0  0  0  0  0  0
  -51.3183   59.3930   62.9410 C   0  0  0  0  0  0  0  0  0  0  0  0
  -50.9212   58.1287   62.1696 C   0  0  0  0  0  0  0  0  0  0  0  0
  -49.5927   58.1900   61.4186 C   0  0  0  0  0  0  0  0  0  0  0  0
  -49.7156   57.9188   59.9063 C   0  0  0  0  0  0  0  0  0  0  0  0
  -48.6862   58.6427   59.0253 C   0  0  0  0  0  0  0  0  0  0  0  0
  -48.0392   57.6767   58.0286 C   0  0  0  0  0  0  0  0  0  0  0  0
  -46.8964   58.2304   57.1963 C   0  0  0  0  0  0  0  0  0  0  0  0
  -40.2888   60.4311   65.4103 C   0  0  0  0  0  0  0  0  0  0  0  0
  -39.5116   60.9708   64.3113 O   0  0  0  0  0  0  0  0  0  0  0  0
  -37.7233   61.6581   62.1883 O   0  0  0  0  0  0  0  0  0  0  0  0
  -36.2665   64.3758   64.9974 O   0  0  0  0  0  0  0  0  0  0  0  0
  -37.7948   61.8796   65.7646 O   0  0  0  0  0  0  0  0  0  0  0  0
  -38.0794   61.2922   64.4717 C   0  0  0  0  0  0  0  0  0  0  0  0
  -37.4801   62.2464   63.4288 C   0  0  0  0  0  0  0  0  0  0  0  0
  -35.9565   62.4510   63.5782 C   0  0  0  0  0  0  0  0  0  0  0  0
  -35.7445   63.0505   64.9409 C   0  0  0  0  0  0  0  0  0  0  0  0
  -36.3899   62.1699   65.9956 C   0  0  0  0  0  0  0  0  0  0  0  0
  -38.6772   61.5218   62.0766 H   0  0  0  0  0  0  0  0  0  0  0  0
  -35.8411   64.9201   64.3164 H   0  0  0  0  0  0  0  0  0  0  0  0
  -34.6923   63.1079   67.3929 O   0  0  0  0  0  0  0  0  0  0  0  0
  -36.0738   62.9478   67.2713 C   0  0  0  0  0  0  0  0  0  0  0  0
  -34.4943   63.6021   68.2037 H   0  0  0  0  0  0  0  0  0  0  0  0
  -35.3438   63.3626   62.6384 O   0  0  0  0  0  0  0  0  0  0  0  0
  -33.1647   63.8023   61.3059 O   0  0  0  0  0  0  0  0  0  0  0  0
  -33.0444   62.7166   63.4729 O   0  0  0  0  0  0  0  0  0  0  0  0
  -33.4695   65.0981   63.3243 O   0  0  0  0  0  0  0  0  0  0  0  0
  -33.7319   63.7767   62.6867 S   0  0  0  0  0  0  0  0  0  0  0  0
  -33.3261   62.9489   60.8742 H   0  0  0  0  0  0  0  0  0  0  0  0
  -33.9144   65.7955   62.8178 H   0  0  0  0  0  0  0  0  0  0  0  0
  2  1  1  0  0  0
  2  4  1  0  0  0
  2  5  1  0  0  0
 41 42  1  0  0  0
 41  1  1  0  0  0
 42 46  1  0  0  0
  1 24  1  0  0  0
 23 24  1  0  0  0
 23 25  1  0  0  0
 24 26  1  0  0  0
  3  4  2  0  0  0
 26 27  2  0  0  0
 27 28  1  0  0  0
 43 47  1  0  0  0
 43 51  1  0  0  0
 28 29  1  0  0  0
 56 48  1  0  0  0
 56 60  1  0  0  0
 29 30  1  0  0  0
 57 60  1  0  0  0
 57 61  1  0  0  0
 30 31  1  0  0  0
 44 49  1  0  0  0
 44 52  1  0  0  0
 31 32  1  0  0  0
 45 46  1  0  0  0
 45 50  1  0  0  0
 32 33  1  0  0  0
 53 54  1  0  0  0
 53 55  1  0  0  0
 33 34  1  0  0  0
 34 35  1  0  0  0
 35 36  1  0  0  0
 58 60  1  0  0  0
 36 37  1  0  0  0
 59 60  1  0  0  0
 59 62  1  0  0  0
 37 38  1  0  0  0
 38 39  1  0  0  0
 39 40  1  0  0  0
  4  6  1  0  0  0
  6  7  1  0  0  0
  7  8  1  0  0  0
  8  9  1  0  0  0
  9 10  1  0  0  0
 10 11  1  0  0  0
 11 12  1  0  0  0
 12 13  1  0  0  0
 13 14  1  0  0  0
 14 15  1  0  0  0
 15 16  1  0  0  0
 16 17  1  0  0  0
 17 18  1  0  0  0
 18 19  1  0  0  0
 19 20  1  0  0  0
 20 21  1  0  0  0
 21 22  1  0  0  0
 46 47  1  0  0  0
 47 48  1  0  0  0
 48 49  1  0  0  0
 49 50  1  0  0  0
 50 54  1  0  0  0
M  CHG 1  58  -1
M  END
> <minimizedAffinity>
-9.55184

> <CNNscore>
0.4041252434

> <CNNaffinity>
7.1094551086

> <CNN_VS>
2.8731102943

> <CNNaffinity_variance>
2.0155720711

$$$$
/media/chris/experiments/cd1a-new-docking/inputs/ligands/1onq_ligand.pdb


 62 62  0  0  0  0  0  0  0  0999 V2000
  -41.6021   59.9655   65.5270 C   0  0  0  0  0  0  0  0  0  0  0  0
  -41.6646   58.6601   64.9001 N   0  0  0  0  0  0  0  0  0  0  0  0
  -42.5705   57.3864   66.5447 O   0  0  0  0  0  0  0  0  0  0  0  0
  -42.1213   57.5135   65.4223 C   0  0  0  0  0  0  0  0  0  0  0  0
  -41.3299   58.6095   63.9756 H   0  0  0  0  0  0  0  0  0  0  0  0
  -42.0586   56.3266   64.5073 C   0  0  0  0  0  0  0  0  0  0  0  0
  -42.0006   56.8798   63.0834 C   0  0  0  0  0  0  0  0  0  0  0  0
  -41.4184   55.8305   62.1395 C   0  0  0  0  0  0  0  0  0  0  0  0
  -41.2202   56.2636   60.7071 C   0  0  0  0  0  0  0  0  0  0  0  0
  -41.6289   57.7295   60.6081 C   0  0  0  0  0  0  0  0  0  0  0  0
  -40.9991   58.4406   59.4029 C   0  0  0  0  0  0  0  0  0  0  0  0
  -39.7564   59.2829   59.7442 C   0  0  0  0  0  0  0  0  0  0  0  0
  -38.4344   58.5071   59.5539 C   0  0  0  0  0  0  0  0  0  0  0  0
  -37.5943   58.5497   60.8335 C   0  0  0  0  0  0  0  0  0  0  0  0
  -37.9436   57.4886   61.8699 C   0  0  0  0  0  0  0  0  0  0  0  0
  -38.6647   58.0741   63.0751 C   0  0  0  0  0  0  0  0  0  0  0  0
  -37.9489   57.9307   64.4202 C   0  0  0  0  0  0  0  0  0  0  0  0
  -36.4756   57.6585   64.1484 C   0  0  0  0  0  0  0  0  0  0  0  0
  -35.4772   58.7905   64.3406 C   0  0  0  0  0  0  0  0  0  0  0  0
  -34.6419   59.0089   63.0690 C   0  0  0  0  0  0  0  0  0  0  0  0
  -33.1304   58.7784   63.2505 C   0  0  0  0  0  0  0  0  0  0  0  0
  -32.7309   58.5033   64.6983 C   0  0  0  0  0  0  0  0  0  0  0  0
  -42.3449   62.1260   65.1073 O   0  0  0  0  0  0  0  0  0  0  0  0
  -42.5223   60.7979   64.6508 C   0  0  0  0  0  0  0  0  0  0  0  0
  -41.4210   62.3917   64.9777 H   0  0  0  0  0  0  0  0  0  0  0  0
  -43.9639   60.3152   64.8274 C   0  0  0  0  0  0  0  0  0  0  0  0
  -45.0202   60.9552   64.2975 C   0  0  0  0  0  0  0  0  0  0  0  0
  -46.4296   60.4099   64.5200 C   0  0  0  0  0  0  0  0  0  0  0  0
  -46.4854   59.1952   65.4579 C   0  0  0  0  0  0  0  0  0  0  0  0
  -47.8696   58.5401   65.6186 C   0  0  0  0  0  0  0  0  0  0  0  0
  -48.9497   59.6062   65.9225 C   0  0  0  0  0  0  0  0  0  0  0  0
  -50.3762   59.2641   65.4228 C   0  0  0  0  0  0  0  0  0  0  0  0
  -51.0298   60.3732   64.5653 C   0  0  0  0  0  0  0  0  0  0  0  0
  -51.1128   60.0245   63.0634 C   0  0  0  0  0  0  0  0  0  0  0  0
  -50.3654   58.7402   62.6852 C   0  0  0  0  0  0  0  0  0  0  0  0
  -51.0422   57.8516   61.6436 C   0  0  0  0  0  0  0  0  0  0  0  0
  -50.0650   57.2072   60.6407 C   0  0  0  0  0  0  0  0  0  0  0  0
  -48.9426   58.1272   60.1368 C   0  0  0  0  0  0  0  0  0  0  0  0
  -48.8490   58.0941   58.6087 C   0  0  0  0  0  0  0  0  0  0  0  0
  -47.4770   58.3501   58.0106 C   0  0  0  0  0  0  0  0  0  0  0  0
  -40.1799   60.5183   65.7733 C   0  0  0  0  0  0  0  0  0  0  0  0
  -39.5129   61.1215   64.6356 O   0  0  0  0  0  0  0  0  0  0  0  0
  -37.8477   61.5532   62.3512 O   0  0  0  0  0  0  0  0  0  0  0  0
  -36.2365   64.5636   64.7472 O   0  0  0  0  0  0  0  0  0  0  0  0
  -37.7173   62.1794   65.8776 O   0  0  0  0  0  0  0  0  0  0  0  0
  -38.0741   61.4507   64.6778 C   0  0  0  0  0  0  0  0  0  0  0  0
  -37.5352   62.2770   63.5013 C   0  0  0  0  0  0  0  0  0  0  0  0
  -36.0058   62.4884   63.5407 C   0  0  0  0  0  0  0  0  0  0  0  0
  -35.7176   63.2374   64.8124 C   0  0  0  0  0  0  0  0  0  0  0  0
  -36.3019   62.4860   65.9949 C   0  0  0  0  0  0  0  0  0  0  0  0
  -38.8062   61.4105   62.3094 H   0  0  0  0  0  0  0  0  0  0  0  0
  -35.8505   65.0246   63.9859 H   0  0  0  0  0  0  0  0  0  0  0  0
  -36.2638   62.7994   68.3643 O   0  0  0  0  0  0  0  0  0  0  0  0
  -35.9148   63.4017   67.1542 C   0  0  0  0  0  0  0  0  0  0  0  0
  -36.0170   63.3829   69.0988 H   0  0  0  0  0  0  0  0  0  0  0  0
  -35.4476   63.2840   62.4705 O   0  0  0  0  0  0  0  0  0  0  0  0
  -33.0308   62.5770   63.0837 O   0  0  0  0  0  0  0  0  0  0  0  0
  -33.5737   64.9335   62.8809 O   0  0  0  0  0  0  0  0  0  0  0  0
  -33.3400   63.5611   60.8969 O   0  0  0  0  0  0  0  0  0  0  0  0
  -33.8175   63.5816   62.3087 S   0  0  0  0  0  0  0  0  0  0  0  0
  -33.3281   62.5760   64.0070 H   0  0  0  0  0  0  0  0  0  0  0  0
  -33.4953   62.6827   60.5158 H   0  0  0  0  0  0  0  0  0  0  0  0
  2  1  1  0  0  0
  2  4  1  0  0  0
  2  5  1  0  0  0
 41 42  1  0  0  0
 41  1  1  0  0  0
 42 46  1  0  0  0
  1 24  1  0  0  0
 23 24  1  0  0  0
 23 25  1  0  0  0
 24 26  1  0  0  0
  3  4  2  0  0  0
 26 27  2  0  0  0
 27 28  1  0  0  0
 43 47  1  0  0  0
 43 51  1  0  0  0
 28 29  1  0  0  0
 56 48  1  0  0  0
 56 60  1  0  0  0
 29 30  1  0  0  0
 57 60  1  0  0  0
 57 61  1  0  0  0
 30 31  1  0  0  0
 44 49  1  0  0  0
 44 52  1  0  0  0
 31 32  1  0  0  0
 45 46  1  0  0  0
 45 50  1  0  0  0
 32 33  1  0  0  0
 53 54  1  0  0  0
 53 55  1  0  0  0
 33 34  1  0  0  0
 34 35  1  0  0  0
 35 36  1  0  0  0
 58 60  1  0  0  0
 36 37  1  0  0  0
 59 60  1  0  0  0
 59 62  1  0  0  0
 37 38  1  0  0  0
 38 39  1  0  0  0
 39 40  1  0  0  0
  4  6  1  0  0  0
  6  7  1  0  0  0
  7  8  1  0  0  0
  8  9  1  0  0  0
  9 10  1  0  0  0
 10 11  1  0  0  0
 11 12  1  0  0  0
 12 13  1  0  0  0
 13 14  1  0  0  0
 14 15  1  0  0  0
 15 16  1  0  0  0
 16 17  1  0  0  0
 17 18  1  0  0  0
 18 19  1  0  0  0
 19 20  1  0  0  0
 20 21  1  0  0  0
 21 22  1  0  0  0
 46 47  1  0  0  0
 47 48  1  0  0  0
 48 49  1  0  0  0
 49 50  1  0  0  0
 50 54  1  0  0  0
M  CHG 1  58  -1
M  END
> <minimizedAffinity>
-9.80254

> <CNNscore>
0.3264153004

> <CNNaffinity>
7.1874494553

> <CNN_VS>
2.3460934162

> <CNNaffinity_variance>
2.2754642963

$$$$
/media/chris/experiments/cd1a-new-docking/inputs/ligands/1onq_ligand.pdb


 62 62  0  0  0  0  0  0  0  0999 V2000
  -41.4859   60.5070   64.5304 C   0  0  0  0  0  0  0  0  0  0  0  0
  -42.2187   59.2588   64.6096 N   0  0  0  0  0  0  0  0  0  0  0  0
  -42.0273   58.7345   66.8086 O   0  0  0  0  0  0  0  0  0  0  0  0
  -42.4313   58.4923   65.6880 C   0  0  0  0  0  0  0  0  0  0  0  0
  -42.6086   58.9337   63.7660 H   0  0  0  0  0  0  0  0  0  0  0  0
  -43.2429   57.2553   65.4411 C   0  0  0  0  0  0  0  0  0  0  0  0
  -44.6983   57.7082   65.3240 C   0  0  0  0  0  0  0  0  0  0  0  0
  -45.3383   57.7703   66.7087 C   0  0  0  0  0  0  0  0  0  0  0  0
  -46.3215   58.8930   66.9354 C   0  0  0  0  0  0  0  0  0  0  0  0
  -46.2155   59.8451   65.7489 C   0  0  0  0  0  0  0  0  0  0  0  0
  -47.5673   60.0962   65.0674 C   0  0  0  0  0  0  0  0  0  0  0  0
  -48.7811   59.9757   66.0069 C   0  0  0  0  0  0  0  0  0  0  0  0
  -49.9549   59.1962   65.3744 C   0  0  0  0  0  0  0  0  0  0  0  0
  -50.9167   60.1521   64.6628 C   0  0  0  0  0  0  0  0  0  0  0  0
  -51.3871   59.6893   63.2892 C   0  0  0  0  0  0  0  0  0  0  0  0
  -50.4427   58.6703   62.6687 C   0  0  0  0  0  0  0  0  0  0  0  0
  -51.0171   57.8334   61.5233 C   0  0  0  0  0  0  0  0  0  0  0  0
  -50.0017   57.8194   60.3887 C   0  0  0  0  0  0  0  0  0  0  0  0
  -49.1175   56.5932   60.2162 C   0  0  0  0  0  0  0  0  0  0  0  0
  -47.8974   56.9141   59.3384 C   0  0  0  0  0  0  0  0  0  0  0  0
  -48.0411   58.1887   58.4866 C   0  0  0  0  0  0  0  0  0  0  0  0
  -47.0724   58.2394   57.3074 C   0  0  0  0  0  0  0  0  0  0  0  0
  -43.4667   60.8928   63.3801 O   0  0  0  0  0  0  0  0  0  0  0  0
  -42.0796   61.1615   63.2949 C   0  0  0  0  0  0  0  0  0  0  0  0
  -43.8258   61.2984   64.1847 H   0  0  0  0  0  0  0  0  0  0  0  0
  -41.4490   60.5471   62.0431 C   0  0  0  0  0  0  0  0  0  0  0  0
  -41.6310   61.0495   60.8099 C   0  0  0  0  0  0  0  0  0  0  0  0
  -40.9674   60.3773   59.6094 C   0  0  0  0  0  0  0  0  0  0  0  0
  -41.0474   58.8439   59.6327 C   0  0  0  0  0  0  0  0  0  0  0  0
  -39.7674   58.1031   59.2041 C   0  0  0  0  0  0  0  0  0  0  0  0
  -38.5224   59.0025   59.3946 C   0  0  0  0  0  0  0  0  0  0  0  0
  -37.5602   58.5690   60.5292 C   0  0  0  0  0  0  0  0  0  0  0  0
  -38.1690   57.5503   61.5214 C   0  0  0  0  0  0  0  0  0  0  0  0
  -37.7274   57.7731   62.9841 C   0  0  0  0  0  0  0  0  0  0  0  0
  -36.4342   58.5854   63.1221 C   0  0  0  0  0  0  0  0  0  0  0  0
  -35.1659   57.7847   63.4096 C   0  0  0  0  0  0  0  0  0  0  0  0
  -34.3096   58.3588   64.5555 C   0  0  0  0  0  0  0  0  0  0  0  0
  -32.8216   58.5533   64.2269 C   0  0  0  0  0  0  0  0  0  0  0  0
  -32.6397   59.5156   63.0496 C   0  0  0  0  0  0  0  0  0  0  0  0
  -31.2091   59.8396   62.6572 C   0  0  0  0  0  0  0  0  0  0  0  0
  -39.9465   60.3798   64.5848 C   0  0  0  0  0  0  0  0  0  0  0  0
  -39.1854   61.5603   64.2238 O   0  0  0  0  0  0  0  0  0  0  0  0
  -37.2156   61.8739   62.1746 O   0  0  0  0  0  0  0  0  0  0  0  0
  -35.4212   64.3553   65.0069 O   0  0  0  0  0  0  0  0  0  0  0  0
  -37.3979   62.1852   65.7404 O   0  0  0  0  0  0  0  0  0  0  0  0
  -37.7271   61.6280   64.4446 C   0  0  0  0  0  0  0  0  0  0  0  0
  -36.9249   62.4380   63.4162 C   0  0  0  0  0  0  0  0  0  0  0  0
  -35.3968   62.3745   63.6318 C   0  0  0  0  0  0  0  0  0  0  0  0
  -35.1399   62.9579   64.9938 C   0  0  0  0  0  0  0  0  0  0  0  0
  -35.9749   62.2288   66.0309 C   0  0  0  0  0  0  0  0  0  0  0  0
  -38.1729   61.9051   62.0216 H   0  0  0  0  0  0  0  0  0  0  0  0
  -34.8778   64.8007   64.3380 H   0  0  0  0  0  0  0  0  0  0  0  0
  -36.4570   64.0323   67.5237 O   0  0  0  0  0  0  0  0  0  0  0  0
  -35.5805   62.9674   67.3080 C   0  0  0  0  0  0  0  0  0  0  0  0
  -36.2044   64.4998   68.3352 H   0  0  0  0  0  0  0  0  0  0  0  0
  -34.5933   63.1425   62.7076 O   0  0  0  0  0  0  0  0  0  0  0  0
  -35.6171   63.8200   60.4251 O   0  0  0  0  0  0  0  0  0  0  0  0
  -34.1124   65.3468   61.5626 O   0  0  0  0  0  0  0  0  0  0  0  0
  -36.3842   65.0567   62.3559 O   0  0  0  0  0  0  0  0  0  0  0  0
  -35.2105   64.3612   61.7557 S   0  0  0  0  0  0  0  0  0  0  0  0
  -34.8645   63.3629   60.0183 H   0  0  0  0  0  0  0  0  0  0  0  0
  -37.1053   64.4210   62.4854 H   0  0  0  0  0  0  0  0  0  0  0  0
  2  1  1  0  0  0
  2  4  1  0  0  0
  2  5  1  0  0  0
 41 42  1  0  0  0
 41  1  1  0  0  0
 42 46  1  0  0  0
  1 24  1  0  0  0
 23 24  1  0  0  0
 23 25  1  0  0  0
 24 26  1  0  0  0
  3  4  2  0  0  0
 26 27  2  0  0  0
 27 28  1  0  0  0
 43 47  1  0  0  0
 43 51  1  0  0  0
 28 29  1  0  0  0
 56 48  1  0  0  0
 56 60  1  0  0  0
 29 30  1  0  0  0
 57 60  1  0  0  0
 57 61  1  0  0  0
 30 31  1  0  0  0
 44 49  1  0  0  0
 44 52  1  0  0  0
 31 32  1  0  0  0
 45 46  1  0  0  0
 45 50  1  0  0  0
 32 33  1  0  0  0
 53 54  1  0  0  0
 53 55  1  0  0  0
 33 34  1  0  0  0
 34 35  1  0  0  0
 35 36  1  0  0  0
 58 60  1  0  0  0
 36 37  1  0  0  0
 59 60  1  0  0  0
 59 62  1  0  0  0
 37 38  1  0  0  0
 38 39  1  0  0  0
 39 40  1  0  0  0
  4  6  1  0  0  0
  6  7  1  0  0  0
  7  8  1  0  0  0
  8  9  1  0  0  0
  9 10  1  0  0  0
 10 11  1  0  0  0
 11 12  1  0  0  0
 12 13  1  0  0  0
 13 14  1  0  0  0
 14 15  1  0  0  0
 15 16  1  0  0  0
 16 17  1  0  0  0
 17 18  1  0  0  0
 18 19  1  0  0  0
 19 20  1  0  0  0
 20 21  1  0  0  0
 21 22  1  0  0  0
 46 47  1  0  0  0
 47 48  1  0  0  0
 48 49  1  0  0  0
 49 50  1  0  0  0
 50 54  1  0  0  0
M  CHG 1  58  -1
M  END
> <minimizedAffinity>
-10.04650

> <CNNscore>
0.2870192528

> <CNNaffinity>
7.1462020874

> <CNN_VS>
2.0510976315

> <CNNaffinity_variance>
1.3788257837

$$$$
/media/chris/experiments/cd1a-new-docking/inputs/ligands/1onq_ligand.pdb


 62 62  0  0  0  0  0  0  0  0999 V2000
  -41.6700   59.8752   64.3033 C   0  0  0  0  0  0  0  0  0  0  0  0
  -41.4274   59.0085   63.1669 N   0  0  0  0  0  0  0  0  0  0  0  0
  -42.7297   57.2149   63.6512 O   0  0  0  0  0  0  0  0  0  0  0  0
  -41.9461   57.7966   62.9264 C   0  0  0  0  0  0  0  0  0  0  0  0
  -40.8039   59.3531   62.4874 H   0  0  0  0  0  0  0  0  0  0  0  0
  -41.4994   57.1544   61.6466 C   0  0  0  0  0  0  0  0  0  0  0  0
  -41.2291   58.2923   60.6621 C   0  0  0  0  0  0  0  0  0  0  0  0
  -40.5711   57.7436   59.3984 C   0  0  0  0  0  0  0  0  0  0  0  0
  -39.3464   58.4813   58.9142 C   0  0  0  0  0  0  0  0  0  0  0  0
  -38.7727   59.2501   60.0998 C   0  0  0  0  0  0  0  0  0  0  0  0
  -37.6255   58.5023   60.7923 C   0  0  0  0  0  0  0  0  0  0  0  0
  -37.8662   58.2192   62.2864 C   0  0  0  0  0  0  0  0  0  0  0  0
  -36.6816   57.4902   62.9579 C   0  0  0  0  0  0  0  0  0  0  0  0
  -36.2749   58.1997   64.2527 C   0  0  0  0  0  0  0  0  0  0  0  0
  -34.7953   58.5482   64.3597 C   0  0  0  0  0  0  0  0  0  0  0  0
  -33.9702   57.9093   63.2523 C   0  0  0  0  0  0  0  0  0  0  0  0
  -33.4127   58.8646   62.1946 C   0  0  0  0  0  0  0  0  0  0  0  0
  -32.5968   59.9366   62.9045 C   0  0  0  0  0  0  0  0  0  0  0  0
  -31.0788   59.8362   62.8759 C   0  0  0  0  0  0  0  0  0  0  0  0
  -30.4925   60.6899   61.7402 C   0  0  0  0  0  0  0  0  0  0  0  0
  -28.9547   60.7654   61.7268 C   0  0  0  0  0  0  0  0  0  0  0  0
  -28.3727   61.4490   62.9619 C   0  0  0  0  0  0  0  0  0  0  0  0
  -42.0843   62.0841   63.7164 O   0  0  0  0  0  0  0  0  0  0  0  0
  -42.7300   60.8258   63.7741 C   0  0  0  0  0  0  0  0  0  0  0  0
  -41.3352   62.0353   63.1020 H   0  0  0  0  0  0  0  0  0  0  0  0
  -43.9256   60.8345   64.7295 C   0  0  0  0  0  0  0  0  0  0  0  0
  -45.0588   60.1526   64.4902 C   0  0  0  0  0  0  0  0  0  0  0  0
  -46.2089   60.2131   65.4936 C   0  0  0  0  0  0  0  0  0  0  0  0
  -47.5656   59.7920   64.9103 C   0  0  0  0  0  0  0  0  0  0  0  0
  -48.7609   59.8718   65.8778 C   0  0  0  0  0  0  0  0  0  0  0  0
  -50.0075   59.1864   65.2683 C   0  0  0  0  0  0  0  0  0  0  0  0
  -51.0092   60.1380   64.5666 C   0  0  0  0  0  0  0  0  0  0  0  0
  -50.9822   60.0589   63.0220 C   0  0  0  0  0  0  0  0  0  0  0  0
  -50.9701   58.6140   62.4777 C   0  0  0  0  0  0  0  0  0  0  0  0
  -49.7279   58.2784   61.6435 C   0  0  0  0  0  0  0  0  0  0  0  0
  -49.4251   59.2215   60.4810 C   0  0  0  0  0  0  0  0  0  0  0  0
  -49.0042   58.5017   59.1846 C   0  0  0  0  0  0  0  0  0  0  0  0
  -48.0858   57.2856   59.3794 C   0  0  0  0  0  0  0  0  0  0  0  0
  -46.9605   57.2746   58.3409 C   0  0  0  0  0  0  0  0  0  0  0  0
  -47.1087   58.2353   57.1744 C   0  0  0  0  0  0  0  0  0  0  0  0
  -40.4114   60.5111   64.9361 C   0  0  0  0  0  0  0  0  0  0  0  0
  -39.5007   61.1850   64.0308 O   0  0  0  0  0  0  0  0  0  0  0  0
  -37.4182   61.6847   62.1359 O   0  0  0  0  0  0  0  0  0  0  0  0
  -35.9808   64.1740   65.1585 O   0  0  0  0  0  0  0  0  0  0  0  0
  -37.8641   61.8657   65.6874 O   0  0  0  0  0  0  0  0  0  0  0  0
  -38.0681   61.3331   64.3560 C   0  0  0  0  0  0  0  0  0  0  0  0
  -37.2491   62.2236   63.4107 C   0  0  0  0  0  0  0  0  0  0  0  0
  -35.7385   62.2451   63.7318 C   0  0  0  0  0  0  0  0  0  0  0  0
  -35.6127   62.7973   65.1249 C   0  0  0  0  0  0  0  0  0  0  0  0
  -36.4699   61.9851   66.0788 C   0  0  0  0  0  0  0  0  0  0  0  0
  -38.3628   61.6633   61.9166 H   0  0  0  0  0  0  0  0  0  0  0  0
  -35.4216   64.6733   64.5429 H   0  0  0  0  0  0  0  0  0  0  0  0
  -34.8718   63.0917   67.4700 O   0  0  0  0  0  0  0  0  0  0  0  0
  -36.2110   62.7033   67.4015 C   0  0  0  0  0  0  0  0  0  0  0  0
  -34.7100   63.5475   68.3108 H   0  0  0  0  0  0  0  0  0  0  0  0
  -34.9229   63.0905   62.8893 O   0  0  0  0  0  0  0  0  0  0  0  0
  -35.9465   63.9257   60.6595 O   0  0  0  0  0  0  0  0  0  0  0  0
  -34.4255   65.3612   61.8905 O   0  0  0  0  0  0  0  0  0  0  0  0
  -36.6977   65.0390   62.6701 O   0  0  0  0  0  0  0  0  0  0  0  0
  -35.5317   64.3745   62.0217 S   0  0  0  0  0  0  0  0  0  0  0  0
  -35.1990   63.4900   60.2212 H   0  0  0  0  0  0  0  0  0  0  0  0
  -37.4241   64.4024   62.7596 H   0  0  0  0  0  0  0  0  0  0  0  0
  2  1  1  0  0  0
  2  4  1  0  0  0
  2  5  1  0  0  0
 41 42  1  0  0  0
 41  1  1  0  0  0
 42 46  1  0  0  0
  1 24  1  0  0  0
 23 24  1  0  0  0
 23 25  1  0  0  0
 24 26  1  0  0  0
  3  4  2  0  0  0
 26 27  2  0  0  0
 27 28  1  0  0  0
 43 47  1  0  0  0
 43 51  1  0  0  0
 28 29  1  0  0  0
 56 48  1  0  0  0
 56 60  1  0  0  0
 29 30  1  0  0  0
 57 60  1  0  0  0
 57 61  1  0  0  0
 30 31  1  0  0  0
 44 49  1  0  0  0
 44 52  1  0  0  0
 31 32  1  0  0  0
 45 46  1  0  0  0
 45 50  1  0  0  0
 32 33  1  0  0  0
 53 54  1  0  0  0
 53 55  1  0  0  0
 33 34  1  0  0  0
 34 35  1  0  0  0
 35 36  1  0  0  0
 58 60  1  0  0  0
 36 37  1  0  0  0
 59 60  1  0  0  0
 59 62  1  0  0  0
 37 38  1  0  0  0
 38 39  1  0  0  0
 39 40  1  0  0  0
  4  6  1  0  0  0
  6  7  1  0  0  0
  7  8  1  0  0  0
  8  9  1  0  0  0
  9 10  1  0  0  0
 10 11  1  0  0  0
 11 12  1  0  0  0
 12 13  1  0  0  0
 13 14  1  0  0  0
 14 15  1  0  0  0
 15 16  1  0  0  0
 16 17  1  0  0  0
 17 18  1  0  0  0
 18 19  1  0  0  0
 19 20  1  0  0  0
 20 21  1  0  0  0
 21 22  1  0  0  0
 46 47  1  0  0  0
 47 48  1  0  0  0
 48 49  1  0  0  0
 49 50  1  0  0  0
 50 54  1  0  0  0
M  CHG 1  58  -1
M  END
> <minimizedAffinity>
-9.79177

> <CNNscore>
0.2541592717

> <CNNaffinity>
6.8930816650

> <CNN_VS>
1.7519406080

> <CNNaffinity_variance>
1.4793362617

$$$$
/media/chris/experiments/cd1a-new-docking/inputs/ligands/1onq_ligand.pdb


 62 62  0  0  0  0  0  0  0  0999 V2000
  -40.9980   59.5180   64.6322 C   0  0  0  0  0  0  0  0  0  0  0  0
  -40.8968   58.5172   63.5885 N   0  0  0  0  0  0  0  0  0  0  0  0
  -41.7703   56.6847   64.6017 O   0  0  0  0  0  0  0  0  0  0  0  0
  -41.2703   57.2311   63.6378 C   0  0  0  0  0  0  0  0  0  0  0  0
  -40.5050   58.8199   62.7376 H   0  0  0  0  0  0  0  0  0  0  0  0
  -41.0392   56.4514   62.3775 C   0  0  0  0  0  0  0  0  0  0  0  0
  -41.6510   57.2719   61.2420 C   0  0  0  0  0  0  0  0  0  0  0  0
  -40.8678   57.0420   59.9517 C   0  0  0  0  0  0  0  0  0  0  0  0
  -40.5455   58.2748   59.1426 C   0  0  0  0  0  0  0  0  0  0  0  0
  -39.5983   59.1356   59.9718 C   0  0  0  0  0  0  0  0  0  0  0  0
  -38.2515   58.4493   60.2364 C   0  0  0  0  0  0  0  0  0  0  0  0
  -37.9120   58.2769   61.7282 C   0  0  0  0  0  0  0  0  0  0  0  0
  -36.3971   58.3713   62.0140 C   0  0  0  0  0  0  0  0  0  0  0  0
  -36.1005   58.0223   63.4753 C   0  0  0  0  0  0  0  0  0  0  0  0
  -34.6776   57.5513   63.7499 C   0  0  0  0  0  0  0  0  0  0  0  0
  -33.9859   58.3926   64.8125 C   0  0  0  0  0  0  0  0  0  0  0  0
  -33.1818   59.5904   64.3018 C   0  0  0  0  0  0  0  0  0  0  0  0
  -32.3790   59.1417   63.0881 C   0  0  0  0  0  0  0  0  0  0  0  0
  -31.9282   60.1914   62.0832 C   0  0  0  0  0  0  0  0  0  0  0  0
  -30.3982   60.1914   61.9369 C   0  0  0  0  0  0  0  0  0  0  0  0
  -29.6805   61.2965   62.7335 C   0  0  0  0  0  0  0  0  0  0  0  0
  -28.6832   62.0938   61.8961 C   0  0  0  0  0  0  0  0  0  0  0  0
  -41.5919   61.6701   63.9908 O   0  0  0  0  0  0  0  0  0  0  0  0
  -42.1528   60.3806   64.1527 C   0  0  0  0  0  0  0  0  0  0  0  0
  -40.8922   61.6365   63.3199 H   0  0  0  0  0  0  0  0  0  0  0  0
  -43.2674   60.3640   65.2013 C   0  0  0  0  0  0  0  0  0  0  0  0
  -44.5520   60.1084   64.9001 C   0  0  0  0  0  0  0  0  0  0  0  0
  -45.6072   60.1113   66.0046 C   0  0  0  0  0  0  0  0  0  0  0  0
  -46.6373   58.9789   65.8833 C   0  0  0  0  0  0  0  0  0  0  0  0
  -47.6369   59.1090   64.7193 C   0  0  0  0  0  0  0  0  0  0  0  0
  -48.8074   58.1103   64.8864 C   0  0  0  0  0  0  0  0  0  0  0  0
  -50.1310   58.7235   65.4094 C   0  0  0  0  0  0  0  0  0  0  0  0
  -50.4774   60.1003   64.7953 C   0  0  0  0  0  0  0  0  0  0  0  0
  -51.3989   60.0111   63.5596 C   0  0  0  0  0  0  0  0  0  0  0  0
  -50.6819   59.5464   62.2864 C   0  0  0  0  0  0  0  0  0  0  0  0
  -51.0305   58.1436   61.7935 C   0  0  0  0  0  0  0  0  0  0  0  0
  -50.0232   57.5685   60.7784 C   0  0  0  0  0  0  0  0  0  0  0  0
  -50.0994   58.1708   59.3672 C   0  0  0  0  0  0  0  0  0  0  0  0
  -49.0669   57.5263   58.4379 C   0  0  0  0  0  0  0  0  0  0  0  0
  -47.7845   58.3065   58.2089 C   0  0  0  0  0  0  0  0  0  0  0  0
  -39.6810   60.2447   64.9876 C   0  0  0  0  0  0  0  0  0  0  0  0
  -38.8799   60.7159   63.8744 O   0  0  0  0  0  0  0  0  0  0  0  0
  -37.0064   61.0086   66.0149 O   0  0  0  0  0  0  0  0  0  0  0  0
  -34.5256   62.3883   62.9585 O   0  0  0  0  0  0  0  0  0  0  0  0
  -37.5447   62.4069   62.7592 O   0  0  0  0  0  0  0  0  0  0  0  0
  -37.9336   61.8381   64.0332 C   0  0  0  0  0  0  0  0  0  0  0  0
  -36.6271   61.5205   64.7746 C   0  0  0  0  0  0  0  0  0  0  0  0
  -35.7328   62.7569   65.0132 C   0  0  0  0  0  0  0  0  0  0  0  0
  -35.3830   63.2917   63.6520 C   0  0  0  0  0  0  0  0  0  0  0  0
  -36.6518   63.5488   62.8594 C   0  0  0  0  0  0  0  0  0  0  0  0
  -37.5698   60.2298   65.8846 H   0  0  0  0  0  0  0  0  0  0  0  0
  -33.7227   62.2385   63.4819 H   0  0  0  0  0  0  0  0  0  0  0  0
  -35.0968   65.0192   61.7945 O   0  0  0  0  0  0  0  0  0  0  0  0
  -36.0825   64.0641   61.5393 C   0  0  0  0  0  0  0  0  0  0  0  0
  -34.7370   65.3448   60.9547 H   0  0  0  0  0  0  0  0  0  0  0  0
  -34.4758   62.5108   65.6835 O   0  0  0  0  0  0  0  0  0  0  0  0
  -33.2551   63.2370   67.8514 O   0  0  0  0  0  0  0  0  0  0  0  0
  -34.5188   64.8751   66.5830 O   0  0  0  0  0  0  0  0  0  0  0  0
  -32.3670   64.1044   65.7765 O   0  0  0  0  0  0  0  0  0  0  0  0
  -33.6173   63.6958   66.4776 S   0  0  0  0  0  0  0  0  0  0  0  0
  -34.0577   62.9665   68.3240 H   0  0  0  0  0  0  0  0  0  0  0  0
  -31.7731   63.3410   65.7034 H   0  0  0  0  0  0  0  0  0  0  0  0
  2  1  1  0  0  0
  2  4  1  0  0  0
  2  5  1  0  0  0
 41 42  1  0  0  0
 41  1  1  0  0  0
 42 46  1  0  0  0
  1 24  1  0  0  0
 23 24  1  0  0  0
 23 25  1  0  0  0
 24 26  1  0  0  0
  3  4  2  0  0  0
 26 27  2  0  0  0
 27 28  1  0  0  0
 43 47  1  0  0  0
 43 51  1  0  0  0
 28 29  1  0  0  0
 56 48  1  0  0  0
 56 60  1  0  0  0
 29 30  1  0  0  0
 57 60  1  0  0  0
 57 61  1  0  0  0
 30 31  1  0  0  0
 44 49  1  0  0  0
 44 52  1  0  0  0
 31 32  1  0  0  0
 45 46  1  0  0  0
 45 50  1  0  0  0
 32 33  1  0  0  0
 53 54  1  0  0  0
 53 55  1  0  0  0
 33 34  1  0  0  0
 34 35  1  0  0  0
 35 36  1  0  0  0
 58 60  1  0  0  0
 36 37  1  0  0  0
 59 60  1  0  0  0
 59 62  1  0  0  0
 37 38  1  0  0  0
 38 39  1  0  0  0
 39 40  1  0  0  0
  4  6  1  0  0  0
  6  7  1  0  0  0
  7  8  1  0  0  0
  8  9  1  0  0  0
  9 10  1  0  0  0
 10 11  1  0  0  0
 11 12  1  0  0  0
 12 13  1  0  0  0
 13 14  1  0  0  0
 14 15  1  0  0  0
 15 16  1  0  0  0
 16 17  1  0  0  0
 17 18  1  0  0  0
 18 19  1  0  0  0
 19 20  1  0  0  0
 20 21  1  0  0  0
 21 22  1  0  0  0
 46 47  1  0  0  0
 47 48  1  0  0  0
 48 49  1  0  0  0
 49 50  1  0  0  0
 50 54  1  0  0  0
M  CHG 1  58  -1
M  END
> <minimizedAffinity>
-9.15946

> <CNNscore>
0.2082290053

> <CNNaffinity>
6.8016862869

> <CNN_VS>
1.4163084030

> <CNNaffinity_variance>
1.3573199511

$$$$
/media/chris/experiments/cd1a-new-docking/inputs/ligands/1onq_ligand.pdb


 62 62  0  0  0  0  0  0  0  0999 V2000
  -35.1023   62.0456   64.0849 C   0  0  0  0  0  0  0  0  0  0  0  0
  -35.4347   60.6738   63.7550 N   0  0  0  0  0  0  0  0  0  0  0  0
  -34.0706   59.5078   65.1432 O   0  0  0  0  0  0  0  0  0  0  0  0
  -34.9238   59.5510   64.2784 C   0  0  0  0  0  0  0  0  0  0  0  0
  -36.1212   60.5519   63.0599 H   0  0  0  0  0  0  0  0  0  0  0  0
  -35.4880   58.2758   63.7258 C   0  0  0  0  0  0  0  0  0  0  0  0
  -36.3911   57.6942   64.8136 C   0  0  0  0  0  0  0  0  0  0  0  0
  -37.4258   58.7318   65.2423 C   0  0  0  0  0  0  0  0  0  0  0  0
  -38.8623   58.4155   64.9036 C   0  0  0  0  0  0  0  0  0  0  0  0
  -39.7097   59.6107   65.3270 C   0  0  0  0  0  0  0  0  0  0  0  0
  -40.8418   59.9154   64.3369 C   0  0  0  0  0  0  0  0  0  0  0  0
  -42.0252   60.6880   64.9478 C   0  0  0  0  0  0  0  0  0  0  0  0
  -43.3162   60.5713   64.1079 C   0  0  0  0  0  0  0  0  0  0  0  0
  -44.5158   61.1254   64.8819 C   0  0  0  0  0  0  0  0  0  0  0  0
  -45.8682   60.5585   64.4674 C   0  0  0  0  0  0  0  0  0  0  0  0
  -45.9754   59.0649   64.7376 C   0  0  0  0  0  0  0  0  0  0  0  0
  -47.1085   58.6314   65.6704 C   0  0  0  0  0  0  0  0  0  0  0  0
  -47.9919   59.8420   65.9405 C   0  0  0  0  0  0  0  0  0  0  0  0
  -49.4912   59.6316   66.0917 C   0  0  0  0  0  0  0  0  0  0  0  0
  -50.0655   58.8776   64.8819 C   0  0  0  0  0  0  0  0  0  0  0  0
  -50.2104   59.7303   63.6080 C   0  0  0  0  0  0  0  0  0  0  0  0
  -51.6467   60.1718   63.3369 C   0  0  0  0  0  0  0  0  0  0  0  0
  -36.7664   63.3939   64.9840 O   0  0  0  0  0  0  0  0  0  0  0  0
  -36.3898   62.7847   63.7631 C   0  0  0  0  0  0  0  0  0  0  0  0
  -36.0769   64.0178   65.2602 H   0  0  0  0  0  0  0  0  0  0  0  0
  -37.4384   61.7851   63.2698 C   0  0  0  0  0  0  0  0  0  0  0  0
  -37.7954   61.6761   61.9787 C   0  0  0  0  0  0  0  0  0  0  0  0
  -38.8520   60.6531   61.5657 C   0  0  0  0  0  0  0  0  0  0  0  0
  -38.4002   59.1940   61.7246 C   0  0  0  0  0  0  0  0  0  0  0  0
  -37.7225   58.5681   60.4917 C   0  0  0  0  0  0  0  0  0  0  0  0
  -38.4358   59.0079   59.1905 C   0  0  0  0  0  0  0  0  0  0  0  0
  -39.6813   58.1711   58.8033 C   0  0  0  0  0  0  0  0  0  0  0  0
  -41.0152   58.7291   59.3528 C   0  0  0  0  0  0  0  0  0  0  0  0
  -41.6728   57.8226   60.4157 C   0  0  0  0  0  0  0  0  0  0  0  0
  -40.8559   56.5684   60.7489 C   0  0  0  0  0  0  0  0  0  0  0  0
  -41.1591   55.9068   62.0916 C   0  0  0  0  0  0  0  0  0  0  0  0
  -42.0475   56.7564   63.0215 C   0  0  0  0  0  0  0  0  0  0  0  0
  -41.9029   56.4546   64.5208 C   0  0  0  0  0  0  0  0  0  0  0  0
  -43.0642   57.0565   65.3173 C   0  0  0  0  0  0  0  0  0  0  0  0
  -42.7382   57.5552   66.7139 C   0  0  0  0  0  0  0  0  0  0  0  0
  -33.8041   62.5883   63.4451 C   0  0  0  0  0  0  0  0  0  0  0  0
  -33.2703   61.8372   62.3252 O   0  0  0  0  0  0  0  0  0  0  0  0
  -32.7762   64.3522   61.0571 O   0  0  0  0  0  0  0  0  0  0  0  0
  -29.0284   63.9204   62.8365 O   0  0  0  0  0  0  0  0  0  0  0  0
  -30.8587   61.5784   62.2711 O   0  0  0  0  0  0  0  0  0  0  0  0
  -32.0054   62.2306   61.6731 C   0  0  0  0  0  0  0  0  0  0  0  0
  -31.6866   63.7324   61.6676 C   0  0  0  0  0  0  0  0  0  0  0  0
  -30.4139   64.0937   60.8705 C   0  0  0  0  0  0  0  0  0  0  0  0
  -29.2779   63.3742   61.5437 C   0  0  0  0  0  0  0  0  0  0  0  0
  -29.5906   61.8915   61.6345 C   0  0  0  0  0  0  0  0  0  0  0  0
  -33.5862   64.1362   61.5451 H   0  0  0  0  0  0  0  0  0  0  0  0
  -28.8311   64.8667   62.7551 H   0  0  0  0  0  0  0  0  0  0  0  0
  -27.8755   60.2273   61.6815 O   0  0  0  0  0  0  0  0  0  0  0  0
  -28.3444   61.3641   62.3423 C   0  0  0  0  0  0  0  0  0  0  0  0
  -27.0841   59.8943   62.1329 H   0  0  0  0  0  0  0  0  0  0  0  0
  -30.0507   65.4928   60.8553 O   0  0  0  0  0  0  0  0  0  0  0  0
  -28.7965   67.1025   59.2574 O   0  0  0  0  0  0  0  0  0  0  0  0
  -31.1454   67.4802   59.7359 O   0  0  0  0  0  0  0  0  0  0  0  0
  -30.4770   65.6842   58.2521 O   0  0  0  0  0  0  0  0  0  0  0  0
  -30.1136   66.4375   59.4857 S   0  0  0  0  0  0  0  0  0  0  0  0
  -28.5430   67.5987   60.0513 H   0  0  0  0  0  0  0  0  0  0  0  0
  -29.8090   65.0018   58.0814 H   0  0  0  0  0  0  0  0  0  0  0  0
  2  1  1  0  0  0
  2  4  1  0  0  0
  2  5  1  0  0  0
 41 42  1  0  0  0
 41  1  1  0  0  0
 42 46  1  0  0  0
  1 24  1  0  0  0
 23 24  1  0  0  0
 23 25  1  0  0  0
 24 26  1  0  0  0
  3  4  2  0  0  0
 26 27  2  0  0  0
 27 28  1  0  0  0
 43 47  1  0  0  0
 43 51  1  0  0  0
 28 29  1  0  0  0
 56 48  1  0  0  0
 56 60  1  0  0  0
 29 30  1  0  0  0
 57 60  1  0  0  0
 57 61  1  0  0  0
 30 31  1  0  0  0
 44 49  1  0  0  0
 44 52  1  0  0  0
 31 32  1  0  0  0
 45 46  1  0  0  0
 45 50  1  0  0  0
 32 33  1  0  0  0
 53 54  1  0  0  0
 53 55  1  0  0  0
 33 34  1  0  0  0
 34 35  1  0  0  0
 35 36  1  0  0  0
 58 60  1  0  0  0
 36 37  1  0  0  0
 59 60  1  0  0  0
 59 62  1  0  0  0
 37 38  1  0  0  0
 38 39  1  0  0  0
 39 40  1  0  0  0
  4  6  1  0  0  0
  6  7  1  0  0  0
  7  8  1  0  0  0
  8  9  1  0  0  0
  9 10  1  0  0  0
 10 11  1  0  0  0
 11 12  1  0  0  0
 12 13  1  0  0  0
 13 14  1  0  0  0
 14 15  1  0  0  0
 15 16  1  0  0  0
 16 17  1  0  0  0
 17 18  1  0  0  0
 18 19  1  0  0  0
 19 20  1  0  0  0
 20 21  1  0  0  0
 21 22  1  0  0  0
 46 47  1  0  0  0
 47 48  1  0  0  0
 48 49  1  0  0  0
 49 50  1  0  0  0
 50 54  1  0  0  0
M  CHG 1  58  -1
M  END
> <minimizedAffinity>
-8.57846

> <CNNscore>
0.1555375904

> <CNNaffinity>
6.8123002052

> <CNN_VS>
1.0595687628

> <CNNaffinity_variance>
0.7288432121

$$$$
/media/chris/experiments/cd1a-new-docking/inputs/ligands/1onq_ligand.pdb


 62 62  0  0  0  0  0  0  0  0999 V2000
  -41.1056   59.9128   65.9900 C   0  0  0  0  0  0  0  0  0  0  0  0
  -41.9928   58.9347   65.3922 N   0  0  0  0  0  0  0  0  0  0  0  0
  -42.4582   57.5786   67.1506 O   0  0  0  0  0  0  0  0  0  0  0  0
  -42.5817   57.8846   65.9807 C   0  0  0  0  0  0  0  0  0  0  0  0
  -42.1868   59.0571   64.4348 H   0  0  0  0  0  0  0  0  0  0  0  0
  -43.4571   57.0597   65.0845 C   0  0  0  0  0  0  0  0  0  0  0  0
  -44.8998   57.4349   65.4231 C   0  0  0  0  0  0  0  0  0  0  0  0
  -45.3370   58.6347   64.5861 C   0  0  0  0  0  0  0  0  0  0  0  0
  -45.9724   59.7756   65.3431 C   0  0  0  0  0  0  0  0  0  0  0  0
  -47.4143   59.9011   64.8626 C   0  0  0  0  0  0  0  0  0  0  0  0
  -48.4230   59.2994   65.8502 C   0  0  0  0  0  0  0  0  0  0  0  0
  -49.8427   59.8849   65.7394 C   0  0  0  0  0  0  0  0  0  0  0  0
  -50.0757   60.6485   64.4172 C   0  0  0  0  0  0  0  0  0  0  0  0
  -51.3812   60.1972   63.7560 C   0  0  0  0  0  0  0  0  0  0  0  0
  -51.2100   59.4020   62.4674 C   0  0  0  0  0  0  0  0  0  0  0  0
  -50.3930   58.1352   62.6749 C   0  0  0  0  0  0  0  0  0  0  0  0
  -49.9056   57.4353   61.4042 C   0  0  0  0  0  0  0  0  0  0  0  0
  -49.9619   58.4366   60.2583 C   0  0  0  0  0  0  0  0  0  0  0  0
  -48.7365   58.5993   59.3711 C   0  0  0  0  0  0  0  0  0  0  0  0
  -48.1206   57.2337   59.0281 C   0  0  0  0  0  0  0  0  0  0  0  0
  -46.9703   57.2905   58.0060 C   0  0  0  0  0  0  0  0  0  0  0  0
  -47.0441   58.5028   57.0806 C   0  0  0  0  0  0  0  0  0  0  0  0
  -42.7989   61.2483   66.8531 O   0  0  0  0  0  0  0  0  0  0  0  0
  -41.8644   61.2136   65.7905 C   0  0  0  0  0  0  0  0  0  0  0  0
  -42.3256   61.2580   67.6997 H   0  0  0  0  0  0  0  0  0  0  0  0
  -42.5483   61.1966   64.4214 C   0  0  0  0  0  0  0  0  0  0  0  0
  -42.1844   62.0052   63.4114 C   0  0  0  0  0  0  0  0  0  0  0  0
  -42.9180   61.9283   62.0738 C   0  0  0  0  0  0  0  0  0  0  0  0
  -42.0066   61.5964   60.8832 C   0  0  0  0  0  0  0  0  0  0  0  0
  -40.9711   60.4831   61.1265 C   0  0  0  0  0  0  0  0  0  0  0  0
  -40.9110   59.5157   59.9199 C   0  0  0  0  0  0  0  0  0  0  0  0
  -41.2838   58.0443   60.2320 C   0  0  0  0  0  0  0  0  0  0  0  0
  -41.8267   57.8183   61.6628 C   0  0  0  0  0  0  0  0  0  0  0  0
  -40.8591   57.0318   62.5734 C   0  0  0  0  0  0  0  0  0  0  0  0
  -39.4374   56.9165   62.0108 C   0  0  0  0  0  0  0  0  0  0  0  0
  -38.4462   57.9851   62.4671 C   0  0  0  0  0  0  0  0  0  0  0  0
  -37.1548   58.0402   61.6274 C   0  0  0  0  0  0  0  0  0  0  0  0
  -35.8909   58.4541   62.3963 C   0  0  0  0  0  0  0  0  0  0  0  0
  -35.8988   57.8811   63.8164 C   0  0  0  0  0  0  0  0  0  0  0  0
  -34.6429   58.1017   64.6406 C   0  0  0  0  0  0  0  0  0  0  0  0
  -39.6415   59.8729   65.4964 C   0  0  0  0  0  0  0  0  0  0  0  0
  -39.1322   61.0825   64.8794 O   0  0  0  0  0  0  0  0  0  0  0  0
  -37.6123   61.4949   62.4925 O   0  0  0  0  0  0  0  0  0  0  0  0
  -35.7423   64.4141   64.8122 O   0  0  0  0  0  0  0  0  0  0  0  0
  -37.2222   62.0622   66.0097 O   0  0  0  0  0  0  0  0  0  0  0  0
  -37.6837   61.3641   64.8276 C   0  0  0  0  0  0  0  0  0  0  0  0
  -37.1985   62.1904   63.6280 C   0  0  0  0  0  0  0  0  0  0  0  0
  -35.6636   62.3513   63.5656 C   0  0  0  0  0  0  0  0  0  0  0  0
  -35.2650   63.0709   64.8244 C   0  0  0  0  0  0  0  0  0  0  0  0
  -35.7926   62.3207   66.0341 C   0  0  0  0  0  0  0  0  0  0  0  0
  -38.5757   61.3842   62.5144 H   0  0  0  0  0  0  0  0  0  0  0  0
  -35.3937   64.8740   64.0325 H   0  0  0  0  0  0  0  0  0  0  0  0
  -36.3398   64.0175   67.6264 O   0  0  0  0  0  0  0  0  0  0  0  0
  -35.2973   63.2054   67.1762 C   0  0  0  0  0  0  0  0  0  0  0  0
  -36.0228   64.5783   68.3515 H   0  0  0  0  0  0  0  0  0  0  0  0
  -35.1530   63.1447   62.4704 O   0  0  0  0  0  0  0  0  0  0  0  0
  -33.3139   63.7667   60.7535 O   0  0  0  0  0  0  0  0  0  0  0  0
  -32.8869   62.0228   62.3861 O   0  0  0  0  0  0  0  0  0  0  0  0
  -32.8741   64.3515   63.0579 O   0  0  0  0  0  0  0  0  0  0  0  0
  -33.5280   63.3483   62.1705 S   0  0  0  0  0  0  0  0  0  0  0  0
  -33.7333   63.1245   60.1598 H   0  0  0  0  0  0  0  0  0  0  0  0
  -33.2863   65.2193   62.9237 H   0  0  0  0  0  0  0  0  0  0  0  0
  2  1  1  0  0  0
  2  4  1  0  0  0
  2  5  1  0  0  0
 41 42  1  0  0  0
 41  1  1  0  0  0
 42 46  1  0  0  0
  1 24  1  0  0  0
 23 24  1  0  0  0
 23 25  1  0  0  0
 24 26  1  0  0  0
  3  4  2  0  0  0
 26 27  2  0  0  0
 27 28  1  0  0  0
 43 47  1  0  0  0
 43 51  1  0  0  0
 28 29  1  0  0  0
 56 48  1  0  0  0
 56 60  1  0  0  0
 29 30  1  0  0  0
 57 60  1  0  0  0
 57 61  1  0  0  0
 30 31  1  0  0  0
 44 49  1  0  0  0
 44 52  1  0  0  0
 31 32  1  0  0  0
 45 46  1  0  0  0
 45 50  1  0  0  0
 32 33  1  0  0  0
 53 54  1  0  0  0
 53 55  1  0  0  0
 33 34  1  0  0  0
 34 35  1  0  0  0
 35 36  1  0  0  0
 58 60  1  0  0  0
 36 37  1  0  0  0
 59 60  1  0  0  0
 59 62  1  0  0  0
 37 38  1  0  0  0
 38 39  1  0  0  0
 39 40  1  0  0  0
  4  6  1  0  0  0
  6  7  1  0  0  0
  7  8  1  0  0  0
  8  9  1  0  0  0
  9 10  1  0  0  0
 10 11  1  0  0  0
 11 12  1  0  0  0
 12 13  1  0  0  0
 13 14  1  0  0  0
 14 15  1  0  0  0
 15 16  1  0  0  0
 16 17  1  0  0  0
 17 18  1  0  0  0
 18 19  1  0  0  0
 19 20  1  0  0  0
 20 21  1  0  0  0
 21 22  1  0  0  0
 46 47  1  0  0  0
 47 48  1  0  0  0
 48 49  1  0  0  0
 49 50  1  0  0  0
 50 54  1  0  0  0
M  CHG 1  58  -1
M  END
> <minimizedAffinity>
-9.34627

> <CNNscore>
0.1483758837

> <CNNaffinity>
7.0881309509

> <CNN_VS>
1.0517077446

> <CNNaffinity_variance>
2.1671166420

$$$$
/media/chris/experiments/cd1a-new-docking/inputs/ligands/1onq_ligand.pdb


 62 62  0  0  0  0  0  0  0  0999 V2000
  -39.1996   60.1190   64.7744 C   0  0  0  0  0  0  0  0  0  0  0  0
  -40.5517   60.5637   64.5001 N   0  0  0  0  0  0  0  0  0  0  0  0
  -40.4086   61.2072   62.3292 O   0  0  0  0  0  0  0  0  0  0  0  0
  -41.0439   61.0539   63.3542 C   0  0  0  0  0  0  0  0  0  0  0  0
  -41.1875   60.4973   65.2489 H   0  0  0  0  0  0  0  0  0  0  0  0
  -42.4983   61.4189   63.3894 C   0  0  0  0  0  0  0  0  0  0  0  0
  -42.9215   61.3714   64.8577 C   0  0  0  0  0  0  0  0  0  0  0  0
  -44.3025   60.7324   64.9821 C   0  0  0  0  0  0  0  0  0  0  0  0
  -44.3933   59.2716   64.6128 C   0  0  0  0  0  0  0  0  0  0  0  0
  -45.8557   58.9628   64.3097 C   0  0  0  0  0  0  0  0  0  0  0  0
  -46.8231   59.9207   65.0179 C   0  0  0  0  0  0  0  0  0  0  0  0
  -47.7023   59.2525   66.0907 C   0  0  0  0  0  0  0  0  0  0  0  0
  -49.0147   60.0222   66.3563 C   0  0  0  0  0  0  0  0  0  0  0  0
  -50.1228   59.5412   65.4151 C   0  0  0  0  0  0  0  0  0  0  0  0
  -50.4420   60.4830   64.2604 C   0  0  0  0  0  0  0  0  0  0  0  0
  -51.4678   59.8952   63.3026 C   0  0  0  0  0  0  0  0  0  0  0  0
  -50.9992   58.7015   62.4673 C   0  0  0  0  0  0  0  0  0  0  0  0
  -49.5959   58.9998   61.9568 C   0  0  0  0  0  0  0  0  0  0  0  0
  -49.0017   58.0962   60.8865 C   0  0  0  0  0  0  0  0  0  0  0  0
  -49.5183   58.4826   59.4916 C   0  0  0  0  0  0  0  0  0  0  0  0
  -48.8479   57.7260   58.3301 C   0  0  0  0  0  0  0  0  0  0  0  0
  -47.5264   58.3489   57.8864 C   0  0  0  0  0  0  0  0  0  0  0  0
  -38.0789   58.1427   65.2582 O   0  0  0  0  0  0  0  0  0  0  0  0
  -39.3899   58.6401   65.0643 C   0  0  0  0  0  0  0  0  0  0  0  0
  -37.6733   58.5881   66.0185 H   0  0  0  0  0  0  0  0  0  0  0  0
  -40.0886   57.9763   63.8754 C   0  0  0  0  0  0  0  0  0  0  0  0
  -41.2208   57.2625   63.9972 C   0  0  0  0  0  0  0  0  0  0  0  0
  -41.8572   56.6296   62.7611 C   0  0  0  0  0  0  0  0  0  0  0  0
  -41.8988   57.5582   61.5387 C   0  0  0  0  0  0  0  0  0  0  0  0
  -41.1957   57.0287   60.2752 C   0  0  0  0  0  0  0  0  0  0  0  0
  -41.0471   58.1499   59.2188 C   0  0  0  0  0  0  0  0  0  0  0  0
  -40.1581   59.3460   59.6436 C   0  0  0  0  0  0  0  0  0  0  0  0
  -38.6397   59.0549   59.5961 C   0  0  0  0  0  0  0  0  0  0  0  0
  -38.1627   58.0813   60.6956 C   0  0  0  0  0  0  0  0  0  0  0  0
  -37.2392   58.7278   61.7351 C   0  0  0  0  0  0  0  0  0  0  0  0
  -36.2723   57.7873   62.4513 C   0  0  0  0  0  0  0  0  0  0  0  0
  -35.1219   58.5090   63.1804 C   0  0  0  0  0  0  0  0  0  0  0  0
  -33.7135   58.1958   62.6529 C   0  0  0  0  0  0  0  0  0  0  0  0
  -32.6515   58.4789   63.7192 C   0  0  0  0  0  0  0  0  0  0  0  0
  -33.1391   58.5516   65.1553 C   0  0  0  0  0  0  0  0  0  0  0  0
  -38.4277   60.9459   65.8277 C   0  0  0  0  0  0  0  0  0  0  0  0
  -37.6951   62.0976   65.3379 O   0  0  0  0  0  0  0  0  0  0  0  0
  -36.2957   61.7861   62.8636 O   0  0  0  0  0  0  0  0  0  0  0  0
  -33.7305   64.6029   64.5622 O   0  0  0  0  0  0  0  0  0  0  0  0
  -35.5551   62.8380   66.2087 O   0  0  0  0  0  0  0  0  0  0  0  0
  -36.2268   62.0629   65.1860 C   0  0  0  0  0  0  0  0  0  0  0  0
  -35.6745   62.5606   63.8426 C   0  0  0  0  0  0  0  0  0  0  0  0
  -34.1462   62.3901   63.6986 C   0  0  0  0  0  0  0  0  0  0  0  0
  -33.5264   63.2114   64.7952 C   0  0  0  0  0  0  0  0  0  0  0  0
  -34.1045   62.7975   66.1364 C   0  0  0  0  0  0  0  0  0  0  0  0
  -37.2581   61.8810   62.9387 H   0  0  0  0  0  0  0  0  0  0  0  0
  -33.3542   64.8452   63.7015 H   0  0  0  0  0  0  0  0  0  0  0  0
  -34.1582   64.8586   67.3460 O   0  0  0  0  0  0  0  0  0  0  0  0
  -33.3661   63.7389   67.0856 C   0  0  0  0  0  0  0  0  0  0  0  0
  -33.6870   65.4548   67.9489 H   0  0  0  0  0  0  0  0  0  0  0  0
  -33.5682   62.8682   62.4628 O   0  0  0  0  0  0  0  0  0  0  0  0
  -31.6796   63.0097   60.6936 O   0  0  0  0  0  0  0  0  0  0  0  0
  -31.4217   61.5365   62.6047 O   0  0  0  0  0  0  0  0  0  0  0  0
  -31.1823   63.9335   62.8719 O   0  0  0  0  0  0  0  0  0  0  0  0
  -31.9315   62.8611   62.1576 S   0  0  0  0  0  0  0  0  0  0  0  0
  -32.1601   62.3189   60.2111 H   0  0  0  0  0  0  0  0  0  0  0  0
  -31.5085   64.8011   62.5862 H   0  0  0  0  0  0  0  0  0  0  0  0
  2  1  1  0  0  0
  2  4  1  0  0  0
  2  5  1  0  0  0
 41 42  1  0  0  0
 41  1  1  0  0  0
 42 46  1  0  0  0
  1 24  1  0  0  0
 23 24  1  0  0  0
 23 25  1  0  0  0
 24 26  1  0  0  0
  3  4  2  0  0  0
 26 27  2  0  0  0
 27 28  1  0  0  0
 43 47  1  0  0  0
 43 51  1  0  0  0
 28 29  1  0  0  0
 56 48  1  0  0  0
 56 60  1  0  0  0
 29 30  1  0  0  0
 57 60  1  0  0  0
 57 61  1  0  0  0
 30 31  1  0  0  0
 44 49  1  0  0  0
 44 52  1  0  0  0
 31 32  1  0  0  0
 45 46  1  0  0  0
 45 50  1  0  0  0
 32 33  1  0  0  0
 53 54  1  0  0  0
 53 55  1  0  0  0
 33 34  1  0  0  0
 34 35  1  0  0  0
 35 36  1  0  0  0
 58 60  1  0  0  0
 36 37  1  0  0  0
 59 60  1  0  0  0
 59 62  1  0  0  0
 37 38  1  0  0  0
 38 39  1  0  0  0
 39 40  1  0  0  0
  4  6  1  0  0  0
  6  7  1  0  0  0
  7  8  1  0  0  0
  8  9  1  0  0  0
  9 10  1  0  0  0
 10 11  1  0  0  0
 11 12  1  0  0  0
 12 13  1  0  0  0
 13 14  1  0  0  0
 14 15  1  0  0  0
 15 16  1  0  0  0
 16 17  1  0  0  0
 17 18  1  0  0  0
 18 19  1  0  0  0
 19 20  1  0  0  0
 20 21  1  0  0  0
 21 22  1  0  0  0
 46 47  1  0  0  0
 47 48  1  0  0  0
 48 49  1  0  0  0
 49 50  1  0  0  0
 50 54  1  0  0  0
M  CHG 1  58  -1
M  END
> <minimizedAffinity>
-9.25059

> <CNNscore>
0.1378379613

> <CNNaffinity>
6.8884735107

> <CNN_VS>
0.9494931698

> <CNNaffinity_variance>
1.4901387691

$$$$
/media/chris/experiments/cd1a-new-docking/inputs/ligands/1onq_ligand.pdb


 62 62  0  0  0  0  0  0  0  0999 V2000
  -42.8775   58.2987   64.3606 C   0  0  0  0  0  0  0  0  0  0  0  0
  -43.9808   58.9604   65.0285 N   0  0  0  0  0  0  0  0  0  0  0  0
  -44.6255   57.3979   66.5419 O   0  0  0  0  0  0  0  0  0  0  0  0
  -44.7445   58.4916   66.0249 C   0  0  0  0  0  0  0  0  0  0  0  0
  -44.1959   59.8670   64.7105 H   0  0  0  0  0  0  0  0  0  0  0  0
  -45.8088   59.4312   66.5088 C   0  0  0  0  0  0  0  0  0  0  0  0
  -46.1572   60.3366   65.3273 C   0  0  0  0  0  0  0  0  0  0  0  0
  -47.6645   60.3207   65.0846 C   0  0  0  0  0  0  0  0  0  0  0  0
  -48.5263   60.0093   66.2841 C   0  0  0  0  0  0  0  0  0  0  0  0
  -49.7833   59.3088   65.7790 C   0  0  0  0  0  0  0  0  0  0  0  0
  -49.5174   58.4241   64.5536 C   0  0  0  0  0  0  0  0  0  0  0  0
  -50.6168   58.4874   63.4776 C   0  0  0  0  0  0  0  0  0  0  0  0
  -50.8186   59.9089   62.9082 C   0  0  0  0  0  0  0  0  0  0  0  0
  -49.5879   60.3511   62.1113 C   0  0  0  0  0  0  0  0  0  0  0  0
  -49.7624   60.3419   60.5975 C   0  0  0  0  0  0  0  0  0  0  0  0
  -49.1478   59.1081   59.9530 C   0  0  0  0  0  0  0  0  0  0  0  0
  -50.0875   57.9168   59.7534 C   0  0  0  0  0  0  0  0  0  0  0  0
  -49.2667   56.6392   59.8667 C   0  0  0  0  0  0  0  0  0  0  0  0
  -47.8042   56.6724   59.4483 C   0  0  0  0  0  0  0  0  0  0  0  0
  -47.6389   56.2154   57.9902 C   0  0  0  0  0  0  0  0  0  0  0  0
  -47.8625   57.3234   56.9445 C   0  0  0  0  0  0  0  0  0  0  0  0
  -46.8370   58.4514   57.0312 C   0  0  0  0  0  0  0  0  0  0  0  0
  -41.7066   60.0235   65.3852 O   0  0  0  0  0  0  0  0  0  0  0  0
  -41.7031   58.6126   65.2714 C   0  0  0  0  0  0  0  0  0  0  0  0
  -42.5383   60.3130   65.7920 H   0  0  0  0  0  0  0  0  0  0  0  0
  -40.4137   58.0886   64.6348 C   0  0  0  0  0  0  0  0  0  0  0  0
  -39.1903   58.4062   65.0916 C   0  0  0  0  0  0  0  0  0  0  0  0
  -37.9504   57.8427   64.3999 C   0  0  0  0  0  0  0  0  0  0  0  0
  -36.7942   57.5242   65.3591 C   0  0  0  0  0  0  0  0  0  0  0  0
  -35.3889   57.5157   64.7295 C   0  0  0  0  0  0  0  0  0  0  0  0
  -35.4331   58.0581   63.2806 C   0  0  0  0  0  0  0  0  0  0  0  0
  -34.0514   58.3181   62.6289 C   0  0  0  0  0  0  0  0  0  0  0  0
  -33.1401   59.2728   63.4356 C   0  0  0  0  0  0  0  0  0  0  0  0
  -32.3269   60.2437   62.5522 C   0  0  0  0  0  0  0  0  0  0  0  0
  -30.8268   59.9291   62.5076 C   0  0  0  0  0  0  0  0  0  0  0  0
  -30.0087   60.7045   61.4771 C   0  0  0  0  0  0  0  0  0  0  0  0
  -28.5138   60.8302   61.8311 C   0  0  0  0  0  0  0  0  0  0  0  0
  -28.1934   61.7863   62.9901 C   0  0  0  0  0  0  0  0  0  0  0  0
  -28.6309   63.2163   62.6601 C   0  0  0  0  0  0  0  0  0  0  0  0
  -29.5359   63.8960   63.6723 C   0  0  0  0  0  0  0  0  0  0  0  0
  -42.7102   58.6332   62.8609 C   0  0  0  0  0  0  0  0  0  0  0  0
  -42.3529   60.0011   62.5378 O   0  0  0  0  0  0  0  0  0  0  0  0
  -40.0369   61.3780   63.4959 O   0  0  0  0  0  0  0  0  0  0  0  0
  -38.0388   58.5661   61.1507 O   0  0  0  0  0  0  0  0  0  0  0  0
  -40.9290   59.3340   60.6904 O   0  0  0  0  0  0  0  0  0  0  0  0
  -41.1512   60.3098   61.7374 C   0  0  0  0  0  0  0  0  0  0  0  0
  -39.8301   60.4106   62.5133 C   0  0  0  0  0  0  0  0  0  0  0  0
  -38.6319   60.8508   61.6438 C   0  0  0  0  0  0  0  0  0  0  0  0
  -38.4743   59.7983   60.5815 C   0  0  0  0  0  0  0  0  0  0  0  0
  -39.7859   59.6170   59.8391 C   0  0  0  0  0  0  0  0  0  0  0  0
  -40.7872   61.1178   64.0529 H   0  0  0  0  0  0  0  0  0  0  0  0
  -37.2008   58.7047   61.6193 H   0  0  0  0  0  0  0  0  0  0  0  0
  -38.1433   58.7713   58.3224 O   0  0  0  0  0  0  0  0  0  0  0  0
  -39.4167   58.5241   58.8385 C   0  0  0  0  0  0  0  0  0  0  0  0
  -37.9112   58.0759   57.6873 H   0  0  0  0  0  0  0  0  0  0  0  0
  -37.3560   60.9354   62.3181 O   0  0  0  0  0  0  0  0  0  0  0  0
  -36.6260   63.3645   61.7854 O   0  0  0  0  0  0  0  0  0  0  0  0
  -35.3468   62.0516   63.3756 O   0  0  0  0  0  0  0  0  0  0  0  0
  -37.5007   62.9679   64.0043 O   0  0  0  0  0  0  0  0  0  0  0  0
  -36.7181   62.3634   62.8891 S   0  0  0  0  0  0  0  0  0  0  0  0
  -36.1190   62.9883   61.0491 H   0  0  0  0  0  0  0  0  0  0  0  0
  -38.3968   63.1745   63.6957 H   0  0  0  0  0  0  0  0  0  0  0  0
  2  1  1  0  0  0
  2  4  1  0  0  0
  2  5  1  0  0  0
 41 42  1  0  0  0
 41  1  1  0  0  0
 42 46  1  0  0  0
  1 24  1  0  0  0
 23 24  1  0  0  0
 23 25  1  0  0  0
 24 26  1  0  0  0
  3  4  2  0  0  0
 26 27  2  0  0  0
 27 28  1  0  0  0
 43 47  1  0  0  0
 43 51  1  0  0  0
 28 29  1  0  0  0
 56 48  1  0  0  0
 56 60  1  0  0  0
 29 30  1  0  0  0
 57 60  1  0  0  0
 57 61  1  0  0  0
 30 31  1  0  0  0
 44 49  1  0  0  0
 44 52  1  0  0  0
 31 32  1  0  0  0
 45 46  1  0  0  0
 45 50  1  0  0  0
 32 33  1  0  0  0
 53 54  1  0  0  0
 53 55  1  0  0  0
 33 34  1  0  0  0
 34 35  1  0  0  0
 35 36  1  0  0  0
 58 60  1  0  0  0
 36 37  1  0  0  0
 59 60  1  0  0  0
 59 62  1  0  0  0
 37 38  1  0  0  0
 38 39  1  0  0  0
 39 40  1  0  0  0
  4  6  1  0  0  0
  6  7  1  0  0  0
  7  8  1  0  0  0
  8  9  1  0  0  0
  9 10  1  0  0  0
 10 11  1  0  0  0
 11 12  1  0  0  0
 12 13  1  0  0  0
 13 14  1  0  0  0
 14 15  1  0  0  0
 15 16  1  0  0  0
 16 17  1  0  0  0
 17 18  1  0  0  0
 18 19  1  0  0  0
 19 20  1  0  0  0
 20 21  1  0  0  0
 21 22  1  0  0  0
 46 47  1  0  0  0
 47 48  1  0  0  0
 48 49  1  0  0  0
 49 50  1  0  0  0
 50 54  1  0  0  0
M  CHG 1  58  -1
M  END
> <minimizedAffinity>
-9.48193

> <CNNscore>
0.1355675459

> <CNNaffinity>
6.4236931801

> <CNN_VS>
0.8708443046

> <CNNaffinity_variance>
1.1657345295

$$$$
