/media/chris/experiments/cd1a-new-docking/inputs/ligands/1onq_ligand.pdb


 62 62  0  0  0  0  0  0  0  0999 V2000
  -41.6758   60.0208   64.9893 C   0  0  0  0  0  0  0  0  0  0  0  0
  -41.7331   58.6563   64.5034 N   0  0  0  0  0  0  0  0  0  0  0  0
  -42.9800   57.6357   66.1005 O   0  0  0  0  0  0  0  0  0  0  0  0
  -42.3498   57.6057   65.0614 C   0  0  0  0  0  0  0  0  0  0  0  0
  -41.2602   58.4796   63.6581 H   0  0  0  0  0  0  0  0  0  0  0  0
  -42.2294   56.3181   64.3015 C   0  0  0  0  0  0  0  0  0  0  0  0
  -41.0993   56.5154   63.2909 C   0  0  0  0  0  0  0  0  0  0  0  0
  -41.2347   55.5059   62.1535 C   0  0  0  0  0  0  0  0  0  0  0  0
  -41.5053   56.0813   60.7845 C   0  0  0  0  0  0  0  0  0  0  0  0
  -41.7944   57.5686   60.9586 C   0  0  0  0  0  0  0  0  0  0  0  0
  -41.1967   58.4246   59.8340 C   0  0  0  0  0  0  0  0  0  0  0  0
  -40.0921   59.3928   60.2954 C   0  0  0  0  0  0  0  0  0  0  0  0
  -38.7895   59.2511   59.4776 C   0  0  0  0  0  0  0  0  0  0  0  0
  -37.6827   58.6231   60.3296 C   0  0  0  0  0  0  0  0  0  0  0  0
  -38.1637   57.6359   61.3861 C   0  0  0  0  0  0  0  0  0  0  0  0
  -37.2152   57.5526   62.5728 C   0  0  0  0  0  0  0  0  0  0  0  0
  -37.7484   58.1018   63.8981 C   0  0  0  0  0  0  0  0  0  0  0  0
  -36.5951   58.1509   64.8910 C   0  0  0  0  0  0  0  0  0  0  0  0
  -35.2643   57.5290   64.4945 C   0  0  0  0  0  0  0  0  0  0  0  0
  -34.0907   58.4314   64.9076 C   0  0  0  0  0  0  0  0  0  0  0  0
  -33.0469   58.6683   63.8006 C   0  0  0  0  0  0  0  0  0  0  0  0
  -33.5760   58.3743   62.3987 C   0  0  0  0  0  0  0  0  0  0  0  0
  -42.2829   62.1477   64.2795 O   0  0  0  0  0  0  0  0  0  0  0  0
  -42.4195   60.7881   63.9096 C   0  0  0  0  0  0  0  0  0  0  0  0
  -41.3435   62.3893   64.2814 H   0  0  0  0  0  0  0  0  0  0  0  0
  -43.8831   60.3409   63.8868 C   0  0  0  0  0  0  0  0  0  0  0  0
  -44.8368   60.9196   64.6363 C   0  0  0  0  0  0  0  0  0  0  0  0
  -46.2764   60.4143   64.5577 C   0  0  0  0  0  0  0  0  0  0  0  0
  -46.4681   58.9949   65.1117 C   0  0  0  0  0  0  0  0  0  0  0  0
  -47.9135   58.4640   65.0987 C   0  0  0  0  0  0  0  0  0  0  0  0
  -48.8714   59.4616   65.7934 C   0  0  0  0  0  0  0  0  0  0  0  0
  -50.3511   59.3834   65.3398 C   0  0  0  0  0  0  0  0  0  0  0  0
  -50.7594   60.4724   64.3201 C   0  0  0  0  0  0  0  0  0  0  0  0
  -50.8012   59.9680   62.8613 C   0  0  0  0  0  0  0  0  0  0  0  0
  -50.9541   58.4473   62.7378 C   0  0  0  0  0  0  0  0  0  0  0  0
  -50.4165   57.8206   61.4530 C   0  0  0  0  0  0  0  0  0  0  0  0
  -49.0745   58.4142   60.9810 C   0  0  0  0  0  0  0  0  0  0  0  0
  -49.0173   58.8046   59.4963 C   0  0  0  0  0  0  0  0  0  0  0  0
  -48.2014   57.7887   58.6917 C   0  0  0  0  0  0  0  0  0  0  0  0
  -47.2716   58.3556   57.6337 C   0  0  0  0  0  0  0  0  0  0  0  0
  -40.2681   60.5333   65.3697 C   0  0  0  0  0  0  0  0  0  0  0  0
  -39.5267   61.2226   64.3313 O   0  0  0  0  0  0  0  0  0  0  0  0
  -37.6796   61.6063   62.1823 O   0  0  0  0  0  0  0  0  0  0  0  0
  -36.1844   64.5832   64.6926 O   0  0  0  0  0  0  0  0  0  0  0  0
  -37.8071   62.2396   65.7075 O   0  0  0  0  0  0  0  0  0  0  0  0
  -38.0879   61.5164   64.4846 C   0  0  0  0  0  0  0  0  0  0  0  0
  -37.4391   62.3256   63.3523 C   0  0  0  0  0  0  0  0  0  0  0  0
  -35.9126   62.4995   63.5099 C   0  0  0  0  0  0  0  0  0  0  0  0
  -35.7052   63.2449   64.7993 C   0  0  0  0  0  0  0  0  0  0  0  0
  -36.3976   62.5116   65.9338 C   0  0  0  0  0  0  0  0  0  0  0  0
  -38.6352   61.4873   62.0667 H   0  0  0  0  0  0  0  0  0  0  0  0
  -35.7294   65.0324   63.9631 H   0  0  0  0  0  0  0  0  0  0  0  0
  -36.2994   62.7312   68.3120 O   0  0  0  0  0  0  0  0  0  0  0  0
  -36.0789   63.4210   67.1185 C   0  0  0  0  0  0  0  0  0  0  0  0
  -36.0964   63.3109   69.0628 H   0  0  0  0  0  0  0  0  0  0  0  0
  -35.2537   63.2778   62.4852 O   0  0  0  0  0  0  0  0  0  0  0  0
  -33.2749   63.6901   60.8630 O   0  0  0  0  0  0  0  0  0  0  0  0
  -33.1429   61.8830   62.4773 O   0  0  0  0  0  0  0  0  0  0  0  0
  -32.8720   64.1819   63.1957 O   0  0  0  0  0  0  0  0  0  0  0  0
  -33.6039   63.2812   62.2606 S   0  0  0  0  0  0  0  0  0  0  0  0
  -33.7433   63.1138   60.2388 H   0  0  0  0  0  0  0  0  0  0  0  0
  -33.1667   65.0962   63.0611 H   0  0  0  0  0  0  0  0  0  0  0  0
  2  1  1  0  0  0
  2  4  1  0  0  0
  2  5  1  0  0  0
 41 42  1  0  0  0
 41  1  1  0  0  0
 42 46  1  0  0  0
  1 24  1  0  0  0
 23 24  1  0  0  0
 23 25  1  0  0  0
 24 26  1  0  0  0
  3  4  2  0  0  0
 26 27  2  0  0  0
 27 28  1  0  0  0
 43 47  1  0  0  0
 43 51  1  0  0  0
 28 29  1  0  0  0
 56 48  1  0  0  0
 56 60  1  0  0  0
 29 30  1  0  0  0
 57 60  1  0  0  0
 57 61  1  0  0  0
 30 31  1  0  0  0
 44 49  1  0  0  0
 44 52  1  0  0  0
 31 32  1  0  0  0
 45 46  1  0  0  0
 45 50  1  0  0  0
 32 33  1  0  0  0
 53 54  1  0  0  0
 53 55  1  0  0  0
 33 34  1  0  0  0
 34 35  1  0  0  0
 35 36  1  0  0  0
 58 60  1  0  0  0
 36 37  1  0  0  0
 59 60  1  0  0  0
 59 62  1  0  0  0
 37 38  1  0  0  0
 38 39  1  0  0  0
 39 40  1  0  0  0
  4  6  1  0  0  0
  6  7  1  0  0  0
  7  8  1  0  0  0
  8  9  1  0  0  0
  9 10  1  0  0  0
 10 11  1  0  0  0
 11 12  1  0  0  0
 12 13  1  0  0  0
 13 14  1  0  0  0
 14 15  1  0  0  0
 15 16  1  0  0  0
 16 17  1  0  0  0
 17 18  1  0  0  0
 18 19  1  0  0  0
 19 20  1  0  0  0
 20 21  1  0  0  0
 21 22  1  0  0  0
 46 47  1  0  0  0
 47 48  1  0  0  0
 48 49  1  0  0  0
 49 50  1  0  0  0
 50 54  1  0  0  0
M  CHG 1  58  -1
M  END
> <minimizedAffinity>
-9.86417

> <CNNscore>
0.2896226645

> <CNNaffinity>
7.2336893082

> <CNN_VS>
2.0950403214

> <CNNaffinity_variance>
2.1176323891

$$$$
/media/chris/experiments/cd1a-new-docking/inputs/ligands/1onq_ligand.pdb


 62 62  0  0  0  0  0  0  0  0999 V2000
  -41.3092   60.8157   63.7565 C   0  0  0  0  0  0  0  0  0  0  0  0
  -41.6650   59.4674   64.1522 N   0  0  0  0  0  0  0  0  0  0  0  0
  -39.8681   58.8459   65.3900 O   0  0  0  0  0  0  0  0  0  0  0  0
  -40.9581   58.6132   64.9047 C   0  0  0  0  0  0  0  0  0  0  0  0
  -42.5343   59.1382   63.8277 H   0  0  0  0  0  0  0  0  0  0  0  0
  -41.6100   57.2837   65.1434 C   0  0  0  0  0  0  0  0  0  0  0  0
  -42.2220   56.8553   63.8096 C   0  0  0  0  0  0  0  0  0  0  0  0
  -41.1158   56.5292   62.8090 C   0  0  0  0  0  0  0  0  0  0  0  0
  -41.5263   55.7096   61.6098 C   0  0  0  0  0  0  0  0  0  0  0  0
  -41.1718   56.5102   60.3611 C   0  0  0  0  0  0  0  0  0  0  0  0
  -41.4617   58.0092   60.5156 C   0  0  0  0  0  0  0  0  0  0  0  0
  -40.6125   58.9145   59.6047 C   0  0  0  0  0  0  0  0  0  0  0  0
  -39.2638   58.2735   59.2102 C   0  0  0  0  0  0  0  0  0  0  0  0
  -38.1530   58.7226   60.1640 C   0  0  0  0  0  0  0  0  0  0  0  0
  -37.8893   57.7834   61.3346 C   0  0  0  0  0  0  0  0  0  0  0  0
  -36.6907   58.2181   62.1650 C   0  0  0  0  0  0  0  0  0  0  0  0
  -36.7713   57.9245   63.6648 C   0  0  0  0  0  0  0  0  0  0  0  0
  -35.3530   57.7618   64.1944 C   0  0  0  0  0  0  0  0  0  0  0  0
  -34.1882   57.9971   63.2443 C   0  0  0  0  0  0  0  0  0  0  0  0
  -33.2803   59.1266   63.7565 C   0  0  0  0  0  0  0  0  0  0  0  0
  -31.9374   59.2529   63.0135 C   0  0  0  0  0  0  0  0  0  0  0  0
  -31.9114   60.3979   62.0036 C   0  0  0  0  0  0  0  0  0  0  0  0
  -42.6620   62.5672   64.4622 O   0  0  0  0  0  0  0  0  0  0  0  0
  -42.6651   61.4729   63.5642 C   0  0  0  0  0  0  0  0  0  0  0  0
  -41.9504   63.1808   64.2216 H   0  0  0  0  0  0  0  0  0  0  0  0
  -43.7685   60.4633   63.8892 C   0  0  0  0  0  0  0  0  0  0  0  0
  -44.8047   60.7463   64.6967 C   0  0  0  0  0  0  0  0  0  0  0  0
  -45.8660   59.6828   64.9729 C   0  0  0  0  0  0  0  0  0  0  0  0
  -46.5889   59.8601   66.3162 C   0  0  0  0  0  0  0  0  0  0  0  0
  -48.1273   59.8565   66.2508 C   0  0  0  0  0  0  0  0  0  0  0  0
  -48.6251   58.9790   65.0771 C   0  0  0  0  0  0  0  0  0  0  0  0
  -50.1636   58.8256   64.9715 C   0  0  0  0  0  0  0  0  0  0  0  0
  -50.8560   59.9373   64.1487 C   0  0  0  0  0  0  0  0  0  0  0  0
  -50.8387   59.6805   62.6261 C   0  0  0  0  0  0  0  0  0  0  0  0
  -50.9268   58.1968   62.2490 C   0  0  0  0  0  0  0  0  0  0  0  0
  -49.9220   57.7078   61.2080 C   0  0  0  0  0  0  0  0  0  0  0  0
  -50.2772   58.1033   59.7612 C   0  0  0  0  0  0  0  0  0  0  0  0
  -49.3092   57.5884   58.6852 C   0  0  0  0  0  0  0  0  0  0  0  0
  -48.0918   58.5083   58.5552 C   0  0  0  0  0  0  0  0  0  0  0  0
  -47.1209   58.1887   57.4324 C   0  0  0  0  0  0  0  0  0  0  0  0
  -40.3060   60.9230   62.5856 C   0  0  0  0  0  0  0  0  0  0  0  0
  -38.9066   60.7248   62.9107 O   0  0  0  0  0  0  0  0  0  0  0  0
  -37.6283   60.9264   65.4606 O   0  0  0  0  0  0  0  0  0  0  0  0
  -34.5038   62.4954   63.1857 O   0  0  0  0  0  0  0  0  0  0  0  0
  -37.3796   62.4882   62.2445 O   0  0  0  0  0  0  0  0  0  0  0  0
  -38.0570   61.8484   63.3532 C   0  0  0  0  0  0  0  0  0  0  0  0
  -36.9669   61.5078   64.3795 C   0  0  0  0  0  0  0  0  0  0  0  0
  -36.1902   62.7405   64.8918 C   0  0  0  0  0  0  0  0  0  0  0  0
  -35.5281   63.3505   63.6874 C   0  0  0  0  0  0  0  0  0  0  0  0
  -36.5675   63.6340   62.6181 C   0  0  0  0  0  0  0  0  0  0  0  0
  -38.1224   60.1490   65.1572 H   0  0  0  0  0  0  0  0  0  0  0  0
  -33.8517   62.3278   63.8840 H   0  0  0  0  0  0  0  0  0  0  0  0
  -34.7558   65.0898   62.0591 O   0  0  0  0  0  0  0  0  0  0  0  0
  -35.7025   64.2251   61.5069 C   0  0  0  0  0  0  0  0  0  0  0  0
  -34.2079   65.4638   61.3515 H   0  0  0  0  0  0  0  0  0  0  0  0
  -35.1322   62.4744   65.8404 O   0  0  0  0  0  0  0  0  0  0  0  0
  -35.2525   64.6104   67.3034 O   0  0  0  0  0  0  0  0  0  0  0  0
  -33.5317   64.4194   65.6030 O   0  0  0  0  0  0  0  0  0  0  0  0
  -33.3496   63.1641   67.6683 O   0  0  0  0  0  0  0  0  0  0  0  0
  -34.2983   63.6745   66.6383 S   0  0  0  0  0  0  0  0  0  0  0  0
  -35.8792   64.9535   66.6472 H   0  0  0  0  0  0  0  0  0  0  0  0
  -33.8414   62.6768   68.3477 H   0  0  0  0  0  0  0  0  0  0  0  0
  2  1  1  0  0  0
  2  4  1  0  0  0
  2  5  1  0  0  0
 41 42  1  0  0  0
 41  1  1  0  0  0
 42 46  1  0  0  0
  1 24  1  0  0  0
 23 24  1  0  0  0
 23 25  1  0  0  0
 24 26  1  0  0  0
  3  4  2  0  0  0
 26 27  2  0  0  0
 27 28  1  0  0  0
 43 47  1  0  0  0
 43 51  1  0  0  0
 28 29  1  0  0  0
 56 48  1  0  0  0
 56 60  1  0  0  0
 29 30  1  0  0  0
 57 60  1  0  0  0
 57 61  1  0  0  0
 30 31  1  0  0  0
 44 49  1  0  0  0
 44 52  1  0  0  0
 31 32  1  0  0  0
 45 46  1  0  0  0
 45 50  1  0  0  0
 32 33  1  0  0  0
 53 54  1  0  0  0
 53 55  1  0  0  0
 33 34  1  0  0  0
 34 35  1  0  0  0
 35 36  1  0  0  0
 58 60  1  0  0  0
 36 37  1  0  0  0
 59 60  1  0  0  0
 59 62  1  0  0  0
 37 38  1  0  0  0
 38 39  1  0  0  0
 39 40  1  0  0  0
  4  6  1  0  0  0
  6  7  1  0  0  0
  7  8  1  0  0  0
  8  9  1  0  0  0
  9 10  1  0  0  0
 10 11  1  0  0  0
 11 12  1  0  0  0
 12 13  1  0  0  0
 13 14  1  0  0  0
 14 15  1  0  0  0
 15 16  1  0  0  0
 16 17  1  0  0  0
 17 18  1  0  0  0
 18 19  1  0  0  0
 19 20  1  0  0  0
 20 21  1  0  0  0
 21 22  1  0  0  0
 46 47  1  0  0  0
 47 48  1  0  0  0
 48 49  1  0  0  0
 49 50  1  0  0  0
 50 54  1  0  0  0
M  CHG 1  58  -1
M  END
> <minimizedAffinity>
-9.72167

> <CNNscore>
0.2085158378

> <CNNaffinity>
7.1645317078

> <CNN_VS>
1.4939182997

> <CNNaffinity_variance>
1.2045143843

$$$$
/media/chris/experiments/cd1a-new-docking/inputs/ligands/1onq_ligand.pdb


 62 62  0  0  0  0  0  0  0  0999 V2000
  -37.7017   59.3752   63.6665 C   0  0  0  0  0  0  0  0  0  0  0  0
  -39.0820   59.4522   64.1024 N   0  0  0  0  0  0  0  0  0  0  0  0
  -39.7819   61.3762   63.1248 O   0  0  0  0  0  0  0  0  0  0  0  0
  -39.9868   60.3989   63.8181 C   0  0  0  0  0  0  0  0  0  0  0  0
  -39.3936   58.7175   64.6789 H   0  0  0  0  0  0  0  0  0  0  0  0
  -41.3439   60.1852   64.4199 C   0  0  0  0  0  0  0  0  0  0  0  0
  -42.3391   60.9088   63.5127 C   0  0  0  0  0  0  0  0  0  0  0  0
  -43.7485   60.3728   63.7524 C   0  0  0  0  0  0  0  0  0  0  0  0
  -44.7794   61.3870   64.1851 C   0  0  0  0  0  0  0  0  0  0  0  0
  -45.7912   60.6668   65.0702 C   0  0  0  0  0  0  0  0  0  0  0  0
  -47.0143   60.1688   64.2887 C   0  0  0  0  0  0  0  0  0  0  0  0
  -48.3589   60.7123   64.8054 C   0  0  0  0  0  0  0  0  0  0  0  0
  -49.0746   59.7331   65.7617 C   0  0  0  0  0  0  0  0  0  0  0  0
  -50.4370   59.3236   65.1949 C   0  0  0  0  0  0  0  0  0  0  0  0
  -51.1107   60.3702   64.3157 C   0  0  0  0  0  0  0  0  0  0  0  0
  -51.1766   59.9430   62.8569 C   0  0  0  0  0  0  0  0  0  0  0  0
  -50.8901   58.4660   62.5764 C   0  0  0  0  0  0  0  0  0  0  0  0
  -49.6283   58.3790   61.7285 C   0  0  0  0  0  0  0  0  0  0  0  0
  -49.4135   57.1448   60.8650 C   0  0  0  0  0  0  0  0  0  0  0  0
  -48.2282   57.3435   59.9069 C   0  0  0  0  0  0  0  0  0  0  0  0
  -48.4820   58.3614   58.7796 C   0  0  0  0  0  0  0  0  0  0  0  0
  -47.3866   58.3702   57.7160 C   0  0  0  0  0  0  0  0  0  0  0  0
  -36.2667   57.5507   63.5770 O   0  0  0  0  0  0  0  0  0  0  0  0
  -37.5792   57.9320   63.2086 C   0  0  0  0  0  0  0  0  0  0  0  0
  -36.1712   57.6102   64.5404 H   0  0  0  0  0  0  0  0  0  0  0  0
  -37.7974   57.8601   61.6954 C   0  0  0  0  0  0  0  0  0  0  0  0
  -37.9608   58.9504   60.9270 C   0  0  0  0  0  0  0  0  0  0  0  0
  -38.1747   58.7950   59.4224 C   0  0  0  0  0  0  0  0  0  0  0  0
  -39.6154   58.4321   59.0336 C   0  0  0  0  0  0  0  0  0  0  0  0
  -40.7214   59.1686   59.8117 C   0  0  0  0  0  0  0  0  0  0  0  0
  -41.4808   58.1930   60.7428 C   0  0  0  0  0  0  0  0  0  0  0  0
  -41.2278   56.6882   60.4724 C   0  0  0  0  0  0  0  0  0  0  0  0
  -41.1182   55.8246   61.7509 C   0  0  0  0  0  0  0  0  0  0  0  0
  -41.1536   56.6476   63.0570 C   0  0  0  0  0  0  0  0  0  0  0  0
  -42.1154   56.0896   64.1128 C   0  0  0  0  0  0  0  0  0  0  0  0
  -42.4705   57.0308   65.2619 C   0  0  0  0  0  0  0  0  0  0  0  0
  -43.9856   57.2404   65.4539 C   0  0  0  0  0  0  0  0  0  0  0  0
  -44.3868   57.9765   66.7411 C   0  0  0  0  0  0  0  0  0  0  0  0
  -45.8262   57.6398   67.1412 C   0  0  0  0  0  0  0  0  0  0  0  0
  -46.6803   56.9635   66.0836 C   0  0  0  0  0  0  0  0  0  0  0  0
  -36.6532   59.8788   64.6843 C   0  0  0  0  0  0  0  0  0  0  0  0
  -35.3113   60.0957   64.1789 O   0  0  0  0  0  0  0  0  0  0  0  0
  -33.0526   61.1739   62.7959 O   0  0  0  0  0  0  0  0  0  0  0  0
  -34.6710   64.8043   64.0607 O   0  0  0  0  0  0  0  0  0  0  0  0
  -35.2667   62.1731   65.4309 O   0  0  0  0  0  0  0  0  0  0  0  0
  -34.4966   61.2391   64.6359 C   0  0  0  0  0  0  0  0  0  0  0  0
  -33.8223   62.0710   63.5354 C   0  0  0  0  0  0  0  0  0  0  0  0
  -32.8910   63.1776   64.0770 C   0  0  0  0  0  0  0  0  0  0  0  0
  -33.7585   64.0943   64.8945 C   0  0  0  0  0  0  0  0  0  0  0  0
  -34.5007   63.2939   65.9494 C   0  0  0  0  0  0  0  0  0  0  0  0
  -33.6219   60.4704   62.4471 H   0  0  0  0  0  0  0  0  0  0  0  0
  -34.1763   65.3079   63.3954 H   0  0  0  0  0  0  0  0  0  0  0  0
  -36.6708   64.1904   66.3974 O   0  0  0  0  0  0  0  0  0  0  0  0
  -35.3107   64.3876   66.6422 C   0  0  0  0  0  0  0  0  0  0  0  0
  -37.1830   64.8862   66.8384 H   0  0  0  0  0  0  0  0  0  0  0  0
  -32.2507   64.0102   63.0836 O   0  0  0  0  0  0  0  0  0  0  0  0
  -33.9564   63.5674   61.1832 O   0  0  0  0  0  0  0  0  0  0  0  0
  -31.7054   62.6787   61.0026 O   0  0  0  0  0  0  0  0  0  0  0  0
  -32.1151   65.0417   60.6521 O   0  0  0  0  0  0  0  0  0  0  0  0
  -32.5138   63.8462   61.4478 S   0  0  0  0  0  0  0  0  0  0  0  0
  -34.2345   62.7908   61.6935 H   0  0  0  0  0  0  0  0  0  0  0  0
  -32.6376   65.8081   60.9361 H   0  0  0  0  0  0  0  0  0  0  0  0
  2  1  1  0  0  0
  2  4  1  0  0  0
  2  5  1  0  0  0
 41 42  1  0  0  0
 41  1  1  0  0  0
 42 46  1  0  0  0
  1 24  1  0  0  0
 23 24  1  0  0  0
 23 25  1  0  0  0
 24 26  1  0  0  0
  3  4  2  0  0  0
 26 27  2  0  0  0
 27 28  1  0  0  0
 43 47  1  0  0  0
 43 51  1  0  0  0
 28 29  1  0  0  0
 56 48  1  0  0  0
 56 60  1  0  0  0
 29 30  1  0  0  0
 57 60  1  0  0  0
 57 61  1  0  0  0
 30 31  1  0  0  0
 44 49  1  0  0  0
 44 52  1  0  0  0
 31 32  1  0  0  0
 45 46  1  0  0  0
 45 50  1  0  0  0
 32 33  1  0  0  0
 53 54  1  0  0  0
 53 55  1  0  0  0
 33 34  1  0  0  0
 34 35  1  0  0  0
 35 36  1  0  0  0
 58 60  1  0  0  0
 36 37  1  0  0  0
 59 60  1  0  0  0
 59 62  1  0  0  0
 37 38  1  0  0  0
 38 39  1  0  0  0
 39 40  1  0  0  0
  4  6  1  0  0  0
  6  7  1  0  0  0
  7  8  1  0  0  0
  8  9  1  0  0  0
  9 10  1  0  0  0
 10 11  1  0  0  0
 11 12  1  0  0  0
 12 13  1  0  0  0
 13 14  1  0  0  0
 14 15  1  0  0  0
 15 16  1  0  0  0
 16 17  1  0  0  0
 17 18  1  0  0  0
 18 19  1  0  0  0
 19 20  1  0  0  0
 20 21  1  0  0  0
 21 22  1  0  0  0
 46 47  1  0  0  0
 47 48  1  0  0  0
 48 49  1  0  0  0
 49 50  1  0  0  0
 50 54  1  0  0  0
M  CHG 1  58  -1
M  END
> <minimizedAffinity>
-9.42599

> <CNNscore>
0.2008510232

> <CNNaffinity>
7.1638288498

> <CNN_VS>
1.4388623238

> <CNNaffinity_variance>
1.0489590168

$$$$
/media/chris/experiments/cd1a-new-docking/inputs/ligands/1onq_ligand.pdb


 62 62  0  0  0  0  0  0  0  0999 V2000
  -41.5204   58.8367   64.3902 C   0  0  0  0  0  0  0  0  0  0  0  0
  -41.4160   58.9261   62.9472 N   0  0  0  0  0  0  0  0  0  0  0  0
  -41.5827   56.7512   62.3235 O   0  0  0  0  0  0  0  0  0  0  0  0
  -41.4521   57.9291   62.0527 C   0  0  0  0  0  0  0  0  0  0  0  0
  -41.3049   59.8322   62.5784 H   0  0  0  0  0  0  0  0  0  0  0  0
  -41.3251   58.3531   60.6196 C   0  0  0  0  0  0  0  0  0  0  0  0
  -40.0734   57.6660   60.0736 C   0  0  0  0  0  0  0  0  0  0  0  0
  -38.9670   58.6952   59.8546 C   0  0  0  0  0  0  0  0  0  0  0  0
  -37.7162   58.5103   60.6791 C   0  0  0  0  0  0  0  0  0  0  0  0
  -38.0716   57.6143   61.8610 C   0  0  0  0  0  0  0  0  0  0  0  0
  -37.1905   57.8761   63.0897 C   0  0  0  0  0  0  0  0  0  0  0  0
  -35.6840   57.9559   62.7819 C   0  0  0  0  0  0  0  0  0  0  0  0
  -34.8029   57.5732   63.9913 C   0  0  0  0  0  0  0  0  0  0  0  0
  -33.6833   58.5990   64.1898 C   0  0  0  0  0  0  0  0  0  0  0  0
  -32.8289   58.8678   62.9570 C   0  0  0  0  0  0  0  0  0  0  0  0
  -32.3690   60.3159   62.8778 C   0  0  0  0  0  0  0  0  0  0  0  0
  -31.6640   60.7264   61.5829 C   0  0  0  0  0  0  0  0  0  0  0  0
  -31.0414   62.0997   61.7951 C   0  0  0  0  0  0  0  0  0  0  0  0
  -30.9354   62.6413   63.2130 C   0  0  0  0  0  0  0  0  0  0  0  0
  -31.3094   64.1313   63.2620 C   0  0  0  0  0  0  0  0  0  0  0  0
  -32.2793   64.5093   64.3967 C   0  0  0  0  0  0  0  0  0  0  0  0
  -31.5708   64.8972   65.6925 C   0  0  0  0  0  0  0  0  0  0  0  0
  -42.4465   60.0824   66.1183 O   0  0  0  0  0  0  0  0  0  0  0  0
  -42.5396   59.9150   64.7158 C   0  0  0  0  0  0  0  0  0  0  0  0
  -41.5527   60.3794   66.3498 H   0  0  0  0  0  0  0  0  0  0  0  0
  -43.9302   59.4456   64.2819 C   0  0  0  0  0  0  0  0  0  0  0  0
  -45.0613   59.8591   64.8784 C   0  0  0  0  0  0  0  0  0  0  0  0
  -46.4125   59.3432   64.3869 C   0  0  0  0  0  0  0  0  0  0  0  0
  -47.3117   58.7934   65.5039 C   0  0  0  0  0  0  0  0  0  0  0  0
  -48.4859   59.6983   65.9205 C   0  0  0  0  0  0  0  0  0  0  0  0
  -49.7747   59.3130   65.1550 C   0  0  0  0  0  0  0  0  0  0  0  0
  -50.3435   60.4115   64.2216 C   0  0  0  0  0  0  0  0  0  0  0  0
  -50.7457   59.9034   62.8171 C   0  0  0  0  0  0  0  0  0  0  0  0
  -50.3863   58.4222   62.5698 C   0  0  0  0  0  0  0  0  0  0  0  0
  -50.3544   58.0336   61.0869 C   0  0  0  0  0  0  0  0  0  0  0  0
  -49.6565   59.0171   60.1499 C   0  0  0  0  0  0  0  0  0  0  0  0
  -48.5248   58.3886   59.3130 C   0  0  0  0  0  0  0  0  0  0  0  0
  -48.9854   57.4352   58.2000 C   0  0  0  0  0  0  0  0  0  0  0  0
  -48.0155   57.4636   57.0153 C   0  0  0  0  0  0  0  0  0  0  0  0
  -46.9257   58.5199   57.0601 C   0  0  0  0  0  0  0  0  0  0  0  0
  -40.1802   58.8842   65.1588 C   0  0  0  0  0  0  0  0  0  0  0  0
  -39.7149   60.1948   65.5698 O   0  0  0  0  0  0  0  0  0  0  0  0
  -39.0692   61.0067   62.9051 O   0  0  0  0  0  0  0  0  0  0  0  0
  -37.0022   64.0383   64.8889 O   0  0  0  0  0  0  0  0  0  0  0  0
  -37.7055   61.4015   66.1958 O   0  0  0  0  0  0  0  0  0  0  0  0
  -38.4050   60.7148   65.1297 C   0  0  0  0  0  0  0  0  0  0  0  0
  -38.4284   61.6860   63.9406 C   0  0  0  0  0  0  0  0  0  0  0  0
  -37.0239   62.1022   63.4516 C   0  0  0  0  0  0  0  0  0  0  0  0
  -36.3631   62.7947   64.6114 C   0  0  0  0  0  0  0  0  0  0  0  0
  -36.3868   61.8908   65.8307 C   0  0  0  0  0  0  0  0  0  0  0  0
  -39.9547   60.7370   63.1946 H   0  0  0  0  0  0  0  0  0  0  0  0
  -36.9754   64.5991   64.0978 H   0  0  0  0  0  0  0  0  0  0  0  0
  -36.4153   62.7411   68.0646 O   0  0  0  0  0  0  0  0  0  0  0  0
  -35.6936   62.7694   66.8699 C   0  0  0  0  0  0  0  0  0  0  0  0
  -35.9731   63.2998   68.7228 H   0  0  0  0  0  0  0  0  0  0  0  0
  -36.9870   63.0383   62.3506 O   0  0  0  0  0  0  0  0  0  0  0  0
  -35.5670   63.9365   60.3773 O   0  0  0  0  0  0  0  0  0  0  0  0
  -34.4579   62.9820   62.3132 O   0  0  0  0  0  0  0  0  0  0  0  0
  -35.4508   65.1892   62.4420 O   0  0  0  0  0  0  0  0  0  0  0  0
  -35.6010   63.8231   61.8655 S   0  0  0  0  0  0  0  0  0  0  0  0
  -35.6635   63.0552   59.9836 H   0  0  0  0  0  0  0  0  0  0  0  0
  -36.1925   65.7446   62.1550 H   0  0  0  0  0  0  0  0  0  0  0  0
  2  1  1  0  0  0
  2  4  1  0  0  0
  2  5  1  0  0  0
 41 42  1  0  0  0
 41  1  1  0  0  0
 42 46  1  0  0  0
  1 24  1  0  0  0
 23 24  1  0  0  0
 23 25  1  0  0  0
 24 26  1  0  0  0
  3  4  2  0  0  0
 26 27  2  0  0  0
 27 28  1  0  0  0
 43 47  1  0  0  0
 43 51  1  0  0  0
 28 29  1  0  0  0
 56 48  1  0  0  0
 56 60  1  0  0  0
 29 30  1  0  0  0
 57 60  1  0  0  0
 57 61  1  0  0  0
 30 31  1  0  0  0
 44 49  1  0  0  0
 44 52  1  0  0  0
 31 32  1  0  0  0
 45 46  1  0  0  0
 45 50  1  0  0  0
 32 33  1  0  0  0
 53 54  1  0  0  0
 53 55  1  0  0  0
 33 34  1  0  0  0
 34 35  1  0  0  0
 35 36  1  0  0  0
 58 60  1  0  0  0
 36 37  1  0  0  0
 59 60  1  0  0  0
 59 62  1  0  0  0
 37 38  1  0  0  0
 38 39  1  0  0  0
 39 40  1  0  0  0
  4  6  1  0  0  0
  6  7  1  0  0  0
  7  8  1  0  0  0
  8  9  1  0  0  0
  9 10  1  0  0  0
 10 11  1  0  0  0
 11 12  1  0  0  0
 12 13  1  0  0  0
 13 14  1  0  0  0
 14 15  1  0  0  0
 15 16  1  0  0  0
 16 17  1  0  0  0
 17 18  1  0  0  0
 18 19  1  0  0  0
 19 20  1  0  0  0
 20 21  1  0  0  0
 21 22  1  0  0  0
 46 47  1  0  0  0
 47 48  1  0  0  0
 48 49  1  0  0  0
 49 50  1  0  0  0
 50 54  1  0  0  0
M  CHG 1  58  -1
M  END
> <minimizedAffinity>
-9.02362

> <CNNscore>
0.1786943525

> <CNNaffinity>
6.7177038193

> <CNN_VS>
1.2004157305

> <CNNaffinity_variance>
1.4302133322

$$$$
/media/chris/experiments/cd1a-new-docking/inputs/ligands/1onq_ligand.pdb


 62 62  0  0  0  0  0  0  0  0999 V2000
  -41.1997   60.2055   63.5418 C   0  0  0  0  0  0  0  0  0  0  0  0
  -41.3531   59.0128   62.7324 N   0  0  0  0  0  0  0  0  0  0  0  0
  -40.4789   57.4096   64.0788 O   0  0  0  0  0  0  0  0  0  0  0  0
  -41.0010   57.7563   63.0372 C   0  0  0  0  0  0  0  0  0  0  0  0
  -41.7676   59.1420   61.8487 H   0  0  0  0  0  0  0  0  0  0  0  0
  -41.3033   56.7353   61.9809 C   0  0  0  0  0  0  0  0  0  0  0  0
  -41.8017   57.5091   60.7602 C   0  0  0  0  0  0  0  0  0  0  0  0
  -40.7356   57.5021   59.6673 C   0  0  0  0  0  0  0  0  0  0  0  0
  -40.0826   58.8299   59.3690 C   0  0  0  0  0  0  0  0  0  0  0  0
  -38.5727   58.6264   59.4366 C   0  0  0  0  0  0  0  0  0  0  0  0
  -38.0080   58.8405   60.8473 C   0  0  0  0  0  0  0  0  0  0  0  0
  -37.8112   57.5434   61.6530 C   0  0  0  0  0  0  0  0  0  0  0  0
  -37.1610   57.7864   63.0328 C   0  0  0  0  0  0  0  0  0  0  0  0
  -35.6358   57.8445   62.9082 C   0  0  0  0  0  0  0  0  0  0  0  0
  -34.8809   57.8632   64.2318 C   0  0  0  0  0  0  0  0  0  0  0  0
  -33.3993   58.1561   64.0474 C   0  0  0  0  0  0  0  0  0  0  0  0
  -32.9820   59.6216   64.1900 C   0  0  0  0  0  0  0  0  0  0  0  0
  -31.7816   59.8645   63.2852 C   0  0  0  0  0  0  0  0  0  0  0  0
  -32.0220   60.0944   61.8005 C   0  0  0  0  0  0  0  0  0  0  0  0
  -31.0340   61.1281   61.2371 C   0  0  0  0  0  0  0  0  0  0  0  0
  -30.9279   62.4250   62.0605 C   0  0  0  0  0  0  0  0  0  0  0  0
  -31.0025   63.6895   61.2080 C   0  0  0  0  0  0  0  0  0  0  0  0
  -42.4766   62.0765   64.0564 O   0  0  0  0  0  0  0  0  0  0  0  0
  -42.6203   60.7377   63.6194 C   0  0  0  0  0  0  0  0  0  0  0  0
  -41.9623   62.5762   63.4033 H   0  0  0  0  0  0  0  0  0  0  0  0
  -43.4253   59.8915   64.6086 C   0  0  0  0  0  0  0  0  0  0  0  0
  -44.5714   59.2722   64.2783 C   0  0  0  0  0  0  0  0  0  0  0  0
  -45.3176   58.4456   65.3241 C   0  0  0  0  0  0  0  0  0  0  0  0
  -46.6250   59.0895   65.8083 C   0  0  0  0  0  0  0  0  0  0  0  0
  -47.7899   59.0710   64.8014 C   0  0  0  0  0  0  0  0  0  0  0  0
  -49.1460   58.9262   65.5331 C   0  0  0  0  0  0  0  0  0  0  0  0
  -50.2906   59.8174   64.9880 C   0  0  0  0  0  0  0  0  0  0  0  0
  -50.7994   59.4078   63.5859 C   0  0  0  0  0  0  0  0  0  0  0  0
  -50.1424   60.2000   62.4347 C   0  0  0  0  0  0  0  0  0  0  0  0
  -49.8882   59.3630   61.1753 C   0  0  0  0  0  0  0  0  0  0  0  0
  -49.3379   57.9568   61.4035 C   0  0  0  0  0  0  0  0  0  0  0  0
  -49.1776   57.1303   60.1122 C   0  0  0  0  0  0  0  0  0  0  0  0
  -49.2911   57.9293   58.8051 C   0  0  0  0  0  0  0  0  0  0  0  0
  -47.9074   58.3163   58.2753 C   0  0  0  0  0  0  0  0  0  0  0  0
  -46.9594   57.1720   57.9636 C   0  0  0  0  0  0  0  0  0  0  0  0
  -40.1064   61.1922   63.0728 C   0  0  0  0  0  0  0  0  0  0  0  0
  -38.7603   60.9438   63.5520 O   0  0  0  0  0  0  0  0  0  0  0  0
  -36.9901   61.2075   65.7821 O   0  0  0  0  0  0  0  0  0  0  0  0
  -34.3387   62.5418   62.8514 O   0  0  0  0  0  0  0  0  0  0  0  0
  -37.3436   62.6108   62.5034 O   0  0  0  0  0  0  0  0  0  0  0  0
  -37.8043   62.0501   63.7567 C   0  0  0  0  0  0  0  0  0  0  0  0
  -36.5414   61.7116   64.5620 C   0  0  0  0  0  0  0  0  0  0  0  0
  -35.6394   62.9331   64.8439 C   0  0  0  0  0  0  0  0  0  0  0  0
  -35.2139   63.4603   63.5014 C   0  0  0  0  0  0  0  0  0  0  0  0
  -36.4375   63.7377   62.6470 C   0  0  0  0  0  0  0  0  0  0  0  0
  -37.5593   60.4382   65.6245 H   0  0  0  0  0  0  0  0  0  0  0  0
  -33.5651   62.3792   63.4137 H   0  0  0  0  0  0  0  0  0  0  0  0
  -36.0955   65.5936   61.1798 O   0  0  0  0  0  0  0  0  0  0  0  0
  -35.7953   64.2418   61.3564 C   0  0  0  0  0  0  0  0  0  0  0  0
  -35.6866   65.9113   60.3596 H   0  0  0  0  0  0  0  0  0  0  0  0
  -34.4213   62.6668   65.5755 O   0  0  0  0  0  0  0  0  0  0  0  0
  -34.6855   64.8351   66.9704 O   0  0  0  0  0  0  0  0  0  0  0  0
  -32.5926   64.3976   65.8226 O   0  0  0  0  0  0  0  0  0  0  0  0
  -33.1547   63.1780   67.8402 O   0  0  0  0  0  0  0  0  0  0  0  0
  -33.7051   63.7753   66.5906 S   0  0  0  0  0  0  0  0  0  0  0  0
  -35.0550   65.2362   66.1682 H   0  0  0  0  0  0  0  0  0  0  0  0
  -33.8738   62.7697   68.3474 H   0  0  0  0  0  0  0  0  0  0  0  0
  2  1  1  0  0  0
  2  4  1  0  0  0
  2  5  1  0  0  0
 41 42  1  0  0  0
 41  1  1  0  0  0
 42 46  1  0  0  0
  1 24  1  0  0  0
 23 24  1  0  0  0
 23 25  1  0  0  0
 24 26  1  0  0  0
  3  4  2  0  0  0
 26 27  2  0  0  0
 27 28  1  0  0  0
 43 47  1  0  0  0
 43 51  1  0  0  0
 28 29  1  0  0  0
 56 48  1  0  0  0
 56 60  1  0  0  0
 29 30  1  0  0  0
 57 60  1  0  0  0
 57 61  1  0  0  0
 30 31  1  0  0  0
 44 49  1  0  0  0
 44 52  1  0  0  0
 31 32  1  0  0  0
 45 46  1  0  0  0
 45 50  1  0  0  0
 32 33  1  0  0  0
 53 54  1  0  0  0
 53 55  1  0  0  0
 33 34  1  0  0  0
 34 35  1  0  0  0
 35 36  1  0  0  0
 58 60  1  0  0  0
 36 37  1  0  0  0
 59 60  1  0  0  0
 59 62  1  0  0  0
 37 38  1  0  0  0
 38 39  1  0  0  0
 39 40  1  0  0  0
  4  6  1  0  0  0
  6  7  1  0  0  0
  7  8  1  0  0  0
  8  9  1  0  0  0
  9 10  1  0  0  0
 10 11  1  0  0  0
 11 12  1  0  0  0
 12 13  1  0  0  0
 13 14  1  0  0  0
 14 15  1  0  0  0
 15 16  1  0  0  0
 16 17  1  0  0  0
 17 18  1  0  0  0
 18 19  1  0  0  0
 19 20  1  0  0  0
 20 21  1  0  0  0
 21 22  1  0  0  0
 46 47  1  0  0  0
 47 48  1  0  0  0
 48 49  1  0  0  0
 49 50  1  0  0  0
 50 54  1  0  0  0
M  CHG 1  58  -1
M  END
> <minimizedAffinity>
-8.93737

> <CNNscore>
0.1764221191

> <CNNaffinity>
6.9110641479

> <CNN_VS>
1.2192646265

> <CNNaffinity_variance>
1.0746865273

$$$$
/media/chris/experiments/cd1a-new-docking/inputs/ligands/1onq_ligand.pdb


 62 62  0  0  0  0  0  0  0  0999 V2000
  -41.5439   60.5639   64.9837 C   0  0  0  0  0  0  0  0  0  0  0  0
  -41.3515   60.8990   63.5867 N   0  0  0  0  0  0  0  0  0  0  0  0
  -42.6480   59.3556   62.5453 O   0  0  0  0  0  0  0  0  0  0  0  0
  -41.8882   60.3040   62.5127 C   0  0  0  0  0  0  0  0  0  0  0  0
  -40.7519   61.6582   63.4042 H   0  0  0  0  0  0  0  0  0  0  0  0
  -41.4955   60.8972   61.1922 C   0  0  0  0  0  0  0  0  0  0  0  0
  -40.4383   59.9672   60.5966 C   0  0  0  0  0  0  0  0  0  0  0  0
  -41.0988   58.9601   59.6581 C   0  0  0  0  0  0  0  0  0  0  0  0
  -40.5202   57.5659   59.6677 C   0  0  0  0  0  0  0  0  0  0  0  0
  -41.4736   56.6768   60.4593 C   0  0  0  0  0  0  0  0  0  0  0  0
  -40.7896   55.9802   61.6432 C   0  0  0  0  0  0  0  0  0  0  0  0
  -41.4657   56.2347   63.0029 C   0  0  0  0  0  0  0  0  0  0  0  0
  -40.5691   57.0259   63.9805 C   0  0  0  0  0  0  0  0  0  0  0  0
  -39.5098   57.8246   63.2156 C   0  0  0  0  0  0  0  0  0  0  0  0
  -38.0667   57.4805   63.5638 C   0  0  0  0  0  0  0  0  0  0  0  0
  -37.1523   57.5294   62.3487 C   0  0  0  0  0  0  0  0  0  0  0  0
  -35.8255   58.2686   62.5365 C   0  0  0  0  0  0  0  0  0  0  0  0
  -35.4663   58.2328   64.0158 C   0  0  0  0  0  0  0  0  0  0  0  0
  -34.4194   59.2066   64.5360 C   0  0  0  0  0  0  0  0  0  0  0  0
  -33.0357   58.5411   64.6053 C   0  0  0  0  0  0  0  0  0  0  0  0
  -32.1328   58.8171   63.3888 C   0  0  0  0  0  0  0  0  0  0  0  0
  -32.5531   60.0500   62.5921 C   0  0  0  0  0  0  0  0  0  0  0  0
  -42.5493   61.8777   66.6144 O   0  0  0  0  0  0  0  0  0  0  0  0
  -42.8088   61.3278   65.3361 C   0  0  0  0  0  0  0  0  0  0  0  0
  -41.7925   62.4818   66.5589 H   0  0  0  0  0  0  0  0  0  0  0  0
  -43.9959   60.3619   65.3538 C   0  0  0  0  0  0  0  0  0  0  0  0
  -44.6194   59.9894   66.4846 C   0  0  0  0  0  0  0  0  0  0  0  0
  -45.7977   59.0194   66.4190 C   0  0  0  0  0  0  0  0  0  0  0  0
  -46.6164   59.1225   65.1238 C   0  0  0  0  0  0  0  0  0  0  0  0
  -47.7306   60.1854   65.1224 C   0  0  0  0  0  0  0  0  0  0  0  0
  -48.8098   59.8512   66.1802 C   0  0  0  0  0  0  0  0  0  0  0  0
  -50.2503   59.6965   65.6299 C   0  0  0  0  0  0  0  0  0  0  0  0
  -50.4937   60.4141   64.2815 C   0  0  0  0  0  0  0  0  0  0  0  0
  -51.1764   59.5224   63.2217 C   0  0  0  0  0  0  0  0  0  0  0  0
  -50.2478   58.4643   62.6139 C   0  0  0  0  0  0  0  0  0  0  0  0
  -50.8023   57.6908   61.4194 C   0  0  0  0  0  0  0  0  0  0  0  0
  -49.7536   57.3811   60.3330 C   0  0  0  0  0  0  0  0  0  0  0  0
  -48.8229   58.5480   59.9696 C   0  0  0  0  0  0  0  0  0  0  0  0
  -48.2119   58.3516   58.5792 C   0  0  0  0  0  0  0  0  0  0  0  0
  -48.1497   56.9245   58.0645 C   0  0  0  0  0  0  0  0  0  0  0  0
  -40.3158   60.7831   65.8962 C   0  0  0  0  0  0  0  0  0  0  0  0
  -39.1108   60.0556   65.5471 O   0  0  0  0  0  0  0  0  0  0  0  0
  -38.3557   60.9010   62.9218 O   0  0  0  0  0  0  0  0  0  0  0  0
  -36.9679   64.2592   64.9701 O   0  0  0  0  0  0  0  0  0  0  0  0
  -37.3759   61.5736   66.3029 O   0  0  0  0  0  0  0  0  0  0  0  0
  -37.8612   60.7637   65.2047 C   0  0  0  0  0  0  0  0  0  0  0  0
  -37.9241   61.6938   63.9846 C   0  0  0  0  0  0  0  0  0  0  0  0
  -36.5610   62.3131   63.6056 C   0  0  0  0  0  0  0  0  0  0  0  0
  -36.1232   63.1246   64.7935 C   0  0  0  0  0  0  0  0  0  0  0  0
  -36.1199   62.2544   66.0372 C   0  0  0  0  0  0  0  0  0  0  0  0
  -39.2122   60.5030   63.1423 H   0  0  0  0  0  0  0  0  0  0  0  0
  -36.9550   64.8003   64.1651 H   0  0  0  0  0  0  0  0  0  0  0  0
  -36.1827   62.8785   68.3438 O   0  0  0  0  0  0  0  0  0  0  0  0
  -35.6676   63.2521   67.1012 C   0  0  0  0  0  0  0  0  0  0  0  0
  -35.8940   63.5137   69.0177 H   0  0  0  0  0  0  0  0  0  0  0  0
  -36.5672   63.2198   62.4797 O   0  0  0  0  0  0  0  0  0  0  0  0
  -33.9836   63.1592   62.2839 O   0  0  0  0  0  0  0  0  0  0  0  0
  -35.1190   65.2943   62.4870 O   0  0  0  0  0  0  0  0  0  0  0  0
  -35.1830   64.0737   60.3941 O   0  0  0  0  0  0  0  0  0  0  0  0
  -35.1909   63.9382   61.8784 S   0  0  0  0  0  0  0  0  0  0  0  0
  -33.9715   63.0607   63.2488 H   0  0  0  0  0  0  0  0  0  0  0  0
  -35.2297   63.1936   59.9889 H   0  0  0  0  0  0  0  0  0  0  0  0
  2  1  1  0  0  0
  2  4  1  0  0  0
  2  5  1  0  0  0
 41 42  1  0  0  0
 41  1  1  0  0  0
 42 46  1  0  0  0
  1 24  1  0  0  0
 23 24  1  0  0  0
 23 25  1  0  0  0
 24 26  1  0  0  0
  3  4  2  0  0  0
 26 27  2  0  0  0
 27 28  1  0  0  0
 43 47  1  0  0  0
 43 51  1  0  0  0
 28 29  1  0  0  0
 56 48  1  0  0  0
 56 60  1  0  0  0
 29 30  1  0  0  0
 57 60  1  0  0  0
 57 61  1  0  0  0
 30 31  1  0  0  0
 44 49  1  0  0  0
 44 52  1  0  0  0
 31 32  1  0  0  0
 45 46  1  0  0  0
 45 50  1  0  0  0
 32 33  1  0  0  0
 53 54  1  0  0  0
 53 55  1  0  0  0
 33 34  1  0  0  0
 34 35  1  0  0  0
 35 36  1  0  0  0
 58 60  1  0  0  0
 36 37  1  0  0  0
 59 60  1  0  0  0
 59 62  1  0  0  0
 37 38  1  0  0  0
 38 39  1  0  0  0
 39 40  1  0  0  0
  4  6  1  0  0  0
  6  7  1  0  0  0
  7  8  1  0  0  0
  8  9  1  0  0  0
  9 10  1  0  0  0
 10 11  1  0  0  0
 11 12  1  0  0  0
 12 13  1  0  0  0
 13 14  1  0  0  0
 14 15  1  0  0  0
 15 16  1  0  0  0
 16 17  1  0  0  0
 17 18  1  0  0  0
 18 19  1  0  0  0
 19 20  1  0  0  0
 20 21  1  0  0  0
 21 22  1  0  0  0
 46 47  1  0  0  0
 47 48  1  0  0  0
 48 49  1  0  0  0
 49 50  1  0  0  0
 50 54  1  0  0  0
M  CHG 1  58  -1
M  END
> <minimizedAffinity>
-9.13795

> <CNNscore>
0.1604484767

> <CNNaffinity>
7.1846923828

> <CNN_VS>
1.1527729034

> <CNNaffinity_variance>
1.3298984766

$$$$
/media/chris/experiments/cd1a-new-docking/inputs/ligands/1onq_ligand.pdb


 62 62  0  0  0  0  0  0  0  0999 V2000
  -37.5081   58.8719   63.6688 C   0  0  0  0  0  0  0  0  0  0  0  0
  -38.7684   58.5280   64.2969 N   0  0  0  0  0  0  0  0  0  0  0  0
  -39.5665   60.5627   64.9054 O   0  0  0  0  0  0  0  0  0  0  0  0
  -39.6701   59.3529   64.8465 C   0  0  0  0  0  0  0  0  0  0  0  0
  -38.9894   57.5689   64.3229 H   0  0  0  0  0  0  0  0  0  0  0  0
  -40.8869   58.6823   65.4114 C   0  0  0  0  0  0  0  0  0  0  0  0
  -41.0412   57.3599   64.6600 C   0  0  0  0  0  0  0  0  0  0  0  0
  -42.4915   56.8876   64.7278 C   0  0  0  0  0  0  0  0  0  0  0  0
  -43.3317   57.4814   65.8323 C   0  0  0  0  0  0  0  0  0  0  0  0
  -44.6998   57.8107   65.2444 C   0  0  0  0  0  0  0  0  0  0  0  0
  -45.8145   57.8092   66.2991 C   0  0  0  0  0  0  0  0  0  0  0  0
  -46.9667   58.7864   66.0025 C   0  0  0  0  0  0  0  0  0  0  0  0
  -48.0895   58.1509   65.1534 C   0  0  0  0  0  0  0  0  0  0  0  0
  -49.3349   59.0420   65.1510 C   0  0  0  0  0  0  0  0  0  0  0  0
  -50.3811   58.6853   64.1020 C   0  0  0  0  0  0  0  0  0  0  0  0
  -50.6857   59.8497   63.1712 C   0  0  0  0  0  0  0  0  0  0  0  0
  -49.7964   59.9683   61.9314 C   0  0  0  0  0  0  0  0  0  0  0  0
  -49.4905   58.5637   61.4294 C   0  0  0  0  0  0  0  0  0  0  0  0
  -50.3089   58.0080   60.2733 C   0  0  0  0  0  0  0  0  0  0  0  0
  -49.3982   57.5704   59.1152 C   0  0  0  0  0  0  0  0  0  0  0  0
  -48.2349   58.5347   58.8183 C   0  0  0  0  0  0  0  0  0  0  0  0
  -47.3740   58.0965   57.6358 C   0  0  0  0  0  0  0  0  0  0  0  0
  -35.8061   57.5691   62.7735 O   0  0  0  0  0  0  0  0  0  0  0  0
  -37.2187   57.6487   62.8158 C   0  0  0  0  0  0  0  0  0  0  0  0
  -35.4622   57.4453   63.6719 H   0  0  0  0  0  0  0  0  0  0  0  0
  -37.8273   57.8449   61.4253 C   0  0  0  0  0  0  0  0  0  0  0  0
  -37.8767   59.0386   60.8098 C   0  0  0  0  0  0  0  0  0  0  0  0
  -38.5020   59.1525   59.4207 C   0  0  0  0  0  0  0  0  0  0  0  0
  -39.5193   58.0464   59.1043 C   0  0  0  0  0  0  0  0  0  0  0  0
  -40.9984   58.4228   59.3088 C   0  0  0  0  0  0  0  0  0  0  0  0
  -41.5291   57.8565   60.6479 C   0  0  0  0  0  0  0  0  0  0  0  0
  -42.0216   58.9162   61.6657 C   0  0  0  0  0  0  0  0  0  0  0  0
  -41.1297   60.1771   61.7489 C   0  0  0  0  0  0  0  0  0  0  0  0
  -41.6477   61.3573   60.8984 C   0  0  0  0  0  0  0  0  0  0  0  0
  -42.8100   62.1207   61.5444 C   0  0  0  0  0  0  0  0  0  0  0  0
  -42.8640   62.0958   63.0705 C   0  0  0  0  0  0  0  0  0  0  0  0
  -44.0966   61.3671   63.6413 C   0  0  0  0  0  0  0  0  0  0  0  0
  -44.1122   61.2050   65.1689 C   0  0  0  0  0  0  0  0  0  0  0  0
  -42.7564   61.5782   65.7753 C   0  0  0  0  0  0  0  0  0  0  0  0
  -42.4880   61.0828   67.1852 C   0  0  0  0  0  0  0  0  0  0  0  0
  -36.3903   59.3364   64.6298 C   0  0  0  0  0  0  0  0  0  0  0  0
  -35.2001   59.8951   64.0178 O   0  0  0  0  0  0  0  0  0  0  0  0
  -32.9655   61.2394   62.8447 O   0  0  0  0  0  0  0  0  0  0  0  0
  -35.1659   64.6445   63.8257 O   0  0  0  0  0  0  0  0  0  0  0  0
  -35.5586   61.9802   65.2050 O   0  0  0  0  0  0  0  0  0  0  0  0
  -34.5938   61.1432   64.5223 C   0  0  0  0  0  0  0  0  0  0  0  0
  -33.9193   62.0390   63.4733 C   0  0  0  0  0  0  0  0  0  0  0  0
  -33.2022   63.2673   64.0751 C   0  0  0  0  0  0  0  0  0  0  0  0
  -34.2633   64.0746   64.7705 C   0  0  0  0  0  0  0  0  0  0  0  0
  -35.0039   63.2004   65.7662 C   0  0  0  0  0  0  0  0  0  0  0  0
  -33.3985   60.4615   62.4600 H   0  0  0  0  0  0  0  0  0  0  0  0
  -34.6724   65.1982   63.2005 H   0  0  0  0  0  0  0  0  0  0  0  0
  -36.2322   63.9115   67.6897 O   0  0  0  0  0  0  0  0  0  0  0  0
  -36.0179   64.1887   66.3383 C   0  0  0  0  0  0  0  0  0  0  0  0
  -36.8765   64.5405   68.0505 H   0  0  0  0  0  0  0  0  0  0  0  0
  -32.5729   64.1611   63.1290 O   0  0  0  0  0  0  0  0  0  0  0  0
  -32.3753   65.2600   60.7901 O   0  0  0  0  0  0  0  0  0  0  0  0
  -34.1026   63.6037   61.1924 O   0  0  0  0  0  0  0  0  0  0  0  0
  -31.7930   62.9175   60.9290 O   0  0  0  0  0  0  0  0  0  0  0  0
  -32.6898   63.9734   61.4787 S   0  0  0  0  0  0  0  0  0  0  0  0
  -32.9504   65.9607   61.1356 H   0  0  0  0  0  0  0  0  0  0  0  0
  -30.8693   63.1506   61.1114 H   0  0  0  0  0  0  0  0  0  0  0  0
  2  1  1  0  0  0
  2  4  1  0  0  0
  2  5  1  0  0  0
 41 42  1  0  0  0
 41  1  1  0  0  0
 42 46  1  0  0  0
  1 24  1  0  0  0
 23 24  1  0  0  0
 23 25  1  0  0  0
 24 26  1  0  0  0
  3  4  2  0  0  0
 26 27  2  0  0  0
 27 28  1  0  0  0
 43 47  1  0  0  0
 43 51  1  0  0  0
 28 29  1  0  0  0
 56 48  1  0  0  0
 56 60  1  0  0  0
 29 30  1  0  0  0
 57 60  1  0  0  0
 57 61  1  0  0  0
 30 31  1  0  0  0
 44 49  1  0  0  0
 44 52  1  0  0  0
 31 32  1  0  0  0
 45 46  1  0  0  0
 45 50  1  0  0  0
 32 33  1  0  0  0
 53 54  1  0  0  0
 53 55  1  0  0  0
 33 34  1  0  0  0
 34 35  1  0  0  0
 35 36  1  0  0  0
 58 60  1  0  0  0
 36 37  1  0  0  0
 59 60  1  0  0  0
 59 62  1  0  0  0
 37 38  1  0  0  0
 38 39  1  0  0  0
 39 40  1  0  0  0
  4  6  1  0  0  0
  6  7  1  0  0  0
  7  8  1  0  0  0
  8  9  1  0  0  0
  9 10  1  0  0  0
 10 11  1  0  0  0
 11 12  1  0  0  0
 12 13  1  0  0  0
 13 14  1  0  0  0
 14 15  1  0  0  0
 15 16  1  0  0  0
 16 17  1  0  0  0
 17 18  1  0  0  0
 18 19  1  0  0  0
 19 20  1  0  0  0
 20 21  1  0  0  0
 21 22  1  0  0  0
 46 47  1  0  0  0
 47 48  1  0  0  0
 48 49  1  0  0  0
 49 50  1  0  0  0
 50 54  1  0  0  0
M  CHG 1  58  -1
M  END
> <minimizedAffinity>
-9.26307

> <CNNscore>
0.1398967206

> <CNNaffinity>
6.9394974709

> <CNN_VS>
0.9708129168

> <CNNaffinity_variance>
1.7610609531

$$$$
/media/chris/experiments/cd1a-new-docking/inputs/ligands/1onq_ligand.pdb


 62 62  0  0  0  0  0  0  0  0999 V2000
  -41.6311   60.5836   64.4693 C   0  0  0  0  0  0  0  0  0  0  0  0
  -42.3804   59.3433   64.5063 N   0  0  0  0  0  0  0  0  0  0  0  0
  -41.9071   58.5646   66.5840 O   0  0  0  0  0  0  0  0  0  0  0  0
  -42.4658   58.4591   65.5095 C   0  0  0  0  0  0  0  0  0  0  0  0
  -42.8899   59.1232   63.6932 H   0  0  0  0  0  0  0  0  0  0  0  0
  -43.3370   57.2687   65.2379 C   0  0  0  0  0  0  0  0  0  0  0  0
  -44.7615   57.8010   65.0810 C   0  0  0  0  0  0  0  0  0  0  0  0
  -45.3888   58.0251   66.4548 C   0  0  0  0  0  0  0  0  0  0  0  0
  -46.0858   59.3485   66.6581 C   0  0  0  0  0  0  0  0  0  0  0  0
  -46.3178   59.9632   65.2818 C   0  0  0  0  0  0  0  0  0  0  0  0
  -47.7892   59.9108   64.8493 C   0  0  0  0  0  0  0  0  0  0  0  0
  -48.7701   59.5671   65.9851 C   0  0  0  0  0  0  0  0  0  0  0  0
  -50.2486   59.6411   65.5445 C   0  0  0  0  0  0  0  0  0  0  0  0
  -50.4028   60.5499   64.3217 C   0  0  0  0  0  0  0  0  0  0  0  0
  -51.1773   59.9410   63.1592 C   0  0  0  0  0  0  0  0  0  0  0  0
  -50.7727   58.4996   62.8878 C   0  0  0  0  0  0  0  0  0  0  0  0
  -49.6744   58.2964   61.8416 C   0  0  0  0  0  0  0  0  0  0  0  0
  -50.2914   57.6078   60.6318 C   0  0  0  0  0  0  0  0  0  0  0  0
  -50.0064   58.1716   59.2476 C   0  0  0  0  0  0  0  0  0  0  0  0
  -48.5509   58.6530   59.1389 C   0  0  0  0  0  0  0  0  0  0  0  0
  -47.5853   57.6304   58.5119 C   0  0  0  0  0  0  0  0  0  0  0  0
  -47.4981   57.7359   56.9911 C   0  0  0  0  0  0  0  0  0  0  0  0
  -43.5913   61.2803   63.4358 O   0  0  0  0  0  0  0  0  0  0  0  0
  -42.1901   61.2713   63.2355 C   0  0  0  0  0  0  0  0  0  0  0  0
  -43.8006   61.7914   64.2332 H   0  0  0  0  0  0  0  0  0  0  0  0
  -41.7908   60.4785   61.9887 C   0  0  0  0  0  0  0  0  0  0  0  0
  -40.9100   60.9350   61.0821 C   0  0  0  0  0  0  0  0  0  0  0  0
  -40.5642   60.0831   59.8621 C   0  0  0  0  0  0  0  0  0  0  0  0
  -41.4289   58.8222   59.7190 C   0  0  0  0  0  0  0  0  0  0  0  0
  -40.6625   57.5172   59.4345 C   0  0  0  0  0  0  0  0  0  0  0  0
  -41.0477   56.4202   60.4561 C   0  0  0  0  0  0  0  0  0  0  0  0
  -41.3705   56.9293   61.8837 C   0  0  0  0  0  0  0  0  0  0  0  0
  -40.1366   57.0438   62.8094 C   0  0  0  0  0  0  0  0  0  0  0  0
  -38.8005   57.1672   62.0451 C   0  0  0  0  0  0  0  0  0  0  0  0
  -37.8353   58.1936   62.6502 C   0  0  0  0  0  0  0  0  0  0  0  0
  -36.5746   57.6278   63.3005 C   0  0  0  0  0  0  0  0  0  0  0  0
  -36.1401   58.3740   64.5773 C   0  0  0  0  0  0  0  0  0  0  0  0
  -34.7231   58.9663   64.5395 C   0  0  0  0  0  0  0  0  0  0  0  0
  -34.0858   58.7796   63.1596 C   0  0  0  0  0  0  0  0  0  0  0  0
  -32.6907   58.1809   63.1356 C   0  0  0  0  0  0  0  0  0  0  0  0
  -40.0949   60.4362   64.5539 C   0  0  0  0  0  0  0  0  0  0  0  0
  -39.3083   61.5365   64.0307 O   0  0  0  0  0  0  0  0  0  0  0  0
  -37.3188   61.8496   62.0007 O   0  0  0  0  0  0  0  0  0  0  0  0
  -35.5748   64.3672   64.8325 O   0  0  0  0  0  0  0  0  0  0  0  0
  -37.5425   62.1873   65.5617 O   0  0  0  0  0  0  0  0  0  0  0  0
  -37.8531   61.6175   64.2670 C   0  0  0  0  0  0  0  0  0  0  0  0
  -37.0459   62.4257   63.2408 C   0  0  0  0  0  0  0  0  0  0  0  0
  -35.5200   62.3759   63.4736 C   0  0  0  0  0  0  0  0  0  0  0  0
  -35.2825   62.9720   64.8336 C   0  0  0  0  0  0  0  0  0  0  0  0
  -36.1230   62.2445   65.8673 C   0  0  0  0  0  0  0  0  0  0  0  0
  -38.2745   61.8721   61.8371 H   0  0  0  0  0  0  0  0  0  0  0  0
  -35.0276   64.8116   64.1661 H   0  0  0  0  0  0  0  0  0  0  0  0
  -34.3600   63.1163   67.2258 O   0  0  0  0  0  0  0  0  0  0  0  0
  -35.7484   62.9963   67.1427 C   0  0  0  0  0  0  0  0  0  0  0  0
  -34.1247   63.5940   68.0366 H   0  0  0  0  0  0  0  0  0  0  0  0
  -34.7123   63.1430   62.5521 O   0  0  0  0  0  0  0  0  0  0  0  0
  -32.5622   61.7915   63.0696 O   0  0  0  0  0  0  0  0  0  0  0  0
  -32.5919   64.1873   63.4545 O   0  0  0  0  0  0  0  0  0  0  0  0
  -32.4477   63.3168   61.1972 O   0  0  0  0  0  0  0  0  0  0  0  0
  -33.0479   63.1018   62.5443 S   0  0  0  0  0  0  0  0  0  0  0  0
  -32.9432   61.6340   63.9477 H   0  0  0  0  0  0  0  0  0  0  0  0
  -32.7399   62.6131   60.5969 H   0  0  0  0  0  0  0  0  0  0  0  0
  2  1  1  0  0  0
  2  4  1  0  0  0
  2  5  1  0  0  0
 41 42  1  0  0  0
 41  1  1  0  0  0
 42 46  1  0  0  0
  1 24  1  0  0  0
 23 24  1  0  0  0
 23 25  1  0  0  0
 24 26  1  0  0  0
  3  4  2  0  0  0
 26 27  2  0  0  0
 27 28  1  0  0  0
 43 47  1  0  0  0
 43 51  1  0  0  0
 28 29  1  0  0  0
 56 48  1  0  0  0
 56 60  1  0  0  0
 29 30  1  0  0  0
 57 60  1  0  0  0
 57 61  1  0  0  0
 30 31  1  0  0  0
 44 49  1  0  0  0
 44 52  1  0  0  0
 31 32  1  0  0  0
 45 46  1  0  0  0
 45 50  1  0  0  0
 32 33  1  0  0  0
 53 54  1  0  0  0
 53 55  1  0  0  0
 33 34  1  0  0  0
 34 35  1  0  0  0
 35 36  1  0  0  0
 58 60  1  0  0  0
 36 37  1  0  0  0
 59 60  1  0  0  0
 59 62  1  0  0  0
 37 38  1  0  0  0
 38 39  1  0  0  0
 39 40  1  0  0  0
  4  6  1  0  0  0
  6  7  1  0  0  0
  7  8  1  0  0  0
  8  9  1  0  0  0
  9 10  1  0  0  0
 10 11  1  0  0  0
 11 12  1  0  0  0
 12 13  1  0  0  0
 13 14  1  0  0  0
 14 15  1  0  0  0
 15 16  1  0  0  0
 16 17  1  0  0  0
 17 18  1  0  0  0
 18 19  1  0  0  0
 19 20  1  0  0  0
 20 21  1  0  0  0
 21 22  1  0  0  0
 46 47  1  0  0  0
 47 48  1  0  0  0
 48 49  1  0  0  0
 49 50  1  0  0  0
 50 54  1  0  0  0
M  CHG 1  58  -1
M  END
> <minimizedAffinity>
-9.36689

> <CNNscore>
0.1208598688

> <CNNaffinity>
7.0718202591

> <CNN_VS>
0.8546992540

> <CNNaffinity_variance>
1.8130199909

$$$$
/media/chris/experiments/cd1a-new-docking/inputs/ligands/1onq_ligand.pdb


 62 62  0  0  0  0  0  0  0  0999 V2000
  -41.4711   58.9465   64.9777 C   0  0  0  0  0  0  0  0  0  0  0  0
  -42.5968   59.8596   64.9615 N   0  0  0  0  0  0  0  0  0  0  0  0
  -43.8143   59.0812   63.2125 O   0  0  0  0  0  0  0  0  0  0  0  0
  -43.6421   59.8678   64.1232 C   0  0  0  0  0  0  0  0  0  0  0  0
  -42.5928   60.5610   65.6524 H   0  0  0  0  0  0  0  0  0  0  0  0
  -44.6536   60.9462   64.3758 C   0  0  0  0  0  0  0  0  0  0  0  0
  -44.3854   62.0421   63.3441 C   0  0  0  0  0  0  0  0  0  0  0  0
  -42.8978   62.0848   63.0033 C   0  0  0  0  0  0  0  0  0  0  0  0
  -42.5513   62.0202   61.5355 C   0  0  0  0  0  0  0  0  0  0  0  0
  -41.4460   60.9827   61.3682 C   0  0  0  0  0  0  0  0  0  0  0  0
  -41.1735   60.6384   59.8978 C   0  0  0  0  0  0  0  0  0  0  0  0
  -39.9278   59.7617   59.6742 C   0  0  0  0  0  0  0  0  0  0  0  0
  -40.2766   58.3286   59.2156 C   0  0  0  0  0  0  0  0  0  0  0  0
  -41.2637   57.6759   60.1877 C   0  0  0  0  0  0  0  0  0  0  0  0
  -40.6323   56.7632   61.2319 C   0  0  0  0  0  0  0  0  0  0  0  0
  -39.5959   57.4859   62.0795 C   0  0  0  0  0  0  0  0  0  0  0  0
  -38.1499   57.0099   61.9221 C   0  0  0  0  0  0  0  0  0  0  0  0
  -37.2374   58.0346   62.5824 C   0  0  0  0  0  0  0  0  0  0  0  0
  -36.5801   57.6790   63.9077 C   0  0  0  0  0  0  0  0  0  0  0  0
  -35.1959   58.3360   64.0288 C   0  0  0  0  0  0  0  0  0  0  0  0
  -34.2103   57.9600   62.9069 C   0  0  0  0  0  0  0  0  0  0  0  0
  -32.7615   58.3168   63.2313 C   0  0  0  0  0  0  0  0  0  0  0  0
  -42.1510   56.7267   64.9013 O   0  0  0  0  0  0  0  0  0  0  0  0
  -41.9922   57.7935   65.8181 C   0  0  0  0  0  0  0  0  0  0  0  0
  -41.2904   56.5024   64.5141 H   0  0  0  0  0  0  0  0  0  0  0  0
  -43.3179   58.1981   66.4673 C   0  0  0  0  0  0  0  0  0  0  0  0
  -44.4398   57.4664   66.3576 C   0  0  0  0  0  0  0  0  0  0  0  0
  -45.7249   57.9389   67.0351 C   0  0  0  0  0  0  0  0  0  0  0  0
  -46.8029   58.4229   66.0543 C   0  0  0  0  0  0  0  0  0  0  0  0
  -47.5275   59.7232   66.4487 C   0  0  0  0  0  0  0  0  0  0  0  0
  -48.5294   60.1491   65.3486 C   0  0  0  0  0  0  0  0  0  0  0  0
  -49.8412   59.3258   65.2935 C   0  0  0  0  0  0  0  0  0  0  0  0
  -50.7000   59.5863   64.0337 C   0  0  0  0  0  0  0  0  0  0  0  0
  -49.9031   60.1902   62.8571 C   0  0  0  0  0  0  0  0  0  0  0  0
  -49.2918   59.1403   61.9216 C   0  0  0  0  0  0  0  0  0  0  0  0
  -49.5698   59.3256   60.4313 C   0  0  0  0  0  0  0  0  0  0  0  0
  -50.0005   58.0335   59.7095 C   0  0  0  0  0  0  0  0  0  0  0  0
  -49.2712   57.7475   58.3881 C   0  0  0  0  0  0  0  0  0  0  0  0
  -47.7909   58.1279   58.4834 C   0  0  0  0  0  0  0  0  0  0  0  0
  -47.0346   58.2320   57.1709 C   0  0  0  0  0  0  0  0  0  0  0  0
  -40.1184   59.5648   65.3982 C   0  0  0  0  0  0  0  0  0  0  0  0
  -39.2431   59.9992   64.3266 O   0  0  0  0  0  0  0  0  0  0  0  0
  -37.5499   60.5583   66.5621 O   0  0  0  0  0  0  0  0  0  0  0  0
  -34.9595   61.9241   63.5917 O   0  0  0  0  0  0  0  0  0  0  0  0
  -37.9512   61.7109   63.1924 O   0  0  0  0  0  0  0  0  0  0  0  0
  -38.3893   61.1948   64.4727 C   0  0  0  0  0  0  0  0  0  0  0  0
  -37.1197   61.0193   65.3185 C   0  0  0  0  0  0  0  0  0  0  0  0
  -36.3311   62.3297   65.5331 C   0  0  0  0  0  0  0  0  0  0  0  0
  -35.9234   62.8038   64.1655 C   0  0  0  0  0  0  0  0  0  0  0  0
  -37.1476   62.9188   63.2754 C   0  0  0  0  0  0  0  0  0  0  0  0
  -38.0481   59.7342   66.4468 H   0  0  0  0  0  0  0  0  0  0  0  0
  -34.1871   61.8656   64.1757 H   0  0  0  0  0  0  0  0  0  0  0  0
  -36.2803   64.7651   62.0293 O   0  0  0  0  0  0  0  0  0  0  0  0
  -36.5230   63.3919   61.9645 C   0  0  0  0  0  0  0  0  0  0  0  0
  -35.8837   65.0630   61.1957 H   0  0  0  0  0  0  0  0  0  0  0  0
  -35.1108   62.2174   66.2999 O   0  0  0  0  0  0  0  0  0  0  0  0
  -35.0572   64.6828   67.0974 O   0  0  0  0  0  0  0  0  0  0  0  0
  -33.3726   63.8915   65.5402 O   0  0  0  0  0  0  0  0  0  0  0  0
  -33.2635   63.2620   67.8782 O   0  0  0  0  0  0  0  0  0  0  0  0
  -34.1820   63.5289   66.7352 S   0  0  0  0  0  0  0  0  0  0  0  0
  -35.6632   64.8717   66.3639 H   0  0  0  0  0  0  0  0  0  0  0  0
  -33.7832   63.0246   68.6620 H   0  0  0  0  0  0  0  0  0  0  0  0
  2  1  1  0  0  0
  2  4  1  0  0  0
  2  5  1  0  0  0
 41 42  1  0  0  0
 41  1  1  0  0  0
 42 46  1  0  0  0
  1 24  1  0  0  0
 23 24  1  0  0  0
 23 25  1  0  0  0
 24 26  1  0  0  0
  3  4  2  0  0  0
 26 27  2  0  0  0
 27 28  1  0  0  0
 43 47  1  0  0  0
 43 51  1  0  0  0
 28 29  1  0  0  0
 56 48  1  0  0  0
 56 60  1  0  0  0
 29 30  1  0  0  0
 57 60  1  0  0  0
 57 61  1  0  0  0
 30 31  1  0  0  0
 44 49  1  0  0  0
 44 52  1  0  0  0
 31 32  1  0  0  0
 45 46  1  0  0  0
 45 50  1  0  0  0
 32 33  1  0  0  0
 53 54  1  0  0  0
 53 55  1  0  0  0
 33 34  1  0  0  0
 34 35  1  0  0  0
 35 36  1  0  0  0
 58 60  1  0  0  0
 36 37  1  0  0  0
 59 60  1  0  0  0
 59 62  1  0  0  0
 37 38  1  0  0  0
 38 39  1  0  0  0
 39 40  1  0  0  0
  4  6  1  0  0  0
  6  7  1  0  0  0
  7  8  1  0  0  0
  8  9  1  0  0  0
  9 10  1  0  0  0
 10 11  1  0  0  0
 11 12  1  0  0  0
 12 13  1  0  0  0
 13 14  1  0  0  0
 14 15  1  0  0  0
 15 16  1  0  0  0
 16 17  1  0  0  0
 17 18  1  0  0  0
 18 19  1  0  0  0
 19 20  1  0  0  0
 20 21  1  0  0  0
 21 22  1  0  0  0
 46 47  1  0  0  0
 47 48  1  0  0  0
 48 49  1  0  0  0
 49 50  1  0  0  0
 50 54  1  0  0  0
M  CHG 1  58  -1
M  END
> <minimizedAffinity>
-9.08002

> <CNNscore>
0.1177608743

> <CNNaffinity>
7.0019583702

> <CNN_VS>
0.8245567679

> <CNNaffinity_variance>
1.8970680237

$$$$
