/media/chris/experiments/cd1a-new-docking/inputs/ligands/1onq_ligand.pdb


 62 62  0  0  0  0  0  0  0  0999 V2000
  -36.8571   59.3299   63.6563 C   0  0  0  0  0  0  0  0  0  0  0  0
  -38.2757   59.3073   63.9532 N   0  0  0  0  0  0  0  0  0  0  0  0
  -38.5663   61.2816   65.0326 O   0  0  0  0  0  0  0  0  0  0  0  0
  -39.0016   60.2367   64.5893 C   0  0  0  0  0  0  0  0  0  0  0  0
  -38.7669   58.5100   63.6497 H   0  0  0  0  0  0  0  0  0  0  0  0
  -40.4604   59.9185   64.7327 C   0  0  0  0  0  0  0  0  0  0  0  0
  -41.2027   60.8439   63.7685 C   0  0  0  0  0  0  0  0  0  0  0  0
  -42.5926   60.2844   63.4746 C   0  0  0  0  0  0  0  0  0  0  0  0
  -43.7180   61.2894   63.4370 C   0  0  0  0  0  0  0  0  0  0  0  0
  -44.6443   60.9882   64.6105 C   0  0  0  0  0  0  0  0  0  0  0  0
  -46.1127   61.3130   64.3055 C   0  0  0  0  0  0  0  0  0  0  0  0
  -47.0269   60.0777   64.2103 C   0  0  0  0  0  0  0  0  0  0  0  0
  -48.5085   60.4036   64.5002 C   0  0  0  0  0  0  0  0  0  0  0  0
  -49.3325   60.3638   63.2100 C   0  0  0  0  0  0  0  0  0  0  0  0
  -50.6690   59.6402   63.3203 C   0  0  0  0  0  0  0  0  0  0  0  0
  -50.8543   58.5996   62.2259 C   0  0  0  0  0  0  0  0  0  0  0  0
  -49.5827   58.1583   61.4974 C   0  0  0  0  0  0  0  0  0  0  0  0
  -49.7773   58.4068   60.0077 C   0  0  0  0  0  0  0  0  0  0  0  0
  -48.9182   57.6306   59.0206 C   0  0  0  0  0  0  0  0  0  0  0  0
  -47.9037   58.5550   58.3290 C   0  0  0  0  0  0  0  0  0  0  0  0
  -47.0779   57.8798   57.2185 C   0  0  0  0  0  0  0  0  0  0  0  0
  -47.2334   56.3611   57.1888 C   0  0  0  0  0  0  0  0  0  0  0  0
  -35.4287   58.6173   61.9687 O   0  0  0  0  0  0  0  0  0  0  0  0
  -36.7667   58.4707   62.4068 C   0  0  0  0  0  0  0  0  0  0  0  0
  -34.8263   58.2856   62.6528 H   0  0  0  0  0  0  0  0  0  0  0  0
  -37.7719   58.9771   61.3696 C   0  0  0  0  0  0  0  0  0  0  0  0
  -37.7903   58.5458   60.0969 C   0  0  0  0  0  0  0  0  0  0  0  0
  -38.8257   59.1012   59.1208 C   0  0  0  0  0  0  0  0  0  0  0  0
  -39.8375   60.0593   59.7663 C   0  0  0  0  0  0  0  0  0  0  0  0
  -41.1363   59.4104   60.2794 C   0  0  0  0  0  0  0  0  0  0  0  0
  -41.3524   58.0238   59.6269 C   0  0  0  0  0  0  0  0  0  0  0  0
  -41.2468   56.8150   60.5910 C   0  0  0  0  0  0  0  0  0  0  0  0
  -40.8739   57.1940   62.0436 C   0  0  0  0  0  0  0  0  0  0  0  0
  -41.4474   56.2259   63.1009 C   0  0  0  0  0  0  0  0  0  0  0  0
  -42.6064   56.8151   63.9138 C   0  0  0  0  0  0  0  0  0  0  0  0
  -42.3512   57.0033   65.4077 C   0  0  0  0  0  0  0  0  0  0  0  0
  -43.4889   57.7317   66.1502 C   0  0  0  0  0  0  0  0  0  0  0  0
  -44.8983   57.4865   65.5905 C   0  0  0  0  0  0  0  0  0  0  0  0
  -45.9380   57.4528   66.7144 C   0  0  0  0  0  0  0  0  0  0  0  0
  -46.2045   58.7668   67.4272 C   0  0  0  0  0  0  0  0  0  0  0  0
  -35.9250   58.9575   64.8316 C   0  0  0  0  0  0  0  0  0  0  0  0
  -34.5177   59.2667   64.6660 O   0  0  0  0  0  0  0  0  0  0  0  0
  -33.1256   60.8320   62.7195 O   0  0  0  0  0  0  0  0  0  0  0  0
  -35.4018   63.9262   64.3455 O   0  0  0  0  0  0  0  0  0  0  0  0
  -34.7956   61.3687   65.8448 O   0  0  0  0  0  0  0  0  0  0  0  0
  -34.0044   60.6345   64.8790 C   0  0  0  0  0  0  0  0  0  0  0  0
  -33.9192   61.5261   63.6319 C   0  0  0  0  0  0  0  0  0  0  0  0
  -33.2662   62.9007   63.8954 C   0  0  0  0  0  0  0  0  0  0  0  0
  -34.1358   63.5918   64.9091 C   0  0  0  0  0  0  0  0  0  0  0  0
  -34.3046   62.7062   66.1303 C   0  0  0  0  0  0  0  0  0  0  0  0
  -33.5210   59.9643   62.5416 H   0  0  0  0  0  0  0  0  0  0  0  0
  -35.2707   64.4912   63.5681 H   0  0  0  0  0  0  0  0  0  0  0  0
  -34.6348   64.8347   67.1665 O   0  0  0  0  0  0  0  0  0  0  0  0
  -35.2072   63.5716   67.0070 C   0  0  0  0  0  0  0  0  0  0  0  0
  -35.2099   65.3823   67.7236 H   0  0  0  0  0  0  0  0  0  0  0  0
  -33.1853   63.7926   62.7605 O   0  0  0  0  0  0  0  0  0  0  0  0
  -31.0800   62.7184   61.6973 O   0  0  0  0  0  0  0  0  0  0  0  0
  -30.9332   64.9411   62.6601 O   0  0  0  0  0  0  0  0  0  0  0  0
  -32.0307   64.6073   60.5250 O   0  0  0  0  0  0  0  0  0  0  0  0
  -31.7946   64.0173   61.8732 S   0  0  0  0  0  0  0  0  0  0  0  0
  -30.9173   62.3186   62.5659 H   0  0  0  0  0  0  0  0  0  0  0  0
  -32.5918   64.0111   60.0048 H   0  0  0  0  0  0  0  0  0  0  0  0
  2  1  1  0  0  0
  2  4  1  0  0  0
  2  5  1  0  0  0
 41 42  1  0  0  0
 41  1  1  0  0  0
 42 46  1  0  0  0
  1 24  1  0  0  0
 23 24  1  0  0  0
 23 25  1  0  0  0
 24 26  1  0  0  0
  3  4  2  0  0  0
 26 27  2  0  0  0
 27 28  1  0  0  0
 43 47  1  0  0  0
 43 51  1  0  0  0
 28 29  1  0  0  0
 56 48  1  0  0  0
 56 60  1  0  0  0
 29 30  1  0  0  0
 57 60  1  0  0  0
 57 61  1  0  0  0
 30 31  1  0  0  0
 44 49  1  0  0  0
 44 52  1  0  0  0
 31 32  1  0  0  0
 45 46  1  0  0  0
 45 50  1  0  0  0
 32 33  1  0  0  0
 53 54  1  0  0  0
 53 55  1  0  0  0
 33 34  1  0  0  0
 34 35  1  0  0  0
 35 36  1  0  0  0
 58 60  1  0  0  0
 36 37  1  0  0  0
 59 60  1  0  0  0
 59 62  1  0  0  0
 37 38  1  0  0  0
 38 39  1  0  0  0
 39 40  1  0  0  0
  4  6  1  0  0  0
  6  7  1  0  0  0
  7  8  1  0  0  0
  8  9  1  0  0  0
  9 10  1  0  0  0
 10 11  1  0  0  0
 11 12  1  0  0  0
 12 13  1  0  0  0
 13 14  1  0  0  0
 14 15  1  0  0  0
 15 16  1  0  0  0
 16 17  1  0  0  0
 17 18  1  0  0  0
 18 19  1  0  0  0
 19 20  1  0  0  0
 20 21  1  0  0  0
 21 22  1  0  0  0
 46 47  1  0  0  0
 47 48  1  0  0  0
 48 49  1  0  0  0
 49 50  1  0  0  0
 50 54  1  0  0  0
M  CHG 1  58  -1
M  END
> <minimizedAffinity>
-8.88140

> <CNNscore>
0.3681112826

> <CNNaffinity>
7.3903670311

> <CNN_VS>
2.7204775810

> <CNNaffinity_variance>
0.8367286921

$$$$
/media/chris/experiments/cd1a-new-docking/inputs/ligands/1onq_ligand.pdb


 62 62  0  0  0  0  0  0  0  0999 V2000
  -41.1212   59.8886   64.9828 C   0  0  0  0  0  0  0  0  0  0  0  0
  -41.3108   60.0674   63.5569 N   0  0  0  0  0  0  0  0  0  0  0  0
  -42.1711   62.1641   63.4515 O   0  0  0  0  0  0  0  0  0  0  0  0
  -41.7983   61.1384   62.9160 C   0  0  0  0  0  0  0  0  0  0  0  0
  -41.0488   59.3074   62.9886 H   0  0  0  0  0  0  0  0  0  0  0  0
  -41.8608   61.0140   61.4225 C   0  0  0  0  0  0  0  0  0  0  0  0
  -41.1290   59.7203   61.0644 C   0  0  0  0  0  0  0  0  0  0  0  0
  -39.9684   60.0222   60.1194 C   0  0  0  0  0  0  0  0  0  0  0  0
  -38.7488   59.1449   60.2653 C   0  0  0  0  0  0  0  0  0  0  0  0
  -39.2268   57.7553   60.6732 C   0  0  0  0  0  0  0  0  0  0  0  0
  -38.5205   57.2305   61.9304 C   0  0  0  0  0  0  0  0  0  0  0  0
  -37.5619   58.2417   62.5855 C   0  0  0  0  0  0  0  0  0  0  0  0
  -37.3556   57.9829   64.0941 C   0  0  0  0  0  0  0  0  0  0  0  0
  -35.9106   57.5617   64.3771 C   0  0  0  0  0  0  0  0  0  0  0  0
  -34.8859   58.6876   64.3108 C   0  0  0  0  0  0  0  0  0  0  0  0
  -33.9650   58.5599   63.1064 C   0  0  0  0  0  0  0  0  0  0  0  0
  -32.5257   59.0392   63.3084 C   0  0  0  0  0  0  0  0  0  0  0  0
  -32.1728   59.9806   62.1648 C   0  0  0  0  0  0  0  0  0  0  0  0
  -31.2052   61.1237   62.4334 C   0  0  0  0  0  0  0  0  0  0  0  0
  -31.4140   62.2683   61.4292 C   0  0  0  0  0  0  0  0  0  0  0  0
  -31.2612   63.6788   62.0276 C   0  0  0  0  0  0  0  0  0  0  0  0
  -31.5229   63.7287   63.5311 C   0  0  0  0  0  0  0  0  0  0  0  0
  -42.0669   60.8644   66.8669 O   0  0  0  0  0  0  0  0  0  0  0  0
  -42.4122   60.4430   65.5604 C   0  0  0  0  0  0  0  0  0  0  0  0
  -41.3925   61.5597   66.8146 H   0  0  0  0  0  0  0  0  0  0  0  0
  -43.4761   59.3427   65.5717 C   0  0  0  0  0  0  0  0  0  0  0  0
  -44.7844   59.5878   65.3864 C   0  0  0  0  0  0  0  0  0  0  0  0
  -45.7853   58.4342   65.4128 C   0  0  0  0  0  0  0  0  0  0  0  0
  -47.2302   58.8711   65.6948 C   0  0  0  0  0  0  0  0  0  0  0  0
  -47.6296   60.2510   65.1405 C   0  0  0  0  0  0  0  0  0  0  0  0
  -48.1488   60.1299   63.6875 C   0  0  0  0  0  0  0  0  0  0  0  0
  -49.5897   60.6506   63.4541 C   0  0  0  0  0  0  0  0  0  0  0  0
  -50.6975   59.6380   63.8284 C   0  0  0  0  0  0  0  0  0  0  0  0
  -50.4951   58.2415   63.2016 C   0  0  0  0  0  0  0  0  0  0  0  0
  -51.0194   58.1272   61.7652 C   0  0  0  0  0  0  0  0  0  0  0  0
  -50.0561   57.5242   60.7449 C   0  0  0  0  0  0  0  0  0  0  0  0
  -49.9121   58.3537   59.4538 C   0  0  0  0  0  0  0  0  0  0  0  0
  -48.4881   58.4351   58.8832 C   0  0  0  0  0  0  0  0  0  0  0  0
  -48.3128   57.4747   57.7034 C   0  0  0  0  0  0  0  0  0  0  0  0
  -47.2018   56.4472   57.8286 C   0  0  0  0  0  0  0  0  0  0  0  0
  -39.7997   60.4507   65.5543 C   0  0  0  0  0  0  0  0  0  0  0  0
  -39.0825   61.3955   64.7198 O   0  0  0  0  0  0  0  0  0  0  0  0
  -37.3166   61.5994   62.4799 O   0  0  0  0  0  0  0  0  0  0  0  0
  -35.3730   64.3604   64.9291 O   0  0  0  0  0  0  0  0  0  0  0  0
  -37.1923   62.1982   66.0113 O   0  0  0  0  0  0  0  0  0  0  0  0
  -37.6140   61.5261   64.7996 C   0  0  0  0  0  0  0  0  0  0  0  0
  -36.9381   62.2728   63.6407 C   0  0  0  0  0  0  0  0  0  0  0  0
  -35.3956   62.2745   63.7194 C   0  0  0  0  0  0  0  0  0  0  0  0
  -35.0409   62.9760   65.0014 C   0  0  0  0  0  0  0  0  0  0  0  0
  -35.7517   62.3096   66.1654 C   0  0  0  0  0  0  0  0  0  0  0  0
  -38.2843   61.5883   62.4135 H   0  0  0  0  0  0  0  0  0  0  0  0
  -34.9089   64.7656   64.1799 H   0  0  0  0  0  0  0  0  0  0  0  0
  -36.2621   64.0878   67.6790 O   0  0  0  0  0  0  0  0  0  0  0  0
  -35.2736   63.1630   67.3381 C   0  0  0  0  0  0  0  0  0  0  0  0
  -35.9561   64.6285   68.4239 H   0  0  0  0  0  0  0  0  0  0  0  0
  -34.7075   62.9880   62.6671 O   0  0  0  0  0  0  0  0  0  0  0  0
  -36.6846   64.6516   62.4661 O   0  0  0  0  0  0  0  0  0  0  0  0
  -35.4204   64.0495   60.4840 O   0  0  0  0  0  0  0  0  0  0  0  0
  -34.4726   65.5649   62.1210 O   0  0  0  0  0  0  0  0  0  0  0  0
  -35.3207   64.3531   61.9375 S   0  0  0  0  0  0  0  0  0  0  0  0
  -37.2519   63.8727   62.3551 H   0  0  0  0  0  0  0  0  0  0  0  0
  -34.4022   65.7702   63.0664 H   0  0  0  0  0  0  0  0  0  0  0  0
  2  1  1  0  0  0
  2  4  1  0  0  0
  2  5  1  0  0  0
 41 42  1  0  0  0
 41  1  1  0  0  0
 42 46  1  0  0  0
  1 24  1  0  0  0
 23 24  1  0  0  0
 23 25  1  0  0  0
 24 26  1  0  0  0
  3  4  2  0  0  0
 26 27  2  0  0  0
 27 28  1  0  0  0
 43 47  1  0  0  0
 43 51  1  0  0  0
 28 29  1  0  0  0
 56 48  1  0  0  0
 56 60  1  0  0  0
 29 30  1  0  0  0
 57 60  1  0  0  0
 57 61  1  0  0  0
 30 31  1  0  0  0
 44 49  1  0  0  0
 44 52  1  0  0  0
 31 32  1  0  0  0
 45 46  1  0  0  0
 45 50  1  0  0  0
 32 33  1  0  0  0
 53 54  1  0  0  0
 53 55  1  0  0  0
 33 34  1  0  0  0
 34 35  1  0  0  0
 35 36  1  0  0  0
 58 60  1  0  0  0
 36 37  1  0  0  0
 59 60  1  0  0  0
 59 62  1  0  0  0
 37 38  1  0  0  0
 38 39  1  0  0  0
 39 40  1  0  0  0
  4  6  1  0  0  0
  6  7  1  0  0  0
  7  8  1  0  0  0
  8  9  1  0  0  0
  9 10  1  0  0  0
 10 11  1  0  0  0
 11 12  1  0  0  0
 12 13  1  0  0  0
 13 14  1  0  0  0
 14 15  1  0  0  0
 15 16  1  0  0  0
 16 17  1  0  0  0
 17 18  1  0  0  0
 18 19  1  0  0  0
 19 20  1  0  0  0
 20 21  1  0  0  0
 21 22  1  0  0  0
 46 47  1  0  0  0
 47 48  1  0  0  0
 48 49  1  0  0  0
 49 50  1  0  0  0
 50 54  1  0  0  0
M  CHG 1  58  -1
M  END
> <minimizedAffinity>
-9.01270

> <CNNscore>
0.2528753877

> <CNNaffinity>
6.9927778244

> <CNN_VS>
1.7683013678

> <CNNaffinity_variance>
1.4491676092

$$$$
/media/chris/experiments/cd1a-new-docking/inputs/ligands/1onq_ligand.pdb


 62 62  0  0  0  0  0  0  0  0999 V2000
  -39.7599   60.3031   63.5785 C   0  0  0  0  0  0  0  0  0  0  0  0
  -41.0496   60.9644   63.6033 N   0  0  0  0  0  0  0  0  0  0  0  0
  -41.6381   60.9394   61.4123 O   0  0  0  0  0  0  0  0  0  0  0  0
  -41.8637   61.2264   62.5718 C   0  0  0  0  0  0  0  0  0  0  0  0
  -41.3668   61.2575   64.4880 H   0  0  0  0  0  0  0  0  0  0  0  0
  -43.1433   61.9222   62.9302 C   0  0  0  0  0  0  0  0  0  0  0  0
  -43.4017   61.6207   64.4066 C   0  0  0  0  0  0  0  0  0  0  0  0
  -44.3142   60.4037   64.5384 C   0  0  0  0  0  0  0  0  0  0  0  0
  -45.7970   60.6853   64.5574 C   0  0  0  0  0  0  0  0  0  0  0  0
  -46.4597   59.6082   65.4098 C   0  0  0  0  0  0  0  0  0  0  0  0
  -47.5154   58.8064   64.6368 C   0  0  0  0  0  0  0  0  0  0  0  0
  -48.7228   58.3679   65.4856 C   0  0  0  0  0  0  0  0  0  0  0  0
  -49.5899   59.5567   65.9552 C   0  0  0  0  0  0  0  0  0  0  0  0
  -49.8887   60.5015   64.7877 C   0  0  0  0  0  0  0  0  0  0  0  0
  -51.1771   60.2036   64.0305 C   0  0  0  0  0  0  0  0  0  0  0  0
  -50.9585   60.1272   62.5267 C   0  0  0  0  0  0  0  0  0  0  0  0
  -49.5012   60.1327   62.0593 C   0  0  0  0  0  0  0  0  0  0  0  0
  -49.2546   58.8633   61.2553 C   0  0  0  0  0  0  0  0  0  0  0  0
  -49.4795   58.8977   59.7509 C   0  0  0  0  0  0  0  0  0  0  0  0
  -48.5740   57.8822   59.0361 C   0  0  0  0  0  0  0  0  0  0  0  0
  -47.6600   58.4905   57.9566 C   0  0  0  0  0  0  0  0  0  0  0  0
  -46.9110   57.4413   57.1381 C   0  0  0  0  0  0  0  0  0  0  0  0
  -38.3904   59.6618   65.3418 O   0  0  0  0  0  0  0  0  0  0  0  0
  -39.7360   59.5744   64.9111 C   0  0  0  0  0  0  0  0  0  0  0  0
  -38.1488   60.5938   65.4603 H   0  0  0  0  0  0  0  0  0  0  0  0
  -40.1823   58.1250   64.7044 C   0  0  0  0  0  0  0  0  0  0  0  0
  -41.1722   57.7768   63.8647 C   0  0  0  0  0  0  0  0  0  0  0  0
  -41.5599   56.3070   63.7146 C   0  0  0  0  0  0  0  0  0  0  0  0
  -41.3150   55.7399   62.3086 C   0  0  0  0  0  0  0  0  0  0  0  0
  -40.5782   56.6748   61.3318 C   0  0  0  0  0  0  0  0  0  0  0  0
  -41.5505   57.2283   60.2624 C   0  0  0  0  0  0  0  0  0  0  0  0
  -40.9925   58.3863   59.3967 C   0  0  0  0  0  0  0  0  0  0  0  0
  -39.4610   58.3380   59.1853 C   0  0  0  0  0  0  0  0  0  0  0  0
  -38.6665   59.1397   60.2389 C   0  0  0  0  0  0  0  0  0  0  0  0
  -37.3701   58.4549   60.6878 C   0  0  0  0  0  0  0  0  0  0  0  0
  -37.3260   57.9882   62.1413 C   0  0  0  0  0  0  0  0  0  0  0  0
  -36.1831   58.6137   62.9651 C   0  0  0  0  0  0  0  0  0  0  0  0
  -35.0848   57.6356   63.4091 C   0  0  0  0  0  0  0  0  0  0  0  0
  -33.8028   57.8433   62.5977 C   0  0  0  0  0  0  0  0  0  0  0  0
  -32.6109   58.4071   63.3509 C   0  0  0  0  0  0  0  0  0  0  0  0
  -38.5521   61.2116   63.2549 C   0  0  0  0  0  0  0  0  0  0  0  0
  -38.1315   62.1269   64.2984 O   0  0  0  0  0  0  0  0  0  0  0  0
  -37.1648   64.0202   66.2109 O   0  0  0  0  0  0  0  0  0  0  0  0
  -33.5227   62.1300   65.4620 O   0  0  0  0  0  0  0  0  0  0  0  0
  -35.8367   62.0699   63.5133 O   0  0  0  0  0  0  0  0  0  0  0  0
  -36.8416   62.8406   64.2162 C   0  0  0  0  0  0  0  0  0  0  0  0
  -36.2080   63.2472   65.5543 C   0  0  0  0  0  0  0  0  0  0  0  0
  -34.9238   64.0916   65.4016 C   0  0  0  0  0  0  0  0  0  0  0  0
  -33.9404   63.2305   64.6580 C   0  0  0  0  0  0  0  0  0  0  0  0
  -34.5602   62.7468   63.3595 C   0  0  0  0  0  0  0  0  0  0  0  0
  -37.9800   63.5052   66.3160 H   0  0  0  0  0  0  0  0  0  0  0  0
  -33.1305   62.4612   66.2850 H   0  0  0  0  0  0  0  0  0  0  0  0
  -32.2166   62.5852   62.9178 O   0  0  0  0  0  0  0  0  0  0  0  0
  -33.4266   61.9025   62.7813 C   0  0  0  0  0  0  0  0  0  0  0  0
  -31.4984   62.0470   62.5499 H   0  0  0  0  0  0  0  0  0  0  0  0
  -34.2694   64.4792   66.6310 O   0  0  0  0  0  0  0  0  0  0  0  0
  -32.7726   66.1024   67.9880 O   0  0  0  0  0  0  0  0  0  0  0  0
  -33.0065   66.4097   65.5922 O   0  0  0  0  0  0  0  0  0  0  0  0
  -31.6334   64.6119   66.4625 O   0  0  0  0  0  0  0  0  0  0  0  0
  -32.8817   65.3979   66.6763 S   0  0  0  0  0  0  0  0  0  0  0  0
  -33.5776   66.6202   68.1448 H   0  0  0  0  0  0  0  0  0  0  0  0
  -31.5440   63.9495   67.1654 H   0  0  0  0  0  0  0  0  0  0  0  0
  2  1  1  0  0  0
  2  4  1  0  0  0
  2  5  1  0  0  0
 41 42  1  0  0  0
 41  1  1  0  0  0
 42 46  1  0  0  0
  1 24  1  0  0  0
 23 24  1  0  0  0
 23 25  1  0  0  0
 24 26  1  0  0  0
  3  4  2  0  0  0
 26 27  2  0  0  0
 27 28  1  0  0  0
 43 47  1  0  0  0
 43 51  1  0  0  0
 28 29  1  0  0  0
 56 48  1  0  0  0
 56 60  1  0  0  0
 29 30  1  0  0  0
 57 60  1  0  0  0
 57 61  1  0  0  0
 30 31  1  0  0  0
 44 49  1  0  0  0
 44 52  1  0  0  0
 31 32  1  0  0  0
 45 46  1  0  0  0
 45 50  1  0  0  0
 32 33  1  0  0  0
 53 54  1  0  0  0
 53 55  1  0  0  0
 33 34  1  0  0  0
 34 35  1  0  0  0
 35 36  1  0  0  0
 58 60  1  0  0  0
 36 37  1  0  0  0
 59 60  1  0  0  0
 59 62  1  0  0  0
 37 38  1  0  0  0
 38 39  1  0  0  0
 39 40  1  0  0  0
  4  6  1  0  0  0
  6  7  1  0  0  0
  7  8  1  0  0  0
  8  9  1  0  0  0
  9 10  1  0  0  0
 10 11  1  0  0  0
 11 12  1  0  0  0
 12 13  1  0  0  0
 13 14  1  0  0  0
 14 15  1  0  0  0
 15 16  1  0  0  0
 16 17  1  0  0  0
 17 18  1  0  0  0
 18 19  1  0  0  0
 19 20  1  0  0  0
 20 21  1  0  0  0
 21 22  1  0  0  0
 46 47  1  0  0  0
 47 48  1  0  0  0
 48 49  1  0  0  0
 49 50  1  0  0  0
 50 54  1  0  0  0
M  CHG 1  58  -1
M  END
> <minimizedAffinity>
-9.13297

> <CNNscore>
0.2172221094

> <CNNaffinity>
6.9486861229

> <CNN_VS>
1.5094082355

> <CNNaffinity_variance>
1.3871352673

$$$$
/media/chris/experiments/cd1a-new-docking/inputs/ligands/1onq_ligand.pdb


 62 62  0  0  0  0  0  0  0  0999 V2000
  -38.0137   59.7809   64.5292 C   0  0  0  0  0  0  0  0  0  0  0  0
  -39.4478   59.9643   64.6327 N   0  0  0  0  0  0  0  0  0  0  0  0
  -39.8532   61.4746   62.9889 O   0  0  0  0  0  0  0  0  0  0  0  0
  -40.2348   60.7583   63.8939 C   0  0  0  0  0  0  0  0  0  0  0  0
  -39.8999   59.4403   65.3328 H   0  0  0  0  0  0  0  0  0  0  0  0
  -41.6922   60.7176   64.2462 C   0  0  0  0  0  0  0  0  0  0  0  0
  -42.4342   61.4077   63.1014 C   0  0  0  0  0  0  0  0  0  0  0  0
  -43.8944   61.6322   63.4867 C   0  0  0  0  0  0  0  0  0  0  0  0
  -44.5899   60.4718   64.1561 C   0  0  0  0  0  0  0  0  0  0  0  0
  -45.8705   61.0052   64.7896 C   0  0  0  0  0  0  0  0  0  0  0  0
  -47.1157   60.2150   64.3653 C   0  0  0  0  0  0  0  0  0  0  0  0
  -48.4232   60.6956   65.0211 C   0  0  0  0  0  0  0  0  0  0  0  0
  -49.1173   59.5949   65.8531 C   0  0  0  0  0  0  0  0  0  0  0  0
  -50.4549   59.2017   65.2194 C   0  0  0  0  0  0  0  0  0  0  0  0
  -51.0513   60.2391   64.2760 C   0  0  0  0  0  0  0  0  0  0  0  0
  -50.9854   59.8013   62.8204 C   0  0  0  0  0  0  0  0  0  0  0  0
  -50.8690   58.2948   62.5774 C   0  0  0  0  0  0  0  0  0  0  0  0
  -50.4600   58.0770   61.1269 C   0  0  0  0  0  0  0  0  0  0  0  0
  -49.0246   58.3773   60.7210 C   0  0  0  0  0  0  0  0  0  0  0  0
  -48.9486   58.8092   59.2480 C   0  0  0  0  0  0  0  0  0  0  0  0
  -48.5677   57.6819   58.2708 C   0  0  0  0  0  0  0  0  0  0  0  0
  -47.1190   57.7592   57.7945 C   0  0  0  0  0  0  0  0  0  0  0  0
  -36.7188   57.9551   65.1502 O   0  0  0  0  0  0  0  0  0  0  0  0
  -37.8808   58.2726   64.4068 C   0  0  0  0  0  0  0  0  0  0  0  0
  -36.8483   58.2103   66.0771 H   0  0  0  0  0  0  0  0  0  0  0  0
  -37.7422   57.8940   62.9304 C   0  0  0  0  0  0  0  0  0  0  0  0
  -37.7904   58.7965   61.9358 C   0  0  0  0  0  0  0  0  0  0  0  0
  -37.6448   58.3386   60.4858 C   0  0  0  0  0  0  0  0  0  0  0  0
  -38.4689   59.1643   59.4873 C   0  0  0  0  0  0  0  0  0  0  0  0
  -39.9026   59.5094   59.9308 C   0  0  0  0  0  0  0  0  0  0  0  0
  -40.9126   58.4756   59.3773 C   0  0  0  0  0  0  0  0  0  0  0  0
  -41.6950   57.6754   60.4493 C   0  0  0  0  0  0  0  0  0  0  0  0
  -40.9840   56.3852   60.9210 C   0  0  0  0  0  0  0  0  0  0  0  0
  -41.2615   56.0321   62.3983 C   0  0  0  0  0  0  0  0  0  0  0  0
  -41.3319   57.2535   63.3227 C   0  0  0  0  0  0  0  0  0  0  0  0
  -41.7805   56.9845   64.7576 C   0  0  0  0  0  0  0  0  0  0  0  0
  -43.3108   56.9351   64.9360 C   0  0  0  0  0  0  0  0  0  0  0  0
  -43.8409   57.5815   66.2249 C   0  0  0  0  0  0  0  0  0  0  0  0
  -45.3708   57.5356   66.2739 C   0  0  0  0  0  0  0  0  0  0  0  0
  -46.0331   58.2970   67.4086 C   0  0  0  0  0  0  0  0  0  0  0  0
  -37.1733   60.4716   65.6272 C   0  0  0  0  0  0  0  0  0  0  0  0
  -37.5114   61.8485   65.9322 O   0  0  0  0  0  0  0  0  0  0  0  0
  -35.0153   62.6753   67.0562 O   0  0  0  0  0  0  0  0  0  0  0  0
  -33.9807   63.1963   63.0490 O   0  0  0  0  0  0  0  0  0  0  0  0
  -36.8472   63.1825   64.0178 O   0  0  0  0  0  0  0  0  0  0  0  0
  -36.6825   62.9671   65.4406 C   0  0  0  0  0  0  0  0  0  0  0  0
  -35.1711   62.8446   65.6809 C   0  0  0  0  0  0  0  0  0  0  0  0
  -34.3713   64.0946   65.2525 C   0  0  0  0  0  0  0  0  0  0  0  0
  -34.6012   64.2546   63.7750 C   0  0  0  0  0  0  0  0  0  0  0  0
  -36.0912   64.3052   63.4893 C   0  0  0  0  0  0  0  0  0  0  0  0
  -35.5117   61.8932   67.3439 H   0  0  0  0  0  0  0  0  0  0  0  0
  -33.0310   63.1823   63.2460 H   0  0  0  0  0  0  0  0  0  0  0  0
  -36.4867   63.2498   61.3814 O   0  0  0  0  0  0  0  0  0  0  0  0
  -36.1010   64.4556   61.9696 C   0  0  0  0  0  0  0  0  0  0  0  0
  -36.4922   63.3480   60.4164 H   0  0  0  0  0  0  0  0  0  0  0  0
  -32.9385   64.0229   65.4309 O   0  0  0  0  0  0  0  0  0  0  0  0
  -31.0700   65.3923   66.5929 O   0  0  0  0  0  0  0  0  0  0  0  0
  -32.8346   66.5506   65.3955 O   0  0  0  0  0  0  0  0  0  0  0  0
  -31.0742   65.4163   64.1752 O   0  0  0  0  0  0  0  0  0  0  0  0
  -31.9447   65.3578   65.3836 S   0  0  0  0  0  0  0  0  0  0  0  0
  -31.6200   65.3550   67.3910 H   0  0  0  0  0  0  0  0  0  0  0  0
  -30.4903   64.6419   64.1595 H   0  0  0  0  0  0  0  0  0  0  0  0
  2  1  1  0  0  0
  2  4  1  0  0  0
  2  5  1  0  0  0
 41 42  1  0  0  0
 41  1  1  0  0  0
 42 46  1  0  0  0
  1 24  1  0  0  0
 23 24  1  0  0  0
 23 25  1  0  0  0
 24 26  1  0  0  0
  3  4  2  0  0  0
 26 27  2  0  0  0
 27 28  1  0  0  0
 43 47  1  0  0  0
 43 51  1  0  0  0
 28 29  1  0  0  0
 56 48  1  0  0  0
 56 60  1  0  0  0
 29 30  1  0  0  0
 57 60  1  0  0  0
 57 61  1  0  0  0
 30 31  1  0  0  0
 44 49  1  0  0  0
 44 52  1  0  0  0
 31 32  1  0  0  0
 45 46  1  0  0  0
 45 50  1  0  0  0
 32 33  1  0  0  0
 53 54  1  0  0  0
 53 55  1  0  0  0
 33 34  1  0  0  0
 34 35  1  0  0  0
 35 36  1  0  0  0
 58 60  1  0  0  0
 36 37  1  0  0  0
 59 60  1  0  0  0
 59 62  1  0  0  0
 37 38  1  0  0  0
 38 39  1  0  0  0
 39 40  1  0  0  0
  4  6  1  0  0  0
  6  7  1  0  0  0
  7  8  1  0  0  0
  8  9  1  0  0  0
  9 10  1  0  0  0
 10 11  1  0  0  0
 11 12  1  0  0  0
 12 13  1  0  0  0
 13 14  1  0  0  0
 14 15  1  0  0  0
 15 16  1  0  0  0
 16 17  1  0  0  0
 17 18  1  0  0  0
 18 19  1  0  0  0
 19 20  1  0  0  0
 20 21  1  0  0  0
 21 22  1  0  0  0
 46 47  1  0  0  0
 47 48  1  0  0  0
 48 49  1  0  0  0
 49 50  1  0  0  0
 50 54  1  0  0  0
M  CHG 1  58  -1
M  END
> <minimizedAffinity>
-9.16401

> <CNNscore>
0.1936735809

> <CNNaffinity>
7.2512588501

> <CNN_VS>
1.4043772221

> <CNNaffinity_variance>
0.9926297069

$$$$
/media/chris/experiments/cd1a-new-docking/inputs/ligands/1onq_ligand.pdb


 62 62  0  0  0  0  0  0  0  0999 V2000
  -41.5737   60.1574   65.2279 C   0  0  0  0  0  0  0  0  0  0  0  0
  -41.6547   58.7851   64.7680 N   0  0  0  0  0  0  0  0  0  0  0  0
  -42.3548   57.6998   66.6333 O   0  0  0  0  0  0  0  0  0  0  0  0
  -42.0212   57.7005   65.4643 C   0  0  0  0  0  0  0  0  0  0  0  0
  -41.4100   58.6307   63.8269 H   0  0  0  0  0  0  0  0  0  0  0  0
  -42.0094   56.4138   64.6935 C   0  0  0  0  0  0  0  0  0  0  0  0
  -42.0746   56.7943   63.2142 C   0  0  0  0  0  0  0  0  0  0  0  0
  -41.3544   55.7430   62.3731 C   0  0  0  0  0  0  0  0  0  0  0  0
  -41.1682   56.0756   60.9126 C   0  0  0  0  0  0  0  0  0  0  0  0
  -41.7189   57.4796   60.6858 C   0  0  0  0  0  0  0  0  0  0  0  0
  -41.0756   58.1817   59.4824 C   0  0  0  0  0  0  0  0  0  0  0  0
  -40.7987   59.6807   59.6988 C   0  0  0  0  0  0  0  0  0  0  0  0
  -39.2914   60.0063   59.7857 C   0  0  0  0  0  0  0  0  0  0  0  0
  -38.4529   58.7424   59.5746 C   0  0  0  0  0  0  0  0  0  0  0  0
  -37.4535   58.4387   60.6842 C   0  0  0  0  0  0  0  0  0  0  0  0
  -38.0555   57.5756   61.7831 C   0  0  0  0  0  0  0  0  0  0  0  0
  -38.7163   58.3275   62.9408 C   0  0  0  0  0  0  0  0  0  0  0  0
  -38.2860   57.6676   64.2439 C   0  0  0  0  0  0  0  0  0  0  0  0
  -37.0864   58.2358   64.9877 C   0  0  0  0  0  0  0  0  0  0  0  0
  -35.8171   57.4235   64.6859 C   0  0  0  0  0  0  0  0  0  0  0  0
  -34.6127   58.2670   64.2288 C   0  0  0  0  0  0  0  0  0  0  0  0
  -34.4098   58.2599   62.7155 C   0  0  0  0  0  0  0  0  0  0  0  0
  -42.2682   62.2685   64.5520 O   0  0  0  0  0  0  0  0  0  0  0  0
  -42.2997   60.9173   64.1311 C   0  0  0  0  0  0  0  0  0  0  0  0
  -41.3469   62.5652   64.6178 H   0  0  0  0  0  0  0  0  0  0  0  0
  -43.7294   60.3853   64.0067 C   0  0  0  0  0  0  0  0  0  0  0  0
  -44.7538   60.8627   64.7338 C   0  0  0  0  0  0  0  0  0  0  0  0
  -46.1530   60.2775   64.5520 C   0  0  0  0  0  0  0  0  0  0  0  0
  -46.6292   59.4253   65.7374 C   0  0  0  0  0  0  0  0  0  0  0  0
  -48.0416   58.8267   65.6032 C   0  0  0  0  0  0  0  0  0  0  0  0
  -49.1113   59.8247   66.1081 C   0  0  0  0  0  0  0  0  0  0  0  0
  -50.5287   59.6338   65.5112 C   0  0  0  0  0  0  0  0  0  0  0  0
  -50.8489   60.5748   64.3260 C   0  0  0  0  0  0  0  0  0  0  0  0
  -51.1561   59.8279   63.0100 C   0  0  0  0  0  0  0  0  0  0  0  0
  -50.7178   58.3585   63.0169 C   0  0  0  0  0  0  0  0  0  0  0  0
  -49.8689   57.9056   61.8309 C   0  0  0  0  0  0  0  0  0  0  0  0
  -49.6072   59.0117   60.7898 C   0  0  0  0  0  0  0  0  0  0  0  0
  -49.6688   58.5584   59.3233 C   0  0  0  0  0  0  0  0  0  0  0  0
  -48.2627   58.3819   58.7429 C   0  0  0  0  0  0  0  0  0  0  0  0
  -47.5343   57.1027   59.1154 C   0  0  0  0  0  0  0  0  0  0  0  0
  -40.1581   60.6511   65.6035 C   0  0  0  0  0  0  0  0  0  0  0  0
  -39.4159   61.3414   64.5662 O   0  0  0  0  0  0  0  0  0  0  0  0
  -37.6665   61.6665   62.3276 O   0  0  0  0  0  0  0  0  0  0  0  0
  -35.7448   64.3443   64.8842 O   0  0  0  0  0  0  0  0  0  0  0  0
  -37.5286   62.1127   65.8810 O   0  0  0  0  0  0  0  0  0  0  0  0
  -37.9488   61.4883   64.6436 C   0  0  0  0  0  0  0  0  0  0  0  0
  -37.2899   62.2937   63.5146 C   0  0  0  0  0  0  0  0  0  0  0  0
  -35.7471   62.3129   63.5848 C   0  0  0  0  0  0  0  0  0  0  0  0
  -35.3939   62.9626   64.8942 C   0  0  0  0  0  0  0  0  0  0  0  0
  -36.0887   62.2367   66.0320 C   0  0  0  0  0  0  0  0  0  0  0  0
  -38.6343   61.6452   62.2661 H   0  0  0  0  0  0  0  0  0  0  0  0
  -35.2907   64.7879   64.1508 H   0  0  0  0  0  0  0  0  0  0  0  0
  -36.4896   64.1091   67.4626 O   0  0  0  0  0  0  0  0  0  0  0  0
  -35.6149   63.0447   67.2381 C   0  0  0  0  0  0  0  0  0  0  0  0
  -36.1865   64.6206   68.2290 H   0  0  0  0  0  0  0  0  0  0  0  0
  -35.0749   63.0807   62.5608 O   0  0  0  0  0  0  0  0  0  0  0  0
  -33.1020   63.4555   60.9226 O   0  0  0  0  0  0  0  0  0  0  0  0
  -33.0126   61.6164   62.5033 O   0  0  0  0  0  0  0  0  0  0  0  0
  -32.6564   63.8917   63.2587 O   0  0  0  0  0  0  0  0  0  0  0  0
  -33.4288   63.0329   62.3167 S   0  0  0  0  0  0  0  0  0  0  0  0
  -33.5965   62.9067   60.2941 H   0  0  0  0  0  0  0  0  0  0  0  0
  -32.9215   64.8176   63.1437 H   0  0  0  0  0  0  0  0  0  0  0  0
  2  1  1  0  0  0
  2  4  1  0  0  0
  2  5  1  0  0  0
 41 42  1  0  0  0
 41  1  1  0  0  0
 42 46  1  0  0  0
  1 24  1  0  0  0
 23 24  1  0  0  0
 23 25  1  0  0  0
 24 26  1  0  0  0
  3  4  2  0  0  0
 26 27  2  0  0  0
 27 28  1  0  0  0
 43 47  1  0  0  0
 43 51  1  0  0  0
 28 29  1  0  0  0
 56 48  1  0  0  0
 56 60  1  0  0  0
 29 30  1  0  0  0
 57 60  1  0  0  0
 57 61  1  0  0  0
 30 31  1  0  0  0
 44 49  1  0  0  0
 44 52  1  0  0  0
 31 32  1  0  0  0
 45 46  1  0  0  0
 45 50  1  0  0  0
 32 33  1  0  0  0
 53 54  1  0  0  0
 53 55  1  0  0  0
 33 34  1  0  0  0
 34 35  1  0  0  0
 35 36  1  0  0  0
 58 60  1  0  0  0
 36 37  1  0  0  0
 59 60  1  0  0  0
 59 62  1  0  0  0
 37 38  1  0  0  0
 38 39  1  0  0  0
 39 40  1  0  0  0
  4  6  1  0  0  0
  6  7  1  0  0  0
  7  8  1  0  0  0
  8  9  1  0  0  0
  9 10  1  0  0  0
 10 11  1  0  0  0
 11 12  1  0  0  0
 12 13  1  0  0  0
 13 14  1  0  0  0
 14 15  1  0  0  0
 15 16  1  0  0  0
 16 17  1  0  0  0
 17 18  1  0  0  0
 18 19  1  0  0  0
 19 20  1  0  0  0
 20 21  1  0  0  0
 21 22  1  0  0  0
 46 47  1  0  0  0
 47 48  1  0  0  0
 48 49  1  0  0  0
 49 50  1  0  0  0
 50 54  1  0  0  0
M  CHG 1  58  -1
M  END
> <minimizedAffinity>
-9.71904

> <CNNscore>
0.1913212389

> <CNNaffinity>
7.0857491493

> <CNN_VS>
1.3556543589

> <CNNaffinity_variance>
2.1741201878

$$$$
/media/chris/experiments/cd1a-new-docking/inputs/ligands/1onq_ligand.pdb


 62 62  0  0  0  0  0  0  0  0999 V2000
  -42.8246   58.0397   63.6707 C   0  0  0  0  0  0  0  0  0  0  0  0
  -43.7080   57.6056   64.7349 N   0  0  0  0  0  0  0  0  0  0  0  0
  -43.9458   59.5017   65.9578 O   0  0  0  0  0  0  0  0  0  0  0  0
  -44.1871   58.3273   65.7572 C   0  0  0  0  0  0  0  0  0  0  0  0
  -43.9911   56.6632   64.7025 H   0  0  0  0  0  0  0  0  0  0  0  0
  -45.0927   57.5836   66.6935 C   0  0  0  0  0  0  0  0  0  0  0  0
  -46.1402   58.5887   67.1728 C   0  0  0  0  0  0  0  0  0  0  0  0
  -47.2281   58.7529   66.1142 C   0  0  0  0  0  0  0  0  0  0  0  0
  -47.6585   60.1693   65.8193 C   0  0  0  0  0  0  0  0  0  0  0  0
  -47.3286   60.4564   64.3583 C   0  0  0  0  0  0  0  0  0  0  0  0
  -48.5757   60.7618   63.5178 C   0  0  0  0  0  0  0  0  0  0  0  0
  -49.8480   61.0206   64.3454 C   0  0  0  0  0  0  0  0  0  0  0  0
  -51.0803   60.2625   63.8049 C   0  0  0  0  0  0  0  0  0  0  0  0
  -50.7756   58.7684   63.6629 C   0  0  0  0  0  0  0  0  0  0  0  0
  -50.9442   58.2066   62.2565 C   0  0  0  0  0  0  0  0  0  0  0  0
  -49.6522   57.6155   61.7122 C   0  0  0  0  0  0  0  0  0  0  0  0
  -48.9262   58.4496   60.6542 C   0  0  0  0  0  0  0  0  0  0  0  0
  -49.7737   58.4555   59.3891 C   0  0  0  0  0  0  0  0  0  0  0  0
  -49.3170   57.6211   58.2015 C   0  0  0  0  0  0  0  0  0  0  0  0
  -48.1236   56.7304   58.5817 C   0  0  0  0  0  0  0  0  0  0  0  0
  -46.7698   57.2027   58.0205 C   0  0  0  0  0  0  0  0  0  0  0  0
  -46.8967   58.3552   57.0270 C   0  0  0  0  0  0  0  0  0  0  0  0
  -42.2714   55.8902   64.3560 O   0  0  0  0  0  0  0  0  0  0  0  0
  -41.6926   57.0297   63.7476 C   0  0  0  0  0  0  0  0  0  0  0  0
  -42.9887   55.5540   63.7961 H   0  0  0  0  0  0  0  0  0  0  0  0
  -40.5498   57.6117   64.5830 C   0  0  0  0  0  0  0  0  0  0  0  0
  -39.2919   57.7256   64.1239 C   0  0  0  0  0  0  0  0  0  0  0  0
  -38.2058   58.3168   65.0206 C   0  0  0  0  0  0  0  0  0  0  0  0
  -36.8708   57.5601   64.9616 C   0  0  0  0  0  0  0  0  0  0  0  0
  -35.6663   58.3722   64.4511 C   0  0  0  0  0  0  0  0  0  0  0  0
  -35.3242   57.9885   62.9913 C   0  0  0  0  0  0  0  0  0  0  0  0
  -33.8341   58.1488   62.5967 C   0  0  0  0  0  0  0  0  0  0  0  0
  -32.9847   58.9239   63.6313 C   0  0  0  0  0  0  0  0  0  0  0  0
  -31.6521   59.4564   63.0615 C   0  0  0  0  0  0  0  0  0  0  0  0
  -31.8244   60.3922   61.8591 C   0  0  0  0  0  0  0  0  0  0  0  0
  -30.9591   61.6506   61.8584 C   0  0  0  0  0  0  0  0  0  0  0  0
  -31.6973   62.9182   62.3319 C   0  0  0  0  0  0  0  0  0  0  0  0
  -32.8563   63.3752   61.4330 C   0  0  0  0  0  0  0  0  0  0  0  0
  -33.2244   64.8355   61.7105 C   0  0  0  0  0  0  0  0  0  0  0  0
  -32.2867   65.8874   61.1448 C   0  0  0  0  0  0  0  0  0  0  0  0
  -42.4331   59.5346   63.6988 C   0  0  0  0  0  0  0  0  0  0  0  0
  -42.4412   60.2309   62.4266 O   0  0  0  0  0  0  0  0  0  0  0  0
  -40.0643   61.4303   63.4700 O   0  0  0  0  0  0  0  0  0  0  0  0
  -38.1994   58.4901   61.1729 O   0  0  0  0  0  0  0  0  0  0  0  0
  -41.0090   59.4695   60.6226 O   0  0  0  0  0  0  0  0  0  0  0  0
  -41.1942   60.4542   61.6684 C   0  0  0  0  0  0  0  0  0  0  0  0
  -39.8959   60.4547   62.4882 C   0  0  0  0  0  0  0  0  0  0  0  0
  -38.6404   60.8099   61.6617 C   0  0  0  0  0  0  0  0  0  0  0  0
  -38.5246   59.7533   60.5979 C   0  0  0  0  0  0  0  0  0  0  0  0
  -39.8204   59.6718   59.8115 C   0  0  0  0  0  0  0  0  0  0  0  0
  -40.8498   61.2234   64.0001 H   0  0  0  0  0  0  0  0  0  0  0  0
  -37.3697   58.5650   61.6699 H   0  0  0  0  0  0  0  0  0  0  0  0
  -38.1867   58.7015   58.3614 O   0  0  0  0  0  0  0  0  0  0  0  0
  -39.4987   58.5591   58.8163 C   0  0  0  0  0  0  0  0  0  0  0  0
  -37.9848   57.9937   57.7295 H   0  0  0  0  0  0  0  0  0  0  0  0
  -37.3849   60.7981   62.3783 O   0  0  0  0  0  0  0  0  0  0  0  0
  -36.6441   63.2599   62.0508 O   0  0  0  0  0  0  0  0  0  0  0  0
  -35.3243   61.7901   63.4603 O   0  0  0  0  0  0  0  0  0  0  0  0
  -37.4420   62.6621   64.2536 O   0  0  0  0  0  0  0  0  0  0  0  0
  -36.7085   62.1593   63.0574 S   0  0  0  0  0  0  0  0  0  0  0  0
  -36.1693   62.9508   61.2636 H   0  0  0  0  0  0  0  0  0  0  0  0
  -38.3461   62.9053   63.9998 H   0  0  0  0  0  0  0  0  0  0  0  0
  2  1  1  0  0  0
  2  4  1  0  0  0
  2  5  1  0  0  0
 41 42  1  0  0  0
 41  1  1  0  0  0
 42 46  1  0  0  0
  1 24  1  0  0  0
 23 24  1  0  0  0
 23 25  1  0  0  0
 24 26  1  0  0  0
  3  4  2  0  0  0
 26 27  2  0  0  0
 27 28  1  0  0  0
 43 47  1  0  0  0
 43 51  1  0  0  0
 28 29  1  0  0  0
 56 48  1  0  0  0
 56 60  1  0  0  0
 29 30  1  0  0  0
 57 60  1  0  0  0
 57 61  1  0  0  0
 30 31  1  0  0  0
 44 49  1  0  0  0
 44 52  1  0  0  0
 31 32  1  0  0  0
 45 46  1  0  0  0
 45 50  1  0  0  0
 32 33  1  0  0  0
 53 54  1  0  0  0
 53 55  1  0  0  0
 33 34  1  0  0  0
 34 35  1  0  0  0
 35 36  1  0  0  0
 58 60  1  0  0  0
 36 37  1  0  0  0
 59 60  1  0  0  0
 59 62  1  0  0  0
 37 38  1  0  0  0
 38 39  1  0  0  0
 39 40  1  0  0  0
  4  6  1  0  0  0
  6  7  1  0  0  0
  7  8  1  0  0  0
  8  9  1  0  0  0
  9 10  1  0  0  0
 10 11  1  0  0  0
 11 12  1  0  0  0
 12 13  1  0  0  0
 13 14  1  0  0  0
 14 15  1  0  0  0
 15 16  1  0  0  0
 16 17  1  0  0  0
 17 18  1  0  0  0
 18 19  1  0  0  0
 19 20  1  0  0  0
 20 21  1  0  0  0
 21 22  1  0  0  0
 46 47  1  0  0  0
 47 48  1  0  0  0
 48 49  1  0  0  0
 49 50  1  0  0  0
 50 54  1  0  0  0
M  CHG 1  58  -1
M  END
> <minimizedAffinity>
-9.20044

> <CNNscore>
0.1777733266

> <CNNaffinity>
6.6998758316

> <CNN_VS>
1.1910592318

> <CNNaffinity_variance>
1.6646220684

$$$$
/media/chris/experiments/cd1a-new-docking/inputs/ligands/1onq_ligand.pdb


 62 62  0  0  0  0  0  0  0  0999 V2000
  -38.2601   60.4352   64.9431 C   0  0  0  0  0  0  0  0  0  0  0  0
  -39.4929   59.7573   65.2918 N   0  0  0  0  0  0  0  0  0  0  0  0
  -40.6345   61.3824   66.3888 O   0  0  0  0  0  0  0  0  0  0  0  0
  -40.5465   60.2491   65.9578 C   0  0  0  0  0  0  0  0  0  0  0  0
  -39.5652   58.8188   65.0034 H   0  0  0  0  0  0  0  0  0  0  0  0
  -41.6821   59.2889   66.1534 C   0  0  0  0  0  0  0  0  0  0  0  0
  -42.9204   60.1360   66.4470 C   0  0  0  0  0  0  0  0  0  0  0  0
  -44.1843   59.3238   66.1752 C   0  0  0  0  0  0  0  0  0  0  0  0
  -45.4527   60.1173   65.9757 C   0  0  0  0  0  0  0  0  0  0  0  0
  -46.0947   59.6413   64.6769 C   0  0  0  0  0  0  0  0  0  0  0  0
  -47.5767   59.2802   64.8455 C   0  0  0  0  0  0  0  0  0  0  0  0
  -48.3574   60.2303   65.7719 C   0  0  0  0  0  0  0  0  0  0  0  0
  -49.7881   59.7329   66.0740 C   0  0  0  0  0  0  0  0  0  0  0  0
  -50.3552   58.9616   64.8788 C   0  0  0  0  0  0  0  0  0  0  0  0
  -51.1114   59.8100   63.8638 C   0  0  0  0  0  0  0  0  0  0  0  0
  -50.9373   59.2999   62.4409 C   0  0  0  0  0  0  0  0  0  0  0  0
  -49.9487   58.1460   62.2580 C   0  0  0  0  0  0  0  0  0  0  0  0
  -50.2716   57.4466   60.9445 C   0  0  0  0  0  0  0  0  0  0  0  0
  -49.1294   56.8476   60.1372 C   0  0  0  0  0  0  0  0  0  0  0  0
  -48.4425   57.9201   59.2770 C   0  0  0  0  0  0  0  0  0  0  0  0
  -47.3662   57.3774   58.3189 C   0  0  0  0  0  0  0  0  0  0  0  0
  -47.0415   58.3320   57.1722 C   0  0  0  0  0  0  0  0  0  0  0  0
  -39.6963   61.7216   63.6476 O   0  0  0  0  0  0  0  0  0  0  0  0
  -38.5364   60.9187   63.5298 C   0  0  0  0  0  0  0  0  0  0  0  0
  -39.5115   62.4726   64.2331 H   0  0  0  0  0  0  0  0  0  0  0  0
  -38.7610   59.7116   62.6160 C   0  0  0  0  0  0  0  0  0  0  0  0
  -37.9784   59.4390   61.5580 C   0  0  0  0  0  0  0  0  0  0  0  0
  -38.2690   58.2141   60.6929 C   0  0  0  0  0  0  0  0  0  0  0  0
  -38.8496   58.5519   59.3119 C   0  0  0  0  0  0  0  0  0  0  0  0
  -40.2092   57.9072   58.9847 C   0  0  0  0  0  0  0  0  0  0  0  0
  -41.0110   57.6292   60.2789 C   0  0  0  0  0  0  0  0  0  0  0  0
  -41.3349   56.1381   60.5494 C   0  0  0  0  0  0  0  0  0  0  0  0
  -41.0765   55.6881   62.0066 C   0  0  0  0  0  0  0  0  0  0  0  0
  -41.0511   56.8546   63.0179 C   0  0  0  0  0  0  0  0  0  0  0  0
  -42.4190   57.1651   63.6373 C   0  0  0  0  0  0  0  0  0  0  0  0
  -43.1948   58.3198   63.0069 C   0  0  0  0  0  0  0  0  0  0  0  0
  -42.3362   59.5669   62.7181 C   0  0  0  0  0  0  0  0  0  0  0  0
  -43.0509   60.9130   62.9109 C   0  0  0  0  0  0  0  0  0  0  0  0
  -42.6573   61.9065   61.8141 C   0  0  0  0  0  0  0  0  0  0  0  0
  -41.7318   61.3836   60.7298 C   0  0  0  0  0  0  0  0  0  0  0  0
  -36.9662   59.6192   65.1641 C   0  0  0  0  0  0  0  0  0  0  0  0
  -35.8160   59.9992   64.3666 O   0  0  0  0  0  0  0  0  0  0  0  0
  -33.4949   60.8764   62.9453 O   0  0  0  0  0  0  0  0  0  0  0  0
  -34.7657   64.6334   64.2373 O   0  0  0  0  0  0  0  0  0  0  0  0
  -35.5675   62.0628   65.6176 O   0  0  0  0  0  0  0  0  0  0  0  0
  -34.8962   61.0658   64.8096 C   0  0  0  0  0  0  0  0  0  0  0  0
  -34.1701   61.8366   63.6978 C   0  0  0  0  0  0  0  0  0  0  0  0
  -33.1358   62.8563   64.2233 C   0  0  0  0  0  0  0  0  0  0  0  0
  -33.9053   63.8446   65.0555 C   0  0  0  0  0  0  0  0  0  0  0  0
  -34.6972   63.1111   66.1229 C   0  0  0  0  0  0  0  0  0  0  0  0
  -34.1298   60.2261   62.6063 H   0  0  0  0  0  0  0  0  0  0  0  0
  -34.2401   65.0923   63.5635 H   0  0  0  0  0  0  0  0  0  0  0  0
  -36.7486   64.2833   66.4849 O   0  0  0  0  0  0  0  0  0  0  0  0
  -35.3959   64.2709   66.8292 C   0  0  0  0  0  0  0  0  0  0  0  0
  -37.1900   65.0207   66.9348 H   0  0  0  0  0  0  0  0  0  0  0  0
  -32.4417   63.6307   63.2192 O   0  0  0  0  0  0  0  0  0  0  0  0
  -34.3060   63.5204   61.4222 O   0  0  0  0  0  0  0  0  0  0  0  0
  -32.2230   62.3289   61.0608 O   0  0  0  0  0  0  0  0  0  0  0  0
  -32.3060   64.7394   60.8219 O   0  0  0  0  0  0  0  0  0  0  0  0
  -32.8248   63.5787   61.5998 S   0  0  0  0  0  0  0  0  0  0  0  0
  -34.6623   62.7696   61.9224 H   0  0  0  0  0  0  0  0  0  0  0  0
  -32.6936   65.5590   61.1669 H   0  0  0  0  0  0  0  0  0  0  0  0
  2  1  1  0  0  0
  2  4  1  0  0  0
  2  5  1  0  0  0
 41 42  1  0  0  0
 41  1  1  0  0  0
 42 46  1  0  0  0
  1 24  1  0  0  0
 23 24  1  0  0  0
 23 25  1  0  0  0
 24 26  1  0  0  0
  3  4  2  0  0  0
 26 27  2  0  0  0
 27 28  1  0  0  0
 43 47  1  0  0  0
 43 51  1  0  0  0
 28 29  1  0  0  0
 56 48  1  0  0  0
 56 60  1  0  0  0
 29 30  1  0  0  0
 57 60  1  0  0  0
 57 61  1  0  0  0
 30 31  1  0  0  0
 44 49  1  0  0  0
 44 52  1  0  0  0
 31 32  1  0  0  0
 45 46  1  0  0  0
 45 50  1  0  0  0
 32 33  1  0  0  0
 53 54  1  0  0  0
 53 55  1  0  0  0
 33 34  1  0  0  0
 34 35  1  0  0  0
 35 36  1  0  0  0
 58 60  1  0  0  0
 36 37  1  0  0  0
 59 60  1  0  0  0
 59 62  1  0  0  0
 37 38  1  0  0  0
 38 39  1  0  0  0
 39 40  1  0  0  0
  4  6  1  0  0  0
  6  7  1  0  0  0
  7  8  1  0  0  0
  8  9  1  0  0  0
  9 10  1  0  0  0
 10 11  1  0  0  0
 11 12  1  0  0  0
 12 13  1  0  0  0
 13 14  1  0  0  0
 14 15  1  0  0  0
 15 16  1  0  0  0
 16 17  1  0  0  0
 17 18  1  0  0  0
 18 19  1  0  0  0
 19 20  1  0  0  0
 20 21  1  0  0  0
 21 22  1  0  0  0
 46 47  1  0  0  0
 47 48  1  0  0  0
 48 49  1  0  0  0
 49 50  1  0  0  0
 50 54  1  0  0  0
M  CHG 1  58  -1
M  END
> <minimizedAffinity>
-9.31905

> <CNNscore>
0.1696591824

> <CNNaffinity>
7.2394523621

> <CNN_VS>
1.2282395363

> <CNNaffinity_variance>
1.0889161825

$$$$
/media/chris/experiments/cd1a-new-docking/inputs/ligands/1onq_ligand.pdb


 62 62  0  0  0  0  0  0  0  0999 V2000
  -41.5368   60.1823   65.3875 C   0  0  0  0  0  0  0  0  0  0  0  0
  -41.8860   60.2012   63.9808 N   0  0  0  0  0  0  0  0  0  0  0  0
  -42.3251   62.3993   63.6301 O   0  0  0  0  0  0  0  0  0  0  0  0
  -42.2393   61.2542   63.2312 C   0  0  0  0  0  0  0  0  0  0  0  0
  -41.8603   59.3323   63.5186 H   0  0  0  0  0  0  0  0  0  0  0  0
  -42.5340   60.9433   61.7937 C   0  0  0  0  0  0  0  0  0  0  0  0
  -41.3293   61.4316   60.9889 C   0  0  0  0  0  0  0  0  0  0  0  0
  -40.9752   60.4115   59.9095 C   0  0  0  0  0  0  0  0  0  0  0  0
  -39.5349   59.9617   59.8688 C   0  0  0  0  0  0  0  0  0  0  0  0
  -39.5112   58.5410   59.3148 C   0  0  0  0  0  0  0  0  0  0  0  0
  -40.9111   57.9206   59.2136 C   0  0  0  0  0  0  0  0  0  0  0  0
  -41.1381   56.7170   60.1466 C   0  0  0  0  0  0  0  0  0  0  0  0
  -41.4416   57.1348   61.6023 C   0  0  0  0  0  0  0  0  0  0  0  0
  -40.3944   56.5578   62.5592 C   0  0  0  0  0  0  0  0  0  0  0  0
  -39.8449   57.5427   63.5838 C   0  0  0  0  0  0  0  0  0  0  0  0
  -38.5938   58.2531   63.0887 C   0  0  0  0  0  0  0  0  0  0  0  0
  -37.6494   57.4206   62.2184 C   0  0  0  0  0  0  0  0  0  0  0  0
  -36.2176   57.7805   62.5914 C   0  0  0  0  0  0  0  0  0  0  0  0
  -35.7858   57.6427   64.0439 C   0  0  0  0  0  0  0  0  0  0  0  0
  -35.1359   58.9402   64.5498 C   0  0  0  0  0  0  0  0  0  0  0  0
  -33.6602   58.7957   64.9651 C   0  0  0  0  0  0  0  0  0  0  0  0
  -32.7347   58.4580   63.7985 C   0  0  0  0  0  0  0  0  0  0  0  0
  -42.2149   61.2947   67.3107 O   0  0  0  0  0  0  0  0  0  0  0  0
  -42.6885   60.9407   66.0246 C   0  0  0  0  0  0  0  0  0  0  0  0
  -41.4380   61.8689   67.2223 H   0  0  0  0  0  0  0  0  0  0  0  0
  -43.9180   60.0318   66.0929 C   0  0  0  0  0  0  0  0  0  0  0  0
  -45.0743   60.3166   65.4699 C   0  0  0  0  0  0  0  0  0  0  0  0
  -46.2576   59.3579   65.5876 C   0  0  0  0  0  0  0  0  0  0  0  0
  -47.1069   59.2591   64.3120 C   0  0  0  0  0  0  0  0  0  0  0  0
  -48.1204   60.3981   64.0962 C   0  0  0  0  0  0  0  0  0  0  0  0
  -49.2573   60.3276   65.1439 C   0  0  0  0  0  0  0  0  0  0  0  0
  -50.5086   59.5231   64.7097 C   0  0  0  0  0  0  0  0  0  0  0  0
  -51.0075   59.8494   63.2823 C   0  0  0  0  0  0  0  0  0  0  0  0
  -51.1382   58.6071   62.3748 C   0  0  0  0  0  0  0  0  0  0  0  0
  -49.7928   57.9865   61.9796 C   0  0  0  0  0  0  0  0  0  0  0  0
  -49.7899   57.1460   60.7045 C   0  0  0  0  0  0  0  0  0  0  0  0
  -49.8712   57.9756   59.4078 C   0  0  0  0  0  0  0  0  0  0  0  0
  -48.5991   58.7595   59.0512 C   0  0  0  0  0  0  0  0  0  0  0  0
  -47.6378   57.9008   58.2243 C   0  0  0  0  0  0  0  0  0  0  0  0
  -48.2545   57.0927   57.0963 C   0  0  0  0  0  0  0  0  0  0  0  0
  -40.1079   60.6649   65.7253 C   0  0  0  0  0  0  0  0  0  0  0  0
  -39.3732   61.3137   64.6564 O   0  0  0  0  0  0  0  0  0  0  0  0
  -37.6124   61.5309   62.4137 O   0  0  0  0  0  0  0  0  0  0  0  0
  -35.7677   64.4078   64.8054 O   0  0  0  0  0  0  0  0  0  0  0  0
  -37.5133   62.2078   65.9318 O   0  0  0  0  0  0  0  0  0  0  0  0
  -37.9102   61.4963   64.7343 C   0  0  0  0  0  0  0  0  0  0  0  0
  -37.2587   62.2411   63.5603 C   0  0  0  0  0  0  0  0  0  0  0  0
  -35.7173   62.2973   63.6399 C   0  0  0  0  0  0  0  0  0  0  0  0
  -35.3885   63.0374   64.9070 C   0  0  0  0  0  0  0  0  0  0  0  0
  -36.0776   62.3717   66.0844 C   0  0  0  0  0  0  0  0  0  0  0  0
  -38.5790   61.4852   62.3470 H   0  0  0  0  0  0  0  0  0  0  0  0
  -35.3168   64.8128   64.0481 H   0  0  0  0  0  0  0  0  0  0  0  0
  -36.2608   62.8604   68.4170 O   0  0  0  0  0  0  0  0  0  0  0  0
  -35.6305   63.2655   67.2391 C   0  0  0  0  0  0  0  0  0  0  0  0
  -35.9752   63.4296   69.1487 H   0  0  0  0  0  0  0  0  0  0  0  0
  -35.0526   63.0117   62.5732 O   0  0  0  0  0  0  0  0  0  0  0  0
  -33.0155   63.3658   61.0107 O   0  0  0  0  0  0  0  0  0  0  0  0
  -32.8591   61.7797   62.8407 O   0  0  0  0  0  0  0  0  0  0  0  0
  -32.7789   64.1616   63.2816 O   0  0  0  0  0  0  0  0  0  0  0  0
  -33.3966   63.1054   62.4305 S   0  0  0  0  0  0  0  0  0  0  0  0
  -33.4092   62.6870   60.4406 H   0  0  0  0  0  0  0  0  0  0  0  0
  -33.1238   65.0299   63.0207 H   0  0  0  0  0  0  0  0  0  0  0  0
  2  1  1  0  0  0
  2  4  1  0  0  0
  2  5  1  0  0  0
 41 42  1  0  0  0
 41  1  1  0  0  0
 42 46  1  0  0  0
  1 24  1  0  0  0
 23 24  1  0  0  0
 23 25  1  0  0  0
 24 26  1  0  0  0
  3  4  2  0  0  0
 26 27  2  0  0  0
 27 28  1  0  0  0
 43 47  1  0  0  0
 43 51  1  0  0  0
 28 29  1  0  0  0
 56 48  1  0  0  0
 56 60  1  0  0  0
 29 30  1  0  0  0
 57 60  1  0  0  0
 57 61  1  0  0  0
 30 31  1  0  0  0
 44 49  1  0  0  0
 44 52  1  0  0  0
 31 32  1  0  0  0
 45 46  1  0  0  0
 45 50  1  0  0  0
 32 33  1  0  0  0
 53 54  1  0  0  0
 53 55  1  0  0  0
 33 34  1  0  0  0
 34 35  1  0  0  0
 35 36  1  0  0  0
 58 60  1  0  0  0
 36 37  1  0  0  0
 59 60  1  0  0  0
 59 62  1  0  0  0
 37 38  1  0  0  0
 38 39  1  0  0  0
 39 40  1  0  0  0
  4  6  1  0  0  0
  6  7  1  0  0  0
  7  8  1  0  0  0
  8  9  1  0  0  0
  9 10  1  0  0  0
 10 11  1  0  0  0
 11 12  1  0  0  0
 12 13  1  0  0  0
 13 14  1  0  0  0
 14 15  1  0  0  0
 15 16  1  0  0  0
 16 17  1  0  0  0
 17 18  1  0  0  0
 18 19  1  0  0  0
 19 20  1  0  0  0
 20 21  1  0  0  0
 21 22  1  0  0  0
 46 47  1  0  0  0
 47 48  1  0  0  0
 48 49  1  0  0  0
 49 50  1  0  0  0
 50 54  1  0  0  0
M  CHG 1  58  -1
M  END
> <minimizedAffinity>
-9.43680

> <CNNscore>
0.1464214325

> <CNNaffinity>
7.1387662888

> <CNN_VS>
1.0452684164

> <CNNaffinity_variance>
1.7536704540

$$$$
/media/chris/experiments/cd1a-new-docking/inputs/ligands/1onq_ligand.pdb


 62 62  0  0  0  0  0  0  0  0999 V2000
  -41.8297   60.5509   64.9076 C   0  0  0  0  0  0  0  0  0  0  0  0
  -42.6003   59.3279   64.8007 N   0  0  0  0  0  0  0  0  0  0  0  0
  -42.1719   58.3215   66.7885 O   0  0  0  0  0  0  0  0  0  0  0  0
  -42.7160   58.3427   65.7016 C   0  0  0  0  0  0  0  0  0  0  0  0
  -43.1011   59.2058   63.9619 H   0  0  0  0  0  0  0  0  0  0  0  0
  -43.6030   57.2047   65.2917 C   0  0  0  0  0  0  0  0  0  0  0  0
  -45.0174   57.7749   65.1838 C   0  0  0  0  0  0  0  0  0  0  0  0
  -45.6702   57.8149   66.5635 C   0  0  0  0  0  0  0  0  0  0  0  0
  -46.4891   59.0441   66.8745 C   0  0  0  0  0  0  0  0  0  0  0  0
  -46.5245   59.9049   65.6161 C   0  0  0  0  0  0  0  0  0  0  0  0
  -47.9526   60.1847   65.1290 C   0  0  0  0  0  0  0  0  0  0  0  0
  -49.0514   59.7913   66.1332 C   0  0  0  0  0  0  0  0  0  0  0  0
  -50.2947   59.1775   65.4527 C   0  0  0  0  0  0  0  0  0  0  0  0
  -51.0354   60.2338   64.6275 C   0  0  0  0  0  0  0  0  0  0  0  0
  -51.1773   59.9111   63.1450 C   0  0  0  0  0  0  0  0  0  0  0  0
  -50.5450   58.5757   62.7817 C   0  0  0  0  0  0  0  0  0  0  0  0
  -49.2982   58.6423   61.8967 C   0  0  0  0  0  0  0  0  0  0  0  0
  -49.7492   58.7203   60.4444 C   0  0  0  0  0  0  0  0  0  0  0  0
  -48.6945   58.6637   59.3492 C   0  0  0  0  0  0  0  0  0  0  0  0
  -48.0709   57.2619   59.2584 C   0  0  0  0  0  0  0  0  0  0  0  0
  -47.0131   57.1041   58.1507 C   0  0  0  0  0  0  0  0  0  0  0  0
  -47.0158   58.2528   57.1447 C   0  0  0  0  0  0  0  0  0  0  0  0
  -43.7750   61.3289   63.9045 O   0  0  0  0  0  0  0  0  0  0  0  0
  -42.3682   61.3831   63.7566 C   0  0  0  0  0  0  0  0  0  0  0  0
  -44.0261   61.7229   64.7546 H   0  0  0  0  0  0  0  0  0  0  0  0
  -41.9039   60.7753   62.4309 C   0  0  0  0  0  0  0  0  0  0  0  0
  -41.7722   61.4937   61.3027 C   0  0  0  0  0  0  0  0  0  0  0  0
  -41.3038   60.8128   60.0181 C   0  0  0  0  0  0  0  0  0  0  0  0
  -39.9060   60.1852   60.1211 C   0  0  0  0  0  0  0  0  0  0  0  0
  -39.7523   58.7918   59.4842 C   0  0  0  0  0  0  0  0  0  0  0  0
  -41.1369   58.1514   59.2233 C   0  0  0  0  0  0  0  0  0  0  0  0
  -41.7781   57.4415   60.4425 C   0  0  0  0  0  0  0  0  0  0  0  0
  -41.1892   56.0431   60.7431 C   0  0  0  0  0  0  0  0  0  0  0  0
  -40.5619   55.9264   62.1491 C   0  0  0  0  0  0  0  0  0  0  0  0
  -40.5136   57.2533   62.9161 C   0  0  0  0  0  0  0  0  0  0  0  0
  -39.1272   57.8597   63.1220 C   0  0  0  0  0  0  0  0  0  0  0  0
  -38.0658   57.3465   62.1289 C   0  0  0  0  0  0  0  0  0  0  0  0
  -36.7891   58.1960   62.0381 C   0  0  0  0  0  0  0  0  0  0  0  0
  -35.6856   57.6276   62.9350 C   0  0  0  0  0  0  0  0  0  0  0  0
  -35.2237   58.5119   64.0798 C   0  0  0  0  0  0  0  0  0  0  0  0
  -40.2968   60.3674   64.9825 C   0  0  0  0  0  0  0  0  0  0  0  0
  -39.4946   61.2919   64.2046 O   0  0  0  0  0  0  0  0  0  0  0  0
  -37.5185   61.7062   62.1796 O   0  0  0  0  0  0  0  0  0  0  0  0
  -35.8903   64.2789   65.0309 O   0  0  0  0  0  0  0  0  0  0  0  0
  -37.7609   62.0094   65.7425 O   0  0  0  0  0  0  0  0  0  0  0  0
  -38.0446   61.4353   64.4434 C   0  0  0  0  0  0  0  0  0  0  0  0
  -37.2728   62.2852   63.4240 C   0  0  0  0  0  0  0  0  0  0  0  0
  -35.7462   62.3012   63.6586 C   0  0  0  0  0  0  0  0  0  0  0  0
  -35.5369   62.8979   65.0230 C   0  0  0  0  0  0  0  0  0  0  0  0
  -36.3457   62.1270   66.0505 C   0  0  0  0  0  0  0  0  0  0  0  0
  -38.4742   61.6876   62.0147 H   0  0  0  0  0  0  0  0  0  0  0  0
  -35.3626   64.7515   64.3682 H   0  0  0  0  0  0  0  0  0  0  0  0
  -34.6326   63.1303   67.3817 O   0  0  0  0  0  0  0  0  0  0  0  0
  -36.0060   62.8858   67.3315 C   0  0  0  0  0  0  0  0  0  0  0  0
  -34.4195   63.6123   68.1961 H   0  0  0  0  0  0  0  0  0  0  0  0
  -34.9722   63.1094   62.7434 O   0  0  0  0  0  0  0  0  0  0  0  0
  -32.5282   63.5992   63.4533 O   0  0  0  0  0  0  0  0  0  0  0  0
  -33.0752   63.4101   61.0965 O   0  0  0  0  0  0  0  0  0  0  0  0
  -32.9497   61.4254   62.4822 O   0  0  0  0  0  0  0  0  0  0  0  0
  -33.3522   62.8602   62.4514 S   0  0  0  0  0  0  0  0  0  0  0  0
  -32.7765   64.5368   63.4477 H   0  0  0  0  0  0  0  0  0  0  0  0
  -33.1269   61.0587   63.3625 H   0  0  0  0  0  0  0  0  0  0  0  0
  2  1  1  0  0  0
  2  4  1  0  0  0
  2  5  1  0  0  0
 41 42  1  0  0  0
 41  1  1  0  0  0
 42 46  1  0  0  0
  1 24  1  0  0  0
 23 24  1  0  0  0
 23 25  1  0  0  0
 24 26  1  0  0  0
  3  4  2  0  0  0
 26 27  2  0  0  0
 27 28  1  0  0  0
 43 47  1  0  0  0
 43 51  1  0  0  0
 28 29  1  0  0  0
 56 48  1  0  0  0
 56 60  1  0  0  0
 29 30  1  0  0  0
 57 60  1  0  0  0
 57 61  1  0  0  0
 30 31  1  0  0  0
 44 49  1  0  0  0
 44 52  1  0  0  0
 31 32  1  0  0  0
 45 46  1  0  0  0
 45 50  1  0  0  0
 32 33  1  0  0  0
 53 54  1  0  0  0
 53 55  1  0  0  0
 33 34  1  0  0  0
 34 35  1  0  0  0
 35 36  1  0  0  0
 58 60  1  0  0  0
 36 37  1  0  0  0
 59 60  1  0  0  0
 59 62  1  0  0  0
 37 38  1  0  0  0
 38 39  1  0  0  0
 39 40  1  0  0  0
  4  6  1  0  0  0
  6  7  1  0  0  0
  7  8  1  0  0  0
  8  9  1  0  0  0
  9 10  1  0  0  0
 10 11  1  0  0  0
 11 12  1  0  0  0
 12 13  1  0  0  0
 13 14  1  0  0  0
 14 15  1  0  0  0
 15 16  1  0  0  0
 16 17  1  0  0  0
 17 18  1  0  0  0
 18 19  1  0  0  0
 19 20  1  0  0  0
 20 21  1  0  0  0
 21 22  1  0  0  0
 46 47  1  0  0  0
 47 48  1  0  0  0
 48 49  1  0  0  0
 49 50  1  0  0  0
 50 54  1  0  0  0
M  CHG 1  58  -1
M  END
> <minimizedAffinity>
-9.59375

> <CNNscore>
0.1451872289

> <CNNaffinity>
7.1201667786

> <CNN_VS>
1.0337573290

> <CNNaffinity_variance>
1.9142417908

$$$$
