/media/chris/experiments/cd1a-new-docking/inputs/ligands/1onq_ligand.pdb


 62 62  0  0  0  0  0  0  0  0999 V2000
  -41.4846   59.6735   66.0584 C   0  0  0  0  0  0  0  0  0  0  0  0
  -42.1821   58.4030   66.0388 N   0  0  0  0  0  0  0  0  0  0  0  0
  -42.8177   56.4385   65.0982 O   0  0  0  0  0  0  0  0  0  0  0  0
  -42.2011   57.4857   65.0621 C   0  0  0  0  0  0  0  0  0  0  0  0
  -42.7073   58.1871   66.8430 H   0  0  0  0  0  0  0  0  0  0  0  0
  -41.3889   57.8292   63.8488 C   0  0  0  0  0  0  0  0  0  0  0  0
  -42.3866   58.1722   62.7425 C   0  0  0  0  0  0  0  0  0  0  0  0
  -41.6398   58.5886   61.4775 C   0  0  0  0  0  0  0  0  0  0  0  0
  -41.4533   57.5146   60.4333 C   0  0  0  0  0  0  0  0  0  0  0  0
  -40.7970   58.1621   59.2184 C   0  0  0  0  0  0  0  0  0  0  0  0
  -39.6844   59.1475   59.6003 C   0  0  0  0  0  0  0  0  0  0  0  0
  -38.2760   58.5267   59.6397 C   0  0  0  0  0  0  0  0  0  0  0  0
  -37.5299   58.8142   60.9612 C   0  0  0  0  0  0  0  0  0  0  0  0
  -37.5847   57.5965   61.8881 C   0  0  0  0  0  0  0  0  0  0  0  0
  -37.9270   57.9064   63.3404 C   0  0  0  0  0  0  0  0  0  0  0  0
  -36.7256   57.7549   64.2616 C   0  0  0  0  0  0  0  0  0  0  0  0
  -35.3603   57.6691   63.5754 C   0  0  0  0  0  0  0  0  0  0  0  0
  -34.3640   58.4774   64.3956 C   0  0  0  0  0  0  0  0  0  0  0  0
  -33.6512   59.6463   63.7319 C   0  0  0  0  0  0  0  0  0  0  0  0
  -32.7616   59.1630   62.5755 C   0  0  0  0  0  0  0  0  0  0  0  0
  -31.8859   60.2596   61.9420 C   0  0  0  0  0  0  0  0  0  0  0  0
  -30.4491   60.2588   62.4589 C   0  0  0  0  0  0  0  0  0  0  0  0
  -42.1678   61.8933   66.0232 O   0  0  0  0  0  0  0  0  0  0  0  0
  -42.5215   60.6291   65.4938 C   0  0  0  0  0  0  0  0  0  0  0  0
  -41.2802   62.1356   65.7161 H   0  0  0  0  0  0  0  0  0  0  0  0
  -43.9163   60.1861   65.9417 C   0  0  0  0  0  0  0  0  0  0  0  0
  -45.0048   60.2949   65.1609 C   0  0  0  0  0  0  0  0  0  0  0  0
  -46.3636   59.8305   65.6816 C   0  0  0  0  0  0  0  0  0  0  0  0
  -47.4795   59.8683   64.6273 C   0  0  0  0  0  0  0  0  0  0  0  0
  -48.3348   58.5927   64.5160 C   0  0  0  0  0  0  0  0  0  0  0  0
  -49.8202   58.8985   64.8250 C   0  0  0  0  0  0  0  0  0  0  0  0
  -50.4430   60.0541   64.0014 C   0  0  0  0  0  0  0  0  0  0  0  0
  -50.5491   59.7658   62.4853 C   0  0  0  0  0  0  0  0  0  0  0  0
  -51.0706   58.3491   62.1612 C   0  0  0  0  0  0  0  0  0  0  0  0
  -50.0771   57.4914   61.3685 C   0  0  0  0  0  0  0  0  0  0  0  0
  -48.9300   58.2421   60.6953 C   0  0  0  0  0  0  0  0  0  0  0  0
  -49.1692   58.5418   59.2023 C   0  0  0  0  0  0  0  0  0  0  0  0
  -47.9262   58.4360   58.3058 C   0  0  0  0  0  0  0  0  0  0  0  0
  -47.2508   57.0704   58.4611 C   0  0  0  0  0  0  0  0  0  0  0  0
  -47.4638   56.0793   57.3307 C   0  0  0  0  0  0  0  0  0  0  0  0
  -40.0905   59.6779   65.3910 C   0  0  0  0  0  0  0  0  0  0  0  0
  -39.6341   60.9444   64.8517 O   0  0  0  0  0  0  0  0  0  0  0  0
  -38.1365   61.4563   62.4700 O   0  0  0  0  0  0  0  0  0  0  0  0
  -36.3752   64.4048   64.8371 O   0  0  0  0  0  0  0  0  0  0  0  0
  -37.7608   61.9772   65.9959 O   0  0  0  0  0  0  0  0  0  0  0  0
  -38.1977   61.2824   64.8026 C   0  0  0  0  0  0  0  0  0  0  0  0
  -37.7472   62.1474   63.6167 C   0  0  0  0  0  0  0  0  0  0  0  0
  -36.2200   62.3685   63.5548 C   0  0  0  0  0  0  0  0  0  0  0  0
  -35.8464   63.0810   64.8252 C   0  0  0  0  0  0  0  0  0  0  0  0
  -36.3420   62.2903   66.0225 C   0  0  0  0  0  0  0  0  0  0  0  0
  -39.0949   61.3082   62.4915 H   0  0  0  0  0  0  0  0  0  0  0  0
  -36.0463   64.8912   64.0650 H   0  0  0  0  0  0  0  0  0  0  0  0
  -36.3707   62.6662   68.3828 O   0  0  0  0  0  0  0  0  0  0  0  0
  -35.8786   63.1734   67.1789 C   0  0  0  0  0  0  0  0  0  0  0  0
  -36.0751   63.2288   69.1156 H   0  0  0  0  0  0  0  0  0  0  0  0
  -35.7426   63.1997   62.4726 O   0  0  0  0  0  0  0  0  0  0  0  0
  -33.3080   63.0292   63.3445 O   0  0  0  0  0  0  0  0  0  0  0  0
  -34.2107   65.1965   62.7306 O   0  0  0  0  0  0  0  0  0  0  0  0
  -33.5758   63.6092   61.0125 O   0  0  0  0  0  0  0  0  0  0  0  0
  -34.1759   63.7534   62.3692 S   0  0  0  0  0  0  0  0  0  0  0  0
  -33.6834   63.1120   64.2350 H   0  0  0  0  0  0  0  0  0  0  0  0
  -33.5492   62.6707   60.7688 H   0  0  0  0  0  0  0  0  0  0  0  0
  2  1  1  0  0  0
  2  4  1  0  0  0
  2  5  1  0  0  0
 41 42  1  0  0  0
 41  1  1  0  0  0
 42 46  1  0  0  0
  1 24  1  0  0  0
 23 24  1  0  0  0
 23 25  1  0  0  0
 24 26  1  0  0  0
  3  4  2  0  0  0
 26 27  2  0  0  0
 27 28  1  0  0  0
 43 47  1  0  0  0
 43 51  1  0  0  0
 28 29  1  0  0  0
 56 48  1  0  0  0
 56 60  1  0  0  0
 29 30  1  0  0  0
 57 60  1  0  0  0
 57 61  1  0  0  0
 30 31  1  0  0  0
 44 49  1  0  0  0
 44 52  1  0  0  0
 31 32  1  0  0  0
 45 46  1  0  0  0
 45 50  1  0  0  0
 32 33  1  0  0  0
 53 54  1  0  0  0
 53 55  1  0  0  0
 33 34  1  0  0  0
 34 35  1  0  0  0
 35 36  1  0  0  0
 58 60  1  0  0  0
 36 37  1  0  0  0
 59 60  1  0  0  0
 59 62  1  0  0  0
 37 38  1  0  0  0
 38 39  1  0  0  0
 39 40  1  0  0  0
  4  6  1  0  0  0
  6  7  1  0  0  0
  7  8  1  0  0  0
  8  9  1  0  0  0
  9 10  1  0  0  0
 10 11  1  0  0  0
 11 12  1  0  0  0
 12 13  1  0  0  0
 13 14  1  0  0  0
 14 15  1  0  0  0
 15 16  1  0  0  0
 16 17  1  0  0  0
 17 18  1  0  0  0
 18 19  1  0  0  0
 19 20  1  0  0  0
 20 21  1  0  0  0
 21 22  1  0  0  0
 46 47  1  0  0  0
 47 48  1  0  0  0
 48 49  1  0  0  0
 49 50  1  0  0  0
 50 54  1  0  0  0
M  CHG 1  58  -1
M  END
> <minimizedAffinity>
-9.62531

> <CNNscore>
0.3085412979

> <CNNaffinity>
7.1357240677

> <CNN_VS>
2.2016656399

> <CNNaffinity_variance>
2.1459820271

$$$$
/media/chris/experiments/cd1a-new-docking/inputs/ligands/1onq_ligand.pdb


 62 62  0  0  0  0  0  0  0  0999 V2000
  -41.6444   60.5484   65.5689 C   0  0  0  0  0  0  0  0  0  0  0  0
  -42.3168   59.4849   66.2887 N   0  0  0  0  0  0  0  0  0  0  0  0
  -42.8804   57.3213   66.6745 O   0  0  0  0  0  0  0  0  0  0  0  0
  -42.2827   58.1687   66.0398 C   0  0  0  0  0  0  0  0  0  0  0  0
  -42.8670   59.7645   67.0557 H   0  0  0  0  0  0  0  0  0  0  0  0
  -41.4332   57.7621   64.8725 C   0  0  0  0  0  0  0  0  0  0  0  0
  -42.0163   56.4497   64.3485 C   0  0  0  0  0  0  0  0  0  0  0  0
  -41.4714   56.1575   62.9525 C   0  0  0  0  0  0  0  0  0  0  0  0
  -41.6652   57.2450   61.9237 C   0  0  0  0  0  0  0  0  0  0  0  0
  -41.2882   56.6657   60.5642 C   0  0  0  0  0  0  0  0  0  0  0  0
  -40.9156   57.7474   59.5415 C   0  0  0  0  0  0  0  0  0  0  0  0
  -40.8205   59.1673   60.1293 C   0  0  0  0  0  0  0  0  0  0  0  0
  -39.4287   59.8071   59.9313 C   0  0  0  0  0  0  0  0  0  0  0  0
  -38.3770   58.7328   59.6401 C   0  0  0  0  0  0  0  0  0  0  0  0
  -37.3650   58.5018   60.7557 C   0  0  0  0  0  0  0  0  0  0  0  0
  -37.8839   57.5421   61.8162 C   0  0  0  0  0  0  0  0  0  0  0  0
  -38.3619   58.1802   63.1226 C   0  0  0  0  0  0  0  0  0  0  0  0
  -37.3717   57.8155   64.2204 C   0  0  0  0  0  0  0  0  0  0  0  0
  -36.0732   58.6019   64.3220 C   0  0  0  0  0  0  0  0  0  0  0  0
  -34.8573   57.6855   64.1123 C   0  0  0  0  0  0  0  0  0  0  0  0
  -34.0030   58.0302   62.8786 C   0  0  0  0  0  0  0  0  0  0  0  0
  -32.5792   58.4560   63.2298 C   0  0  0  0  0  0  0  0  0  0  0  0
  -42.3920   62.0801   63.9907 O   0  0  0  0  0  0  0  0  0  0  0  0
  -42.5125   60.7120   64.3331 C   0  0  0  0  0  0  0  0  0  0  0  0
  -41.4660   62.2814   63.7839 H   0  0  0  0  0  0  0  0  0  0  0  0
  -43.9545   60.3270   64.6719 C   0  0  0  0  0  0  0  0  0  0  0  0
  -45.0138   61.0760   64.3208 C   0  0  0  0  0  0  0  0  0  0  0  0
  -46.4232   60.6235   64.6975 C   0  0  0  0  0  0  0  0  0  0  0  0
  -46.6236   59.1021   64.6411 C   0  0  0  0  0  0  0  0  0  0  0  0
  -47.8820   58.5688   65.3504 C   0  0  0  0  0  0  0  0  0  0  0  0
  -48.7333   59.7343   65.9092 C   0  0  0  0  0  0  0  0  0  0  0  0
  -50.2384   59.6893   65.5426 C   0  0  0  0  0  0  0  0  0  0  0  0
  -50.6189   60.5581   64.3207 C   0  0  0  0  0  0  0  0  0  0  0  0
  -51.4237   59.7945   63.2466 C   0  0  0  0  0  0  0  0  0  0  0  0
  -50.7201   58.5354   62.7265 C   0  0  0  0  0  0  0  0  0  0  0  0
  -49.4063   58.7600   61.9807 C   0  0  0  0  0  0  0  0  0  0  0  0
  -49.5713   59.4681   60.6216 C   0  0  0  0  0  0  0  0  0  0  0  0
  -49.6966   58.5349   59.4078 C   0  0  0  0  0  0  0  0  0  0  0  0
  -48.3391   58.3301   58.7292 C   0  0  0  0  0  0  0  0  0  0  0  0
  -47.5448   57.1107   59.1626 C   0  0  0  0  0  0  0  0  0  0  0  0
  -40.1299   60.3427   65.3392 C   0  0  0  0  0  0  0  0  0  0  0  0
  -39.4514   61.3512   64.5481 O   0  0  0  0  0  0  0  0  0  0  0  0
  -37.7538   61.6811   62.2706 O   0  0  0  0  0  0  0  0  0  0  0  0
  -35.7753   64.3552   64.7872 O   0  0  0  0  0  0  0  0  0  0  0  0
  -37.5349   62.1210   65.8207 O   0  0  0  0  0  0  0  0  0  0  0  0
  -37.9830   61.4986   64.5921 C   0  0  0  0  0  0  0  0  0  0  0  0
  -37.3504   62.3064   63.4498 C   0  0  0  0  0  0  0  0  0  0  0  0
  -35.8066   62.3261   63.4847 C   0  0  0  0  0  0  0  0  0  0  0  0
  -35.4236   62.9737   64.7867 C   0  0  0  0  0  0  0  0  0  0  0  0
  -36.0918   62.2454   65.9388 C   0  0  0  0  0  0  0  0  0  0  0  0
  -38.7229   61.6595   62.2313 H   0  0  0  0  0  0  0  0  0  0  0  0
  -35.3382   64.8003   64.0444 H   0  0  0  0  0  0  0  0  0  0  0  0
  -36.4889   64.0827   67.4154 O   0  0  0  0  0  0  0  0  0  0  0  0
  -35.5908   63.0514   67.1352 C   0  0  0  0  0  0  0  0  0  0  0  0
  -36.1684   64.5930   68.1755 H   0  0  0  0  0  0  0  0  0  0  0  0
  -35.1583   63.0961   62.4469 O   0  0  0  0  0  0  0  0  0  0  0  0
  -33.1589   63.6402   60.8903 O   0  0  0  0  0  0  0  0  0  0  0  0
  -32.9915   61.7901   62.4518 O   0  0  0  0  0  0  0  0  0  0  0  0
  -32.8350   64.0745   63.2467 O   0  0  0  0  0  0  0  0  0  0  0  0
  -33.5052   63.1743   62.2658 S   0  0  0  0  0  0  0  0  0  0  0  0
  -33.5870   63.0652   60.2369 H   0  0  0  0  0  0  0  0  0  0  0  0
  -33.1642   64.9796   63.1323 H   0  0  0  0  0  0  0  0  0  0  0  0
  2  1  1  0  0  0
  2  4  1  0  0  0
  2  5  1  0  0  0
 41 42  1  0  0  0
 41  1  1  0  0  0
 42 46  1  0  0  0
  1 24  1  0  0  0
 23 24  1  0  0  0
 23 25  1  0  0  0
 24 26  1  0  0  0
  3  4  2  0  0  0
 26 27  2  0  0  0
 27 28  1  0  0  0
 43 47  1  0  0  0
 43 51  1  0  0  0
 28 29  1  0  0  0
 56 48  1  0  0  0
 56 60  1  0  0  0
 29 30  1  0  0  0
 57 60  1  0  0  0
 57 61  1  0  0  0
 30 31  1  0  0  0
 44 49  1  0  0  0
 44 52  1  0  0  0
 31 32  1  0  0  0
 45 46  1  0  0  0
 45 50  1  0  0  0
 32 33  1  0  0  0
 53 54  1  0  0  0
 53 55  1  0  0  0
 33 34  1  0  0  0
 34 35  1  0  0  0
 35 36  1  0  0  0
 58 60  1  0  0  0
 36 37  1  0  0  0
 59 60  1  0  0  0
 59 62  1  0  0  0
 37 38  1  0  0  0
 38 39  1  0  0  0
 39 40  1  0  0  0
  4  6  1  0  0  0
  6  7  1  0  0  0
  7  8  1  0  0  0
  8  9  1  0  0  0
  9 10  1  0  0  0
 10 11  1  0  0  0
 11 12  1  0  0  0
 12 13  1  0  0  0
 13 14  1  0  0  0
 14 15  1  0  0  0
 15 16  1  0  0  0
 16 17  1  0  0  0
 17 18  1  0  0  0
 18 19  1  0  0  0
 19 20  1  0  0  0
 20 21  1  0  0  0
 21 22  1  0  0  0
 46 47  1  0  0  0
 47 48  1  0  0  0
 48 49  1  0  0  0
 49 50  1  0  0  0
 50 54  1  0  0  0
M  CHG 1  58  -1
M  END
> <minimizedAffinity>
-9.76332

> <CNNscore>
0.2508257926

> <CNNaffinity>
7.1033463478

> <CNN_VS>
1.7817025185

> <CNNaffinity_variance>
2.4301624298

$$$$
/media/chris/experiments/cd1a-new-docking/inputs/ligands/1onq_ligand.pdb


 62 62  0  0  0  0  0  0  0  0999 V2000
  -41.4305   59.9647   64.5876 C   0  0  0  0  0  0  0  0  0  0  0  0
  -41.3626   58.6262   64.0355 N   0  0  0  0  0  0  0  0  0  0  0  0
  -41.8390   56.4082   63.9972 O   0  0  0  0  0  0  0  0  0  0  0  0
  -41.9426   57.5107   64.4991 C   0  0  0  0  0  0  0  0  0  0  0  0
  -40.8232   58.5239   63.2183 H   0  0  0  0  0  0  0  0  0  0  0  0
  -42.7662   57.6885   65.7399 C   0  0  0  0  0  0  0  0  0  0  0  0
  -44.2153   57.4077   65.3422 C   0  0  0  0  0  0  0  0  0  0  0  0
  -45.1418   58.4353   65.9877 C   0  0  0  0  0  0  0  0  0  0  0  0
  -46.6034   58.3306   65.6257 C   0  0  0  0  0  0  0  0  0  0  0  0
  -46.8668   59.3079   64.4848 C   0  0  0  0  0  0  0  0  0  0  0  0
  -47.9617   60.3294   64.8200 C   0  0  0  0  0  0  0  0  0  0  0  0
  -48.9338   59.8749   65.9242 C   0  0  0  0  0  0  0  0  0  0  0  0
  -50.2128   59.2148   65.3638 C   0  0  0  0  0  0  0  0  0  0  0  0
  -51.0054   60.2103   64.5120 C   0  0  0  0  0  0  0  0  0  0  0  0
  -51.2773   59.7617   63.0812 C   0  0  0  0  0  0  0  0  0  0  0  0
  -50.6220   58.4265   62.7605 C   0  0  0  0  0  0  0  0  0  0  0  0
  -49.3591   58.4886   61.8983 C   0  0  0  0  0  0  0  0  0  0  0  0
  -49.7215   59.1382   60.5697 C   0  0  0  0  0  0  0  0  0  0  0  0
  -48.8088   58.9109   59.3737 C   0  0  0  0  0  0  0  0  0  0  0  0
  -49.1110   57.5632   58.6996 C   0  0  0  0  0  0  0  0  0  0  0  0
  -48.3791   57.3390   57.3637 C   0  0  0  0  0  0  0  0  0  0  0  0
  -47.0571   58.0966   57.2646 C   0  0  0  0  0  0  0  0  0  0  0  0
  -43.4959   60.5643   63.7099 O   0  0  0  0  0  0  0  0  0  0  0  0
  -42.1116   60.7465   63.4774 C   0  0  0  0  0  0  0  0  0  0  0  0
  -43.7293   60.9323   64.5765 H   0  0  0  0  0  0  0  0  0  0  0  0
  -41.6758   60.1857   62.1217 C   0  0  0  0  0  0  0  0  0  0  0  0
  -41.2567   60.9631   61.1085 C   0  0  0  0  0  0  0  0  0  0  0  0
  -40.8391   60.3266   59.7842 C   0  0  0  0  0  0  0  0  0  0  0  0
  -41.2207   58.8444   59.6592 C   0  0  0  0  0  0  0  0  0  0  0  0
  -40.0686   57.8874   59.3019 C   0  0  0  0  0  0  0  0  0  0  0  0
  -38.7201   58.6453   59.2524 C   0  0  0  0  0  0  0  0  0  0  0  0
  -37.8354   58.5050   60.5171 C   0  0  0  0  0  0  0  0  0  0  0  0
  -38.4101   57.5496   61.5893 C   0  0  0  0  0  0  0  0  0  0  0  0
  -37.8095   57.7662   62.9952 C   0  0  0  0  0  0  0  0  0  0  0  0
  -36.3166   58.1161   62.9820 C   0  0  0  0  0  0  0  0  0  0  0  0
  -35.5540   57.8534   64.2788 C   0  0  0  0  0  0  0  0  0  0  0  0
  -34.5662   58.9730   64.6618 C   0  0  0  0  0  0  0  0  0  0  0  0
  -33.1165   58.5180   64.8888 C   0  0  0  0  0  0  0  0  0  0  0  0
  -32.2271   58.9038   63.7033 C   0  0  0  0  0  0  0  0  0  0  0  0
  -32.8680   59.7672   62.6313 C   0  0  0  0  0  0  0  0  0  0  0  0
  -40.0973   60.5307   65.1270 C   0  0  0  0  0  0  0  0  0  0  0  0
  -39.2359   61.1895   64.1641 O   0  0  0  0  0  0  0  0  0  0  0  0
  -37.2285   61.6734   62.1857 O   0  0  0  0  0  0  0  0  0  0  0  0
  -35.7860   64.3361   65.0541 O   0  0  0  0  0  0  0  0  0  0  0  0
  -37.5744   61.9933   65.7385 O   0  0  0  0  0  0  0  0  0  0  0  0
  -37.8000   61.3974   64.4380 C   0  0  0  0  0  0  0  0  0  0  0  0
  -37.0397   62.2721   63.4307 C   0  0  0  0  0  0  0  0  0  0  0  0
  -35.5219   62.3560   63.7034 C   0  0  0  0  0  0  0  0  0  0  0  0
  -35.3731   62.9717   65.0673 C   0  0  0  0  0  0  0  0  0  0  0  0
  -36.1738   62.1745   66.0809 C   0  0  0  0  0  0  0  0  0  0  0  0
  -38.1781   61.6122   61.9971 H   0  0  0  0  0  0  0  0  0  0  0  0
  -35.2624   64.8260   64.4008 H   0  0  0  0  0  0  0  0  0  0  0  0
  -34.5344   63.2298   67.4637 O   0  0  0  0  0  0  0  0  0  0  0  0
  -35.8998   62.9571   67.3633 C   0  0  0  0  0  0  0  0  0  0  0  0
  -34.3630   63.7268   68.2788 H   0  0  0  0  0  0  0  0  0  0  0  0
  -34.7604   63.1899   62.8008 O   0  0  0  0  0  0  0  0  0  0  0  0
  -35.7415   63.8210   60.4865 O   0  0  0  0  0  0  0  0  0  0  0  0
  -34.4426   65.4564   61.7225 O   0  0  0  0  0  0  0  0  0  0  0  0
  -36.7092   64.9331   62.4031 O   0  0  0  0  0  0  0  0  0  0  0  0
  -35.4485   64.3666   61.8450 S   0  0  0  0  0  0  0  0  0  0  0  0
  -34.9311   63.4472   60.1066 H   0  0  0  0  0  0  0  0  0  0  0  0
  -37.3710   64.2288   62.4862 H   0  0  0  0  0  0  0  0  0  0  0  0
  2  1  1  0  0  0
  2  4  1  0  0  0
  2  5  1  0  0  0
 41 42  1  0  0  0
 41  1  1  0  0  0
 42 46  1  0  0  0
  1 24  1  0  0  0
 23 24  1  0  0  0
 23 25  1  0  0  0
 24 26  1  0  0  0
  3  4  2  0  0  0
 26 27  2  0  0  0
 27 28  1  0  0  0
 43 47  1  0  0  0
 43 51  1  0  0  0
 28 29  1  0  0  0
 56 48  1  0  0  0
 56 60  1  0  0  0
 29 30  1  0  0  0
 57 60  1  0  0  0
 57 61  1  0  0  0
 30 31  1  0  0  0
 44 49  1  0  0  0
 44 52  1  0  0  0
 31 32  1  0  0  0
 45 46  1  0  0  0
 45 50  1  0  0  0
 32 33  1  0  0  0
 53 54  1  0  0  0
 53 55  1  0  0  0
 33 34  1  0  0  0
 34 35  1  0  0  0
 35 36  1  0  0  0
 58 60  1  0  0  0
 36 37  1  0  0  0
 59 60  1  0  0  0
 59 62  1  0  0  0
 37 38  1  0  0  0
 38 39  1  0  0  0
 39 40  1  0  0  0
  4  6  1  0  0  0
  6  7  1  0  0  0
  7  8  1  0  0  0
  8  9  1  0  0  0
  9 10  1  0  0  0
 10 11  1  0  0  0
 11 12  1  0  0  0
 12 13  1  0  0  0
 13 14  1  0  0  0
 14 15  1  0  0  0
 15 16  1  0  0  0
 16 17  1  0  0  0
 17 18  1  0  0  0
 18 19  1  0  0  0
 19 20  1  0  0  0
 20 21  1  0  0  0
 21 22  1  0  0  0
 46 47  1  0  0  0
 47 48  1  0  0  0
 48 49  1  0  0  0
 49 50  1  0  0  0
 50 54  1  0  0  0
M  CHG 1  58  -1
M  END
> <minimizedAffinity>
-9.83932

> <CNNscore>
0.2311719358

> <CNNaffinity>
7.0998368263

> <CNN_VS>
1.6412830353

> <CNNaffinity_variance>
1.5323295593

$$$$
/media/chris/experiments/cd1a-new-docking/inputs/ligands/1onq_ligand.pdb


 62 62  0  0  0  0  0  0  0  0999 V2000
  -41.4789   59.6675   65.1360 C   0  0  0  0  0  0  0  0  0  0  0  0
  -42.5879   60.5946   65.2432 N   0  0  0  0  0  0  0  0  0  0  0  0
  -44.2904   61.8442   64.4137 O   0  0  0  0  0  0  0  0  0  0  0  0
  -43.3786   61.0541   64.2637 C   0  0  0  0  0  0  0  0  0  0  0  0
  -42.7848   60.9282   66.1483 H   0  0  0  0  0  0  0  0  0  0  0  0
  -43.0678   60.5283   62.8938 C   0  0  0  0  0  0  0  0  0  0  0  0
  -42.7220   61.7425   62.0318 C   0  0  0  0  0  0  0  0  0  0  0  0
  -41.5084   61.4335   61.1584 C   0  0  0  0  0  0  0  0  0  0  0  0
  -40.8900   60.0687   61.3409 C   0  0  0  0  0  0  0  0  0  0  0  0
  -41.0008   59.3309   60.0108 C   0  0  0  0  0  0  0  0  0  0  0  0
  -40.3773   57.9294   60.0564 C   0  0  0  0  0  0  0  0  0  0  0  0
  -39.4072   57.7070   61.2312 C   0  0  0  0  0  0  0  0  0  0  0  0
  -37.9708   58.1833   60.9221 C   0  0  0  0  0  0  0  0  0  0  0  0
  -37.0726   58.0233   62.1519 C   0  0  0  0  0  0  0  0  0  0  0  0
  -37.8122   57.8769   63.4762 C   0  0  0  0  0  0  0  0  0  0  0  0
  -36.9041   58.1135   64.6738 C   0  0  0  0  0  0  0  0  0  0  0  0
  -35.5134   57.4791   64.5973 C   0  0  0  0  0  0  0  0  0  0  0  0
  -34.4821   58.5982   64.5453 C   0  0  0  0  0  0  0  0  0  0  0  0
  -33.2628   58.4253   63.6517 C   0  0  0  0  0  0  0  0  0  0  0  0
  -32.6350   59.7856   63.3090 C   0  0  0  0  0  0  0  0  0  0  0  0
  -31.2544   59.6996   62.6327 C   0  0  0  0  0  0  0  0  0  0  0  0
  -31.1109   60.6317   61.4318 C   0  0  0  0  0  0  0  0  0  0  0  0
  -41.6079   57.3490   65.1949 O   0  0  0  0  0  0  0  0  0  0  0  0
  -41.9541   58.4858   65.9638 C   0  0  0  0  0  0  0  0  0  0  0  0
  -40.6453   57.3173   65.0798 H   0  0  0  0  0  0  0  0  0  0  0  0
  -43.4648   58.5954   66.1832 C   0  0  0  0  0  0  0  0  0  0  0  0
  -44.3293   57.6338   65.8168 C   0  0  0  0  0  0  0  0  0  0  0  0
  -45.8244   57.8189   66.0696 C   0  0  0  0  0  0  0  0  0  0  0  0
  -46.2968   59.2763   65.9650 C   0  0  0  0  0  0  0  0  0  0  0  0
  -47.5640   59.5073   65.1212 C   0  0  0  0  0  0  0  0  0  0  0  0
  -48.3896   58.2036   65.0016 C   0  0  0  0  0  0  0  0  0  0  0  0
  -49.9262   58.3828   65.0944 C   0  0  0  0  0  0  0  0  0  0  0  0
  -50.4258   59.7885   64.6856 C   0  0  0  0  0  0  0  0  0  0  0  0
  -50.9161   59.8685   63.2236 C   0  0  0  0  0  0  0  0  0  0  0  0
  -49.8411   60.3383   62.2363 C   0  0  0  0  0  0  0  0  0  0  0  0
  -49.6581   59.4816   60.9852 C   0  0  0  0  0  0  0  0  0  0  0  0
  -49.1225   58.0646   61.2699 C   0  0  0  0  0  0  0  0  0  0  0  0
  -48.5693   57.3158   60.0479 C   0  0  0  0  0  0  0  0  0  0  0  0
  -48.6564   58.1807   58.7872 C   0  0  0  0  0  0  0  0  0  0  0  0
  -47.4206   58.2155   57.9056 C   0  0  0  0  0  0  0  0  0  0  0  0
  -40.0889   60.2497   65.4792 C   0  0  0  0  0  0  0  0  0  0  0  0
  -39.4546   61.0590   64.4565 O   0  0  0  0  0  0  0  0  0  0  0  0
  -37.7068   61.4719   62.2312 O   0  0  0  0  0  0  0  0  0  0  0  0
  -36.2783   64.5924   64.6019 O   0  0  0  0  0  0  0  0  0  0  0  0
  -37.7418   62.2010   65.7399 O   0  0  0  0  0  0  0  0  0  0  0  0
  -38.0282   61.4290   64.5485 C   0  0  0  0  0  0  0  0  0  0  0  0
  -37.4623   62.2363   63.3713 C   0  0  0  0  0  0  0  0  0  0  0  0
  -35.9422   62.4911   63.4676 C   0  0  0  0  0  0  0  0  0  0  0  0
  -35.7277   63.2836   64.7275 C   0  0  0  0  0  0  0  0  0  0  0  0
  -36.3410   62.5500   65.9065 C   0  0  0  0  0  0  0  0  0  0  0  0
  -38.6587   61.3015   62.1541 H   0  0  0  0  0  0  0  0  0  0  0  0
  -35.8732   65.0423   63.8440 H   0  0  0  0  0  0  0  0  0  0  0  0
  -36.2281   62.8613   68.2737 O   0  0  0  0  0  0  0  0  0  0  0  0
  -36.0275   63.5086   67.0533 C   0  0  0  0  0  0  0  0  0  0  0  0
  -36.0284   63.4721   69.0003 H   0  0  0  0  0  0  0  0  0  0  0  0
  -35.3607   63.2712   62.3984 O   0  0  0  0  0  0  0  0  0  0  0  0
  -33.7165   65.2471   62.7295 O   0  0  0  0  0  0  0  0  0  0  0  0
  -33.2583   63.5809   61.0256 O   0  0  0  0  0  0  0  0  0  0  0  0
  -32.9086   63.0589   63.3665 O   0  0  0  0  0  0  0  0  0  0  0  0
  -33.7791   63.7915   62.4036 S   0  0  0  0  0  0  0  0  0  0  0  0
  -34.2781   65.7411   62.1120 H   0  0  0  0  0  0  0  0  0  0  0  0
  -33.2413   63.1909   64.2680 H   0  0  0  0  0  0  0  0  0  0  0  0
  2  1  1  0  0  0
  2  4  1  0  0  0
  2  5  1  0  0  0
 41 42  1  0  0  0
 41  1  1  0  0  0
 42 46  1  0  0  0
  1 24  1  0  0  0
 23 24  1  0  0  0
 23 25  1  0  0  0
 24 26  1  0  0  0
  3  4  2  0  0  0
 26 27  2  0  0  0
 27 28  1  0  0  0
 43 47  1  0  0  0
 43 51  1  0  0  0
 28 29  1  0  0  0
 56 48  1  0  0  0
 56 60  1  0  0  0
 29 30  1  0  0  0
 57 60  1  0  0  0
 57 61  1  0  0  0
 30 31  1  0  0  0
 44 49  1  0  0  0
 44 52  1  0  0  0
 31 32  1  0  0  0
 45 46  1  0  0  0
 45 50  1  0  0  0
 32 33  1  0  0  0
 53 54  1  0  0  0
 53 55  1  0  0  0
 33 34  1  0  0  0
 34 35  1  0  0  0
 35 36  1  0  0  0
 58 60  1  0  0  0
 36 37  1  0  0  0
 59 60  1  0  0  0
 59 62  1  0  0  0
 37 38  1  0  0  0
 38 39  1  0  0  0
 39 40  1  0  0  0
  4  6  1  0  0  0
  6  7  1  0  0  0
  7  8  1  0  0  0
  8  9  1  0  0  0
  9 10  1  0  0  0
 10 11  1  0  0  0
 11 12  1  0  0  0
 12 13  1  0  0  0
 13 14  1  0  0  0
 14 15  1  0  0  0
 15 16  1  0  0  0
 16 17  1  0  0  0
 17 18  1  0  0  0
 18 19  1  0  0  0
 19 20  1  0  0  0
 20 21  1  0  0  0
 21 22  1  0  0  0
 46 47  1  0  0  0
 47 48  1  0  0  0
 48 49  1  0  0  0
 49 50  1  0  0  0
 50 54  1  0  0  0
M  CHG 1  58  -1
M  END
> <minimizedAffinity>
-9.35905

> <CNNscore>
0.1995379627

> <CNNaffinity>
7.0819673538

> <CNN_VS>
1.4131213427

> <CNNaffinity_variance>
1.8707354069

$$$$
/media/chris/experiments/cd1a-new-docking/inputs/ligands/1onq_ligand.pdb


 62 62  0  0  0  0  0  0  0  0999 V2000
  -41.2193   60.1214   63.0124 C   0  0  0  0  0  0  0  0  0  0  0  0
  -40.9136   60.6164   61.6848 N   0  0  0  0  0  0  0  0  0  0  0  0
  -40.5596   60.3922   59.4550 O   0  0  0  0  0  0  0  0  0  0  0  0
  -40.8332   59.9213   60.5420 C   0  0  0  0  0  0  0  0  0  0  0  0
  -40.7441   61.5835   61.6139 H   0  0  0  0  0  0  0  0  0  0  0  0
  -41.1024   58.4513   60.6693 C   0  0  0  0  0  0  0  0  0  0  0  0
  -39.8147   57.7377   60.2576 C   0  0  0  0  0  0  0  0  0  0  0  0
  -38.9275   57.5160   61.4802 C   0  0  0  0  0  0  0  0  0  0  0  0
  -37.6225   58.2744   61.4991 C   0  0  0  0  0  0  0  0  0  0  0  0
  -37.0760   58.2158   62.9217 C   0  0  0  0  0  0  0  0  0  0  0  0
  -35.5499   58.3663   62.9773 C   0  0  0  0  0  0  0  0  0  0  0  0
  -34.9850   58.5607   64.3963 C   0  0  0  0  0  0  0  0  0  0  0  0
  -33.5499   59.1319   64.3983 C   0  0  0  0  0  0  0  0  0  0  0  0
  -32.8053   58.7254   63.1235 C   0  0  0  0  0  0  0  0  0  0  0  0
  -32.2670   59.8846   62.2936 C   0  0  0  0  0  0  0  0  0  0  0  0
  -30.7933   60.1512   62.5617 C   0  0  0  0  0  0  0  0  0  0  0  0
  -30.1638   61.2993   61.7694 C   0  0  0  0  0  0  0  0  0  0  0  0
  -29.6160   62.3172   62.7606 C   0  0  0  0  0  0  0  0  0  0  0  0
  -29.7683   63.7978   62.4448 C   0  0  0  0  0  0  0  0  0  0  0  0
  -30.8219   64.4487   63.3550 C   0  0  0  0  0  0  0  0  0  0  0  0
  -30.3984   64.5805   64.8294 C   0  0  0  0  0  0  0  0  0  0  0  0
  -31.5802   64.6397   65.7944 C   0  0  0  0  0  0  0  0  0  0  0  0
  -42.1951   61.8359   64.2387 O   0  0  0  0  0  0  0  0  0  0  0  0
  -42.5370   60.8088   63.3267 C   0  0  0  0  0  0  0  0  0  0  0  0
  -41.5822   62.4556   63.8129 H   0  0  0  0  0  0  0  0  0  0  0  0
  -43.5053   59.7935   63.9381 C   0  0  0  0  0  0  0  0  0  0  0  0
  -44.7253   60.1273   64.3926 C   0  0  0  0  0  0  0  0  0  0  0  0
  -45.6335   59.0547   64.9907 C   0  0  0  0  0  0  0  0  0  0  0  0
  -47.1028   59.1736   64.5605 C   0  0  0  0  0  0  0  0  0  0  0  0
  -47.6056   60.6046   64.2944 C   0  0  0  0  0  0  0  0  0  0  0  0
  -48.7843   60.5951   63.2914 C   0  0  0  0  0  0  0  0  0  0  0  0
  -50.1868   60.3973   63.9204 C   0  0  0  0  0  0  0  0  0  0  0  0
  -51.2209   59.7478   62.9709 C   0  0  0  0  0  0  0  0  0  0  0  0
  -50.8949   58.2816   62.6126 C   0  0  0  0  0  0  0  0  0  0  0  0
  -50.7565   58.0298   61.1065 C   0  0  0  0  0  0  0  0  0  0  0  0
  -49.6900   57.0190   60.6900 C   0  0  0  0  0  0  0  0  0  0  0  0
  -48.3669   57.6601   60.2273 C   0  0  0  0  0  0  0  0  0  0  0  0
  -48.4572   58.4908   58.9382 C   0  0  0  0  0  0  0  0  0  0  0  0
  -47.7360   57.7920   57.7820 C   0  0  0  0  0  0  0  0  0  0  0  0
  -47.1827   56.4076   58.0696 C   0  0  0  0  0  0  0  0  0  0  0  0
  -40.0870   60.2670   64.0543 C   0  0  0  0  0  0  0  0  0  0  0  0
  -39.3606   61.5222   64.0509 O   0  0  0  0  0  0  0  0  0  0  0  0
  -37.2690   61.7982   62.1204 O   0  0  0  0  0  0  0  0  0  0  0  0
  -35.6121   64.2723   65.0415 O   0  0  0  0  0  0  0  0  0  0  0  0
  -37.6578   62.1324   65.6675 O   0  0  0  0  0  0  0  0  0  0  0  0
  -37.9171   61.5721   64.3574 C   0  0  0  0  0  0  0  0  0  0  0  0
  -37.0446   62.3656   63.3742 C   0  0  0  0  0  0  0  0  0  0  0  0
  -35.5331   62.2834   63.6803 C   0  0  0  0  0  0  0  0  0  0  0  0
  -35.3493   62.8713   65.0521 C   0  0  0  0  0  0  0  0  0  0  0  0
  -36.2538   62.1592   66.0416 C   0  0  0  0  0  0  0  0  0  0  0  0
  -38.2151   61.8411   61.9108 H   0  0  0  0  0  0  0  0  0  0  0  0
  -35.0243   64.7067   64.4037 H   0  0  0  0  0  0  0  0  0  0  0  0
  -34.5458   63.0873   67.4324 O   0  0  0  0  0  0  0  0  0  0  0  0
  -35.9258   62.8999   67.3361 C   0  0  0  0  0  0  0  0  0  0  0  0
  -34.3400   63.5578   68.2553 H   0  0  0  0  0  0  0  0  0  0  0  0
  -34.6660   63.0355   62.8014 O   0  0  0  0  0  0  0  0  0  0  0  0
  -34.1489   65.2997   61.6510 O   0  0  0  0  0  0  0  0  0  0  0  0
  -36.3831   64.8680   62.4946 O   0  0  0  0  0  0  0  0  0  0  0  0
  -35.6218   63.7995   60.4566 O   0  0  0  0  0  0  0  0  0  0  0  0
  -35.2084   64.2602   61.8125 S   0  0  0  0  0  0  0  0  0  0  0  0
  -33.8667   65.6121   62.5249 H   0  0  0  0  0  0  0  0  0  0  0  0
  -34.8613   63.4016   60.0046 H   0  0  0  0  0  0  0  0  0  0  0  0
  2  1  1  0  0  0
  2  4  1  0  0  0
  2  5  1  0  0  0
 41 42  1  0  0  0
 41  1  1  0  0  0
 42 46  1  0  0  0
  1 24  1  0  0  0
 23 24  1  0  0  0
 23 25  1  0  0  0
 24 26  1  0  0  0
  3  4  2  0  0  0
 26 27  2  0  0  0
 27 28  1  0  0  0
 43 47  1  0  0  0
 43 51  1  0  0  0
 28 29  1  0  0  0
 56 48  1  0  0  0
 56 60  1  0  0  0
 29 30  1  0  0  0
 57 60  1  0  0  0
 57 61  1  0  0  0
 30 31  1  0  0  0
 44 49  1  0  0  0
 44 52  1  0  0  0
 31 32  1  0  0  0
 45 46  1  0  0  0
 45 50  1  0  0  0
 32 33  1  0  0  0
 53 54  1  0  0  0
 53 55  1  0  0  0
 33 34  1  0  0  0
 34 35  1  0  0  0
 35 36  1  0  0  0
 58 60  1  0  0  0
 36 37  1  0  0  0
 59 60  1  0  0  0
 59 62  1  0  0  0
 37 38  1  0  0  0
 38 39  1  0  0  0
 39 40  1  0  0  0
  4  6  1  0  0  0
  6  7  1  0  0  0
  7  8  1  0  0  0
  8  9  1  0  0  0
  9 10  1  0  0  0
 10 11  1  0  0  0
 11 12  1  0  0  0
 12 13  1  0  0  0
 13 14  1  0  0  0
 14 15  1  0  0  0
 15 16  1  0  0  0
 16 17  1  0  0  0
 17 18  1  0  0  0
 18 19  1  0  0  0
 19 20  1  0  0  0
 20 21  1  0  0  0
 21 22  1  0  0  0
 46 47  1  0  0  0
 47 48  1  0  0  0
 48 49  1  0  0  0
 49 50  1  0  0  0
 50 54  1  0  0  0
M  CHG 1  58  -1
M  END
> <minimizedAffinity>
-9.39179

> <CNNscore>
0.1480078399

> <CNNaffinity>
6.7602410316

> <CNN_VS>
1.0005686283

> <CNNaffinity_variance>
0.8571017981

$$$$
/media/chris/experiments/cd1a-new-docking/inputs/ligands/1onq_ligand.pdb


 62 62  0  0  0  0  0  0  0  0999 V2000
  -41.7022   60.4819   64.2940 C   0  0  0  0  0  0  0  0  0  0  0  0
  -42.0905   61.4306   63.2692 N   0  0  0  0  0  0  0  0  0  0  0  0
  -42.4068   62.1029   61.1255 O   0  0  0  0  0  0  0  0  0  0  0  0
  -42.0793   61.2618   61.9399 C   0  0  0  0  0  0  0  0  0  0  0  0
  -42.4010   62.3081   63.5897 H   0  0  0  0  0  0  0  0  0  0  0  0
  -41.6107   59.9161   61.4719 C   0  0  0  0  0  0  0  0  0  0  0  0
  -40.8921   60.1458   60.1423 C   0  0  0  0  0  0  0  0  0  0  0  0
  -40.8872   58.8576   59.3228 C   0  0  0  0  0  0  0  0  0  0  0  0
  -39.5302   58.3301   58.9241 C   0  0  0  0  0  0  0  0  0  0  0  0
  -38.4791   59.2155   59.5853 C   0  0  0  0  0  0  0  0  0  0  0  0
  -37.6622   58.4716   60.6503 C   0  0  0  0  0  0  0  0  0  0  0  0
  -38.5122   57.6729   61.6554 C   0  0  0  0  0  0  0  0  0  0  0  0
  -37.8969   57.6429   63.0717 C   0  0  0  0  0  0  0  0  0  0  0  0
  -36.4320   58.0874   63.0335 C   0  0  0  0  0  0  0  0  0  0  0  0
  -35.8970   58.6586   64.3411 C   0  0  0  0  0  0  0  0  0  0  0  0
  -34.4661   58.2222   64.6190 C   0  0  0  0  0  0  0  0  0  0  0  0
  -33.4569   59.3466   64.8627 C   0  0  0  0  0  0  0  0  0  0  0  0
  -32.9733   59.8531   63.5106 C   0  0  0  0  0  0  0  0  0  0  0  0
  -31.7491   59.2027   62.8834 C   0  0  0  0  0  0  0  0  0  0  0  0
  -30.6693   60.2507   62.5702 C   0  0  0  0  0  0  0  0  0  0  0  0
  -30.8021   60.9101   61.1852 C   0  0  0  0  0  0  0  0  0  0  0  0
  -31.2100   62.3801   61.2527 C   0  0  0  0  0  0  0  0  0  0  0  0
  -42.1065   60.2320   66.5677 O   0  0  0  0  0  0  0  0  0  0  0  0
  -42.7069   60.7589   65.3992 C   0  0  0  0  0  0  0  0  0  0  0  0
  -41.2738   60.6980   66.7416 H   0  0  0  0  0  0  0  0  0  0  0  0
  -44.0298   60.0645   65.0673 C   0  0  0  0  0  0  0  0  0  0  0  0
  -45.1399   60.7350   64.7142 C   0  0  0  0  0  0  0  0  0  0  0  0
  -46.4230   59.9685   64.3989 C   0  0  0  0  0  0  0  0  0  0  0  0
  -47.4747   60.0305   65.5161 C   0  0  0  0  0  0  0  0  0  0  0  0
  -48.4802   58.8648   65.5504 C   0  0  0  0  0  0  0  0  0  0  0  0
  -49.9328   59.3942   65.6224 C   0  0  0  0  0  0  0  0  0  0  0  0
  -50.3036   60.4561   64.5563 C   0  0  0  0  0  0  0  0  0  0  0  0
  -51.3884   59.9957   63.5543 C   0  0  0  0  0  0  0  0  0  0  0  0
  -50.8719   58.9876   62.5050 C   0  0  0  0  0  0  0  0  0  0  0  0
  -49.5378   59.3905   61.8655 C   0  0  0  0  0  0  0  0  0  0  0  0
  -49.5049   59.4135   60.3388 C   0  0  0  0  0  0  0  0  0  0  0  0
  -49.9656   58.0969   59.6829 C   0  0  0  0  0  0  0  0  0  0  0  0
  -49.2309   57.7181   58.3880 C   0  0  0  0  0  0  0  0  0  0  0  0
  -47.7753   58.1928   58.4227 C   0  0  0  0  0  0  0  0  0  0  0  0
  -47.0301   58.1824   57.0998 C   0  0  0  0  0  0  0  0  0  0  0  0
  -40.2072   60.4996   64.6856 C   0  0  0  0  0  0  0  0  0  0  0  0
  -39.3871   61.5231   64.0667 O   0  0  0  0  0  0  0  0  0  0  0  0
  -37.2910   61.7242   62.1318 O   0  0  0  0  0  0  0  0  0  0  0  0
  -35.7357   64.4582   64.8713 O   0  0  0  0  0  0  0  0  0  0  0  0
  -37.7167   62.3051   65.6426 O   0  0  0  0  0  0  0  0  0  0  0  0
  -37.9483   61.6420   64.3760 C   0  0  0  0  0  0  0  0  0  0  0  0
  -37.0942   62.3890   63.3415 C   0  0  0  0  0  0  0  0  0  0  0  0
  -35.5832   62.3784   63.6605 C   0  0  0  0  0  0  0  0  0  0  0  0
  -35.4285   63.0710   64.9863 C   0  0  0  0  0  0  0  0  0  0  0  0
  -36.3172   62.4045   66.0209 C   0  0  0  0  0  0  0  0  0  0  0  0
  -38.2365   61.7210   61.9148 H   0  0  0  0  0  0  0  0  0  0  0  0
  -35.1573   64.8634   64.2063 H   0  0  0  0  0  0  0  0  0  0  0  0
  -36.3337   62.5198   68.4083 O   0  0  0  0  0  0  0  0  0  0  0  0
  -36.0225   63.2485   67.2590 C   0  0  0  0  0  0  0  0  0  0  0  0
  -36.1457   63.0579   69.1932 H   0  0  0  0  0  0  0  0  0  0  0  0
  -34.7340   63.0916   62.7331 O   0  0  0  0  0  0  0  0  0  0  0  0
  -35.6828   63.7885   60.4242 O   0  0  0  0  0  0  0  0  0  0  0  0
  -34.1391   65.2627   61.5786 O   0  0  0  0  0  0  0  0  0  0  0  0
  -36.4364   65.0747   62.3279 O   0  0  0  0  0  0  0  0  0  0  0  0
  -35.2808   64.3254   61.7580 S   0  0  0  0  0  0  0  0  0  0  0  0
  -34.9419   63.2966   60.0370 H   0  0  0  0  0  0  0  0  0  0  0  0
  -37.1857   64.4707   62.4482 H   0  0  0  0  0  0  0  0  0  0  0  0
  2  1  1  0  0  0
  2  4  1  0  0  0
  2  5  1  0  0  0
 41 42  1  0  0  0
 41  1  1  0  0  0
 42 46  1  0  0  0
  1 24  1  0  0  0
 23 24  1  0  0  0
 23 25  1  0  0  0
 24 26  1  0  0  0
  3  4  2  0  0  0
 26 27  2  0  0  0
 27 28  1  0  0  0
 43 47  1  0  0  0
 43 51  1  0  0  0
 28 29  1  0  0  0
 56 48  1  0  0  0
 56 60  1  0  0  0
 29 30  1  0  0  0
 57 60  1  0  0  0
 57 61  1  0  0  0
 30 31  1  0  0  0
 44 49  1  0  0  0
 44 52  1  0  0  0
 31 32  1  0  0  0
 45 46  1  0  0  0
 45 50  1  0  0  0
 32 33  1  0  0  0
 53 54  1  0  0  0
 53 55  1  0  0  0
 33 34  1  0  0  0
 34 35  1  0  0  0
 35 36  1  0  0  0
 58 60  1  0  0  0
 36 37  1  0  0  0
 59 60  1  0  0  0
 59 62  1  0  0  0
 37 38  1  0  0  0
 38 39  1  0  0  0
 39 40  1  0  0  0
  4  6  1  0  0  0
  6  7  1  0  0  0
  7  8  1  0  0  0
  8  9  1  0  0  0
  9 10  1  0  0  0
 10 11  1  0  0  0
 11 12  1  0  0  0
 12 13  1  0  0  0
 13 14  1  0  0  0
 14 15  1  0  0  0
 15 16  1  0  0  0
 16 17  1  0  0  0
 17 18  1  0  0  0
 18 19  1  0  0  0
 19 20  1  0  0  0
 20 21  1  0  0  0
 21 22  1  0  0  0
 46 47  1  0  0  0
 47 48  1  0  0  0
 48 49  1  0  0  0
 49 50  1  0  0  0
 50 54  1  0  0  0
M  CHG 1  58  -1
M  END
> <minimizedAffinity>
-9.84844

> <CNNscore>
0.1403617859

> <CNNaffinity>
6.7103996277

> <CNN_VS>
0.9418836832

> <CNNaffinity_variance>
1.4431927204

$$$$
/media/chris/experiments/cd1a-new-docking/inputs/ligands/1onq_ligand.pdb


 62 62  0  0  0  0  0  0  0  0999 V2000
  -39.6062   60.3803   64.2384 C   0  0  0  0  0  0  0  0  0  0  0  0
  -40.8336   61.0689   64.5854 N   0  0  0  0  0  0  0  0  0  0  0  0
  -43.0644   61.1877   64.9821 O   0  0  0  0  0  0  0  0  0  0  0  0
  -42.0659   60.5547   64.6984 C   0  0  0  0  0  0  0  0  0  0  0  0
  -40.7518   62.0343   64.7596 H   0  0  0  0  0  0  0  0  0  0  0  0
  -42.1686   59.0814   64.4369 C   0  0  0  0  0  0  0  0  0  0  0  0
  -42.5565   58.4315   65.7652 C   0  0  0  0  0  0  0  0  0  0  0  0
  -43.8323   57.6110   65.5914 C   0  0  0  0  0  0  0  0  0  0  0  0
  -44.9853   58.3123   64.9152 C   0  0  0  0  0  0  0  0  0  0  0  0
  -46.0597   58.5551   65.9700 C   0  0  0  0  0  0  0  0  0  0  0  0
  -46.7578   59.9115   65.8040 C   0  0  0  0  0  0  0  0  0  0  0  0
  -47.4146   60.1201   64.4272 C   0  0  0  0  0  0  0  0  0  0  0  0
  -48.7205   60.9415   64.5032 C   0  0  0  0  0  0  0  0  0  0  0  0
  -49.8948   60.0513   64.9195 C   0  0  0  0  0  0  0  0  0  0  0  0
  -51.1852   60.2802   64.1418 C   0  0  0  0  0  0  0  0  0  0  0  0
  -51.1748   59.5846   62.7887 C   0  0  0  0  0  0  0  0  0  0  0  0
  -50.4880   58.2177   62.7420 C   0  0  0  0  0  0  0  0  0  0  0  0
  -49.2977   58.3154   61.7974 C   0  0  0  0  0  0  0  0  0  0  0  0
  -49.4058   59.2203   60.5790 C   0  0  0  0  0  0  0  0  0  0  0  0
  -49.4408   58.3954   59.2827 C   0  0  0  0  0  0  0  0  0  0  0  0
  -48.1112   58.3682   58.5068 C   0  0  0  0  0  0  0  0  0  0  0  0
  -47.3670   57.0406   58.6299 C   0  0  0  0  0  0  0  0  0  0  0  0
  -38.8862   61.2922   66.2499 O   0  0  0  0  0  0  0  0  0  0  0  0
  -39.0203   60.0426   65.5987 C   0  0  0  0  0  0  0  0  0  0  0  0
  -39.7604   61.7007   66.3489 H   0  0  0  0  0  0  0  0  0  0  0  0
  -37.6723   59.3428   65.4105 C   0  0  0  0  0  0  0  0  0  0  0  0
  -37.5562   58.0180   65.2161 C   0  0  0  0  0  0  0  0  0  0  0  0
  -36.1735   57.3940   65.0372 C   0  0  0  0  0  0  0  0  0  0  0  0
  -35.0894   58.3960   64.6142 C   0  0  0  0  0  0  0  0  0  0  0  0
  -35.1419   58.8541   63.1450 C   0  0  0  0  0  0  0  0  0  0  0  0
  -35.8465   57.7945   62.2640 C   0  0  0  0  0  0  0  0  0  0  0  0
  -37.2167   58.2240   61.6810 C   0  0  0  0  0  0  0  0  0  0  0  0
  -38.2922   57.1125   61.7061 C   0  0  0  0  0  0  0  0  0  0  0  0
  -39.6987   57.6227   62.0878 C   0  0  0  0  0  0  0  0  0  0  0  0
  -40.8223   57.0450   61.2189 C   0  0  0  0  0  0  0  0  0  0  0  0
  -41.4271   57.9933   60.1857 C   0  0  0  0  0  0  0  0  0  0  0  0
  -40.4198   58.9988   59.5939 C   0  0  0  0  0  0  0  0  0  0  0  0
  -40.7388   60.4780   59.8584 C   0  0  0  0  0  0  0  0  0  0  0  0
  -41.6260   60.6364   61.0965 C   0  0  0  0  0  0  0  0  0  0  0  0
  -42.3797   61.9483   61.2237 C   0  0  0  0  0  0  0  0  0  0  0  0
  -38.6851   61.1222   63.2434 C   0  0  0  0  0  0  0  0  0  0  0  0
  -37.9961   62.2943   63.7483 O   0  0  0  0  0  0  0  0  0  0  0  0
  -36.3347   63.3919   61.6959 O   0  0  0  0  0  0  0  0  0  0  0  0
  -34.1695   64.8446   64.9517 O   0  0  0  0  0  0  0  0  0  0  0  0
  -36.0158   62.4548   65.1403 O   0  0  0  0  0  0  0  0  0  0  0  0
  -36.5215   62.3580   63.7867 C   0  0  0  0  0  0  0  0  0  0  0  0
  -35.8745   63.5116   63.0066 C   0  0  0  0  0  0  0  0  0  0  0  0
  -34.3312   63.4577   62.9857 C   0  0  0  0  0  0  0  0  0  0  0  0
  -33.8877   63.5526   64.4194 C   0  0  0  0  0  0  0  0  0  0  0  0
  -34.5661   62.4704   65.2397 C   0  0  0  0  0  0  0  0  0  0  0  0
  -37.3042   63.4237   61.6894 H   0  0  0  0  0  0  0  0  0  0  0  0
  -33.7272   65.5196   64.4134 H   0  0  0  0  0  0  0  0  0  0  0  0
  -35.0047   63.2549   67.4545 O   0  0  0  0  0  0  0  0  0  0  0  0
  -33.9990   62.7471   66.6304 C   0  0  0  0  0  0  0  0  0  0  0  0
  -34.6421   63.4298   68.3370 H   0  0  0  0  0  0  0  0  0  0  0  0
  -33.6682   64.5362   62.2877 O   0  0  0  0  0  0  0  0  0  0  0  0
  -31.9787   62.9743   61.0948 O   0  0  0  0  0  0  0  0  0  0  0  0
  -31.1638   64.6803   62.6163 O   0  0  0  0  0  0  0  0  0  0  0  0
  -31.9642   65.2939   60.4123 O   0  0  0  0  0  0  0  0  0  0  0  0
  -32.1754   64.3766   61.5680 S   0  0  0  0  0  0  0  0  0  0  0  0
  -32.1124   62.3617   61.8348 H   0  0  0  0  0  0  0  0  0  0  0  0
  -32.6200   65.1026   59.7237 H   0  0  0  0  0  0  0  0  0  0  0  0
  2  1  1  0  0  0
  2  4  1  0  0  0
  2  5  1  0  0  0
 41 42  1  0  0  0
 41  1  1  0  0  0
 42 46  1  0  0  0
  1 24  1  0  0  0
 23 24  1  0  0  0
 23 25  1  0  0  0
 24 26  1  0  0  0
  3  4  2  0  0  0
 26 27  2  0  0  0
 27 28  1  0  0  0
 43 47  1  0  0  0
 43 51  1  0  0  0
 28 29  1  0  0  0
 56 48  1  0  0  0
 56 60  1  0  0  0
 29 30  1  0  0  0
 57 60  1  0  0  0
 57 61  1  0  0  0
 30 31  1  0  0  0
 44 49  1  0  0  0
 44 52  1  0  0  0
 31 32  1  0  0  0
 45 46  1  0  0  0
 45 50  1  0  0  0
 32 33  1  0  0  0
 53 54  1  0  0  0
 53 55  1  0  0  0
 33 34  1  0  0  0
 34 35  1  0  0  0
 35 36  1  0  0  0
 58 60  1  0  0  0
 36 37  1  0  0  0
 59 60  1  0  0  0
 59 62  1  0  0  0
 37 38  1  0  0  0
 38 39  1  0  0  0
 39 40  1  0  0  0
  4  6  1  0  0  0
  6  7  1  0  0  0
  7  8  1  0  0  0
  8  9  1  0  0  0
  9 10  1  0  0  0
 10 11  1  0  0  0
 11 12  1  0  0  0
 12 13  1  0  0  0
 13 14  1  0  0  0
 14 15  1  0  0  0
 15 16  1  0  0  0
 16 17  1  0  0  0
 17 18  1  0  0  0
 18 19  1  0  0  0
 19 20  1  0  0  0
 20 21  1  0  0  0
 21 22  1  0  0  0
 46 47  1  0  0  0
 47 48  1  0  0  0
 48 49  1  0  0  0
 49 50  1  0  0  0
 50 54  1  0  0  0
M  CHG 1  58  -1
M  END
> <minimizedAffinity>
-9.13836

> <CNNscore>
0.1384275556

> <CNNaffinity>
6.9979867935

> <CNN_VS>
0.9687141776

> <CNNaffinity_variance>
1.6252887249

$$$$
/media/chris/experiments/cd1a-new-docking/inputs/ligands/1onq_ligand.pdb


 62 62  0  0  0  0  0  0  0  0999 V2000
  -38.6305   60.8280   65.0109 C   0  0  0  0  0  0  0  0  0  0  0  0
  -39.4018   59.6165   65.2068 N   0  0  0  0  0  0  0  0  0  0  0  0
  -41.2237   58.4441   65.8806 O   0  0  0  0  0  0  0  0  0  0  0  0
  -40.6295   59.4939   65.7297 C   0  0  0  0  0  0  0  0  0  0  0  0
  -38.9699   58.7796   64.9201 H   0  0  0  0  0  0  0  0  0  0  0  0
  -41.2736   60.7806   66.1532 C   0  0  0  0  0  0  0  0  0  0  0  0
  -42.7833   60.5647   66.0475 C   0  0  0  0  0  0  0  0  0  0  0  0
  -43.3700   61.4936   64.9873 C   0  0  0  0  0  0  0  0  0  0  0  0
  -44.7303   61.1153   64.4533 C   0  0  0  0  0  0  0  0  0  0  0  0
  -44.8540   59.5978   64.5407 C   0  0  0  0  0  0  0  0  0  0  0  0
  -46.3118   59.1254   64.6202 C   0  0  0  0  0  0  0  0  0  0  0  0
  -47.3476   60.2092   64.2695 C   0  0  0  0  0  0  0  0  0  0  0  0
  -48.8043   59.7134   64.4035 C   0  0  0  0  0  0  0  0  0  0  0  0
  -49.7602   60.6329   63.6382 C   0  0  0  0  0  0  0  0  0  0  0  0
  -51.0015   59.9498   63.0772 C   0  0  0  0  0  0  0  0  0  0  0  0
  -50.7886   58.4601   62.8522 C   0  0  0  0  0  0  0  0  0  0  0  0
  -50.6146   58.0192   61.3970 C   0  0  0  0  0  0  0  0  0  0  0  0
  -49.1234   57.9237   61.1039 C   0  0  0  0  0  0  0  0  0  0  0  0
  -48.6590   57.9897   59.6565 C   0  0  0  0  0  0  0  0  0  0  0  0
  -47.8863   56.7191   59.2684 C   0  0  0  0  0  0  0  0  0  0  0  0
  -47.0330   56.8549   57.9939 C   0  0  0  0  0  0  0  0  0  0  0  0
  -47.1178   58.2390   57.3547 C   0  0  0  0  0  0  0  0  0  0  0  0
  -38.4128   62.2791   63.2101 O   0  0  0  0  0  0  0  0  0  0  0  0
  -38.4996   60.8961   63.4990 C   0  0  0  0  0  0  0  0  0  0  0  0
  -37.6240   62.6495   63.6360 H   0  0  0  0  0  0  0  0  0  0  0  0
  -39.7270   60.2482   62.8542 C   0  0  0  0  0  0  0  0  0  0  0  0
  -40.7421   60.9594   62.3345 C   0  0  0  0  0  0  0  0  0  0  0  0
  -41.9340   60.2377   61.7085 C   0  0  0  0  0  0  0  0  0  0  0  0
  -42.1521   58.8159   62.2461 C   0  0  0  0  0  0  0  0  0  0  0  0
  -41.7700   57.6744   61.2859 C   0  0  0  0  0  0  0  0  0  0  0  0
  -41.4732   58.2238   59.8697 C   0  0  0  0  0  0  0  0  0  0  0  0
  -40.0889   57.8403   59.2879 C   0  0  0  0  0  0  0  0  0  0  0  0
  -39.0355   58.9707   59.3620 C   0  0  0  0  0  0  0  0  0  0  0  0
  -37.8344   58.6366   60.2731 C   0  0  0  0  0  0  0  0  0  0  0  0
  -38.1405   57.5722   61.3334 C   0  0  0  0  0  0  0  0  0  0  0  0
  -37.2341   57.5689   62.5627 C   0  0  0  0  0  0  0  0  0  0  0  0
  -35.8780   58.2676   62.3422 C   0  0  0  0  0  0  0  0  0  0  0  0
  -34.7006   57.6763   63.1321 C   0  0  0  0  0  0  0  0  0  0  0  0
  -34.6727   58.2168   64.5647 C   0  0  0  0  0  0  0  0  0  0  0  0
  -33.3117   58.6086   65.1121 C   0  0  0  0  0  0  0  0  0  0  0  0
  -37.3250   60.9263   65.8324 C   0  0  0  0  0  0  0  0  0  0  0  0
  -37.0798   62.1839   66.5117 O   0  0  0  0  0  0  0  0  0  0  0  0
  -34.7338   63.2351   67.7642 O   0  0  0  0  0  0  0  0  0  0  0  0
  -33.2099   63.0364   63.8865 O   0  0  0  0  0  0  0  0  0  0  0  0
  -36.1738   63.1584   64.4832 O   0  0  0  0  0  0  0  0  0  0  0  0
  -36.1872   63.2065   65.9307 C   0  0  0  0  0  0  0  0  0  0  0  0
  -34.7177   63.1505   66.3726 C   0  0  0  0  0  0  0  0  0  0  0  0
  -33.8608   64.3132   65.8258 C   0  0  0  0  0  0  0  0  0  0  0  0
  -33.9057   64.2000   64.3270 C   0  0  0  0  0  0  0  0  0  0  0  0
  -35.3487   64.1773   63.8565 C   0  0  0  0  0  0  0  0  0  0  0  0
  -35.2685   62.5112   68.1260 H   0  0  0  0  0  0  0  0  0  0  0  0
  -32.2918   63.0716   64.1976 H   0  0  0  0  0  0  0  0  0  0  0  0
  -36.3434   63.5528   61.7747 O   0  0  0  0  0  0  0  0  0  0  0  0
  -35.1704   64.0501   62.3452 C   0  0  0  0  0  0  0  0  0  0  0  0
  -36.2276   63.4729   60.8150 H   0  0  0  0  0  0  0  0  0  0  0  0
  -32.4614   64.2949   66.1884 O   0  0  0  0  0  0  0  0  0  0  0  0
  -32.1201   66.7079   65.3064 O   0  0  0  0  0  0  0  0  0  0  0  0
  -30.6254   64.9424   64.5728 O   0  0  0  0  0  0  0  0  0  0  0  0
  -30.4224   65.8621   66.8061 O   0  0  0  0  0  0  0  0  0  0  0  0
  -31.3849   65.4808   65.7337 S   0  0  0  0  0  0  0  0  0  0  0  0
  -32.7524   66.4790   64.6074 H   0  0  0  0  0  0  0  0  0  0  0  0
  -30.9096   66.2144   67.5673 H   0  0  0  0  0  0  0  0  0  0  0  0
  2  1  1  0  0  0
  2  4  1  0  0  0
  2  5  1  0  0  0
 41 42  1  0  0  0
 41  1  1  0  0  0
 42 46  1  0  0  0
  1 24  1  0  0  0
 23 24  1  0  0  0
 23 25  1  0  0  0
 24 26  1  0  0  0
  3  4  2  0  0  0
 26 27  2  0  0  0
 27 28  1  0  0  0
 43 47  1  0  0  0
 43 51  1  0  0  0
 28 29  1  0  0  0
 56 48  1  0  0  0
 56 60  1  0  0  0
 29 30  1  0  0  0
 57 60  1  0  0  0
 57 61  1  0  0  0
 30 31  1  0  0  0
 44 49  1  0  0  0
 44 52  1  0  0  0
 31 32  1  0  0  0
 45 46  1  0  0  0
 45 50  1  0  0  0
 32 33  1  0  0  0
 53 54  1  0  0  0
 53 55  1  0  0  0
 33 34  1  0  0  0
 34 35  1  0  0  0
 35 36  1  0  0  0
 58 60  1  0  0  0
 36 37  1  0  0  0
 59 60  1  0  0  0
 59 62  1  0  0  0
 37 38  1  0  0  0
 38 39  1  0  0  0
 39 40  1  0  0  0
  4  6  1  0  0  0
  6  7  1  0  0  0
  7  8  1  0  0  0
  8  9  1  0  0  0
  9 10  1  0  0  0
 10 11  1  0  0  0
 11 12  1  0  0  0
 12 13  1  0  0  0
 13 14  1  0  0  0
 14 15  1  0  0  0
 15 16  1  0  0  0
 16 17  1  0  0  0
 17 18  1  0  0  0
 18 19  1  0  0  0
 19 20  1  0  0  0
 20 21  1  0  0  0
 21 22  1  0  0  0
 46 47  1  0  0  0
 47 48  1  0  0  0
 48 49  1  0  0  0
 49 50  1  0  0  0
 50 54  1  0  0  0
M  CHG 1  58  -1
M  END
> <minimizedAffinity>
-9.45636

> <CNNscore>
0.1384203583

> <CNNaffinity>
6.7993688583

> <CNN_VS>
0.9411710501

> <CNNaffinity_variance>
1.5608977079

$$$$
/media/chris/experiments/cd1a-new-docking/inputs/ligands/1onq_ligand.pdb


 62 62  0  0  0  0  0  0  0  0999 V2000
  -36.1907   59.3167   64.1603 C   0  0  0  0  0  0  0  0  0  0  0  0
  -36.9265   60.0333   65.1831 N   0  0  0  0  0  0  0  0  0  0  0  0
  -38.5149   61.4752   65.9219 O   0  0  0  0  0  0  0  0  0  0  0  0
  -37.9421   60.8925   65.0217 C   0  0  0  0  0  0  0  0  0  0  0  0
  -36.6451   59.8683   66.1120 H   0  0  0  0  0  0  0  0  0  0  0  0
  -38.3611   61.1246   63.6003 C   0  0  0  0  0  0  0  0  0  0  0  0
  -39.7026   60.4135   63.4224 C   0  0  0  0  0  0  0  0  0  0  0  0
  -40.4676   61.0280   62.2526 C   0  0  0  0  0  0  0  0  0  0  0  0
  -41.8997   60.5803   62.0881 C   0  0  0  0  0  0  0  0  0  0  0  0
  -42.7945   61.7778   62.3904 C   0  0  0  0  0  0  0  0  0  0  0  0
  -43.2535   61.8204   63.8541 C   0  0  0  0  0  0  0  0  0  0  0  0
  -44.7673   61.6173   64.0482 C   0  0  0  0  0  0  0  0  0  0  0  0
  -45.1014   60.3815   64.9124 C   0  0  0  0  0  0  0  0  0  0  0  0
  -46.5069   59.8639   64.5938 C   0  0  0  0  0  0  0  0  0  0  0  0
  -47.3712   59.5542   65.8101 C   0  0  0  0  0  0  0  0  0  0  0  0
  -48.6635   60.3574   65.8194 C   0  0  0  0  0  0  0  0  0  0  0  0
  -49.9443   59.5649   66.0908 C   0  0  0  0  0  0  0  0  0  0  0  0
  -50.5044   59.0942   64.7554 C   0  0  0  0  0  0  0  0  0  0  0  0
  -51.0794   60.1294   63.8000 C   0  0  0  0  0  0  0  0  0  0  0  0
  -50.5059   59.9507   62.3854 C   0  0  0  0  0  0  0  0  0  0  0  0
  -49.3205   58.9721   62.2957 C   0  0  0  0  0  0  0  0  0  0  0  0
  -49.6534   57.6878   61.5397 C   0  0  0  0  0  0  0  0  0  0  0  0
  -35.9918   57.0541   64.6469 O   0  0  0  0  0  0  0  0  0  0  0  0
  -36.9139   57.9819   64.1062 C   0  0  0  0  0  0  0  0  0  0  0  0
  -35.7918   57.2946   65.5651 H   0  0  0  0  0  0  0  0  0  0  0  0
  -37.2731   57.6585   62.6541 C   0  0  0  0  0  0  0  0  0  0  0  0
  -37.2257   58.5703   61.6678 C   0  0  0  0  0  0  0  0  0  0  0  0
  -37.6009   58.1689   60.2425 C   0  0  0  0  0  0  0  0  0  0  0  0
  -38.5351   59.1658   59.5415 C   0  0  0  0  0  0  0  0  0  0  0  0
  -39.6429   58.5428   58.6720 C   0  0  0  0  0  0  0  0  0  0  0  0
  -40.9581   58.4021   59.4756 C   0  0  0  0  0  0  0  0  0  0  0  0
  -41.1411   57.0518   60.2140 C   0  0  0  0  0  0  0  0  0  0  0  0
  -40.9472   57.1365   61.7463 C   0  0  0  0  0  0  0  0  0  0  0  0
  -41.0727   55.7734   62.4608 C   0  0  0  0  0  0  0  0  0  0  0  0
  -41.9074   55.8241   63.7461 C   0  0  0  0  0  0  0  0  0  0  0  0
  -42.6871   57.1146   63.9897 C   0  0  0  0  0  0  0  0  0  0  0  0
  -43.3507   57.1921   65.3788 C   0  0  0  0  0  0  0  0  0  0  0  0
  -42.5378   57.9307   66.4528 C   0  0  0  0  0  0  0  0  0  0  0  0
  -41.7528   59.0960   65.8437 C   0  0  0  0  0  0  0  0  0  0  0  0
  -41.6125   60.3388   66.7047 C   0  0  0  0  0  0  0  0  0  0  0  0
  -34.6572   59.2756   64.3488 C   0  0  0  0  0  0  0  0  0  0  0  0
  -33.9048   60.3790   63.7834 O   0  0  0  0  0  0  0  0  0  0  0  0
  -33.7811   62.8279   62.3120 O   0  0  0  0  0  0  0  0  0  0  0  0
  -36.6928   64.0135   65.0533 O   0  0  0  0  0  0  0  0  0  0  0  0
  -34.7500   61.7572   65.5921 O   0  0  0  0  0  0  0  0  0  0  0  0
  -33.9724   61.7320   64.3706 C   0  0  0  0  0  0  0  0  0  0  0  0
  -34.5565   62.8307   63.4708 C   0  0  0  0  0  0  0  0  0  0  0  0
  -34.4923   64.2423   64.0940 C   0  0  0  0  0  0  0  0  0  0  0  0
  -35.3098   64.1829   65.3547 C   0  0  0  0  0  0  0  0  0  0  0  0
  -34.8077   63.0567   66.2401 C   0  0  0  0  0  0  0  0  0  0  0  0
  -33.8096   61.9473   61.9060 H   0  0  0  0  0  0  0  0  0  0  0  0
  -36.9921   64.7426   64.4879 H   0  0  0  0  0  0  0  0  0  0  0  0
  -36.0859   64.5023   67.6507 O   0  0  0  0  0  0  0  0  0  0  0  0
  -35.7583   63.1633   67.4305 C   0  0  0  0  0  0  0  0  0  0  0  0
  -36.6896   64.5673   68.4072 H   0  0  0  0  0  0  0  0  0  0  0  0
  -35.0543   65.3121   63.3006 O   0  0  0  0  0  0  0  0  0  0  0  0
  -33.3150   67.2335   63.2869 O   0  0  0  0  0  0  0  0  0  0  0  0
  -35.0807   67.2051   61.6224 O   0  0  0  0  0  0  0  0  0  0  0  0
  -33.2093   65.6755   61.4408 O   0  0  0  0  0  0  0  0  0  0  0  0
  -34.1302   66.3585   62.3933 S   0  0  0  0  0  0  0  0  0  0  0  0
  -33.8984   67.6871   63.9151 H   0  0  0  0  0  0  0  0  0  0  0  0
  -32.5858   65.1210   61.9354 H   0  0  0  0  0  0  0  0  0  0  0  0
  2  1  1  0  0  0
  2  4  1  0  0  0
  2  5  1  0  0  0
 41 42  1  0  0  0
 41  1  1  0  0  0
 42 46  1  0  0  0
  1 24  1  0  0  0
 23 24  1  0  0  0
 23 25  1  0  0  0
 24 26  1  0  0  0
  3  4  2  0  0  0
 26 27  2  0  0  0
 27 28  1  0  0  0
 43 47  1  0  0  0
 43 51  1  0  0  0
 28 29  1  0  0  0
 56 48  1  0  0  0
 56 60  1  0  0  0
 29 30  1  0  0  0
 57 60  1  0  0  0
 57 61  1  0  0  0
 30 31  1  0  0  0
 44 49  1  0  0  0
 44 52  1  0  0  0
 31 32  1  0  0  0
 45 46  1  0  0  0
 45 50  1  0  0  0
 32 33  1  0  0  0
 53 54  1  0  0  0
 53 55  1  0  0  0
 33 34  1  0  0  0
 34 35  1  0  0  0
 35 36  1  0  0  0
 58 60  1  0  0  0
 36 37  1  0  0  0
 59 60  1  0  0  0
 59 62  1  0  0  0
 37 38  1  0  0  0
 38 39  1  0  0  0
 39 40  1  0  0  0
  4  6  1  0  0  0
  6  7  1  0  0  0
  7  8  1  0  0  0
  8  9  1  0  0  0
  9 10  1  0  0  0
 10 11  1  0  0  0
 11 12  1  0  0  0
 12 13  1  0  0  0
 13 14  1  0  0  0
 14 15  1  0  0  0
 15 16  1  0  0  0
 16 17  1  0  0  0
 17 18  1  0  0  0
 18 19  1  0  0  0
 19 20  1  0  0  0
 20 21  1  0  0  0
 21 22  1  0  0  0
 46 47  1  0  0  0
 47 48  1  0  0  0
 48 49  1  0  0  0
 49 50  1  0  0  0
 50 54  1  0  0  0
M  CHG 1  58  -1
M  END
> <minimizedAffinity>
-8.75786

> <CNNscore>
0.1363773048

> <CNNaffinity>
6.8836312294

> <CNN_VS>
0.9387710690

> <CNNaffinity_variance>
2.2918138504

$$$$
