/media/chris/experiments/cd1a-new-docking/inputs/ligands/1onq_ligand.pdb


 62 62  0  0  0  0  0  0  0  0999 V2000
  -41.2861   59.4964   65.1148 C   0  0  0  0  0  0  0  0  0  0  0  0
  -41.2556   58.5378   64.0280 N   0  0  0  0  0  0  0  0  0  0  0  0
  -42.0775   56.6699   65.0194 O   0  0  0  0  0  0  0  0  0  0  0  0
  -41.6337   57.2523   64.0490 C   0  0  0  0  0  0  0  0  0  0  0  0
  -40.9146   58.8727   63.1673 H   0  0  0  0  0  0  0  0  0  0  0  0
  -41.4854   56.5227   62.7470 C   0  0  0  0  0  0  0  0  0  0  0  0
  -42.1054   57.4190   61.6750 C   0  0  0  0  0  0  0  0  0  0  0  0
  -41.4111   57.1864   60.3352 C   0  0  0  0  0  0  0  0  0  0  0  0
  -41.1562   58.4161   59.4978 C   0  0  0  0  0  0  0  0  0  0  0  0
  -39.7424   58.3063   58.9365 C   0  0  0  0  0  0  0  0  0  0  0  0
  -38.7446   59.2210   59.6595 C   0  0  0  0  0  0  0  0  0  0  0  0
  -37.6527   58.4706   60.4438 C   0  0  0  0  0  0  0  0  0  0  0  0
  -38.2295   57.5161   61.5123 C   0  0  0  0  0  0  0  0  0  0  0  0
  -37.8291   57.9737   62.9178 C   0  0  0  0  0  0  0  0  0  0  0  0
  -36.3318   58.1555   63.1348 C   0  0  0  0  0  0  0  0  0  0  0  0
  -35.9667   58.2267   64.6100 C   0  0  0  0  0  0  0  0  0  0  0  0
  -34.4889   58.0142   64.9467 C   0  0  0  0  0  0  0  0  0  0  0  0
  -33.6910   59.1528   64.3257 C   0  0  0  0  0  0  0  0  0  0  0  0
  -32.3074   58.8540   63.7675 C   0  0  0  0  0  0  0  0  0  0  0  0
  -32.0481   59.6559   62.4824 C   0  0  0  0  0  0  0  0  0  0  0  0
  -30.6352   60.2598   62.3807 C   0  0  0  0  0  0  0  0  0  0  0  0
  -30.4660   61.2040   61.1928 C   0  0  0  0  0  0  0  0  0  0  0  0
  -42.0320   61.6933   65.2295 O   0  0  0  0  0  0  0  0  0  0  0  0
  -42.4039   60.4360   64.6961 C   0  0  0  0  0  0  0  0  0  0  0  0
  -41.1894   61.9735   64.8394 H   0  0  0  0  0  0  0  0  0  0  0  0
  -43.7302   59.9345   65.2724 C   0  0  0  0  0  0  0  0  0  0  0  0
  -44.9089   60.5290   65.0208 C   0  0  0  0  0  0  0  0  0  0  0  0
  -46.1899   59.9678   65.6350 C   0  0  0  0  0  0  0  0  0  0  0  0
  -47.1183   59.2845   64.6204 C   0  0  0  0  0  0  0  0  0  0  0  0
  -48.3752   58.6184   65.2103 C   0  0  0  0  0  0  0  0  0  0  0  0
  -49.2098   59.6402   66.0196 C   0  0  0  0  0  0  0  0  0  0  0  0
  -50.6689   59.8344   65.5350 C   0  0  0  0  0  0  0  0  0  0  0  0
  -50.7908   60.3313   64.0753 C   0  0  0  0  0  0  0  0  0  0  0  0
  -51.2771   59.2450   63.0917 C   0  0  0  0  0  0  0  0  0  0  0  0
  -50.2727   58.9258   61.9779 C   0  0  0  0  0  0  0  0  0  0  0  0
  -50.6911   57.8415   60.9870 C   0  0  0  0  0  0  0  0  0  0  0  0
  -50.2423   58.1115   59.5374 C   0  0  0  0  0  0  0  0  0  0  0  0
  -48.8450   58.7326   59.3895 C   0  0  0  0  0  0  0  0  0  0  0  0
  -48.0105   57.9693   58.3570 C   0  0  0  0  0  0  0  0  0  0  0  0
  -47.4748   56.6158   58.7892 C   0  0  0  0  0  0  0  0  0  0  0  0
  -39.9273   60.1399   65.4733 C   0  0  0  0  0  0  0  0  0  0  0  0
  -39.3189   60.9779   64.4579 O   0  0  0  0  0  0  0  0  0  0  0  0
  -37.5716   61.5049   62.2565 O   0  0  0  0  0  0  0  0  0  0  0  0
  -36.3258   64.6640   64.6786 O   0  0  0  0  0  0  0  0  0  0  0  0
  -37.6787   62.1886   65.7729 O   0  0  0  0  0  0  0  0  0  0  0  0
  -37.9140   61.4178   64.5695 C   0  0  0  0  0  0  0  0  0  0  0  0
  -37.3773   62.2667   63.4080 C   0  0  0  0  0  0  0  0  0  0  0  0
  -35.8729   62.5962   63.5236 C   0  0  0  0  0  0  0  0  0  0  0  0
  -35.7113   63.3829   64.7949 C   0  0  0  0  0  0  0  0  0  0  0  0
  -36.2990   62.6052   65.9586 C   0  0  0  0  0  0  0  0  0  0  0  0
  -38.5128   61.2879   62.1672 H   0  0  0  0  0  0  0  0  0  0  0  0
  -35.9360   65.1427   63.9305 H   0  0  0  0  0  0  0  0  0  0  0  0
  -36.2133   62.8896   68.3304 O   0  0  0  0  0  0  0  0  0  0  0  0
  -36.0458   63.5642   67.1198 C   0  0  0  0  0  0  0  0  0  0  0  0
  -36.0520   63.5008   69.0662 H   0  0  0  0  0  0  0  0  0  0  0  0
  -35.3205   63.4174   62.4699 O   0  0  0  0  0  0  0  0  0  0  0  0
  -32.9103   62.8796   63.2565 O   0  0  0  0  0  0  0  0  0  0  0  0
  -33.5073   65.1660   62.7046 O   0  0  0  0  0  0  0  0  0  0  0  0
  -33.1641   63.5367   60.9436 O   0  0  0  0  0  0  0  0  0  0  0  0
  -33.6939   63.7402   62.3216 S   0  0  0  0  0  0  0  0  0  0  0  0
  -33.2416   62.9988   64.1603 H   0  0  0  0  0  0  0  0  0  0  0  0
  -33.2818   62.6090   60.6856 H   0  0  0  0  0  0  0  0  0  0  0  0
  2  1  1  0  0  0
  2  4  1  0  0  0
  2  5  1  0  0  0
 41 42  1  0  0  0
 41  1  1  0  0  0
 42 46  1  0  0  0
  1 24  1  0  0  0
 23 24  1  0  0  0
 23 25  1  0  0  0
 24 26  1  0  0  0
  3  4  2  0  0  0
 26 27  2  0  0  0
 27 28  1  0  0  0
 43 47  1  0  0  0
 43 51  1  0  0  0
 28 29  1  0  0  0
 56 48  1  0  0  0
 56 60  1  0  0  0
 29 30  1  0  0  0
 57 60  1  0  0  0
 57 61  1  0  0  0
 30 31  1  0  0  0
 44 49  1  0  0  0
 44 52  1  0  0  0
 31 32  1  0  0  0
 45 46  1  0  0  0
 45 50  1  0  0  0
 32 33  1  0  0  0
 53 54  1  0  0  0
 53 55  1  0  0  0
 33 34  1  0  0  0
 34 35  1  0  0  0
 35 36  1  0  0  0
 58 60  1  0  0  0
 36 37  1  0  0  0
 59 60  1  0  0  0
 59 62  1  0  0  0
 37 38  1  0  0  0
 38 39  1  0  0  0
 39 40  1  0  0  0
  4  6  1  0  0  0
  6  7  1  0  0  0
  7  8  1  0  0  0
  8  9  1  0  0  0
  9 10  1  0  0  0
 10 11  1  0  0  0
 11 12  1  0  0  0
 12 13  1  0  0  0
 13 14  1  0  0  0
 14 15  1  0  0  0
 15 16  1  0  0  0
 16 17  1  0  0  0
 17 18  1  0  0  0
 18 19  1  0  0  0
 19 20  1  0  0  0
 20 21  1  0  0  0
 21 22  1  0  0  0
 46 47  1  0  0  0
 47 48  1  0  0  0
 48 49  1  0  0  0
 49 50  1  0  0  0
 50 54  1  0  0  0
M  CHG 1  58  -1
M  END
> <minimizedAffinity>
-9.82992

> <CNNscore>
0.3688204288

> <CNNaffinity>
7.0633492470

> <CNN_VS>
2.6051075459

> <CNNaffinity_variance>
1.9377527237

$$$$
/media/chris/experiments/cd1a-new-docking/inputs/ligands/1onq_ligand.pdb


 62 62  0  0  0  0  0  0  0  0999 V2000
  -41.5251   60.0377   65.1027 C   0  0  0  0  0  0  0  0  0  0  0  0
  -41.5097   58.6448   64.7020 N   0  0  0  0  0  0  0  0  0  0  0  0
  -42.4922   57.6294   66.4772 O   0  0  0  0  0  0  0  0  0  0  0  0
  -41.9704   57.5847   65.3801 C   0  0  0  0  0  0  0  0  0  0  0  0
  -41.1112   58.4536   63.8223 H   0  0  0  0  0  0  0  0  0  0  0  0
  -41.8136   56.2653   64.6842 C   0  0  0  0  0  0  0  0  0  0  0  0
  -42.2577   56.4830   63.2377 C   0  0  0  0  0  0  0  0  0  0  0  0
  -41.2142   55.9124   62.2802 C   0  0  0  0  0  0  0  0  0  0  0  0
  -41.1589   56.5401   60.9086 C   0  0  0  0  0  0  0  0  0  0  0  0
  -41.6441   57.9799   61.0409 C   0  0  0  0  0  0  0  0  0  0  0  0
  -41.0750   58.8998   59.9524 C   0  0  0  0  0  0  0  0  0  0  0  0
  -40.1519   58.1907   58.9445 C   0  0  0  0  0  0  0  0  0  0  0  0
  -38.6764   58.6293   59.0702 C   0  0  0  0  0  0  0  0  0  0  0  0
  -38.3591   59.0514   60.5077 C   0  0  0  0  0  0  0  0  0  0  0  0
  -37.1909   58.3159   61.1530 C   0  0  0  0  0  0  0  0  0  0  0  0
  -37.6397   57.3908   62.2744 C   0  0  0  0  0  0  0  0  0  0  0  0
  -38.4177   58.0487   63.4163 C   0  0  0  0  0  0  0  0  0  0  0  0
  -37.5844   57.9372   64.6859 C   0  0  0  0  0  0  0  0  0  0  0  0
  -36.0938   57.6603   64.5578 C   0  0  0  0  0  0  0  0  0  0  0  0
  -35.2849   58.9656   64.6177 C   0  0  0  0  0  0  0  0  0  0  0  0
  -34.2747   59.1443   63.4693 C   0  0  0  0  0  0  0  0  0  0  0  0
  -33.9070   57.8330   62.7789 C   0  0  0  0  0  0  0  0  0  0  0  0
  -42.2150   62.0840   64.2467 O   0  0  0  0  0  0  0  0  0  0  0  0
  -42.3036   60.6972   63.9773 C   0  0  0  0  0  0  0  0  0  0  0  0
  -41.2852   62.3593   64.2228 H   0  0  0  0  0  0  0  0  0  0  0  0
  -43.7497   60.1965   64.0000 C   0  0  0  0  0  0  0  0  0  0  0  0
  -44.7350   60.8348   64.6542 C   0  0  0  0  0  0  0  0  0  0  0  0
  -46.1541   60.2701   64.6299 C   0  0  0  0  0  0  0  0  0  0  0  0
  -46.2973   58.9179   65.3436 C   0  0  0  0  0  0  0  0  0  0  0  0
  -47.7414   58.4586   65.6177 C   0  0  0  0  0  0  0  0  0  0  0  0
  -48.6889   59.6752   65.7500 C   0  0  0  0  0  0  0  0  0  0  0  0
  -50.1978   59.3589   65.5932 C   0  0  0  0  0  0  0  0  0  0  0  0
  -50.9390   60.2840   64.5994 C   0  0  0  0  0  0  0  0  0  0  0  0
  -51.2782   59.6021   63.2564 C   0  0  0  0  0  0  0  0  0  0  0  0
  -50.5009   58.3037   63.0090 C   0  0  0  0  0  0  0  0  0  0  0  0
  -49.7499   58.2131   61.6823 C   0  0  0  0  0  0  0  0  0  0  0  0
  -50.6578   57.9419   60.4665 C   0  0  0  0  0  0  0  0  0  0  0  0
  -49.9669   58.0424   59.0981 C   0  0  0  0  0  0  0  0  0  0  0  0
  -48.4529   58.2077   59.2573 C   0  0  0  0  0  0  0  0  0  0  0  0
  -47.6357   58.2096   57.9775 C   0  0  0  0  0  0  0  0  0  0  0  0
  -40.1474   60.6453   65.4515 C   0  0  0  0  0  0  0  0  0  0  0  0
  -39.4188   61.2674   64.3626 O   0  0  0  0  0  0  0  0  0  0  0  0
  -37.6323   61.7200   62.1761 O   0  0  0  0  0  0  0  0  0  0  0  0
  -36.1288   64.6818   64.6992 O   0  0  0  0  0  0  0  0  0  0  0  0
  -37.6841   62.2927   65.7136 O   0  0  0  0  0  0  0  0  0  0  0  0
  -37.9821   61.5848   64.4857 C   0  0  0  0  0  0  0  0  0  0  0  0
  -37.3759   62.4242   63.3519 C   0  0  0  0  0  0  0  0  0  0  0  0
  -35.8493   62.6231   63.4751 C   0  0  0  0  0  0  0  0  0  0  0  0
  -35.6234   63.3508   64.7715 C   0  0  0  0  0  0  0  0  0  0  0  0
  -36.2746   62.5865   65.9100 C   0  0  0  0  0  0  0  0  0  0  0  0
  -38.5883   61.5854   62.0817 H   0  0  0  0  0  0  0  0  0  0  0  0
  -35.7000   65.1510   63.9666 H   0  0  0  0  0  0  0  0  0  0  0  0
  -36.2162   62.8016   68.2899 O   0  0  0  0  0  0  0  0  0  0  0  0
  -35.9430   63.4818   67.1018 C   0  0  0  0  0  0  0  0  0  0  0  0
  -36.0049   63.3723   69.0453 H   0  0  0  0  0  0  0  0  0  0  0  0
  -35.2298   63.4301   62.4481 O   0  0  0  0  0  0  0  0  0  0  0  0
  -33.2887   63.9590   60.8142 O   0  0  0  0  0  0  0  0  0  0  0  0
  -33.0852   62.0915   62.3505 O   0  0  0  0  0  0  0  0  0  0  0  0
  -32.8603   64.3652   63.1588 O   0  0  0  0  0  0  0  0  0  0  0  0
  -33.5845   63.4850   62.1986 S   0  0  0  0  0  0  0  0  0  0  0  0
  -33.7525   63.3969   60.1740 H   0  0  0  0  0  0  0  0  0  0  0  0
  -33.1799   65.2765   63.0665 H   0  0  0  0  0  0  0  0  0  0  0  0
  2  1  1  0  0  0
  2  4  1  0  0  0
  2  5  1  0  0  0
 41 42  1  0  0  0
 41  1  1  0  0  0
 42 46  1  0  0  0
  1 24  1  0  0  0
 23 24  1  0  0  0
 23 25  1  0  0  0
 24 26  1  0  0  0
  3  4  2  0  0  0
 26 27  2  0  0  0
 27 28  1  0  0  0
 43 47  1  0  0  0
 43 51  1  0  0  0
 28 29  1  0  0  0
 56 48  1  0  0  0
 56 60  1  0  0  0
 29 30  1  0  0  0
 57 60  1  0  0  0
 57 61  1  0  0  0
 30 31  1  0  0  0
 44 49  1  0  0  0
 44 52  1  0  0  0
 31 32  1  0  0  0
 45 46  1  0  0  0
 45 50  1  0  0  0
 32 33  1  0  0  0
 53 54  1  0  0  0
 53 55  1  0  0  0
 33 34  1  0  0  0
 34 35  1  0  0  0
 35 36  1  0  0  0
 58 60  1  0  0  0
 36 37  1  0  0  0
 59 60  1  0  0  0
 59 62  1  0  0  0
 37 38  1  0  0  0
 38 39  1  0  0  0
 39 40  1  0  0  0
  4  6  1  0  0  0
  6  7  1  0  0  0
  7  8  1  0  0  0
  8  9  1  0  0  0
  9 10  1  0  0  0
 10 11  1  0  0  0
 11 12  1  0  0  0
 12 13  1  0  0  0
 13 14  1  0  0  0
 14 15  1  0  0  0
 15 16  1  0  0  0
 16 17  1  0  0  0
 17 18  1  0  0  0
 18 19  1  0  0  0
 19 20  1  0  0  0
 20 21  1  0  0  0
 21 22  1  0  0  0
 46 47  1  0  0  0
 47 48  1  0  0  0
 48 49  1  0  0  0
 49 50  1  0  0  0
 50 54  1  0  0  0
M  CHG 1  58  -1
M  END
> <minimizedAffinity>
-9.78193

> <CNNscore>
0.2891508639

> <CNNaffinity>
7.1839647293

> <CNN_VS>
2.0772495270

> <CNNaffinity_variance>
2.0698447227

$$$$
/media/chris/experiments/cd1a-new-docking/inputs/ligands/1onq_ligand.pdb


 62 62  0  0  0  0  0  0  0  0999 V2000
  -40.0848   60.4697   65.3148 C   0  0  0  0  0  0  0  0  0  0  0  0
  -40.8402   59.2903   65.6885 N   0  0  0  0  0  0  0  0  0  0  0  0
  -42.7573   60.1920   66.5003 O   0  0  0  0  0  0  0  0  0  0  0  0
  -42.0647   59.2304   66.2294 C   0  0  0  0  0  0  0  0  0  0  0  0
  -40.3986   58.4258   65.5245 H   0  0  0  0  0  0  0  0  0  0  0  0
  -42.5778   57.8460   66.4940 C   0  0  0  0  0  0  0  0  0  0  0  0
  -43.4160   57.4546   65.2770 C   0  0  0  0  0  0  0  0  0  0  0  0
  -44.9015   57.6014   65.5977 C   0  0  0  0  0  0  0  0  0  0  0  0
  -45.5558   58.8819   65.1386 C   0  0  0  0  0  0  0  0  0  0  0  0
  -46.3640   59.4318   66.3093 C   0  0  0  0  0  0  0  0  0  0  0  0
  -47.8333   59.6874   65.9474 C   0  0  0  0  0  0  0  0  0  0  0  0
  -48.0701   60.0196   64.4627 C   0  0  0  0  0  0  0  0  0  0  0  0
  -49.2657   60.9725   64.2441 C   0  0  0  0  0  0  0  0  0  0  0  0
  -50.5873   60.2001   64.2898 C   0  0  0  0  0  0  0  0  0  0  0  0
  -51.2462   59.9686   62.9355 C   0  0  0  0  0  0  0  0  0  0  0  0
  -51.0333   58.5514   62.4246 C   0  0  0  0  0  0  0  0  0  0  0  0
  -49.6639   58.2592   61.8070 C   0  0  0  0  0  0  0  0  0  0  0  0
  -49.5920   58.9590   60.4565 C   0  0  0  0  0  0  0  0  0  0  0  0
  -49.4484   58.1100   59.2020 C   0  0  0  0  0  0  0  0  0  0  0  0
  -48.0835   58.3415   58.5346 C   0  0  0  0  0  0  0  0  0  0  0  0
  -47.1741   57.0995   58.4930 C   0  0  0  0  0  0  0  0  0  0  0  0
  -47.4258   56.2071   57.2799 C   0  0  0  0  0  0  0  0  0  0  0  0
  -41.5307   61.4979   63.8154 O   0  0  0  0  0  0  0  0  0  0  0  0
  -40.4182   60.6229   63.8407 C   0  0  0  0  0  0  0  0  0  0  0  0
  -41.2781   62.3531   64.1968 H   0  0  0  0  0  0  0  0  0  0  0  0
  -40.7505   59.2503   63.2508 C   0  0  0  0  0  0  0  0  0  0  0  0
  -41.6938   59.0663   62.3114 C   0  0  0  0  0  0  0  0  0  0  0  0
  -41.9673   57.6632   61.7731 C   0  0  0  0  0  0  0  0  0  0  0  0
  -40.9275   57.1748   60.7540 C   0  0  0  0  0  0  0  0  0  0  0  0
  -40.8359   57.9916   59.4517 C   0  0  0  0  0  0  0  0  0  0  0  0
  -39.3973   58.5195   59.2345 C   0  0  0  0  0  0  0  0  0  0  0  0
  -39.0650   59.8504   59.9553 C   0  0  0  0  0  0  0  0  0  0  0  0
  -38.0096   59.7161   61.0783 C   0  0  0  0  0  0  0  0  0  0  0  0
  -37.2690   58.3613   61.0710 C   0  0  0  0  0  0  0  0  0  0  0  0
  -37.6375   57.4495   62.2475 C   0  0  0  0  0  0  0  0  0  0  0  0
  -37.2871   57.9736   63.6385 C   0  0  0  0  0  0  0  0  0  0  0  0
  -35.8397   57.6727   64.0745 C   0  0  0  0  0  0  0  0  0  0  0  0
  -35.0414   58.8855   64.5764 C   0  0  0  0  0  0  0  0  0  0  0  0
  -33.9911   59.3161   63.5486 C   0  0  0  0  0  0  0  0  0  0  0  0
  -33.7443   58.3605   62.3946 C   0  0  0  0  0  0  0  0  0  0  0  0
  -38.5871   60.4494   65.6960 C   0  0  0  0  0  0  0  0  0  0  0  0
  -37.9416   61.7382   65.8564 O   0  0  0  0  0  0  0  0  0  0  0  0
  -37.3770   63.0423   63.3749 O   0  0  0  0  0  0  0  0  0  0  0  0
  -34.2819   64.7592   65.5820 O   0  0  0  0  0  0  0  0  0  0  0  0
  -35.6046   62.1513   66.3596 O   0  0  0  0  0  0  0  0  0  0  0  0
  -36.5924   61.9914   65.3126 C   0  0  0  0  0  0  0  0  0  0  0  0
  -36.4504   63.2192   64.4017 C   0  0  0  0  0  0  0  0  0  0  0  0
  -35.0485   63.3646   63.7703 C   0  0  0  0  0  0  0  0  0  0  0  0
  -34.0853   63.5146   64.9152 C   0  0  0  0  0  0  0  0  0  0  0  0
  -34.2481   62.3533   65.8792 C   0  0  0  0  0  0  0  0  0  0  0  0
  -38.2652   62.9489   63.7534 H   0  0  0  0  0  0  0  0  0  0  0  0
  -34.1733   65.4858   64.9487 H   0  0  0  0  0  0  0  0  0  0  0  0
  -33.8038   63.4782   67.9409 O   0  0  0  0  0  0  0  0  0  0  0  0
  -33.2110   62.6996   66.9453 C   0  0  0  0  0  0  0  0  0  0  0  0
  -33.1431   63.6968   68.6167 H   0  0  0  0  0  0  0  0  0  0  0  0
  -34.8504   64.5201   62.9244 O   0  0  0  0  0  0  0  0  0  0  0  0
  -33.3119   63.4512   61.1335 O   0  0  0  0  0  0  0  0  0  0  0  0
  -33.9885   65.7700   60.9007 O   0  0  0  0  0  0  0  0  0  0  0  0
  -35.5632   63.9878   60.4339 O   0  0  0  0  0  0  0  0  0  0  0  0
  -34.4388   64.4135   61.3147 S   0  0  0  0  0  0  0  0  0  0  0  0
  -32.5693   63.7126   61.7001 H   0  0  0  0  0  0  0  0  0  0  0  0
  -35.8633   63.1036   60.6971 H   0  0  0  0  0  0  0  0  0  0  0  0
  2  1  1  0  0  0
  2  4  1  0  0  0
  2  5  1  0  0  0
 41 42  1  0  0  0
 41  1  1  0  0  0
 42 46  1  0  0  0
  1 24  1  0  0  0
 23 24  1  0  0  0
 23 25  1  0  0  0
 24 26  1  0  0  0
  3  4  2  0  0  0
 26 27  2  0  0  0
 27 28  1  0  0  0
 43 47  1  0  0  0
 43 51  1  0  0  0
 28 29  1  0  0  0
 56 48  1  0  0  0
 56 60  1  0  0  0
 29 30  1  0  0  0
 57 60  1  0  0  0
 57 61  1  0  0  0
 30 31  1  0  0  0
 44 49  1  0  0  0
 44 52  1  0  0  0
 31 32  1  0  0  0
 45 46  1  0  0  0
 45 50  1  0  0  0
 32 33  1  0  0  0
 53 54  1  0  0  0
 53 55  1  0  0  0
 33 34  1  0  0  0
 34 35  1  0  0  0
 35 36  1  0  0  0
 58 60  1  0  0  0
 36 37  1  0  0  0
 59 60  1  0  0  0
 59 62  1  0  0  0
 37 38  1  0  0  0
 38 39  1  0  0  0
 39 40  1  0  0  0
  4  6  1  0  0  0
  6  7  1  0  0  0
  7  8  1  0  0  0
  8  9  1  0  0  0
  9 10  1  0  0  0
 10 11  1  0  0  0
 11 12  1  0  0  0
 12 13  1  0  0  0
 13 14  1  0  0  0
 14 15  1  0  0  0
 15 16  1  0  0  0
 16 17  1  0  0  0
 17 18  1  0  0  0
 18 19  1  0  0  0
 19 20  1  0  0  0
 20 21  1  0  0  0
 21 22  1  0  0  0
 46 47  1  0  0  0
 47 48  1  0  0  0
 48 49  1  0  0  0
 49 50  1  0  0  0
 50 54  1  0  0  0
M  CHG 1  58  -1
M  END
> <minimizedAffinity>
-9.29383

> <CNNscore>
0.2816737890

> <CNNaffinity>
7.1376090050

> <CNN_VS>
2.0104773045

> <CNNaffinity_variance>
1.6960439682

$$$$
/media/chris/experiments/cd1a-new-docking/inputs/ligands/1onq_ligand.pdb


 62 62  0  0  0  0  0  0  0  0999 V2000
  -41.1460   59.0158   64.6052 C   0  0  0  0  0  0  0  0  0  0  0  0
  -42.2971   59.8832   64.4512 N   0  0  0  0  0  0  0  0  0  0  0  0
  -42.0595   61.3031   66.2047 O   0  0  0  0  0  0  0  0  0  0  0  0
  -42.6612   60.9177   65.2212 C   0  0  0  0  0  0  0  0  0  0  0  0
  -42.8845   59.6880   63.6856 H   0  0  0  0  0  0  0  0  0  0  0  0
  -43.9102   61.6264   64.7882 C   0  0  0  0  0  0  0  0  0  0  0  0
  -43.9678   61.5111   63.2649 C   0  0  0  0  0  0  0  0  0  0  0  0
  -42.8510   62.3413   62.6364 C   0  0  0  0  0  0  0  0  0  0  0  0
  -42.4517   61.9606   61.2314 C   0  0  0  0  0  0  0  0  0  0  0  0
  -41.3999   60.8609   61.3333 C   0  0  0  0  0  0  0  0  0  0  0  0
  -40.9161   60.3741   59.9607 C   0  0  0  0  0  0  0  0  0  0  0  0
  -41.0648   58.8577   59.7394 C   0  0  0  0  0  0  0  0  0  0  0  0
  -39.8147   58.2197   59.0948 C   0  0  0  0  0  0  0  0  0  0  0  0
  -38.5694   59.0642   59.3801 C   0  0  0  0  0  0  0  0  0  0  0  0
  -37.6817   58.5448   60.5045 C   0  0  0  0  0  0  0  0  0  0  0  0
  -38.3983   57.5319   61.3850 C   0  0  0  0  0  0  0  0  0  0  0  0
  -38.0660   57.5864   62.8779 C   0  0  0  0  0  0  0  0  0  0  0  0
  -36.5896   57.9291   63.0244 C   0  0  0  0  0  0  0  0  0  0  0  0
  -35.9790   57.9432   64.4180 C   0  0  0  0  0  0  0  0  0  0  0  0
  -34.9333   59.0618   64.5489 C   0  0  0  0  0  0  0  0  0  0  0  0
  -33.5207   58.5750   64.9216 C   0  0  0  0  0  0  0  0  0  0  0  0
  -32.5124   58.7195   63.7843 C   0  0  0  0  0  0  0  0  0  0  0  0
  -41.1323   56.6963   64.7301 O   0  0  0  0  0  0  0  0  0  0  0  0
  -41.7267   57.8236   65.3462 C   0  0  0  0  0  0  0  0  0  0  0  0
  -40.1702   56.7332   64.8479 H   0  0  0  0  0  0  0  0  0  0  0  0
  -43.2499   57.8266   65.1963 C   0  0  0  0  0  0  0  0  0  0  0  0
  -44.0852   57.5301   66.2065 C   0  0  0  0  0  0  0  0  0  0  0  0
  -45.5951   57.5542   65.9765 C   0  0  0  0  0  0  0  0  0  0  0  0
  -46.1797   58.9671   65.8343 C   0  0  0  0  0  0  0  0  0  0  0  0
  -46.8111   59.2926   64.4679 C   0  0  0  0  0  0  0  0  0  0  0  0
  -47.9323   60.3489   64.6186 C   0  0  0  0  0  0  0  0  0  0  0  0
  -48.7916   60.5872   63.3512 C   0  0  0  0  0  0  0  0  0  0  0  0
  -50.1492   59.8459   63.3578 C   0  0  0  0  0  0  0  0  0  0  0  0
  -50.0654   58.3989   62.8259 C   0  0  0  0  0  0  0  0  0  0  0  0
  -51.0346   58.1069   61.6741 C   0  0  0  0  0  0  0  0  0  0  0  0
  -50.3970   57.7084   60.3447 C   0  0  0  0  0  0  0  0  0  0  0  0
  -49.2653   56.6706   60.4796 C   0  0  0  0  0  0  0  0  0  0  0  0
  -48.0863   56.8583   59.5129 C   0  0  0  0  0  0  0  0  0  0  0  0
  -48.3241   58.0492   58.5800 C   0  0  0  0  0  0  0  0  0  0  0  0
  -47.2407   58.3300   57.5540 C   0  0  0  0  0  0  0  0  0  0  0  0
  -39.8908   59.6778   65.2176 C   0  0  0  0  0  0  0  0  0  0  0  0
  -39.3836   60.8558   64.5405 O   0  0  0  0  0  0  0  0  0  0  0  0
  -37.6854   61.4906   62.3290 O   0  0  0  0  0  0  0  0  0  0  0  0
  -36.2653   64.4218   64.9347 O   0  0  0  0  0  0  0  0  0  0  0  0
  -37.6662   61.9149   65.8876 O   0  0  0  0  0  0  0  0  0  0  0  0
  -37.9622   61.2429   64.6392 C   0  0  0  0  0  0  0  0  0  0  0  0
  -37.4323   62.1586   63.5264 C   0  0  0  0  0  0  0  0  0  0  0  0
  -35.9151   62.4323   63.6179 C   0  0  0  0  0  0  0  0  0  0  0  0
  -35.6903   63.1174   64.9374 C   0  0  0  0  0  0  0  0  0  0  0  0
  -36.2687   62.2740   66.0593 C   0  0  0  0  0  0  0  0  0  0  0  0
  -38.6355   61.3099   62.2541 H   0  0  0  0  0  0  0  0  0  0  0  0
  -35.8821   64.9424   64.2116 H   0  0  0  0  0  0  0  0  0  0  0  0
  -34.6821   63.7024   67.1345 O   0  0  0  0  0  0  0  0  0  0  0  0
  -35.9499   63.1361   67.2788 C   0  0  0  0  0  0  0  0  0  0  0  0
  -34.4820   64.2493   67.9103 H   0  0  0  0  0  0  0  0  0  0  0  0
  -35.3672   63.3120   62.6099 O   0  0  0  0  0  0  0  0  0  0  0  0
  -33.5287   63.7551   60.8377 O   0  0  0  0  0  0  0  0  0  0  0  0
  -33.1635   62.0711   62.5464 O   0  0  0  0  0  0  0  0  0  0  0  0
  -33.0198   64.4252   63.1044 O   0  0  0  0  0  0  0  0  0  0  0  0
  -33.7394   63.4163   62.2763 S   0  0  0  0  0  0  0  0  0  0  0  0
  -33.9908   63.1080   60.2822 H   0  0  0  0  0  0  0  0  0  0  0  0
  -33.3892   65.3059   62.9345 H   0  0  0  0  0  0  0  0  0  0  0  0
  2  1  1  0  0  0
  2  4  1  0  0  0
  2  5  1  0  0  0
 41 42  1  0  0  0
 41  1  1  0  0  0
 42 46  1  0  0  0
  1 24  1  0  0  0
 23 24  1  0  0  0
 23 25  1  0  0  0
 24 26  1  0  0  0
  3  4  2  0  0  0
 26 27  2  0  0  0
 27 28  1  0  0  0
 43 47  1  0  0  0
 43 51  1  0  0  0
 28 29  1  0  0  0
 56 48  1  0  0  0
 56 60  1  0  0  0
 29 30  1  0  0  0
 57 60  1  0  0  0
 57 61  1  0  0  0
 30 31  1  0  0  0
 44 49  1  0  0  0
 44 52  1  0  0  0
 31 32  1  0  0  0
 45 46  1  0  0  0
 45 50  1  0  0  0
 32 33  1  0  0  0
 53 54  1  0  0  0
 53 55  1  0  0  0
 33 34  1  0  0  0
 34 35  1  0  0  0
 35 36  1  0  0  0
 58 60  1  0  0  0
 36 37  1  0  0  0
 59 60  1  0  0  0
 59 62  1  0  0  0
 37 38  1  0  0  0
 38 39  1  0  0  0
 39 40  1  0  0  0
  4  6  1  0  0  0
  6  7  1  0  0  0
  7  8  1  0  0  0
  8  9  1  0  0  0
  9 10  1  0  0  0
 10 11  1  0  0  0
 11 12  1  0  0  0
 12 13  1  0  0  0
 13 14  1  0  0  0
 14 15  1  0  0  0
 15 16  1  0  0  0
 16 17  1  0  0  0
 17 18  1  0  0  0
 18 19  1  0  0  0
 19 20  1  0  0  0
 20 21  1  0  0  0
 21 22  1  0  0  0
 46 47  1  0  0  0
 47 48  1  0  0  0
 48 49  1  0  0  0
 49 50  1  0  0  0
 50 54  1  0  0  0
M  CHG 1  58  -1
M  END
> <minimizedAffinity>
-9.60111

> <CNNscore>
0.2715642452

> <CNNaffinity>
7.1607065201

> <CNN_VS>
1.9445918798

> <CNNaffinity_variance>
2.4120242596

$$$$
/media/chris/experiments/cd1a-new-docking/inputs/ligands/1onq_ligand.pdb


 62 62  0  0  0  0  0  0  0  0999 V2000
  -38.3515   60.3867   65.2367 C   0  0  0  0  0  0  0  0  0  0  0  0
  -39.5529   60.1882   66.0230 N   0  0  0  0  0  0  0  0  0  0  0  0
  -41.0493   61.5099   64.9454 O   0  0  0  0  0  0  0  0  0  0  0  0
  -40.7623   60.7345   65.8364 C   0  0  0  0  0  0  0  0  0  0  0  0
  -39.4701   59.5759   66.7895 H   0  0  0  0  0  0  0  0  0  0  0  0
  -41.8096   60.3180   66.8260 C   0  0  0  0  0  0  0  0  0  0  0  0
  -43.0934   61.0480   66.4313 C   0  0  0  0  0  0  0  0  0  0  0  0
  -44.1070   60.0540   65.8694 C   0  0  0  0  0  0  0  0  0  0  0  0
  -45.0800   60.6014   64.8535 C   0  0  0  0  0  0  0  0  0  0  0  0
  -46.2652   59.6438   64.7880 C   0  0  0  0  0  0  0  0  0  0  0  0
  -47.1033   59.6488   66.0735 C   0  0  0  0  0  0  0  0  0  0  0  0
  -48.4866   60.3082   65.9238 C   0  0  0  0  0  0  0  0  0  0  0  0
  -49.5853   59.3089   65.5001 C   0  0  0  0  0  0  0  0  0  0  0  0
  -50.6414   60.0024   64.6348 C   0  0  0  0  0  0  0  0  0  0  0  0
  -50.4961   59.7765   63.1349 C   0  0  0  0  0  0  0  0  0  0  0  0
  -50.7334   58.3254   62.7439 C   0  0  0  0  0  0  0  0  0  0  0  0
  -50.5697   57.9952   61.2585 C   0  0  0  0  0  0  0  0  0  0  0  0
  -49.0806   57.9188   60.9495 C   0  0  0  0  0  0  0  0  0  0  0  0
  -48.6409   57.3141   59.6243 C   0  0  0  0  0  0  0  0  0  0  0  0
  -48.2736   58.4122   58.6138 C   0  0  0  0  0  0  0  0  0  0  0  0
  -47.1658   58.0198   57.6188 C   0  0  0  0  0  0  0  0  0  0  0  0
  -47.2191   56.5514   57.2039 C   0  0  0  0  0  0  0  0  0  0  0  0
  -36.4937   59.0169   64.9759 O   0  0  0  0  0  0  0  0  0  0  0  0
  -37.9079   58.9635   64.9451 C   0  0  0  0  0  0  0  0  0  0  0  0
  -36.1997   59.2896   65.8591 H   0  0  0  0  0  0  0  0  0  0  0  0
  -38.4392   58.5377   63.5743 C   0  0  0  0  0  0  0  0  0  0  0  0
  -37.6436   58.0915   62.5873 C   0  0  0  0  0  0  0  0  0  0  0  0
  -38.2510   57.6862   61.2457 C   0  0  0  0  0  0  0  0  0  0  0  0
  -37.7389   58.5122   60.0566 C   0  0  0  0  0  0  0  0  0  0  0  0
  -38.7257   58.6780   58.8861 C   0  0  0  0  0  0  0  0  0  0  0  0
  -40.1126   58.0954   59.2502 C   0  0  0  0  0  0  0  0  0  0  0  0
  -41.2195   59.1444   59.5256 C   0  0  0  0  0  0  0  0  0  0  0  0
  -40.6957   60.4823   60.0988 C   0  0  0  0  0  0  0  0  0  0  0  0
  -41.8039   61.3710   60.7038 C   0  0  0  0  0  0  0  0  0  0  0  0
  -42.3671   60.8407   62.0278 C   0  0  0  0  0  0  0  0  0  0  0  0
  -41.6455   59.6371   62.6303 C   0  0  0  0  0  0  0  0  0  0  0  0
  -42.5433   58.3983   62.8173 C   0  0  0  0  0  0  0  0  0  0  0  0
  -41.8503   57.0466   62.5875 C   0  0  0  0  0  0  0  0  0  0  0  0
  -41.7132   56.2689   63.8995 C   0  0  0  0  0  0  0  0  0  0  0  0
  -42.2759   56.9363   65.1419 C   0  0  0  0  0  0  0  0  0  0  0  0
  -37.3000   61.3355   65.8556 C   0  0  0  0  0  0  0  0  0  0  0  0
  -37.3397   62.7187   65.4215 O   0  0  0  0  0  0  0  0  0  0  0  0
  -34.9418   61.3581   64.6624 O   0  0  0  0  0  0  0  0  0  0  0  0
  -35.3560   63.6530   61.2040 O   0  0  0  0  0  0  0  0  0  0  0  0
  -36.6217   64.4164   63.8443 O   0  0  0  0  0  0  0  0  0  0  0  0
  -36.2027   63.3288   64.7041 C   0  0  0  0  0  0  0  0  0  0  0  0
  -35.3743   62.3834   63.8222 C   0  0  0  0  0  0  0  0  0  0  0  0
  -34.1322   63.0511   63.1927 C   0  0  0  0  0  0  0  0  0  0  0  0
  -34.6480   64.1686   62.3288 C   0  0  0  0  0  0  0  0  0  0  0  0
  -35.5344   65.0865   63.1511 C   0  0  0  0  0  0  0  0  0  0  0  0
  -35.7102   60.9263   65.0677 H   0  0  0  0  0  0  0  0  0  0  0  0
  -34.7720   63.0705   60.6938 H   0  0  0  0  0  0  0  0  0  0  0  0
  -37.2623   66.5298   62.3480 O   0  0  0  0  0  0  0  0  0  0  0  0
  -35.9503   66.1190   62.1056 C   0  0  0  0  0  0  0  0  0  0  0  0
  -37.5240   67.1855   61.6827 H   0  0  0  0  0  0  0  0  0  0  0  0
  -33.3304   62.2132   62.3295 O   0  0  0  0  0  0  0  0  0  0  0  0
  -31.3254   62.7054   60.7628 O   0  0  0  0  0  0  0  0  0  0  0  0
  -31.0889   61.0570   62.5280 O   0  0  0  0  0  0  0  0  0  0  0  0
  -31.0943   63.4213   63.0606 O   0  0  0  0  0  0  0  0  0  0  0  0
  -31.6807   62.3759   62.1749 S   0  0  0  0  0  0  0  0  0  0  0  0
  -31.6993   62.0345   60.1703 H   0  0  0  0  0  0  0  0  0  0  0  0
  -31.4749   64.2852   62.8371 H   0  0  0  0  0  0  0  0  0  0  0  0
  2  1  1  0  0  0
  2  4  1  0  0  0
  2  5  1  0  0  0
 41 42  1  0  0  0
 41  1  1  0  0  0
 42 46  1  0  0  0
  1 24  1  0  0  0
 23 24  1  0  0  0
 23 25  1  0  0  0
 24 26  1  0  0  0
  3  4  2  0  0  0
 26 27  2  0  0  0
 27 28  1  0  0  0
 43 47  1  0  0  0
 43 51  1  0  0  0
 28 29  1  0  0  0
 56 48  1  0  0  0
 56 60  1  0  0  0
 29 30  1  0  0  0
 57 60  1  0  0  0
 57 61  1  0  0  0
 30 31  1  0  0  0
 44 49  1  0  0  0
 44 52  1  0  0  0
 31 32  1  0  0  0
 45 46  1  0  0  0
 45 50  1  0  0  0
 32 33  1  0  0  0
 53 54  1  0  0  0
 53 55  1  0  0  0
 33 34  1  0  0  0
 34 35  1  0  0  0
 35 36  1  0  0  0
 58 60  1  0  0  0
 36 37  1  0  0  0
 59 60  1  0  0  0
 59 62  1  0  0  0
 37 38  1  0  0  0
 38 39  1  0  0  0
 39 40  1  0  0  0
  4  6  1  0  0  0
  6  7  1  0  0  0
  7  8  1  0  0  0
  8  9  1  0  0  0
  9 10  1  0  0  0
 10 11  1  0  0  0
 11 12  1  0  0  0
 12 13  1  0  0  0
 13 14  1  0  0  0
 14 15  1  0  0  0
 15 16  1  0  0  0
 16 17  1  0  0  0
 17 18  1  0  0  0
 18 19  1  0  0  0
 19 20  1  0  0  0
 20 21  1  0  0  0
 21 22  1  0  0  0
 46 47  1  0  0  0
 47 48  1  0  0  0
 48 49  1  0  0  0
 49 50  1  0  0  0
 50 54  1  0  0  0
M  CHG 1  58  -1
M  END
> <minimizedAffinity>
-9.17514

> <CNNscore>
0.2347113490

> <CNNaffinity>
7.3264517784

> <CNN_VS>
1.7196013927

> <CNNaffinity_variance>
1.1669256687

$$$$
/media/chris/experiments/cd1a-new-docking/inputs/ligands/1onq_ligand.pdb


 62 62  0  0  0  0  0  0  0  0999 V2000
  -41.2973   59.6182   64.0934 C   0  0  0  0  0  0  0  0  0  0  0  0
  -42.5351   60.3267   64.3525 N   0  0  0  0  0  0  0  0  0  0  0  0
  -42.9199   61.3522   62.3657 O   0  0  0  0  0  0  0  0  0  0  0  0
  -43.2309   61.1079   63.5151 C   0  0  0  0  0  0  0  0  0  0  0  0
  -42.9113   60.2207   65.2561 H   0  0  0  0  0  0  0  0  0  0  0  0
  -44.4869   61.6956   64.0868 C   0  0  0  0  0  0  0  0  0  0  0  0
  -45.2396   60.5440   64.7535 C   0  0  0  0  0  0  0  0  0  0  0  0
  -46.7101   60.5756   64.3437 C   0  0  0  0  0  0  0  0  0  0  0  0
  -47.4086   59.2392   64.2757 C   0  0  0  0  0  0  0  0  0  0  0  0
  -47.9463   58.9288   65.6687 C   0  0  0  0  0  0  0  0  0  0  0  0
  -49.1002   59.8538   66.0785 C   0  0  0  0  0  0  0  0  0  0  0  0
  -50.4605   59.4787   65.4623 C   0  0  0  0  0  0  0  0  0  0  0  0
  -50.9371   60.4915   64.3981 C   0  0  0  0  0  0  0  0  0  0  0  0
  -51.2980   59.7747   63.0939 C   0  0  0  0  0  0  0  0  0  0  0  0
  -50.7324   58.3667   62.9539 C   0  0  0  0  0  0  0  0  0  0  0  0
  -50.7655   57.8716   61.5156 C   0  0  0  0  0  0  0  0  0  0  0  0
  -49.9838   58.7078   60.4998 C   0  0  0  0  0  0  0  0  0  0  0  0
  -49.3991   57.7650   59.4568 C   0  0  0  0  0  0  0  0  0  0  0  0
  -47.9603   57.2982   59.6209 C   0  0  0  0  0  0  0  0  0  0  0  0
  -47.5520   56.3612   58.4732 C   0  0  0  0  0  0  0  0  0  0  0  0
  -47.5764   57.0121   57.0779 C   0  0  0  0  0  0  0  0  0  0  0  0
  -46.8103   58.3313   57.0133 C   0  0  0  0  0  0  0  0  0  0  0  0
  -40.9024   57.7534   65.4210 O   0  0  0  0  0  0  0  0  0  0  0  0
  -41.6914   58.1690   64.3218 C   0  0  0  0  0  0  0  0  0  0  0  0
  -41.1216   58.2911   66.1980 H   0  0  0  0  0  0  0  0  0  0  0  0
  -41.3937   57.3576   63.0586 C   0  0  0  0  0  0  0  0  0  0  0  0
  -41.7151   57.7809   61.8242 C   0  0  0  0  0  0  0  0  0  0  0  0
  -41.3848   56.9116   60.6124 C   0  0  0  0  0  0  0  0  0  0  0  0
  -40.6776   57.6684   59.4787 C   0  0  0  0  0  0  0  0  0  0  0  0
  -40.6244   59.1999   59.6315 C   0  0  0  0  0  0  0  0  0  0  0  0
  -39.1652   59.6837   59.8106 C   0  0  0  0  0  0  0  0  0  0  0  0
  -38.0878   58.5712   59.7557 C   0  0  0  0  0  0  0  0  0  0  0  0
  -37.2308   58.4555   61.0382 C   0  0  0  0  0  0  0  0  0  0  0  0
  -37.8198   57.4904   62.0897 C   0  0  0  0  0  0  0  0  0  0  0  0
  -37.7602   58.0286   63.5243 C   0  0  0  0  0  0  0  0  0  0  0  0
  -36.4869   57.7144   64.3069 C   0  0  0  0  0  0  0  0  0  0  0  0
  -35.4516   58.8563   64.3022 C   0  0  0  0  0  0  0  0  0  0  0  0
  -33.9983   58.4234   64.5482 C   0  0  0  0  0  0  0  0  0  0  0  0
  -33.2255   58.3174   63.2304 C   0  0  0  0  0  0  0  0  0  0  0  0
  -32.0007   59.2043   63.0928 C   0  0  0  0  0  0  0  0  0  0  0  0
  -40.0600   60.1371   64.8608 C   0  0  0  0  0  0  0  0  0  0  0  0
  -39.4592   61.3621   64.3692 O   0  0  0  0  0  0  0  0  0  0  0  0
  -37.6389   61.6503   62.1828 O   0  0  0  0  0  0  0  0  0  0  0  0
  -35.9936   64.6056   64.6237 O   0  0  0  0  0  0  0  0  0  0  0  0
  -37.6798   62.3355   65.7003 O   0  0  0  0  0  0  0  0  0  0  0  0
  -38.0084   61.6063   64.4928 C   0  0  0  0  0  0  0  0  0  0  0  0
  -37.3519   62.3764   63.3380 C   0  0  0  0  0  0  0  0  0  0  0  0
  -35.8176   62.4976   63.4660 C   0  0  0  0  0  0  0  0  0  0  0  0
  -35.5604   63.2525   64.7408 C   0  0  0  0  0  0  0  0  0  0  0  0
  -36.2578   62.5599   65.8977 C   0  0  0  0  0  0  0  0  0  0  0  0
  -38.6002   61.5639   62.0856 H   0  0  0  0  0  0  0  0  0  0  0  0
  -35.5363   65.0282   63.8800 H   0  0  0  0  0  0  0  0  0  0  0  0
  -36.1636   62.8297   68.2709 O   0  0  0  0  0  0  0  0  0  0  0  0
  -35.8855   63.4732   67.0636 C   0  0  0  0  0  0  0  0  0  0  0  0
  -35.9263   63.4119   69.0097 H   0  0  0  0  0  0  0  0  0  0  0  0
  -35.1501   63.2379   62.4190 O   0  0  0  0  0  0  0  0  0  0  0  0
  -32.8196   62.4896   63.2711 O   0  0  0  0  0  0  0  0  0  0  0  0
  -33.2481   64.8442   62.8696 O   0  0  0  0  0  0  0  0  0  0  0  0
  -32.9163   63.3303   61.0062 O   0  0  0  0  0  0  0  0  0  0  0  0
  -33.5015   63.4654   62.3703 S   0  0  0  0  0  0  0  0  0  0  0  0
  -33.1881   62.5630   64.1654 H   0  0  0  0  0  0  0  0  0  0  0  0
  -33.0770   62.4337   60.6727 H   0  0  0  0  0  0  0  0  0  0  0  0
  2  1  1  0  0  0
  2  4  1  0  0  0
  2  5  1  0  0  0
 41 42  1  0  0  0
 41  1  1  0  0  0
 42 46  1  0  0  0
  1 24  1  0  0  0
 23 24  1  0  0  0
 23 25  1  0  0  0
 24 26  1  0  0  0
  3  4  2  0  0  0
 26 27  2  0  0  0
 27 28  1  0  0  0
 43 47  1  0  0  0
 43 51  1  0  0  0
 28 29  1  0  0  0
 56 48  1  0  0  0
 56 60  1  0  0  0
 29 30  1  0  0  0
 57 60  1  0  0  0
 57 61  1  0  0  0
 30 31  1  0  0  0
 44 49  1  0  0  0
 44 52  1  0  0  0
 31 32  1  0  0  0
 45 46  1  0  0  0
 45 50  1  0  0  0
 32 33  1  0  0  0
 53 54  1  0  0  0
 53 55  1  0  0  0
 33 34  1  0  0  0
 34 35  1  0  0  0
 35 36  1  0  0  0
 58 60  1  0  0  0
 36 37  1  0  0  0
 59 60  1  0  0  0
 59 62  1  0  0  0
 37 38  1  0  0  0
 38 39  1  0  0  0
 39 40  1  0  0  0
  4  6  1  0  0  0
  6  7  1  0  0  0
  7  8  1  0  0  0
  8  9  1  0  0  0
  9 10  1  0  0  0
 10 11  1  0  0  0
 11 12  1  0  0  0
 12 13  1  0  0  0
 13 14  1  0  0  0
 14 15  1  0  0  0
 15 16  1  0  0  0
 16 17  1  0  0  0
 17 18  1  0  0  0
 18 19  1  0  0  0
 19 20  1  0  0  0
 20 21  1  0  0  0
 21 22  1  0  0  0
 46 47  1  0  0  0
 47 48  1  0  0  0
 48 49  1  0  0  0
 49 50  1  0  0  0
 50 54  1  0  0  0
M  CHG 1  58  -1
M  END
> <minimizedAffinity>
-9.99364

> <CNNscore>
0.2071916014

> <CNNaffinity>
7.0367288589

> <CNN_VS>
1.4579510689

> <CNNaffinity_variance>
1.7877826691

$$$$
/media/chris/experiments/cd1a-new-docking/inputs/ligands/1onq_ligand.pdb


 62 62  0  0  0  0  0  0  0  0999 V2000
  -41.5660   60.1713   65.4460 C   0  0  0  0  0  0  0  0  0  0  0  0
  -41.9398   60.0936   64.0477 N   0  0  0  0  0  0  0  0  0  0  0  0
  -42.1052   62.2835   63.4781 O   0  0  0  0  0  0  0  0  0  0  0  0
  -42.1734   61.1026   63.1974 C   0  0  0  0  0  0  0  0  0  0  0  0
  -42.0337   59.1866   63.6764 H   0  0  0  0  0  0  0  0  0  0  0  0
  -42.5353   60.6896   61.8017 C   0  0  0  0  0  0  0  0  0  0  0  0
  -41.8147   61.6573   60.8628 C   0  0  0  0  0  0  0  0  0  0  0  0
  -41.1774   60.8871   59.7088 C   0  0  0  0  0  0  0  0  0  0  0  0
  -40.0052   60.0060   60.0665 C   0  0  0  0  0  0  0  0  0  0  0  0
  -39.9958   58.8332   59.0917 C   0  0  0  0  0  0  0  0  0  0  0  0
  -40.2407   57.4853   59.7833 C   0  0  0  0  0  0  0  0  0  0  0  0
  -41.6231   57.3585   60.4494 C   0  0  0  0  0  0  0  0  0  0  0  0
  -41.5354   57.0449   61.9592 C   0  0  0  0  0  0  0  0  0  0  0  0
  -40.0881   56.7555   62.3674 C   0  0  0  0  0  0  0  0  0  0  0  0
  -39.4233   57.8439   63.2014 C   0  0  0  0  0  0  0  0  0  0  0  0
  -38.0168   58.1638   62.7174 C   0  0  0  0  0  0  0  0  0  0  0  0
  -36.8874   57.9020   63.7166 C   0  0  0  0  0  0  0  0  0  0  0  0
  -35.5973   58.4632   63.1340 C   0  0  0  0  0  0  0  0  0  0  0  0
  -34.4461   57.5076   62.8571 C   0  0  0  0  0  0  0  0  0  0  0  0
  -33.1015   58.2520   62.8569 C   0  0  0  0  0  0  0  0  0  0  0  0
  -32.7844   58.9981   64.1661 C   0  0  0  0  0  0  0  0  0  0  0  0
  -33.0572   58.1658   65.4168 C   0  0  0  0  0  0  0  0  0  0  0  0
  -42.4534   60.9771   67.4358 O   0  0  0  0  0  0  0  0  0  0  0  0
  -42.6765   61.0217   66.0386 C   0  0  0  0  0  0  0  0  0  0  0  0
  -41.5865   61.3627   67.6372 H   0  0  0  0  0  0  0  0  0  0  0  0
  -44.0323   60.4263   65.6518 C   0  0  0  0  0  0  0  0  0  0  0  0
  -44.7654   59.6711   66.4876 C   0  0  0  0  0  0  0  0  0  0  0  0
  -46.1098   59.1119   66.0259 C   0  0  0  0  0  0  0  0  0  0  0  0
  -47.2767   60.0996   66.1712 C   0  0  0  0  0  0  0  0  0  0  0  0
  -48.6697   59.5406   65.8270 C   0  0  0  0  0  0  0  0  0  0  0  0
  -49.4291   60.5020   64.8813 C   0  0  0  0  0  0  0  0  0  0  0  0
  -50.9102   60.1335   64.6131 C   0  0  0  0  0  0  0  0  0  0  0  0
  -51.2549   59.9442   63.1171 C   0  0  0  0  0  0  0  0  0  0  0  0
  -50.8877   58.5476   62.5707 C   0  0  0  0  0  0  0  0  0  0  0  0
  -49.5263   58.4978   61.8669 C   0  0  0  0  0  0  0  0  0  0  0  0
  -49.4834   59.0593   60.4473 C   0  0  0  0  0  0  0  0  0  0  0  0
  -50.1426   58.1478   59.3935 C   0  0  0  0  0  0  0  0  0  0  0  0
  -49.2001   57.6241   58.2992 C   0  0  0  0  0  0  0  0  0  0  0  0
  -47.8368   58.3180   58.3693 C   0  0  0  0  0  0  0  0  0  0  0  0
  -46.9956   58.2829   57.1058 C   0  0  0  0  0  0  0  0  0  0  0  0
  -40.1140   60.6227   65.7229 C   0  0  0  0  0  0  0  0  0  0  0  0
  -39.3509   61.0880   64.5807 O   0  0  0  0  0  0  0  0  0  0  0  0
  -37.5935   61.5954   62.3828 O   0  0  0  0  0  0  0  0  0  0  0  0
  -35.9989   64.4333   64.9908 O   0  0  0  0  0  0  0  0  0  0  0  0
  -37.5771   62.0324   65.9398 O   0  0  0  0  0  0  0  0  0  0  0  0
  -37.9073   61.3771   64.6911 C   0  0  0  0  0  0  0  0  0  0  0  0
  -37.3058   62.2496   63.5800 C   0  0  0  0  0  0  0  0  0  0  0  0
  -35.7743   62.4189   63.6845 C   0  0  0  0  0  0  0  0  0  0  0  0
  -35.5148   63.0925   65.0036 C   0  0  0  0  0  0  0  0  0  0  0  0
  -36.1598   62.2956   66.1231 C   0  0  0  0  0  0  0  0  0  0  0  0
  -38.5530   61.4800   62.2997 H   0  0  0  0  0  0  0  0  0  0  0  0
  -35.5744   64.9233   64.2694 H   0  0  0  0  0  0  0  0  0  0  0  0
  -34.4095   63.3147   67.3926 O   0  0  0  0  0  0  0  0  0  0  0  0
  -35.7935   63.1390   67.3424 C   0  0  0  0  0  0  0  0  0  0  0  0
  -34.1795   63.8505   68.1679 H   0  0  0  0  0  0  0  0  0  0  0  0
  -35.1583   63.2547   62.6784 O   0  0  0  0  0  0  0  0  0  0  0  0
  -33.3028   63.6400   60.9105 O   0  0  0  0  0  0  0  0  0  0  0  0
  -33.1105   61.7849   62.4630 O   0  0  0  0  0  0  0  0  0  0  0  0
  -32.6940   64.0513   63.2140 O   0  0  0  0  0  0  0  0  0  0  0  0
  -33.5333   63.2044   62.3197 S   0  0  0  0  0  0  0  0  0  0  0  0
  -33.8420   63.0990   60.3125 H   0  0  0  0  0  0  0  0  0  0  0  0
  -32.9631   64.9792   63.1268 H   0  0  0  0  0  0  0  0  0  0  0  0
  2  1  1  0  0  0
  2  4  1  0  0  0
  2  5  1  0  0  0
 41 42  1  0  0  0
 41  1  1  0  0  0
 42 46  1  0  0  0
  1 24  1  0  0  0
 23 24  1  0  0  0
 23 25  1  0  0  0
 24 26  1  0  0  0
  3  4  2  0  0  0
 26 27  2  0  0  0
 27 28  1  0  0  0
 43 47  1  0  0  0
 43 51  1  0  0  0
 28 29  1  0  0  0
 56 48  1  0  0  0
 56 60  1  0  0  0
 29 30  1  0  0  0
 57 60  1  0  0  0
 57 61  1  0  0  0
 30 31  1  0  0  0
 44 49  1  0  0  0
 44 52  1  0  0  0
 31 32  1  0  0  0
 45 46  1  0  0  0
 45 50  1  0  0  0
 32 33  1  0  0  0
 53 54  1  0  0  0
 53 55  1  0  0  0
 33 34  1  0  0  0
 34 35  1  0  0  0
 35 36  1  0  0  0
 58 60  1  0  0  0
 36 37  1  0  0  0
 59 60  1  0  0  0
 59 62  1  0  0  0
 37 38  1  0  0  0
 38 39  1  0  0  0
 39 40  1  0  0  0
  4  6  1  0  0  0
  6  7  1  0  0  0
  7  8  1  0  0  0
  8  9  1  0  0  0
  9 10  1  0  0  0
 10 11  1  0  0  0
 11 12  1  0  0  0
 12 13  1  0  0  0
 13 14  1  0  0  0
 14 15  1  0  0  0
 15 16  1  0  0  0
 16 17  1  0  0  0
 17 18  1  0  0  0
 18 19  1  0  0  0
 19 20  1  0  0  0
 20 21  1  0  0  0
 21 22  1  0  0  0
 46 47  1  0  0  0
 47 48  1  0  0  0
 48 49  1  0  0  0
 49 50  1  0  0  0
 50 54  1  0  0  0
M  CHG 1  58  -1
M  END
> <minimizedAffinity>
-9.31062

> <CNNscore>
0.1973702610

> <CNNaffinity>
7.1603002548

> <CNN_VS>
1.4132302999

> <CNNaffinity_variance>
1.4761940241

$$$$
/media/chris/experiments/cd1a-new-docking/inputs/ligands/1onq_ligand.pdb


 62 62  0  0  0  0  0  0  0  0999 V2000
  -40.3676   60.0910   64.0840 C   0  0  0  0  0  0  0  0  0  0  0  0
  -41.7005   60.6289   64.2718 N   0  0  0  0  0  0  0  0  0  0  0  0
  -42.5024   60.6621   62.1497 O   0  0  0  0  0  0  0  0  0  0  0  0
  -42.6341   60.8676   63.3406 C   0  0  0  0  0  0  0  0  0  0  0  0
  -41.9511   60.8458   65.1989 H   0  0  0  0  0  0  0  0  0  0  0  0
  -43.9263   61.4235   63.8611 C   0  0  0  0  0  0  0  0  0  0  0  0
  -44.0794   60.8996   65.2891 C   0  0  0  0  0  0  0  0  0  0  0  0
  -45.4308   60.2072   65.4486 C   0  0  0  0  0  0  0  0  0  0  0  0
  -45.7717   59.1697   64.4066 C   0  0  0  0  0  0  0  0  0  0  0  0
  -47.2904   59.1336   64.2719 C   0  0  0  0  0  0  0  0  0  0  0  0
  -47.9790   60.2875   65.0130 C   0  0  0  0  0  0  0  0  0  0  0  0
  -48.9428   59.8380   66.1264 C   0  0  0  0  0  0  0  0  0  0  0  0
  -50.3363   59.4425   65.5906 C   0  0  0  0  0  0  0  0  0  0  0  0
  -50.9143   60.5574   64.7142 C   0  0  0  0  0  0  0  0  0  0  0  0
  -51.6090   60.0841   63.4432 C   0  0  0  0  0  0  0  0  0  0  0  0
  -50.6272   59.5342   62.4192 C   0  0  0  0  0  0  0  0  0  0  0  0
  -50.7278   58.0346   62.1309 C   0  0  0  0  0  0  0  0  0  0  0  0
  -50.4101   57.8109   60.6586 C   0  0  0  0  0  0  0  0  0  0  0  0
  -49.2154   58.5324   60.0526 C   0  0  0  0  0  0  0  0  0  0  0  0
  -48.9502   58.0482   58.6183 C   0  0  0  0  0  0  0  0  0  0  0  0
  -47.4869   57.6613   58.3351 C   0  0  0  0  0  0  0  0  0  0  0  0
  -46.9349   58.2828   57.0543 C   0  0  0  0  0  0  0  0  0  0  0  0
  -39.8989   61.1918   66.0751 O   0  0  0  0  0  0  0  0  0  0  0  0
  -39.8863   59.8935   65.5112 C   0  0  0  0  0  0  0  0  0  0  0  0
  -40.8047   61.5387   66.0675 H   0  0  0  0  0  0  0  0  0  0  0  0
  -38.4815   59.2863   65.4929 C   0  0  0  0  0  0  0  0  0  0  0  0
  -38.2206   58.0595   65.0100 C   0  0  0  0  0  0  0  0  0  0  0  0
  -36.7902   57.5237   65.0279 C   0  0  0  0  0  0  0  0  0  0  0  0
  -35.8259   58.2954   64.1152 C   0  0  0  0  0  0  0  0  0  0  0  0
  -35.9003   57.9436   62.6178 C   0  0  0  0  0  0  0  0  0  0  0  0
  -36.9596   58.8149   61.9009 C   0  0  0  0  0  0  0  0  0  0  0  0
  -37.8534   58.0646   60.8813 C   0  0  0  0  0  0  0  0  0  0  0  0
  -38.6758   58.9927   59.9565 C   0  0  0  0  0  0  0  0  0  0  0  0
  -39.7325   58.2461   59.1139 C   0  0  0  0  0  0  0  0  0  0  0  0
  -41.1153   58.1812   59.7734 C   0  0  0  0  0  0  0  0  0  0  0  0
  -41.4135   56.9225   60.5854 C   0  0  0  0  0  0  0  0  0  0  0  0
  -41.0566   57.0428   62.0800 C   0  0  0  0  0  0  0  0  0  0  0  0
  -42.2540   57.2106   63.0277 C   0  0  0  0  0  0  0  0  0  0  0  0
  -41.9164   56.7090   64.4346 C   0  0  0  0  0  0  0  0  0  0  0  0
  -42.6502   57.3771   65.5837 C   0  0  0  0  0  0  0  0  0  0  0  0
  -39.4496   60.9012   63.1407 C   0  0  0  0  0  0  0  0  0  0  0  0
  -38.8402   62.0941   63.6963 O   0  0  0  0  0  0  0  0  0  0  0  0
  -36.7713   62.7690   61.8411 O   0  0  0  0  0  0  0  0  0  0  0  0
  -35.1854   64.7685   65.1404 O   0  0  0  0  0  0  0  0  0  0  0  0
  -37.1502   62.4815   65.3933 O   0  0  0  0  0  0  0  0  0  0  0  0
  -37.3976   62.1430   64.0069 C   0  0  0  0  0  0  0  0  0  0  0  0
  -36.5595   63.1227   63.1731 C   0  0  0  0  0  0  0  0  0  0  0  0
  -35.0442   63.0440   63.4609 C   0  0  0  0  0  0  0  0  0  0  0  0
  -34.8731   63.3964   64.9127 C   0  0  0  0  0  0  0  0  0  0  0  0
  -35.7460   62.4945   65.7666 C   0  0  0  0  0  0  0  0  0  0  0  0
  -37.7196   62.8128   61.6418 H   0  0  0  0  0  0  0  0  0  0  0  0
  -34.6171   65.3257   64.5859 H   0  0  0  0  0  0  0  0  0  0  0  0
  -36.3375   64.0289   67.5014 O   0  0  0  0  0  0  0  0  0  0  0  0
  -35.4366   63.0158   67.1682 C   0  0  0  0  0  0  0  0  0  0  0  0
  -36.1388   64.3583   68.3919 H   0  0  0  0  0  0  0  0  0  0  0  0
  -34.2096   63.9651   62.7227 O   0  0  0  0  0  0  0  0  0  0  0  0
  -32.4445   64.2808   60.8514 O   0  0  0  0  0  0  0  0  0  0  0  0
  -32.7286   62.0981   61.8733 O   0  0  0  0  0  0  0  0  0  0  0  0
  -31.5903   63.8683   63.0753 O   0  0  0  0  0  0  0  0  0  0  0  0
  -32.7049   63.5630   62.1342 S   0  0  0  0  0  0  0  0  0  0  0  0
  -33.1611   64.0937   60.2249 H   0  0  0  0  0  0  0  0  0  0  0  0
  -31.5676   64.8220   63.2511 H   0  0  0  0  0  0  0  0  0  0  0  0
  2  1  1  0  0  0
  2  4  1  0  0  0
  2  5  1  0  0  0
 41 42  1  0  0  0
 41  1  1  0  0  0
 42 46  1  0  0  0
  1 24  1  0  0  0
 23 24  1  0  0  0
 23 25  1  0  0  0
 24 26  1  0  0  0
  3  4  2  0  0  0
 26 27  2  0  0  0
 27 28  1  0  0  0
 43 47  1  0  0  0
 43 51  1  0  0  0
 28 29  1  0  0  0
 56 48  1  0  0  0
 56 60  1  0  0  0
 29 30  1  0  0  0
 57 60  1  0  0  0
 57 61  1  0  0  0
 30 31  1  0  0  0
 44 49  1  0  0  0
 44 52  1  0  0  0
 31 32  1  0  0  0
 45 46  1  0  0  0
 45 50  1  0  0  0
 32 33  1  0  0  0
 53 54  1  0  0  0
 53 55  1  0  0  0
 33 34  1  0  0  0
 34 35  1  0  0  0
 35 36  1  0  0  0
 58 60  1  0  0  0
 36 37  1  0  0  0
 59 60  1  0  0  0
 59 62  1  0  0  0
 37 38  1  0  0  0
 38 39  1  0  0  0
 39 40  1  0  0  0
  4  6  1  0  0  0
  6  7  1  0  0  0
  7  8  1  0  0  0
  8  9  1  0  0  0
  9 10  1  0  0  0
 10 11  1  0  0  0
 11 12  1  0  0  0
 12 13  1  0  0  0
 13 14  1  0  0  0
 14 15  1  0  0  0
 15 16  1  0  0  0
 16 17  1  0  0  0
 17 18  1  0  0  0
 18 19  1  0  0  0
 19 20  1  0  0  0
 20 21  1  0  0  0
 21 22  1  0  0  0
 46 47  1  0  0  0
 47 48  1  0  0  0
 48 49  1  0  0  0
 49 50  1  0  0  0
 50 54  1  0  0  0
M  CHG 1  58  -1
M  END
> <minimizedAffinity>
-9.73507

> <CNNscore>
0.1966931969

> <CNNaffinity>
7.1107587814

> <CNN_VS>
1.3986378908

> <CNNaffinity_variance>
1.7782055140

$$$$
/media/chris/experiments/cd1a-new-docking/inputs/ligands/1onq_ligand.pdb


 62 62  0  0  0  0  0  0  0  0999 V2000
  -41.4506   60.6357   64.0546 C   0  0  0  0  0  0  0  0  0  0  0  0
  -42.2239   59.4192   64.2071 N   0  0  0  0  0  0  0  0  0  0  0  0
  -41.8129   58.8631   66.3679 O   0  0  0  0  0  0  0  0  0  0  0  0
  -42.3489   58.6506   65.2977 C   0  0  0  0  0  0  0  0  0  0  0  0
  -42.7190   59.1204   63.4102 H   0  0  0  0  0  0  0  0  0  0  0  0
  -43.2362   57.4524   65.1351 C   0  0  0  0  0  0  0  0  0  0  0  0
  -44.3179   57.5652   66.2095 C   0  0  0  0  0  0  0  0  0  0  0  0
  -45.5429   58.2795   65.6433 C   0  0  0  0  0  0  0  0  0  0  0  0
  -45.6423   59.7573   65.9341 C   0  0  0  0  0  0  0  0  0  0  0  0
  -46.1926   60.4368   64.6846 C   0  0  0  0  0  0  0  0  0  0  0  0
  -47.5344   59.8464   64.2307 C   0  0  0  0  0  0  0  0  0  0  0  0
  -48.7646   60.6619   64.6691 C   0  0  0  0  0  0  0  0  0  0  0  0
  -49.9833   59.7754   65.0068 C   0  0  0  0  0  0  0  0  0  0  0  0
  -51.1753   60.1334   64.1146 C   0  0  0  0  0  0  0  0  0  0  0  0
  -50.9553   59.9090   62.6235 C   0  0  0  0  0  0  0  0  0  0  0  0
  -51.0137   58.4361   62.2465 C   0  0  0  0  0  0  0  0  0  0  0  0
  -49.6708   57.7668   61.9449 C   0  0  0  0  0  0  0  0  0  0  0  0
  -49.6683   57.3432   60.4823 C   0  0  0  0  0  0  0  0  0  0  0  0
  -49.6194   58.4223   59.4107 C   0  0  0  0  0  0  0  0  0  0  0  0
  -48.2562   58.4310   58.7010 C   0  0  0  0  0  0  0  0  0  0  0  0
  -47.4506   57.1271   58.8495 C   0  0  0  0  0  0  0  0  0  0  0  0
  -47.4983   56.2428   57.6057 C   0  0  0  0  0  0  0  0  0  0  0  0
  -43.2399   61.6377   62.9636 O   0  0  0  0  0  0  0  0  0  0  0  0
  -41.9288   61.1660   62.7139 C   0  0  0  0  0  0  0  0  0  0  0  0
  -43.2071   62.3520   63.6189 H   0  0  0  0  0  0  0  0  0  0  0  0
  -41.9097   60.0334   61.6847 C   0  0  0  0  0  0  0  0  0  0  0  0
  -41.0865   60.0235   60.6224 C   0  0  0  0  0  0  0  0  0  0  0  0
  -41.1286   58.8558   59.6386 C   0  0  0  0  0  0  0  0  0  0  0  0
  -40.2192   57.6814   60.0285 C   0  0  0  0  0  0  0  0  0  0  0  0
  -40.6108   56.9345   61.3171 C   0  0  0  0  0  0  0  0  0  0  0  0
  -39.4417   56.9386   62.3312 C   0  0  0  0  0  0  0  0  0  0  0  0
  -38.0725   57.3875   61.7608 C   0  0  0  0  0  0  0  0  0  0  0  0
  -37.3004   58.3733   62.6690 C   0  0  0  0  0  0  0  0  0  0  0  0
  -36.9926   57.8082   64.0725 C   0  0  0  0  0  0  0  0  0  0  0  0
  -35.5092   57.8773   64.4546 C   0  0  0  0  0  0  0  0  0  0  0  0
  -34.7737   59.1571   64.0626 C   0  0  0  0  0  0  0  0  0  0  0  0
  -33.7744   58.9745   62.9033 C   0  0  0  0  0  0  0  0  0  0  0  0
  -32.3037   59.2401   63.2587 C   0  0  0  0  0  0  0  0  0  0  0  0
  -31.5897   59.9829   62.1258 C   0  0  0  0  0  0  0  0  0  0  0  0
  -30.1673   60.4346   62.4058 C   0  0  0  0  0  0  0  0  0  0  0  0
  -39.9242   60.4822   64.2433 C   0  0  0  0  0  0  0  0  0  0  0  0
  -39.0859   61.4448   63.5548 O   0  0  0  0  0  0  0  0  0  0  0  0
  -37.0134   62.5969   61.9566 O   0  0  0  0  0  0  0  0  0  0  0  0
  -36.1378   64.6313   65.4912 O   0  0  0  0  0  0  0  0  0  0  0  0
  -37.6620   62.0181   65.4334 O   0  0  0  0  0  0  0  0  0  0  0  0
  -37.7125   61.7309   64.0147 C   0  0  0  0  0  0  0  0  0  0  0  0
  -36.9955   62.8964   63.3183 C   0  0  0  0  0  0  0  0  0  0  0  0
  -35.5252   63.0717   63.7571 C   0  0  0  0  0  0  0  0  0  0  0  0
  -35.5580   63.3547   65.2336 C   0  0  0  0  0  0  0  0  0  0  0  0
  -36.3252   62.2581   65.9500 C   0  0  0  0  0  0  0  0  0  0  0  0
  -37.9307   62.4831   61.6625 H   0  0  0  0  0  0  0  0  0  0  0  0
  -35.6329   65.3157   65.0248 H   0  0  0  0  0  0  0  0  0  0  0  0
  -34.9473   63.1466   67.6895 O   0  0  0  0  0  0  0  0  0  0  0  0
  -36.2492   62.7351   67.3988 C   0  0  0  0  0  0  0  0  0  0  0  0
  -34.9017   63.4489   68.6101 H   0  0  0  0  0  0  0  0  0  0  0  0
  -34.8096   64.1728   63.1527 O   0  0  0  0  0  0  0  0  0  0  0  0
  -35.0566   63.8677   60.5908 O   0  0  0  0  0  0  0  0  0  0  0  0
  -33.1637   62.8727   61.7380 O   0  0  0  0  0  0  0  0  0  0  0  0
  -33.2268   65.2618   61.3352 O   0  0  0  0  0  0  0  0  0  0  0  0
  -34.0498   64.0666   61.6750 S   0  0  0  0  0  0  0  0  0  0  0  0
  -35.6028   63.0925   60.7951 H   0  0  0  0  0  0  0  0  0  0  0  0
  -33.7971   66.0454   61.2921 H   0  0  0  0  0  0  0  0  0  0  0  0
  2  1  1  0  0  0
  2  4  1  0  0  0
  2  5  1  0  0  0
 41 42  1  0  0  0
 41  1  1  0  0  0
 42 46  1  0  0  0
  1 24  1  0  0  0
 23 24  1  0  0  0
 23 25  1  0  0  0
 24 26  1  0  0  0
  3  4  2  0  0  0
 26 27  2  0  0  0
 27 28  1  0  0  0
 43 47  1  0  0  0
 43 51  1  0  0  0
 28 29  1  0  0  0
 56 48  1  0  0  0
 56 60  1  0  0  0
 29 30  1  0  0  0
 57 60  1  0  0  0
 57 61  1  0  0  0
 30 31  1  0  0  0
 44 49  1  0  0  0
 44 52  1  0  0  0
 31 32  1  0  0  0
 45 46  1  0  0  0
 45 50  1  0  0  0
 32 33  1  0  0  0
 53 54  1  0  0  0
 53 55  1  0  0  0
 33 34  1  0  0  0
 34 35  1  0  0  0
 35 36  1  0  0  0
 58 60  1  0  0  0
 36 37  1  0  0  0
 59 60  1  0  0  0
 59 62  1  0  0  0
 37 38  1  0  0  0
 38 39  1  0  0  0
 39 40  1  0  0  0
  4  6  1  0  0  0
  6  7  1  0  0  0
  7  8  1  0  0  0
  8  9  1  0  0  0
  9 10  1  0  0  0
 10 11  1  0  0  0
 11 12  1  0  0  0
 12 13  1  0  0  0
 13 14  1  0  0  0
 14 15  1  0  0  0
 15 16  1  0  0  0
 16 17  1  0  0  0
 17 18  1  0  0  0
 18 19  1  0  0  0
 19 20  1  0  0  0
 20 21  1  0  0  0
 21 22  1  0  0  0
 46 47  1  0  0  0
 47 48  1  0  0  0
 48 49  1  0  0  0
 49 50  1  0  0  0
 50 54  1  0  0  0
M  CHG 1  58  -1
M  END
> <minimizedAffinity>
-9.47739

> <CNNscore>
0.1940109134

> <CNNaffinity>
7.1610031128

> <CNN_VS>
1.3893127441

> <CNNaffinity_variance>
1.3028196096

$$$$
