/media/chris/experiments/cd1a-new-docking/inputs/ligands/1onq_ligand.pdb


 62 62  0  0  0  0  0  0  0  0999 V2000
  -41.4114   59.7062   64.9797 C   0  0  0  0  0  0  0  0  0  0  0  0
  -40.7930   58.8161   64.0172 N   0  0  0  0  0  0  0  0  0  0  0  0
  -42.0273   56.9275   64.2556 O   0  0  0  0  0  0  0  0  0  0  0  0
  -41.1236   57.5493   63.7317 C   0  0  0  0  0  0  0  0  0  0  0  0
  -40.0359   59.1888   63.5100 H   0  0  0  0  0  0  0  0  0  0  0  0
  -40.2883   56.8958   62.6710 C   0  0  0  0  0  0  0  0  0  0  0  0
  -41.2353   56.5624   61.5181 C   0  0  0  0  0  0  0  0  0  0  0  0
  -41.8603   57.8427   60.9696 C   0  0  0  0  0  0  0  0  0  0  0  0
  -40.9055   58.8349   60.3511 C   0  0  0  0  0  0  0  0  0  0  0  0
  -40.1350   58.1099   59.2527 C   0  0  0  0  0  0  0  0  0  0  0  0
  -38.7241   58.6768   59.0450 C   0  0  0  0  0  0  0  0  0  0  0  0
  -38.0248   59.1231   60.3421 C   0  0  0  0  0  0  0  0  0  0  0  0
  -37.4664   57.9388   61.1613 C   0  0  0  0  0  0  0  0  0  0  0  0
  -36.5885   58.4432   62.3101 C   0  0  0  0  0  0  0  0  0  0  0  0
  -36.7459   57.6854   63.6228 C   0  0  0  0  0  0  0  0  0  0  0  0
  -35.6850   58.0711   64.6428 C   0  0  0  0  0  0  0  0  0  0  0  0
  -34.7293   59.1915   64.2261 C   0  0  0  0  0  0  0  0  0  0  0  0
  -33.3191   58.7922   64.6390 C   0  0  0  0  0  0  0  0  0  0  0  0
  -32.2624   58.6244   63.5572 C   0  0  0  0  0  0  0  0  0  0  0  0
  -32.0285   59.9454   62.8073 C   0  0  0  0  0  0  0  0  0  0  0  0
  -30.5815   60.1587   62.3257 C   0  0  0  0  0  0  0  0  0  0  0  0
  -30.4543   61.2410   61.2562 C   0  0  0  0  0  0  0  0  0  0  0  0
  -42.2013   61.7708   64.2660 O   0  0  0  0  0  0  0  0  0  0  0  0
  -42.4885   60.3892   64.1546 C   0  0  0  0  0  0  0  0  0  0  0  0
  -41.3239   61.9496   63.8933 H   0  0  0  0  0  0  0  0  0  0  0  0
  -43.8641   60.0381   64.7264 C   0  0  0  0  0  0  0  0  0  0  0  0
  -44.9626   60.7777   64.4970 C   0  0  0  0  0  0  0  0  0  0  0  0
  -46.3004   60.3610   65.1050 C   0  0  0  0  0  0  0  0  0  0  0  0
  -46.9816   59.1973   64.3702 C   0  0  0  0  0  0  0  0  0  0  0  0
  -48.0851   58.4665   65.1573 C   0  0  0  0  0  0  0  0  0  0  0  0
  -48.9323   59.4702   65.9759 C   0  0  0  0  0  0  0  0  0  0  0  0
  -50.4121   59.6013   65.5349 C   0  0  0  0  0  0  0  0  0  0  0  0
  -50.6347   60.5593   64.3408 C   0  0  0  0  0  0  0  0  0  0  0  0
  -51.5790   59.9900   63.2601 C   0  0  0  0  0  0  0  0  0  0  0  0
  -50.9642   58.8483   62.4416 C   0  0  0  0  0  0  0  0  0  0  0  0
  -49.6486   59.1631   61.7329 C   0  0  0  0  0  0  0  0  0  0  0  0
  -49.1591   58.0423   60.7948 C   0  0  0  0  0  0  0  0  0  0  0  0
  -49.3796   58.2998   59.2963 C   0  0  0  0  0  0  0  0  0  0  0  0
  -48.0474   58.5211   58.5745 C   0  0  0  0  0  0  0  0  0  0  0  0
  -47.7867   57.6524   57.3568 C   0  0  0  0  0  0  0  0  0  0  0  0
  -40.4405   60.6214   65.7598 C   0  0  0  0  0  0  0  0  0  0  0  0
  -39.1185   60.0872   66.0253 O   0  0  0  0  0  0  0  0  0  0  0  0
  -38.6872   60.8254   63.2965 O   0  0  0  0  0  0  0  0  0  0  0  0
  -36.9665   64.2070   65.0295 O   0  0  0  0  0  0  0  0  0  0  0  0
  -37.2645   61.5786   66.4986 O   0  0  0  0  0  0  0  0  0  0  0  0
  -37.9066   60.7478   65.5010 C   0  0  0  0  0  0  0  0  0  0  0  0
  -38.1035   61.6393   64.2666 C   0  0  0  0  0  0  0  0  0  0  0  0
  -36.7858   62.2069   63.6946 C   0  0  0  0  0  0  0  0  0  0  0  0
  -36.1793   63.0436   64.7871 C   0  0  0  0  0  0  0  0  0  0  0  0
  -36.0371   62.2142   66.0505 C   0  0  0  0  0  0  0  0  0  0  0  0
  -39.5177   60.4592   63.6387 H   0  0  0  0  0  0  0  0  0  0  0  0
  -37.0444   64.7212   64.2107 H   0  0  0  0  0  0  0  0  0  0  0  0
  -36.4420   63.8513   67.7446 O   0  0  0  0  0  0  0  0  0  0  0  0
  -35.4277   63.2325   67.0117 C   0  0  0  0  0  0  0  0  0  0  0  0
  -36.0524   64.4974   68.3542 H   0  0  0  0  0  0  0  0  0  0  0  0
  -36.9149   63.0766   62.5471 O   0  0  0  0  0  0  0  0  0  0  0  0
  -34.3430   63.2997   62.3190 O   0  0  0  0  0  0  0  0  0  0  0  0
  -35.7150   65.2995   62.4061 O   0  0  0  0  0  0  0  0  0  0  0  0
  -35.6527   63.9504   60.3935 O   0  0  0  0  0  0  0  0  0  0  0  0
  -35.6346   63.9085   61.8833 S   0  0  0  0  0  0  0  0  0  0  0  0
  -34.3129   63.2640   63.2878 H   0  0  0  0  0  0  0  0  0  0  0  0
  -35.6006   63.0470   60.0440 H   0  0  0  0  0  0  0  0  0  0  0  0
  2  1  1  0  0  0
  2  4  1  0  0  0
  2  5  1  0  0  0
 41 42  1  0  0  0
 41  1  1  0  0  0
 42 46  1  0  0  0
  1 24  1  0  0  0
 23 24  1  0  0  0
 23 25  1  0  0  0
 24 26  1  0  0  0
  3  4  2  0  0  0
 26 27  2  0  0  0
 27 28  1  0  0  0
 43 47  1  0  0  0
 43 51  1  0  0  0
 28 29  1  0  0  0
 56 48  1  0  0  0
 56 60  1  0  0  0
 29 30  1  0  0  0
 57 60  1  0  0  0
 57 61  1  0  0  0
 30 31  1  0  0  0
 44 49  1  0  0  0
 44 52  1  0  0  0
 31 32  1  0  0  0
 45 46  1  0  0  0
 45 50  1  0  0  0
 32 33  1  0  0  0
 53 54  1  0  0  0
 53 55  1  0  0  0
 33 34  1  0  0  0
 34 35  1  0  0  0
 35 36  1  0  0  0
 58 60  1  0  0  0
 36 37  1  0  0  0
 59 60  1  0  0  0
 59 62  1  0  0  0
 37 38  1  0  0  0
 38 39  1  0  0  0
 39 40  1  0  0  0
  4  6  1  0  0  0
  6  7  1  0  0  0
  7  8  1  0  0  0
  8  9  1  0  0  0
  9 10  1  0  0  0
 10 11  1  0  0  0
 11 12  1  0  0  0
 12 13  1  0  0  0
 13 14  1  0  0  0
 14 15  1  0  0  0
 15 16  1  0  0  0
 16 17  1  0  0  0
 17 18  1  0  0  0
 18 19  1  0  0  0
 19 20  1  0  0  0
 20 21  1  0  0  0
 21 22  1  0  0  0
 46 47  1  0  0  0
 47 48  1  0  0  0
 48 49  1  0  0  0
 49 50  1  0  0  0
 50 54  1  0  0  0
M  CHG 1  58  -1
M  END
> <minimizedAffinity>
-9.57019

> <CNNscore>
0.3244206905

> <CNNaffinity>
7.0107192993

> <CNN_VS>
2.2744224072

> <CNNaffinity_variance>
1.7888371944

$$$$
/media/chris/experiments/cd1a-new-docking/inputs/ligands/1onq_ligand.pdb


 62 62  0  0  0  0  0  0  0  0999 V2000
  -41.6065   60.0759   65.3886 C   0  0  0  0  0  0  0  0  0  0  0  0
  -41.6783   58.7379   64.8357 N   0  0  0  0  0  0  0  0  0  0  0  0
  -42.5334   57.5524   66.5709 O   0  0  0  0  0  0  0  0  0  0  0  0
  -42.1146   57.6198   65.4316 C   0  0  0  0  0  0  0  0  0  0  0  0
  -41.3680   58.6382   63.9067 H   0  0  0  0  0  0  0  0  0  0  0  0
  -42.0695   56.3849   64.5815 C   0  0  0  0  0  0  0  0  0  0  0  0
  -42.0224   56.8602   63.1293 C   0  0  0  0  0  0  0  0  0  0  0  0
  -41.2483   55.8575   62.2772 C   0  0  0  0  0  0  0  0  0  0  0  0
  -41.1744   56.1595   60.8001 C   0  0  0  0  0  0  0  0  0  0  0  0
  -41.7736   57.5450   60.5824 C   0  0  0  0  0  0  0  0  0  0  0  0
  -41.0921   58.3133   59.4421 C   0  0  0  0  0  0  0  0  0  0  0  0
  -40.6113   59.7239   59.8290 C   0  0  0  0  0  0  0  0  0  0  0  0
  -39.0719   59.8433   59.8701 C   0  0  0  0  0  0  0  0  0  0  0  0
  -38.4240   58.4568   59.9207 C   0  0  0  0  0  0  0  0  0  0  0  0
  -37.3299   58.2940   60.9688 C   0  0  0  0  0  0  0  0  0  0  0  0
  -37.7901   57.4668   62.1601 C   0  0  0  0  0  0  0  0  0  0  0  0
  -38.4881   58.2378   63.2828 C   0  0  0  0  0  0  0  0  0  0  0  0
  -37.9079   57.7727   64.6116 C   0  0  0  0  0  0  0  0  0  0  0  0
  -36.3982   57.6314   64.7386 C   0  0  0  0  0  0  0  0  0  0  0  0
  -35.6879   58.9311   64.3284 C   0  0  0  0  0  0  0  0  0  0  0  0
  -34.2018   58.7589   63.9636 C   0  0  0  0  0  0  0  0  0  0  0  0
  -33.3131   58.4696   65.1710 C   0  0  0  0  0  0  0  0  0  0  0  0
  -42.5111   62.1761   64.9804 O   0  0  0  0  0  0  0  0  0  0  0  0
  -42.4319   60.8858   64.4036 C   0  0  0  0  0  0  0  0  0  0  0  0
  -41.6194   62.5487   65.0627 H   0  0  0  0  0  0  0  0  0  0  0  0
  -43.8100   60.2393   64.2450 C   0  0  0  0  0  0  0  0  0  0  0  0
  -44.9082   60.6938   64.8723 C   0  0  0  0  0  0  0  0  0  0  0  0
  -46.2488   59.9922   64.6629 C   0  0  0  0  0  0  0  0  0  0  0  0
  -47.0409   59.7655   65.9587 C   0  0  0  0  0  0  0  0  0  0  0  0
  -48.4733   60.3304   65.9719 C   0  0  0  0  0  0  0  0  0  0  0  0
  -49.0605   60.3721   64.5405 C   0  0  0  0  0  0  0  0  0  0  0  0
  -50.6024   60.5055   64.4613 C   0  0  0  0  0  0  0  0  0  0  0  0
  -51.2562   59.6484   63.3519 C   0  0  0  0  0  0  0  0  0  0  0  0
  -50.4520   58.3789   62.9977 C   0  0  0  0  0  0  0  0  0  0  0  0
  -50.6842   57.8796   61.5665 C   0  0  0  0  0  0  0  0  0  0  0  0
  -49.9369   58.6280   60.4649 C   0  0  0  0  0  0  0  0  0  0  0  0
  -49.7850   57.8276   59.1564 C   0  0  0  0  0  0  0  0  0  0  0  0
  -48.3619   57.3361   58.8510 C   0  0  0  0  0  0  0  0  0  0  0  0
  -48.0256   57.5128   57.3676 C   0  0  0  0  0  0  0  0  0  0  0  0
  -46.8404   58.4057   57.0456 C   0  0  0  0  0  0  0  0  0  0  0  0
  -40.1833   60.5917   65.7008 C   0  0  0  0  0  0  0  0  0  0  0  0
  -39.4959   61.2860   64.6291 O   0  0  0  0  0  0  0  0  0  0  0  0
  -37.7880   61.5712   62.3533 O   0  0  0  0  0  0  0  0  0  0  0  0
  -35.9983   64.5038   64.7189 O   0  0  0  0  0  0  0  0  0  0  0  0
  -37.6436   62.2409   65.8712 O   0  0  0  0  0  0  0  0  0  0  0  0
  -38.0388   61.5194   64.6791 C   0  0  0  0  0  0  0  0  0  0  0  0
  -37.4370   62.2900   63.4954 C   0  0  0  0  0  0  0  0  0  0  0  0
  -35.8971   62.3998   63.5450 C   0  0  0  0  0  0  0  0  0  0  0  0
  -35.5696   63.1472   64.8082 C   0  0  0  0  0  0  0  0  0  0  0  0
  -36.2118   62.4544   65.9964 C   0  0  0  0  0  0  0  0  0  0  0  0
  -38.7536   61.4919   62.3053 H   0  0  0  0  0  0  0  0  0  0  0  0
  -35.5767   64.9265   63.9544 H   0  0  0  0  0  0  0  0  0  0  0  0
  -36.2675   62.8597   68.3514 O   0  0  0  0  0  0  0  0  0  0  0  0
  -35.7736   63.3599   67.1454 C   0  0  0  0  0  0  0  0  0  0  0  0
  -35.9879   63.4365   69.0794 H   0  0  0  0  0  0  0  0  0  0  0  0
  -35.2789   63.1401   62.4682 O   0  0  0  0  0  0  0  0  0  0  0  0
  -33.3021   63.6450   60.8700 O   0  0  0  0  0  0  0  0  0  0  0  0
  -33.0642   61.9203   62.5606 O   0  0  0  0  0  0  0  0  0  0  0  0
  -32.9939   64.2604   63.1879 O   0  0  0  0  0  0  0  0  0  0  0  0
  -33.6299   63.2672   62.2766 S   0  0  0  0  0  0  0  0  0  0  0  0
  -33.7084   63.0086   60.2612 H   0  0  0  0  0  0  0  0  0  0  0  0
  -33.3571   65.1420   63.0094 H   0  0  0  0  0  0  0  0  0  0  0  0
  2  1  1  0  0  0
  2  4  1  0  0  0
  2  5  1  0  0  0
 41 42  1  0  0  0
 41  1  1  0  0  0
 42 46  1  0  0  0
  1 24  1  0  0  0
 23 24  1  0  0  0
 23 25  1  0  0  0
 24 26  1  0  0  0
  3  4  2  0  0  0
 26 27  2  0  0  0
 27 28  1  0  0  0
 43 47  1  0  0  0
 43 51  1  0  0  0
 28 29  1  0  0  0
 56 48  1  0  0  0
 56 60  1  0  0  0
 29 30  1  0  0  0
 57 60  1  0  0  0
 57 61  1  0  0  0
 30 31  1  0  0  0
 44 49  1  0  0  0
 44 52  1  0  0  0
 31 32  1  0  0  0
 45 46  1  0  0  0
 45 50  1  0  0  0
 32 33  1  0  0  0
 53 54  1  0  0  0
 53 55  1  0  0  0
 33 34  1  0  0  0
 34 35  1  0  0  0
 35 36  1  0  0  0
 58 60  1  0  0  0
 36 37  1  0  0  0
 59 60  1  0  0  0
 59 62  1  0  0  0
 37 38  1  0  0  0
 38 39  1  0  0  0
 39 40  1  0  0  0
  4  6  1  0  0  0
  6  7  1  0  0  0
  7  8  1  0  0  0
  8  9  1  0  0  0
  9 10  1  0  0  0
 10 11  1  0  0  0
 11 12  1  0  0  0
 12 13  1  0  0  0
 13 14  1  0  0  0
 14 15  1  0  0  0
 15 16  1  0  0  0
 16 17  1  0  0  0
 17 18  1  0  0  0
 18 19  1  0  0  0
 19 20  1  0  0  0
 20 21  1  0  0  0
 21 22  1  0  0  0
 46 47  1  0  0  0
 47 48  1  0  0  0
 48 49  1  0  0  0
 49 50  1  0  0  0
 50 54  1  0  0  0
M  CHG 1  58  -1
M  END
> <minimizedAffinity>
-9.94008

> <CNNscore>
0.3210895360

> <CNNaffinity>
7.2557282448

> <CNN_VS>
2.3297383785

> <CNNaffinity_variance>
2.0398325920

$$$$
/media/chris/experiments/cd1a-new-docking/inputs/ligands/1onq_ligand.pdb


 62 62  0  0  0  0  0  0  0  0999 V2000
  -40.6260   60.0903   63.9844 C   0  0  0  0  0  0  0  0  0  0  0  0
  -41.9281   60.6969   64.1785 N   0  0  0  0  0  0  0  0  0  0  0  0
  -42.6248   61.0191   62.0436 O   0  0  0  0  0  0  0  0  0  0  0  0
  -42.7989   61.1015   63.2438 C   0  0  0  0  0  0  0  0  0  0  0  0
  -42.2075   60.8279   65.1134 H   0  0  0  0  0  0  0  0  0  0  0  0
  -44.0750   61.6866   63.7719 C   0  0  0  0  0  0  0  0  0  0  0  0
  -44.2832   61.0878   65.1630 C   0  0  0  0  0  0  0  0  0  0  0  0
  -45.4905   60.1534   65.1533 C   0  0  0  0  0  0  0  0  0  0  0  0
  -45.7813   59.4317   66.4468 C   0  0  0  0  0  0  0  0  0  0  0  0
  -46.9520   58.4873   66.1945 C   0  0  0  0  0  0  0  0  0  0  0  0
  -48.0330   59.1088   65.3001 C   0  0  0  0  0  0  0  0  0  0  0  0
  -49.1144   59.8922   66.0665 C   0  0  0  0  0  0  0  0  0  0  0  0
  -50.5410   59.6145   65.5438 C   0  0  0  0  0  0  0  0  0  0  0  0
  -50.8524   60.4952   64.3304 C   0  0  0  0  0  0  0  0  0  0  0  0
  -51.5724   59.7885   63.1883 C   0  0  0  0  0  0  0  0  0  0  0  0
  -50.6594   58.8336   62.4334 C   0  0  0  0  0  0  0  0  0  0  0  0
  -49.3772   59.4425   61.8613 C   0  0  0  0  0  0  0  0  0  0  0  0
  -49.5594   59.6106   60.3590 C   0  0  0  0  0  0  0  0  0  0  0  0
  -49.7277   58.3654   59.5008 C   0  0  0  0  0  0  0  0  0  0  0  0
  -48.3645   57.7375   59.1697 C   0  0  0  0  0  0  0  0  0  0  0  0
  -48.0876   57.5697   57.6642 C   0  0  0  0  0  0  0  0  0  0  0  0
  -46.9375   58.4389   57.1611 C   0  0  0  0  0  0  0  0  0  0  0  0
  -40.2955   61.0589   66.0696 O   0  0  0  0  0  0  0  0  0  0  0  0
  -40.1743   59.8134   65.4080 C   0  0  0  0  0  0  0  0  0  0  0  0
  -41.2229   61.3427   66.0571 H   0  0  0  0  0  0  0  0  0  0  0  0
  -38.7300   59.3070   65.3921 C   0  0  0  0  0  0  0  0  0  0  0  0
  -38.3719   58.1337   64.8432 C   0  0  0  0  0  0  0  0  0  0  0  0
  -36.9081   57.6978   64.8685 C   0  0  0  0  0  0  0  0  0  0  0  0
  -36.2411   57.6790   63.4854 C   0  0  0  0  0  0  0  0  0  0  0  0
  -37.1736   57.3691   62.2998 C   0  0  0  0  0  0  0  0  0  0  0  0
  -37.4287   58.6405   61.4548 C   0  0  0  0  0  0  0  0  0  0  0  0
  -38.1871   58.4089   60.1233 C   0  0  0  0  0  0  0  0  0  0  0  0
  -38.9883   59.6364   59.6289 C   0  0  0  0  0  0  0  0  0  0  0  0
  -40.5186   59.4421   59.6942 C   0  0  0  0  0  0  0  0  0  0  0  0
  -40.9467   57.9940   59.9610 C   0  0  0  0  0  0  0  0  0  0  0  0
  -41.5637   57.7178   61.3303 C   0  0  0  0  0  0  0  0  0  0  0  0
  -40.8525   56.6042   62.1242 C   0  0  0  0  0  0  0  0  0  0  0  0
  -41.5392   56.1945   63.4359 C   0  0  0  0  0  0  0  0  0  0  0  0
  -42.6490   57.1821   63.8075 C   0  0  0  0  0  0  0  0  0  0  0  0
  -43.0252   57.2536   65.2768 C   0  0  0  0  0  0  0  0  0  0  0  0
  -39.6517   60.8801   63.0811 C   0  0  0  0  0  0  0  0  0  0  0  0
  -39.0023   62.0310   63.6787 O   0  0  0  0  0  0  0  0  0  0  0  0
  -36.9264   62.4341   61.7538 O   0  0  0  0  0  0  0  0  0  0  0  0
  -35.1903   64.6147   64.8572 O   0  0  0  0  0  0  0  0  0  0  0  0
  -37.2708   62.4671   65.3211 O   0  0  0  0  0  0  0  0  0  0  0  0
  -37.5550   62.0273   63.9707 C   0  0  0  0  0  0  0  0  0  0  0  0
  -36.6777   62.8865   63.0491 C   0  0  0  0  0  0  0  0  0  0  0  0
  -35.1647   62.7500   63.3284 C   0  0  0  0  0  0  0  0  0  0  0  0
  -34.9551   63.2133   64.7436 C   0  0  0  0  0  0  0  0  0  0  0  0
  -35.8628   62.4352   65.6788 C   0  0  0  0  0  0  0  0  0  0  0  0
  -37.8737   62.5125   61.5603 H   0  0  0  0  0  0  0  0  0  0  0  0
  -34.6010   65.0916   64.2522 H   0  0  0  0  0  0  0  0  0  0  0  0
  -36.3844   64.1033   67.3094 O   0  0  0  0  0  0  0  0  0  0  0  0
  -35.5066   63.0549   67.0283 C   0  0  0  0  0  0  0  0  0  0  0  0
  -36.1561   64.4951   68.1668 H   0  0  0  0  0  0  0  0  0  0  0  0
  -34.2925   63.5591   62.5071 O   0  0  0  0  0  0  0  0  0  0  0  0
  -32.2678   63.7946   60.9065 O   0  0  0  0  0  0  0  0  0  0  0  0
  -32.6776   61.6748   62.0146 O   0  0  0  0  0  0  0  0  0  0  0  0
  -31.7561   63.5414   63.2561 O   0  0  0  0  0  0  0  0  0  0  0  0
  -32.7113   63.1534   62.1797 S   0  0  0  0  0  0  0  0  0  0  0  0
  -32.8787   63.5530   60.1929 H   0  0  0  0  0  0  0  0  0  0  0  0
  -31.7717   64.5046   63.3704 H   0  0  0  0  0  0  0  0  0  0  0  0
  2  1  1  0  0  0
  2  4  1  0  0  0
  2  5  1  0  0  0
 41 42  1  0  0  0
 41  1  1  0  0  0
 42 46  1  0  0  0
  1 24  1  0  0  0
 23 24  1  0  0  0
 23 25  1  0  0  0
 24 26  1  0  0  0
  3  4  2  0  0  0
 26 27  2  0  0  0
 27 28  1  0  0  0
 43 47  1  0  0  0
 43 51  1  0  0  0
 28 29  1  0  0  0
 56 48  1  0  0  0
 56 60  1  0  0  0
 29 30  1  0  0  0
 57 60  1  0  0  0
 57 61  1  0  0  0
 30 31  1  0  0  0
 44 49  1  0  0  0
 44 52  1  0  0  0
 31 32  1  0  0  0
 45 46  1  0  0  0
 45 50  1  0  0  0
 32 33  1  0  0  0
 53 54  1  0  0  0
 53 55  1  0  0  0
 33 34  1  0  0  0
 34 35  1  0  0  0
 35 36  1  0  0  0
 58 60  1  0  0  0
 36 37  1  0  0  0
 59 60  1  0  0  0
 59 62  1  0  0  0
 37 38  1  0  0  0
 38 39  1  0  0  0
 39 40  1  0  0  0
  4  6  1  0  0  0
  6  7  1  0  0  0
  7  8  1  0  0  0
  8  9  1  0  0  0
  9 10  1  0  0  0
 10 11  1  0  0  0
 11 12  1  0  0  0
 12 13  1  0  0  0
 13 14  1  0  0  0
 14 15  1  0  0  0
 15 16  1  0  0  0
 16 17  1  0  0  0
 17 18  1  0  0  0
 18 19  1  0  0  0
 19 20  1  0  0  0
 20 21  1  0  0  0
 21 22  1  0  0  0
 46 47  1  0  0  0
 47 48  1  0  0  0
 48 49  1  0  0  0
 49 50  1  0  0  0
 50 54  1  0  0  0
M  CHG 1  58  -1
M  END
> <minimizedAffinity>
-9.71548

> <CNNscore>
0.2607999146

> <CNNaffinity>
7.3680458069

> <CNN_VS>
1.9215856791

> <CNNaffinity_variance>
1.3897385597

$$$$
/media/chris/experiments/cd1a-new-docking/inputs/ligands/1onq_ligand.pdb


 62 62  0  0  0  0  0  0  0  0999 V2000
  -41.4574   60.0369   65.5442 C   0  0  0  0  0  0  0  0  0  0  0  0
  -41.5571   59.6592   64.1483 N   0  0  0  0  0  0  0  0  0  0  0  0
  -41.3053   61.6542   63.0976 O   0  0  0  0  0  0  0  0  0  0  0  0
  -41.4788   60.4513   63.0703 C   0  0  0  0  0  0  0  0  0  0  0  0
  -41.7002   58.7016   63.9701 H   0  0  0  0  0  0  0  0  0  0  0  0
  -41.6135   59.7490   61.7519 C   0  0  0  0  0  0  0  0  0  0  0  0
  -42.0945   58.3316   62.0632 C   0  0  0  0  0  0  0  0  0  0  0  0
  -41.4268   57.3351   61.1188 C   0  0  0  0  0  0  0  0  0  0  0  0
  -40.3977   56.4210   61.7384 C   0  0  0  0  0  0  0  0  0  0  0  0
  -39.0474   57.1254   61.6578 C   0  0  0  0  0  0  0  0  0  0  0  0
  -38.6517   57.8015   62.9774 C   0  0  0  0  0  0  0  0  0  0  0  0
  -37.1612   57.6622   63.3371 C   0  0  0  0  0  0  0  0  0  0  0  0
  -36.2262   58.2682   62.2674 C   0  0  0  0  0  0  0  0  0  0  0  0
  -34.7664   57.9109   62.5613 C   0  0  0  0  0  0  0  0  0  0  0  0
  -33.9564   59.0112   63.2361 C   0  0  0  0  0  0  0  0  0  0  0  0
  -32.5226   58.5847   63.5140 C   0  0  0  0  0  0  0  0  0  0  0  0
  -31.4344   59.5759   63.0950 C   0  0  0  0  0  0  0  0  0  0  0  0
  -31.9423   60.3597   61.8924 C   0  0  0  0  0  0  0  0  0  0  0  0
  -30.9293   61.0513   60.9919 C   0  0  0  0  0  0  0  0  0  0  0  0
  -29.8081   61.6979   61.8208 C   0  0  0  0  0  0  0  0  0  0  0  0
  -29.9500   63.2196   62.0096 C   0  0  0  0  0  0  0  0  0  0  0  0
  -30.5737   63.6064   63.3486 C   0  0  0  0  0  0  0  0  0  0  0  0
  -42.3101   61.7983   66.7958 O   0  0  0  0  0  0  0  0  0  0  0  0
  -42.6670   60.9367   65.7308 C   0  0  0  0  0  0  0  0  0  0  0  0
  -41.5339   62.3217   66.5419 H   0  0  0  0  0  0  0  0  0  0  0  0
  -43.8894   60.0794   66.0675 C   0  0  0  0  0  0  0  0  0  0  0  0
  -44.9883   60.0364   65.2950 C   0  0  0  0  0  0  0  0  0  0  0  0
  -46.1686   59.1556   65.7003 C   0  0  0  0  0  0  0  0  0  0  0  0
  -47.4370   59.3944   64.8684 C   0  0  0  0  0  0  0  0  0  0  0  0
  -48.6769   58.5878   65.2966 C   0  0  0  0  0  0  0  0  0  0  0  0
  -49.8851   59.5245   65.5378 C   0  0  0  0  0  0  0  0  0  0  0  0
  -50.2056   60.5028   64.3794 C   0  0  0  0  0  0  0  0  0  0  0  0
  -51.4461   60.1095   63.5431 C   0  0  0  0  0  0  0  0  0  0  0  0
  -51.2385   58.8395   62.6900 C   0  0  0  0  0  0  0  0  0  0  0  0
  -50.1116   58.9660   61.6577 C   0  0  0  0  0  0  0  0  0  0  0  0
  -50.2993   58.1838   60.3596 C   0  0  0  0  0  0  0  0  0  0  0  0
  -49.0553   57.3840   59.9253 C   0  0  0  0  0  0  0  0  0  0  0  0
  -48.7333   57.4381   58.4241 C   0  0  0  0  0  0  0  0  0  0  0  0
  -47.2219   57.5068   58.1880 C   0  0  0  0  0  0  0  0  0  0  0  0
  -46.7589   58.3609   57.0211 C   0  0  0  0  0  0  0  0  0  0  0  0
  -40.0883   60.6031   65.9845 C   0  0  0  0  0  0  0  0  0  0  0  0
  -38.9131   59.9808   65.4058 O   0  0  0  0  0  0  0  0  0  0  0  0
  -38.2551   61.1395   62.8757 O   0  0  0  0  0  0  0  0  0  0  0  0
  -36.9186   64.2930   65.2565 O   0  0  0  0  0  0  0  0  0  0  0  0
  -37.2068   61.4629   66.2876 O   0  0  0  0  0  0  0  0  0  0  0  0
  -37.6958   60.7648   65.1166 C   0  0  0  0  0  0  0  0  0  0  0  0
  -37.8204   61.8226   64.0108 C   0  0  0  0  0  0  0  0  0  0  0  0
  -36.4878   62.5265   63.6726 C   0  0  0  0  0  0  0  0  0  0  0  0
  -36.0440   63.2146   64.9339 C   0  0  0  0  0  0  0  0  0  0  0  0
  -35.9803   62.2114   66.0714 C   0  0  0  0  0  0  0  0  0  0  0  0
  -39.0927   60.6903   63.0696 H   0  0  0  0  0  0  0  0  0  0  0  0
  -36.9443   64.9207   64.5174 H   0  0  0  0  0  0  0  0  0  0  0  0
  -34.1482   62.9969   67.3905 O   0  0  0  0  0  0  0  0  0  0  0  0
  -35.5312   63.0988   67.2302 C   0  0  0  0  0  0  0  0  0  0  0  0
  -33.8655   63.5613   68.1269 H   0  0  0  0  0  0  0  0  0  0  0  0
  -36.5525   63.5526   62.6563 O   0  0  0  0  0  0  0  0  0  0  0  0
  -34.0394   63.2174   62.1187 O   0  0  0  0  0  0  0  0  0  0  0  0
  -34.9632   65.4608   62.1722 O   0  0  0  0  0  0  0  0  0  0  0  0
  -35.4327   63.9932   60.3013 O   0  0  0  0  0  0  0  0  0  0  0  0
  -35.2297   64.0511   61.7767 S   0  0  0  0  0  0  0  0  0  0  0  0
  -33.8914   63.2429   63.0769 H   0  0  0  0  0  0  0  0  0  0  0  0
  -35.6071   63.0771   60.0345 H   0  0  0  0  0  0  0  0  0  0  0  0
  2  1  1  0  0  0
  2  4  1  0  0  0
  2  5  1  0  0  0
 41 42  1  0  0  0
 41  1  1  0  0  0
 42 46  1  0  0  0
  1 24  1  0  0  0
 23 24  1  0  0  0
 23 25  1  0  0  0
 24 26  1  0  0  0
  3  4  2  0  0  0
 26 27  2  0  0  0
 27 28  1  0  0  0
 43 47  1  0  0  0
 43 51  1  0  0  0
 28 29  1  0  0  0
 56 48  1  0  0  0
 56 60  1  0  0  0
 29 30  1  0  0  0
 57 60  1  0  0  0
 57 61  1  0  0  0
 30 31  1  0  0  0
 44 49  1  0  0  0
 44 52  1  0  0  0
 31 32  1  0  0  0
 45 46  1  0  0  0
 45 50  1  0  0  0
 32 33  1  0  0  0
 53 54  1  0  0  0
 53 55  1  0  0  0
 33 34  1  0  0  0
 34 35  1  0  0  0
 35 36  1  0  0  0
 58 60  1  0  0  0
 36 37  1  0  0  0
 59 60  1  0  0  0
 59 62  1  0  0  0
 37 38  1  0  0  0
 38 39  1  0  0  0
 39 40  1  0  0  0
  4  6  1  0  0  0
  6  7  1  0  0  0
  7  8  1  0  0  0
  8  9  1  0  0  0
  9 10  1  0  0  0
 10 11  1  0  0  0
 11 12  1  0  0  0
 12 13  1  0  0  0
 13 14  1  0  0  0
 14 15  1  0  0  0
 15 16  1  0  0  0
 16 17  1  0  0  0
 17 18  1  0  0  0
 18 19  1  0  0  0
 19 20  1  0  0  0
 20 21  1  0  0  0
 21 22  1  0  0  0
 46 47  1  0  0  0
 47 48  1  0  0  0
 48 49  1  0  0  0
 49 50  1  0  0  0
 50 54  1  0  0  0
M  CHG 1  58  -1
M  END
> <minimizedAffinity>
-9.02926

> <CNNscore>
0.2453088313

> <CNNaffinity>
6.9380578995

> <CNN_VS>
1.7019668818

> <CNNaffinity_variance>
1.1342364550

$$$$
/media/chris/experiments/cd1a-new-docking/inputs/ligands/1onq_ligand.pdb


 62 62  0  0  0  0  0  0  0  0999 V2000
  -40.8601   59.8052   63.4875 C   0  0  0  0  0  0  0  0  0  0  0  0
  -42.2540   59.9642   63.8523 N   0  0  0  0  0  0  0  0  0  0  0  0
  -42.5565   62.1995   63.6084 O   0  0  0  0  0  0  0  0  0  0  0  0
  -42.9754   61.0930   63.8876 C   0  0  0  0  0  0  0  0  0  0  0  0
  -42.7299   59.1404   64.1057 H   0  0  0  0  0  0  0  0  0  0  0  0
  -44.4067   60.9222   64.3020 C   0  0  0  0  0  0  0  0  0  0  0  0
  -44.3827   60.4143   65.7437 C   0  0  0  0  0  0  0  0  0  0  0  0
  -45.0530   59.0450   65.8255 C   0  0  0  0  0  0  0  0  0  0  0  0
  -46.1261   58.7693   64.8004 C   0  0  0  0  0  0  0  0  0  0  0  0
  -47.3872   58.3573   65.5526 C   0  0  0  0  0  0  0  0  0  0  0  0
  -48.0069   59.5133   66.3491 C   0  0  0  0  0  0  0  0  0  0  0  0
  -48.9890   60.3821   65.5422 C   0  0  0  0  0  0  0  0  0  0  0  0
  -50.3669   59.7110   65.3511 C   0  0  0  0  0  0  0  0  0  0  0  0
  -51.1754   60.4358   64.2714 C   0  0  0  0  0  0  0  0  0  0  0  0
  -51.4760   59.6094   63.0269 C   0  0  0  0  0  0  0  0  0  0  0  0
  -50.4875   58.4680   62.8393 C   0  0  0  0  0  0  0  0  0  0  0  0
  -49.3320   58.7331   61.8716 C   0  0  0  0  0  0  0  0  0  0  0  0
  -49.6730   58.0879   60.5352 C   0  0  0  0  0  0  0  0  0  0  0  0
  -49.0258   56.7570   60.1816 C   0  0  0  0  0  0  0  0  0  0  0  0
  -47.7971   56.9648   59.2820 C   0  0  0  0  0  0  0  0  0  0  0  0
  -48.1214   57.4757   57.8661 C   0  0  0  0  0  0  0  0  0  0  0  0
  -47.0157   58.3430   57.2689 C   0  0  0  0  0  0  0  0  0  0  0  0
  -41.6361   57.6697   63.9709 O   0  0  0  0  0  0  0  0  0  0  0  0
  -40.7944   58.3496   63.0581 C   0  0  0  0  0  0  0  0  0  0  0  0
  -42.5417   58.0072   63.8885 H   0  0  0  0  0  0  0  0  0  0  0  0
  -39.3456   57.8627   63.1371 C   0  0  0  0  0  0  0  0  0  0  0  0
  -38.4485   58.0727   62.1587 C   0  0  0  0  0  0  0  0  0  0  0  0
  -37.0201   57.5538   62.3125 C   0  0  0  0  0  0  0  0  0  0  0  0
  -36.1209   58.4540   63.1722 C   0  0  0  0  0  0  0  0  0  0  0  0
  -34.7345   57.8785   63.5155 C   0  0  0  0  0  0  0  0  0  0  0  0
  -33.6715   58.3647   62.5010 C   0  0  0  0  0  0  0  0  0  0  0  0
  -33.1503   59.8063   62.7284 C   0  0  0  0  0  0  0  0  0  0  0  0
  -31.6093   59.9363   62.6892 C   0  0  0  0  0  0  0  0  0  0  0  0
  -31.0742   60.5449   61.3749 C   0  0  0  0  0  0  0  0  0  0  0  0
  -30.2638   61.8312   61.5747 C   0  0  0  0  0  0  0  0  0  0  0  0
  -31.0420   63.1400   61.4576 C   0  0  0  0  0  0  0  0  0  0  0  0
  -30.7477   64.1464   62.5875 C   0  0  0  0  0  0  0  0  0  0  0  0
  -31.5410   63.9252   63.8843 C   0  0  0  0  0  0  0  0  0  0  0  0
  -30.8216   64.5507   65.0826 C   0  0  0  0  0  0  0  0  0  0  0  0
  -31.6891   65.3127   66.0687 C   0  0  0  0  0  0  0  0  0  0  0  0
  -39.8371   60.2695   64.5490 C   0  0  0  0  0  0  0  0  0  0  0  0
  -39.1545   61.5220   64.2870 O   0  0  0  0  0  0  0  0  0  0  0  0
  -37.1920   61.8476   62.2328 O   0  0  0  0  0  0  0  0  0  0  0  0
  -35.5219   64.5095   64.9759 O   0  0  0  0  0  0  0  0  0  0  0  0
  -37.4032   62.2817   65.7841 O   0  0  0  0  0  0  0  0  0  0  0  0
  -37.7016   61.6629   64.5091 C   0  0  0  0  0  0  0  0  0  0  0  0
  -36.9319   62.4695   63.4534 C   0  0  0  0  0  0  0  0  0  0  0  0
  -35.4035   62.4824   63.6753 C   0  0  0  0  0  0  0  0  0  0  0  0
  -35.1787   63.1265   65.0154 C   0  0  0  0  0  0  0  0  0  0  0  0
  -35.9847   62.3996   66.0766 C   0  0  0  0  0  0  0  0  0  0  0  0
  -38.1491   61.8303   62.0762 H   0  0  0  0  0  0  0  0  0  0  0  0
  -34.9962   64.9538   64.2924 H   0  0  0  0  0  0  0  0  0  0  0  0
  -34.2420   63.2459   67.4765 O   0  0  0  0  0  0  0  0  0  0  0  0
  -35.6291   63.2018   67.3264 C   0  0  0  0  0  0  0  0  0  0  0  0
  -34.0187   63.7559   68.2709 H   0  0  0  0  0  0  0  0  0  0  0  0
  -34.6310   63.2510   62.7253 O   0  0  0  0  0  0  0  0  0  0  0  0
  -35.6619   63.8423   60.4222 O   0  0  0  0  0  0  0  0  0  0  0  0
  -34.2384   65.4547   61.5460 O   0  0  0  0  0  0  0  0  0  0  0  0
  -36.5024   65.0761   62.3242 O   0  0  0  0  0  0  0  0  0  0  0  0
  -35.2930   64.4240   61.7467 S   0  0  0  0  0  0  0  0  0  0  0  0
  -34.8857   63.4127   60.0302 H   0  0  0  0  0  0  0  0  0  0  0  0
  -37.1956   64.4109   62.4583 H   0  0  0  0  0  0  0  0  0  0  0  0
  2  1  1  0  0  0
  2  4  1  0  0  0
  2  5  1  0  0  0
 41 42  1  0  0  0
 41  1  1  0  0  0
 42 46  1  0  0  0
  1 24  1  0  0  0
 23 24  1  0  0  0
 23 25  1  0  0  0
 24 26  1  0  0  0
  3  4  2  0  0  0
 26 27  2  0  0  0
 27 28  1  0  0  0
 43 47  1  0  0  0
 43 51  1  0  0  0
 28 29  1  0  0  0
 56 48  1  0  0  0
 56 60  1  0  0  0
 29 30  1  0  0  0
 57 60  1  0  0  0
 57 61  1  0  0  0
 30 31  1  0  0  0
 44 49  1  0  0  0
 44 52  1  0  0  0
 31 32  1  0  0  0
 45 46  1  0  0  0
 45 50  1  0  0  0
 32 33  1  0  0  0
 53 54  1  0  0  0
 53 55  1  0  0  0
 33 34  1  0  0  0
 34 35  1  0  0  0
 35 36  1  0  0  0
 58 60  1  0  0  0
 36 37  1  0  0  0
 59 60  1  0  0  0
 59 62  1  0  0  0
 37 38  1  0  0  0
 38 39  1  0  0  0
 39 40  1  0  0  0
  4  6  1  0  0  0
  6  7  1  0  0  0
  7  8  1  0  0  0
  8  9  1  0  0  0
  9 10  1  0  0  0
 10 11  1  0  0  0
 11 12  1  0  0  0
 12 13  1  0  0  0
 13 14  1  0  0  0
 14 15  1  0  0  0
 15 16  1  0  0  0
 16 17  1  0  0  0
 17 18  1  0  0  0
 18 19  1  0  0  0
 19 20  1  0  0  0
 20 21  1  0  0  0
 21 22  1  0  0  0
 46 47  1  0  0  0
 47 48  1  0  0  0
 48 49  1  0  0  0
 49 50  1  0  0  0
 50 54  1  0  0  0
M  CHG 1  58  -1
M  END
> <minimizedAffinity>
-9.09578

> <CNNscore>
0.2200943083

> <CNNaffinity>
6.5902051926

> <CNN_VS>
1.4504666328

> <CNNaffinity_variance>
1.0464411974

$$$$
/media/chris/experiments/cd1a-new-docking/inputs/ligands/1onq_ligand.pdb


 62 62  0  0  0  0  0  0  0  0999 V2000
  -40.9449   59.8564   64.2056 C   0  0  0  0  0  0  0  0  0  0  0  0
  -42.2784   60.2666   64.5988 N   0  0  0  0  0  0  0  0  0  0  0  0
  -42.8309   61.7265   62.9523 O   0  0  0  0  0  0  0  0  0  0  0  0
  -43.0936   61.1308   63.9789 C   0  0  0  0  0  0  0  0  0  0  0  0
  -42.6287   59.8597   65.4240 H   0  0  0  0  0  0  0  0  0  0  0  0
  -44.4245   61.3376   64.6390 C   0  0  0  0  0  0  0  0  0  0  0  0
  -45.1131   59.9729   64.6627 C   0  0  0  0  0  0  0  0  0  0  0  0
  -45.7179   59.7177   66.0410 C   0  0  0  0  0  0  0  0  0  0  0  0
  -47.1941   60.0007   66.1805 C   0  0  0  0  0  0  0  0  0  0  0  0
  -47.8925   59.4200   64.9554 C   0  0  0  0  0  0  0  0  0  0  0  0
  -49.0115   58.4359   65.3216 C   0  0  0  0  0  0  0  0  0  0  0  0
  -50.3431   59.1069   65.7053 C   0  0  0  0  0  0  0  0  0  0  0  0
  -50.6250   60.3897   64.8927 C   0  0  0  0  0  0  0  0  0  0  0  0
  -51.5137   60.0794   63.6849 C   0  0  0  0  0  0  0  0  0  0  0  0
  -50.7646   59.6905   62.4160 C   0  0  0  0  0  0  0  0  0  0  0  0
  -50.8940   58.2076   62.1010 C   0  0  0  0  0  0  0  0  0  0  0  0
  -50.4352   57.7753   60.7064 C   0  0  0  0  0  0  0  0  0  0  0  0
  -49.7056   58.9460   60.0614 C   0  0  0  0  0  0  0  0  0  0  0  0
  -48.6704   58.6562   58.9845 C   0  0  0  0  0  0  0  0  0  0  0  0
  -48.1002   57.2372   59.1377 C   0  0  0  0  0  0  0  0  0  0  0  0
  -46.9579   56.8993   58.1618 C   0  0  0  0  0  0  0  0  0  0  0  0
  -46.7441   57.9654   57.0899 C   0  0  0  0  0  0  0  0  0  0  0  0
  -39.7967   57.9164   64.7660 O   0  0  0  0  0  0  0  0  0  0  0  0
  -41.0409   58.3408   64.2409 C   0  0  0  0  0  0  0  0  0  0  0  0
  -39.6865   58.2704   65.6623 H   0  0  0  0  0  0  0  0  0  0  0  0
  -41.2783   57.8147   62.8234 C   0  0  0  0  0  0  0  0  0  0  0  0
  -40.8945   56.5905   62.4233 C   0  0  0  0  0  0  0  0  0  0  0  0
  -41.1671   56.1389   60.9897 C   0  0  0  0  0  0  0  0  0  0  0  0
  -41.5235   57.2865   60.0336 C   0  0  0  0  0  0  0  0  0  0  0  0
  -40.3527   57.8584   59.2130 C   0  0  0  0  0  0  0  0  0  0  0  0
  -40.0978   59.3405   59.5789 C   0  0  0  0  0  0  0  0  0  0  0  0
  -38.6311   59.6913   59.9354 C   0  0  0  0  0  0  0  0  0  0  0  0
  -37.8411   58.5291   60.5823 C   0  0  0  0  0  0  0  0  0  0  0  0
  -37.6938   58.6596   62.1137 C   0  0  0  0  0  0  0  0  0  0  0  0
  -36.9321   57.4976   62.7624 C   0  0  0  0  0  0  0  0  0  0  0  0
  -36.2477   57.8031   64.0929 C   0  0  0  0  0  0  0  0  0  0  0  0
  -35.0706   58.7917   63.9789 C   0  0  0  0  0  0  0  0  0  0  0  0
  -34.0540   58.4744   62.8716 C   0  0  0  0  0  0  0  0  0  0  0  0
  -32.6218   58.5148   63.4119 C   0  0  0  0  0  0  0  0  0  0  0  0
  -31.7200   59.6016   62.8540 C   0  0  0  0  0  0  0  0  0  0  0  0
  -39.7878   60.5040   64.9998 C   0  0  0  0  0  0  0  0  0  0  0  0
  -39.0328   61.5378   64.3184 O   0  0  0  0  0  0  0  0  0  0  0  0
  -37.1357   61.9546   62.2197 O   0  0  0  0  0  0  0  0  0  0  0  0
  -35.3693   64.4822   65.0287 O   0  0  0  0  0  0  0  0  0  0  0  0
  -37.2319   62.2231   65.7924 O   0  0  0  0  0  0  0  0  0  0  0  0
  -37.5731   61.6652   64.5001 C   0  0  0  0  0  0  0  0  0  0  0  0
  -36.8345   62.5184   63.4590 C   0  0  0  0  0  0  0  0  0  0  0  0
  -35.2997   62.5177   63.6321 C   0  0  0  0  0  0  0  0  0  0  0  0
  -35.0300   63.0982   64.9929 C   0  0  0  0  0  0  0  0  0  0  0  0
  -35.8044   62.3243   66.0444 C   0  0  0  0  0  0  0  0  0  0  0  0
  -38.0973   61.9466   62.0933 H   0  0  0  0  0  0  0  0  0  0  0  0
  -34.8641   64.9568   64.3502 H   0  0  0  0  0  0  0  0  0  0  0  0
  -36.3271   62.7895   68.3299 O   0  0  0  0  0  0  0  0  0  0  0  0
  -35.4061   63.0666   67.3181 C   0  0  0  0  0  0  0  0  0  0  0  0
  -36.0719   63.2620   69.1377 H   0  0  0  0  0  0  0  0  0  0  0  0
  -34.5552   63.3280   62.6946 O   0  0  0  0  0  0  0  0  0  0  0  0
  -35.6758   63.9183   60.4335 O   0  0  0  0  0  0  0  0  0  0  0  0
  -34.2124   65.5328   61.5018 O   0  0  0  0  0  0  0  0  0  0  0  0
  -36.4438   65.1501   62.3671 O   0  0  0  0  0  0  0  0  0  0  0  0
  -35.2566   64.5002   61.7429 S   0  0  0  0  0  0  0  0  0  0  0  0
  -34.9146   63.4901   60.0115 H   0  0  0  0  0  0  0  0  0  0  0  0
  -37.1301   64.4837   62.5279 H   0  0  0  0  0  0  0  0  0  0  0  0
  2  1  1  0  0  0
  2  4  1  0  0  0
  2  5  1  0  0  0
 41 42  1  0  0  0
 41  1  1  0  0  0
 42 46  1  0  0  0
  1 24  1  0  0  0
 23 24  1  0  0  0
 23 25  1  0  0  0
 24 26  1  0  0  0
  3  4  2  0  0  0
 26 27  2  0  0  0
 27 28  1  0  0  0
 43 47  1  0  0  0
 43 51  1  0  0  0
 28 29  1  0  0  0
 56 48  1  0  0  0
 56 60  1  0  0  0
 29 30  1  0  0  0
 57 60  1  0  0  0
 57 61  1  0  0  0
 30 31  1  0  0  0
 44 49  1  0  0  0
 44 52  1  0  0  0
 31 32  1  0  0  0
 45 46  1  0  0  0
 45 50  1  0  0  0
 32 33  1  0  0  0
 53 54  1  0  0  0
 53 55  1  0  0  0
 33 34  1  0  0  0
 34 35  1  0  0  0
 35 36  1  0  0  0
 58 60  1  0  0  0
 36 37  1  0  0  0
 59 60  1  0  0  0
 59 62  1  0  0  0
 37 38  1  0  0  0
 38 39  1  0  0  0
 39 40  1  0  0  0
  4  6  1  0  0  0
  6  7  1  0  0  0
  7  8  1  0  0  0
  8  9  1  0  0  0
  9 10  1  0  0  0
 10 11  1  0  0  0
 11 12  1  0  0  0
 12 13  1  0  0  0
 13 14  1  0  0  0
 14 15  1  0  0  0
 15 16  1  0  0  0
 16 17  1  0  0  0
 17 18  1  0  0  0
 18 19  1  0  0  0
 19 20  1  0  0  0
 20 21  1  0  0  0
 21 22  1  0  0  0
 46 47  1  0  0  0
 47 48  1  0  0  0
 48 49  1  0  0  0
 49 50  1  0  0  0
 50 54  1  0  0  0
M  CHG 1  58  -1
M  END
> <minimizedAffinity>
-9.80540

> <CNNscore>
0.2073714286

> <CNNaffinity>
7.0363488197

> <CNN_VS>
1.4591376781

> <CNNaffinity_variance>
1.4960753918

$$$$
/media/chris/experiments/cd1a-new-docking/inputs/ligands/1onq_ligand.pdb


 62 62  0  0  0  0  0  0  0  0999 V2000
  -41.5783   60.5693   64.5713 C   0  0  0  0  0  0  0  0  0  0  0  0
  -42.3463   59.3401   64.5947 N   0  0  0  0  0  0  0  0  0  0  0  0
  -41.8553   58.5127   66.6494 O   0  0  0  0  0  0  0  0  0  0  0  0
  -42.4310   58.4373   65.5814 C   0  0  0  0  0  0  0  0  0  0  0  0
  -42.8709   59.1442   63.7850 H   0  0  0  0  0  0  0  0  0  0  0  0
  -43.3247   57.2662   65.2991 C   0  0  0  0  0  0  0  0  0  0  0  0
  -44.7353   57.8295   65.1261 C   0  0  0  0  0  0  0  0  0  0  0  0
  -45.4099   57.9737   66.4881 C   0  0  0  0  0  0  0  0  0  0  0  0
  -46.3515   59.1435   66.6416 C   0  0  0  0  0  0  0  0  0  0  0  0
  -46.5699   59.7442   65.2569 C   0  0  0  0  0  0  0  0  0  0  0  0
  -48.0173   60.2005   65.0301 C   0  0  0  0  0  0  0  0  0  0  0  0
  -48.9948   59.7792   66.1425 C   0  0  0  0  0  0  0  0  0  0  0  0
  -50.3866   59.3846   65.6012 C   0  0  0  0  0  0  0  0  0  0  0  0
  -50.8993   60.4359   64.6128 C   0  0  0  0  0  0  0  0  0  0  0  0
  -51.4428   59.8785   63.3028 C   0  0  0  0  0  0  0  0  0  0  0  0
  -50.3534   59.6983   62.2561 C   0  0  0  0  0  0  0  0  0  0  0  0
  -49.8269   58.2729   62.0740 C   0  0  0  0  0  0  0  0  0  0  0  0
  -50.5457   57.6483   60.8858 C   0  0  0  0  0  0  0  0  0  0  0  0
  -50.2017   58.1366   59.4864 C   0  0  0  0  0  0  0  0  0  0  0  0
  -48.8534   57.5649   59.0204 C   0  0  0  0  0  0  0  0  0  0  0  0
  -47.9103   58.5976   58.3760 C   0  0  0  0  0  0  0  0  0  0  0  0
  -47.0819   58.0253   57.2281 C   0  0  0  0  0  0  0  0  0  0  0  0
  -43.6262   61.3606   63.8125 O   0  0  0  0  0  0  0  0  0  0  0  0
  -42.2540   61.3607   63.4647 C   0  0  0  0  0  0  0  0  0  0  0  0
  -43.7431   61.8045   64.6670 H   0  0  0  0  0  0  0  0  0  0  0  0
  -41.9995   60.6727   62.1214 C   0  0  0  0  0  0  0  0  0  0  0  0
  -41.4071   61.2887   61.0842 C   0  0  0  0  0  0  0  0  0  0  0  0
  -41.1894   60.5331   59.7747 C   0  0  0  0  0  0  0  0  0  0  0  0
  -39.8776   59.7362   59.7275 C   0  0  0  0  0  0  0  0  0  0  0  0
  -39.9984   58.2818   59.2363 C   0  0  0  0  0  0  0  0  0  0  0  0
  -41.1511   57.5499   59.9651 C   0  0  0  0  0  0  0  0  0  0  0  0
  -40.7199   56.6572   61.1561 C   0  0  0  0  0  0  0  0  0  0  0  0
  -39.9587   57.4126   62.2709 C   0  0  0  0  0  0  0  0  0  0  0  0
  -38.4358   57.1581   62.2604 C   0  0  0  0  0  0  0  0  0  0  0  0
  -37.5951   58.4360   62.3679 C   0  0  0  0  0  0  0  0  0  0  0  0
  -36.0803   58.2494   62.3151 C   0  0  0  0  0  0  0  0  0  0  0  0
  -35.4675   57.7289   63.6302 C   0  0  0  0  0  0  0  0  0  0  0  0
  -34.9194   58.8126   64.5711 C   0  0  0  0  0  0  0  0  0  0  0  0
  -33.4184   58.6260   64.8096 C   0  0  0  0  0  0  0  0  0  0  0  0
  -32.5056   58.9241   63.6335 C   0  0  0  0  0  0  0  0  0  0  0  0
  -40.0457   60.3949   64.4727 C   0  0  0  0  0  0  0  0  0  0  0  0
  -39.2767   61.5845   64.1616 O   0  0  0  0  0  0  0  0  0  0  0  0
  -37.3052   61.9103   62.1160 O   0  0  0  0  0  0  0  0  0  0  0  0
  -35.4803   64.3231   64.9878 O   0  0  0  0  0  0  0  0  0  0  0  0
  -37.4810   62.1634   65.6867 O   0  0  0  0  0  0  0  0  0  0  0  0
  -37.8175   61.6319   64.3821 C   0  0  0  0  0  0  0  0  0  0  0  0
  -37.0070   62.4500   63.3666 C   0  0  0  0  0  0  0  0  0  0  0  0
  -35.4796   62.3656   63.5796 C   0  0  0  0  0  0  0  0  0  0  0  0
  -35.2150   62.9230   64.9510 C   0  0  0  0  0  0  0  0  0  0  0  0
  -36.0573   62.1860   65.9765 C   0  0  0  0  0  0  0  0  0  0  0  0
  -38.2623   61.9549   61.9645 H   0  0  0  0  0  0  0  0  0  0  0  0
  -34.9326   64.7735   64.3260 H   0  0  0  0  0  0  0  0  0  0  0  0
  -36.4648   64.0184   67.4563 O   0  0  0  0  0  0  0  0  0  0  0  0
  -35.6535   62.8985   67.2654 C   0  0  0  0  0  0  0  0  0  0  0  0
  -36.2063   64.4691   68.2755 H   0  0  0  0  0  0  0  0  0  0  0  0
  -34.6681   63.1399   62.6676 O   0  0  0  0  0  0  0  0  0  0  0  0
  -35.6418   63.8877   60.3851 O   0  0  0  0  0  0  0  0  0  0  0  0
  -34.1748   65.3842   61.6089 O   0  0  0  0  0  0  0  0  0  0  0  0
  -36.4628   65.0542   62.3374 O   0  0  0  0  0  0  0  0  0  0  0  0
  -35.2706   64.3862   61.7425 S   0  0  0  0  0  0  0  0  0  0  0  0
  -34.8767   63.4489   59.9814 H   0  0  0  0  0  0  0  0  0  0  0  0
  -37.1826   64.4103   62.4281 H   0  0  0  0  0  0  0  0  0  0  0  0
  2  1  1  0  0  0
  2  4  1  0  0  0
  2  5  1  0  0  0
 41 42  1  0  0  0
 41  1  1  0  0  0
 42 46  1  0  0  0
  1 24  1  0  0  0
 23 24  1  0  0  0
 23 25  1  0  0  0
 24 26  1  0  0  0
  3  4  2  0  0  0
 26 27  2  0  0  0
 27 28  1  0  0  0
 43 47  1  0  0  0
 43 51  1  0  0  0
 28 29  1  0  0  0
 56 48  1  0  0  0
 56 60  1  0  0  0
 29 30  1  0  0  0
 57 60  1  0  0  0
 57 61  1  0  0  0
 30 31  1  0  0  0
 44 49  1  0  0  0
 44 52  1  0  0  0
 31 32  1  0  0  0
 45 46  1  0  0  0
 45 50  1  0  0  0
 32 33  1  0  0  0
 53 54  1  0  0  0
 53 55  1  0  0  0
 33 34  1  0  0  0
 34 35  1  0  0  0
 35 36  1  0  0  0
 58 60  1  0  0  0
 36 37  1  0  0  0
 59 60  1  0  0  0
 59 62  1  0  0  0
 37 38  1  0  0  0
 38 39  1  0  0  0
 39 40  1  0  0  0
  4  6  1  0  0  0
  6  7  1  0  0  0
  7  8  1  0  0  0
  8  9  1  0  0  0
  9 10  1  0  0  0
 10 11  1  0  0  0
 11 12  1  0  0  0
 12 13  1  0  0  0
 13 14  1  0  0  0
 14 15  1  0  0  0
 15 16  1  0  0  0
 16 17  1  0  0  0
 17 18  1  0  0  0
 18 19  1  0  0  0
 19 20  1  0  0  0
 20 21  1  0  0  0
 21 22  1  0  0  0
 46 47  1  0  0  0
 47 48  1  0  0  0
 48 49  1  0  0  0
 49 50  1  0  0  0
 50 54  1  0  0  0
M  CHG 1  58  -1
M  END
> <minimizedAffinity>
-9.89759

> <CNNscore>
0.1604483277

> <CNNaffinity>
7.0988755226

> <CNN_VS>
1.1390026808

> <CNNaffinity_variance>
1.7058479786

$$$$
/media/chris/experiments/cd1a-new-docking/inputs/ligands/1onq_ligand.pdb


 62 62  0  0  0  0  0  0  0  0999 V2000
  -44.5640   58.4110   66.3615 C   0  0  0  0  0  0  0  0  0  0  0  0
  -43.9744   57.4290   65.4731 N   0  0  0  0  0  0  0  0  0  0  0  0
  -41.7556   57.7271   65.8416 O   0  0  0  0  0  0  0  0  0  0  0  0
  -42.6750   57.1639   65.2801 C   0  0  0  0  0  0  0  0  0  0  0  0
  -44.6072   56.8897   64.9459 H   0  0  0  0  0  0  0  0  0  0  0  0
  -42.3867   56.0739   64.2909 C   0  0  0  0  0  0  0  0  0  0  0  0
  -41.8615   56.7608   63.0302 C   0  0  0  0  0  0  0  0  0  0  0  0
  -41.2900   55.7211   62.0694 C   0  0  0  0  0  0  0  0  0  0  0  0
  -41.1143   56.1664   60.6378 C   0  0  0  0  0  0  0  0  0  0  0  0
  -41.8066   57.5169   60.4869 C   0  0  0  0  0  0  0  0  0  0  0  0
  -41.0756   58.4525   59.5147 C   0  0  0  0  0  0  0  0  0  0  0  0
  -39.7017   57.9347   59.0513 C   0  0  0  0  0  0  0  0  0  0  0  0
  -38.6069   59.0237   59.0858 C   0  0  0  0  0  0  0  0  0  0  0  0
  -38.0738   59.2084   60.5094 C   0  0  0  0  0  0  0  0  0  0  0  0
  -37.9005   57.9206   61.3054 C   0  0  0  0  0  0  0  0  0  0  0  0
  -37.3548   58.1747   62.7028 C   0  0  0  0  0  0  0  0  0  0  0  0
  -36.0654   57.4341   63.0647 C   0  0  0  0  0  0  0  0  0  0  0  0
  -34.8855   58.3078   62.6607 C   0  0  0  0  0  0  0  0  0  0  0  0
  -33.4777   57.7550   62.8278 C   0  0  0  0  0  0  0  0  0  0  0  0
  -32.4904   58.8702   63.2066 C   0  0  0  0  0  0  0  0  0  0  0  0
  -32.5046   60.0844   62.2597 C   0  0  0  0  0  0  0  0  0  0  0  0
  -32.7332   61.4105   62.9813 C   0  0  0  0  0  0  0  0  0  0  0  0
  -46.0988   56.7720   65.7664 O   0  0  0  0  0  0  0  0  0  0  0  0
  -45.8714   57.7504   66.7638 C   0  0  0  0  0  0  0  0  0  0  0  0
  -45.3753   56.1261   65.7763 H   0  0  0  0  0  0  0  0  0  0  0  0
  -46.9809   58.8040   66.8018 C   0  0  0  0  0  0  0  0  0  0  0  0
  -47.9917   58.8347   65.9166 C   0  0  0  0  0  0  0  0  0  0  0  0
  -49.0612   59.9204   66.0210 C   0  0  0  0  0  0  0  0  0  0  0  0
  -50.4241   59.5076   65.4465 C   0  0  0  0  0  0  0  0  0  0  0  0
  -51.0443   60.4866   64.4326 C   0  0  0  0  0  0  0  0  0  0  0  0
  -51.5696   59.7297   63.1889 C   0  0  0  0  0  0  0  0  0  0  0  0
  -50.6505   58.5966   62.6668 C   0  0  0  0  0  0  0  0  0  0  0  0
  -49.3901   59.0960   61.9216 C   0  0  0  0  0  0  0  0  0  0  0  0
  -49.5760   59.1956   60.3921 C   0  0  0  0  0  0  0  0  0  0  0  0
  -50.0220   57.8829   59.7371 C   0  0  0  0  0  0  0  0  0  0  0  0
  -49.1873   56.6484   60.0709 C   0  0  0  0  0  0  0  0  0  0  0  0
  -48.2423   56.2062   58.9363 C   0  0  0  0  0  0  0  0  0  0  0  0
  -46.9456   57.0204   58.8095 C   0  0  0  0  0  0  0  0  0  0  0  0
  -46.9834   57.9261   57.5754 C   0  0  0  0  0  0  0  0  0  0  0  0
  -48.0772   57.6408   56.5616 C   0  0  0  0  0  0  0  0  0  0  0  0
  -44.6487   59.8492   65.8018 C   0  0  0  0  0  0  0  0  0  0  0  0
  -43.6298   60.7796   66.2485 O   0  0  0  0  0  0  0  0  0  0  0  0
  -40.8194   60.6895   66.7691 O   0  0  0  0  0  0  0  0  0  0  0  0
  -40.6340   59.6708   62.7284 O   0  0  0  0  0  0  0  0  0  0  0  0
  -42.9741   61.1554   63.9433 O   0  0  0  0  0  0  0  0  0  0  0  0
  -42.5761   61.2588   65.3320 C   0  0  0  0  0  0  0  0  0  0  0  0
  -41.2160   60.5546   65.4391 C   0  0  0  0  0  0  0  0  0  0  0  0
  -40.1232   61.1760   64.5418 C   0  0  0  0  0  0  0  0  0  0  0  0
  -40.6134   61.0394   63.1267 C   0  0  0  0  0  0  0  0  0  0  0  0
  -41.9925   61.6606   62.9985 C   0  0  0  0  0  0  0  0  0  0  0  0
  -41.4951   60.3041   67.3486 H   0  0  0  0  0  0  0  0  0  0  0  0
  -39.7446   59.2944   62.8182 H   0  0  0  0  0  0  0  0  0  0  0  0
  -42.6326   62.6136   60.9019 O   0  0  0  0  0  0  0  0  0  0  0  0
  -42.2997   61.4090   61.5239 C   0  0  0  0  0  0  0  0  0  0  0  0
  -42.8272   62.4512   59.9656 H   0  0  0  0  0  0  0  0  0  0  0  0
  -38.8284   60.5343   64.5823 O   0  0  0  0  0  0  0  0  0  0  0  0
  -37.7353   60.8545   66.9103 O   0  0  0  0  0  0  0  0  0  0  0  0
  -37.5250   62.6011   65.2386 O   0  0  0  0  0  0  0  0  0  0  0  0
  -36.2246   60.5649   65.0448 O   0  0  0  0  0  0  0  0  0  0  0  0
  -37.5417   61.1289   65.4556 S   0  0  0  0  0  0  0  0  0  0  0  0
  -38.5891   61.2150   67.1964 H   0  0  0  0  0  0  0  0  0  0  0  0
  -36.2267   59.6048   65.1831 H   0  0  0  0  0  0  0  0  0  0  0  0
  2  1  1  0  0  0
  2  4  1  0  0  0
  2  5  1  0  0  0
 41 42  1  0  0  0
 41  1  1  0  0  0
 42 46  1  0  0  0
  1 24  1  0  0  0
 23 24  1  0  0  0
 23 25  1  0  0  0
 24 26  1  0  0  0
  3  4  2  0  0  0
 26 27  2  0  0  0
 27 28  1  0  0  0
 43 47  1  0  0  0
 43 51  1  0  0  0
 28 29  1  0  0  0
 56 48  1  0  0  0
 56 60  1  0  0  0
 29 30  1  0  0  0
 57 60  1  0  0  0
 57 61  1  0  0  0
 30 31  1  0  0  0
 44 49  1  0  0  0
 44 52  1  0  0  0
 31 32  1  0  0  0
 45 46  1  0  0  0
 45 50  1  0  0  0
 32 33  1  0  0  0
 53 54  1  0  0  0
 53 55  1  0  0  0
 33 34  1  0  0  0
 34 35  1  0  0  0
 35 36  1  0  0  0
 58 60  1  0  0  0
 36 37  1  0  0  0
 59 60  1  0  0  0
 59 62  1  0  0  0
 37 38  1  0  0  0
 38 39  1  0  0  0
 39 40  1  0  0  0
  4  6  1  0  0  0
  6  7  1  0  0  0
  7  8  1  0  0  0
  8  9  1  0  0  0
  9 10  1  0  0  0
 10 11  1  0  0  0
 11 12  1  0  0  0
 12 13  1  0  0  0
 13 14  1  0  0  0
 14 15  1  0  0  0
 15 16  1  0  0  0
 16 17  1  0  0  0
 17 18  1  0  0  0
 18 19  1  0  0  0
 19 20  1  0  0  0
 20 21  1  0  0  0
 21 22  1  0  0  0
 46 47  1  0  0  0
 47 48  1  0  0  0
 48 49  1  0  0  0
 49 50  1  0  0  0
 50 54  1  0  0  0
M  CHG 1  58  -1
M  END
> <minimizedAffinity>
-9.24303

> <CNNscore>
0.1569213420

> <CNNaffinity>
7.0062828064

> <CNN_VS>
1.0994353294

> <CNNaffinity_variance>
2.1445486546

$$$$
/media/chris/experiments/cd1a-new-docking/inputs/ligands/1onq_ligand.pdb


 62 62  0  0  0  0  0  0  0  0999 V2000
  -38.6870   58.9746   63.5363 C   0  0  0  0  0  0  0  0  0  0  0  0
  -40.1305   58.8430   63.5319 N   0  0  0  0  0  0  0  0  0  0  0  0
  -40.4298   56.8617   64.5960 O   0  0  0  0  0  0  0  0  0  0  0  0
  -40.8710   57.8463   64.0360 C   0  0  0  0  0  0  0  0  0  0  0  0
  -40.6290   59.5772   63.1056 H   0  0  0  0  0  0  0  0  0  0  0  0
  -42.3535   58.0107   63.8784 C   0  0  0  0  0  0  0  0  0  0  0  0
  -43.0035   57.1055   64.9249 C   0  0  0  0  0  0  0  0  0  0  0  0
  -44.4353   57.5625   65.1928 C   0  0  0  0  0  0  0  0  0  0  0  0
  -44.9014   57.4786   66.6261 C   0  0  0  0  0  0  0  0  0  0  0  0
  -46.1225   58.3813   66.7673 C   0  0  0  0  0  0  0  0  0  0  0  0
  -46.7856   58.6969   65.4198 C   0  0  0  0  0  0  0  0  0  0  0  0
  -48.3114   58.4914   65.4024 C   0  0  0  0  0  0  0  0  0  0  0  0
  -49.0883   59.7169   65.9317 C   0  0  0  0  0  0  0  0  0  0  0  0
  -49.6898   60.5167   64.7727 C   0  0  0  0  0  0  0  0  0  0  0  0
  -51.0943   60.0948   64.3583 C   0  0  0  0  0  0  0  0  0  0  0  0
  -51.2425   59.9866   62.8479 C   0  0  0  0  0  0  0  0  0  0  0  0
  -50.5339   58.8019   62.1872 C   0  0  0  0  0  0  0  0  0  0  0  0
  -49.6743   59.3359   61.0494 C   0  0  0  0  0  0  0  0  0  0  0  0
  -49.6992   58.6086   59.7132 C   0  0  0  0  0  0  0  0  0  0  0  0
  -48.3621   57.8985   59.4486 C   0  0  0  0  0  0  0  0  0  0  0  0
  -48.1080   57.5452   57.9715 C   0  0  0  0  0  0  0  0  0  0  0  0
  -47.0726   58.4475   57.3042 C   0  0  0  0  0  0  0  0  0  0  0  0
  -36.8356   57.6312   63.1317 O   0  0  0  0  0  0  0  0  0  0  0  0
  -38.2335   57.6663   62.9115 C   0  0  0  0  0  0  0  0  0  0  0  0
  -36.6585   57.6311   64.0854 H   0  0  0  0  0  0  0  0  0  0  0  0
  -38.5827   57.6684   61.4214 C   0  0  0  0  0  0  0  0  0  0  0  0
  -38.2398   58.6676   60.5906 C   0  0  0  0  0  0  0  0  0  0  0  0
  -38.6266   58.5958   59.1146 C   0  0  0  0  0  0  0  0  0  0  0  0
  -39.9646   57.8880   58.8564 C   0  0  0  0  0  0  0  0  0  0  0  0
  -41.2190   58.7749   58.9609 C   0  0  0  0  0  0  0  0  0  0  0  0
  -41.1829   59.6273   60.2523 C   0  0  0  0  0  0  0  0  0  0  0  0
  -41.2016   61.1613   60.0334 C   0  0  0  0  0  0  0  0  0  0  0  0
  -42.1786   61.9216   60.9610 C   0  0  0  0  0  0  0  0  0  0  0  0
  -42.5058   61.1650   62.2665 C   0  0  0  0  0  0  0  0  0  0  0  0
  -43.3114   61.9926   63.2751 C   0  0  0  0  0  0  0  0  0  0  0  0
  -44.3017   61.2171   64.1411 C   0  0  0  0  0  0  0  0  0  0  0  0
  -43.8024   60.9472   65.5743 C   0  0  0  0  0  0  0  0  0  0  0  0
  -42.5722   61.7613   66.0031 C   0  0  0  0  0  0  0  0  0  0  0  0
  -41.3888   60.8431   66.3216 C   0  0  0  0  0  0  0  0  0  0  0  0
  -41.7070   59.5743   67.0925 C   0  0  0  0  0  0  0  0  0  0  0  0
  -38.0575   59.3576   64.8950 C   0  0  0  0  0  0  0  0  0  0  0  0
  -37.5479   60.7101   65.0150 O   0  0  0  0  0  0  0  0  0  0  0  0
  -35.5769   60.0168   63.0627 O   0  0  0  0  0  0  0  0  0  0  0  0
  -33.9848   63.7255   64.1166 O   0  0  0  0  0  0  0  0  0  0  0  0
  -35.8248   62.1512   65.9311 O   0  0  0  0  0  0  0  0  0  0  0  0
  -36.1002   60.9748   65.1324 C   0  0  0  0  0  0  0  0  0  0  0  0
  -35.3395   61.1681   63.8127 C   0  0  0  0  0  0  0  0  0  0  0  0
  -33.8134   61.3233   63.9932 C   0  0  0  0  0  0  0  0  0  0  0  0
  -33.6127   62.5524   64.8361 C   0  0  0  0  0  0  0  0  0  0  0  0
  -34.4114   62.4303   66.1211 C   0  0  0  0  0  0  0  0  0  0  0  0
  -36.5321   59.9028   62.9390 H   0  0  0  0  0  0  0  0  0  0  0  0
  -33.4634   63.7835   63.3008 H   0  0  0  0  0  0  0  0  0  0  0  0
  -33.3533   63.5113   67.9719 O   0  0  0  0  0  0  0  0  0  0  0  0
  -34.0826   63.7546   66.8067 C   0  0  0  0  0  0  0  0  0  0  0  0
  -33.1458   64.3539   68.4053 H   0  0  0  0  0  0  0  0  0  0  0  0
  -33.0500   61.5361   62.7841 O   0  0  0  0  0  0  0  0  0  0  0  0
  -32.9803   59.2210   61.6212 O   0  0  0  0  0  0  0  0  0  0  0  0
  -31.1825   59.8625   63.1198 O   0  0  0  0  0  0  0  0  0  0  0  0
  -31.3279   60.8337   60.9039 O   0  0  0  0  0  0  0  0  0  0  0  0
  -32.1188   60.3536   62.0724 S   0  0  0  0  0  0  0  0  0  0  0  0
  -33.5037   58.8947   62.3698 H   0  0  0  0  0  0  0  0  0  0  0  0
  -31.9308   61.1559   60.2157 H   0  0  0  0  0  0  0  0  0  0  0  0
  2  1  1  0  0  0
  2  4  1  0  0  0
  2  5  1  0  0  0
 41 42  1  0  0  0
 41  1  1  0  0  0
 42 46  1  0  0  0
  1 24  1  0  0  0
 23 24  1  0  0  0
 23 25  1  0  0  0
 24 26  1  0  0  0
  3  4  2  0  0  0
 26 27  2  0  0  0
 27 28  1  0  0  0
 43 47  1  0  0  0
 43 51  1  0  0  0
 28 29  1  0  0  0
 56 48  1  0  0  0
 56 60  1  0  0  0
 29 30  1  0  0  0
 57 60  1  0  0  0
 57 61  1  0  0  0
 30 31  1  0  0  0
 44 49  1  0  0  0
 44 52  1  0  0  0
 31 32  1  0  0  0
 45 46  1  0  0  0
 45 50  1  0  0  0
 32 33  1  0  0  0
 53 54  1  0  0  0
 53 55  1  0  0  0
 33 34  1  0  0  0
 34 35  1  0  0  0
 35 36  1  0  0  0
 58 60  1  0  0  0
 36 37  1  0  0  0
 59 60  1  0  0  0
 59 62  1  0  0  0
 37 38  1  0  0  0
 38 39  1  0  0  0
 39 40  1  0  0  0
  4  6  1  0  0  0
  6  7  1  0  0  0
  7  8  1  0  0  0
  8  9  1  0  0  0
  9 10  1  0  0  0
 10 11  1  0  0  0
 11 12  1  0  0  0
 12 13  1  0  0  0
 13 14  1  0  0  0
 14 15  1  0  0  0
 15 16  1  0  0  0
 16 17  1  0  0  0
 17 18  1  0  0  0
 18 19  1  0  0  0
 19 20  1  0  0  0
 20 21  1  0  0  0
 21 22  1  0  0  0
 46 47  1  0  0  0
 47 48  1  0  0  0
 48 49  1  0  0  0
 49 50  1  0  0  0
 50 54  1  0  0  0
M  CHG 1  58  -1
M  END
> <minimizedAffinity>
-8.85561

> <CNNscore>
0.1302845776

> <CNNaffinity>
6.8382987976

> <CNN_VS>
0.8909248710

> <CNNaffinity_variance>
1.7375867367

$$$$
