/media/chris/experiments/cd1a-new-docking/inputs/ligands/1onq_ligand.pdb


 62 62  0  0  0  0  0  0  0  0999 V2000
  -41.5952   59.9532   65.0469 C   0  0  0  0  0  0  0  0  0  0  0  0
  -41.6391   58.5921   64.5501 N   0  0  0  0  0  0  0  0  0  0  0  0
  -42.8210   57.5329   66.1714 O   0  0  0  0  0  0  0  0  0  0  0  0
  -42.2193   57.5245   65.1152 C   0  0  0  0  0  0  0  0  0  0  0  0
  -41.1864   58.4321   63.6907 H   0  0  0  0  0  0  0  0  0  0  0  0
  -42.0947   56.2463   64.3403 C   0  0  0  0  0  0  0  0  0  0  0  0
  -41.0559   56.5013   63.2480 C   0  0  0  0  0  0  0  0  0  0  0  0
  -41.2584   55.5198   62.0963 C   0  0  0  0  0  0  0  0  0  0  0  0
  -41.4125   56.1297   60.7241 C   0  0  0  0  0  0  0  0  0  0  0  0
  -41.6530   57.6244   60.9087 C   0  0  0  0  0  0  0  0  0  0  0  0
  -41.2951   58.4413   59.6600 C   0  0  0  0  0  0  0  0  0  0  0  0
  -39.9043   58.1296   59.0777 C   0  0  0  0  0  0  0  0  0  0  0  0
  -38.8511   59.2026   59.4315 C   0  0  0  0  0  0  0  0  0  0  0  0
  -37.6879   58.5815   60.2101 C   0  0  0  0  0  0  0  0  0  0  0  0
  -38.0937   57.7433   61.4162 C   0  0  0  0  0  0  0  0  0  0  0  0
  -37.0837   57.8368   62.5504 C   0  0  0  0  0  0  0  0  0  0  0  0
  -37.6655   57.8824   63.9651 C   0  0  0  0  0  0  0  0  0  0  0  0
  -36.5151   58.0579   64.9473 C   0  0  0  0  0  0  0  0  0  0  0  0
  -35.3647   58.9779   64.5660 C   0  0  0  0  0  0  0  0  0  0  0  0
  -34.0099   58.2985   64.8202 C   0  0  0  0  0  0  0  0  0  0  0  0
  -32.8925   58.7184   63.8475 C   0  0  0  0  0  0  0  0  0  0  0  0
  -33.3215   58.6815   62.3825 C   0  0  0  0  0  0  0  0  0  0  0  0
  -42.1886   62.0823   64.3325 O   0  0  0  0  0  0  0  0  0  0  0  0
  -42.3429   60.7223   63.9714 C   0  0  0  0  0  0  0  0  0  0  0  0
  -41.2468   62.3144   64.3230 H   0  0  0  0  0  0  0  0  0  0  0  0
  -43.8110   60.2899   63.9669 C   0  0  0  0  0  0  0  0  0  0  0  0
  -44.7799   60.9823   64.5900 C   0  0  0  0  0  0  0  0  0  0  0  0
  -46.2230   60.4840   64.5400 C   0  0  0  0  0  0  0  0  0  0  0  0
  -46.3644   58.9679   64.7391 C   0  0  0  0  0  0  0  0  0  0  0  0
  -47.7606   58.4791   65.1668 C   0  0  0  0  0  0  0  0  0  0  0  0
  -48.6484   59.6685   65.6058 C   0  0  0  0  0  0  0  0  0  0  0  0
  -50.1753   59.4375   65.4763 C   0  0  0  0  0  0  0  0  0  0  0  0
  -50.9079   60.5049   64.6296 C   0  0  0  0  0  0  0  0  0  0  0  0
  -51.5517   59.9393   63.3452 C   0  0  0  0  0  0  0  0  0  0  0  0
  -50.5369   59.3878   62.3367 C   0  0  0  0  0  0  0  0  0  0  0  0
  -50.7579   57.9469   61.8815 C   0  0  0  0  0  0  0  0  0  0  0  0
  -49.7846   57.4821   60.7804 C   0  0  0  0  0  0  0  0  0  0  0  0
  -49.8691   58.2624   59.4598 C   0  0  0  0  0  0  0  0  0  0  0  0
  -48.9902   57.6187   58.3835 C   0  0  0  0  0  0  0  0  0  0  0  0
  -47.6604   58.2960   58.1036 C   0  0  0  0  0  0  0  0  0  0  0  0
  -40.1931   60.4751   65.4352 C   0  0  0  0  0  0  0  0  0  0  0  0
  -39.4843   61.2401   64.4274 O   0  0  0  0  0  0  0  0  0  0  0  0
  -37.6746   61.5130   62.2301 O   0  0  0  0  0  0  0  0  0  0  0  0
  -36.0487   64.5194   64.6210 O   0  0  0  0  0  0  0  0  0  0  0  0
  -37.7095   62.2498   65.7373 O   0  0  0  0  0  0  0  0  0  0  0  0
  -38.0353   61.4997   64.5420 C   0  0  0  0  0  0  0  0  0  0  0  0
  -37.3903   62.2587   63.3735 C   0  0  0  0  0  0  0  0  0  0  0  0
  -35.8568   62.3962   63.4940 C   0  0  0  0  0  0  0  0  0  0  0  0
  -35.6022   63.1724   64.7566 C   0  0  0  0  0  0  0  0  0  0  0  0
  -36.2889   62.4905   65.9261 C   0  0  0  0  0  0  0  0  0  0  0  0
  -38.6354   61.4161   62.1379 H   0  0  0  0  0  0  0  0  0  0  0  0
  -35.5981   64.9353   63.8694 H   0  0  0  0  0  0  0  0  0  0  0  0
  -36.2458   62.8208   68.2931 O   0  0  0  0  0  0  0  0  0  0  0  0
  -35.9211   63.4245   67.0770 C   0  0  0  0  0  0  0  0  0  0  0  0
  -36.0113   63.4159   69.0223 H   0  0  0  0  0  0  0  0  0  0  0  0
  -35.2001   63.1272   62.4336 O   0  0  0  0  0  0  0  0  0  0  0  0
  -32.8560   62.1829   63.0084 O   0  0  0  0  0  0  0  0  0  0  0  0
  -33.2367   64.5779   63.0977 O   0  0  0  0  0  0  0  0  0  0  0  0
  -33.0288   63.4555   60.9597 O   0  0  0  0  0  0  0  0  0  0  0  0
  -33.5497   63.3297   62.3506 S   0  0  0  0  0  0  0  0  0  0  0  0
  -33.1827   62.0853   63.9165 H   0  0  0  0  0  0  0  0  0  0  0  0
  -33.2286   62.6453   60.4652 H   0  0  0  0  0  0  0  0  0  0  0  0
  2  1  1  0  0  0
  2  4  1  0  0  0
  2  5  1  0  0  0
 41 42  1  0  0  0
 41  1  1  0  0  0
 42 46  1  0  0  0
  1 24  1  0  0  0
 23 24  1  0  0  0
 23 25  1  0  0  0
 24 26  1  0  0  0
  3  4  2  0  0  0
 26 27  2  0  0  0
 27 28  1  0  0  0
 43 47  1  0  0  0
 43 51  1  0  0  0
 28 29  1  0  0  0
 56 48  1  0  0  0
 56 60  1  0  0  0
 29 30  1  0  0  0
 57 60  1  0  0  0
 57 61  1  0  0  0
 30 31  1  0  0  0
 44 49  1  0  0  0
 44 52  1  0  0  0
 31 32  1  0  0  0
 45 46  1  0  0  0
 45 50  1  0  0  0
 32 33  1  0  0  0
 53 54  1  0  0  0
 53 55  1  0  0  0
 33 34  1  0  0  0
 34 35  1  0  0  0
 35 36  1  0  0  0
 58 60  1  0  0  0
 36 37  1  0  0  0
 59 60  1  0  0  0
 59 62  1  0  0  0
 37 38  1  0  0  0
 38 39  1  0  0  0
 39 40  1  0  0  0
  4  6  1  0  0  0
  6  7  1  0  0  0
  7  8  1  0  0  0
  8  9  1  0  0  0
  9 10  1  0  0  0
 10 11  1  0  0  0
 11 12  1  0  0  0
 12 13  1  0  0  0
 13 14  1  0  0  0
 14 15  1  0  0  0
 15 16  1  0  0  0
 16 17  1  0  0  0
 17 18  1  0  0  0
 18 19  1  0  0  0
 19 20  1  0  0  0
 20 21  1  0  0  0
 21 22  1  0  0  0
 46 47  1  0  0  0
 47 48  1  0  0  0
 48 49  1  0  0  0
 49 50  1  0  0  0
 50 54  1  0  0  0
M  CHG 1  58  -1
M  END
> <minimizedAffinity>
-9.93335

> <CNNscore>
0.3145942688

> <CNNaffinity>
7.1713562012

> <CNN_VS>
2.2560675144

> <CNNaffinity_variance>
2.1570343971

$$$$
/media/chris/experiments/cd1a-new-docking/inputs/ligands/1onq_ligand.pdb


 62 62  0  0  0  0  0  0  0  0999 V2000
  -39.0702   60.4121   64.7115 C   0  0  0  0  0  0  0  0  0  0  0  0
  -40.4358   60.5160   65.1865 N   0  0  0  0  0  0  0  0  0  0  0  0
  -41.4906   61.4372   63.4015 O   0  0  0  0  0  0  0  0  0  0  0  0
  -41.5031   60.9971   64.5346 C   0  0  0  0  0  0  0  0  0  0  0  0
  -40.5994   60.1930   66.1020 H   0  0  0  0  0  0  0  0  0  0  0  0
  -42.7903   60.9598   65.3038 C   0  0  0  0  0  0  0  0  0  0  0  0
  -43.9130   61.1110   64.2772 C   0  0  0  0  0  0  0  0  0  0  0  0
  -45.2641   60.8549   64.9404 C   0  0  0  0  0  0  0  0  0  0  0  0
  -46.4803   61.0675   64.0720 C   0  0  0  0  0  0  0  0  0  0  0  0
  -47.3776   59.8443   64.2283 C   0  0  0  0  0  0  0  0  0  0  0  0
  -48.6543   60.1433   65.0255 C   0  0  0  0  0  0  0  0  0  0  0  0
  -49.7158   60.9392   64.2440 C   0  0  0  0  0  0  0  0  0  0  0  0
  -51.1197   60.2994   64.3167 C   0  0  0  0  0  0  0  0  0  0  0  0
  -51.4541   59.5807   63.0065 C   0  0  0  0  0  0  0  0  0  0  0  0
  -50.6363   58.3243   62.7332 C   0  0  0  0  0  0  0  0  0  0  0  0
  -49.8083   58.4395   61.4619 C   0  0  0  0  0  0  0  0  0  0  0  0
  -50.4889   57.9728   60.1731 C   0  0  0  0  0  0  0  0  0  0  0  0
  -49.4056   57.6530   59.1518 C   0  0  0  0  0  0  0  0  0  0  0  0
  -48.2666   56.7311   59.5614 C   0  0  0  0  0  0  0  0  0  0  0  0
  -47.4292   56.3162   58.3413 C   0  0  0  0  0  0  0  0  0  0  0  0
  -47.6697   57.1690   57.0819 C   0  0  0  0  0  0  0  0  0  0  0  0
  -46.8149   58.4335   57.0365 C   0  0  0  0  0  0  0  0  0  0  0  0
  -37.9961   58.4095   65.1926 O   0  0  0  0  0  0  0  0  0  0  0  0
  -38.9678   58.9490   64.3161 C   0  0  0  0  0  0  0  0  0  0  0  0
  -38.3050   58.4926   66.1084 H   0  0  0  0  0  0  0  0  0  0  0  0
  -38.5408   58.8488   62.8498 C   0  0  0  0  0  0  0  0  0  0  0  0
  -38.7376   59.8376   61.9610 C   0  0  0  0  0  0  0  0  0  0  0  0
  -38.2832   59.6604   60.5134 C   0  0  0  0  0  0  0  0  0  0  0  0
  -38.7707   58.3570   59.8640 C   0  0  0  0  0  0  0  0  0  0  0  0
  -40.2158   58.3769   59.3324 C   0  0  0  0  0  0  0  0  0  0  0  0
  -41.0170   57.1686   59.8739 C   0  0  0  0  0  0  0  0  0  0  0  0
  -41.4405   57.2684   61.3614 C   0  0  0  0  0  0  0  0  0  0  0  0
  -40.9689   56.0823   62.2352 C   0  0  0  0  0  0  0  0  0  0  0  0
  -41.7768   55.9175   63.5407 C   0  0  0  0  0  0  0  0  0  0  0  0
  -42.2789   57.2420   64.1279 C   0  0  0  0  0  0  0  0  0  0  0  0
  -42.0933   57.4223   65.6330 C   0  0  0  0  0  0  0  0  0  0  0  0
  -43.4149   57.5545   66.4152 C   0  0  0  0  0  0  0  0  0  0  0  0
  -44.6911   57.4612   65.5651 C   0  0  0  0  0  0  0  0  0  0  0  0
  -45.9358   57.3579   66.4512 C   0  0  0  0  0  0  0  0  0  0  0  0
  -46.1638   58.4958   67.4304 C   0  0  0  0  0  0  0  0  0  0  0  0
  -37.9881   60.9558   65.6718 C   0  0  0  0  0  0  0  0  0  0  0  0
  -37.4310   62.2558   65.3512 O   0  0  0  0  0  0  0  0  0  0  0  0
  -35.6198   61.6424   63.2250 O   0  0  0  0  0  0  0  0  0  0  0  0
  -33.8846   65.2618   64.3600 O   0  0  0  0  0  0  0  0  0  0  0  0
  -35.6187   63.6172   66.2158 O   0  0  0  0  0  0  0  0  0  0  0  0
  -35.9737   62.4915   65.3766 C   0  0  0  0  0  0  0  0  0  0  0  0
  -35.3067   62.7463   64.0172 C   0  0  0  0  0  0  0  0  0  0  0  0
  -33.7690   62.8679   64.0937 C   0  0  0  0  0  0  0  0  0  0  0  0
  -33.4841   64.0449   64.9852 C   0  0  0  0  0  0  0  0  0  0  0  0
  -34.1901   63.8635   66.3168 C   0  0  0  0  0  0  0  0  0  0  0  0
  -36.5836   61.5501   63.1655 H   0  0  0  0  0  0  0  0  0  0  0  0
  -33.4224   65.3572   63.5126 H   0  0  0  0  0  0  0  0  0  0  0  0
  -32.4206   65.3703   66.8753 O   0  0  0  0  0  0  0  0  0  0  0  0
  -33.7871   65.1424   67.0476 C   0  0  0  0  0  0  0  0  0  0  0  0
  -32.1672   66.1829   67.3404 H   0  0  0  0  0  0  0  0  0  0  0  0
  -33.0910   63.1360   62.8454 O   0  0  0  0  0  0  0  0  0  0  0  0
  -31.6889   62.5208   60.7543 O   0  0  0  0  0  0  0  0  0  0  0  0
  -32.7309   60.7589   62.0576 O   0  0  0  0  0  0  0  0  0  0  0  0
  -30.7582   61.8908   62.8951 O   0  0  0  0  0  0  0  0  0  0  0  0
  -32.0285   62.0684   62.1359 S   0  0  0  0  0  0  0  0  0  0  0  0
  -32.5049   62.6420   60.2440 H   0  0  0  0  0  0  0  0  0  0  0  0
  -30.2934   62.7403   62.9510 H   0  0  0  0  0  0  0  0  0  0  0  0
  2  1  1  0  0  0
  2  4  1  0  0  0
  2  5  1  0  0  0
 41 42  1  0  0  0
 41  1  1  0  0  0
 42 46  1  0  0  0
  1 24  1  0  0  0
 23 24  1  0  0  0
 23 25  1  0  0  0
 24 26  1  0  0  0
  3  4  2  0  0  0
 26 27  2  0  0  0
 27 28  1  0  0  0
 43 47  1  0  0  0
 43 51  1  0  0  0
 28 29  1  0  0  0
 56 48  1  0  0  0
 56 60  1  0  0  0
 29 30  1  0  0  0
 57 60  1  0  0  0
 57 61  1  0  0  0
 30 31  1  0  0  0
 44 49  1  0  0  0
 44 52  1  0  0  0
 31 32  1  0  0  0
 45 46  1  0  0  0
 45 50  1  0  0  0
 32 33  1  0  0  0
 53 54  1  0  0  0
 53 55  1  0  0  0
 33 34  1  0  0  0
 34 35  1  0  0  0
 35 36  1  0  0  0
 58 60  1  0  0  0
 36 37  1  0  0  0
 59 60  1  0  0  0
 59 62  1  0  0  0
 37 38  1  0  0  0
 38 39  1  0  0  0
 39 40  1  0  0  0
  4  6  1  0  0  0
  6  7  1  0  0  0
  7  8  1  0  0  0
  8  9  1  0  0  0
  9 10  1  0  0  0
 10 11  1  0  0  0
 11 12  1  0  0  0
 12 13  1  0  0  0
 13 14  1  0  0  0
 14 15  1  0  0  0
 15 16  1  0  0  0
 16 17  1  0  0  0
 17 18  1  0  0  0
 18 19  1  0  0  0
 19 20  1  0  0  0
 20 21  1  0  0  0
 21 22  1  0  0  0
 46 47  1  0  0  0
 47 48  1  0  0  0
 48 49  1  0  0  0
 49 50  1  0  0  0
 50 54  1  0  0  0
M  CHG 1  58  -1
M  END
> <minimizedAffinity>
-9.16026

> <CNNscore>
0.2248200029

> <CNNaffinity>
7.1570653915

> <CNN_VS>
1.6090514660

> <CNNaffinity_variance>
0.9617942572

$$$$
/media/chris/experiments/cd1a-new-docking/inputs/ligands/1onq_ligand.pdb


 62 62  0  0  0  0  0  0  0  0999 V2000
  -42.0805   59.8265   65.2903 C   0  0  0  0  0  0  0  0  0  0  0  0
  -41.9636   58.5333   64.6460 N   0  0  0  0  0  0  0  0  0  0  0  0
  -43.2023   57.2095   66.0101 O   0  0  0  0  0  0  0  0  0  0  0  0
  -42.5041   57.3680   65.0277 C   0  0  0  0  0  0  0  0  0  0  0  0
  -41.4193   58.5078   63.8261 H   0  0  0  0  0  0  0  0  0  0  0  0
  -42.2004   56.2015   64.1350 C   0  0  0  0  0  0  0  0  0  0  0  0
  -41.1774   56.6941   63.1112 C   0  0  0  0  0  0  0  0  0  0  0  0
  -41.1490   55.7541   61.9085 C   0  0  0  0  0  0  0  0  0  0  0  0
  -41.1889   56.4126   60.5508 C   0  0  0  0  0  0  0  0  0  0  0  0
  -41.6414   57.8551   60.7515 C   0  0  0  0  0  0  0  0  0  0  0  0
  -40.7729   58.8613   59.9846 C   0  0  0  0  0  0  0  0  0  0  0  0
  -39.6694   58.2179   59.1251 C   0  0  0  0  0  0  0  0  0  0  0  0
  -38.2528   58.7004   59.5073 C   0  0  0  0  0  0  0  0  0  0  0  0
  -38.1813   59.0368   60.9996 C   0  0  0  0  0  0  0  0  0  0  0  0
  -37.1742   58.2179   61.7978 C   0  0  0  0  0  0  0  0  0  0  0  0
  -37.7252   57.7815   63.1473 C   0  0  0  0  0  0  0  0  0  0  0  0
  -36.7579   57.8760   64.3295 C   0  0  0  0  0  0  0  0  0  0  0  0
  -35.3391   57.9367   63.7796 C   0  0  0  0  0  0  0  0  0  0  0  0
  -34.2096   58.3339   64.7185 C   0  0  0  0  0  0  0  0  0  0  0  0
  -32.9021   58.5566   63.9422 C   0  0  0  0  0  0  0  0  0  0  0  0
  -33.0951   58.9687   62.4711 C   0  0  0  0  0  0  0  0  0  0  0  0
  -32.1509   60.0838   62.0274 C   0  0  0  0  0  0  0  0  0  0  0  0
  -42.1231   61.8594   64.1673 O   0  0  0  0  0  0  0  0  0  0  0  0
  -42.8405   60.6426   64.2588 C   0  0  0  0  0  0  0  0  0  0  0  0
  -41.2206   61.6803   63.8603 H   0  0  0  0  0  0  0  0  0  0  0  0
  -44.2778   60.8553   64.7396 C   0  0  0  0  0  0  0  0  0  0  0  0
  -45.2372   59.9224   64.6140 C   0  0  0  0  0  0  0  0  0  0  0  0
  -46.6497   60.2117   65.1186 C   0  0  0  0  0  0  0  0  0  0  0  0
  -47.7478   59.4482   64.3642 C   0  0  0  0  0  0  0  0  0  0  0  0
  -48.5392   58.4227   65.1970 C   0  0  0  0  0  0  0  0  0  0  0  0
  -50.0612   58.6794   65.0826 C   0  0  0  0  0  0  0  0  0  0  0  0
  -50.4800   59.7003   63.9944 C   0  0  0  0  0  0  0  0  0  0  0  0
  -51.1278   59.0622   62.7430 C   0  0  0  0  0  0  0  0  0  0  0  0
  -50.1747   58.1334   61.9598 C   0  0  0  0  0  0  0  0  0  0  0  0
  -50.7012   57.7325   60.5766 C   0  0  0  0  0  0  0  0  0  0  0  0
  -49.9990   58.3708   59.3801 C   0  0  0  0  0  0  0  0  0  0  0  0
  -48.4854   58.0858   59.3175 C   0  0  0  0  0  0  0  0  0  0  0  0
  -47.7643   58.6454   58.0819 C   0  0  0  0  0  0  0  0  0  0  0  0
  -46.8633   57.5843   57.4435 C   0  0  0  0  0  0  0  0  0  0  0  0
  -47.4491   56.1892   57.3158 C   0  0  0  0  0  0  0  0  0  0  0  0
  -40.7597   60.4263   65.8238 C   0  0  0  0  0  0  0  0  0  0  0  0
  -39.5901   60.2709   64.9805 O   0  0  0  0  0  0  0  0  0  0  0  0
  -37.6531   61.0555   66.9324 O   0  0  0  0  0  0  0  0  0  0  0  0
  -35.2201   61.5040   63.5741 O   0  0  0  0  0  0  0  0  0  0  0  0
  -38.2421   61.5661   63.4343 O   0  0  0  0  0  0  0  0  0  0  0  0
  -38.6113   61.3646   64.8202 C   0  0  0  0  0  0  0  0  0  0  0  0
  -37.2940   61.2114   65.5942 C   0  0  0  0  0  0  0  0  0  0  0  0
  -36.3621   62.4377   65.4817 C   0  0  0  0  0  0  0  0  0  0  0  0
  -36.0350   62.5848   64.0213 C   0  0  0  0  0  0  0  0  0  0  0  0
  -37.3175   62.6651   63.2132 C   0  0  0  0  0  0  0  0  0  0  0  0
  -38.2397   60.2882   67.0225 H   0  0  0  0  0  0  0  0  0  0  0  0
  -34.4077   61.4713   64.1030 H   0  0  0  0  0  0  0  0  0  0  0  0
  -35.9768   63.9417   61.7012 O   0  0  0  0  0  0  0  0  0  0  0  0
  -36.7707   62.7972   61.7935 C   0  0  0  0  0  0  0  0  0  0  0  0
  -35.6308   64.0233   60.7987 H   0  0  0  0  0  0  0  0  0  0  0  0
  -35.0944   62.3363   66.1692 O   0  0  0  0  0  0  0  0  0  0  0  0
  -35.2061   64.6260   67.3783 O   0  0  0  0  0  0  0  0  0  0  0  0
  -33.6183   64.3023   65.5720 O   0  0  0  0  0  0  0  0  0  0  0  0
  -33.2094   63.3130   67.7464 O   0  0  0  0  0  0  0  0  0  0  0  0
  -34.2616   63.6566   66.7482 S   0  0  0  0  0  0  0  0  0  0  0  0
  -35.8995   64.8618   66.7422 H   0  0  0  0  0  0  0  0  0  0  0  0
  -33.6203   62.8913   68.5172 H   0  0  0  0  0  0  0  0  0  0  0  0
  2  1  1  0  0  0
  2  4  1  0  0  0
  2  5  1  0  0  0
 41 42  1  0  0  0
 41  1  1  0  0  0
 42 46  1  0  0  0
  1 24  1  0  0  0
 23 24  1  0  0  0
 23 25  1  0  0  0
 24 26  1  0  0  0
  3  4  2  0  0  0
 26 27  2  0  0  0
 27 28  1  0  0  0
 43 47  1  0  0  0
 43 51  1  0  0  0
 28 29  1  0  0  0
 56 48  1  0  0  0
 56 60  1  0  0  0
 29 30  1  0  0  0
 57 60  1  0  0  0
 57 61  1  0  0  0
 30 31  1  0  0  0
 44 49  1  0  0  0
 44 52  1  0  0  0
 31 32  1  0  0  0
 45 46  1  0  0  0
 45 50  1  0  0  0
 32 33  1  0  0  0
 53 54  1  0  0  0
 53 55  1  0  0  0
 33 34  1  0  0  0
 34 35  1  0  0  0
 35 36  1  0  0  0
 58 60  1  0  0  0
 36 37  1  0  0  0
 59 60  1  0  0  0
 59 62  1  0  0  0
 37 38  1  0  0  0
 38 39  1  0  0  0
 39 40  1  0  0  0
  4  6  1  0  0  0
  6  7  1  0  0  0
  7  8  1  0  0  0
  8  9  1  0  0  0
  9 10  1  0  0  0
 10 11  1  0  0  0
 11 12  1  0  0  0
 12 13  1  0  0  0
 13 14  1  0  0  0
 14 15  1  0  0  0
 15 16  1  0  0  0
 16 17  1  0  0  0
 17 18  1  0  0  0
 18 19  1  0  0  0
 19 20  1  0  0  0
 20 21  1  0  0  0
 21 22  1  0  0  0
 46 47  1  0  0  0
 47 48  1  0  0  0
 48 49  1  0  0  0
 49 50  1  0  0  0
 50 54  1  0  0  0
M  CHG 1  58  -1
M  END
> <minimizedAffinity>
-9.60265

> <CNNscore>
0.2223777175

> <CNNaffinity>
7.1186723709

> <CNN_VS>
1.5830341578

> <CNNaffinity_variance>
1.6845777035

$$$$
/media/chris/experiments/cd1a-new-docking/inputs/ligands/1onq_ligand.pdb


 62 62  0  0  0  0  0  0  0  0999 V2000
  -40.5408   59.9866   64.0849 C   0  0  0  0  0  0  0  0  0  0  0  0
  -41.8341   60.5427   64.4304 N   0  0  0  0  0  0  0  0  0  0  0  0
  -42.7592   60.8967   62.3892 O   0  0  0  0  0  0  0  0  0  0  0  0
  -42.8098   60.9415   63.6030 C   0  0  0  0  0  0  0  0  0  0  0  0
  -42.0185   60.6395   65.3925 H   0  0  0  0  0  0  0  0  0  0  0  0
  -44.0419   61.4682   64.2771 C   0  0  0  0  0  0  0  0  0  0  0  0
  -44.1156   60.7830   65.6418 C   0  0  0  0  0  0  0  0  0  0  0  0
  -45.4099   59.9810   65.7533 C   0  0  0  0  0  0  0  0  0  0  0  0
  -45.9256   59.3723   64.4719 C   0  0  0  0  0  0  0  0  0  0  0  0
  -47.4267   59.1576   64.6354 C   0  0  0  0  0  0  0  0  0  0  0  0
  -47.9028   59.3721   66.0783 C   0  0  0  0  0  0  0  0  0  0  0  0
  -49.3491   59.8870   66.1969 C   0  0  0  0  0  0  0  0  0  0  0  0
  -50.3297   59.1423   65.2645 C   0  0  0  0  0  0  0  0  0  0  0  0
  -51.0782   60.1319   64.3669 C   0  0  0  0  0  0  0  0  0  0  0  0
  -51.0722   59.7880   62.8824 C   0  0  0  0  0  0  0  0  0  0  0  0
  -50.5513   58.3831   62.6173 C   0  0  0  0  0  0  0  0  0  0  0  0
  -49.3021   58.2853   61.7387 C   0  0  0  0  0  0  0  0  0  0  0  0
  -49.5430   59.1026   60.4766 C   0  0  0  0  0  0  0  0  0  0  0  0
  -49.2088   58.4793   59.1294 C   0  0  0  0  0  0  0  0  0  0  0  0
  -48.3944   57.1882   59.3077 C   0  0  0  0  0  0  0  0  0  0  0  0
  -47.1366   57.0994   58.4240 C   0  0  0  0  0  0  0  0  0  0  0  0
  -47.0719   58.1872   57.3544 C   0  0  0  0  0  0  0  0  0  0  0  0
  -39.9743   61.0102   66.0916 O   0  0  0  0  0  0  0  0  0  0  0  0
  -39.9070   59.7527   65.4455 C   0  0  0  0  0  0  0  0  0  0  0  0
  -40.9026   61.2737   66.1905 H   0  0  0  0  0  0  0  0  0  0  0  0
  -38.4644   59.2772   65.2577 C   0  0  0  0  0  0  0  0  0  0  0  0
  -38.1503   58.0387   64.8407 C   0  0  0  0  0  0  0  0  0  0  0  0
  -36.6848   57.6397   64.6789 C   0  0  0  0  0  0  0  0  0  0  0  0
  -36.2135   57.5832   63.2185 C   0  0  0  0  0  0  0  0  0  0  0  0
  -37.3284   57.4716   62.1621 C   0  0  0  0  0  0  0  0  0  0  0  0
  -37.2556   58.6487   61.1599 C   0  0  0  0  0  0  0  0  0  0  0  0
  -38.1845   58.5253   59.9256 C   0  0  0  0  0  0  0  0  0  0  0  0
  -39.1712   59.7044   59.7550 C   0  0  0  0  0  0  0  0  0  0  0  0
  -40.6546   59.2766   59.7774 C   0  0  0  0  0  0  0  0  0  0  0  0
  -40.8588   57.7577   59.8284 C   0  0  0  0  0  0  0  0  0  0  0  0
  -41.6142   57.2223   61.0428 C   0  0  0  0  0  0  0  0  0  0  0  0
  -40.7556   56.3493   61.9790 C   0  0  0  0  0  0  0  0  0  0  0  0
  -41.2372   56.2822   63.4363 C   0  0  0  0  0  0  0  0  0  0  0  0
  -42.5070   57.1150   63.6346 C   0  0  0  0  0  0  0  0  0  0  0  0
  -43.0903   57.1332   65.0364 C   0  0  0  0  0  0  0  0  0  0  0  0
  -39.7188   60.8000   63.0595 C   0  0  0  0  0  0  0  0  0  0  0  0
  -39.0849   62.0089   63.5496 O   0  0  0  0  0  0  0  0  0  0  0  0
  -36.9707   62.4451   61.6741 O   0  0  0  0  0  0  0  0  0  0  0  0
  -35.3621   64.6854   64.8034 O   0  0  0  0  0  0  0  0  0  0  0  0
  -37.4054   62.4950   65.2312 O   0  0  0  0  0  0  0  0  0  0  0  0
  -37.6457   62.0396   63.8776 C   0  0  0  0  0  0  0  0  0  0  0  0
  -36.7647   62.9119   62.9717 C   0  0  0  0  0  0  0  0  0  0  0  0
  -35.2567   62.8112   63.2897 C   0  0  0  0  0  0  0  0  0  0  0  0
  -35.0929   63.2889   64.7061 C   0  0  0  0  0  0  0  0  0  0  0  0
  -36.0063   62.4971   65.6242 C   0  0  0  0  0  0  0  0  0  0  0  0
  -37.9144   62.5010   61.4565 H   0  0  0  0  0  0  0  0  0  0  0  0
  -34.7684   65.1712   64.2098 H   0  0  0  0  0  0  0  0  0  0  0  0
  -36.5620   64.2078   67.1984 O   0  0  0  0  0  0  0  0  0  0  0  0
  -35.6979   63.1339   66.9776 C   0  0  0  0  0  0  0  0  0  0  0  0
  -36.3641   64.6105   68.0584 H   0  0  0  0  0  0  0  0  0  0  0  0
  -34.3823   63.6340   62.4845 O   0  0  0  0  0  0  0  0  0  0  0  0
  -32.6919   61.7262   62.0157 O   0  0  0  0  0  0  0  0  0  0  0  0
  -31.9683   63.6928   63.2395 O   0  0  0  0  0  0  0  0  0  0  0  0
  -32.3154   63.8072   60.8436 O   0  0  0  0  0  0  0  0  0  0  0  0
  -32.8151   63.2107   62.1148 S   0  0  0  0  0  0  0  0  0  0  0  0
  -33.0130   61.3196   62.8357 H   0  0  0  0  0  0  0  0  0  0  0  0
  -32.8621   63.4980   60.1045 H   0  0  0  0  0  0  0  0  0  0  0  0
  2  1  1  0  0  0
  2  4  1  0  0  0
  2  5  1  0  0  0
 41 42  1  0  0  0
 41  1  1  0  0  0
 42 46  1  0  0  0
  1 24  1  0  0  0
 23 24  1  0  0  0
 23 25  1  0  0  0
 24 26  1  0  0  0
  3  4  2  0  0  0
 26 27  2  0  0  0
 27 28  1  0  0  0
 43 47  1  0  0  0
 43 51  1  0  0  0
 28 29  1  0  0  0
 56 48  1  0  0  0
 56 60  1  0  0  0
 29 30  1  0  0  0
 57 60  1  0  0  0
 57 61  1  0  0  0
 30 31  1  0  0  0
 44 49  1  0  0  0
 44 52  1  0  0  0
 31 32  1  0  0  0
 45 46  1  0  0  0
 45 50  1  0  0  0
 32 33  1  0  0  0
 53 54  1  0  0  0
 53 55  1  0  0  0
 33 34  1  0  0  0
 34 35  1  0  0  0
 35 36  1  0  0  0
 58 60  1  0  0  0
 36 37  1  0  0  0
 59 60  1  0  0  0
 59 62  1  0  0  0
 37 38  1  0  0  0
 38 39  1  0  0  0
 39 40  1  0  0  0
  4  6  1  0  0  0
  6  7  1  0  0  0
  7  8  1  0  0  0
  8  9  1  0  0  0
  9 10  1  0  0  0
 10 11  1  0  0  0
 11 12  1  0  0  0
 12 13  1  0  0  0
 13 14  1  0  0  0
 14 15  1  0  0  0
 15 16  1  0  0  0
 16 17  1  0  0  0
 17 18  1  0  0  0
 18 19  1  0  0  0
 19 20  1  0  0  0
 20 21  1  0  0  0
 21 22  1  0  0  0
 46 47  1  0  0  0
 47 48  1  0  0  0
 48 49  1  0  0  0
 49 50  1  0  0  0
 50 54  1  0  0  0
M  CHG 1  58  -1
M  END
> <minimizedAffinity>
-9.68670

> <CNNscore>
0.2060704827

> <CNNaffinity>
7.2325134277

> <CNN_VS>
1.4904075861

> <CNNaffinity_variance>
1.6752983332

$$$$
/media/chris/experiments/cd1a-new-docking/inputs/ligands/1onq_ligand.pdb


 62 62  0  0  0  0  0  0  0  0999 V2000
  -37.1087   59.1411   63.6067 C   0  0  0  0  0  0  0  0  0  0  0  0
  -38.5068   59.4830   63.7788 N   0  0  0  0  0  0  0  0  0  0  0  0
  -38.4216   61.7410   63.9831 O   0  0  0  0  0  0  0  0  0  0  0  0
  -39.0455   60.6983   63.9473 C   0  0  0  0  0  0  0  0  0  0  0  0
  -39.1391   58.7285   63.7710 H   0  0  0  0  0  0  0  0  0  0  0  0
  -40.5386   60.7197   64.0898 C   0  0  0  0  0  0  0  0  0  0  0  0
  -41.1019   61.0249   62.7017 C   0  0  0  0  0  0  0  0  0  0  0  0
  -42.6159   61.2051   62.7813 C   0  0  0  0  0  0  0  0  0  0  0  0
  -43.2325   61.0401   64.1492 C   0  0  0  0  0  0  0  0  0  0  0  0
  -44.6851   61.4955   64.0577 C   0  0  0  0  0  0  0  0  0  0  0  0
  -45.6449   60.5735   64.8216 C   0  0  0  0  0  0  0  0  0  0  0  0
  -47.0595   60.4944   64.2188 C   0  0  0  0  0  0  0  0  0  0  0  0
  -48.1669   60.4254   65.2934 C   0  0  0  0  0  0  0  0  0  0  0  0
  -49.3440   59.5780   64.8020 C   0  0  0  0  0  0  0  0  0  0  0  0
  -50.5381   60.3710   64.2848 C   0  0  0  0  0  0  0  0  0  0  0  0
  -51.1751   59.7248   63.0634 C   0  0  0  0  0  0  0  0  0  0  0  0
  -50.6906   58.3141   62.7211 C   0  0  0  0  0  0  0  0  0  0  0  0
  -50.5525   58.2126   61.2080 C   0  0  0  0  0  0  0  0  0  0  0  0
  -49.2956   58.7646   60.5518 C   0  0  0  0  0  0  0  0  0  0  0  0
  -48.5209   57.6533   59.8261 C   0  0  0  0  0  0  0  0  0  0  0  0
  -48.5892   57.7261   58.2895 C   0  0  0  0  0  0  0  0  0  0  0  0
  -47.3493   58.3559   57.6589 C   0  0  0  0  0  0  0  0  0  0  0  0
  -35.8318   57.4395   62.6741 O   0  0  0  0  0  0  0  0  0  0  0  0
  -37.1810   57.7837   62.9286 C   0  0  0  0  0  0  0  0  0  0  0  0
  -35.3509   57.3740   63.5139 H   0  0  0  0  0  0  0  0  0  0  0  0
  -37.9985   57.9036   61.6403 C   0  0  0  0  0  0  0  0  0  0  0  0
  -37.6132   58.6574   60.5964 C   0  0  0  0  0  0  0  0  0  0  0  0
  -38.4861   58.7259   59.3447 C   0  0  0  0  0  0  0  0  0  0  0  0
  -39.6803   59.6830   59.4713 C   0  0  0  0  0  0  0  0  0  0  0  0
  -41.0085   59.0375   59.9078 C   0  0  0  0  0  0  0  0  0  0  0  0
  -40.9653   57.5033   59.7086 C   0  0  0  0  0  0  0  0  0  0  0  0
  -41.5475   56.6677   60.8768 C   0  0  0  0  0  0  0  0  0  0  0  0
  -41.7084   57.4538   62.1992 C   0  0  0  0  0  0  0  0  0  0  0  0
  -40.9916   56.7973   63.3990 C   0  0  0  0  0  0  0  0  0  0  0  0
  -41.8940   56.5944   64.6221 C   0  0  0  0  0  0  0  0  0  0  0  0
  -42.1033   57.8175   65.5123 C   0  0  0  0  0  0  0  0  0  0  0  0
  -43.4790   57.8583   66.2064 C   0  0  0  0  0  0  0  0  0  0  0  0
  -44.6212   57.1779   65.4367 C   0  0  0  0  0  0  0  0  0  0  0  0
  -45.9657   57.4043   66.1341 C   0  0  0  0  0  0  0  0  0  0  0  0
  -45.9073   57.8931   67.5705 C   0  0  0  0  0  0  0  0  0  0  0  0
  -36.2369   59.2433   64.8788 C   0  0  0  0  0  0  0  0  0  0  0  0
  -34.8999   59.7785   64.7071 O   0  0  0  0  0  0  0  0  0  0  0  0
  -33.9715   61.6949   62.7985 O   0  0  0  0  0  0  0  0  0  0  0  0
  -36.5598   64.2298   64.8657 O   0  0  0  0  0  0  0  0  0  0  0  0
  -35.4056   61.7115   66.0829 O   0  0  0  0  0  0  0  0  0  0  0  0
  -34.5994   61.1948   64.9964 C   0  0  0  0  0  0  0  0  0  0  0  0
  -34.7786   62.1757   63.8288 C   0  0  0  0  0  0  0  0  0  0  0  0
  -34.3373   63.6187   64.1574 C   0  0  0  0  0  0  0  0  0  0  0  0
  -35.2089   64.0764   65.2941 C   0  0  0  0  0  0  0  0  0  0  0  0
  -35.1151   63.0890   66.4433 C   0  0  0  0  0  0  0  0  0  0  0  0
  -34.2348   60.7876   62.5781 H   0  0  0  0  0  0  0  0  0  0  0  0
  -36.5964   64.8637   64.1324 H   0  0  0  0  0  0  0  0  0  0  0  0
  -36.1956   62.8774   68.5649 O   0  0  0  0  0  0  0  0  0  0  0  0
  -36.0605   63.7222   67.4618 C   0  0  0  0  0  0  0  0  0  0  0  0
  -36.7964   63.2817   69.2102 H   0  0  0  0  0  0  0  0  0  0  0  0
  -34.5102   64.5910   63.1017 O   0  0  0  0  0  0  0  0  0  0  0  0
  -36.6245   63.4099   62.1788 O   0  0  0  0  0  0  0  0  0  0  0  0
  -34.7205   63.7696   60.7180 O   0  0  0  0  0  0  0  0  0  0  0  0
  -36.1659   65.6212   61.3150 O   0  0  0  0  0  0  0  0  0  0  0  0
  -35.5369   64.3642   61.8108 S   0  0  0  0  0  0  0  0  0  0  0  0
  -36.2336   62.5841   62.5044 H   0  0  0  0  0  0  0  0  0  0  0  0
  -36.7005   66.0158   62.0216 H   0  0  0  0  0  0  0  0  0  0  0  0
  2  1  1  0  0  0
  2  4  1  0  0  0
  2  5  1  0  0  0
 41 42  1  0  0  0
 41  1  1  0  0  0
 42 46  1  0  0  0
  1 24  1  0  0  0
 23 24  1  0  0  0
 23 25  1  0  0  0
 24 26  1  0  0  0
  3  4  2  0  0  0
 26 27  2  0  0  0
 27 28  1  0  0  0
 43 47  1  0  0  0
 43 51  1  0  0  0
 28 29  1  0  0  0
 56 48  1  0  0  0
 56 60  1  0  0  0
 29 30  1  0  0  0
 57 60  1  0  0  0
 57 61  1  0  0  0
 30 31  1  0  0  0
 44 49  1  0  0  0
 44 52  1  0  0  0
 31 32  1  0  0  0
 45 46  1  0  0  0
 45 50  1  0  0  0
 32 33  1  0  0  0
 53 54  1  0  0  0
 53 55  1  0  0  0
 33 34  1  0  0  0
 34 35  1  0  0  0
 35 36  1  0  0  0
 58 60  1  0  0  0
 36 37  1  0  0  0
 59 60  1  0  0  0
 59 62  1  0  0  0
 37 38  1  0  0  0
 38 39  1  0  0  0
 39 40  1  0  0  0
  4  6  1  0  0  0
  6  7  1  0  0  0
  7  8  1  0  0  0
  8  9  1  0  0  0
  9 10  1  0  0  0
 10 11  1  0  0  0
 11 12  1  0  0  0
 12 13  1  0  0  0
 13 14  1  0  0  0
 14 15  1  0  0  0
 15 16  1  0  0  0
 16 17  1  0  0  0
 17 18  1  0  0  0
 18 19  1  0  0  0
 19 20  1  0  0  0
 20 21  1  0  0  0
 21 22  1  0  0  0
 46 47  1  0  0  0
 47 48  1  0  0  0
 48 49  1  0  0  0
 49 50  1  0  0  0
 50 54  1  0  0  0
M  CHG 1  58  -1
M  END
> <minimizedAffinity>
-9.30612

> <CNNscore>
0.2012216747

> <CNNaffinity>
7.2793998718

> <CNN_VS>
1.4647730589

> <CNNaffinity_variance>
1.5280959606

$$$$
/media/chris/experiments/cd1a-new-docking/inputs/ligands/1onq_ligand.pdb


 62 62  0  0  0  0  0  0  0  0999 V2000
  -40.9416   59.2842   65.5138 C   0  0  0  0  0  0  0  0  0  0  0  0
  -41.3830   59.1412   64.1406 N   0  0  0  0  0  0  0  0  0  0  0  0
  -41.1687   56.9079   63.8031 O   0  0  0  0  0  0  0  0  0  0  0  0
  -41.4640   58.0200   63.4111 C   0  0  0  0  0  0  0  0  0  0  0  0
  -41.6574   59.9709   63.6874 H   0  0  0  0  0  0  0  0  0  0  0  0
  -41.9718   58.2050   62.0119 C   0  0  0  0  0  0  0  0  0  0  0  0
  -41.7161   59.6676   61.6479 C   0  0  0  0  0  0  0  0  0  0  0  0
  -41.0263   59.7538   60.2886 C   0  0  0  0  0  0  0  0  0  0  0  0
  -41.2175   58.5703   59.3715 C   0  0  0  0  0  0  0  0  0  0  0  0
  -39.8369   58.0047   59.0552 C   0  0  0  0  0  0  0  0  0  0  0  0
  -38.7140   59.0293   59.2651 C   0  0  0  0  0  0  0  0  0  0  0  0
  -37.6791   58.6238   60.3306 C   0  0  0  0  0  0  0  0  0  0  0  0
  -38.2508   57.6469   61.3816 C   0  0  0  0  0  0  0  0  0  0  0  0
  -37.2908   57.5059   62.5663 C   0  0  0  0  0  0  0  0  0  0  0  0
  -37.8721   57.9018   63.9181 C   0  0  0  0  0  0  0  0  0  0  0  0
  -36.7921   58.1479   64.9613 C   0  0  0  0  0  0  0  0  0  0  0  0
  -35.3920   57.6390   64.6107 C   0  0  0  0  0  0  0  0  0  0  0  0
  -34.4631   58.8406   64.4997 C   0  0  0  0  0  0  0  0  0  0  0  0
  -33.8510   59.1665   63.1454 C   0  0  0  0  0  0  0  0  0  0  0  0
  -32.4134   58.6318   63.0488 C   0  0  0  0  0  0  0  0  0  0  0  0
  -31.3407   59.7174   62.8445 C   0  0  0  0  0  0  0  0  0  0  0  0
  -31.5133   60.5001   61.5448 C   0  0  0  0  0  0  0  0  0  0  0  0
  -42.5857   57.9056   66.4036 O   0  0  0  0  0  0  0  0  0  0  0  0
  -42.2504   59.2756   66.2848 C   0  0  0  0  0  0  0  0  0  0  0  0
  -41.8939   57.4456   66.9044 H   0  0  0  0  0  0  0  0  0  0  0  0
  -43.3049   60.0616   65.5022 C   0  0  0  0  0  0  0  0  0  0  0  0
  -44.6065   59.7267   65.4882 C   0  0  0  0  0  0  0  0  0  0  0  0
  -45.5979   60.5623   64.6807 C   0  0  0  0  0  0  0  0  0  0  0  0
  -47.0400   60.0371   64.7319 C   0  0  0  0  0  0  0  0  0  0  0  0
  -47.5877   59.7291   66.1378 C   0  0  0  0  0  0  0  0  0  0  0  0
  -49.1285   59.8718   66.1705 C   0  0  0  0  0  0  0  0  0  0  0  0
  -49.8904   59.0713   65.0841 C   0  0  0  0  0  0  0  0  0  0  0  0
  -50.8443   59.9277   64.2185 C   0  0  0  0  0  0  0  0  0  0  0  0
  -51.2277   59.2623   62.8789 C   0  0  0  0  0  0  0  0  0  0  0  0
  -50.0891   58.4575   62.2408 C   0  0  0  0  0  0  0  0  0  0  0  0
  -50.4752   57.5672   61.0615 C   0  0  0  0  0  0  0  0  0  0  0  0
  -50.2461   58.2193   59.6837 C   0  0  0  0  0  0  0  0  0  0  0  0
  -48.8019   58.6593   59.3995 C   0  0  0  0  0  0  0  0  0  0  0  0
  -48.1005   57.6717   58.4626 C   0  0  0  0  0  0  0  0  0  0  0  0
  -47.1819   58.2725   57.4134 C   0  0  0  0  0  0  0  0  0  0  0  0
  -39.9770   60.4613   65.7838 C   0  0  0  0  0  0  0  0  0  0  0  0
  -39.3441   61.0597   64.6243 O   0  0  0  0  0  0  0  0  0  0  0  0
  -37.6933   61.4594   62.3237 O   0  0  0  0  0  0  0  0  0  0  0  0
  -36.2595   64.6758   64.5592 O   0  0  0  0  0  0  0  0  0  0  0  0
  -37.6148   62.2781   65.8120 O   0  0  0  0  0  0  0  0  0  0  0  0
  -37.9256   61.4684   64.6521 C   0  0  0  0  0  0  0  0  0  0  0  0
  -37.4262   62.2591   63.4342 C   0  0  0  0  0  0  0  0  0  0  0  0
  -35.9108   62.5551   63.4656 C   0  0  0  0  0  0  0  0  0  0  0  0
  -35.6699   63.3852   64.6961 C   0  0  0  0  0  0  0  0  0  0  0  0
  -36.2185   62.6670   65.9158 C   0  0  0  0  0  0  0  0  0  0  0  0
  -38.6425   61.2628   62.2876 H   0  0  0  0  0  0  0  0  0  0  0  0
  -35.8954   65.1161   63.7753 H   0  0  0  0  0  0  0  0  0  0  0  0
  -36.1329   63.0778   68.2689 O   0  0  0  0  0  0  0  0  0  0  0  0
  -35.8875   63.6626   67.0253 C   0  0  0  0  0  0  0  0  0  0  0  0
  -35.9219   63.7120   68.9718 H   0  0  0  0  0  0  0  0  0  0  0  0
  -35.3911   63.3219   62.3556 O   0  0  0  0  0  0  0  0  0  0  0  0
  -32.9619   63.0598   63.2197 O   0  0  0  0  0  0  0  0  0  0  0  0
  -33.7927   65.2632   62.6335 O   0  0  0  0  0  0  0  0  0  0  0  0
  -33.2146   63.6761   60.8954 O   0  0  0  0  0  0  0  0  0  0  0  0
  -33.8069   63.8241   62.2551 S   0  0  0  0  0  0  0  0  0  0  0  0
  -33.3325   63.1446   64.1121 H   0  0  0  0  0  0  0  0  0  0  0  0
  -33.2199   62.7402   60.6406 H   0  0  0  0  0  0  0  0  0  0  0  0
  2  1  1  0  0  0
  2  4  1  0  0  0
  2  5  1  0  0  0
 41 42  1  0  0  0
 41  1  1  0  0  0
 42 46  1  0  0  0
  1 24  1  0  0  0
 23 24  1  0  0  0
 23 25  1  0  0  0
 24 26  1  0  0  0
  3  4  2  0  0  0
 26 27  2  0  0  0
 27 28  1  0  0  0
 43 47  1  0  0  0
 43 51  1  0  0  0
 28 29  1  0  0  0
 56 48  1  0  0  0
 56 60  1  0  0  0
 29 30  1  0  0  0
 57 60  1  0  0  0
 57 61  1  0  0  0
 30 31  1  0  0  0
 44 49  1  0  0  0
 44 52  1  0  0  0
 31 32  1  0  0  0
 45 46  1  0  0  0
 45 50  1  0  0  0
 32 33  1  0  0  0
 53 54  1  0  0  0
 53 55  1  0  0  0
 33 34  1  0  0  0
 34 35  1  0  0  0
 35 36  1  0  0  0
 58 60  1  0  0  0
 36 37  1  0  0  0
 59 60  1  0  0  0
 59 62  1  0  0  0
 37 38  1  0  0  0
 38 39  1  0  0  0
 39 40  1  0  0  0
  4  6  1  0  0  0
  6  7  1  0  0  0
  7  8  1  0  0  0
  8  9  1  0  0  0
  9 10  1  0  0  0
 10 11  1  0  0  0
 11 12  1  0  0  0
 12 13  1  0  0  0
 13 14  1  0  0  0
 14 15  1  0  0  0
 15 16  1  0  0  0
 16 17  1  0  0  0
 17 18  1  0  0  0
 18 19  1  0  0  0
 19 20  1  0  0  0
 20 21  1  0  0  0
 21 22  1  0  0  0
 46 47  1  0  0  0
 47 48  1  0  0  0
 48 49  1  0  0  0
 49 50  1  0  0  0
 50 54  1  0  0  0
M  CHG 1  58  -1
M  END
> <minimizedAffinity>
-9.89118

> <CNNscore>
0.1838077009

> <CNNaffinity>
6.8864998817

> <CNN_VS>
1.2657916546

> <CNNaffinity_variance>
2.2083768845

$$$$
/media/chris/experiments/cd1a-new-docking/inputs/ligands/1onq_ligand.pdb


 62 62  0  0  0  0  0  0  0  0999 V2000
  -40.7219   59.8504   64.2587 C   0  0  0  0  0  0  0  0  0  0  0  0
  -42.0791   60.3089   64.4798 N   0  0  0  0  0  0  0  0  0  0  0  0
  -42.4572   61.5789   62.6382 O   0  0  0  0  0  0  0  0  0  0  0  0
  -42.8212   61.1028   63.6959 C   0  0  0  0  0  0  0  0  0  0  0  0
  -42.5092   59.9985   65.3092 H   0  0  0  0  0  0  0  0  0  0  0  0
  -44.2032   61.3889   64.2039 C   0  0  0  0  0  0  0  0  0  0  0  0
  -44.3312   60.6635   65.5436 C   0  0  0  0  0  0  0  0  0  0  0  0
  -45.6859   59.9650   65.6311 C   0  0  0  0  0  0  0  0  0  0  0  0
  -46.6880   60.3246   64.5611 C   0  0  0  0  0  0  0  0  0  0  0  0
  -47.4734   59.0619   64.2223 C   0  0  0  0  0  0  0  0  0  0  0  0
  -48.3431   58.5737   65.3885 C   0  0  0  0  0  0  0  0  0  0  0  0
  -49.2573   59.6559   65.9917 C   0  0  0  0  0  0  0  0  0  0  0  0
  -50.6814   59.6402   65.3940 C   0  0  0  0  0  0  0  0  0  0  0  0
  -50.8082   60.6761   64.2734 C   0  0  0  0  0  0  0  0  0  0  0  0
  -51.0630   60.0982   62.8866 C   0  0  0  0  0  0  0  0  0  0  0  0
  -51.0110   58.5775   62.8764 C   0  0  0  0  0  0  0  0  0  0  0  0
  -50.0730   57.9450   61.8459 C   0  0  0  0  0  0  0  0  0  0  0  0
  -49.4116   59.0649   61.0539 C   0  0  0  0  0  0  0  0  0  0  0  0
  -49.2738   58.9092   59.5466 C   0  0  0  0  0  0  0  0  0  0  0  0
  -48.1898   57.8772   59.1974 C   0  0  0  0  0  0  0  0  0  0  0  0
  -48.0666   57.5641   57.6948 C   0  0  0  0  0  0  0  0  0  0  0  0
  -46.9005   58.2842   57.0214 C   0  0  0  0  0  0  0  0  0  0  0  0
  -39.5491   57.9284   64.8300 O   0  0  0  0  0  0  0  0  0  0  0  0
  -40.8454   58.3480   64.4464 C   0  0  0  0  0  0  0  0  0  0  0  0
  -39.3050   58.3559   65.6658 H   0  0  0  0  0  0  0  0  0  0  0  0
  -41.2928   57.7078   63.1302 C   0  0  0  0  0  0  0  0  0  0  0  0
  -40.5241   56.8536   62.4332 C   0  0  0  0  0  0  0  0  0  0  0  0
  -41.0426   56.2571   61.1261 C   0  0  0  0  0  0  0  0  0  0  0  0
  -41.8100   57.2563   60.2481 C   0  0  0  0  0  0  0  0  0  0  0  0
  -40.9407   58.2155   59.4140 C   0  0  0  0  0  0  0  0  0  0  0  0
  -40.8778   59.6141   60.0738 C   0  0  0  0  0  0  0  0  0  0  0  0
  -39.4509   60.1478   60.3583 C   0  0  0  0  0  0  0  0  0  0  0  0
  -38.3277   59.3722   59.6307 C   0  0  0  0  0  0  0  0  0  0  0  0
  -37.6497   58.2983   60.5089 C   0  0  0  0  0  0  0  0  0  0  0  0
  -37.5763   58.6713   61.9944 C   0  0  0  0  0  0  0  0  0  0  0  0
  -36.4460   58.0262   62.7934 C   0  0  0  0  0  0  0  0  0  0  0  0
  -35.0770   58.7089   62.6044 C   0  0  0  0  0  0  0  0  0  0  0  0
  -33.8568   57.8055   62.8389 C   0  0  0  0  0  0  0  0  0  0  0  0
  -32.8483   58.4759   63.7764 C   0  0  0  0  0  0  0  0  0  0  0  0
  -33.2280   58.5350   65.2454 C   0  0  0  0  0  0  0  0  0  0  0  0
  -39.6325   60.5724   65.0838 C   0  0  0  0  0  0  0  0  0  0  0  0
  -38.8848   61.6112   64.4017 O   0  0  0  0  0  0  0  0  0  0  0  0
  -37.0053   61.9860   62.2794 O   0  0  0  0  0  0  0  0  0  0  0  0
  -35.2066   64.5561   65.0286 O   0  0  0  0  0  0  0  0  0  0  0  0
  -37.0688   62.3162   65.8475 O   0  0  0  0  0  0  0  0  0  0  0  0
  -37.4232   61.7371   64.5682 C   0  0  0  0  0  0  0  0  0  0  0  0
  -36.6914   62.5701   63.5060 C   0  0  0  0  0  0  0  0  0  0  0  0
  -35.1553   62.5676   63.6654 C   0  0  0  0  0  0  0  0  0  0  0  0
  -34.8715   63.1706   65.0135 C   0  0  0  0  0  0  0  0  0  0  0  0
  -35.6387   62.4173   66.0850 C   0  0  0  0  0  0  0  0  0  0  0  0
  -37.9681   61.9789   62.1617 H   0  0  0  0  0  0  0  0  0  0  0  0
  -34.7060   65.0173   64.3375 H   0  0  0  0  0  0  0  0  0  0  0  0
  -36.1772   64.1621   67.6275 O   0  0  0  0  0  0  0  0  0  0  0  0
  -35.2269   63.1800   67.3422 C   0  0  0  0  0  0  0  0  0  0  0  0
  -35.9133   64.6450   68.4262 H   0  0  0  0  0  0  0  0  0  0  0  0
  -34.4168   63.3595   62.7075 O   0  0  0  0  0  0  0  0  0  0  0  0
  -34.1835   65.5593   61.3573 O   0  0  0  0  0  0  0  0  0  0  0  0
  -36.3007   65.0226   62.4148 O   0  0  0  0  0  0  0  0  0  0  0  0
  -35.6136   63.8594   60.4026 O   0  0  0  0  0  0  0  0  0  0  0  0
  -35.1359   64.4564   61.6820 S   0  0  0  0  0  0  0  0  0  0  0  0
  -33.8613   65.9608   62.1794 H   0  0  0  0  0  0  0  0  0  0  0  0
  -34.8600   63.4876   59.9181 H   0  0  0  0  0  0  0  0  0  0  0  0
  2  1  1  0  0  0
  2  4  1  0  0  0
  2  5  1  0  0  0
 41 42  1  0  0  0
 41  1  1  0  0  0
 42 46  1  0  0  0
  1 24  1  0  0  0
 23 24  1  0  0  0
 23 25  1  0  0  0
 24 26  1  0  0  0
  3  4  2  0  0  0
 26 27  2  0  0  0
 27 28  1  0  0  0
 43 47  1  0  0  0
 43 51  1  0  0  0
 28 29  1  0  0  0
 56 48  1  0  0  0
 56 60  1  0  0  0
 29 30  1  0  0  0
 57 60  1  0  0  0
 57 61  1  0  0  0
 30 31  1  0  0  0
 44 49  1  0  0  0
 44 52  1  0  0  0
 31 32  1  0  0  0
 45 46  1  0  0  0
 45 50  1  0  0  0
 32 33  1  0  0  0
 53 54  1  0  0  0
 53 55  1  0  0  0
 33 34  1  0  0  0
 34 35  1  0  0  0
 35 36  1  0  0  0
 58 60  1  0  0  0
 36 37  1  0  0  0
 59 60  1  0  0  0
 59 62  1  0  0  0
 37 38  1  0  0  0
 38 39  1  0  0  0
 39 40  1  0  0  0
  4  6  1  0  0  0
  6  7  1  0  0  0
  7  8  1  0  0  0
  8  9  1  0  0  0
  9 10  1  0  0  0
 10 11  1  0  0  0
 11 12  1  0  0  0
 12 13  1  0  0  0
 13 14  1  0  0  0
 14 15  1  0  0  0
 15 16  1  0  0  0
 16 17  1  0  0  0
 17 18  1  0  0  0
 18 19  1  0  0  0
 19 20  1  0  0  0
 20 21  1  0  0  0
 21 22  1  0  0  0
 46 47  1  0  0  0
 47 48  1  0  0  0
 48 49  1  0  0  0
 49 50  1  0  0  0
 50 54  1  0  0  0
M  CHG 1  58  -1
M  END
> <minimizedAffinity>
-9.56572

> <CNNscore>
0.1562672257

> <CNNaffinity>
7.0414977074

> <CNN_VS>
1.1003552675

> <CNNaffinity_variance>
1.4581633806

$$$$
/media/chris/experiments/cd1a-new-docking/inputs/ligands/1onq_ligand.pdb


 62 62  0  0  0  0  0  0  0  0999 V2000
  -38.7898   60.0028   64.9158 C   0  0  0  0  0  0  0  0  0  0  0  0
  -40.0473   59.5770   65.4976 N   0  0  0  0  0  0  0  0  0  0  0  0
  -40.8855   61.5279   66.2967 O   0  0  0  0  0  0  0  0  0  0  0  0
  -40.9668   60.3281   66.1186 C   0  0  0  0  0  0  0  0  0  0  0  0
  -40.2511   58.6164   65.4278 H   0  0  0  0  0  0  0  0  0  0  0  0
  -42.1748   59.5842   66.6057 C   0  0  0  0  0  0  0  0  0  0  0  0
  -43.3714   60.5101   66.3864 C   0  0  0  0  0  0  0  0  0  0  0  0
  -44.6389   59.6843   66.1803 C   0  0  0  0  0  0  0  0  0  0  0  0
  -45.6925   60.2973   65.2900 C   0  0  0  0  0  0  0  0  0  0  0  0
  -46.6539   59.1861   64.8815 C   0  0  0  0  0  0  0  0  0  0  0  0
  -47.7567   58.9442   65.9208 C   0  0  0  0  0  0  0  0  0  0  0  0
  -48.9638   59.8917   65.7941 C   0  0  0  0  0  0  0  0  0  0  0  0
  -50.2479   59.1693   65.3307 C   0  0  0  0  0  0  0  0  0  0  0  0
  -51.0586   60.0615   64.3864 C   0  0  0  0  0  0  0  0  0  0  0  0
  -51.2122   59.5273   62.9676 C   0  0  0  0  0  0  0  0  0  0  0  0
  -50.1999   58.4370   62.6485 C   0  0  0  0  0  0  0  0  0  0  0  0
  -50.5270   57.5487   61.4460 C   0  0  0  0  0  0  0  0  0  0  0  0
  -50.4521   58.4039   60.1883 C   0  0  0  0  0  0  0  0  0  0  0  0
  -49.0960   58.6205   59.5333 C   0  0  0  0  0  0  0  0  0  0  0  0
  -48.6540   57.3695   58.7577 C   0  0  0  0  0  0  0  0  0  0  0  0
  -47.1836   57.3876   58.3011 C   0  0  0  0  0  0  0  0  0  0  0  0
  -46.9509   58.2266   57.0467 C   0  0  0  0  0  0  0  0  0  0  0  0
  -37.0153   58.5227   64.6791 O   0  0  0  0  0  0  0  0  0  0  0  0
  -38.3223   58.7543   64.1877 C   0  0  0  0  0  0  0  0  0  0  0  0
  -37.0528   58.3638   65.6353 H   0  0  0  0  0  0  0  0  0  0  0  0
  -38.3338   59.0129   62.6792 C   0  0  0  0  0  0  0  0  0  0  0  0
  -37.9762   58.0853   61.7748 C   0  0  0  0  0  0  0  0  0  0  0  0
  -38.0137   58.4215   60.2852 C   0  0  0  0  0  0  0  0  0  0  0  0
  -38.7174   59.7482   59.9649 C   0  0  0  0  0  0  0  0  0  0  0  0
  -40.2285   59.6505   59.6845 C   0  0  0  0  0  0  0  0  0  0  0  0
  -40.6150   58.2162   59.2501 C   0  0  0  0  0  0  0  0  0  0  0  0
  -41.5643   57.4650   60.2176 C   0  0  0  0  0  0  0  0  0  0  0  0
  -41.0422   56.0808   60.6697 C   0  0  0  0  0  0  0  0  0  0  0  0
  -41.4022   55.7318   62.1300 C   0  0  0  0  0  0  0  0  0  0  0  0
  -41.2999   56.9210   63.0926 C   0  0  0  0  0  0  0  0  0  0  0  0
  -42.5992   57.3484   63.7720 C   0  0  0  0  0  0  0  0  0  0  0  0
  -43.2232   58.6277   63.1804 C   0  0  0  0  0  0  0  0  0  0  0  0
  -42.2185   59.7033   62.7403 C   0  0  0  0  0  0  0  0  0  0  0  0
  -42.8405   61.1007   62.8159 C   0  0  0  0  0  0  0  0  0  0  0  0
  -42.6234   62.0023   61.6136 C   0  0  0  0  0  0  0  0  0  0  0  0
  -37.7905   60.6576   65.8964 C   0  0  0  0  0  0  0  0  0  0  0  0
  -37.1693   61.8933   65.4599 O   0  0  0  0  0  0  0  0  0  0  0  0
  -35.5264   60.6821   63.4571 O   0  0  0  0  0  0  0  0  0  0  0  0
  -33.5089   64.3277   63.6517 O   0  0  0  0  0  0  0  0  0  0  0  0
  -35.2294   63.2790   65.9090 O   0  0  0  0  0  0  0  0  0  0  0  0
  -35.7013   62.0212   65.3679 C   0  0  0  0  0  0  0  0  0  0  0  0
  -35.1004   61.9111   63.9592 C   0  0  0  0  0  0  0  0  0  0  0  0
  -33.5563   61.9340   63.9399 C   0  0  0  0  0  0  0  0  0  0  0  0
  -33.1481   63.2587   64.5230 C   0  0  0  0  0  0  0  0  0  0  0  0
  -33.7850   63.4366   65.8894 C   0  0  0  0  0  0  0  0  0  0  0  0
  -36.4959   60.6495   63.4617 H   0  0  0  0  0  0  0  0  0  0  0  0
  -33.0919   64.1940   62.7861 H   0  0  0  0  0  0  0  0  0  0  0  0
  -33.4105   64.9932   67.6643 O   0  0  0  0  0  0  0  0  0  0  0  0
  -33.2621   64.8150   66.2877 C   0  0  0  0  0  0  0  0  0  0  0  0
  -33.0778   65.8692   67.9147 H   0  0  0  0  0  0  0  0  0  0  0  0
  -32.9371   61.8612   62.6356 O   0  0  0  0  0  0  0  0  0  0  0  0
  -31.1381   60.0914   63.2259 O   0  0  0  0  0  0  0  0  0  0  0  0
  -31.1952   61.0418   60.9938 O   0  0  0  0  0  0  0  0  0  0  0  0
  -32.8504   59.4029   61.6637 O   0  0  0  0  0  0  0  0  0  0  0  0
  -32.0321   60.5599   62.1259 S   0  0  0  0  0  0  0  0  0  0  0  0
  -30.5966   60.8323   63.5402 H   0  0  0  0  0  0  0  0  0  0  0  0
  -33.3995   59.0822   62.3962 H   0  0  0  0  0  0  0  0  0  0  0  0
  2  1  1  0  0  0
  2  4  1  0  0  0
  2  5  1  0  0  0
 41 42  1  0  0  0
 41  1  1  0  0  0
 42 46  1  0  0  0
  1 24  1  0  0  0
 23 24  1  0  0  0
 23 25  1  0  0  0
 24 26  1  0  0  0
  3  4  2  0  0  0
 26 27  2  0  0  0
 27 28  1  0  0  0
 43 47  1  0  0  0
 43 51  1  0  0  0
 28 29  1  0  0  0
 56 48  1  0  0  0
 56 60  1  0  0  0
 29 30  1  0  0  0
 57 60  1  0  0  0
 57 61  1  0  0  0
 30 31  1  0  0  0
 44 49  1  0  0  0
 44 52  1  0  0  0
 31 32  1  0  0  0
 45 46  1  0  0  0
 45 50  1  0  0  0
 32 33  1  0  0  0
 53 54  1  0  0  0
 53 55  1  0  0  0
 33 34  1  0  0  0
 34 35  1  0  0  0
 35 36  1  0  0  0
 58 60  1  0  0  0
 36 37  1  0  0  0
 59 60  1  0  0  0
 59 62  1  0  0  0
 37 38  1  0  0  0
 38 39  1  0  0  0
 39 40  1  0  0  0
  4  6  1  0  0  0
  6  7  1  0  0  0
  7  8  1  0  0  0
  8  9  1  0  0  0
  9 10  1  0  0  0
 10 11  1  0  0  0
 11 12  1  0  0  0
 12 13  1  0  0  0
 13 14  1  0  0  0
 14 15  1  0  0  0
 15 16  1  0  0  0
 16 17  1  0  0  0
 17 18  1  0  0  0
 18 19  1  0  0  0
 19 20  1  0  0  0
 20 21  1  0  0  0
 21 22  1  0  0  0
 46 47  1  0  0  0
 47 48  1  0  0  0
 48 49  1  0  0  0
 49 50  1  0  0  0
 50 54  1  0  0  0
M  CHG 1  58  -1
M  END
> <minimizedAffinity>
-9.36950

> <CNNscore>
0.1546685547

> <CNNaffinity>
7.0310440063

> <CNN_VS>
1.0874813795

> <CNNaffinity_variance>
1.4410455227

$$$$
/media/chris/experiments/cd1a-new-docking/inputs/ligands/1onq_ligand.pdb


 62 62  0  0  0  0  0  0  0  0999 V2000
  -38.3310   60.9441   62.5895 C   0  0  0  0  0  0  0  0  0  0  0  0
  -39.5510   60.6386   63.3103 N   0  0  0  0  0  0  0  0  0  0  0  0
  -41.1485   61.2374   61.8146 O   0  0  0  0  0  0  0  0  0  0  0  0
  -40.8161   60.7968   62.8978 C   0  0  0  0  0  0  0  0  0  0  0  0
  -39.4358   60.2691   64.2154 H   0  0  0  0  0  0  0  0  0  0  0  0
  -41.8655   60.3749   63.8830 C   0  0  0  0  0  0  0  0  0  0  0  0
  -43.1736   61.0206   63.4257 C   0  0  0  0  0  0  0  0  0  0  0  0
  -44.2355   60.8738   64.5128 C   0  0  0  0  0  0  0  0  0  0  0  0
  -45.5839   61.4807   64.2093 C   0  0  0  0  0  0  0  0  0  0  0  0
  -46.6222   60.3678   64.3049 C   0  0  0  0  0  0  0  0  0  0  0  0
  -48.0543   60.9026   64.4382 C   0  0  0  0  0  0  0  0  0  0  0  0
  -48.9830   60.5208   63.2710 C   0  0  0  0  0  0  0  0  0  0  0  0
  -50.4741   60.4973   63.6731 C   0  0  0  0  0  0  0  0  0  0  0  0
  -51.2065   59.3542   62.9647 C   0  0  0  0  0  0  0  0  0  0  0  0
  -50.3402   58.1489   62.6198 C   0  0  0  0  0  0  0  0  0  0  0  0
  -50.7323   57.5171   61.2923 C   0  0  0  0  0  0  0  0  0  0  0  0
  -50.3443   58.2998   60.0359 C   0  0  0  0  0  0  0  0  0  0  0  0
  -48.8313   58.2284   59.8792 C   0  0  0  0  0  0  0  0  0  0  0  0
  -48.1679   56.8603   59.8212 C   0  0  0  0  0  0  0  0  0  0  0  0
  -47.8178   56.4800   58.3739 C   0  0  0  0  0  0  0  0  0  0  0  0
  -48.0213   57.6113   57.3493 C   0  0  0  0  0  0  0  0  0  0  0  0
  -46.7213   58.3057   56.9501 C   0  0  0  0  0  0  0  0  0  0  0  0
  -36.2434   59.9408   62.7657 O   0  0  0  0  0  0  0  0  0  0  0  0
  -37.6071   59.6086   62.5831 C   0  0  0  0  0  0  0  0  0  0  0  0
  -36.1302   60.3839   63.6211 H   0  0  0  0  0  0  0  0  0  0  0  0
  -37.8552   58.9040   61.2473 C   0  0  0  0  0  0  0  0  0  0  0  0
  -38.3841   59.5252   60.1792 C   0  0  0  0  0  0  0  0  0  0  0  0
  -38.6018   58.7516   58.8803 C   0  0  0  0  0  0  0  0  0  0  0  0
  -39.9332   57.9883   58.8270 C   0  0  0  0  0  0  0  0  0  0  0  0
  -41.1243   58.6763   59.5193 C   0  0  0  0  0  0  0  0  0  0  0  0
  -41.7806   57.7297   60.5529 C   0  0  0  0  0  0  0  0  0  0  0  0
  -40.8155   57.1282   61.6057 C   0  0  0  0  0  0  0  0  0  0  0  0
  -41.3224   55.8188   62.2548 C   0  0  0  0  0  0  0  0  0  0  0  0
  -41.2943   55.8435   63.7984 C   0  0  0  0  0  0  0  0  0  0  0  0
  -42.5801   56.3891   64.4311 C   0  0  0  0  0  0  0  0  0  0  0  0
  -42.4007   57.2556   65.6758 C   0  0  0  0  0  0  0  0  0  0  0  0
  -43.7194   57.8164   66.2434 C   0  0  0  0  0  0  0  0  0  0  0  0
  -44.9928   57.3564   65.5176 C   0  0  0  0  0  0  0  0  0  0  0  0
  -46.2210   57.4923   66.4222 C   0  0  0  0  0  0  0  0  0  0  0  0
  -46.0340   58.2927   67.6989 C   0  0  0  0  0  0  0  0  0  0  0  0
  -37.5404   62.1671   63.1073 C   0  0  0  0  0  0  0  0  0  0  0  0
  -36.8804   62.9833   62.1065 O   0  0  0  0  0  0  0  0  0  0  0  0
  -36.4690   64.2070   64.6582 O   0  0  0  0  0  0  0  0  0  0  0  0
  -32.4828   63.2473   63.8915 O   0  0  0  0  0  0  0  0  0  0  0  0
  -34.5533   63.5378   61.7042 O   0  0  0  0  0  0  0  0  0  0  0  0
  -35.7459   63.8596   62.4601 C   0  0  0  0  0  0  0  0  0  0  0  0
  -35.3271   63.8599   63.9373 C   0  0  0  0  0  0  0  0  0  0  0  0
  -34.2164   64.8809   64.2671 C   0  0  0  0  0  0  0  0  0  0  0  0
  -33.0238   64.4866   63.4403 C   0  0  0  0  0  0  0  0  0  0  0  0
  -33.4182   64.4033   61.9768 C   0  0  0  0  0  0  0  0  0  0  0  0
  -37.1789   63.5752   64.4633 H   0  0  0  0  0  0  0  0  0  0  0  0
  -32.2381   63.3229   64.8271 H   0  0  0  0  0  0  0  0  0  0  0  0
  -32.1196   62.6204   61.0558 O   0  0  0  0  0  0  0  0  0  0  0  0
  -32.0973   63.9885   61.3324 C   0  0  0  0  0  0  0  0  0  0  0  0
  -31.2796   62.3595   60.6467 H   0  0  0  0  0  0  0  0  0  0  0  0
  -33.7635   64.9045   65.6398 O   0  0  0  0  0  0  0  0  0  0  0  0
  -33.3113   63.7553   67.9184 O   0  0  0  0  0  0  0  0  0  0  0  0
  -34.3632   62.4960   66.1304 O   0  0  0  0  0  0  0  0  0  0  0  0
  -35.6291   64.1577   67.3594 O   0  0  0  0  0  0  0  0  0  0  0  0
  -34.2905   63.8261   66.7937 S   0  0  0  0  0  0  0  0  0  0  0  0
  -32.4325   63.5400   67.5688 H   0  0  0  0  0  0  0  0  0  0  0  0
  -35.5907   65.0240   67.7941 H   0  0  0  0  0  0  0  0  0  0  0  0
  2  1  1  0  0  0
  2  4  1  0  0  0
  2  5  1  0  0  0
 41 42  1  0  0  0
 41  1  1  0  0  0
 42 46  1  0  0  0
  1 24  1  0  0  0
 23 24  1  0  0  0
 23 25  1  0  0  0
 24 26  1  0  0  0
  3  4  2  0  0  0
 26 27  2  0  0  0
 27 28  1  0  0  0
 43 47  1  0  0  0
 43 51  1  0  0  0
 28 29  1  0  0  0
 56 48  1  0  0  0
 56 60  1  0  0  0
 29 30  1  0  0  0
 57 60  1  0  0  0
 57 61  1  0  0  0
 30 31  1  0  0  0
 44 49  1  0  0  0
 44 52  1  0  0  0
 31 32  1  0  0  0
 45 46  1  0  0  0
 45 50  1  0  0  0
 32 33  1  0  0  0
 53 54  1  0  0  0
 53 55  1  0  0  0
 33 34  1  0  0  0
 34 35  1  0  0  0
 35 36  1  0  0  0
 58 60  1  0  0  0
 36 37  1  0  0  0
 59 60  1  0  0  0
 59 62  1  0  0  0
 37 38  1  0  0  0
 38 39  1  0  0  0
 39 40  1  0  0  0
  4  6  1  0  0  0
  6  7  1  0  0  0
  7  8  1  0  0  0
  8  9  1  0  0  0
  9 10  1  0  0  0
 10 11  1  0  0  0
 11 12  1  0  0  0
 12 13  1  0  0  0
 13 14  1  0  0  0
 14 15  1  0  0  0
 15 16  1  0  0  0
 16 17  1  0  0  0
 17 18  1  0  0  0
 18 19  1  0  0  0
 19 20  1  0  0  0
 20 21  1  0  0  0
 21 22  1  0  0  0
 46 47  1  0  0  0
 47 48  1  0  0  0
 48 49  1  0  0  0
 49 50  1  0  0  0
 50 54  1  0  0  0
M  CHG 1  58  -1
M  END
> <minimizedAffinity>
-9.53369

> <CNNscore>
0.1434853375

> <CNNaffinity>
6.9558076859

> <CNN_VS>
0.9980564117

> <CNNaffinity_variance>
0.6922267079

$$$$
