/media/chris/experiments/cd1a-new-docking/inputs/ligands/1onq_ligand.pdb


 62 62  0  0  0  0  0  0  0  0999 V2000
  -41.3345   59.1479   64.7869 C   0  0  0  0  0  0  0  0  0  0  0  0
  -42.3234   60.1260   64.3790 N   0  0  0  0  0  0  0  0  0  0  0  0
  -43.5069   61.3168   62.8529 O   0  0  0  0  0  0  0  0  0  0  0  0
  -42.6745   60.4766   63.1343 C   0  0  0  0  0  0  0  0  0  0  0  0
  -42.7959   60.5907   65.1071 H   0  0  0  0  0  0  0  0  0  0  0  0
  -41.9494   59.7522   62.0393 C   0  0  0  0  0  0  0  0  0  0  0  0
  -41.1482   60.8083   61.2777 C   0  0  0  0  0  0  0  0  0  0  0  0
  -40.7925   60.2901   59.8863 C   0  0  0  0  0  0  0  0  0  0  0  0
  -41.1662   58.8566   59.5968 C   0  0  0  0  0  0  0  0  0  0  0  0
  -39.9023   58.1334   59.1435 C   0  0  0  0  0  0  0  0  0  0  0  0
  -38.6351   58.9777   59.3346 C   0  0  0  0  0  0  0  0  0  0  0  0
  -37.6899   58.4593   60.4339 C   0  0  0  0  0  0  0  0  0  0  0  0
  -38.4435   57.8285   61.6255 C   0  0  0  0  0  0  0  0  0  0  0  0
  -37.5405   57.7603   62.8604 C   0  0  0  0  0  0  0  0  0  0  0  0
  -36.0762   58.0981   62.6080 C   0  0  0  0  0  0  0  0  0  0  0  0
  -35.1787   57.6726   63.7606 C   0  0  0  0  0  0  0  0  0  0  0  0
  -34.6667   58.7976   64.6631 C   0  0  0  0  0  0  0  0  0  0  0  0
  -33.1449   58.7949   64.6099 C   0  0  0  0  0  0  0  0  0  0  0  0
  -32.4618   58.4608   63.2920 C   0  0  0  0  0  0  0  0  0  0  0  0
  -32.2978   59.7181   62.4234 C   0  0  0  0  0  0  0  0  0  0  0  0
  -30.9158   60.3893   62.5260 C   0  0  0  0  0  0  0  0  0  0  0  0
  -30.4174   60.9519   61.1969 C   0  0  0  0  0  0  0  0  0  0  0  0
  -42.0789   56.9950   65.2417 O   0  0  0  0  0  0  0  0  0  0  0  0
  -42.1004   58.3006   65.7883 C   0  0  0  0  0  0  0  0  0  0  0  0
  -41.1610   56.6894   65.1705 H   0  0  0  0  0  0  0  0  0  0  0  0
  -43.5245   58.8439   65.9278 C   0  0  0  0  0  0  0  0  0  0  0  0
  -44.5979   58.0512   66.0874 C   0  0  0  0  0  0  0  0  0  0  0  0
  -45.9879   58.6709   66.2185 C   0  0  0  0  0  0  0  0  0  0  0  0
  -46.2106   59.8944   65.3176 C   0  0  0  0  0  0  0  0  0  0  0  0
  -47.6391   60.0672   64.7691 C   0  0  0  0  0  0  0  0  0  0  0  0
  -48.6868   59.8499   65.8873 C   0  0  0  0  0  0  0  0  0  0  0  0
  -50.0974   59.4321   65.4003 C   0  0  0  0  0  0  0  0  0  0  0  0
  -50.7303   60.4080   64.3806 C   0  0  0  0  0  0  0  0  0  0  0  0
  -51.3970   59.7008   63.1808 C   0  0  0  0  0  0  0  0  0  0  0  0
  -50.6727   58.4247   62.7356 C   0  0  0  0  0  0  0  0  0  0  0  0
  -49.4463   58.6239   61.8475 C   0  0  0  0  0  0  0  0  0  0  0  0
  -49.5967   58.0341   60.4313 C   0  0  0  0  0  0  0  0  0  0  0  0
  -48.2777   57.7112   59.7130 C   0  0  0  0  0  0  0  0  0  0  0  0
  -48.4041   57.9364   58.2036 C   0  0  0  0  0  0  0  0  0  0  0  0
  -47.1048   58.0817   57.4314 C   0  0  0  0  0  0  0  0  0  0  0  0
  -39.9781   59.7260   65.2505 C   0  0  0  0  0  0  0  0  0  0  0  0
  -39.4063   60.7758   64.4295 O   0  0  0  0  0  0  0  0  0  0  0  0
  -37.6618   61.4545   62.2676 O   0  0  0  0  0  0  0  0  0  0  0  0
  -36.3184   64.3519   64.9510 O   0  0  0  0  0  0  0  0  0  0  0  0
  -37.7262   61.8227   65.8320 O   0  0  0  0  0  0  0  0  0  0  0  0
  -37.9897   61.1689   64.5667 C   0  0  0  0  0  0  0  0  0  0  0  0
  -37.4400   62.1049   63.4809 C   0  0  0  0  0  0  0  0  0  0  0  0
  -35.9268   62.3854   63.6113 C   0  0  0  0  0  0  0  0  0  0  0  0
  -35.7361   63.0507   64.9464 C   0  0  0  0  0  0  0  0  0  0  0  0
  -36.3352   62.1866   66.0413 C   0  0  0  0  0  0  0  0  0  0  0  0
  -38.6088   61.2700   62.1682 H   0  0  0  0  0  0  0  0  0  0  0  0
  -35.9218   64.8860   64.2449 H   0  0  0  0  0  0  0  0  0  0  0  0
  -34.6794   63.2854   67.3698 O   0  0  0  0  0  0  0  0  0  0  0  0
  -36.0492   63.0311   67.2812 C   0  0  0  0  0  0  0  0  0  0  0  0
  -34.5004   63.8217   68.1579 H   0  0  0  0  0  0  0  0  0  0  0  0
  -35.3612   63.2838   62.6302 O   0  0  0  0  0  0  0  0  0  0  0  0
  -33.1793   63.2549   61.2316 O   0  0  0  0  0  0  0  0  0  0  0  0
  -33.0740   62.8541   63.6227 O   0  0  0  0  0  0  0  0  0  0  0  0
  -33.4403   65.0958   62.7773 O   0  0  0  0  0  0  0  0  0  0  0  0
  -33.7392   63.6522   62.5573 S   0  0  0  0  0  0  0  0  0  0  0  0
  -33.3645   62.3164   61.0706 H   0  0  0  0  0  0  0  0  0  0  0  0
  -33.8704   65.6239   62.0866 H   0  0  0  0  0  0  0  0  0  0  0  0
  2  1  1  0  0  0
  2  4  1  0  0  0
  2  5  1  0  0  0
 41 42  1  0  0  0
 41  1  1  0  0  0
 42 46  1  0  0  0
  1 24  1  0  0  0
 23 24  1  0  0  0
 23 25  1  0  0  0
 24 26  1  0  0  0
  3  4  2  0  0  0
 26 27  2  0  0  0
 27 28  1  0  0  0
 43 47  1  0  0  0
 43 51  1  0  0  0
 28 29  1  0  0  0
 56 48  1  0  0  0
 56 60  1  0  0  0
 29 30  1  0  0  0
 57 60  1  0  0  0
 57 61  1  0  0  0
 30 31  1  0  0  0
 44 49  1  0  0  0
 44 52  1  0  0  0
 31 32  1  0  0  0
 45 46  1  0  0  0
 45 50  1  0  0  0
 32 33  1  0  0  0
 53 54  1  0  0  0
 53 55  1  0  0  0
 33 34  1  0  0  0
 34 35  1  0  0  0
 35 36  1  0  0  0
 58 60  1  0  0  0
 36 37  1  0  0  0
 59 60  1  0  0  0
 59 62  1  0  0  0
 37 38  1  0  0  0
 38 39  1  0  0  0
 39 40  1  0  0  0
  4  6  1  0  0  0
  6  7  1  0  0  0
  7  8  1  0  0  0
  8  9  1  0  0  0
  9 10  1  0  0  0
 10 11  1  0  0  0
 11 12  1  0  0  0
 12 13  1  0  0  0
 13 14  1  0  0  0
 14 15  1  0  0  0
 15 16  1  0  0  0
 16 17  1  0  0  0
 17 18  1  0  0  0
 18 19  1  0  0  0
 19 20  1  0  0  0
 20 21  1  0  0  0
 21 22  1  0  0  0
 46 47  1  0  0  0
 47 48  1  0  0  0
 48 49  1  0  0  0
 49 50  1  0  0  0
 50 54  1  0  0  0
M  CHG 1  58  -1
M  END
> <minimizedAffinity>
-9.57560

> <CNNscore>
0.3650881648

> <CNNaffinity>
7.0860924721

> <CNN_VS>
2.5870485306

> <CNNaffinity_variance>
2.0111534595

$$$$
/media/chris/experiments/cd1a-new-docking/inputs/ligands/1onq_ligand.pdb


 62 62  0  0  0  0  0  0  0  0999 V2000
  -35.8116   60.1998   64.0584 C   0  0  0  0  0  0  0  0  0  0  0  0
  -36.7076   60.6353   65.1114 N   0  0  0  0  0  0  0  0  0  0  0  0
  -38.6309   61.5340   65.9119 O   0  0  0  0  0  0  0  0  0  0  0  0
  -37.9276   61.1755   64.9874 C   0  0  0  0  0  0  0  0  0  0  0  0
  -36.3789   60.5199   66.0322 H   0  0  0  0  0  0  0  0  0  0  0  0
  -38.4137   61.3359   63.5776 C   0  0  0  0  0  0  0  0  0  0  0  0
  -39.7242   60.5547   63.4796 C   0  0  0  0  0  0  0  0  0  0  0  0
  -40.3847   60.8118   62.1274 C   0  0  0  0  0  0  0  0  0  0  0  0
  -41.7469   61.4609   62.1672 C   0  0  0  0  0  0  0  0  0  0  0  0
  -42.6250   60.6328   63.0996 C   0  0  0  0  0  0  0  0  0  0  0  0
  -43.3551   61.4894   64.1428 C   0  0  0  0  0  0  0  0  0  0  0  0
  -44.8849   61.5249   63.9729 C   0  0  0  0  0  0  0  0  0  0  0  0
  -45.5977   60.3687   64.7084 C   0  0  0  0  0  0  0  0  0  0  0  0
  -47.1146   60.4635   64.5213 C   0  0  0  0  0  0  0  0  0  0  0  0
  -47.7853   59.1852   64.0333 C   0  0  0  0  0  0  0  0  0  0  0  0
  -49.2948   59.3346   63.9141 C   0  0  0  0  0  0  0  0  0  0  0  0
  -49.9751   58.4561   62.8616 C   0  0  0  0  0  0  0  0  0  0  0  0
  -49.1123   58.4622   61.6070 C   0  0  0  0  0  0  0  0  0  0  0  0
  -49.5736   59.2783   60.4085 C   0  0  0  0  0  0  0  0  0  0  0  0
  -49.3949   58.4872   59.1030 C   0  0  0  0  0  0  0  0  0  0  0  0
  -48.2163   57.4963   59.1131 C   0  0  0  0  0  0  0  0  0  0  0  0
  -47.2328   57.7156   57.9660 C   0  0  0  0  0  0  0  0  0  0  0  0
  -34.4892   58.2934   64.1714 O   0  0  0  0  0  0  0  0  0  0  0  0
  -35.8485   58.6875   64.1968 C   0  0  0  0  0  0  0  0  0  0  0  0
  -34.0230   58.6916   64.9231 H   0  0  0  0  0  0  0  0  0  0  0  0
  -36.6438   58.0912   63.0330 C   0  0  0  0  0  0  0  0  0  0  0  0
  -36.9269   58.7772   61.9126 C   0  0  0  0  0  0  0  0  0  0  0  0
  -37.7275   58.1110   60.7951 C   0  0  0  0  0  0  0  0  0  0  0  0
  -37.8275   58.9532   59.5149 C   0  0  0  0  0  0  0  0  0  0  0  0
  -39.0934   58.7294   58.6671 C   0  0  0  0  0  0  0  0  0  0  0  0
  -40.0194   57.6808   59.3288 C   0  0  0  0  0  0  0  0  0  0  0  0
  -41.4199   58.2009   59.7409 C   0  0  0  0  0  0  0  0  0  0  0  0
  -41.8948   57.7098   61.1287 C   0  0  0  0  0  0  0  0  0  0  0  0
  -40.8001   56.9739   61.9312 C   0  0  0  0  0  0  0  0  0  0  0  0
  -41.2876   55.6839   62.6018 C   0  0  0  0  0  0  0  0  0  0  0  0
  -41.8566   55.8336   64.0112 C   0  0  0  0  0  0  0  0  0  0  0  0
  -42.4692   57.2194   64.2949 C   0  0  0  0  0  0  0  0  0  0  0  0
  -43.5114   57.2561   65.4229 C   0  0  0  0  0  0  0  0  0  0  0  0
  -43.2041   58.3778   66.4191 C   0  0  0  0  0  0  0  0  0  0  0  0
  -41.8140   58.9845   66.3451 C   0  0  0  0  0  0  0  0  0  0  0  0
  -34.4184   60.8689   64.0508 C   0  0  0  0  0  0  0  0  0  0  0  0
  -34.2792   62.0673   63.2460 O   0  0  0  0  0  0  0  0  0  0  0  0
  -33.4165   64.6002   62.2372 O   0  0  0  0  0  0  0  0  0  0  0  0
  -29.6368   63.0831   63.1380 O   0  0  0  0  0  0  0  0  0  0  0  0
  -32.0469   61.3160   62.6647 O   0  0  0  0  0  0  0  0  0  0  0  0
  -33.0870   62.2897   62.4039 C   0  0  0  0  0  0  0  0  0  0  0  0
  -32.4210   63.6677   62.5260 C   0  0  0  0  0  0  0  0  0  0  0  0
  -31.2538   63.8825   61.5375 C   0  0  0  0  0  0  0  0  0  0  0  0
  -30.2273   62.8334   61.8648 C   0  0  0  0  0  0  0  0  0  0  0  0
  -30.8683   61.4578   61.8267 C   0  0  0  0  0  0  0  0  0  0  0  0
  -34.1593   64.4802   62.8494 H   0  0  0  0  0  0  0  0  0  0  0  0
  -29.2340   63.9655   63.1401 H   0  0  0  0  0  0  0  0  0  0  0  0
  -28.5494   60.9834   61.4932 O   0  0  0  0  0  0  0  0  0  0  0  0
  -29.6843   60.5641   62.1896 C   0  0  0  0  0  0  0  0  0  0  0  0
  -27.7990   60.4143   61.7254 H   0  0  0  0  0  0  0  0  0  0  0  0
  -30.5718   65.1539   61.6279 O   0  0  0  0  0  0  0  0  0  0  0  0
  -30.1245   65.1330   59.0751 O   0  0  0  0  0  0  0  0  0  0  0  0
  -28.3651   65.8326   60.5931 O   0  0  0  0  0  0  0  0  0  0  0  0
  -30.2324   67.3064   60.1292 O   0  0  0  0  0  0  0  0  0  0  0  0
  -29.8288   65.8857   60.3300 S   0  0  0  0  0  0  0  0  0  0  0  0
  -29.8679   64.2043   59.1871 H   0  0  0  0  0  0  0  0  0  0  0  0
  -31.1861   67.3503   59.9569 H   0  0  0  0  0  0  0  0  0  0  0  0
  2  1  1  0  0  0
  2  4  1  0  0  0
  2  5  1  0  0  0
 41 42  1  0  0  0
 41  1  1  0  0  0
 42 46  1  0  0  0
  1 24  1  0  0  0
 23 24  1  0  0  0
 23 25  1  0  0  0
 24 26  1  0  0  0
  3  4  2  0  0  0
 26 27  2  0  0  0
 27 28  1  0  0  0
 43 47  1  0  0  0
 43 51  1  0  0  0
 28 29  1  0  0  0
 56 48  1  0  0  0
 56 60  1  0  0  0
 29 30  1  0  0  0
 57 60  1  0  0  0
 57 61  1  0  0  0
 30 31  1  0  0  0
 44 49  1  0  0  0
 44 52  1  0  0  0
 31 32  1  0  0  0
 45 46  1  0  0  0
 45 50  1  0  0  0
 32 33  1  0  0  0
 53 54  1  0  0  0
 53 55  1  0  0  0
 33 34  1  0  0  0
 34 35  1  0  0  0
 35 36  1  0  0  0
 58 60  1  0  0  0
 36 37  1  0  0  0
 59 60  1  0  0  0
 59 62  1  0  0  0
 37 38  1  0  0  0
 38 39  1  0  0  0
 39 40  1  0  0  0
  4  6  1  0  0  0
  6  7  1  0  0  0
  7  8  1  0  0  0
  8  9  1  0  0  0
  9 10  1  0  0  0
 10 11  1  0  0  0
 11 12  1  0  0  0
 12 13  1  0  0  0
 13 14  1  0  0  0
 14 15  1  0  0  0
 15 16  1  0  0  0
 16 17  1  0  0  0
 17 18  1  0  0  0
 18 19  1  0  0  0
 19 20  1  0  0  0
 20 21  1  0  0  0
 21 22  1  0  0  0
 46 47  1  0  0  0
 47 48  1  0  0  0
 48 49  1  0  0  0
 49 50  1  0  0  0
 50 54  1  0  0  0
M  CHG 1  58  -1
M  END
> <minimizedAffinity>
-8.47311

> <CNNscore>
0.3145112395

> <CNNaffinity>
6.9641418457

> <CNN_VS>
2.1903009415

> <CNNaffinity_variance>
0.9502876401

$$$$
/media/chris/experiments/cd1a-new-docking/inputs/ligands/1onq_ligand.pdb


 62 62  0  0  0  0  0  0  0  0999 V2000
  -41.8130   60.5981   65.2708 C   0  0  0  0  0  0  0  0  0  0  0  0
  -41.7323   60.9719   63.8726 N   0  0  0  0  0  0  0  0  0  0  0  0
  -41.8964   60.5820   61.6436 O   0  0  0  0  0  0  0  0  0  0  0  0
  -41.9939   60.2148   62.7984 C   0  0  0  0  0  0  0  0  0  0  0  0
  -41.4501   61.8971   63.6894 H   0  0  0  0  0  0  0  0  0  0  0  0
  -42.4297   58.8113   63.0983 C   0  0  0  0  0  0  0  0  0  0  0  0
  -41.1678   57.9490   63.0638 C   0  0  0  0  0  0  0  0  0  0  0  0
  -41.5218   56.5229   62.6493 C   0  0  0  0  0  0  0  0  0  0  0  0
  -41.2361   56.1594   61.2124 C   0  0  0  0  0  0  0  0  0  0  0  0
  -41.6594   57.3405   60.3453 C   0  0  0  0  0  0  0  0  0  0  0  0
  -40.6072   57.7090   59.2907 C   0  0  0  0  0  0  0  0  0  0  0  0
  -39.7453   58.9309   59.6576 C   0  0  0  0  0  0  0  0  0  0  0  0
  -38.2410   58.7075   59.3880 C   0  0  0  0  0  0  0  0  0  0  0  0
  -37.4511   58.7094   60.7000 C   0  0  0  0  0  0  0  0  0  0  0  0
  -37.8911   57.6654   61.7191 C   0  0  0  0  0  0  0  0  0  0  0  0
  -36.9943   57.6445   62.9480 C   0  0  0  0  0  0  0  0  0  0  0  0
  -35.5414   58.0713   62.7259 C   0  0  0  0  0  0  0  0  0  0  0  0
  -35.0100   58.6476   64.0312 C   0  0  0  0  0  0  0  0  0  0  0  0
  -33.8805   59.6655   63.9727 C   0  0  0  0  0  0  0  0  0  0  0  0
  -32.6391   59.0707   63.2891 C   0  0  0  0  0  0  0  0  0  0  0  0
  -31.9923   59.9852   62.2325 C   0  0  0  0  0  0  0  0  0  0  0  0
  -30.5197   60.2795   62.5084 C   0  0  0  0  0  0  0  0  0  0  0  0
  -42.5194   61.8435   67.0999 O   0  0  0  0  0  0  0  0  0  0  0  0
  -42.9245   61.4943   65.7894 C   0  0  0  0  0  0  0  0  0  0  0  0
  -41.6814   62.3306   67.0603 H   0  0  0  0  0  0  0  0  0  0  0  0
  -44.2451   60.7206   65.7809 C   0  0  0  0  0  0  0  0  0  0  0  0
  -45.1279   60.7907   64.7700 C   0  0  0  0  0  0  0  0  0  0  0  0
  -46.4257   59.9878   64.8370 C   0  0  0  0  0  0  0  0  0  0  0  0
  -46.9390   59.7539   66.2652 C   0  0  0  0  0  0  0  0  0  0  0  0
  -48.4636   59.8636   66.4519 C   0  0  0  0  0  0  0  0  0  0  0  0
  -49.2037   59.5311   65.1340 C   0  0  0  0  0  0  0  0  0  0  0  0
  -50.6504   60.0772   65.0315 C   0  0  0  0  0  0  0  0  0  0  0  0
  -51.2374   60.0510   63.6006 C   0  0  0  0  0  0  0  0  0  0  0  0
  -50.2963   59.4082   62.5587 C   0  0  0  0  0  0  0  0  0  0  0  0
  -50.8033   58.0682   62.0121 C   0  0  0  0  0  0  0  0  0  0  0  0
  -50.6005   57.8332   60.5167 C   0  0  0  0  0  0  0  0  0  0  0  0
  -49.1348   57.5714   60.1175 C   0  0  0  0  0  0  0  0  0  0  0  0
  -48.5640   58.5267   59.0585 C   0  0  0  0  0  0  0  0  0  0  0  0
  -48.1745   57.7680   57.7866 C   0  0  0  0  0  0  0  0  0  0  0  0
  -46.8193   58.1028   57.1890 C   0  0  0  0  0  0  0  0  0  0  0  0
  -40.4752   60.6218   66.0445 C   0  0  0  0  0  0  0  0  0  0  0  0
  -39.3711   59.8912   65.4527 O   0  0  0  0  0  0  0  0  0  0  0  0
  -38.6841   60.8392   62.8437 O   0  0  0  0  0  0  0  0  0  0  0  0
  -37.0891   64.0361   64.9967 O   0  0  0  0  0  0  0  0  0  0  0  0
  -37.5506   61.3038   66.2118 O   0  0  0  0  0  0  0  0  0  0  0  0
  -38.1088   60.5688   65.0955 C   0  0  0  0  0  0  0  0  0  0  0  0
  -38.1818   61.5608   63.9259 C   0  0  0  0  0  0  0  0  0  0  0  0
  -36.8109   62.1474   63.5234 C   0  0  0  0  0  0  0  0  0  0  0  0
  -36.2968   62.8813   64.7310 C   0  0  0  0  0  0  0  0  0  0  0  0
  -36.2800   61.9499   65.9296 C   0  0  0  0  0  0  0  0  0  0  0  0
  -39.5466   60.4626   63.0786 H   0  0  0  0  0  0  0  0  0  0  0  0
  -37.0859   64.6162   64.2191 H   0  0  0  0  0  0  0  0  0  0  0  0
  -36.4272   62.6281   68.2170 O   0  0  0  0  0  0  0  0  0  0  0  0
  -35.7488   62.8753   67.0222 C   0  0  0  0  0  0  0  0  0  0  0  0
  -36.0881   63.2169   68.9092 H   0  0  0  0  0  0  0  0  0  0  0  0
  -36.8248   63.1094   62.4444 O   0  0  0  0  0  0  0  0  0  0  0  0
  -34.2379   63.1053   62.2856 O   0  0  0  0  0  0  0  0  0  0  0  0
  -35.4192   65.2115   62.5248 O   0  0  0  0  0  0  0  0  0  0  0  0
  -35.4284   64.0428   60.4015 O   0  0  0  0  0  0  0  0  0  0  0  0
  -35.4548   63.8700   61.8817 S   0  0  0  0  0  0  0  0  0  0  0  0
  -34.2376   62.9827   63.2478 H   0  0  0  0  0  0  0  0  0  0  0  0
  -35.4513   63.1724   59.9739 H   0  0  0  0  0  0  0  0  0  0  0  0
  2  1  1  0  0  0
  2  4  1  0  0  0
  2  5  1  0  0  0
 41 42  1  0  0  0
 41  1  1  0  0  0
 42 46  1  0  0  0
  1 24  1  0  0  0
 23 24  1  0  0  0
 23 25  1  0  0  0
 24 26  1  0  0  0
  3  4  2  0  0  0
 26 27  2  0  0  0
 27 28  1  0  0  0
 43 47  1  0  0  0
 43 51  1  0  0  0
 28 29  1  0  0  0
 56 48  1  0  0  0
 56 60  1  0  0  0
 29 30  1  0  0  0
 57 60  1  0  0  0
 57 61  1  0  0  0
 30 31  1  0  0  0
 44 49  1  0  0  0
 44 52  1  0  0  0
 31 32  1  0  0  0
 45 46  1  0  0  0
 45 50  1  0  0  0
 32 33  1  0  0  0
 53 54  1  0  0  0
 53 55  1  0  0  0
 33 34  1  0  0  0
 34 35  1  0  0  0
 35 36  1  0  0  0
 58 60  1  0  0  0
 36 37  1  0  0  0
 59 60  1  0  0  0
 59 62  1  0  0  0
 37 38  1  0  0  0
 38 39  1  0  0  0
 39 40  1  0  0  0
  4  6  1  0  0  0
  6  7  1  0  0  0
  7  8  1  0  0  0
  8  9  1  0  0  0
  9 10  1  0  0  0
 10 11  1  0  0  0
 11 12  1  0  0  0
 12 13  1  0  0  0
 13 14  1  0  0  0
 14 15  1  0  0  0
 15 16  1  0  0  0
 16 17  1  0  0  0
 17 18  1  0  0  0
 18 19  1  0  0  0
 19 20  1  0  0  0
 20 21  1  0  0  0
 21 22  1  0  0  0
 46 47  1  0  0  0
 47 48  1  0  0  0
 48 49  1  0  0  0
 49 50  1  0  0  0
 50 54  1  0  0  0
M  CHG 1  58  -1
M  END
> <minimizedAffinity>
-9.66963

> <CNNscore>
0.2507965863

> <CNNaffinity>
7.0925354958

> <CNN_VS>
1.7787836790

> <CNNaffinity_variance>
1.4870235920

$$$$
/media/chris/experiments/cd1a-new-docking/inputs/ligands/1onq_ligand.pdb


 62 62  0  0  0  0  0  0  0  0999 V2000
  -41.2485   60.2866   64.8932 C   0  0  0  0  0  0  0  0  0  0  0  0
  -41.7170   58.9744   65.2929 N   0  0  0  0  0  0  0  0  0  0  0  0
  -43.2100   57.5329   66.2098 O   0  0  0  0  0  0  0  0  0  0  0  0
  -42.8757   58.6560   65.8859 C   0  0  0  0  0  0  0  0  0  0  0  0
  -41.1083   58.2238   65.1054 H   0  0  0  0  0  0  0  0  0  0  0  0
  -43.7926   59.8118   66.1560 C   0  0  0  0  0  0  0  0  0  0  0  0
  -45.1841   59.3781   65.6945 C   0  0  0  0  0  0  0  0  0  0  0  0
  -45.7454   60.3949   64.7036 C   0  0  0  0  0  0  0  0  0  0  0  0
  -47.2401   60.3630   64.4954 C   0  0  0  0  0  0  0  0  0  0  0  0
  -47.8192   59.3416   65.4686 C   0  0  0  0  0  0  0  0  0  0  0  0
  -49.1094   59.8291   66.1416 C   0  0  0  0  0  0  0  0  0  0  0  0
  -50.4008   59.3076   65.4852 C   0  0  0  0  0  0  0  0  0  0  0  0
  -51.0489   60.3372   64.5336 C   0  0  0  0  0  0  0  0  0  0  0  0
  -51.3946   59.6881   63.1904 C   0  0  0  0  0  0  0  0  0  0  0  0
  -50.5935   58.4363   62.8539 C   0  0  0  0  0  0  0  0  0  0  0  0
  -49.4031   58.7370   61.9552 C   0  0  0  0  0  0  0  0  0  0  0  0
  -49.7325   59.3034   60.5721 C   0  0  0  0  0  0  0  0  0  0  0  0
  -49.6804   58.1619   59.5658 C   0  0  0  0  0  0  0  0  0  0  0  0
  -48.8456   56.9340   59.8983 C   0  0  0  0  0  0  0  0  0  0  0  0
  -47.7480   56.7137   58.8453 C   0  0  0  0  0  0  0  0  0  0  0  0
  -47.9802   57.4554   57.5161 C   0  0  0  0  0  0  0  0  0  0  0  0
  -46.8020   58.3330   57.1002 C   0  0  0  0  0  0  0  0  0  0  0  0
  -42.8053   60.7538   63.2338 O   0  0  0  0  0  0  0  0  0  0  0  0
  -41.4815   60.2783   63.3922 C   0  0  0  0  0  0  0  0  0  0  0  0
  -42.8682   61.6571   63.5820 H   0  0  0  0  0  0  0  0  0  0  0  0
  -41.3135   58.8528   62.8610 C   0  0  0  0  0  0  0  0  0  0  0  0
  -41.8991   58.4187   61.7320 C   0  0  0  0  0  0  0  0  0  0  0  0
  -41.6829   56.9793   61.2682 C   0  0  0  0  0  0  0  0  0  0  0  0
  -40.9261   56.8621   59.9372 C   0  0  0  0  0  0  0  0  0  0  0  0
  -40.7349   58.1782   59.1610 C   0  0  0  0  0  0  0  0  0  0  0  0
  -39.2310   58.5000   58.9874 C   0  0  0  0  0  0  0  0  0  0  0  0
  -38.5639   59.2139   60.1903 C   0  0  0  0  0  0  0  0  0  0  0  0
  -37.4530   58.3879   60.8804 C   0  0  0  0  0  0  0  0  0  0  0  0
  -37.9748   57.4729   62.0094 C   0  0  0  0  0  0  0  0  0  0  0  0
  -37.9004   58.1077   63.4032 C   0  0  0  0  0  0  0  0  0  0  0  0
  -36.6779   57.7426   64.2428 C   0  0  0  0  0  0  0  0  0  0  0  0
  -35.4271   58.5862   63.9268 C   0  0  0  0  0  0  0  0  0  0  0  0
  -34.4296   57.9392   62.9539 C   0  0  0  0  0  0  0  0  0  0  0  0
  -32.9868   58.2755   63.3413 C   0  0  0  0  0  0  0  0  0  0  0  0
  -32.7188   58.4977   64.8193 C   0  0  0  0  0  0  0  0  0  0  0  0
  -39.8310   60.6641   65.3802 C   0  0  0  0  0  0  0  0  0  0  0  0
  -39.0575   61.5320   64.5132 O   0  0  0  0  0  0  0  0  0  0  0  0
  -37.2232   61.6628   62.3233 O   0  0  0  0  0  0  0  0  0  0  0  0
  -35.2742   64.3955   64.7997 O   0  0  0  0  0  0  0  0  0  0  0  0
  -37.1832   62.2964   65.8506 O   0  0  0  0  0  0  0  0  0  0  0  0
  -37.5888   61.6230   64.6341 C   0  0  0  0  0  0  0  0  0  0  0  0
  -36.8594   62.3380   63.4877 C   0  0  0  0  0  0  0  0  0  0  0  0
  -35.3204   62.2980   63.6109 C   0  0  0  0  0  0  0  0  0  0  0  0
  -34.9830   63.0033   64.8954 C   0  0  0  0  0  0  0  0  0  0  0  0
  -35.7451   62.3695   66.0451 C   0  0  0  0  0  0  0  0  0  0  0  0
  -38.1884   61.6777   62.2290 H   0  0  0  0  0  0  0  0  0  0  0  0
  -34.7776   64.7795   64.0602 H   0  0  0  0  0  0  0  0  0  0  0  0
  -36.2939   64.1018   67.5981 O   0  0  0  0  0  0  0  0  0  0  0  0
  -35.2771   63.2221   67.2225 C   0  0  0  0  0  0  0  0  0  0  0  0
  -35.9942   64.6420   68.3459 H   0  0  0  0  0  0  0  0  0  0  0  0
  -34.5828   62.9808   62.5719 O   0  0  0  0  0  0  0  0  0  0  0  0
  -32.4615   63.2817   61.1135 O   0  0  0  0  0  0  0  0  0  0  0  0
  -32.4435   61.6803   62.9368 O   0  0  0  0  0  0  0  0  0  0  0  0
  -32.3126   64.0558   63.3993 O   0  0  0  0  0  0  0  0  0  0  0  0
  -32.9196   63.0244   62.5109 S   0  0  0  0  0  0  0  0  0  0  0  0
  -32.8472   62.6189   60.5196 H   0  0  0  0  0  0  0  0  0  0  0  0
  -32.6178   64.9359   63.1286 H   0  0  0  0  0  0  0  0  0  0  0  0
  2  1  1  0  0  0
  2  4  1  0  0  0
  2  5  1  0  0  0
 41 42  1  0  0  0
 41  1  1  0  0  0
 42 46  1  0  0  0
  1 24  1  0  0  0
 23 24  1  0  0  0
 23 25  1  0  0  0
 24 26  1  0  0  0
  3  4  2  0  0  0
 26 27  2  0  0  0
 27 28  1  0  0  0
 43 47  1  0  0  0
 43 51  1  0  0  0
 28 29  1  0  0  0
 56 48  1  0  0  0
 56 60  1  0  0  0
 29 30  1  0  0  0
 57 60  1  0  0  0
 57 61  1  0  0  0
 30 31  1  0  0  0
 44 49  1  0  0  0
 44 52  1  0  0  0
 31 32  1  0  0  0
 45 46  1  0  0  0
 45 50  1  0  0  0
 32 33  1  0  0  0
 53 54  1  0  0  0
 53 55  1  0  0  0
 33 34  1  0  0  0
 34 35  1  0  0  0
 35 36  1  0  0  0
 58 60  1  0  0  0
 36 37  1  0  0  0
 59 60  1  0  0  0
 59 62  1  0  0  0
 37 38  1  0  0  0
 38 39  1  0  0  0
 39 40  1  0  0  0
  4  6  1  0  0  0
  6  7  1  0  0  0
  7  8  1  0  0  0
  8  9  1  0  0  0
  9 10  1  0  0  0
 10 11  1  0  0  0
 11 12  1  0  0  0
 12 13  1  0  0  0
 13 14  1  0  0  0
 14 15  1  0  0  0
 15 16  1  0  0  0
 16 17  1  0  0  0
 17 18  1  0  0  0
 18 19  1  0  0  0
 19 20  1  0  0  0
 20 21  1  0  0  0
 21 22  1  0  0  0
 46 47  1  0  0  0
 47 48  1  0  0  0
 48 49  1  0  0  0
 49 50  1  0  0  0
 50 54  1  0  0  0
M  CHG 1  58  -1
M  END
> <minimizedAffinity>
-9.72550

> <CNNscore>
0.2444467843

> <CNNaffinity>
7.0841903687

> <CNN_VS>
1.7317075729

> <CNNaffinity_variance>
1.7595512867

$$$$
/media/chris/experiments/cd1a-new-docking/inputs/ligands/1onq_ligand.pdb


 62 62  0  0  0  0  0  0  0  0999 V2000
  -39.8677   60.6994   65.0801 C   0  0  0  0  0  0  0  0  0  0  0  0
  -40.4364   59.4209   65.4587 N   0  0  0  0  0  0  0  0  0  0  0  0
  -42.0298   58.0852   66.3668 O   0  0  0  0  0  0  0  0  0  0  0  0
  -41.6093   59.1844   66.0619 C   0  0  0  0  0  0  0  0  0  0  0  0
  -39.8934   58.6277   65.2462 H   0  0  0  0  0  0  0  0  0  0  0  0
  -42.4254   60.4045   66.3702 C   0  0  0  0  0  0  0  0  0  0  0  0
  -43.5496   60.4468   65.3350 C   0  0  0  0  0  0  0  0  0  0  0  0
  -44.8378   59.8955   65.9413 C   0  0  0  0  0  0  0  0  0  0  0  0
  -45.5526   58.8398   65.1333 C   0  0  0  0  0  0  0  0  0  0  0  0
  -46.7816   59.4913   64.5081 C   0  0  0  0  0  0  0  0  0  0  0  0
  -48.0856   58.7684   64.8715 C   0  0  0  0  0  0  0  0  0  0  0  0
  -48.9424   59.4996   65.9211 C   0  0  0  0  0  0  0  0  0  0  0  0
  -50.4531   59.4503   65.6029 C   0  0  0  0  0  0  0  0  0  0  0  0
  -50.8122   60.4795   64.5274 C   0  0  0  0  0  0  0  0  0  0  0  0
  -51.5461   59.9172   63.3161 C   0  0  0  0  0  0  0  0  0  0  0  0
  -50.5911   59.3746   62.2632 C   0  0  0  0  0  0  0  0  0  0  0  0
  -50.7862   57.9078   61.8723 C   0  0  0  0  0  0  0  0  0  0  0  0
  -50.2006   57.7042   60.4815 C   0  0  0  0  0  0  0  0  0  0  0  0
  -49.2525   56.5362   60.2533 C   0  0  0  0  0  0  0  0  0  0  0  0
  -48.0110   56.9818   59.4645 C   0  0  0  0  0  0  0  0  0  0  0  0
  -48.3166   57.8475   58.2283 C   0  0  0  0  0  0  0  0  0  0  0  0
  -47.0752   58.1864   57.4064 C   0  0  0  0  0  0  0  0  0  0  0  0
  -41.1096   61.7158   63.4007 O   0  0  0  0  0  0  0  0  0  0  0  0
  -40.1042   60.7356   63.5800 C   0  0  0  0  0  0  0  0  0  0  0  0
  -40.7838   62.5742   63.7137 H   0  0  0  0  0  0  0  0  0  0  0  0
  -40.5557   59.3527   63.1044 C   0  0  0  0  0  0  0  0  0  0  0  0
  -41.5909   59.1685   62.2674 C   0  0  0  0  0  0  0  0  0  0  0  0
  -41.9805   57.7548   61.8396 C   0  0  0  0  0  0  0  0  0  0  0  0
  -41.3745   57.3225   60.4965 C   0  0  0  0  0  0  0  0  0  0  0  0
  -40.9484   58.4669   59.5583 C   0  0  0  0  0  0  0  0  0  0  0  0
  -39.6453   58.1043   58.8062 C   0  0  0  0  0  0  0  0  0  0  0  0
  -38.4207   58.9944   59.1374 C   0  0  0  0  0  0  0  0  0  0  0  0
  -38.1925   59.2203   60.6505 C   0  0  0  0  0  0  0  0  0  0  0  0
  -37.0951   58.3155   61.2514 C   0  0  0  0  0  0  0  0  0  0  0  0
  -37.5661   57.4888   62.4540 C   0  0  0  0  0  0  0  0  0  0  0  0
  -37.1419   58.0014   63.8287 C   0  0  0  0  0  0  0  0  0  0  0  0
  -35.7732   57.4712   64.2994 C   0  0  0  0  0  0  0  0  0  0  0  0
  -34.6975   58.5445   64.5247 C   0  0  0  0  0  0  0  0  0  0  0  0
  -33.5276   58.3628   63.5534 C   0  0  0  0  0  0  0  0  0  0  0  0
  -33.0612   59.6068   62.8180 C   0  0  0  0  0  0  0  0  0  0  0  0
  -38.4239   60.9565   65.5682 C   0  0  0  0  0  0  0  0  0  0  0  0
  -37.4316   61.2234   64.5449 O   0  0  0  0  0  0  0  0  0  0  0  0
  -35.3244   62.1449   66.2444 O   0  0  0  0  0  0  0  0  0  0  0  0
  -33.8463   63.7246   62.6781 O   0  0  0  0  0  0  0  0  0  0  0  0
  -36.7663   63.0471   63.0898 O   0  0  0  0  0  0  0  0  0  0  0  0
  -36.7686   62.5390   64.4462 C   0  0  0  0  0  0  0  0  0  0  0  0
  -35.3115   62.5992   64.9263 C   0  0  0  0  0  0  0  0  0  0  0  0
  -34.7109   64.0220   64.9095 C   0  0  0  0  0  0  0  0  0  0  0  0
  -34.7536   64.4795   63.4776 C   0  0  0  0  0  0  0  0  0  0  0  0
  -36.1698   64.3639   62.9433 C   0  0  0  0  0  0  0  0  0  0  0  0
  -35.6991   61.2507   66.2746 H   0  0  0  0  0  0  0  0  0  0  0  0
  -32.9492   63.8125   63.0367 H   0  0  0  0  0  0  0  0  0  0  0  0
  -35.6755   63.7781   60.6792 O   0  0  0  0  0  0  0  0  0  0  0  0
  -35.9910   64.8558   61.5086 C   0  0  0  0  0  0  0  0  0  0  0  0
  -35.5625   64.0930   59.7687 H   0  0  0  0  0  0  0  0  0  0  0  0
  -33.3310   64.1331   65.3259 O   0  0  0  0  0  0  0  0  0  0  0  0
  -31.2844   65.2499   66.4578 O   0  0  0  0  0  0  0  0  0  0  0  0
  -33.5100   65.6645   67.3318 O   0  0  0  0  0  0  0  0  0  0  0  0
  -32.7926   66.7218   65.2723 O   0  0  0  0  0  0  0  0  0  0  0  0
  -32.7130   65.4775   66.0890 S   0  0  0  0  0  0  0  0  0  0  0  0
  -31.2127   64.4427   66.9907 H   0  0  0  0  0  0  0  0  0  0  0  0
  -32.2753   66.6087   64.4595 H   0  0  0  0  0  0  0  0  0  0  0  0
  2  1  1  0  0  0
  2  4  1  0  0  0
  2  5  1  0  0  0
 41 42  1  0  0  0
 41  1  1  0  0  0
 42 46  1  0  0  0
  1 24  1  0  0  0
 23 24  1  0  0  0
 23 25  1  0  0  0
 24 26  1  0  0  0
  3  4  2  0  0  0
 26 27  2  0  0  0
 27 28  1  0  0  0
 43 47  1  0  0  0
 43 51  1  0  0  0
 28 29  1  0  0  0
 56 48  1  0  0  0
 56 60  1  0  0  0
 29 30  1  0  0  0
 57 60  1  0  0  0
 57 61  1  0  0  0
 30 31  1  0  0  0
 44 49  1  0  0  0
 44 52  1  0  0  0
 31 32  1  0  0  0
 45 46  1  0  0  0
 45 50  1  0  0  0
 32 33  1  0  0  0
 53 54  1  0  0  0
 53 55  1  0  0  0
 33 34  1  0  0  0
 34 35  1  0  0  0
 35 36  1  0  0  0
 58 60  1  0  0  0
 36 37  1  0  0  0
 59 60  1  0  0  0
 59 62  1  0  0  0
 37 38  1  0  0  0
 38 39  1  0  0  0
 39 40  1  0  0  0
  4  6  1  0  0  0
  6  7  1  0  0  0
  7  8  1  0  0  0
  8  9  1  0  0  0
  9 10  1  0  0  0
 10 11  1  0  0  0
 11 12  1  0  0  0
 12 13  1  0  0  0
 13 14  1  0  0  0
 14 15  1  0  0  0
 15 16  1  0  0  0
 16 17  1  0  0  0
 17 18  1  0  0  0
 18 19  1  0  0  0
 19 20  1  0  0  0
 20 21  1  0  0  0
 21 22  1  0  0  0
 46 47  1  0  0  0
 47 48  1  0  0  0
 48 49  1  0  0  0
 49 50  1  0  0  0
 50 54  1  0  0  0
M  CHG 1  58  -1
M  END
> <minimizedAffinity>
-9.52244

> <CNNscore>
0.2353749275

> <CNNaffinity>
6.8678145409

> <CNN_VS>
1.6165113449

> <CNNaffinity_variance>
1.8299028873

$$$$
/media/chris/experiments/cd1a-new-docking/inputs/ligands/1onq_ligand.pdb


 62 62  0  0  0  0  0  0  0  0999 V2000
  -42.5907   58.8457   64.3078 C   0  0  0  0  0  0  0  0  0  0  0  0
  -42.1809   60.0289   65.0381 N   0  0  0  0  0  0  0  0  0  0  0  0
  -42.5543   61.9629   66.1640 O   0  0  0  0  0  0  0  0  0  0  0  0
  -42.9581   60.9823   65.5697 C   0  0  0  0  0  0  0  0  0  0  0  0
  -41.2110   60.1468   65.1583 H   0  0  0  0  0  0  0  0  0  0  0  0
  -44.4326   60.7808   65.3828 C   0  0  0  0  0  0  0  0  0  0  0  0
  -44.9168   59.9784   66.5907 C   0  0  0  0  0  0  0  0  0  0  0  0
  -46.3359   59.4715   66.3451 C   0  0  0  0  0  0  0  0  0  0  0  0
  -46.7777   59.4088   64.9032 C   0  0  0  0  0  0  0  0  0  0  0  0
  -48.2286   58.9393   64.8857 C   0  0  0  0  0  0  0  0  0  0  0  0
  -49.0552   59.5247   66.0386 C   0  0  0  0  0  0  0  0  0  0  0  0
  -50.5523   59.6933   65.7210 C   0  0  0  0  0  0  0  0  0  0  0  0
  -50.8150   60.7097   64.5879 C   0  0  0  0  0  0  0  0  0  0  0  0
  -51.5461   60.0401   63.4208 C   0  0  0  0  0  0  0  0  0  0  0  0
  -50.6533   59.6047   62.2652 C   0  0  0  0  0  0  0  0  0  0  0  0
  -50.5913   58.0912   62.1223 C   0  0  0  0  0  0  0  0  0  0  0  0
  -50.3886   57.5589   60.7017 C   0  0  0  0  0  0  0  0  0  0  0  0
  -49.9089   58.7090   59.8267 C   0  0  0  0  0  0  0  0  0  0  0  0
  -48.6423   58.5210   59.0047 C   0  0  0  0  0  0  0  0  0  0  0  0
  -48.8331   57.4256   57.9436 C   0  0  0  0  0  0  0  0  0  0  0  0
  -47.6499   57.2657   56.9712 C   0  0  0  0  0  0  0  0  0  0  0  0
  -46.6491   58.4166   57.0432 C   0  0  0  0  0  0  0  0  0  0  0  0
  -42.3896   57.3749   66.0945 O   0  0  0  0  0  0  0  0  0  0  0  0
  -41.7137   57.7630   64.9129 C   0  0  0  0  0  0  0  0  0  0  0  0
  -43.2615   57.0167   65.8654 H   0  0  0  0  0  0  0  0  0  0  0  0
  -40.3261   58.3390   65.2051 C   0  0  0  0  0  0  0  0  0  0  0  0
  -39.2031   57.8660   64.6382 C   0  0  0  0  0  0  0  0  0  0  0  0
  -37.8544   58.4951   64.9827 C   0  0  0  0  0  0  0  0  0  0  0  0
  -36.6553   57.5673   64.7388 C   0  0  0  0  0  0  0  0  0  0  0  0
  -35.3446   58.2652   64.3308 C   0  0  0  0  0  0  0  0  0  0  0  0
  -34.9930   57.9546   62.8560 C   0  0  0  0  0  0  0  0  0  0  0  0
  -33.5258   58.2447   62.4503 C   0  0  0  0  0  0  0  0  0  0  0  0
  -32.6415   58.7711   63.6053 C   0  0  0  0  0  0  0  0  0  0  0  0
  -31.5562   59.7689   63.1466 C   0  0  0  0  0  0  0  0  0  0  0  0
  -31.7627   60.2940   61.7208 C   0  0  0  0  0  0  0  0  0  0  0  0
  -31.4809   61.7795   61.5049 C   0  0  0  0  0  0  0  0  0  0  0  0
  -30.5397   62.3973   62.5578 C   0  0  0  0  0  0  0  0  0  0  0  0
  -29.0674   62.5100   62.1341 C   0  0  0  0  0  0  0  0  0  0  0  0
  -28.2224   61.4109   62.7844 C   0  0  0  0  0  0  0  0  0  0  0  0
  -27.8829   60.2151   61.9123 C   0  0  0  0  0  0  0  0  0  0  0  0
  -42.5800   58.9769   62.7678 C   0  0  0  0  0  0  0  0  0  0  0  0
  -42.2188   60.2745   62.2303 O   0  0  0  0  0  0  0  0  0  0  0  0
  -39.9140   61.4403   63.4576 O   0  0  0  0  0  0  0  0  0  0  0  0
  -37.9123   58.5054   61.2713 O   0  0  0  0  0  0  0  0  0  0  0  0
  -40.6651   59.5175   60.5278 O   0  0  0  0  0  0  0  0  0  0  0  0
  -40.9176   60.4934   61.5678 C   0  0  0  0  0  0  0  0  0  0  0  0
  -39.6829   60.4730   62.4802 C   0  0  0  0  0  0  0  0  0  0  0  0
  -38.3672   60.8244   61.7516 C   0  0  0  0  0  0  0  0  0  0  0  0
  -38.1832   59.7775   60.6878 C   0  0  0  0  0  0  0  0  0  0  0  0
  -39.4187   59.7165   59.8080 C   0  0  0  0  0  0  0  0  0  0  0  0
  -40.7380   61.2355   63.9266 H   0  0  0  0  0  0  0  0  0  0  0  0
  -37.1205   58.5673   61.8283 H   0  0  0  0  0  0  0  0  0  0  0  0
  -37.7833   58.8879   58.2742 O   0  0  0  0  0  0  0  0  0  0  0  0
  -39.0350   58.6109   58.8269 C   0  0  0  0  0  0  0  0  0  0  0  0
  -37.5419   58.1844   57.6515 H   0  0  0  0  0  0  0  0  0  0  0  0
  -37.1677   60.7931   62.5579 O   0  0  0  0  0  0  0  0  0  0  0  0
  -35.6840   62.9169   62.4854 O   0  0  0  0  0  0  0  0  0  0  0  0
  -35.7886   61.5985   64.5201 O   0  0  0  0  0  0  0  0  0  0  0  0
  -37.6459   63.0245   63.8946 O   0  0  0  0  0  0  0  0  0  0  0  0
  -36.5812   62.1205   63.3739 S   0  0  0  0  0  0  0  0  0  0  0  0
  -34.9833   62.3441   62.1363 H   0  0  0  0  0  0  0  0  0  0  0  0
  -38.1679   63.3697   63.1534 H   0  0  0  0  0  0  0  0  0  0  0  0
  2  1  1  0  0  0
  2  4  1  0  0  0
  2  5  1  0  0  0
 41 42  1  0  0  0
 41  1  1  0  0  0
 42 46  1  0  0  0
  1 24  1  0  0  0
 23 24  1  0  0  0
 23 25  1  0  0  0
 24 26  1  0  0  0
  3  4  2  0  0  0
 26 27  2  0  0  0
 27 28  1  0  0  0
 43 47  1  0  0  0
 43 51  1  0  0  0
 28 29  1  0  0  0
 56 48  1  0  0  0
 56 60  1  0  0  0
 29 30  1  0  0  0
 57 60  1  0  0  0
 57 61  1  0  0  0
 30 31  1  0  0  0
 44 49  1  0  0  0
 44 52  1  0  0  0
 31 32  1  0  0  0
 45 46  1  0  0  0
 45 50  1  0  0  0
 32 33  1  0  0  0
 53 54  1  0  0  0
 53 55  1  0  0  0
 33 34  1  0  0  0
 34 35  1  0  0  0
 35 36  1  0  0  0
 58 60  1  0  0  0
 36 37  1  0  0  0
 59 60  1  0  0  0
 59 62  1  0  0  0
 37 38  1  0  0  0
 38 39  1  0  0  0
 39 40  1  0  0  0
  4  6  1  0  0  0
  6  7  1  0  0  0
  7  8  1  0  0  0
  8  9  1  0  0  0
  9 10  1  0  0  0
 10 11  1  0  0  0
 11 12  1  0  0  0
 12 13  1  0  0  0
 13 14  1  0  0  0
 14 15  1  0  0  0
 15 16  1  0  0  0
 16 17  1  0  0  0
 17 18  1  0  0  0
 18 19  1  0  0  0
 19 20  1  0  0  0
 20 21  1  0  0  0
 21 22  1  0  0  0
 46 47  1  0  0  0
 47 48  1  0  0  0
 48 49  1  0  0  0
 49 50  1  0  0  0
 50 54  1  0  0  0
M  CHG 1  58  -1
M  END
> <minimizedAffinity>
-9.44400

> <CNNscore>
0.2332882881

> <CNNaffinity>
6.6734657288

> <CNN_VS>
1.5568413734

> <CNNaffinity_variance>
1.3645651340

$$$$
/media/chris/experiments/cd1a-new-docking/inputs/ligands/1onq_ligand.pdb


 62 62  0  0  0  0  0  0  0  0999 V2000
  -34.8910   63.0616   63.2201 C   0  0  0  0  0  0  0  0  0  0  0  0
  -35.3717   63.4645   64.5269 N   0  0  0  0  0  0  0  0  0  0  0  0
  -36.8783   63.5071   66.2228 O   0  0  0  0  0  0  0  0  0  0  0  0
  -36.5224   63.1262   65.1245 C   0  0  0  0  0  0  0  0  0  0  0  0
  -34.7791   64.0608   65.0391 H   0  0  0  0  0  0  0  0  0  0  0  0
  -37.4077   62.2112   64.3318 C   0  0  0  0  0  0  0  0  0  0  0  0
  -37.7663   61.0473   65.2559 C   0  0  0  0  0  0  0  0  0  0  0  0
  -39.1196   60.4632   64.8580 C   0  0  0  0  0  0  0  0  0  0  0  0
  -39.3183   58.9945   65.1442 C   0  0  0  0  0  0  0  0  0  0  0  0
  -40.8201   58.7344   65.1975 C   0  0  0  0  0  0  0  0  0  0  0  0
  -41.2565   57.5885   64.2747 C   0  0  0  0  0  0  0  0  0  0  0  0
  -42.7169   57.1414   64.4692 C   0  0  0  0  0  0  0  0  0  0  0  0
  -43.4423   57.9276   65.5834 C   0  0  0  0  0  0  0  0  0  0  0  0
  -44.9504   57.6667   65.5342 C   0  0  0  0  0  0  0  0  0  0  0  0
  -45.8146   58.9098   65.3605 C   0  0  0  0  0  0  0  0  0  0  0  0
  -46.6460   59.2123   66.5984 C   0  0  0  0  0  0  0  0  0  0  0  0
  -47.9203   60.0281   66.3680 C   0  0  0  0  0  0  0  0  0  0  0  0
  -48.9371   59.1353   65.6698 C   0  0  0  0  0  0  0  0  0  0  0  0
  -50.3615   59.6437   65.5036 C   0  0  0  0  0  0  0  0  0  0  0  0
  -50.4741   60.5765   64.2873 C   0  0  0  0  0  0  0  0  0  0  0  0
  -50.0960   59.9238   62.9449 C   0  0  0  0  0  0  0  0  0  0  0  0
  -51.0079   58.7609   62.5606 C   0  0  0  0  0  0  0  0  0  0  0  0
  -33.0132   62.0570   62.2925 O   0  0  0  0  0  0  0  0  0  0  0  0
  -33.5929   62.3456   63.5512 C   0  0  0  0  0  0  0  0  0  0  0  0
  -32.8330   62.8859   61.8219 H   0  0  0  0  0  0  0  0  0  0  0  0
  -33.9031   61.0761   64.3478 C   0  0  0  0  0  0  0  0  0  0  0  0
  -34.2659   59.9189   63.7687 C   0  0  0  0  0  0  0  0  0  0  0  0
  -34.5601   58.6950   64.6340 C   0  0  0  0  0  0  0  0  0  0  0  0
  -35.6559   57.7811   64.0663 C   0  0  0  0  0  0  0  0  0  0  0  0
  -36.5789   58.4218   63.0134 C   0  0  0  0  0  0  0  0  0  0  0  0
  -37.3289   57.3350   62.2062 C   0  0  0  0  0  0  0  0  0  0  0  0
  -38.6874   57.7765   61.6053 C   0  0  0  0  0  0  0  0  0  0  0  0
  -38.5736   58.4842   60.2345 C   0  0  0  0  0  0  0  0  0  0  0  0
  -39.0363   59.9571   60.2596 C   0  0  0  0  0  0  0  0  0  0  0  0
  -39.9991   60.2825   61.4079 C   0  0  0  0  0  0  0  0  0  0  0  0
  -41.4339   60.6182   61.0063 C   0  0  0  0  0  0  0  0  0  0  0  0
  -42.1892   61.4752   62.0412 C   0  0  0  0  0  0  0  0  0  0  0  0
  -42.9853   60.6844   63.0903 C   0  0  0  0  0  0  0  0  0  0  0  0
  -43.6216   61.6226   64.1198 C   0  0  0  0  0  0  0  0  0  0  0  0
  -43.0776   61.5407   65.5351 C   0  0  0  0  0  0  0  0  0  0  0  0
  -34.8211   64.1852   62.1610 C   0  0  0  0  0  0  0  0  0  0  0  0
  -34.3687   65.4835   62.6224 O   0  0  0  0  0  0  0  0  0  0  0  0
  -33.0004   66.9937   64.6285 O   0  0  0  0  0  0  0  0  0  0  0  0
  -29.9317   64.2827   63.8333 O   0  0  0  0  0  0  0  0  0  0  0  0
  -32.1448   64.8850   61.8598 O   0  0  0  0  0  0  0  0  0  0  0  0
  -32.9398   65.8536   62.5861 C   0  0  0  0  0  0  0  0  0  0  0  0
  -32.2535   66.0330   63.9478 C   0  0  0  0  0  0  0  0  0  0  0  0
  -30.7960   66.5339   63.8468 C   0  0  0  0  0  0  0  0  0  0  0  0
  -30.0436   65.4849   63.0755 C   0  0  0  0  0  0  0  0  0  0  0  0
  -30.7366   65.2259   61.7500 C   0  0  0  0  0  0  0  0  0  0  0  0
  -33.9206   66.6957   64.7017 H   0  0  0  0  0  0  0  0  0  0  0  0
  -29.4869   64.4709   64.6745 H   0  0  0  0  0  0  0  0  0  0  0  0
  -30.4442   62.8991   61.2869 O   0  0  0  0  0  0  0  0  0  0  0  0
  -29.8380   64.1488   61.1462 C   0  0  0  0  0  0  0  0  0  0  0  0
  -29.8716   62.2169   60.9027 H   0  0  0  0  0  0  0  0  0  0  0  0
  -30.0920   66.6940   65.0992 O   0  0  0  0  0  0  0  0  0  0  0  0
  -27.5286   66.7029   65.4815 O   0  0  0  0  0  0  0  0  0  0  0  0
  -28.8901   68.4605   66.4541 O   0  0  0  0  0  0  0  0  0  0  0  0
  -28.4117   68.4627   64.0782 O   0  0  0  0  0  0  0  0  0  0  0  0
  -28.7024   67.5975   65.2565 S   0  0  0  0  0  0  0  0  0  0  0  0
  -27.6998   66.1311   66.2461 H   0  0  0  0  0  0  0  0  0  0  0  0
  -28.2878   67.9078   63.2922 H   0  0  0  0  0  0  0  0  0  0  0  0
  2  1  1  0  0  0
  2  4  1  0  0  0
  2  5  1  0  0  0
 41 42  1  0  0  0
 41  1  1  0  0  0
 42 46  1  0  0  0
  1 24  1  0  0  0
 23 24  1  0  0  0
 23 25  1  0  0  0
 24 26  1  0  0  0
  3  4  2  0  0  0
 26 27  2  0  0  0
 27 28  1  0  0  0
 43 47  1  0  0  0
 43 51  1  0  0  0
 28 29  1  0  0  0
 56 48  1  0  0  0
 56 60  1  0  0  0
 29 30  1  0  0  0
 57 60  1  0  0  0
 57 61  1  0  0  0
 30 31  1  0  0  0
 44 49  1  0  0  0
 44 52  1  0  0  0
 31 32  1  0  0  0
 45 46  1  0  0  0
 45 50  1  0  0  0
 32 33  1  0  0  0
 53 54  1  0  0  0
 53 55  1  0  0  0
 33 34  1  0  0  0
 34 35  1  0  0  0
 35 36  1  0  0  0
 58 60  1  0  0  0
 36 37  1  0  0  0
 59 60  1  0  0  0
 59 62  1  0  0  0
 37 38  1  0  0  0
 38 39  1  0  0  0
 39 40  1  0  0  0
  4  6  1  0  0  0
  6  7  1  0  0  0
  7  8  1  0  0  0
  8  9  1  0  0  0
  9 10  1  0  0  0
 10 11  1  0  0  0
 11 12  1  0  0  0
 12 13  1  0  0  0
 13 14  1  0  0  0
 14 15  1  0  0  0
 15 16  1  0  0  0
 16 17  1  0  0  0
 17 18  1  0  0  0
 18 19  1  0  0  0
 19 20  1  0  0  0
 20 21  1  0  0  0
 21 22  1  0  0  0
 46 47  1  0  0  0
 47 48  1  0  0  0
 48 49  1  0  0  0
 49 50  1  0  0  0
 50 54  1  0  0  0
M  CHG 1  58  -1
M  END
> <minimizedAffinity>
-8.08412

> <CNNscore>
0.2190265208

> <CNNaffinity>
6.7472939491

> <CNN_VS>
1.4778363705

> <CNNaffinity_variance>
0.9462097287

$$$$
/media/chris/experiments/cd1a-new-docking/inputs/ligands/1onq_ligand.pdb


 62 62  0  0  0  0  0  0  0  0999 V2000
  -41.2107   60.0986   64.2038 C   0  0  0  0  0  0  0  0  0  0  0  0
  -41.5603   58.7118   63.9679 N   0  0  0  0  0  0  0  0  0  0  0  0
  -42.7445   56.8135   64.3446 O   0  0  0  0  0  0  0  0  0  0  0  0
  -42.5041   57.9821   64.5781 C   0  0  0  0  0  0  0  0  0  0  0  0
  -41.0395   58.2482   63.2728 H   0  0  0  0  0  0  0  0  0  0  0  0
  -43.2918   58.7080   65.6280 C   0  0  0  0  0  0  0  0  0  0  0  0
  -44.7608   58.6014   65.2186 C   0  0  0  0  0  0  0  0  0  0  0  0
  -45.3804   59.9941   65.1319 C   0  0  0  0  0  0  0  0  0  0  0  0
  -46.8207   60.0527   64.6839 C   0  0  0  0  0  0  0  0  0  0  0  0
  -47.6946   59.7943   65.9067 C   0  0  0  0  0  0  0  0  0  0  0  0
  -48.9091   58.9108   65.5915 C   0  0  0  0  0  0  0  0  0  0  0  0
  -50.2576   59.6528   65.6299 C   0  0  0  0  0  0  0  0  0  0  0  0
  -50.4392   60.6299   64.4476 C   0  0  0  0  0  0  0  0  0  0  0  0
  -51.4085   60.0512   63.4128 C   0  0  0  0  0  0  0  0  0  0  0  0
  -51.0291   58.6786   62.8706 C   0  0  0  0  0  0  0  0  0  0  0  0
  -49.7287   58.7091   62.0812 C   0  0  0  0  0  0  0  0  0  0  0  0
  -49.5337   59.9121   61.1554 C   0  0  0  0  0  0  0  0  0  0  0  0
  -49.8079   59.4623   59.7267 C   0  0  0  0  0  0  0  0  0  0  0  0
  -49.9261   57.9724   59.4412 C   0  0  0  0  0  0  0  0  0  0  0  0
  -49.0177   57.5631   58.2709 C   0  0  0  0  0  0  0  0  0  0  0  0
  -47.6314   58.2332   58.2740 C   0  0  0  0  0  0  0  0  0  0  0  0
  -46.9077   58.1301   56.9335 C   0  0  0  0  0  0  0  0  0  0  0  0
  -42.8676   60.4628   62.6170 O   0  0  0  0  0  0  0  0  0  0  0  0
  -41.5024   60.7465   62.8612 C   0  0  0  0  0  0  0  0  0  0  0  0
  -43.4108   60.8647   63.3129 H   0  0  0  0  0  0  0  0  0  0  0  0
  -40.5875   60.1386   61.7955 C   0  0  0  0  0  0  0  0  0  0  0  0
  -40.9351   60.0423   60.5009 C   0  0  0  0  0  0  0  0  0  0  0  0
  -39.9653   59.4211   59.4974 C   0  0  0  0  0  0  0  0  0  0  0  0
  -38.4886   59.5502   59.8984 C   0  0  0  0  0  0  0  0  0  0  0  0
  -37.8595   58.2982   60.5373 C   0  0  0  0  0  0  0  0  0  0  0  0
  -37.1653   58.6537   61.8741 C   0  0  0  0  0  0  0  0  0  0  0  0
  -37.5470   57.7549   63.0774 C   0  0  0  0  0  0  0  0  0  0  0  0
  -36.6636   57.9643   64.3298 C   0  0  0  0  0  0  0  0  0  0  0  0
  -35.1844   57.5777   64.1136 C   0  0  0  0  0  0  0  0  0  0  0  0
  -34.1903   58.6172   64.6452 C   0  0  0  0  0  0  0  0  0  0  0  0
  -33.6360   59.6027   63.6184 C   0  0  0  0  0  0  0  0  0  0  0  0
  -32.2943   59.1689   62.9956 C   0  0  0  0  0  0  0  0  0  0  0  0
  -31.7833   60.0614   61.8545 C   0  0  0  0  0  0  0  0  0  0  0  0
  -30.6899   61.0131   62.3483 C   0  0  0  0  0  0  0  0  0  0  0  0
  -29.2611   60.6435   61.9911 C   0  0  0  0  0  0  0  0  0  0  0  0
  -39.8082   60.3381   64.8075 C   0  0  0  0  0  0  0  0  0  0  0  0
  -39.1111   61.5334   64.3733 O   0  0  0  0  0  0  0  0  0  0  0  0
  -37.1913   61.9000   62.2858 O   0  0  0  0  0  0  0  0  0  0  0  0
  -35.4914   64.5442   65.0277 O   0  0  0  0  0  0  0  0  0  0  0  0
  -37.3377   62.2908   65.8454 O   0  0  0  0  0  0  0  0  0  0  0  0
  -37.6554   61.6844   64.5690 C   0  0  0  0  0  0  0  0  0  0  0  0
  -36.9131   62.5099   63.5085 C   0  0  0  0  0  0  0  0  0  0  0  0
  -35.3808   62.5334   63.7011 C   0  0  0  0  0  0  0  0  0  0  0  0
  -35.1357   63.1638   65.0442 C   0  0  0  0  0  0  0  0  0  0  0  0
  -35.9150   62.4176   66.1120 C   0  0  0  0  0  0  0  0  0  0  0  0
  -38.1511   61.8762   62.1474 H   0  0  0  0  0  0  0  0  0  0  0  0
  -34.9826   65.0009   64.3395 H   0  0  0  0  0  0  0  0  0  0  0  0
  -36.3105   62.7675   68.4433 O   0  0  0  0  0  0  0  0  0  0  0  0
  -35.5421   63.2081   67.3642 C   0  0  0  0  0  0  0  0  0  0  0  0
  -36.0718   63.2711   69.2372 H   0  0  0  0  0  0  0  0  0  0  0  0
  -34.6334   63.3198   62.7457 O   0  0  0  0  0  0  0  0  0  0  0  0
  -35.7176   63.8446   60.4509 O   0  0  0  0  0  0  0  0  0  0  0  0
  -34.3005   65.5038   61.5128 O   0  0  0  0  0  0  0  0  0  0  0  0
  -36.5426   65.1049   62.3423 O   0  0  0  0  0  0  0  0  0  0  0  0
  -35.3335   64.4605   61.7554 S   0  0  0  0  0  0  0  0  0  0  0  0
  -34.9418   63.4194   60.0531 H   0  0  0  0  0  0  0  0  0  0  0  0
  -37.2217   64.4314   62.5037 H   0  0  0  0  0  0  0  0  0  0  0  0
  2  1  1  0  0  0
  2  4  1  0  0  0
  2  5  1  0  0  0
 41 42  1  0  0  0
 41  1  1  0  0  0
 42 46  1  0  0  0
  1 24  1  0  0  0
 23 24  1  0  0  0
 23 25  1  0  0  0
 24 26  1  0  0  0
  3  4  2  0  0  0
 26 27  2  0  0  0
 27 28  1  0  0  0
 43 47  1  0  0  0
 43 51  1  0  0  0
 28 29  1  0  0  0
 56 48  1  0  0  0
 56 60  1  0  0  0
 29 30  1  0  0  0
 57 60  1  0  0  0
 57 61  1  0  0  0
 30 31  1  0  0  0
 44 49  1  0  0  0
 44 52  1  0  0  0
 31 32  1  0  0  0
 45 46  1  0  0  0
 45 50  1  0  0  0
 32 33  1  0  0  0
 53 54  1  0  0  0
 53 55  1  0  0  0
 33 34  1  0  0  0
 34 35  1  0  0  0
 35 36  1  0  0  0
 58 60  1  0  0  0
 36 37  1  0  0  0
 59 60  1  0  0  0
 59 62  1  0  0  0
 37 38  1  0  0  0
 38 39  1  0  0  0
 39 40  1  0  0  0
  4  6  1  0  0  0
  6  7  1  0  0  0
  7  8  1  0  0  0
  8  9  1  0  0  0
  9 10  1  0  0  0
 10 11  1  0  0  0
 11 12  1  0  0  0
 12 13  1  0  0  0
 13 14  1  0  0  0
 14 15  1  0  0  0
 15 16  1  0  0  0
 16 17  1  0  0  0
 17 18  1  0  0  0
 18 19  1  0  0  0
 19 20  1  0  0  0
 20 21  1  0  0  0
 21 22  1  0  0  0
 46 47  1  0  0  0
 47 48  1  0  0  0
 48 49  1  0  0  0
 49 50  1  0  0  0
 50 54  1  0  0  0
M  CHG 1  58  -1
M  END
> <minimizedAffinity>
-9.49356

> <CNNscore>
0.1788778454

> <CNNaffinity>
6.9380583763

> <CNN_VS>
1.2410649061

> <CNNaffinity_variance>
1.0732314587

$$$$
/media/chris/experiments/cd1a-new-docking/inputs/ligands/1onq_ligand.pdb


 62 62  0  0  0  0  0  0  0  0999 V2000
  -39.1357   58.6127   62.5541 C   0  0  0  0  0  0  0  0  0  0  0  0
  -39.6580   59.7630   63.2649 N   0  0  0  0  0  0  0  0  0  0  0  0
  -39.8175   61.1628   65.0432 O   0  0  0  0  0  0  0  0  0  0  0  0
  -39.3343   60.1930   64.4921 C   0  0  0  0  0  0  0  0  0  0  0  0
  -40.3347   60.2944   62.7866 H   0  0  0  0  0  0  0  0  0  0  0  0
  -38.2963   59.3749   65.2012 C   0  0  0  0  0  0  0  0  0  0  0  0
  -37.3595   60.3670   65.8908 C   0  0  0  0  0  0  0  0  0  0  0  0
  -36.0847   60.5386   65.0684 C   0  0  0  0  0  0  0  0  0  0  0  0
  -35.9931   61.7983   64.2418 C   0  0  0  0  0  0  0  0  0  0  0  0
  -36.8026   62.8768   64.9540 C   0  0  0  0  0  0  0  0  0  0  0  0
  -35.9202   63.9711   65.5696 C   0  0  0  0  0  0  0  0  0  0  0  0
  -35.2254   63.5599   66.8806 C   0  0  0  0  0  0  0  0  0  0  0  0
  -33.7108   63.3128   66.7057 C   0  0  0  0  0  0  0  0  0  0  0  0
  -33.0055   64.5900   66.2403 C   0  0  0  0  0  0  0  0  0  0  0  0
  -32.0996   64.4207   65.0267 C   0  0  0  0  0  0  0  0  0  0  0  0
  -32.8539   63.9027   63.8111 C   0  0  0  0  0  0  0  0  0  0  0  0
  -33.5463   64.9613   62.9496 C   0  0  0  0  0  0  0  0  0  0  0  0
  -34.2268   64.2558   61.7844 C   0  0  0  0  0  0  0  0  0  0  0  0
  -35.7291   64.4213   61.6085 C   0  0  0  0  0  0  0  0  0  0  0  0
  -36.2067   65.7609   62.1912 C   0  0  0  0  0  0  0  0  0  0  0  0
  -36.4558   66.8606   61.1427 C   0  0  0  0  0  0  0  0  0  0  0  0
  -35.5662   68.0872   61.3308 C   0  0  0  0  0  0  0  0  0  0  0  0
  -38.3875   59.3358   60.4772 O   0  0  0  0  0  0  0  0  0  0  0  0
  -37.9435   59.1944   61.8139 C   0  0  0  0  0  0  0  0  0  0  0  0
  -39.1373   59.9506   60.4490 H   0  0  0  0  0  0  0  0  0  0  0  0
  -36.7575   58.2339   61.9290 C   0  0  0  0  0  0  0  0  0  0  0  0
  -35.7572   58.4084   62.8094 C   0  0  0  0  0  0  0  0  0  0  0  0
  -34.6069   57.4046   62.8621 C   0  0  0  0  0  0  0  0  0  0  0  0
  -33.2174   58.0436   62.7239 C   0  0  0  0  0  0  0  0  0  0  0  0
  -32.9051   59.1804   63.7146 C   0  0  0  0  0  0  0  0  0  0  0  0
  -32.4768   60.4629   62.9616 C   0  0  0  0  0  0  0  0  0  0  0  0
  -31.7722   60.2277   61.6016 C   0  0  0  0  0  0  0  0  0  0  0  0
  -30.5805   61.1767   61.3331 C   0  0  0  0  0  0  0  0  0  0  0  0
  -29.2413   60.6634   61.9053 C   0  0  0  0  0  0  0  0  0  0  0  0
  -28.4743   61.7130   62.7185 C   0  0  0  0  0  0  0  0  0  0  0  0
  -29.2645   62.9542   63.1278 C   0  0  0  0  0  0  0  0  0  0  0  0
  -28.5704   64.2836   62.7714 C   0  0  0  0  0  0  0  0  0  0  0  0
  -28.9284   64.8603   61.3933 C   0  0  0  0  0  0  0  0  0  0  0  0
  -30.4206   64.6878   61.0958 C   0  0  0  0  0  0  0  0  0  0  0  0
  -31.0533   65.7292   60.1898 C   0  0  0  0  0  0  0  0  0  0  0  0
  -40.1663   57.8254   61.7134 C   0  0  0  0  0  0  0  0  0  0  0  0
  -41.1601   57.0680   62.4495 O   0  0  0  0  0  0  0  0  0  0  0  0
  -42.7114   56.0563   64.6283 O   0  0  0  0  0  0  0  0  0  0  0  0
  -42.8197   60.0769   65.7339 O   0  0  0  0  0  0  0  0  0  0  0  0
  -42.2927   59.1662   62.8970 O   0  0  0  0  0  0  0  0  0  0  0  0
  -42.3489   57.7249   63.0287 C   0  0  0  0  0  0  0  0  0  0  0  0
  -42.6207   57.4429   64.5132 C   0  0  0  0  0  0  0  0  0  0  0  0
  -43.9387   58.0598   65.0308 C   0  0  0  0  0  0  0  0  0  0  0  0
  -43.8057   59.5469   64.8513 C   0  0  0  0  0  0  0  0  0  0  0  0
  -43.4626   59.8613   63.4064 C   0  0  0  0  0  0  0  0  0  0  0  0
  -41.8908   55.6508   64.3073 H   0  0  0  0  0  0  0  0  0  0  0  0
  -43.0583   59.8647   66.6500 H   0  0  0  0  0  0  0  0  0  0  0  0
  -42.0233   61.7698   63.4170 O   0  0  0  0  0  0  0  0  0  0  0  0
  -43.3650   61.3849   63.4451 C   0  0  0  0  0  0  0  0  0  0  0  0
  -41.9640   62.7376   63.4417 H   0  0  0  0  0  0  0  0  0  0  0  0
  -44.2312   57.8486   66.4306 O   0  0  0  0  0  0  0  0  0  0  0  0
  -46.4409   59.0740   67.0072 O   0  0  0  0  0  0  0  0  0  0  0  0
  -45.6537   57.2850   68.4455 O   0  0  0  0  0  0  0  0  0  0  0  0
  -46.6433   56.7728   66.2933 O   0  0  0  0  0  0  0  0  0  0  0  0
  -45.7793   57.7360   67.0330 S   0  0  0  0  0  0  0  0  0  0  0  0
  -45.8920   59.7155   67.4848 H   0  0  0  0  0  0  0  0  0  0  0  0
  -46.7307   57.0594   65.3706 H   0  0  0  0  0  0  0  0  0  0  0  0
  2  1  1  0  0  0
  2  4  1  0  0  0
  2  5  1  0  0  0
 41 42  1  0  0  0
 41  1  1  0  0  0
 42 46  1  0  0  0
  1 24  1  0  0  0
 23 24  1  0  0  0
 23 25  1  0  0  0
 24 26  1  0  0  0
  3  4  2  0  0  0
 26 27  2  0  0  0
 27 28  1  0  0  0
 43 47  1  0  0  0
 43 51  1  0  0  0
 28 29  1  0  0  0
 56 48  1  0  0  0
 56 60  1  0  0  0
 29 30  1  0  0  0
 57 60  1  0  0  0
 57 61  1  0  0  0
 30 31  1  0  0  0
 44 49  1  0  0  0
 44 52  1  0  0  0
 31 32  1  0  0  0
 45 46  1  0  0  0
 45 50  1  0  0  0
 32 33  1  0  0  0
 53 54  1  0  0  0
 53 55  1  0  0  0
 33 34  1  0  0  0
 34 35  1  0  0  0
 35 36  1  0  0  0
 58 60  1  0  0  0
 36 37  1  0  0  0
 59 60  1  0  0  0
 59 62  1  0  0  0
 37 38  1  0  0  0
 38 39  1  0  0  0
 39 40  1  0  0  0
  4  6  1  0  0  0
  6  7  1  0  0  0
  7  8  1  0  0  0
  8  9  1  0  0  0
  9 10  1  0  0  0
 10 11  1  0  0  0
 11 12  1  0  0  0
 12 13  1  0  0  0
 13 14  1  0  0  0
 14 15  1  0  0  0
 15 16  1  0  0  0
 16 17  1  0  0  0
 17 18  1  0  0  0
 18 19  1  0  0  0
 19 20  1  0  0  0
 20 21  1  0  0  0
 21 22  1  0  0  0
 46 47  1  0  0  0
 47 48  1  0  0  0
 48 49  1  0  0  0
 49 50  1  0  0  0
 50 54  1  0  0  0
M  CHG 1  58  -1
M  END
> <minimizedAffinity>
-7.69565

> <CNNscore>
0.1559519172

> <CNNaffinity>
6.9822387695

> <CNN_VS>
1.0888935328

> <CNNaffinity_variance>
1.8522344828

$$$$
