/media/chris/experiments/cd1a-new-docking/inputs/ligands/1onq_ligand.pdb


 62 62  0  0  0  0  0  0  0  0999 V2000
  -41.4169   60.6784   65.5155 C   0  0  0  0  0  0  0  0  0  0  0  0
  -42.1076   59.6814   66.3093 N   0  0  0  0  0  0  0  0  0  0  0  0
  -42.7343   57.5641   66.8305 O   0  0  0  0  0  0  0  0  0  0  0  0
  -42.1235   58.3528   66.1358 C   0  0  0  0  0  0  0  0  0  0  0  0
  -42.6302   60.0230   67.0705 H   0  0  0  0  0  0  0  0  0  0  0  0
  -41.3154   57.8515   64.9759 C   0  0  0  0  0  0  0  0  0  0  0  0
  -42.2761   57.0609   64.0878 C   0  0  0  0  0  0  0  0  0  0  0  0
  -41.6338   55.7400   63.6709 C   0  0  0  0  0  0  0  0  0  0  0  0
  -41.1064   55.6756   62.2580 C   0  0  0  0  0  0  0  0  0  0  0  0
  -41.5718   56.9349   61.5345 C   0  0  0  0  0  0  0  0  0  0  0  0
  -41.2500   56.9100   60.0343 C   0  0  0  0  0  0  0  0  0  0  0  0
  -41.1538   58.3028   59.3851 C   0  0  0  0  0  0  0  0  0  0  0  0
  -40.6515   59.3877   60.3631 C   0  0  0  0  0  0  0  0  0  0  0  0
  -39.2465   59.8565   59.9742 C   0  0  0  0  0  0  0  0  0  0  0  0
  -38.2439   58.7397   59.7105 C   0  0  0  0  0  0  0  0  0  0  0  0
  -37.3500   58.4707   60.9121 C   0  0  0  0  0  0  0  0  0  0  0  0
  -37.8448   57.4035   61.8911 C   0  0  0  0  0  0  0  0  0  0  0  0
  -38.1963   58.0891   63.2046 C   0  0  0  0  0  0  0  0  0  0  0  0
  -37.2462   57.9375   64.3834 C   0  0  0  0  0  0  0  0  0  0  0  0
  -35.8497   57.5027   63.9116 C   0  0  0  0  0  0  0  0  0  0  0  0
  -34.8633   58.6627   63.6823 C   0  0  0  0  0  0  0  0  0  0  0  0
  -33.8925   58.4114   62.5308 C   0  0  0  0  0  0  0  0  0  0  0  0
  -41.7763   61.9086   63.5782 O   0  0  0  0  0  0  0  0  0  0  0  0
  -42.3239   60.8249   64.3058 C   0  0  0  0  0  0  0  0  0  0  0  0
  -40.8734   61.6883   63.3006 H   0  0  0  0  0  0  0  0  0  0  0  0
  -43.7527   61.1087   64.7750 C   0  0  0  0  0  0  0  0  0  0  0  0
  -44.8357   60.5658   64.1929 C   0  0  0  0  0  0  0  0  0  0  0  0
  -46.2300   60.8998   64.7198 C   0  0  0  0  0  0  0  0  0  0  0  0
  -46.8516   59.7903   65.5804 C   0  0  0  0  0  0  0  0  0  0  0  0
  -48.1974   59.2338   65.0801 C   0  0  0  0  0  0  0  0  0  0  0  0
  -48.7892   60.1396   63.9735 C   0  0  0  0  0  0  0  0  0  0  0  0
  -50.3072   60.4272   64.0954 C   0  0  0  0  0  0  0  0  0  0  0  0
  -51.1665   59.7752   62.9867 C   0  0  0  0  0  0  0  0  0  0  0  0
  -50.7840   58.3087   62.6911 C   0  0  0  0  0  0  0  0  0  0  0  0
  -50.7769   57.9610   61.1977 C   0  0  0  0  0  0  0  0  0  0  0  0
  -49.6636   57.0252   60.7315 C   0  0  0  0  0  0  0  0  0  0  0  0
  -49.2352   57.2431   59.2669 C   0  0  0  0  0  0  0  0  0  0  0  0
  -48.5803   58.6009   58.9712 C   0  0  0  0  0  0  0  0  0  0  0  0
  -47.4975   58.4667   57.8967 C   0  0  0  0  0  0  0  0  0  0  0  0
  -47.6892   57.3552   56.8801 C   0  0  0  0  0  0  0  0  0  0  0  0
  -39.9230   60.3925   65.2408 C   0  0  0  0  0  0  0  0  0  0  0  0
  -39.2406   61.3106   64.3494 O   0  0  0  0  0  0  0  0  0  0  0  0
  -37.3773   61.6515   62.2071 O   0  0  0  0  0  0  0  0  0  0  0  0
  -35.8941   64.6708   64.6734 O   0  0  0  0  0  0  0  0  0  0  0  0
  -37.5288   62.3492   65.7192 O   0  0  0  0  0  0  0  0  0  0  0  0
  -37.8023   61.6044   64.5076 C   0  0  0  0  0  0  0  0  0  0  0  0
  -37.1438   62.3916   63.3655 C   0  0  0  0  0  0  0  0  0  0  0  0
  -35.6181   62.5653   63.5308 C   0  0  0  0  0  0  0  0  0  0  0  0
  -35.4184   63.3337   64.8079 C   0  0  0  0  0  0  0  0  0  0  0  0
  -36.1204   62.6226   65.9505 C   0  0  0  0  0  0  0  0  0  0  0  0
  -38.3324   61.5322   62.0867 H   0  0  0  0  0  0  0  0  0  0  0  0
  -35.4330   65.1057   63.9391 H   0  0  0  0  0  0  0  0  0  0  0  0
  -36.0733   62.8973   68.3245 O   0  0  0  0  0  0  0  0  0  0  0  0
  -35.8083   63.5528   67.1208 C   0  0  0  0  0  0  0  0  0  0  0  0
  -35.8743   63.4901   69.0661 H   0  0  0  0  0  0  0  0  0  0  0  0
  -34.9503   63.3235   62.4969 O   0  0  0  0  0  0  0  0  0  0  0  0
  -32.9933   63.7712   60.8577 O   0  0  0  0  0  0  0  0  0  0  0  0
  -32.9486   61.7940   62.2641 O   0  0  0  0  0  0  0  0  0  0  0  0
  -32.4895   63.9762   63.2137 O   0  0  0  0  0  0  0  0  0  0  0  0
  -33.3118   63.2362   62.2147 S   0  0  0  0  0  0  0  0  0  0  0  0
  -33.5201   63.3007   60.1929 H   0  0  0  0  0  0  0  0  0  0  0  0
  -32.7201   64.9181   63.1881 H   0  0  0  0  0  0  0  0  0  0  0  0
  2  1  1  0  0  0
  2  4  1  0  0  0
  2  5  1  0  0  0
 41 42  1  0  0  0
 41  1  1  0  0  0
 42 46  1  0  0  0
  1 24  1  0  0  0
 23 24  1  0  0  0
 23 25  1  0  0  0
 24 26  1  0  0  0
  3  4  2  0  0  0
 26 27  2  0  0  0
 27 28  1  0  0  0
 43 47  1  0  0  0
 43 51  1  0  0  0
 28 29  1  0  0  0
 56 48  1  0  0  0
 56 60  1  0  0  0
 29 30  1  0  0  0
 57 60  1  0  0  0
 57 61  1  0  0  0
 30 31  1  0  0  0
 44 49  1  0  0  0
 44 52  1  0  0  0
 31 32  1  0  0  0
 45 46  1  0  0  0
 45 50  1  0  0  0
 32 33  1  0  0  0
 53 54  1  0  0  0
 53 55  1  0  0  0
 33 34  1  0  0  0
 34 35  1  0  0  0
 35 36  1  0  0  0
 58 60  1  0  0  0
 36 37  1  0  0  0
 59 60  1  0  0  0
 59 62  1  0  0  0
 37 38  1  0  0  0
 38 39  1  0  0  0
 39 40  1  0  0  0
  4  6  1  0  0  0
  6  7  1  0  0  0
  7  8  1  0  0  0
  8  9  1  0  0  0
  9 10  1  0  0  0
 10 11  1  0  0  0
 11 12  1  0  0  0
 12 13  1  0  0  0
 13 14  1  0  0  0
 14 15  1  0  0  0
 15 16  1  0  0  0
 16 17  1  0  0  0
 17 18  1  0  0  0
 18 19  1  0  0  0
 19 20  1  0  0  0
 20 21  1  0  0  0
 21 22  1  0  0  0
 46 47  1  0  0  0
 47 48  1  0  0  0
 48 49  1  0  0  0
 49 50  1  0  0  0
 50 54  1  0  0  0
M  CHG 1  58  -1
M  END
> <minimizedAffinity>
-9.73313

> <CNNscore>
0.2649440169

> <CNNaffinity>
7.2136216164

> <CNN_VS>
1.9112058878

> <CNNaffinity_variance>
1.8840816021

$$$$
/media/chris/experiments/cd1a-new-docking/inputs/ligands/1onq_ligand.pdb


 62 62  0  0  0  0  0  0  0  0999 V2000
  -41.4263   60.2274   64.8892 C   0  0  0  0  0  0  0  0  0  0  0  0
  -41.8107   58.9318   65.4134 N   0  0  0  0  0  0  0  0  0  0  0  0
  -42.2254   56.7070   65.2525 O   0  0  0  0  0  0  0  0  0  0  0  0
  -41.8831   57.7643   64.7598 C   0  0  0  0  0  0  0  0  0  0  0  0
  -42.0481   58.9065   66.3685 H   0  0  0  0  0  0  0  0  0  0  0  0
  -41.5101   57.8219   63.3081 C   0  0  0  0  0  0  0  0  0  0  0  0
  -41.4583   56.3755   62.8162 C   0  0  0  0  0  0  0  0  0  0  0  0
  -41.1181   56.3425   61.3281 C   0  0  0  0  0  0  0  0  0  0  0  0
  -41.7491   57.4196   60.4794 C   0  0  0  0  0  0  0  0  0  0  0  0
  -40.6823   57.9326   59.5178 C   0  0  0  0  0  0  0  0  0  0  0  0
  -40.4517   59.4447   59.6399 C   0  0  0  0  0  0  0  0  0  0  0  0
  -39.0227   59.8345   60.0602 C   0  0  0  0  0  0  0  0  0  0  0  0
  -38.0335   58.6500   59.9945 C   0  0  0  0  0  0  0  0  0  0  0  0
  -37.2726   58.5081   61.3159 C   0  0  0  0  0  0  0  0  0  0  0  0
  -37.8418   57.4745   62.2801 C   0  0  0  0  0  0  0  0  0  0  0  0
  -37.4062   57.7233   63.7165 C   0  0  0  0  0  0  0  0  0  0  0  0
  -36.2107   58.6606   63.9024 C   0  0  0  0  0  0  0  0  0  0  0  0
  -35.0224   57.8295   64.3673 C   0  0  0  0  0  0  0  0  0  0  0  0
  -33.6641   58.5042   64.4900 C   0  0  0  0  0  0  0  0  0  0  0  0
  -32.8893   58.4252   63.1651 C   0  0  0  0  0  0  0  0  0  0  0  0
  -31.7552   59.4575   63.0260 C   0  0  0  0  0  0  0  0  0  0  0  0
  -32.1222   60.6415   62.1344 C   0  0  0  0  0  0  0  0  0  0  0  0
  -42.5110   62.1193   64.0894 O   0  0  0  0  0  0  0  0  0  0  0  0
  -42.7191   60.7310   64.2707 C   0  0  0  0  0  0  0  0  0  0  0  0
  -41.7677   62.2583   63.4820 H   0  0  0  0  0  0  0  0  0  0  0  0
  -43.8825   60.4416   65.2220 C   0  0  0  0  0  0  0  0  0  0  0  0
  -45.1671   60.4351   64.8267 C   0  0  0  0  0  0  0  0  0  0  0  0
  -46.2724   60.1379   65.8382 C   0  0  0  0  0  0  0  0  0  0  0  0
  -47.6877   60.1842   65.2440 C   0  0  0  0  0  0  0  0  0  0  0  0
  -48.8348   59.9021   66.2318 C   0  0  0  0  0  0  0  0  0  0  0  0
  -50.0639   59.3183   65.4942 C   0  0  0  0  0  0  0  0  0  0  0  0
  -50.8350   60.3202   64.5979 C   0  0  0  0  0  0  0  0  0  0  0  0
  -51.0998   59.8111   63.1615 C   0  0  0  0  0  0  0  0  0  0  0  0
  -49.8475   59.2265   62.4728 C   0  0  0  0  0  0  0  0  0  0  0  0
  -49.5830   59.8050   61.0776 C   0  0  0  0  0  0  0  0  0  0  0  0
  -49.7742   58.8448   59.9054 C   0  0  0  0  0  0  0  0  0  0  0  0
  -49.9735   57.3754   60.3261 C   0  0  0  0  0  0  0  0  0  0  0  0
  -48.8424   56.4187   59.9196 C   0  0  0  0  0  0  0  0  0  0  0  0
  -47.7726   57.1479   59.1017 C   0  0  0  0  0  0  0  0  0  0  0  0
  -47.0798   56.3372   58.0208 C   0  0  0  0  0  0  0  0  0  0  0  0
  -40.1695   60.2353   63.9896 C   0  0  0  0  0  0  0  0  0  0  0  0
  -39.4409   61.4864   63.9048 O   0  0  0  0  0  0  0  0  0  0  0  0
  -37.3259   61.9658   62.0409 O   0  0  0  0  0  0  0  0  0  0  0  0
  -35.8047   64.2781   65.1614 O   0  0  0  0  0  0  0  0  0  0  0  0
  -37.7883   62.0346   65.5941 O   0  0  0  0  0  0  0  0  0  0  0  0
  -38.0056   61.5607   64.2429 C   0  0  0  0  0  0  0  0  0  0  0  0
  -37.1428   62.4496   63.3357 C   0  0  0  0  0  0  0  0  0  0  0  0
  -35.6351   62.3945   63.6654 C   0  0  0  0  0  0  0  0  0  0  0  0
  -35.4953   62.8890   65.0787 C   0  0  0  0  0  0  0  0  0  0  0  0
  -36.3929   62.0797   65.9972 C   0  0  0  0  0  0  0  0  0  0  0  0
  -38.2691   61.9931   61.8159 H   0  0  0  0  0  0  0  0  0  0  0  0
  -35.2205   64.7753   64.5677 H   0  0  0  0  0  0  0  0  0  0  0  0
  -34.7604   63.0720   67.4337 O   0  0  0  0  0  0  0  0  0  0  0  0
  -36.1127   62.7368   67.3469 C   0  0  0  0  0  0  0  0  0  0  0  0
  -34.5850   63.4891   68.2918 H   0  0  0  0  0  0  0  0  0  0  0  0
  -34.7782   63.2346   62.8592 O   0  0  0  0  0  0  0  0  0  0  0  0
  -35.6793   63.8774   60.5157 O   0  0  0  0  0  0  0  0  0  0  0  0
  -34.2590   65.4333   61.7205 O   0  0  0  0  0  0  0  0  0  0  0  0
  -36.5685   65.1233   62.3875 O   0  0  0  0  0  0  0  0  0  0  0  0
  -35.3548   64.4363   61.8615 S   0  0  0  0  0  0  0  0  0  0  0  0
  -34.8997   63.4256   60.1567 H   0  0  0  0  0  0  0  0  0  0  0  0
  -37.2883   64.4802   62.4826 H   0  0  0  0  0  0  0  0  0  0  0  0
  2  1  1  0  0  0
  2  4  1  0  0  0
  2  5  1  0  0  0
 41 42  1  0  0  0
 41  1  1  0  0  0
 42 46  1  0  0  0
  1 24  1  0  0  0
 23 24  1  0  0  0
 23 25  1  0  0  0
 24 26  1  0  0  0
  3  4  2  0  0  0
 26 27  2  0  0  0
 27 28  1  0  0  0
 43 47  1  0  0  0
 43 51  1  0  0  0
 28 29  1  0  0  0
 56 48  1  0  0  0
 56 60  1  0  0  0
 29 30  1  0  0  0
 57 60  1  0  0  0
 57 61  1  0  0  0
 30 31  1  0  0  0
 44 49  1  0  0  0
 44 52  1  0  0  0
 31 32  1  0  0  0
 45 46  1  0  0  0
 45 50  1  0  0  0
 32 33  1  0  0  0
 53 54  1  0  0  0
 53 55  1  0  0  0
 33 34  1  0  0  0
 34 35  1  0  0  0
 35 36  1  0  0  0
 58 60  1  0  0  0
 36 37  1  0  0  0
 59 60  1  0  0  0
 59 62  1  0  0  0
 37 38  1  0  0  0
 38 39  1  0  0  0
 39 40  1  0  0  0
  4  6  1  0  0  0
  6  7  1  0  0  0
  7  8  1  0  0  0
  8  9  1  0  0  0
  9 10  1  0  0  0
 10 11  1  0  0  0
 11 12  1  0  0  0
 12 13  1  0  0  0
 13 14  1  0  0  0
 14 15  1  0  0  0
 15 16  1  0  0  0
 16 17  1  0  0  0
 17 18  1  0  0  0
 18 19  1  0  0  0
 19 20  1  0  0  0
 20 21  1  0  0  0
 21 22  1  0  0  0
 46 47  1  0  0  0
 47 48  1  0  0  0
 48 49  1  0  0  0
 49 50  1  0  0  0
 50 54  1  0  0  0
M  CHG 1  58  -1
M  END
> <minimizedAffinity>
-9.77462

> <CNNscore>
0.2560987473

> <CNNaffinity>
7.1044473648

> <CNN_VS>
1.8194401264

> <CNNaffinity_variance>
1.9673471451

$$$$
/media/chris/experiments/cd1a-new-docking/inputs/ligands/1onq_ligand.pdb


 62 62  0  0  0  0  0  0  0  0999 V2000
  -40.8929   59.7160   64.3242 C   0  0  0  0  0  0  0  0  0  0  0  0
  -41.3705   60.5120   65.4374 N   0  0  0  0  0  0  0  0  0  0  0  0
  -42.9730   61.5404   66.6713 O   0  0  0  0  0  0  0  0  0  0  0  0
  -42.6330   60.8570   65.7251 C   0  0  0  0  0  0  0  0  0  0  0  0
  -40.6817   60.8401   66.0595 H   0  0  0  0  0  0  0  0  0  0  0  0
  -43.6684   60.3413   64.7702 C   0  0  0  0  0  0  0  0  0  0  0  0
  -44.9760   60.2496   65.5568 C   0  0  0  0  0  0  0  0  0  0  0  0
  -46.1654   60.3785   64.6083 C   0  0  0  0  0  0  0  0  0  0  0  0
  -47.0972   59.1925   64.5477 C   0  0  0  0  0  0  0  0  0  0  0  0
  -47.8165   59.1026   65.8895 C   0  0  0  0  0  0  0  0  0  0  0  0
  -49.1770   59.8124   65.8817 C   0  0  0  0  0  0  0  0  0  0  0  0
  -50.2647   59.0856   65.0699 C   0  0  0  0  0  0  0  0  0  0  0  0
  -50.9610   60.0042   64.0418 C   0  0  0  0  0  0  0  0  0  0  0  0
  -50.8796   59.4010   62.6366 C   0  0  0  0  0  0  0  0  0  0  0  0
  -49.5984   59.7146   61.8735 C   0  0  0  0  0  0  0  0  0  0  0  0
  -49.6712   59.2762   60.4183 C   0  0  0  0  0  0  0  0  0  0  0  0
  -50.2897   57.9000   60.1621 C   0  0  0  0  0  0  0  0  0  0  0  0
  -49.1849   56.8564   60.2584 C   0  0  0  0  0  0  0  0  0  0  0  0
  -47.8419   57.1542   59.6081 C   0  0  0  0  0  0  0  0  0  0  0  0
  -47.6332   56.2879   58.3559 C   0  0  0  0  0  0  0  0  0  0  0  0
  -47.6304   57.0716   57.0304 C   0  0  0  0  0  0  0  0  0  0  0  0
  -46.9487   58.4339   57.1357 C   0  0  0  0  0  0  0  0  0  0  0  0
  -39.1241   58.7543   65.4826 O   0  0  0  0  0  0  0  0  0  0  0  0
  -40.4202   58.4435   65.0060 C   0  0  0  0  0  0  0  0  0  0  0  0
  -39.1806   59.4812   66.1224 H   0  0  0  0  0  0  0  0  0  0  0  0
  -40.4018   57.3002   63.9888 C   0  0  0  0  0  0  0  0  0  0  0  0
  -41.4774   56.9479   63.2639 C   0  0  0  0  0  0  0  0  0  0  0  0
  -41.3786   55.7934   62.2686 C   0  0  0  0  0  0  0  0  0  0  0  0
  -41.3635   56.2390   60.7992 C   0  0  0  0  0  0  0  0  0  0  0  0
  -41.7285   57.7134   60.5460 C   0  0  0  0  0  0  0  0  0  0  0  0
  -41.0162   58.2460   59.2793 C   0  0  0  0  0  0  0  0  0  0  0  0
  -39.9220   59.3133   59.5349 C   0  0  0  0  0  0  0  0  0  0  0  0
  -38.4863   58.8394   59.2080 C   0  0  0  0  0  0  0  0  0  0  0  0
  -37.5802   58.7110   60.4517 C   0  0  0  0  0  0  0  0  0  0  0  0
  -38.0217   57.6133   61.4270 C   0  0  0  0  0  0  0  0  0  0  0  0
  -37.2751   57.5579   62.7582 C   0  0  0  0  0  0  0  0  0  0  0  0
  -36.0602   58.5036   62.8342 C   0  0  0  0  0  0  0  0  0  0  0  0
  -34.8662   57.9723   63.6415 C   0  0  0  0  0  0  0  0  0  0  0  0
  -33.6031   57.9087   62.7780 C   0  0  0  0  0  0  0  0  0  0  0  0
  -32.3865   58.6483   63.3058 C   0  0  0  0  0  0  0  0  0  0  0  0
  -39.8896   60.4212   63.3835 C   0  0  0  0  0  0  0  0  0  0  0  0
  -39.2931   61.6484   63.8748 O   0  0  0  0  0  0  0  0  0  0  0  0
  -37.3430   62.0535   61.8228 O   0  0  0  0  0  0  0  0  0  0  0  0
  -35.6148   64.5484   64.6841 O   0  0  0  0  0  0  0  0  0  0  0  0
  -37.5196   62.3069   65.3934 O   0  0  0  0  0  0  0  0  0  0  0  0
  -37.8367   61.7586   64.0910 C   0  0  0  0  0  0  0  0  0  0  0  0
  -37.0646   62.6082   63.0714 C   0  0  0  0  0  0  0  0  0  0  0  0
  -35.5345   62.5896   63.2801 C   0  0  0  0  0  0  0  0  0  0  0  0
  -35.2900   63.1608   64.6495 C   0  0  0  0  0  0  0  0  0  0  0  0
  -36.0972   62.3909   65.6790 C   0  0  0  0  0  0  0  0  0  0  0  0
  -38.3016   62.0569   61.6740 H   0  0  0  0  0  0  0  0  0  0  0  0
  -35.0886   65.0203   64.0198 H   0  0  0  0  0  0  0  0  0  0  0  0
  -36.5904   64.1960   67.1662 O   0  0  0  0  0  0  0  0  0  0  0  0
  -35.7205   63.1228   66.9653 C   0  0  0  0  0  0  0  0  0  0  0  0
  -36.3490   64.6592   67.9836 H   0  0  0  0  0  0  0  0  0  0  0  0
  -34.7594   63.3958   62.3641 O   0  0  0  0  0  0  0  0  0  0  0  0
  -32.7161   63.7604   60.8120 O   0  0  0  0  0  0  0  0  0  0  0  0
  -32.8684   61.7310   62.1339 O   0  0  0  0  0  0  0  0  0  0  0  0
  -32.2853   63.8330   63.1902 O   0  0  0  0  0  0  0  0  0  0  0  0
  -33.1225   63.1972   62.1336 S   0  0  0  0  0  0  0  0  0  0  0  0
  -33.2514   63.3576   60.1105 H   0  0  0  0  0  0  0  0  0  0  0  0
  -32.4449   64.7898   63.1969 H   0  0  0  0  0  0  0  0  0  0  0  0
  2  1  1  0  0  0
  2  4  1  0  0  0
  2  5  1  0  0  0
 41 42  1  0  0  0
 41  1  1  0  0  0
 42 46  1  0  0  0
  1 24  1  0  0  0
 23 24  1  0  0  0
 23 25  1  0  0  0
 24 26  1  0  0  0
  3  4  2  0  0  0
 26 27  2  0  0  0
 27 28  1  0  0  0
 43 47  1  0  0  0
 43 51  1  0  0  0
 28 29  1  0  0  0
 56 48  1  0  0  0
 56 60  1  0  0  0
 29 30  1  0  0  0
 57 60  1  0  0  0
 57 61  1  0  0  0
 30 31  1  0  0  0
 44 49  1  0  0  0
 44 52  1  0  0  0
 31 32  1  0  0  0
 45 46  1  0  0  0
 45 50  1  0  0  0
 32 33  1  0  0  0
 53 54  1  0  0  0
 53 55  1  0  0  0
 33 34  1  0  0  0
 34 35  1  0  0  0
 35 36  1  0  0  0
 58 60  1  0  0  0
 36 37  1  0  0  0
 59 60  1  0  0  0
 59 62  1  0  0  0
 37 38  1  0  0  0
 38 39  1  0  0  0
 39 40  1  0  0  0
  4  6  1  0  0  0
  6  7  1  0  0  0
  7  8  1  0  0  0
  8  9  1  0  0  0
  9 10  1  0  0  0
 10 11  1  0  0  0
 11 12  1  0  0  0
 12 13  1  0  0  0
 13 14  1  0  0  0
 14 15  1  0  0  0
 15 16  1  0  0  0
 16 17  1  0  0  0
 17 18  1  0  0  0
 18 19  1  0  0  0
 19 20  1  0  0  0
 20 21  1  0  0  0
 21 22  1  0  0  0
 46 47  1  0  0  0
 47 48  1  0  0  0
 48 49  1  0  0  0
 49 50  1  0  0  0
 50 54  1  0  0  0
M  CHG 1  58  -1
M  END
> <minimizedAffinity>
-9.78061

> <CNNscore>
0.2498938739

> <CNNaffinity>
7.1576585770

> <CNN_VS>
1.7886550426

> <CNNaffinity_variance>
1.6526336670

$$$$
/media/chris/experiments/cd1a-new-docking/inputs/ligands/1onq_ligand.pdb


 62 62  0  0  0  0  0  0  0  0999 V2000
  -41.3902   59.9341   64.7742 C   0  0  0  0  0  0  0  0  0  0  0  0
  -41.4340   58.6263   64.1506 N   0  0  0  0  0  0  0  0  0  0  0  0
  -42.0766   56.4552   64.0061 O   0  0  0  0  0  0  0  0  0  0  0  0
  -42.0870   57.5332   64.5680 C   0  0  0  0  0  0  0  0  0  0  0  0
  -40.9200   58.5292   63.3166 H   0  0  0  0  0  0  0  0  0  0  0  0
  -42.8704   57.7035   65.8357 C   0  0  0  0  0  0  0  0  0  0  0  0
  -44.3463   57.6060   65.4495 C   0  0  0  0  0  0  0  0  0  0  0  0
  -45.2214   57.7549   66.6917 C   0  0  0  0  0  0  0  0  0  0  0  0
  -46.6987   57.9410   66.4441 C   0  0  0  0  0  0  0  0  0  0  0  0
  -47.0384   59.3951   66.7543 C   0  0  0  0  0  0  0  0  0  0  0  0
  -48.1268   59.9596   65.8314 C   0  0  0  0  0  0  0  0  0  0  0  0
  -47.6397   60.2923   64.4092 C   0  0  0  0  0  0  0  0  0  0  0  0
  -48.7821   60.7476   63.4746 C   0  0  0  0  0  0  0  0  0  0  0  0
  -50.1318   60.6688   64.1937 C   0  0  0  0  0  0  0  0  0  0  0  0
  -51.1765   59.7948   63.5104 C   0  0  0  0  0  0  0  0  0  0  0  0
  -50.6054   58.4587   63.0588 C   0  0  0  0  0  0  0  0  0  0  0  0
  -50.8808   58.0682   61.6049 C   0  0  0  0  0  0  0  0  0  0  0  0
  -49.8135   58.7108   60.7293 C   0  0  0  0  0  0  0  0  0  0  0  0
  -49.8449   58.4491   59.2307 C   0  0  0  0  0  0  0  0  0  0  0  0
  -48.4215   58.3627   58.6577 C   0  0  0  0  0  0  0  0  0  0  0  0
  -47.5643   57.2267   59.2456 C   0  0  0  0  0  0  0  0  0  0  0  0
  -47.2629   56.1160   58.2421 C   0  0  0  0  0  0  0  0  0  0  0  0
  -43.4732   60.7593   64.1614 O   0  0  0  0  0  0  0  0  0  0  0  0
  -42.1154   60.8068   63.7643 C   0  0  0  0  0  0  0  0  0  0  0  0
  -43.5621   61.1280   65.0542 H   0  0  0  0  0  0  0  0  0  0  0  0
  -41.9052   60.2379   62.3592 C   0  0  0  0  0  0  0  0  0  0  0  0
  -41.1362   60.8374   61.4343 C   0  0  0  0  0  0  0  0  0  0  0  0
  -40.9772   60.2060   60.0524 C   0  0  0  0  0  0  0  0  0  0  0  0
  -39.5214   59.8973   59.6738 C   0  0  0  0  0  0  0  0  0  0  0  0
  -39.2156   58.4237   59.3479 C   0  0  0  0  0  0  0  0  0  0  0  0
  -40.2323   57.4853   60.0415 C   0  0  0  0  0  0  0  0  0  0  0  0
  -39.8266   57.0003   61.4564 C   0  0  0  0  0  0  0  0  0  0  0  0
  -38.3318   57.2110   61.7938 C   0  0  0  0  0  0  0  0  0  0  0  0
  -38.0799   58.3654   62.7878 C   0  0  0  0  0  0  0  0  0  0  0  0
  -37.7053   57.8953   64.1984 C   0  0  0  0  0  0  0  0  0  0  0  0
  -36.2317   57.5653   64.4269 C   0  0  0  0  0  0  0  0  0  0  0  0
  -35.2584   58.5958   63.8213 C   0  0  0  0  0  0  0  0  0  0  0  0
  -34.2631   59.2179   64.8125 C   0  0  0  0  0  0  0  0  0  0  0  0
  -32.8471   58.6840   64.5780 C   0  0  0  0  0  0  0  0  0  0  0  0
  -32.3230   58.7623   63.1551 C   0  0  0  0  0  0  0  0  0  0  0  0
  -39.9917   60.4067   65.2323 C   0  0  0  0  0  0  0  0  0  0  0  0
  -39.2967   61.3246   64.3506 O   0  0  0  0  0  0  0  0  0  0  0  0
  -37.4394   61.6213   62.1965 O   0  0  0  0  0  0  0  0  0  0  0  0
  -35.8653   64.5998   64.6560 O   0  0  0  0  0  0  0  0  0  0  0  0
  -37.5506   62.3185   65.7101 O   0  0  0  0  0  0  0  0  0  0  0  0
  -37.8505   61.5821   64.4997 C   0  0  0  0  0  0  0  0  0  0  0  0
  -37.1800   62.3539   63.3540 C   0  0  0  0  0  0  0  0  0  0  0  0
  -35.6494   62.4893   63.5095 C   0  0  0  0  0  0  0  0  0  0  0  0
  -35.4222   63.2511   64.7860 C   0  0  0  0  0  0  0  0  0  0  0  0
  -36.1344   62.5564   65.9326 C   0  0  0  0  0  0  0  0  0  0  0  0
  -38.3980   61.5259   62.0822 H   0  0  0  0  0  0  0  0  0  0  0  0
  -35.3983   65.0238   63.9191 H   0  0  0  0  0  0  0  0  0  0  0  0
  -36.1568   62.8663   68.3025 O   0  0  0  0  0  0  0  0  0  0  0  0
  -35.7915   63.4772   67.1016 C   0  0  0  0  0  0  0  0  0  0  0  0
  -35.9381   63.4530   69.0434 H   0  0  0  0  0  0  0  0  0  0  0  0
  -34.9696   63.2319   62.4720 O   0  0  0  0  0  0  0  0  0  0  0  0
  -32.6392   62.2878   63.1004 O   0  0  0  0  0  0  0  0  0  0  0  0
  -33.0227   64.6826   63.1828 O   0  0  0  0  0  0  0  0  0  0  0  0
  -32.7647   63.5620   61.0492 O   0  0  0  0  0  0  0  0  0  0  0  0
  -33.3177   63.4349   62.4275 S   0  0  0  0  0  0  0  0  0  0  0  0
  -32.9869   62.1893   64.0005 H   0  0  0  0  0  0  0  0  0  0  0  0
  -32.9528   62.7521   60.5495 H   0  0  0  0  0  0  0  0  0  0  0  0
  2  1  1  0  0  0
  2  4  1  0  0  0
  2  5  1  0  0  0
 41 42  1  0  0  0
 41  1  1  0  0  0
 42 46  1  0  0  0
  1 24  1  0  0  0
 23 24  1  0  0  0
 23 25  1  0  0  0
 24 26  1  0  0  0
  3  4  2  0  0  0
 26 27  2  0  0  0
 27 28  1  0  0  0
 43 47  1  0  0  0
 43 51  1  0  0  0
 28 29  1  0  0  0
 56 48  1  0  0  0
 56 60  1  0  0  0
 29 30  1  0  0  0
 57 60  1  0  0  0
 57 61  1  0  0  0
 30 31  1  0  0  0
 44 49  1  0  0  0
 44 52  1  0  0  0
 31 32  1  0  0  0
 45 46  1  0  0  0
 45 50  1  0  0  0
 32 33  1  0  0  0
 53 54  1  0  0  0
 53 55  1  0  0  0
 33 34  1  0  0  0
 34 35  1  0  0  0
 35 36  1  0  0  0
 58 60  1  0  0  0
 36 37  1  0  0  0
 59 60  1  0  0  0
 59 62  1  0  0  0
 37 38  1  0  0  0
 38 39  1  0  0  0
 39 40  1  0  0  0
  4  6  1  0  0  0
  6  7  1  0  0  0
  7  8  1  0  0  0
  8  9  1  0  0  0
  9 10  1  0  0  0
 10 11  1  0  0  0
 11 12  1  0  0  0
 12 13  1  0  0  0
 13 14  1  0  0  0
 14 15  1  0  0  0
 15 16  1  0  0  0
 16 17  1  0  0  0
 17 18  1  0  0  0
 18 19  1  0  0  0
 19 20  1  0  0  0
 20 21  1  0  0  0
 21 22  1  0  0  0
 46 47  1  0  0  0
 47 48  1  0  0  0
 48 49  1  0  0  0
 49 50  1  0  0  0
 50 54  1  0  0  0
M  CHG 1  58  -1
M  END
> <minimizedAffinity>
-9.60012

> <CNNscore>
0.2123471498

> <CNNaffinity>
7.1076154709

> <CNN_VS>
1.5092818737

> <CNNaffinity_variance>
1.8966201544

$$$$
/media/chris/experiments/cd1a-new-docking/inputs/ligands/1onq_ligand.pdb


 62 62  0  0  0  0  0  0  0  0999 V2000
  -41.1540   60.5587   62.7188 C   0  0  0  0  0  0  0  0  0  0  0  0
  -41.4524   61.0865   61.4022 N   0  0  0  0  0  0  0  0  0  0  0  0
  -41.2083   61.2097   59.1499 O   0  0  0  0  0  0  0  0  0  0  0  0
  -40.9258   60.7196   60.2259 C   0  0  0  0  0  0  0  0  0  0  0  0
  -42.1258   61.8039   61.3680 H   0  0  0  0  0  0  0  0  0  0  0  0
  -39.9079   59.6203   60.2982 C   0  0  0  0  0  0  0  0  0  0  0  0
  -40.4647   58.4593   59.4741 C   0  0  0  0  0  0  0  0  0  0  0  0
  -41.5291   57.7140   60.2758 C   0  0  0  0  0  0  0  0  0  0  0  0
  -41.3267   56.2255   60.4241 C   0  0  0  0  0  0  0  0  0  0  0  0
  -41.3689   55.9008   61.9136 C   0  0  0  0  0  0  0  0  0  0  0  0
  -41.9197   57.0582   62.7574 C   0  0  0  0  0  0  0  0  0  0  0  0
  -42.0394   56.7441   64.2599 C   0  0  0  0  0  0  0  0  0  0  0  0
  -41.0862   57.5940   65.1287 C   0  0  0  0  0  0  0  0  0  0  0  0
  -39.8094   57.9344   64.3549 C   0  0  0  0  0  0  0  0  0  0  0  0
  -38.5658   58.1256   65.2146 C   0  0  0  0  0  0  0  0  0  0  0  0
  -37.2816   57.9980   64.4087 C   0  0  0  0  0  0  0  0  0  0  0  0
  -37.4524   57.8017   62.9005 C   0  0  0  0  0  0  0  0  0  0  0  0
  -36.0983   58.0132   62.2368 C   0  0  0  0  0  0  0  0  0  0  0  0
  -34.8410   57.6521   63.0140 C   0  0  0  0  0  0  0  0  0  0  0  0
  -33.6457   58.4996   62.5504 C   0  0  0  0  0  0  0  0  0  0  0  0
  -32.5433   58.6824   63.6098 C   0  0  0  0  0  0  0  0  0  0  0  0
  -33.0374   58.4688   65.0387 C   0  0  0  0  0  0  0  0  0  0  0  0
  -41.5535   61.2233   64.9084 O   0  0  0  0  0  0  0  0  0  0  0  0
  -42.1074   61.3353   63.6106 C   0  0  0  0  0  0  0  0  0  0  0  0
  -40.6723   61.6284   64.9199 H   0  0  0  0  0  0  0  0  0  0  0  0
  -43.5031   60.7132   63.5237 C   0  0  0  0  0  0  0  0  0  0  0  0
  -43.9874   59.8694   64.4510 C   0  0  0  0  0  0  0  0  0  0  0  0
  -45.3915   59.2894   64.2917 C   0  0  0  0  0  0  0  0  0  0  0  0
  -45.8576   58.4514   65.4911 C   0  0  0  0  0  0  0  0  0  0  0  0
  -47.2872   58.7359   65.9877 C   0  0  0  0  0  0  0  0  0  0  0  0
  -48.3349   58.2005   64.9822 C   0  0  0  0  0  0  0  0  0  0  0  0
  -49.5796   59.1015   64.7810 C   0  0  0  0  0  0  0  0  0  0  0  0
  -49.3652   60.2645   63.7839 C   0  0  0  0  0  0  0  0  0  0  0  0
  -50.0820   60.0588   62.4318 C   0  0  0  0  0  0  0  0  0  0  0  0
  -50.9294   58.7823   62.3697 C   0  0  0  0  0  0  0  0  0  0  0  0
  -50.5439   57.7724   61.2908 C   0  0  0  0  0  0  0  0  0  0  0  0
  -49.1797   58.0524   60.6301 C   0  0  0  0  0  0  0  0  0  0  0  0
  -49.1927   58.0979   59.0946 C   0  0  0  0  0  0  0  0  0  0  0  0
  -47.9247   57.4645   58.5150 C   0  0  0  0  0  0  0  0  0  0  0  0
  -47.1900   58.2701   57.4581 C   0  0  0  0  0  0  0  0  0  0  0  0
  -39.6603   60.5657   63.1160 C   0  0  0  0  0  0  0  0  0  0  0  0
  -39.1699   61.7622   63.7727 O   0  0  0  0  0  0  0  0  0  0  0  0
  -37.1527   62.1543   61.7841 O   0  0  0  0  0  0  0  0  0  0  0  0
  -35.6651   64.8707   64.5782 O   0  0  0  0  0  0  0  0  0  0  0  0
  -37.4956   62.5803   65.3260 O   0  0  0  0  0  0  0  0  0  0  0  0
  -37.7307   61.9521   64.0424 C   0  0  0  0  0  0  0  0  0  0  0  0
  -36.9542   62.7844   63.0119 C   0  0  0  0  0  0  0  0  0  0  0  0
  -35.4354   62.8489   63.2841 C   0  0  0  0  0  0  0  0  0  0  0  0
  -35.2767   63.5001   64.6303 C   0  0  0  0  0  0  0  0  0  0  0  0
  -36.0923   62.7461   65.6650 C   0  0  0  0  0  0  0  0  0  0  0  0
  -38.1031   62.1047   61.5960 H   0  0  0  0  0  0  0  0  0  0  0  0
  -35.1324   65.3326   63.9120 H   0  0  0  0  0  0  0  0  0  0  0  0
  -36.2154   62.8418   68.0501 O   0  0  0  0  0  0  0  0  0  0  0  0
  -35.8053   63.5595   66.9251 C   0  0  0  0  0  0  0  0  0  0  0  0
  -36.0321   63.3605   68.8491 H   0  0  0  0  0  0  0  0  0  0  0  0
  -34.6584   63.6434   62.3594 O   0  0  0  0  0  0  0  0  0  0  0  0
  -32.6922   63.8547   60.6840 O   0  0  0  0  0  0  0  0  0  0  0  0
  -32.8484   61.8940   62.1056 O   0  0  0  0  0  0  0  0  0  0  0  0
  -32.1271   64.0155   63.0295 O   0  0  0  0  0  0  0  0  0  0  0  0
  -33.0457   63.3680   62.0505 S   0  0  0  0  0  0  0  0  0  0  0  0
  -33.2808   63.4432   60.0320 H   0  0  0  0  0  0  0  0  0  0  0  0
  -32.2493   64.9774   63.0001 H   0  0  0  0  0  0  0  0  0  0  0  0
  2  1  1  0  0  0
  2  4  1  0  0  0
  2  5  1  0  0  0
 41 42  1  0  0  0
 41  1  1  0  0  0
 42 46  1  0  0  0
  1 24  1  0  0  0
 23 24  1  0  0  0
 23 25  1  0  0  0
 24 26  1  0  0  0
  3  4  2  0  0  0
 26 27  2  0  0  0
 27 28  1  0  0  0
 43 47  1  0  0  0
 43 51  1  0  0  0
 28 29  1  0  0  0
 56 48  1  0  0  0
 56 60  1  0  0  0
 29 30  1  0  0  0
 57 60  1  0  0  0
 57 61  1  0  0  0
 30 31  1  0  0  0
 44 49  1  0  0  0
 44 52  1  0  0  0
 31 32  1  0  0  0
 45 46  1  0  0  0
 45 50  1  0  0  0
 32 33  1  0  0  0
 53 54  1  0  0  0
 53 55  1  0  0  0
 33 34  1  0  0  0
 34 35  1  0  0  0
 35 36  1  0  0  0
 58 60  1  0  0  0
 36 37  1  0  0  0
 59 60  1  0  0  0
 59 62  1  0  0  0
 37 38  1  0  0  0
 38 39  1  0  0  0
 39 40  1  0  0  0
  4  6  1  0  0  0
  6  7  1  0  0  0
  7  8  1  0  0  0
  8  9  1  0  0  0
  9 10  1  0  0  0
 10 11  1  0  0  0
 11 12  1  0  0  0
 12 13  1  0  0  0
 13 14  1  0  0  0
 14 15  1  0  0  0
 15 16  1  0  0  0
 16 17  1  0  0  0
 17 18  1  0  0  0
 18 19  1  0  0  0
 19 20  1  0  0  0
 20 21  1  0  0  0
 21 22  1  0  0  0
 46 47  1  0  0  0
 47 48  1  0  0  0
 48 49  1  0  0  0
 49 50  1  0  0  0
 50 54  1  0  0  0
M  CHG 1  58  -1
M  END
> <minimizedAffinity>
-9.14843

> <CNNscore>
0.2111876756

> <CNNaffinity>
7.3065309525

> <CNN_VS>
1.5430493355

> <CNNaffinity_variance>
1.4253466129

$$$$
/media/chris/experiments/cd1a-new-docking/inputs/ligands/1onq_ligand.pdb


 62 62  0  0  0  0  0  0  0  0999 V2000
  -41.3842   59.8001   65.1697 C   0  0  0  0  0  0  0  0  0  0  0  0
  -42.5399   60.6651   65.3007 N   0  0  0  0  0  0  0  0  0  0  0  0
  -44.3043   61.8476   64.5029 O   0  0  0  0  0  0  0  0  0  0  0  0
  -43.3526   61.1106   64.3328 C   0  0  0  0  0  0  0  0  0  0  0  0
  -42.7545   60.9623   66.2144 H   0  0  0  0  0  0  0  0  0  0  0  0
  -43.0140   60.6405   62.9493 C   0  0  0  0  0  0  0  0  0  0  0  0
  -42.8016   61.8969   62.1046 C   0  0  0  0  0  0  0  0  0  0  0  0
  -41.8837   61.5836   60.9255 C   0  0  0  0  0  0  0  0  0  0  0  0
  -40.8839   60.4733   61.1399 C   0  0  0  0  0  0  0  0  0  0  0  0
  -40.5022   59.9257   59.7686 C   0  0  0  0  0  0  0  0  0  0  0  0
  -41.0775   58.5272   59.5074 C   0  0  0  0  0  0  0  0  0  0  0  0
  -41.6669   57.8431   60.7545 C   0  0  0  0  0  0  0  0  0  0  0  0
  -40.8440   56.6191   61.2131 C   0  0  0  0  0  0  0  0  0  0  0  0
  -39.7393   57.0445   62.1845 C   0  0  0  0  0  0  0  0  0  0  0  0
  -38.3876   57.3271   61.5402 C   0  0  0  0  0  0  0  0  0  0  0  0
  -37.4191   58.0000   62.5016 C   0  0  0  0  0  0  0  0  0  0  0  0
  -37.8062   57.9599   63.9817 C   0  0  0  0  0  0  0  0  0  0  0  0
  -36.5370   58.1097   64.8097 C   0  0  0  0  0  0  0  0  0  0  0  0
  -35.2167   57.6482   64.2104 C   0  0  0  0  0  0  0  0  0  0  0  0
  -34.0344   58.4041   64.8371 C   0  0  0  0  0  0  0  0  0  0  0  0
  -32.8464   58.6336   63.8848 C   0  0  0  0  0  0  0  0  0  0  0  0
  -33.2511   58.6743   62.4131 C   0  0  0  0  0  0  0  0  0  0  0  0
  -41.4325   57.4784   65.1149 O   0  0  0  0  0  0  0  0  0  0  0  0
  -41.8072   58.5632   65.9434 C   0  0  0  0  0  0  0  0  0  0  0  0
  -40.4710   57.4862   64.9870 H   0  0  0  0  0  0  0  0  0  0  0  0
  -43.3176   58.6088   66.1859 C   0  0  0  0  0  0  0  0  0  0  0  0
  -44.1427   57.6003   65.8564 C   0  0  0  0  0  0  0  0  0  0  0  0
  -45.6404   57.7229   66.1302 C   0  0  0  0  0  0  0  0  0  0  0  0
  -46.2233   59.1027   65.7921 C   0  0  0  0  0  0  0  0  0  0  0  0
  -46.6926   59.2898   64.3375 C   0  0  0  0  0  0  0  0  0  0  0  0
  -48.2382   59.3004   64.2559 C   0  0  0  0  0  0  0  0  0  0  0  0
  -48.8403   60.3065   63.2425 C   0  0  0  0  0  0  0  0  0  0  0  0
  -50.2857   59.9742   62.8028 C   0  0  0  0  0  0  0  0  0  0  0  0
  -50.6449   58.4789   62.9411 C   0  0  0  0  0  0  0  0  0  0  0  0
  -51.1177   57.8336   61.6330 C   0  0  0  0  0  0  0  0  0  0  0  0
  -50.0203   57.3986   60.6639 C   0  0  0  0  0  0  0  0  0  0  0  0
  -49.9131   58.2795   59.4036 C   0  0  0  0  0  0  0  0  0  0  0  0
  -48.5073   58.8191   59.0994 C   0  0  0  0  0  0  0  0  0  0  0  0
  -47.6343   57.7429   58.4476 C   0  0  0  0  0  0  0  0  0  0  0  0
  -47.1761   58.0149   57.0258 C   0  0  0  0  0  0  0  0  0  0  0  0
  -40.0291   60.4370   65.5531 C   0  0  0  0  0  0  0  0  0  0  0  0
  -39.3698   61.2238   64.5287 O   0  0  0  0  0  0  0  0  0  0  0  0
  -37.6632   61.6143   62.2676 O   0  0  0  0  0  0  0  0  0  0  0  0
  -35.9745   64.5457   64.7077 O   0  0  0  0  0  0  0  0  0  0  0  0
  -37.5527   62.2067   65.8005 O   0  0  0  0  0  0  0  0  0  0  0  0
  -37.9209   61.5010   64.5905 C   0  0  0  0  0  0  0  0  0  0  0  0
  -37.3388   62.3171   63.4273 C   0  0  0  0  0  0  0  0  0  0  0  0
  -35.8035   62.4735   63.4863 C   0  0  0  0  0  0  0  0  0  0  0  0
  -35.5040   63.2014   64.7676 C   0  0  0  0  0  0  0  0  0  0  0  0
  -36.1286   62.4617   65.9368 C   0  0  0  0  0  0  0  0  0  0  0  0
  -38.6257   61.5063   62.2135 H   0  0  0  0  0  0  0  0  0  0  0  0
  -35.5634   64.9988   63.9550 H   0  0  0  0  0  0  0  0  0  0  0  0
  -36.2681   62.8509   68.2910 O   0  0  0  0  0  0  0  0  0  0  0  0
  -35.7230   63.3535   67.1082 C   0  0  0  0  0  0  0  0  0  0  0  0
  -36.0092   63.4190   69.0334 H   0  0  0  0  0  0  0  0  0  0  0  0
  -35.2047   63.2573   62.4294 O   0  0  0  0  0  0  0  0  0  0  0  0
  -32.8861   62.1018   62.5089 O   0  0  0  0  0  0  0  0  0  0  0  0
  -33.0945   64.4171   63.2058 O   0  0  0  0  0  0  0  0  0  0  0  0
  -33.1633   63.8413   60.8524 O   0  0  0  0  0  0  0  0  0  0  0  0
  -33.5593   63.4029   62.2209 S   0  0  0  0  0  0  0  0  0  0  0  0
  -33.1324   61.8001   63.3973 H   0  0  0  0  0  0  0  0  0  0  0  0
  -33.4627   63.1853   60.2036 H   0  0  0  0  0  0  0  0  0  0  0  0
  2  1  1  0  0  0
  2  4  1  0  0  0
  2  5  1  0  0  0
 41 42  1  0  0  0
 41  1  1  0  0  0
 42 46  1  0  0  0
  1 24  1  0  0  0
 23 24  1  0  0  0
 23 25  1  0  0  0
 24 26  1  0  0  0
  3  4  2  0  0  0
 26 27  2  0  0  0
 27 28  1  0  0  0
 43 47  1  0  0  0
 43 51  1  0  0  0
 28 29  1  0  0  0
 56 48  1  0  0  0
 56 60  1  0  0  0
 29 30  1  0  0  0
 57 60  1  0  0  0
 57 61  1  0  0  0
 30 31  1  0  0  0
 44 49  1  0  0  0
 44 52  1  0  0  0
 31 32  1  0  0  0
 45 46  1  0  0  0
 45 50  1  0  0  0
 32 33  1  0  0  0
 53 54  1  0  0  0
 53 55  1  0  0  0
 33 34  1  0  0  0
 34 35  1  0  0  0
 35 36  1  0  0  0
 58 60  1  0  0  0
 36 37  1  0  0  0
 59 60  1  0  0  0
 59 62  1  0  0  0
 37 38  1  0  0  0
 38 39  1  0  0  0
 39 40  1  0  0  0
  4  6  1  0  0  0
  6  7  1  0  0  0
  7  8  1  0  0  0
  8  9  1  0  0  0
  9 10  1  0  0  0
 10 11  1  0  0  0
 11 12  1  0  0  0
 12 13  1  0  0  0
 13 14  1  0  0  0
 14 15  1  0  0  0
 15 16  1  0  0  0
 16 17  1  0  0  0
 17 18  1  0  0  0
 18 19  1  0  0  0
 19 20  1  0  0  0
 20 21  1  0  0  0
 21 22  1  0  0  0
 46 47  1  0  0  0
 47 48  1  0  0  0
 48 49  1  0  0  0
 49 50  1  0  0  0
 50 54  1  0  0  0
M  CHG 1  58  -1
M  END
> <minimizedAffinity>
-9.71109

> <CNNscore>
0.2063847631

> <CNNaffinity>
7.1156797409

> <CNN_VS>
1.4685678482

> <CNNaffinity_variance>
2.3903110027

$$$$
/media/chris/experiments/cd1a-new-docking/inputs/ligands/1onq_ligand.pdb


 62 62  0  0  0  0  0  0  0  0999 V2000
  -40.5039   60.5169   64.6098 C   0  0  0  0  0  0  0  0  0  0  0  0
  -40.0570   61.1637   63.3920 N   0  0  0  0  0  0  0  0  0  0  0  0
  -38.9260   61.2557   61.4273 O   0  0  0  0  0  0  0  0  0  0  0  0
  -39.2791   60.6579   62.4252 C   0  0  0  0  0  0  0  0  0  0  0  0
  -40.3629   62.0899   63.2586 H   0  0  0  0  0  0  0  0  0  0  0  0
  -38.8298   59.2435   62.6428 C   0  0  0  0  0  0  0  0  0  0  0  0
  -37.4757   59.1070   61.9467 C   0  0  0  0  0  0  0  0  0  0  0  0
  -37.6211   58.2601   60.6846 C   0  0  0  0  0  0  0  0  0  0  0  0
  -37.8458   59.0186   59.3990 C   0  0  0  0  0  0  0  0  0  0  0  0
  -39.1036   58.4556   58.7456 C   0  0  0  0  0  0  0  0  0  0  0  0
  -40.3930   58.9944   59.3795 C   0  0  0  0  0  0  0  0  0  0  0  0
  -41.4789   57.9272   59.6084 C   0  0  0  0  0  0  0  0  0  0  0  0
  -41.7462   57.6541   61.1050 C   0  0  0  0  0  0  0  0  0  0  0  0
  -40.7458   56.6332   61.6546 C   0  0  0  0  0  0  0  0  0  0  0  0
  -41.3660   55.4680   62.4160 C   0  0  0  0  0  0  0  0  0  0  0  0
  -41.5786   55.7882   63.8883 C   0  0  0  0  0  0  0  0  0  0  0  0
  -42.4993   56.9726   64.1913 C   0  0  0  0  0  0  0  0  0  0  0  0
  -42.2200   57.4406   65.6131 C   0  0  0  0  0  0  0  0  0  0  0  0
  -43.3959   57.6529   66.5552 C   0  0  0  0  0  0  0  0  0  0  0  0
  -44.7259   57.3309   65.8556 C   0  0  0  0  0  0  0  0  0  0  0  0
  -45.9804   57.6697   66.6818 C   0  0  0  0  0  0  0  0  0  0  0  0
  -47.2757   57.5768   65.8787 C   0  0  0  0  0  0  0  0  0  0  0  0
  -41.6659   61.3794   66.4268 O   0  0  0  0  0  0  0  0  0  0  0  0
  -41.7018   61.3601   65.0119 C   0  0  0  0  0  0  0  0  0  0  0  0
  -40.8421   61.7968   66.7237 H   0  0  0  0  0  0  0  0  0  0  0  0
  -42.9806   60.7120   64.4763 C   0  0  0  0  0  0  0  0  0  0  0  0
  -44.2064   61.0310   64.9255 C   0  0  0  0  0  0  0  0  0  0  0  0
  -45.4351   60.3377   64.3400 C   0  0  0  0  0  0  0  0  0  0  0  0
  -46.6912   61.2204   64.3087 C   0  0  0  0  0  0  0  0  0  0  0  0
  -47.9800   60.5290   63.8269 C   0  0  0  0  0  0  0  0  0  0  0  0
  -49.2046   61.0273   64.6316 C   0  0  0  0  0  0  0  0  0  0  0  0
  -50.5533   60.3566   64.2670 C   0  0  0  0  0  0  0  0  0  0  0  0
  -50.4356   58.8607   63.8909 C   0  0  0  0  0  0  0  0  0  0  0  0
  -50.8033   58.5627   62.4212 C   0  0  0  0  0  0  0  0  0  0  0  0
  -49.6018   58.1782   61.5495 C   0  0  0  0  0  0  0  0  0  0  0  0
  -49.9061   57.3038   60.3348 C   0  0  0  0  0  0  0  0  0  0  0  0
  -49.6585   58.0022   58.9832 C   0  0  0  0  0  0  0  0  0  0  0  0
  -48.1838   58.2636   58.6415 C   0  0  0  0  0  0  0  0  0  0  0  0
  -47.3787   56.9609   58.6475 C   0  0  0  0  0  0  0  0  0  0  0  0
  -47.1329   56.3129   57.2964 C   0  0  0  0  0  0  0  0  0  0  0  0
  -39.4141   60.2913   65.6823 C   0  0  0  0  0  0  0  0  0  0  0  0
  -38.5818   61.4326   66.0108 O   0  0  0  0  0  0  0  0  0  0  0  0
  -37.1534   63.9099   66.0045 O   0  0  0  0  0  0  0  0  0  0  0  0
  -33.8342   61.3951   66.2425 O   0  0  0  0  0  0  0  0  0  0  0  0
  -36.5131   60.4837   65.1709 O   0  0  0  0  0  0  0  0  0  0  0  0
  -37.3126   61.6844   65.2997 C   0  0  0  0  0  0  0  0  0  0  0  0
  -36.3910   62.7458   65.9175 C   0  0  0  0  0  0  0  0  0  0  0  0
  -35.1375   63.0494   65.0680 C   0  0  0  0  0  0  0  0  0  0  0  0
  -34.3712   61.7590   64.9731 C   0  0  0  0  0  0  0  0  0  0  0  0
  -35.2737   60.6640   64.4340 C   0  0  0  0  0  0  0  0  0  0  0  0
  -37.9467   63.7379   66.5358 H   0  0  0  0  0  0  0  0  0  0  0  0
  -33.2617   62.1075   66.5676 H   0  0  0  0  0  0  0  0  0  0  0  0
  -33.0922   59.8491   63.8950 O   0  0  0  0  0  0  0  0  0  0  0  0
  -34.3246   59.4676   64.4283 C   0  0  0  0  0  0  0  0  0  0  0  0
  -32.4914   59.0876   63.8924 H   0  0  0  0  0  0  0  0  0  0  0  0
  -34.2197   64.0224   65.6166 O   0  0  0  0  0  0  0  0  0  0  0  0
  -33.7523   65.2006   63.3559 O   0  0  0  0  0  0  0  0  0  0  0  0
  -31.9558   64.0250   64.4873 O   0  0  0  0  0  0  0  0  0  0  0  0
  -32.7140   66.1750   65.3101 O   0  0  0  0  0  0  0  0  0  0  0  0
  -33.1481   64.8929   64.6861 S   0  0  0  0  0  0  0  0  0  0  0  0
  -34.0415   64.3765   62.9338 H   0  0  0  0  0  0  0  0  0  0  0  0
  -33.4857   66.7473   65.4434 H   0  0  0  0  0  0  0  0  0  0  0  0
  2  1  1  0  0  0
  2  4  1  0  0  0
  2  5  1  0  0  0
 41 42  1  0  0  0
 41  1  1  0  0  0
 42 46  1  0  0  0
  1 24  1  0  0  0
 23 24  1  0  0  0
 23 25  1  0  0  0
 24 26  1  0  0  0
  3  4  2  0  0  0
 26 27  2  0  0  0
 27 28  1  0  0  0
 43 47  1  0  0  0
 43 51  1  0  0  0
 28 29  1  0  0  0
 56 48  1  0  0  0
 56 60  1  0  0  0
 29 30  1  0  0  0
 57 60  1  0  0  0
 57 61  1  0  0  0
 30 31  1  0  0  0
 44 49  1  0  0  0
 44 52  1  0  0  0
 31 32  1  0  0  0
 45 46  1  0  0  0
 45 50  1  0  0  0
 32 33  1  0  0  0
 53 54  1  0  0  0
 53 55  1  0  0  0
 33 34  1  0  0  0
 34 35  1  0  0  0
 35 36  1  0  0  0
 58 60  1  0  0  0
 36 37  1  0  0  0
 59 60  1  0  0  0
 59 62  1  0  0  0
 37 38  1  0  0  0
 38 39  1  0  0  0
 39 40  1  0  0  0
  4  6  1  0  0  0
  6  7  1  0  0  0
  7  8  1  0  0  0
  8  9  1  0  0  0
  9 10  1  0  0  0
 10 11  1  0  0  0
 11 12  1  0  0  0
 12 13  1  0  0  0
 13 14  1  0  0  0
 14 15  1  0  0  0
 15 16  1  0  0  0
 16 17  1  0  0  0
 17 18  1  0  0  0
 18 19  1  0  0  0
 19 20  1  0  0  0
 20 21  1  0  0  0
 21 22  1  0  0  0
 46 47  1  0  0  0
 47 48  1  0  0  0
 48 49  1  0  0  0
 49 50  1  0  0  0
 50 54  1  0  0  0
M  CHG 1  58  -1
M  END
> <minimizedAffinity>
-8.50116

> <CNNscore>
0.2045399994

> <CNNaffinity>
7.2161798477

> <CNN_VS>
1.4759974480

> <CNNaffinity_variance>
1.0086263418

$$$$
/media/chris/experiments/cd1a-new-docking/inputs/ligands/1onq_ligand.pdb


 62 62  0  0  0  0  0  0  0  0999 V2000
  -40.8621   60.1944   63.9900 C   0  0  0  0  0  0  0  0  0  0  0  0
  -41.9565   61.0689   64.3628 N   0  0  0  0  0  0  0  0  0  0  0  0
  -44.1262   61.5344   64.8353 O   0  0  0  0  0  0  0  0  0  0  0  0
  -43.2472   60.7512   64.5323 C   0  0  0  0  0  0  0  0  0  0  0  0
  -41.7223   62.0138   64.5096 H   0  0  0  0  0  0  0  0  0  0  0  0
  -43.5824   59.3059   64.3119 C   0  0  0  0  0  0  0  0  0  0  0  0
  -43.9117   58.7229   65.6862 C   0  0  0  0  0  0  0  0  0  0  0  0
  -44.9369   57.6004   65.5445 C   0  0  0  0  0  0  0  0  0  0  0  0
  -46.1527   57.6962   66.4339 C   0  0  0  0  0  0  0  0  0  0  0  0
  -46.5094   59.1728   66.5694 C   0  0  0  0  0  0  0  0  0  0  0  0
  -47.5769   59.6199   65.5618 C   0  0  0  0  0  0  0  0  0  0  0  0
  -48.9843   59.7859   66.1637 C   0  0  0  0  0  0  0  0  0  0  0  0
  -50.0798   59.0834   65.3318 C   0  0  0  0  0  0  0  0  0  0  0  0
  -50.9309   60.1119   64.5816 C   0  0  0  0  0  0  0  0  0  0  0  0
  -51.1743   59.7977   63.1105 C   0  0  0  0  0  0  0  0  0  0  0  0
  -50.0755   58.9289   62.5163 C   0  0  0  0  0  0  0  0  0  0  0  0
  -49.6520   59.2680   61.0853 C   0  0  0  0  0  0  0  0  0  0  0  0
  -50.2264   58.2078   60.1553 C   0  0  0  0  0  0  0  0  0  0  0  0
  -49.3462   57.0319   59.7581 C   0  0  0  0  0  0  0  0  0  0  0  0
  -47.8638   57.4369   59.7382 C   0  0  0  0  0  0  0  0  0  0  0  0
  -47.1048   57.0191   58.4652 C   0  0  0  0  0  0  0  0  0  0  0  0
  -47.3377   57.9614   57.2865 C   0  0  0  0  0  0  0  0  0  0  0  0
  -39.8548   60.8829   65.9666 O   0  0  0  0  0  0  0  0  0  0  0  0
  -40.3479   59.7152   65.3367 C   0  0  0  0  0  0  0  0  0  0  0  0
  -40.5796   61.5165   66.0861 H   0  0  0  0  0  0  0  0  0  0  0  0
  -39.2508   58.6709   65.1179 C   0  0  0  0  0  0  0  0  0  0  0  0
  -37.9936   58.8247   65.5676 C   0  0  0  0  0  0  0  0  0  0  0  0
  -36.9544   57.7358   65.3075 C   0  0  0  0  0  0  0  0  0  0  0  0
  -35.5985   58.2726   64.8266 C   0  0  0  0  0  0  0  0  0  0  0  0
  -35.6394   59.1482   63.5606 C   0  0  0  0  0  0  0  0  0  0  0  0
  -35.6297   58.2712   62.2854 C   0  0  0  0  0  0  0  0  0  0  0  0
  -36.8682   57.3579   62.1012 C   0  0  0  0  0  0  0  0  0  0  0  0
  -38.1080   58.0808   61.5239 C   0  0  0  0  0  0  0  0  0  0  0  0
  -37.8561   58.7360   60.1486 C   0  0  0  0  0  0  0  0  0  0  0  0
  -38.9974   58.5266   59.1463 C   0  0  0  0  0  0  0  0  0  0  0  0
  -40.3655   59.0607   59.5654 C   0  0  0  0  0  0  0  0  0  0  0  0
  -41.4818   57.9978   59.5566 C   0  0  0  0  0  0  0  0  0  0  0  0
  -41.3035   56.8524   60.5647 C   0  0  0  0  0  0  0  0  0  0  0  0
  -41.6491   57.3106   61.9845 C   0  0  0  0  0  0  0  0  0  0  0  0
  -41.3778   56.3163   63.0996 C   0  0  0  0  0  0  0  0  0  0  0  0
  -39.8242   60.8033   63.0200 C   0  0  0  0  0  0  0  0  0  0  0  0
  -39.1562   62.0126   63.4610 O   0  0  0  0  0  0  0  0  0  0  0  0
  -37.0424   62.4687   61.5898 O   0  0  0  0  0  0  0  0  0  0  0  0
  -35.3954   64.6091   64.7685 O   0  0  0  0  0  0  0  0  0  0  0  0
  -37.4652   62.4349   65.1485 O   0  0  0  0  0  0  0  0  0  0  0  0
  -37.7156   62.0167   63.7847 C   0  0  0  0  0  0  0  0  0  0  0  0
  -36.8263   62.9002   62.8979 C   0  0  0  0  0  0  0  0  0  0  0  0
  -35.3188   62.7723   63.2080 C   0  0  0  0  0  0  0  0  0  0  0  0
  -35.1444   63.2122   64.6354 C   0  0  0  0  0  0  0  0  0  0  0  0
  -36.0650   62.4093   65.5366 C   0  0  0  0  0  0  0  0  0  0  0  0
  -37.9860   62.5420   61.3768 H   0  0  0  0  0  0  0  0  0  0  0  0
  -34.7974   65.1021   64.1852 H   0  0  0  0  0  0  0  0  0  0  0  0
  -36.5826   64.0973   67.1479 O   0  0  0  0  0  0  0  0  0  0  0  0
  -35.7443   63.0080   66.9043 C   0  0  0  0  0  0  0  0  0  0  0  0
  -36.3769   64.4757   68.0170 H   0  0  0  0  0  0  0  0  0  0  0  0
  -34.4364   63.6038   62.4206 O   0  0  0  0  0  0  0  0  0  0  0  0
  -32.6461   61.7438   62.1920 O   0  0  0  0  0  0  0  0  0  0  0  0
  -32.0468   63.8639   63.2097 O   0  0  0  0  0  0  0  0  0  0  0  0
  -32.3416   63.7038   60.8092 O   0  0  0  0  0  0  0  0  0  0  0  0
  -32.8424   63.2224   62.1280 S   0  0  0  0  0  0  0  0  0  0  0  0
  -32.9669   61.4117   63.0450 H   0  0  0  0  0  0  0  0  0  0  0  0
  -32.8552   63.2903   60.0979 H   0  0  0  0  0  0  0  0  0  0  0  0
  2  1  1  0  0  0
  2  4  1  0  0  0
  2  5  1  0  0  0
 41 42  1  0  0  0
 41  1  1  0  0  0
 42 46  1  0  0  0
  1 24  1  0  0  0
 23 24  1  0  0  0
 23 25  1  0  0  0
 24 26  1  0  0  0
  3  4  2  0  0  0
 26 27  2  0  0  0
 27 28  1  0  0  0
 43 47  1  0  0  0
 43 51  1  0  0  0
 28 29  1  0  0  0
 56 48  1  0  0  0
 56 60  1  0  0  0
 29 30  1  0  0  0
 57 60  1  0  0  0
 57 61  1  0  0  0
 30 31  1  0  0  0
 44 49  1  0  0  0
 44 52  1  0  0  0
 31 32  1  0  0  0
 45 46  1  0  0  0
 45 50  1  0  0  0
 32 33  1  0  0  0
 53 54  1  0  0  0
 53 55  1  0  0  0
 33 34  1  0  0  0
 34 35  1  0  0  0
 35 36  1  0  0  0
 58 60  1  0  0  0
 36 37  1  0  0  0
 59 60  1  0  0  0
 59 62  1  0  0  0
 37 38  1  0  0  0
 38 39  1  0  0  0
 39 40  1  0  0  0
  4  6  1  0  0  0
  6  7  1  0  0  0
  7  8  1  0  0  0
  8  9  1  0  0  0
  9 10  1  0  0  0
 10 11  1  0  0  0
 11 12  1  0  0  0
 12 13  1  0  0  0
 13 14  1  0  0  0
 14 15  1  0  0  0
 15 16  1  0  0  0
 16 17  1  0  0  0
 17 18  1  0  0  0
 18 19  1  0  0  0
 19 20  1  0  0  0
 20 21  1  0  0  0
 21 22  1  0  0  0
 46 47  1  0  0  0
 47 48  1  0  0  0
 48 49  1  0  0  0
 49 50  1  0  0  0
 50 54  1  0  0  0
M  CHG 1  58  -1
M  END
> <minimizedAffinity>
-9.23546

> <CNNscore>
0.1967182457

> <CNNaffinity>
7.2088470459

> <CNN_VS>
1.4181118011

> <CNNaffinity_variance>
1.4198371172

$$$$
/media/chris/experiments/cd1a-new-docking/inputs/ligands/1onq_ligand.pdb


 62 62  0  0  0  0  0  0  0  0999 V2000
  -40.5092   60.4107   63.9570 C   0  0  0  0  0  0  0  0  0  0  0  0
  -41.6580   61.1722   64.4060 N   0  0  0  0  0  0  0  0  0  0  0  0
  -43.8740   61.5018   64.7643 O   0  0  0  0  0  0  0  0  0  0  0  0
  -42.9485   60.8120   64.3829 C   0  0  0  0  0  0  0  0  0  0  0  0
  -41.4662   62.0651   64.7736 H   0  0  0  0  0  0  0  0  0  0  0  0
  -43.2193   59.4456   63.8268 C   0  0  0  0  0  0  0  0  0  0  0  0
  -44.6174   59.0527   64.3041 C   0  0  0  0  0  0  0  0  0  0  0  0
  -44.5156   58.1681   65.5443 C   0  0  0  0  0  0  0  0  0  0  0  0
  -45.8101   57.5724   66.0423 C   0  0  0  0  0  0  0  0  0  0  0  0
  -46.8278   58.7035   66.1467 C   0  0  0  0  0  0  0  0  0  0  0  0
  -48.0567   58.4796   65.2553 C   0  0  0  0  0  0  0  0  0  0  0  0
  -49.0903   59.6196   65.3054 C   0  0  0  0  0  0  0  0  0  0  0  0
  -48.9130   60.6415   64.1608 C   0  0  0  0  0  0  0  0  0  0  0  0
  -49.2067   59.9909   62.8060 C   0  0  0  0  0  0  0  0  0  0  0  0
  -50.6726   59.6600   62.5537 C   0  0  0  0  0  0  0  0  0  0  0  0
  -50.8769   58.2033   62.1644 C   0  0  0  0  0  0  0  0  0  0  0  0
  -50.6122   57.8573   60.6972 C   0  0  0  0  0  0  0  0  0  0  0  0
  -49.5177   56.7998   60.6478 C   0  0  0  0  0  0  0  0  0  0  0  0
  -48.5522   56.8040   59.4718 C   0  0  0  0  0  0  0  0  0  0  0  0
  -48.2962   58.2360   58.9758 C   0  0  0  0  0  0  0  0  0  0  0  0
  -47.4372   58.3262   57.7010 C   0  0  0  0  0  0  0  0  0  0  0  0
  -47.1097   56.9631   57.0956 C   0  0  0  0  0  0  0  0  0  0  0  0
  -39.2976   61.0064   65.8472 O   0  0  0  0  0  0  0  0  0  0  0  0
  -39.9309   59.8851   65.2597 C   0  0  0  0  0  0  0  0  0  0  0  0
  -39.9574   61.6954   66.0225 H   0  0  0  0  0  0  0  0  0  0  0  0
  -38.9418   58.7572   64.9566 C   0  0  0  0  0  0  0  0  0  0  0  0
  -37.7492   58.6460   65.5662 C   0  0  0  0  0  0  0  0  0  0  0  0
  -36.8166   57.4907   65.2073 C   0  0  0  0  0  0  0  0  0  0  0  0
  -35.6410   57.8974   64.3070 C   0  0  0  0  0  0  0  0  0  0  0  0
  -35.7766   57.5166   62.8212 C   0  0  0  0  0  0  0  0  0  0  0  0
  -36.5577   58.6038   62.0445 C   0  0  0  0  0  0  0  0  0  0  0  0
  -37.7736   58.0912   61.2316 C   0  0  0  0  0  0  0  0  0  0  0  0
  -37.9541   58.7812   59.8589 C   0  0  0  0  0  0  0  0  0  0  0  0
  -39.2772   58.4142   59.1525 C   0  0  0  0  0  0  0  0  0  0  0  0
  -40.4830   59.2275   59.6381 C   0  0  0  0  0  0  0  0  0  0  0  0
  -41.2786   58.6238   60.7935 C   0  0  0  0  0  0  0  0  0  0  0  0
  -41.7150   57.1644   60.5578 C   0  0  0  0  0  0  0  0  0  0  0  0
  -41.0764   56.1301   61.4971 C   0  0  0  0  0  0  0  0  0  0  0  0
  -40.9538   56.6816   62.9204 C   0  0  0  0  0  0  0  0  0  0  0  0
  -41.8621   56.0595   63.9661 C   0  0  0  0  0  0  0  0  0  0  0  0
  -39.5418   61.1598   63.0127 C   0  0  0  0  0  0  0  0  0  0  0  0
  -38.1422   61.1687   63.3926 O   0  0  0  0  0  0  0  0  0  0  0  0
  -36.4610   61.8282   65.6098 O   0  0  0  0  0  0  0  0  0  0  0  0
  -34.0745   63.5064   62.6287 O   0  0  0  0  0  0  0  0  0  0  0  0
  -37.0410   63.0226   62.2810 O   0  0  0  0  0  0  0  0  0  0  0  0
  -37.4012   62.4354   63.5549 C   0  0  0  0  0  0  0  0  0  0  0  0
  -36.1029   62.3589   64.3712 C   0  0  0  0  0  0  0  0  0  0  0  0
  -35.4360   63.7319   64.6062 C   0  0  0  0  0  0  0  0  0  0  0  0
  -35.1039   64.2766   63.2445 C   0  0  0  0  0  0  0  0  0  0  0  0
  -36.3524   64.2983   62.3814 C   0  0  0  0  0  0  0  0  0  0  0  0
  -36.8823   60.9639   65.4817 H   0  0  0  0  0  0  0  0  0  0  0  0
  -33.2877   63.5061   63.1961 H   0  0  0  0  0  0  0  0  0  0  0  0
  -35.4375   63.8117   60.2274 O   0  0  0  0  0  0  0  0  0  0  0  0
  -35.8033   64.8611   61.0722 C   0  0  0  0  0  0  0  0  0  0  0  0
  -35.0891   64.1718   59.3968 H   0  0  0  0  0  0  0  0  0  0  0  0
  -34.1942   63.7156   65.3462 O   0  0  0  0  0  0  0  0  0  0  0  0
  -35.4352   64.3448   67.5328 O   0  0  0  0  0  0  0  0  0  0  0  0
  -33.3849   65.5022   66.9443 O   0  0  0  0  0  0  0  0  0  0  0  0
  -33.3039   63.2319   67.7893 O   0  0  0  0  0  0  0  0  0  0  0  0
  -34.0747   64.1836   66.9396 S   0  0  0  0  0  0  0  0  0  0  0  0
  -35.9525   64.9620   66.9922 H   0  0  0  0  0  0  0  0  0  0  0  0
  -33.7470   62.3690   67.7918 H   0  0  0  0  0  0  0  0  0  0  0  0
  2  1  1  0  0  0
  2  4  1  0  0  0
  2  5  1  0  0  0
 41 42  1  0  0  0
 41  1  1  0  0  0
 42 46  1  0  0  0
  1 24  1  0  0  0
 23 24  1  0  0  0
 23 25  1  0  0  0
 24 26  1  0  0  0
  3  4  2  0  0  0
 26 27  2  0  0  0
 27 28  1  0  0  0
 43 47  1  0  0  0
 43 51  1  0  0  0
 28 29  1  0  0  0
 56 48  1  0  0  0
 56 60  1  0  0  0
 29 30  1  0  0  0
 57 60  1  0  0  0
 57 61  1  0  0  0
 30 31  1  0  0  0
 44 49  1  0  0  0
 44 52  1  0  0  0
 31 32  1  0  0  0
 45 46  1  0  0  0
 45 50  1  0  0  0
 32 33  1  0  0  0
 53 54  1  0  0  0
 53 55  1  0  0  0
 33 34  1  0  0  0
 34 35  1  0  0  0
 35 36  1  0  0  0
 58 60  1  0  0  0
 36 37  1  0  0  0
 59 60  1  0  0  0
 59 62  1  0  0  0
 37 38  1  0  0  0
 38 39  1  0  0  0
 39 40  1  0  0  0
  4  6  1  0  0  0
  6  7  1  0  0  0
  7  8  1  0  0  0
  8  9  1  0  0  0
  9 10  1  0  0  0
 10 11  1  0  0  0
 11 12  1  0  0  0
 12 13  1  0  0  0
 13 14  1  0  0  0
 14 15  1  0  0  0
 15 16  1  0  0  0
 16 17  1  0  0  0
 17 18  1  0  0  0
 18 19  1  0  0  0
 19 20  1  0  0  0
 20 21  1  0  0  0
 21 22  1  0  0  0
 46 47  1  0  0  0
 47 48  1  0  0  0
 48 49  1  0  0  0
 49 50  1  0  0  0
 50 54  1  0  0  0
M  CHG 1  58  -1
M  END
> <minimizedAffinity>
-9.59094

> <CNNscore>
0.1283449531

> <CNNaffinity>
7.0789666176

> <CNN_VS>
0.9085496664

> <CNNaffinity_variance>
1.1498420238

$$$$
