/media/chris/experiments/cd1a-new-docking/inputs/ligands/1onq_ligand.pdb


 62 62  0  0  0  0  0  0  0  0999 V2000
  -40.8958   59.9501   64.3043 C   0  0  0  0  0  0  0  0  0  0  0  0
  -40.5823   59.9157   62.8895 N   0  0  0  0  0  0  0  0  0  0  0  0
  -41.5241   57.9559   62.2419 O   0  0  0  0  0  0  0  0  0  0  0  0
  -40.9002   58.9697   61.9953 C   0  0  0  0  0  0  0  0  0  0  0  0
  -40.0724   60.6830   62.5423 H   0  0  0  0  0  0  0  0  0  0  0  0
  -40.4337   59.2336   60.5945 C   0  0  0  0  0  0  0  0  0  0  0  0
  -39.4399   58.1235   60.2522 C   0  0  0  0  0  0  0  0  0  0  0  0
  -38.0503   58.4902   60.7675 C   0  0  0  0  0  0  0  0  0  0  0  0
  -37.5708   57.7304   61.9806 C   0  0  0  0  0  0  0  0  0  0  0  0
  -36.1552   58.2051   62.2916 C   0  0  0  0  0  0  0  0  0  0  0  0
  -35.6791   57.7769   63.6862 C   0  0  0  0  0  0  0  0  0  0  0  0
  -34.2276   58.1762   64.0090 C   0  0  0  0  0  0  0  0  0  0  0  0
  -33.8187   59.5215   63.3699 C   0  0  0  0  0  0  0  0  0  0  0  0
  -32.8217   59.2966   62.2296 C   0  0  0  0  0  0  0  0  0  0  0  0
  -31.4110   59.8077   62.4960 C   0  0  0  0  0  0  0  0  0  0  0  0
  -31.3967   61.2697   62.9174 C   0  0  0  0  0  0  0  0  0  0  0  0
  -31.8635   62.2764   61.8635 C   0  0  0  0  0  0  0  0  0  0  0  0
  -31.1907   63.6120   62.1505 C   0  0  0  0  0  0  0  0  0  0  0  0
  -30.8077   63.9421   63.5856 C   0  0  0  0  0  0  0  0  0  0  0  0
  -32.0378   64.3803   64.3960 C   0  0  0  0  0  0  0  0  0  0  0  0
  -31.7123   64.9850   65.7742 C   0  0  0  0  0  0  0  0  0  0  0  0
  -32.9412   65.5232   66.5032 C   0  0  0  0  0  0  0  0  0  0  0  0
  -41.8643   61.6615   65.5408 O   0  0  0  0  0  0  0  0  0  0  0  0
  -42.0720   60.9098   64.3594 C   0  0  0  0  0  0  0  0  0  0  0  0
  -41.0300   62.1510   65.4700 H   0  0  0  0  0  0  0  0  0  0  0  0
  -43.3765   60.1107   64.4061 C   0  0  0  0  0  0  0  0  0  0  0  0
  -44.1663   60.0619   65.4923 C   0  0  0  0  0  0  0  0  0  0  0  0
  -45.4535   59.2400   65.4601 C   0  0  0  0  0  0  0  0  0  0  0  0
  -46.7270   60.0849   65.3096 C   0  0  0  0  0  0  0  0  0  0  0  0
  -48.0133   59.3007   64.9908 C   0  0  0  0  0  0  0  0  0  0  0  0
  -49.1603   59.7165   65.9432 C   0  0  0  0  0  0  0  0  0  0  0  0
  -50.5915   59.4723   65.4015 C   0  0  0  0  0  0  0  0  0  0  0  0
  -51.0486   60.4959   64.3356 C   0  0  0  0  0  0  0  0  0  0  0  0
  -51.2170   59.8869   62.9268 C   0  0  0  0  0  0  0  0  0  0  0  0
  -50.8585   58.3979   62.8505 C   0  0  0  0  0  0  0  0  0  0  0  0
  -49.6844   58.0357   61.9436 C   0  0  0  0  0  0  0  0  0  0  0  0
  -50.0578   57.9197   60.4526 C   0  0  0  0  0  0  0  0  0  0  0  0
  -49.2041   58.7659   59.4959 C   0  0  0  0  0  0  0  0  0  0  0  0
  -48.0733   57.9331   58.8854 C   0  0  0  0  0  0  0  0  0  0  0  0
  -48.1003   56.4427   59.1748 C   0  0  0  0  0  0  0  0  0  0  0  0
  -39.7044   60.2471   65.2431 C   0  0  0  0  0  0  0  0  0  0  0  0
  -38.3968   59.8163   64.7871 O   0  0  0  0  0  0  0  0  0  0  0  0
  -38.1272   61.5861   62.5573 O   0  0  0  0  0  0  0  0  0  0  0  0
  -36.8480   64.2539   65.4977 O   0  0  0  0  0  0  0  0  0  0  0  0
  -36.7541   61.2502   65.8507 O   0  0  0  0  0  0  0  0  0  0  0  0
  -37.2976   60.7826   64.5923 C   0  0  0  0  0  0  0  0  0  0  0  0
  -37.6398   62.0410   63.7819 C   0  0  0  0  0  0  0  0  0  0  0  0
  -36.4241   62.9543   63.5112 C   0  0  0  0  0  0  0  0  0  0  0  0
  -35.9147   63.3866   64.8584 C   0  0  0  0  0  0  0  0  0  0  0  0
  -35.6344   62.1667   65.7173 C   0  0  0  0  0  0  0  0  0  0  0  0
  -38.8926   61.0098   62.7079 H   0  0  0  0  0  0  0  0  0  0  0  0
  -37.0123   65.0251   64.9327 H   0  0  0  0  0  0  0  0  0  0  0  0
  -36.1833   62.8194   67.9502 O   0  0  0  0  0  0  0  0  0  0  0  0
  -35.1496   62.8154   67.0119 C   0  0  0  0  0  0  0  0  0  0  0  0
  -35.8729   63.2318   68.7716 H   0  0  0  0  0  0  0  0  0  0  0  0
  -36.6945   64.1688   62.7752 O   0  0  0  0  0  0  0  0  0  0  0  0
  -34.5421   65.5494   62.3533 O   0  0  0  0  0  0  0  0  0  0  0  0
  -36.4260   65.7770   60.8406 O   0  0  0  0  0  0  0  0  0  0  0  0
  -35.0265   63.8000   60.7561 O   0  0  0  0  0  0  0  0  0  0  0  0
  -35.6406   64.8141   61.6595 S   0  0  0  0  0  0  0  0  0  0  0  0
  -34.9233   66.2152   62.9469 H   0  0  0  0  0  0  0  0  0  0  0  0
  -34.5122   63.1677   61.2821 H   0  0  0  0  0  0  0  0  0  0  0  0
  2  1  1  0  0  0
  2  4  1  0  0  0
  2  5  1  0  0  0
 41 42  1  0  0  0
 41  1  1  0  0  0
 42 46  1  0  0  0
  1 24  1  0  0  0
 23 24  1  0  0  0
 23 25  1  0  0  0
 24 26  1  0  0  0
  3  4  2  0  0  0
 26 27  2  0  0  0
 27 28  1  0  0  0
 43 47  1  0  0  0
 43 51  1  0  0  0
 28 29  1  0  0  0
 56 48  1  0  0  0
 56 60  1  0  0  0
 29 30  1  0  0  0
 57 60  1  0  0  0
 57 61  1  0  0  0
 30 31  1  0  0  0
 44 49  1  0  0  0
 44 52  1  0  0  0
 31 32  1  0  0  0
 45 46  1  0  0  0
 45 50  1  0  0  0
 32 33  1  0  0  0
 53 54  1  0  0  0
 53 55  1  0  0  0
 33 34  1  0  0  0
 34 35  1  0  0  0
 35 36  1  0  0  0
 58 60  1  0  0  0
 36 37  1  0  0  0
 59 60  1  0  0  0
 59 62  1  0  0  0
 37 38  1  0  0  0
 38 39  1  0  0  0
 39 40  1  0  0  0
  4  6  1  0  0  0
  6  7  1  0  0  0
  7  8  1  0  0  0
  8  9  1  0  0  0
  9 10  1  0  0  0
 10 11  1  0  0  0
 11 12  1  0  0  0
 12 13  1  0  0  0
 13 14  1  0  0  0
 14 15  1  0  0  0
 15 16  1  0  0  0
 16 17  1  0  0  0
 17 18  1  0  0  0
 18 19  1  0  0  0
 19 20  1  0  0  0
 20 21  1  0  0  0
 21 22  1  0  0  0
 46 47  1  0  0  0
 47 48  1  0  0  0
 48 49  1  0  0  0
 49 50  1  0  0  0
 50 54  1  0  0  0
M  CHG 1  58  -1
M  END
> <minimizedAffinity>
-8.61411

> <CNNscore>
0.3255902529

> <CNNaffinity>
6.9647126198

> <CNN_VS>
2.2676424980

> <CNNaffinity_variance>
0.8423055410

$$$$
/media/chris/experiments/cd1a-new-docking/inputs/ligands/1onq_ligand.pdb


 62 62  0  0  0  0  0  0  0  0999 V2000
  -41.5818   59.8885   65.1288 C   0  0  0  0  0  0  0  0  0  0  0  0
  -41.5372   58.5338   64.6152 N   0  0  0  0  0  0  0  0  0  0  0  0
  -42.7710   57.4041   66.1479 O   0  0  0  0  0  0  0  0  0  0  0  0
  -42.1054   57.4353   65.1311 C   0  0  0  0  0  0  0  0  0  0  0  0
  -41.0259   58.4046   63.7839 H   0  0  0  0  0  0  0  0  0  0  0  0
  -41.8789   56.1741   64.3515 C   0  0  0  0  0  0  0  0  0  0  0  0
  -41.0711   56.5682   63.1149 C   0  0  0  0  0  0  0  0  0  0  0  0
  -41.3682   55.6043   61.9688 C   0  0  0  0  0  0  0  0  0  0  0  0
  -41.4038   56.2085   60.5860 C   0  0  0  0  0  0  0  0  0  0  0  0
  -41.8123   57.6706   60.7325 C   0  0  0  0  0  0  0  0  0  0  0  0
  -41.1548   58.5780   59.6840 C   0  0  0  0  0  0  0  0  0  0  0  0
  -39.8325   58.0315   59.1151 C   0  0  0  0  0  0  0  0  0  0  0  0
  -38.6825   59.0608   59.1745 C   0  0  0  0  0  0  0  0  0  0  0  0
  -37.6540   58.6606   60.2361 C   0  0  0  0  0  0  0  0  0  0  0  0
  -38.1873   57.7599   61.3436 C   0  0  0  0  0  0  0  0  0  0  0  0
  -37.2499   57.7000   62.5406 C   0  0  0  0  0  0  0  0  0  0  0  0
  -37.8841   57.9830   63.9044 C   0  0  0  0  0  0  0  0  0  0  0  0
  -36.7739   58.0245   64.9458 C   0  0  0  0  0  0  0  0  0  0  0  0
  -35.4109   57.4545   64.5819 C   0  0  0  0  0  0  0  0  0  0  0  0
  -34.4047   58.5790   64.2901 C   0  0  0  0  0  0  0  0  0  0  0  0
  -33.4534   58.2952   63.1131 C   0  0  0  0  0  0  0  0  0  0  0  0
  -32.1277   59.0462   63.2132 C   0  0  0  0  0  0  0  0  0  0  0  0
  -42.2256   61.9875   64.3700 O   0  0  0  0  0  0  0  0  0  0  0  0
  -42.4042   60.6140   64.0776 C   0  0  0  0  0  0  0  0  0  0  0  0
  -41.2871   62.2169   64.2844 H   0  0  0  0  0  0  0  0  0  0  0  0
  -43.8687   60.1851   64.1947 C   0  0  0  0  0  0  0  0  0  0  0  0
  -44.8735   61.0568   64.3861 C   0  0  0  0  0  0  0  0  0  0  0  0
  -46.3103   60.5492   64.4938 C   0  0  0  0  0  0  0  0  0  0  0  0
  -46.5051   59.4545   65.5530 C   0  0  0  0  0  0  0  0  0  0  0  0
  -47.8662   58.7349   65.5252 C   0  0  0  0  0  0  0  0  0  0  0  0
  -48.9818   59.6481   66.0883 C   0  0  0  0  0  0  0  0  0  0  0  0
  -50.4135   59.3288   65.5884 C   0  0  0  0  0  0  0  0  0  0  0  0
  -50.9973   60.3859   64.6217 C   0  0  0  0  0  0  0  0  0  0  0  0
  -51.4669   59.7974   63.2737 C   0  0  0  0  0  0  0  0  0  0  0  0
  -50.4315   58.8867   62.6029 C   0  0  0  0  0  0  0  0  0  0  0  0
  -50.9841   57.8341   61.6442 C   0  0  0  0  0  0  0  0  0  0  0  0
  -50.2375   57.7605   60.2977 C   0  0  0  0  0  0  0  0  0  0  0  0
  -49.1990   56.6340   60.1856 C   0  0  0  0  0  0  0  0  0  0  0  0
  -47.9260   57.1268   59.4917 C   0  0  0  0  0  0  0  0  0  0  0  0
  -48.0753   58.3376   58.5876 C   0  0  0  0  0  0  0  0  0  0  0  0
  -40.2138   60.5061   65.4975 C   0  0  0  0  0  0  0  0  0  0  0  0
  -39.5048   61.1924   64.4346 O   0  0  0  0  0  0  0  0  0  0  0  0
  -37.7168   61.5412   62.2304 O   0  0  0  0  0  0  0  0  0  0  0  0
  -36.1577   64.5608   64.6494 O   0  0  0  0  0  0  0  0  0  0  0  0
  -37.7499   62.2335   65.7467 O   0  0  0  0  0  0  0  0  0  0  0  0
  -38.0627   61.4897   64.5440 C   0  0  0  0  0  0  0  0  0  0  0  0
  -37.4456   62.2802   63.3814 C   0  0  0  0  0  0  0  0  0  0  0  0
  -35.9156   62.4576   63.4948 C   0  0  0  0  0  0  0  0  0  0  0  0
  -35.6744   63.2248   64.7654 C   0  0  0  0  0  0  0  0  0  0  0  0
  -36.3352   62.5102   65.9303 C   0  0  0  0  0  0  0  0  0  0  0  0
  -38.6750   61.4196   62.1426 H   0  0  0  0  0  0  0  0  0  0  0  0
  -35.7231   64.9980   63.9004 H   0  0  0  0  0  0  0  0  0  0  0  0
  -36.2609   62.8016   68.3016 O   0  0  0  0  0  0  0  0  0  0  0  0
  -35.9857   63.4394   67.0906 C   0  0  0  0  0  0  0  0  0  0  0  0
  -36.0381   63.3937   69.0369 H   0  0  0  0  0  0  0  0  0  0  0  0
  -35.2854   63.2191   62.4399 O   0  0  0  0  0  0  0  0  0  0  0  0
  -33.1770   63.5605   60.9719 O   0  0  0  0  0  0  0  0  0  0  0  0
  -32.9831   62.3989   63.0938 O   0  0  0  0  0  0  0  0  0  0  0  0
  -33.2576   64.8065   63.0425 O   0  0  0  0  0  0  0  0  0  0  0  0
  -33.6499   63.5264   62.3875 S   0  0  0  0  0  0  0  0  0  0  0  0
  -33.4238   62.7338   60.5286 H   0  0  0  0  0  0  0  0  0  0  0  0
  -33.6882   65.5475   62.5881 H   0  0  0  0  0  0  0  0  0  0  0  0
  2  1  1  0  0  0
  2  4  1  0  0  0
  2  5  1  0  0  0
 41 42  1  0  0  0
 41  1  1  0  0  0
 42 46  1  0  0  0
  1 24  1  0  0  0
 23 24  1  0  0  0
 23 25  1  0  0  0
 24 26  1  0  0  0
  3  4  2  0  0  0
 26 27  2  0  0  0
 27 28  1  0  0  0
 43 47  1  0  0  0
 43 51  1  0  0  0
 28 29  1  0  0  0
 56 48  1  0  0  0
 56 60  1  0  0  0
 29 30  1  0  0  0
 57 60  1  0  0  0
 57 61  1  0  0  0
 30 31  1  0  0  0
 44 49  1  0  0  0
 44 52  1  0  0  0
 31 32  1  0  0  0
 45 46  1  0  0  0
 45 50  1  0  0  0
 32 33  1  0  0  0
 53 54  1  0  0  0
 53 55  1  0  0  0
 33 34  1  0  0  0
 34 35  1  0  0  0
 35 36  1  0  0  0
 58 60  1  0  0  0
 36 37  1  0  0  0
 59 60  1  0  0  0
 59 62  1  0  0  0
 37 38  1  0  0  0
 38 39  1  0  0  0
 39 40  1  0  0  0
  4  6  1  0  0  0
  6  7  1  0  0  0
  7  8  1  0  0  0
  8  9  1  0  0  0
  9 10  1  0  0  0
 10 11  1  0  0  0
 11 12  1  0  0  0
 12 13  1  0  0  0
 13 14  1  0  0  0
 14 15  1  0  0  0
 15 16  1  0  0  0
 16 17  1  0  0  0
 17 18  1  0  0  0
 18 19  1  0  0  0
 19 20  1  0  0  0
 20 21  1  0  0  0
 21 22  1  0  0  0
 46 47  1  0  0  0
 47 48  1  0  0  0
 48 49  1  0  0  0
 49 50  1  0  0  0
 50 54  1  0  0  0
M  CHG 1  58  -1
M  END
> <minimizedAffinity>
-10.12276

> <CNNscore>
0.3186224997

> <CNNaffinity>
7.1508483887

> <CNN_VS>
2.2784211636

> <CNNaffinity_variance>
2.2425103188

$$$$
/media/chris/experiments/cd1a-new-docking/inputs/ligands/1onq_ligand.pdb


 62 62  0  0  0  0  0  0  0  0999 V2000
  -39.7888   59.9641   64.4892 C   0  0  0  0  0  0  0  0  0  0  0  0
  -41.0824   60.4753   64.8971 N   0  0  0  0  0  0  0  0  0  0  0  0
  -41.9315   61.2373   62.9360 O   0  0  0  0  0  0  0  0  0  0  0  0
  -42.0222   61.0494   64.1336 C   0  0  0  0  0  0  0  0  0  0  0  0
  -41.2973   60.3901   65.8541 H   0  0  0  0  0  0  0  0  0  0  0  0
  -43.2661   61.4674   64.8600 C   0  0  0  0  0  0  0  0  0  0  0  0
  -43.3609   60.5815   66.1023 C   0  0  0  0  0  0  0  0  0  0  0  0
  -44.4556   59.5341   65.9137 C   0  0  0  0  0  0  0  0  0  0  0  0
  -45.8752   60.0223   66.0710 C   0  0  0  0  0  0  0  0  0  0  0  0
  -46.6084   59.7358   64.7647 C   0  0  0  0  0  0  0  0  0  0  0  0
  -48.0631   60.2243   64.7817 C   0  0  0  0  0  0  0  0  0  0  0  0
  -48.9440   59.5499   65.8493 C   0  0  0  0  0  0  0  0  0  0  0  0
  -50.4535   59.6676   65.5441 C   0  0  0  0  0  0  0  0  0  0  0  0
  -50.6860   60.5106   64.2871 C   0  0  0  0  0  0  0  0  0  0  0  0
  -51.4697   59.8156   63.1802 C   0  0  0  0  0  0  0  0  0  0  0  0
  -50.8790   58.4610   62.8178 C   0  0  0  0  0  0  0  0  0  0  0  0
  -49.6172   58.4890   61.9521 C   0  0  0  0  0  0  0  0  0  0  0  0
  -50.0122   58.1370   60.5241 C   0  0  0  0  0  0  0  0  0  0  0  0
  -49.1696   58.6800   59.3795 C   0  0  0  0  0  0  0  0  0  0  0  0
  -48.9457   57.6055   58.3037 C   0  0  0  0  0  0  0  0  0  0  0  0
  -47.4683   57.3553   57.9488 C   0  0  0  0  0  0  0  0  0  0  0  0
  -46.8638   58.4500   57.0726 C   0  0  0  0  0  0  0  0  0  0  0  0
  -38.4720   58.2672   65.3738 O   0  0  0  0  0  0  0  0  0  0  0  0
  -39.8144   58.5399   65.0169 C   0  0  0  0  0  0  0  0  0  0  0  0
  -38.1913   58.8818   66.0697 H   0  0  0  0  0  0  0  0  0  0  0  0
  -40.3213   57.6016   63.9191 C   0  0  0  0  0  0  0  0  0  0  0  0
  -41.3731   56.7817   64.0852 C   0  0  0  0  0  0  0  0  0  0  0  0
  -41.8175   55.8735   62.9401 C   0  0  0  0  0  0  0  0  0  0  0  0
  -40.8298   55.8259   61.7652 C   0  0  0  0  0  0  0  0  0  0  0  0
  -41.3773   56.3208   60.4138 C   0  0  0  0  0  0  0  0  0  0  0  0
  -41.5106   57.8627   60.4066 C   0  0  0  0  0  0  0  0  0  0  0  0
  -40.3784   58.6214   59.6690 C   0  0  0  0  0  0  0  0  0  0  0  0
  -39.8606   59.8715   60.4187 C   0  0  0  0  0  0  0  0  0  0  0  0
  -38.4016   59.7389   60.9062 C   0  0  0  0  0  0  0  0  0  0  0  0
  -37.8459   58.3128   60.8121 C   0  0  0  0  0  0  0  0  0  0  0  0
  -37.2942   57.7205   62.1072 C   0  0  0  0  0  0  0  0  0  0  0  0
  -35.8342   58.1158   62.4040 C   0  0  0  0  0  0  0  0  0  0  0  0
  -35.3225   57.7304   63.8003 C   0  0  0  0  0  0  0  0  0  0  0  0
  -33.9420   58.3372   64.0668 C   0  0  0  0  0  0  0  0  0  0  0  0
  -33.3778   59.2351   62.9801 C   0  0  0  0  0  0  0  0  0  0  0  0
  -38.5744   60.8354   64.8828 C   0  0  0  0  0  0  0  0  0  0  0  0
  -37.2882   60.4355   64.3453 O   0  0  0  0  0  0  0  0  0  0  0  0
  -37.0668   62.5227   62.4032 O   0  0  0  0  0  0  0  0  0  0  0  0
  -35.5672   64.6701   65.6496 O   0  0  0  0  0  0  0  0  0  0  0  0
  -35.5527   61.6466   65.5312 O   0  0  0  0  0  0  0  0  0  0  0  0
  -36.1690   61.3933   64.2453 C   0  0  0  0  0  0  0  0  0  0  0  0
  -36.5085   62.7701   63.6567 C   0  0  0  0  0  0  0  0  0  0  0  0
  -35.2783   63.6846   63.4679 C   0  0  0  0  0  0  0  0  0  0  0  0
  -34.6929   63.8901   64.8377 C   0  0  0  0  0  0  0  0  0  0  0  0
  -34.4118   62.5453   65.4833 C   0  0  0  0  0  0  0  0  0  0  0  0
  -37.8424   61.9487   62.5024 H   0  0  0  0  0  0  0  0  0  0  0  0
  -35.7331   65.5234   65.2191 H   0  0  0  0  0  0  0  0  0  0  0  0
  -34.8855   63.0990   67.7597 O   0  0  0  0  0  0  0  0  0  0  0  0
  -33.8465   62.9733   66.8358 C   0  0  0  0  0  0  0  0  0  0  0  0
  -34.5239   63.3709   68.6179 H   0  0  0  0  0  0  0  0  0  0  0  0
  -35.5439   65.0048   62.9422 O   0  0  0  0  0  0  0  0  0  0  0  0
  -35.5026   64.1778   60.4863 O   0  0  0  0  0  0  0  0  0  0  0  0
  -33.9956   65.9496   61.1784 O   0  0  0  0  0  0  0  0  0  0  0  0
  -36.3526   66.4114   60.8535 O   0  0  0  0  0  0  0  0  0  0  0  0
  -35.3695   65.3994   61.3342 S   0  0  0  0  0  0  0  0  0  0  0  0
  -34.8692   63.5065   60.7849 H   0  0  0  0  0  0  0  0  0  0  0  0
  -37.2518   66.0607   60.9515 H   0  0  0  0  0  0  0  0  0  0  0  0
  2  1  1  0  0  0
  2  4  1  0  0  0
  2  5  1  0  0  0
 41 42  1  0  0  0
 41  1  1  0  0  0
 42 46  1  0  0  0
  1 24  1  0  0  0
 23 24  1  0  0  0
 23 25  1  0  0  0
 24 26  1  0  0  0
  3  4  2  0  0  0
 26 27  2  0  0  0
 27 28  1  0  0  0
 43 47  1  0  0  0
 43 51  1  0  0  0
 28 29  1  0  0  0
 56 48  1  0  0  0
 56 60  1  0  0  0
 29 30  1  0  0  0
 57 60  1  0  0  0
 57 61  1  0  0  0
 30 31  1  0  0  0
 44 49  1  0  0  0
 44 52  1  0  0  0
 31 32  1  0  0  0
 45 46  1  0  0  0
 45 50  1  0  0  0
 32 33  1  0  0  0
 53 54  1  0  0  0
 53 55  1  0  0  0
 33 34  1  0  0  0
 34 35  1  0  0  0
 35 36  1  0  0  0
 58 60  1  0  0  0
 36 37  1  0  0  0
 59 60  1  0  0  0
 59 62  1  0  0  0
 37 38  1  0  0  0
 38 39  1  0  0  0
 39 40  1  0  0  0
  4  6  1  0  0  0
  6  7  1  0  0  0
  7  8  1  0  0  0
  8  9  1  0  0  0
  9 10  1  0  0  0
 10 11  1  0  0  0
 11 12  1  0  0  0
 12 13  1  0  0  0
 13 14  1  0  0  0
 14 15  1  0  0  0
 15 16  1  0  0  0
 16 17  1  0  0  0
 17 18  1  0  0  0
 18 19  1  0  0  0
 19 20  1  0  0  0
 20 21  1  0  0  0
 21 22  1  0  0  0
 46 47  1  0  0  0
 47 48  1  0  0  0
 48 49  1  0  0  0
 49 50  1  0  0  0
 50 54  1  0  0  0
M  CHG 1  58  -1
M  END
> <minimizedAffinity>
-8.99390

> <CNNscore>
0.2825755775

> <CNNaffinity>
7.2161531448

> <CNN_VS>
2.0391087532

> <CNNaffinity_variance>
1.0050537586

$$$$
/media/chris/experiments/cd1a-new-docking/inputs/ligands/1onq_ligand.pdb


 62 62  0  0  0  0  0  0  0  0999 V2000
  -41.8503   59.7300   65.4693 C   0  0  0  0  0  0  0  0  0  0  0  0
  -41.7632   58.5491   64.6333 N   0  0  0  0  0  0  0  0  0  0  0  0
  -42.7289   56.9680   65.9428 O   0  0  0  0  0  0  0  0  0  0  0  0
  -42.1863   57.3080   64.9095 C   0  0  0  0  0  0  0  0  0  0  0  0
  -41.3407   58.6745   63.7529 H   0  0  0  0  0  0  0  0  0  0  0  0
  -41.9560   56.2993   63.8235 C   0  0  0  0  0  0  0  0  0  0  0  0
  -40.8123   56.8400   62.9652 C   0  0  0  0  0  0  0  0  0  0  0  0
  -41.1764   56.7370   61.4861 C   0  0  0  0  0  0  0  0  0  0  0  0
  -41.6707   58.0058   60.8346 C   0  0  0  0  0  0  0  0  0  0  0  0
  -41.2990   57.9400   59.3569 C   0  0  0  0  0  0  0  0  0  0  0  0
  -39.8188   58.2557   59.1031 C   0  0  0  0  0  0  0  0  0  0  0  0
  -39.4049   59.6903   59.4790 C   0  0  0  0  0  0  0  0  0  0  0  0
  -38.2294   59.7333   60.4800 C   0  0  0  0  0  0  0  0  0  0  0  0
  -37.8700   58.3216   60.9517 C   0  0  0  0  0  0  0  0  0  0  0  0
  -36.7784   58.2545   62.0130 C   0  0  0  0  0  0  0  0  0  0  0  0
  -37.3083   57.7764   63.3567 C   0  0  0  0  0  0  0  0  0  0  0  0
  -36.3290   57.8537   64.5303 C   0  0  0  0  0  0  0  0  0  0  0  0
  -34.9191   57.9688   63.9665 C   0  0  0  0  0  0  0  0  0  0  0  0
  -33.8111   58.4849   64.8727 C   0  0  0  0  0  0  0  0  0  0  0  0
  -32.5309   58.7663   64.0704 C   0  0  0  0  0  0  0  0  0  0  0  0
  -32.7683   59.1056   62.5873 C   0  0  0  0  0  0  0  0  0  0  0  0
  -32.0488   60.3742   62.1352 C   0  0  0  0  0  0  0  0  0  0  0  0
  -42.4194   61.9006   64.8689 O   0  0  0  0  0  0  0  0  0  0  0  0
  -42.8892   60.5708   64.7473 C   0  0  0  0  0  0  0  0  0  0  0  0
  -41.5565   61.9797   64.4332 H   0  0  0  0  0  0  0  0  0  0  0  0
  -44.2521   60.3771   65.4163 C   0  0  0  0  0  0  0  0  0  0  0  0
  -45.3021   59.8195   64.7898 C   0  0  0  0  0  0  0  0  0  0  0  0
  -46.6311   59.6619   65.5266 C   0  0  0  0  0  0  0  0  0  0  0  0
  -47.8210   59.3591   64.6044 C   0  0  0  0  0  0  0  0  0  0  0  0
  -48.8415   58.3408   65.1456 C   0  0  0  0  0  0  0  0  0  0  0  0
  -50.1554   59.0467   65.5588 C   0  0  0  0  0  0  0  0  0  0  0  0
  -50.4907   60.3365   64.7679 C   0  0  0  0  0  0  0  0  0  0  0  0
  -51.4590   60.1184   63.5814 C   0  0  0  0  0  0  0  0  0  0  0  0
  -50.7529   59.6776   62.2810 C   0  0  0  0  0  0  0  0  0  0  0  0
  -50.9108   58.1848   61.9677 C   0  0  0  0  0  0  0  0  0  0  0  0
  -50.1072   57.6595   60.7801 C   0  0  0  0  0  0  0  0  0  0  0  0
  -49.6152   58.7612   59.8209 C   0  0  0  0  0  0  0  0  0  0  0  0
  -48.4491   58.3592   58.9050 C   0  0  0  0  0  0  0  0  0  0  0  0
  -48.3452   56.8363   58.7834 C   0  0  0  0  0  0  0  0  0  0  0  0
  -47.0259   56.2884   58.2687 C   0  0  0  0  0  0  0  0  0  0  0  0
  -40.5035   60.4122   65.8002 C   0  0  0  0  0  0  0  0  0  0  0  0
  -39.5230   60.4628   64.7327 O   0  0  0  0  0  0  0  0  0  0  0  0
  -37.6288   61.0672   66.7879 O   0  0  0  0  0  0  0  0  0  0  0  0
  -35.0807   61.6617   63.5393 O   0  0  0  0  0  0  0  0  0  0  0  0
  -38.0942   61.8162   63.3142 O   0  0  0  0  0  0  0  0  0  0  0  0
  -38.5117   61.5370   64.6725 C   0  0  0  0  0  0  0  0  0  0  0  0
  -37.2240   61.2982   65.4738 C   0  0  0  0  0  0  0  0  0  0  0  0
  -36.2577   62.5030   65.4686 C   0  0  0  0  0  0  0  0  0  0  0  0
  -35.8812   62.7338   64.0311 C   0  0  0  0  0  0  0  0  0  0  0  0
  -37.1351   62.9010   63.1921 C   0  0  0  0  0  0  0  0  0  0  0  0
  -38.2375   60.3124   66.8107 H   0  0  0  0  0  0  0  0  0  0  0  0
  -34.2864   61.5727   64.0890 H   0  0  0  0  0  0  0  0  0  0  0  0
  -36.1791   64.4470   61.6399 O   0  0  0  0  0  0  0  0  0  0  0  0
  -36.5407   63.1082   61.8008 C   0  0  0  0  0  0  0  0  0  0  0  0
  -35.8018   64.5760   60.7556 H   0  0  0  0  0  0  0  0  0  0  0  0
  -35.0152   62.3228   66.1854 O   0  0  0  0  0  0  0  0  0  0  0  0
  -34.9609   64.7153   67.1804 O   0  0  0  0  0  0  0  0  0  0  0  0
  -33.2626   64.0447   65.5818 O   0  0  0  0  0  0  0  0  0  0  0  0
  -33.1809   63.2276   67.8622 O   0  0  0  0  0  0  0  0  0  0  0  0
  -34.0862   63.5904   66.7350 S   0  0  0  0  0  0  0  0  0  0  0  0
  -35.5582   64.9658   66.4584 H   0  0  0  0  0  0  0  0  0  0  0  0
  -33.7100   62.9300   68.6189 H   0  0  0  0  0  0  0  0  0  0  0  0
  2  1  1  0  0  0
  2  4  1  0  0  0
  2  5  1  0  0  0
 41 42  1  0  0  0
 41  1  1  0  0  0
 42 46  1  0  0  0
  1 24  1  0  0  0
 23 24  1  0  0  0
 23 25  1  0  0  0
 24 26  1  0  0  0
  3  4  2  0  0  0
 26 27  2  0  0  0
 27 28  1  0  0  0
 43 47  1  0  0  0
 43 51  1  0  0  0
 28 29  1  0  0  0
 56 48  1  0  0  0
 56 60  1  0  0  0
 29 30  1  0  0  0
 57 60  1  0  0  0
 57 61  1  0  0  0
 30 31  1  0  0  0
 44 49  1  0  0  0
 44 52  1  0  0  0
 31 32  1  0  0  0
 45 46  1  0  0  0
 45 50  1  0  0  0
 32 33  1  0  0  0
 53 54  1  0  0  0
 53 55  1  0  0  0
 33 34  1  0  0  0
 34 35  1  0  0  0
 35 36  1  0  0  0
 58 60  1  0  0  0
 36 37  1  0  0  0
 59 60  1  0  0  0
 59 62  1  0  0  0
 37 38  1  0  0  0
 38 39  1  0  0  0
 39 40  1  0  0  0
  4  6  1  0  0  0
  6  7  1  0  0  0
  7  8  1  0  0  0
  8  9  1  0  0  0
  9 10  1  0  0  0
 10 11  1  0  0  0
 11 12  1  0  0  0
 12 13  1  0  0  0
 13 14  1  0  0  0
 14 15  1  0  0  0
 15 16  1  0  0  0
 16 17  1  0  0  0
 17 18  1  0  0  0
 18 19  1  0  0  0
 19 20  1  0  0  0
 20 21  1  0  0  0
 21 22  1  0  0  0
 46 47  1  0  0  0
 47 48  1  0  0  0
 48 49  1  0  0  0
 49 50  1  0  0  0
 50 54  1  0  0  0
M  CHG 1  58  -1
M  END
> <minimizedAffinity>
-9.30578

> <CNNscore>
0.2605352700

> <CNNaffinity>
7.0766944885

> <CNN_VS>
1.8437285423

> <CNNaffinity_variance>
1.9061924219

$$$$
/media/chris/experiments/cd1a-new-docking/inputs/ligands/1onq_ligand.pdb


 62 62  0  0  0  0  0  0  0  0999 V2000
  -41.2888   59.7540   64.1466 C   0  0  0  0  0  0  0  0  0  0  0  0
  -42.6438   60.2005   64.4031 N   0  0  0  0  0  0  0  0  0  0  0  0
  -43.0156   61.6114   62.6658 O   0  0  0  0  0  0  0  0  0  0  0  0
  -43.3821   61.0563   63.6833 C   0  0  0  0  0  0  0  0  0  0  0  0
  -43.0755   59.8286   65.2060 H   0  0  0  0  0  0  0  0  0  0  0  0
  -44.7626   61.3089   64.2124 C   0  0  0  0  0  0  0  0  0  0  0  0
  -45.0501   60.1970   65.2216 C   0  0  0  0  0  0  0  0  0  0  0  0
  -45.9225   59.1217   64.5783 C   0  0  0  0  0  0  0  0  0  0  0  0
  -47.4135   59.3450   64.6523 C   0  0  0  0  0  0  0  0  0  0  0  0
  -47.7530   59.7160   66.0922 C   0  0  0  0  0  0  0  0  0  0  0  0
  -49.2305   60.0873   66.2762 C   0  0  0  0  0  0  0  0  0  0  0  0
  -50.1936   59.3301   65.3436 C   0  0  0  0  0  0  0  0  0  0  0  0
  -51.0931   60.2736   64.5152 C   0  0  0  0  0  0  0  0  0  0  0  0
  -51.2223   59.7697   63.0750 C   0  0  0  0  0  0  0  0  0  0  0  0
  -50.6424   58.3833   62.8222 C   0  0  0  0  0  0  0  0  0  0  0  0
  -51.0853   57.8073   61.4854 C   0  0  0  0  0  0  0  0  0  0  0  0
  -49.9817   57.1946   60.6200 C   0  0  0  0  0  0  0  0  0  0  0  0
  -49.8386   58.0409   59.3621 C   0  0  0  0  0  0  0  0  0  0  0  0
  -48.5980   58.9073   59.2032 C   0  0  0  0  0  0  0  0  0  0  0  0
  -47.7426   58.4308   58.0186 C   0  0  0  0  0  0  0  0  0  0  0  0
  -47.0092   57.0977   58.2558 C   0  0  0  0  0  0  0  0  0  0  0  0
  -47.4344   55.9942   57.2900 C   0  0  0  0  0  0  0  0  0  0  0  0
  -40.0837   57.9037   64.8678 O   0  0  0  0  0  0  0  0  0  0  0  0
  -41.3761   58.2612   64.4141 C   0  0  0  0  0  0  0  0  0  0  0  0
  -39.8843   58.3839   65.6866 H   0  0  0  0  0  0  0  0  0  0  0  0
  -41.7543   57.5357   63.1205 C   0  0  0  0  0  0  0  0  0  0  0  0
  -40.8942   56.7612   62.4375 C   0  0  0  0  0  0  0  0  0  0  0  0
  -41.3483   56.0708   61.1527 C   0  0  0  0  0  0  0  0  0  0  0  0
  -40.9420   56.8130   59.8712 C   0  0  0  0  0  0  0  0  0  0  0  0
  -41.4071   58.2777   59.7733 C   0  0  0  0  0  0  0  0  0  0  0  0
  -40.1938   59.2376   59.7310 C   0  0  0  0  0  0  0  0  0  0  0  0
  -38.8985   58.6405   59.1251 C   0  0  0  0  0  0  0  0  0  0  0  0
  -37.6644   58.7318   60.0533 C   0  0  0  0  0  0  0  0  0  0  0  0
  -38.0135   58.6468   61.5550 C   0  0  0  0  0  0  0  0  0  0  0  0
  -37.3314   57.4821   62.2828 C   0  0  0  0  0  0  0  0  0  0  0  0
  -36.6904   57.8147   63.6285 C   0  0  0  0  0  0  0  0  0  0  0  0
  -35.5017   58.7911   63.5312 C   0  0  0  0  0  0  0  0  0  0  0  0
  -34.3846   58.3685   62.5649 C   0  0  0  0  0  0  0  0  0  0  0  0
  -33.0584   58.1793   63.3066 C   0  0  0  0  0  0  0  0  0  0  0  0
  -33.0321   58.6078   64.7630 C   0  0  0  0  0  0  0  0  0  0  0  0
  -40.1793   60.5348   64.8869 C   0  0  0  0  0  0  0  0  0  0  0  0
  -39.3432   61.3988   64.0758 O   0  0  0  0  0  0  0  0  0  0  0  0
  -37.3321   61.8952   62.1045 O   0  0  0  0  0  0  0  0  0  0  0  0
  -35.7706   64.3702   65.0769 O   0  0  0  0  0  0  0  0  0  0  0  0
  -37.6421   62.0680   65.6708 O   0  0  0  0  0  0  0  0  0  0  0  0
  -37.8986   61.5401   64.3468 C   0  0  0  0  0  0  0  0  0  0  0  0
  -37.1125   62.4299   63.3734 C   0  0  0  0  0  0  0  0  0  0  0  0
  -35.5908   62.4443   63.6370 C   0  0  0  0  0  0  0  0  0  0  0  0
  -35.4098   62.9921   65.0257 C   0  0  0  0  0  0  0  0  0  0  0  0
  -36.2335   62.1808   66.0094 C   0  0  0  0  0  0  0  0  0  0  0  0
  -38.2844   61.8783   61.9212 H   0  0  0  0  0  0  0  0  0  0  0  0
  -35.2332   64.8690   64.4418 H   0  0  0  0  0  0  0  0  0  0  0  0
  -34.6054   63.3592   67.3031 O   0  0  0  0  0  0  0  0  0  0  0  0
  -35.9215   62.8941   67.3231 C   0  0  0  0  0  0  0  0  0  0  0  0
  -34.4097   63.8119   68.1385 H   0  0  0  0  0  0  0  0  0  0  0  0
  -34.8041   63.2887   62.7663 O   0  0  0  0  0  0  0  0  0  0  0  0
  -32.3532   63.6042   63.5477 O   0  0  0  0  0  0  0  0  0  0  0  0
  -32.8821   63.7355   61.1829 O   0  0  0  0  0  0  0  0  0  0  0  0
  -32.8329   61.5871   62.3038 O   0  0  0  0  0  0  0  0  0  0  0  0
  -33.1898   63.0264   62.4545 S   0  0  0  0  0  0  0  0  0  0  0  0
  -32.5720   64.5425   63.6606 H   0  0  0  0  0  0  0  0  0  0  0  0
  -33.0304   61.1168   63.1289 H   0  0  0  0  0  0  0  0  0  0  0  0
  2  1  1  0  0  0
  2  4  1  0  0  0
  2  5  1  0  0  0
 41 42  1  0  0  0
 41  1  1  0  0  0
 42 46  1  0  0  0
  1 24  1  0  0  0
 23 24  1  0  0  0
 23 25  1  0  0  0
 24 26  1  0  0  0
  3  4  2  0  0  0
 26 27  2  0  0  0
 27 28  1  0  0  0
 43 47  1  0  0  0
 43 51  1  0  0  0
 28 29  1  0  0  0
 56 48  1  0  0  0
 56 60  1  0  0  0
 29 30  1  0  0  0
 57 60  1  0  0  0
 57 61  1  0  0  0
 30 31  1  0  0  0
 44 49  1  0  0  0
 44 52  1  0  0  0
 31 32  1  0  0  0
 45 46  1  0  0  0
 45 50  1  0  0  0
 32 33  1  0  0  0
 53 54  1  0  0  0
 53 55  1  0  0  0
 33 34  1  0  0  0
 34 35  1  0  0  0
 35 36  1  0  0  0
 58 60  1  0  0  0
 36 37  1  0  0  0
 59 60  1  0  0  0
 59 62  1  0  0  0
 37 38  1  0  0  0
 38 39  1  0  0  0
 39 40  1  0  0  0
  4  6  1  0  0  0
  6  7  1  0  0  0
  7  8  1  0  0  0
  8  9  1  0  0  0
  9 10  1  0  0  0
 10 11  1  0  0  0
 11 12  1  0  0  0
 12 13  1  0  0  0
 13 14  1  0  0  0
 14 15  1  0  0  0
 15 16  1  0  0  0
 16 17  1  0  0  0
 17 18  1  0  0  0
 18 19  1  0  0  0
 19 20  1  0  0  0
 20 21  1  0  0  0
 21 22  1  0  0  0
 46 47  1  0  0  0
 47 48  1  0  0  0
 48 49  1  0  0  0
 49 50  1  0  0  0
 50 54  1  0  0  0
M  CHG 1  58  -1
M  END
> <minimizedAffinity>
-9.86731

> <CNNscore>
0.2331952900

> <CNNaffinity>
7.0839338303

> <CNN_VS>
1.6519399881

> <CNNaffinity_variance>
1.4994573593

$$$$
/media/chris/experiments/cd1a-new-docking/inputs/ligands/1onq_ligand.pdb


 62 62  0  0  0  0  0  0  0  0999 V2000
  -41.5180   59.9287   64.1294 C   0  0  0  0  0  0  0  0  0  0  0  0
  -41.3224   59.6419   62.7221 N   0  0  0  0  0  0  0  0  0  0  0  0
  -42.2773   57.5940   62.5178 O   0  0  0  0  0  0  0  0  0  0  0  0
  -41.6954   58.5494   62.0418 C   0  0  0  0  0  0  0  0  0  0  0  0
  -40.8577   60.3362   62.2012 H   0  0  0  0  0  0  0  0  0  0  0  0
  -41.3519   58.5591   60.5818 C   0  0  0  0  0  0  0  0  0  0  0  0
  -40.7519   59.9339   60.2869 C   0  0  0  0  0  0  0  0  0  0  0  0
  -39.3306   59.7788   59.7513 C   0  0  0  0  0  0  0  0  0  0  0  0
  -38.7152   58.4075   59.8905 C   0  0  0  0  0  0  0  0  0  0  0  0
  -37.5899   58.5093   60.9149 C   0  0  0  0  0  0  0  0  0  0  0  0
  -37.6992   57.4531   62.0228 C   0  0  0  0  0  0  0  0  0  0  0  0
  -38.2888   57.9810   63.3436 C   0  0  0  0  0  0  0  0  0  0  0  0
  -37.2692   57.9684   64.5037 C   0  0  0  0  0  0  0  0  0  0  0  0
  -35.8401   57.8554   63.9654 C   0  0  0  0  0  0  0  0  0  0  0  0
  -34.8653   58.8980   64.4996 C   0  0  0  0  0  0  0  0  0  0  0  0
  -33.4870   58.3137   64.7716 C   0  0  0  0  0  0  0  0  0  0  0  0
  -32.5273   58.2755   63.5801 C   0  0  0  0  0  0  0  0  0  0  0  0
  -31.9215   59.6626   63.4126 C   0  0  0  0  0  0  0  0  0  0  0  0
  -32.1616   60.4107   62.1096 C   0  0  0  0  0  0  0  0  0  0  0  0
  -30.8383   60.6678   61.3714 C   0  0  0  0  0  0  0  0  0  0  0  0
  -30.6142   62.1330   60.9541 C   0  0  0  0  0  0  0  0  0  0  0  0
  -31.7503   63.0618   61.3759 C   0  0  0  0  0  0  0  0  0  0  0  0
  -42.5973   61.9183   64.6514 O   0  0  0  0  0  0  0  0  0  0  0  0
  -42.8675   60.6260   64.1406 C   0  0  0  0  0  0  0  0  0  0  0  0
  -41.9827   62.3782   64.0585 H   0  0  0  0  0  0  0  0  0  0  0  0
  -43.8347   59.8440   65.0325 C   0  0  0  0  0  0  0  0  0  0  0  0
  -44.7480   58.9865   64.5460 C   0  0  0  0  0  0  0  0  0  0  0  0
  -45.6791   58.2439   65.5026 C   0  0  0  0  0  0  0  0  0  0  0  0
  -46.1506   59.0906   66.6938 C   0  0  0  0  0  0  0  0  0  0  0  0
  -47.2642   60.1092   66.3882 C   0  0  0  0  0  0  0  0  0  0  0  0
  -48.3081   59.5068   65.4172 C   0  0  0  0  0  0  0  0  0  0  0  0
  -48.9061   60.5003   64.3891 C   0  0  0  0  0  0  0  0  0  0  0  0
  -50.4440   60.4148   64.2462 C   0  0  0  0  0  0  0  0  0  0  0  0
  -50.9133   60.0720   62.8158 C   0  0  0  0  0  0  0  0  0  0  0  0
  -51.0607   58.5675   62.5578 C   0  0  0  0  0  0  0  0  0  0  0  0
  -49.8820   57.8865   61.8657 C   0  0  0  0  0  0  0  0  0  0  0  0
  -50.1612   57.4856   60.4037 C   0  0  0  0  0  0  0  0  0  0  0  0
  -49.8322   58.5598   59.3559 C   0  0  0  0  0  0  0  0  0  0  0  0
  -48.3970   58.4075   58.8442 C   0  0  0  0  0  0  0  0  0  0  0  0
  -47.9234   56.9905   58.5734 C   0  0  0  0  0  0  0  0  0  0  0  0
  -40.3476   60.6560   64.8295 C   0  0  0  0  0  0  0  0  0  0  0  0
  -39.4336   61.3871   63.9731 O   0  0  0  0  0  0  0  0  0  0  0  0
  -37.3334   61.8630   62.0917 O   0  0  0  0  0  0  0  0  0  0  0  0
  -35.8577   64.2913   65.1455 O   0  0  0  0  0  0  0  0  0  0  0  0
  -37.7905   62.0169   65.6430 O   0  0  0  0  0  0  0  0  0  0  0  0
  -37.9996   61.5023   64.3055 C   0  0  0  0  0  0  0  0  0  0  0  0
  -37.1586   62.3853   63.3726 C   0  0  0  0  0  0  0  0  0  0  0  0
  -35.6493   62.3724   63.7001 C   0  0  0  0  0  0  0  0  0  0  0  0
  -35.5180   62.9077   65.0992 C   0  0  0  0  0  0  0  0  0  0  0  0
  -36.3956   62.1038   66.0413 C   0  0  0  0  0  0  0  0  0  0  0  0
  -38.2772   61.8633   61.8685 H   0  0  0  0  0  0  0  0  0  0  0  0
  -35.2859   64.7852   64.5372 H   0  0  0  0  0  0  0  0  0  0  0  0
  -34.7747   63.1351   67.4633 O   0  0  0  0  0  0  0  0  0  0  0  0
  -36.1276   62.8029   67.3722 C   0  0  0  0  0  0  0  0  0  0  0  0
  -34.6070   63.5790   68.3094 H   0  0  0  0  0  0  0  0  0  0  0  0
  -34.8128   63.2092   62.8695 O   0  0  0  0  0  0  0  0  0  0  0  0
  -35.7467   63.8509   60.5386 O   0  0  0  0  0  0  0  0  0  0  0  0
  -34.3311   65.4182   61.7340 O   0  0  0  0  0  0  0  0  0  0  0  0
  -36.6294   65.0793   62.4249 O   0  0  0  0  0  0  0  0  0  0  0  0
  -35.4138   64.4082   61.8831 S   0  0  0  0  0  0  0  0  0  0  0  0
  -34.9659   63.4094   60.1693 H   0  0  0  0  0  0  0  0  0  0  0  0
  -37.3409   64.4276   62.5254 H   0  0  0  0  0  0  0  0  0  0  0  0
  2  1  1  0  0  0
  2  4  1  0  0  0
  2  5  1  0  0  0
 41 42  1  0  0  0
 41  1  1  0  0  0
 42 46  1  0  0  0
  1 24  1  0  0  0
 23 24  1  0  0  0
 23 25  1  0  0  0
 24 26  1  0  0  0
  3  4  2  0  0  0
 26 27  2  0  0  0
 27 28  1  0  0  0
 43 47  1  0  0  0
 43 51  1  0  0  0
 28 29  1  0  0  0
 56 48  1  0  0  0
 56 60  1  0  0  0
 29 30  1  0  0  0
 57 60  1  0  0  0
 57 61  1  0  0  0
 30 31  1  0  0  0
 44 49  1  0  0  0
 44 52  1  0  0  0
 31 32  1  0  0  0
 45 46  1  0  0  0
 45 50  1  0  0  0
 32 33  1  0  0  0
 53 54  1  0  0  0
 53 55  1  0  0  0
 33 34  1  0  0  0
 34 35  1  0  0  0
 35 36  1  0  0  0
 58 60  1  0  0  0
 36 37  1  0  0  0
 59 60  1  0  0  0
 59 62  1  0  0  0
 37 38  1  0  0  0
 38 39  1  0  0  0
 39 40  1  0  0  0
  4  6  1  0  0  0
  6  7  1  0  0  0
  7  8  1  0  0  0
  8  9  1  0  0  0
  9 10  1  0  0  0
 10 11  1  0  0  0
 11 12  1  0  0  0
 12 13  1  0  0  0
 13 14  1  0  0  0
 14 15  1  0  0  0
 15 16  1  0  0  0
 16 17  1  0  0  0
 17 18  1  0  0  0
 18 19  1  0  0  0
 19 20  1  0  0  0
 20 21  1  0  0  0
 21 22  1  0  0  0
 46 47  1  0  0  0
 47 48  1  0  0  0
 48 49  1  0  0  0
 49 50  1  0  0  0
 50 54  1  0  0  0
M  CHG 1  58  -1
M  END
> <minimizedAffinity>
-9.27898

> <CNNscore>
0.2325722128

> <CNNaffinity>
6.9694032669

> <CNN_VS>
1.6208895445

> <CNNaffinity_variance>
1.3412225246

$$$$
/media/chris/experiments/cd1a-new-docking/inputs/ligands/1onq_ligand.pdb


 62 62  0  0  0  0  0  0  0  0999 V2000
  -40.9562   61.2709   62.8163 C   0  0  0  0  0  0  0  0  0  0  0  0
  -41.9057   60.4330   63.5217 N   0  0  0  0  0  0  0  0  0  0  0  0
  -41.9191   61.3673   65.5891 O   0  0  0  0  0  0  0  0  0  0  0  0
  -42.3055   60.5300   64.7969 C   0  0  0  0  0  0  0  0  0  0  0  0
  -42.3068   59.7016   62.9987 H   0  0  0  0  0  0  0  0  0  0  0  0
  -43.3145   59.5076   65.2284 C   0  0  0  0  0  0  0  0  0  0  0  0
  -44.6703   60.2141   65.2385 C   0  0  0  0  0  0  0  0  0  0  0  0
  -45.5346   59.6678   66.3723 C   0  0  0  0  0  0  0  0  0  0  0  0
  -46.0598   58.2645   66.1892 C   0  0  0  0  0  0  0  0  0  0  0  0
  -47.3636   58.3593   65.4036 C   0  0  0  0  0  0  0  0  0  0  0  0
  -47.9589   59.7737   65.4112 C   0  0  0  0  0  0  0  0  0  0  0  0
  -49.2421   59.9152   66.2503 C   0  0  0  0  0  0  0  0  0  0  0  0
  -50.5001   59.4038   65.5144 C   0  0  0  0  0  0  0  0  0  0  0  0
  -50.8866   60.3568   64.3798 C   0  0  0  0  0  0  0  0  0  0  0  0
  -51.4626   59.6834   63.1400 C   0  0  0  0  0  0  0  0  0  0  0  0
  -50.5523   58.5895   62.6016 C   0  0  0  0  0  0  0  0  0  0  0  0
  -51.1039   57.7735   61.4303 C   0  0  0  0  0  0  0  0  0  0  0  0
  -50.0863   57.8183   60.2983 C   0  0  0  0  0  0  0  0  0  0  0  0
  -49.1056   56.6641   60.1531 C   0  0  0  0  0  0  0  0  0  0  0  0
  -47.8130   57.1245   59.4609 C   0  0  0  0  0  0  0  0  0  0  0  0
  -48.0038   58.2682   58.4476 C   0  0  0  0  0  0  0  0  0  0  0  0
  -47.0344   58.1996   57.2698 C   0  0  0  0  0  0  0  0  0  0  0  0
  -42.6258   61.7926   61.2878 O   0  0  0  0  0  0  0  0  0  0  0  0
  -41.3869   61.1125   61.3682 C   0  0  0  0  0  0  0  0  0  0  0  0
  -42.4948   62.7294   61.5022 H   0  0  0  0  0  0  0  0  0  0  0  0
  -41.5239   59.6238   61.0401 C   0  0  0  0  0  0  0  0  0  0  0  0
  -40.7537   59.0008   60.1320 C   0  0  0  0  0  0  0  0  0  0  0  0
  -40.9530   57.5108   59.8601 C   0  0  0  0  0  0  0  0  0  0  0  0
  -40.4880   56.6019   61.0072 C   0  0  0  0  0  0  0  0  0  0  0  0
  -41.5342   56.3225   62.1020 C   0  0  0  0  0  0  0  0  0  0  0  0
  -41.0256   56.8020   63.4829 C   0  0  0  0  0  0  0  0  0  0  0  0
  -39.6527   57.5207   63.4693 C   0  0  0  0  0  0  0  0  0  0  0  0
  -39.2350   58.1144   64.8354 C   0  0  0  0  0  0  0  0  0  0  0  0
  -37.7113   58.3181   64.9802 C   0  0  0  0  0  0  0  0  0  0  0  0
  -36.8978   57.7464   63.8128 C   0  0  0  0  0  0  0  0  0  0  0  0
  -35.6359   58.5180   63.4326 C   0  0  0  0  0  0  0  0  0  0  0  0
  -34.8367   59.0449   64.6407 C   0  0  0  0  0  0  0  0  0  0  0  0
  -33.3822   58.5579   64.7264 C   0  0  0  0  0  0  0  0  0  0  0  0
  -32.7614   58.4322   63.3322 C   0  0  0  0  0  0  0  0  0  0  0  0
  -31.8072   59.5375   62.9158 C   0  0  0  0  0  0  0  0  0  0  0  0
  -39.4677   61.0064   63.1376 C   0  0  0  0  0  0  0  0  0  0  0  0
  -38.8856   61.7937   64.2074 O   0  0  0  0  0  0  0  0  0  0  0  0
  -36.9544   62.2039   62.1388 O   0  0  0  0  0  0  0  0  0  0  0  0
  -35.1121   64.5599   65.0466 O   0  0  0  0  0  0  0  0  0  0  0  0
  -37.0717   62.3541   65.7177 O   0  0  0  0  0  0  0  0  0  0  0  0
  -37.4236   61.8550   64.4044 C   0  0  0  0  0  0  0  0  0  0  0  0
  -36.6417   62.7123   63.3989 C   0  0  0  0  0  0  0  0  0  0  0  0
  -35.1099   62.6429   63.5836 C   0  0  0  0  0  0  0  0  0  0  0  0
  -34.8289   63.1651   64.9655 C   0  0  0  0  0  0  0  0  0  0  0  0
  -35.6435   62.3882   65.9839 C   0  0  0  0  0  0  0  0  0  0  0  0
  -37.9144   62.2397   62.0049 H   0  0  0  0  0  0  0  0  0  0  0  0
  -34.5819   65.0363   64.3885 H   0  0  0  0  0  0  0  0  0  0  0  0
  -36.1954   64.0040   67.6565 O   0  0  0  0  0  0  0  0  0  0  0  0
  -35.2269   63.0695   67.2854 C   0  0  0  0  0  0  0  0  0  0  0  0
  -35.9285   64.4353   68.4835 H   0  0  0  0  0  0  0  0  0  0  0  0
  -34.3247   63.4537   62.6803 O   0  0  0  0  0  0  0  0  0  0  0  0
  -35.5177   63.9744   60.4392 O   0  0  0  0  0  0  0  0  0  0  0  0
  -33.8821   65.5380   61.3163 O   0  0  0  0  0  0  0  0  0  0  0  0
  -36.0863   65.3920   62.3136 O   0  0  0  0  0  0  0  0  0  0  0  0
  -34.9864   64.6096   61.6814 S   0  0  0  0  0  0  0  0  0  0  0  0
  -34.8144   63.4598   60.0130 H   0  0  0  0  0  0  0  0  0  0  0  0
  -36.8110   64.7941   62.5550 H   0  0  0  0  0  0  0  0  0  0  0  0
  2  1  1  0  0  0
  2  4  1  0  0  0
  2  5  1  0  0  0
 41 42  1  0  0  0
 41  1  1  0  0  0
 42 46  1  0  0  0
  1 24  1  0  0  0
 23 24  1  0  0  0
 23 25  1  0  0  0
 24 26  1  0  0  0
  3  4  2  0  0  0
 26 27  2  0  0  0
 27 28  1  0  0  0
 43 47  1  0  0  0
 43 51  1  0  0  0
 28 29  1  0  0  0
 56 48  1  0  0  0
 56 60  1  0  0  0
 29 30  1  0  0  0
 57 60  1  0  0  0
 57 61  1  0  0  0
 30 31  1  0  0  0
 44 49  1  0  0  0
 44 52  1  0  0  0
 31 32  1  0  0  0
 45 46  1  0  0  0
 45 50  1  0  0  0
 32 33  1  0  0  0
 53 54  1  0  0  0
 53 55  1  0  0  0
 33 34  1  0  0  0
 34 35  1  0  0  0
 35 36  1  0  0  0
 58 60  1  0  0  0
 36 37  1  0  0  0
 59 60  1  0  0  0
 59 62  1  0  0  0
 37 38  1  0  0  0
 38 39  1  0  0  0
 39 40  1  0  0  0
  4  6  1  0  0  0
  6  7  1  0  0  0
  7  8  1  0  0  0
  8  9  1  0  0  0
  9 10  1  0  0  0
 10 11  1  0  0  0
 11 12  1  0  0  0
 12 13  1  0  0  0
 13 14  1  0  0  0
 14 15  1  0  0  0
 15 16  1  0  0  0
 16 17  1  0  0  0
 17 18  1  0  0  0
 18 19  1  0  0  0
 19 20  1  0  0  0
 20 21  1  0  0  0
 21 22  1  0  0  0
 46 47  1  0  0  0
 47 48  1  0  0  0
 48 49  1  0  0  0
 49 50  1  0  0  0
 50 54  1  0  0  0
M  CHG 1  58  -1
M  END
> <minimizedAffinity>
-9.45705

> <CNNscore>
0.1624730676

> <CNNaffinity>
7.2069768906

> <CNN_VS>
1.1709396839

> <CNNaffinity_variance>
1.0368766785

$$$$
/media/chris/experiments/cd1a-new-docking/inputs/ligands/1onq_ligand.pdb


 62 62  0  0  0  0  0  0  0  0999 V2000
  -40.4701   61.1849   64.7702 C   0  0  0  0  0  0  0  0  0  0  0  0
  -41.8160   60.7514   65.0893 N   0  0  0  0  0  0  0  0  0  0  0  0
  -42.2843   61.9792   66.9388 O   0  0  0  0  0  0  0  0  0  0  0  0
  -42.5964   61.1556   66.1009 C   0  0  0  0  0  0  0  0  0  0  0  0
  -42.2053   60.0760   64.4880 H   0  0  0  0  0  0  0  0  0  0  0  0
  -43.9529   60.5178   66.1540 C   0  0  0  0  0  0  0  0  0  0  0  0
  -44.5795   60.7164   64.7738 C   0  0  0  0  0  0  0  0  0  0  0  0
  -46.0191   60.2078   64.7766 C   0  0  0  0  0  0  0  0  0  0  0  0
  -46.5547   59.7395   66.1078 C   0  0  0  0  0  0  0  0  0  0  0  0
  -47.7797   58.8735   65.8328 C   0  0  0  0  0  0  0  0  0  0  0  0
  -48.3878   59.1294   64.4473 C   0  0  0  0  0  0  0  0  0  0  0  0
  -49.2860   60.3777   64.3718 C   0  0  0  0  0  0  0  0  0  0  0  0
  -50.7799   60.0571   64.5978 C   0  0  0  0  0  0  0  0  0  0  0  0
  -51.5446   60.0841   63.2714 C   0  0  0  0  0  0  0  0  0  0  0  0
  -50.7887   59.5096   62.0793 C   0  0  0  0  0  0  0  0  0  0  0  0
  -51.0646   58.0265   61.8812 C   0  0  0  0  0  0  0  0  0  0  0  0
  -50.2605   57.3359   60.7772 C   0  0  0  0  0  0  0  0  0  0  0  0
  -48.8567   57.9259   60.7712 C   0  0  0  0  0  0  0  0  0  0  0  0
  -47.8933   57.5047   59.6715 C   0  0  0  0  0  0  0  0  0  0  0  0
  -48.0003   58.4418   58.4581 C   0  0  0  0  0  0  0  0  0  0  0  0
  -47.2007   57.9833   57.2246 C   0  0  0  0  0  0  0  0  0  0  0  0
  -47.1000   56.4649   57.1002 C   0  0  0  0  0  0  0  0  0  0  0  0
  -41.7160   61.2469   62.8107 O   0  0  0  0  0  0  0  0  0  0  0  0
  -40.4034   60.9776   63.2669 C   0  0  0  0  0  0  0  0  0  0  0  0
  -41.9476   62.1661   63.0164 H   0  0  0  0  0  0  0  0  0  0  0  0
  -39.9744   59.5382   62.9722 C   0  0  0  0  0  0  0  0  0  0  0  0
  -38.6936   59.1334   63.0134 C   0  0  0  0  0  0  0  0  0  0  0  0
  -38.3459   57.6781   62.7053 C   0  0  0  0  0  0  0  0  0  0  0  0
  -38.0916   57.4016   61.2163 C   0  0  0  0  0  0  0  0  0  0  0  0
  -37.5389   58.5867   60.4032 C   0  0  0  0  0  0  0  0  0  0  0  0
  -38.5121   58.9721   59.2632 C   0  0  0  0  0  0  0  0  0  0  0  0
  -39.6944   57.9946   59.0436 C   0  0  0  0  0  0  0  0  0  0  0  0
  -41.0710   58.5605   59.4651 C   0  0  0  0  0  0  0  0  0  0  0  0
  -41.7435   57.7642   60.6042 C   0  0  0  0  0  0  0  0  0  0  0  0
  -41.2460   56.3188   60.7249 C   0  0  0  0  0  0  0  0  0  0  0  0
  -41.3787   55.6762   62.1040 C   0  0  0  0  0  0  0  0  0  0  0  0
  -42.1101   56.5562   63.1367 C   0  0  0  0  0  0  0  0  0  0  0  0
  -41.4382   56.6433   64.5156 C   0  0  0  0  0  0  0  0  0  0  0  0
  -42.4146   57.1710   65.5706 C   0  0  0  0  0  0  0  0  0  0  0  0
  -43.8897   57.1110   65.2156 C   0  0  0  0  0  0  0  0  0  0  0  0
  -39.3463   60.5447   65.6165 C   0  0  0  0  0  0  0  0  0  0  0  0
  -38.3243   61.4413   66.1213 O   0  0  0  0  0  0  0  0  0  0  0  0
  -36.3570   63.4107   66.7758 O   0  0  0  0  0  0  0  0  0  0  0  0
  -33.7150   60.4102   65.5857 O   0  0  0  0  0  0  0  0  0  0  0  0
  -36.6033   60.5074   64.6891 O   0  0  0  0  0  0  0  0  0  0  0  0
  -37.0860   61.6972   65.3589 C   0  0  0  0  0  0  0  0  0  0  0  0
  -35.8984   62.2452   66.1632 C   0  0  0  0  0  0  0  0  0  0  0  0
  -34.6732   62.6038   65.2939 C   0  0  0  0  0  0  0  0  0  0  0  0
  -34.2413   61.3262   64.6287 C   0  0  0  0  0  0  0  0  0  0  0  0
  -35.4127   60.7142   63.8820 C   0  0  0  0  0  0  0  0  0  0  0  0
  -37.1280   63.2044   67.3270 H   0  0  0  0  0  0  0  0  0  0  0  0
  -32.9690   60.8210   66.0503 H   0  0  0  0  0  0  0  0  0  0  0  0
  -33.6078   59.7901   62.6166 O   0  0  0  0  0  0  0  0  0  0  0  0
  -34.7751   59.4528   63.3040 C   0  0  0  0  0  0  0  0  0  0  0  0
  -33.2047   58.9873   62.2505 H   0  0  0  0  0  0  0  0  0  0  0  0
  -33.5151   63.0988   66.0035 O   0  0  0  0  0  0  0  0  0  0  0  0
  -34.0784   65.2289   67.3682 O   0  0  0  0  0  0  0  0  0  0  0  0
  -33.5950   65.4188   64.9976 O   0  0  0  0  0  0  0  0  0  0  0  0
  -31.8012   65.0288   66.5803 O   0  0  0  0  0  0  0  0  0  0  0  0
  -33.2226   64.7181   66.2566 S   0  0  0  0  0  0  0  0  0  0  0  0
  -35.0090   65.0354   67.1748 H   0  0  0  0  0  0  0  0  0  0  0  0
  -31.5498   64.5757   67.4003 H   0  0  0  0  0  0  0  0  0  0  0  0
  2  1  1  0  0  0
  2  4  1  0  0  0
  2  5  1  0  0  0
 41 42  1  0  0  0
 41  1  1  0  0  0
 42 46  1  0  0  0
  1 24  1  0  0  0
 23 24  1  0  0  0
 23 25  1  0  0  0
 24 26  1  0  0  0
  3  4  2  0  0  0
 26 27  2  0  0  0
 27 28  1  0  0  0
 43 47  1  0  0  0
 43 51  1  0  0  0
 28 29  1  0  0  0
 56 48  1  0  0  0
 56 60  1  0  0  0
 29 30  1  0  0  0
 57 60  1  0  0  0
 57 61  1  0  0  0
 30 31  1  0  0  0
 44 49  1  0  0  0
 44 52  1  0  0  0
 31 32  1  0  0  0
 45 46  1  0  0  0
 45 50  1  0  0  0
 32 33  1  0  0  0
 53 54  1  0  0  0
 53 55  1  0  0  0
 33 34  1  0  0  0
 34 35  1  0  0  0
 35 36  1  0  0  0
 58 60  1  0  0  0
 36 37  1  0  0  0
 59 60  1  0  0  0
 59 62  1  0  0  0
 37 38  1  0  0  0
 38 39  1  0  0  0
 39 40  1  0  0  0
  4  6  1  0  0  0
  6  7  1  0  0  0
  7  8  1  0  0  0
  8  9  1  0  0  0
  9 10  1  0  0  0
 10 11  1  0  0  0
 11 12  1  0  0  0
 12 13  1  0  0  0
 13 14  1  0  0  0
 14 15  1  0  0  0
 15 16  1  0  0  0
 16 17  1  0  0  0
 17 18  1  0  0  0
 18 19  1  0  0  0
 19 20  1  0  0  0
 20 21  1  0  0  0
 21 22  1  0  0  0
 46 47  1  0  0  0
 47 48  1  0  0  0
 48 49  1  0  0  0
 49 50  1  0  0  0
 50 54  1  0  0  0
M  CHG 1  58  -1
M  END
> <minimizedAffinity>
-9.20444

> <CNNscore>
0.1582807750

> <CNNaffinity>
7.0931730270

> <CNN_VS>
1.1227129698

> <CNNaffinity_variance>
1.1451703310

$$$$
/media/chris/experiments/cd1a-new-docking/inputs/ligands/1onq_ligand.pdb


 62 62  0  0  0  0  0  0  0  0999 V2000
  -40.5093   59.8977   63.9133 C   0  0  0  0  0  0  0  0  0  0  0  0
  -41.8647   60.3463   64.1638 N   0  0  0  0  0  0  0  0  0  0  0  0
  -42.4546   61.2197   62.1547 O   0  0  0  0  0  0  0  0  0  0  0  0
  -42.7069   60.9474   63.3123 C   0  0  0  0  0  0  0  0  0  0  0  0
  -42.2095   60.1898   65.0726 H   0  0  0  0  0  0  0  0  0  0  0  0
  -44.0549   61.2822   63.8784 C   0  0  0  0  0  0  0  0  0  0  0  0
  -44.3562   60.2211   64.9369 C   0  0  0  0  0  0  0  0  0  0  0  0
  -45.2324   59.1227   64.3396 C   0  0  0  0  0  0  0  0  0  0  0  0
  -46.6970   59.1722   64.7013 C   0  0  0  0  0  0  0  0  0  0  0  0
  -47.2458   60.5109   64.2190 C   0  0  0  0  0  0  0  0  0  0  0  0
  -48.5397   60.9152   64.9383 C   0  0  0  0  0  0  0  0  0  0  0  0
  -49.0970   59.8399   65.8889 C   0  0  0  0  0  0  0  0  0  0  0  0
  -50.5792   59.5044   65.6129 C   0  0  0  0  0  0  0  0  0  0  0  0
  -51.1358   60.3946   64.4982 C   0  0  0  0  0  0  0  0  0  0  0  0
  -51.5369   59.6592   63.2251 C   0  0  0  0  0  0  0  0  0  0  0  0
  -50.6297   58.4730   62.9336 C   0  0  0  0  0  0  0  0  0  0  0  0
  -49.5063   58.7196   61.9239 C   0  0  0  0  0  0  0  0  0  0  0  0
  -49.9783   58.2352   60.5595 C   0  0  0  0  0  0  0  0  0  0  0  0
  -49.1853   58.6427   59.3266 C   0  0  0  0  0  0  0  0  0  0  0  0
  -48.3292   57.4744   58.8125 C   0  0  0  0  0  0  0  0  0  0  0  0
  -48.0312   57.5172   57.3023 C   0  0  0  0  0  0  0  0  0  0  0  0
  -46.7403   58.2583   56.9622 C   0  0  0  0  0  0  0  0  0  0  0  0
  -39.3597   58.3030   65.1508 O   0  0  0  0  0  0  0  0  0  0  0  0
  -40.5442   58.4561   64.3909 C   0  0  0  0  0  0  0  0  0  0  0  0
  -39.3794   58.9112   65.9062 H   0  0  0  0  0  0  0  0  0  0  0  0
  -40.5769   57.5215   63.1794 C   0  0  0  0  0  0  0  0  0  0  0  0
  -41.5530   57.5541   62.2561 C   0  0  0  0  0  0  0  0  0  0  0  0
  -41.5147   56.5863   61.0748 C   0  0  0  0  0  0  0  0  0  0  0  0
  -40.7761   57.1349   59.8453 C   0  0  0  0  0  0  0  0  0  0  0  0
  -41.0162   58.6235   59.5329 C   0  0  0  0  0  0  0  0  0  0  0  0
  -39.6764   59.3964   59.4787 C   0  0  0  0  0  0  0  0  0  0  0  0
  -38.4140   58.5553   59.7959 C   0  0  0  0  0  0  0  0  0  0  0  0
  -37.7215   58.9299   61.1274 C   0  0  0  0  0  0  0  0  0  0  0  0
  -37.4503   57.7180   62.0448 C   0  0  0  0  0  0  0  0  0  0  0  0
  -36.0436   57.7078   62.6553 C   0  0  0  0  0  0  0  0  0  0  0  0
  -35.9511   58.0774   64.1342 C   0  0  0  0  0  0  0  0  0  0  0  0
  -34.5670   58.6035   64.5624 C   0  0  0  0  0  0  0  0  0  0  0  0
  -33.7924   59.3673   63.4776 C   0  0  0  0  0  0  0  0  0  0  0  0
  -32.3182   58.9533   63.4601 C   0  0  0  0  0  0  0  0  0  0  0  0
  -31.3745   59.8493   62.6775 C   0  0  0  0  0  0  0  0  0  0  0  0
  -39.3929   60.7993   64.4876 C   0  0  0  0  0  0  0  0  0  0  0  0
  -38.2173   60.9830   63.6584 O   0  0  0  0  0  0  0  0  0  0  0  0
  -36.3975   61.6416   65.7636 O   0  0  0  0  0  0  0  0  0  0  0  0
  -34.0908   63.0953   62.6068 O   0  0  0  0  0  0  0  0  0  0  0  0
  -37.0902   62.7408   62.4234 O   0  0  0  0  0  0  0  0  0  0  0  0
  -37.4117   62.2180   63.7352 C   0  0  0  0  0  0  0  0  0  0  0  0
  -36.0787   62.1094   64.4893 C   0  0  0  0  0  0  0  0  0  0  0  0
  -35.3387   63.4568   64.6383 C   0  0  0  0  0  0  0  0  0  0  0  0
  -35.0515   63.9354   63.2420 C   0  0  0  0  0  0  0  0  0  0  0  0
  -36.3398   63.9851   62.4407 C   0  0  0  0  0  0  0  0  0  0  0  0
  -36.8638   60.7943   65.6896 H   0  0  0  0  0  0  0  0  0  0  0  0
  -33.2771   63.0780   63.1346 H   0  0  0  0  0  0  0  0  0  0  0  0
  -34.9568   65.5445   61.2709 O   0  0  0  0  0  0  0  0  0  0  0  0
  -35.8326   64.4733   61.0856 C   0  0  0  0  0  0  0  0  0  0  0  0
  -34.6360   65.8528   60.4088 H   0  0  0  0  0  0  0  0  0  0  0  0
  -34.0630   63.4083   65.3168 O   0  0  0  0  0  0  0  0  0  0  0  0
  -35.0511   64.7023   67.3332 O   0  0  0  0  0  0  0  0  0  0  0  0
  -32.8329   65.2611   66.5229 O   0  0  0  0  0  0  0  0  0  0  0  0
  -33.1877   63.2361   67.8066 O   0  0  0  0  0  0  0  0  0  0  0  0
  -33.7805   64.1436   66.7835 S   0  0  0  0  0  0  0  0  0  0  0  0
  -35.4522   65.2967   66.6799 H   0  0  0  0  0  0  0  0  0  0  0  0
  -33.7994   62.5041   67.9827 H   0  0  0  0  0  0  0  0  0  0  0  0
  2  1  1  0  0  0
  2  4  1  0  0  0
  2  5  1  0  0  0
 41 42  1  0  0  0
 41  1  1  0  0  0
 42 46  1  0  0  0
  1 24  1  0  0  0
 23 24  1  0  0  0
 23 25  1  0  0  0
 24 26  1  0  0  0
  3  4  2  0  0  0
 26 27  2  0  0  0
 27 28  1  0  0  0
 43 47  1  0  0  0
 43 51  1  0  0  0
 28 29  1  0  0  0
 56 48  1  0  0  0
 56 60  1  0  0  0
 29 30  1  0  0  0
 57 60  1  0  0  0
 57 61  1  0  0  0
 30 31  1  0  0  0
 44 49  1  0  0  0
 44 52  1  0  0  0
 31 32  1  0  0  0
 45 46  1  0  0  0
 45 50  1  0  0  0
 32 33  1  0  0  0
 53 54  1  0  0  0
 53 55  1  0  0  0
 33 34  1  0  0  0
 34 35  1  0  0  0
 35 36  1  0  0  0
 58 60  1  0  0  0
 36 37  1  0  0  0
 59 60  1  0  0  0
 59 62  1  0  0  0
 37 38  1  0  0  0
 38 39  1  0  0  0
 39 40  1  0  0  0
  4  6  1  0  0  0
  6  7  1  0  0  0
  7  8  1  0  0  0
  8  9  1  0  0  0
  9 10  1  0  0  0
 10 11  1  0  0  0
 11 12  1  0  0  0
 12 13  1  0  0  0
 13 14  1  0  0  0
 14 15  1  0  0  0
 15 16  1  0  0  0
 16 17  1  0  0  0
 17 18  1  0  0  0
 18 19  1  0  0  0
 19 20  1  0  0  0
 20 21  1  0  0  0
 21 22  1  0  0  0
 46 47  1  0  0  0
 47 48  1  0  0  0
 48 49  1  0  0  0
 49 50  1  0  0  0
 50 54  1  0  0  0
M  CHG 1  58  -1
M  END
> <minimizedAffinity>
-9.55976

> <CNNscore>
0.1448994577

> <CNNaffinity>
6.8632974625

> <CNN_VS>
0.9944880605

> <CNNaffinity_variance>
1.2904510498

$$$$
