/media/chris/experiments/cd1a-new-docking/inputs/ligands/1onq_ligand.pdb


 62 62  0  0  0  0  0  0  0  0999 V2000
  -41.5608   60.0017   65.6684 C   0  0  0  0  0  0  0  0  0  0  0  0
  -41.7875   58.5703   65.7011 N   0  0  0  0  0  0  0  0  0  0  0  0
  -41.8522   56.4935   64.7901 O   0  0  0  0  0  0  0  0  0  0  0  0
  -41.6339   57.6864   64.7057 C   0  0  0  0  0  0  0  0  0  0  0  0
  -42.0922   58.2018   66.5617 H   0  0  0  0  0  0  0  0  0  0  0  0
  -41.1617   58.2660   63.4054 C   0  0  0  0  0  0  0  0  0  0  0  0
  -42.2714   58.0055   62.3865 C   0  0  0  0  0  0  0  0  0  0  0  0
  -41.6638   57.5951   61.0473 C   0  0  0  0  0  0  0  0  0  0  0  0
  -40.9487   58.6823   60.2823 C   0  0  0  0  0  0  0  0  0  0  0  0
  -39.7429   58.0473   59.5977 C   0  0  0  0  0  0  0  0  0  0  0  0
  -38.4152   58.4152   60.2738 C   0  0  0  0  0  0  0  0  0  0  0  0
  -38.1106   57.6086   61.5494 C   0  0  0  0  0  0  0  0  0  0  0  0
  -36.8130   58.0643   62.2522 C   0  0  0  0  0  0  0  0  0  0  0  0
  -36.9251   57.8762   63.7678 C   0  0  0  0  0  0  0  0  0  0  0  0
  -35.6133   57.5652   64.4781 C   0  0  0  0  0  0  0  0  0  0  0  0
  -34.7413   58.8006   64.6472 C   0  0  0  0  0  0  0  0  0  0  0  0
  -33.2389   58.5470   64.7911 C   0  0  0  0  0  0  0  0  0  0  0  0
  -32.6354   58.4602   63.3958 C   0  0  0  0  0  0  0  0  0  0  0  0
  -32.5279   59.7318   62.5673 C   0  0  0  0  0  0  0  0  0  0  0  0
  -31.0930   60.2823   62.5885 C   0  0  0  0  0  0  0  0  0  0  0  0
  -30.5685   60.7506   61.2187 C   0  0  0  0  0  0  0  0  0  0  0  0
  -30.7123   62.2548   60.9989 C   0  0  0  0  0  0  0  0  0  0  0  0
  -42.6781   61.9316   65.0180 O   0  0  0  0  0  0  0  0  0  0  0  0
  -42.8507   60.5273   65.0622 C   0  0  0  0  0  0  0  0  0  0  0  0
  -41.9232   62.1467   64.4483 H   0  0  0  0  0  0  0  0  0  0  0  0
  -44.0303   60.1188   65.9478 C   0  0  0  0  0  0  0  0  0  0  0  0
  -45.2882   60.0104   65.4872 C   0  0  0  0  0  0  0  0  0  0  0  0
  -46.4123   59.5978   66.4357 C   0  0  0  0  0  0  0  0  0  0  0  0
  -47.7129   59.2002   65.7226 C   0  0  0  0  0  0  0  0  0  0  0  0
  -48.9851   59.9209   66.2055 C   0  0  0  0  0  0  0  0  0  0  0  0
  -50.2444   59.3200   65.5361 C   0  0  0  0  0  0  0  0  0  0  0  0
  -51.1090   60.3236   64.7318 C   0  0  0  0  0  0  0  0  0  0  0  0
  -51.4455   59.8602   63.2950 C   0  0  0  0  0  0  0  0  0  0  0  0
  -50.7272   58.5573   62.8820 C   0  0  0  0  0  0  0  0  0  0  0  0
  -49.9945   58.6550   61.5386 C   0  0  0  0  0  0  0  0  0  0  0  0
  -50.5115   57.7474   60.4243 C   0  0  0  0  0  0  0  0  0  0  0  0
  -49.8631   58.0111   59.0509 C   0  0  0  0  0  0  0  0  0  0  0  0
  -48.4858   58.6897   59.0965 C   0  0  0  0  0  0  0  0  0  0  0  0
  -47.5883   58.1895   57.9610 C   0  0  0  0  0  0  0  0  0  0  0  0
  -48.2363   57.2653   56.9454 C   0  0  0  0  0  0  0  0  0  0  0  0
  -40.2400   60.4515   65.0036 C   0  0  0  0  0  0  0  0  0  0  0  0
  -39.0297   60.2775   65.7835 O   0  0  0  0  0  0  0  0  0  0  0  0
  -38.3262   60.9942   63.1060 O   0  0  0  0  0  0  0  0  0  0  0  0
  -36.6938   64.3401   64.9872 O   0  0  0  0  0  0  0  0  0  0  0  0
  -37.1925   61.7256   66.4262 O   0  0  0  0  0  0  0  0  0  0  0  0
  -37.7582   60.9066   65.3742 C   0  0  0  0  0  0  0  0  0  0  0  0
  -37.8165   61.7976   64.1251 C   0  0  0  0  0  0  0  0  0  0  0  0
  -36.4375   62.3308   63.6786 C   0  0  0  0  0  0  0  0  0  0  0  0
  -35.9159   63.1571   64.8217 C   0  0  0  0  0  0  0  0  0  0  0  0
  -35.9132   62.3295   66.0943 C   0  0  0  0  0  0  0  0  0  0  0  0
  -39.1940   60.6496   63.3694 H   0  0  0  0  0  0  0  0  0  0  0  0
  -36.6818   64.8527   64.1637 H   0  0  0  0  0  0  0  0  0  0  0  0
  -36.3969   63.7329   67.9679 O   0  0  0  0  0  0  0  0  0  0  0  0
  -35.3720   63.3366   67.1067 C   0  0  0  0  0  0  0  0  0  0  0  0
  -36.0506   64.3725   68.6097 H   0  0  0  0  0  0  0  0  0  0  0  0
  -36.4370   63.1988   62.5225 O   0  0  0  0  0  0  0  0  0  0  0  0
  -34.9111   65.2935   62.5012 O   0  0  0  0  0  0  0  0  0  0  0  0
  -35.2454   64.0350   60.4533 O   0  0  0  0  0  0  0  0  0  0  0  0
  -33.8121   63.1608   62.2014 O   0  0  0  0  0  0  0  0  0  0  0  0
  -35.0623   63.9242   61.9260 S   0  0  0  0  0  0  0  0  0  0  0  0
  -35.7167   65.8064   62.3313 H   0  0  0  0  0  0  0  0  0  0  0  0
  -33.6850   63.0837   63.1599 H   0  0  0  0  0  0  0  0  0  0  0  0
  2  1  1  0  0  0
  2  4  1  0  0  0
  2  5  1  0  0  0
 41 42  1  0  0  0
 41  1  1  0  0  0
 42 46  1  0  0  0
  1 24  1  0  0  0
 23 24  1  0  0  0
 23 25  1  0  0  0
 24 26  1  0  0  0
  3  4  2  0  0  0
 26 27  2  0  0  0
 27 28  1  0  0  0
 43 47  1  0  0  0
 43 51  1  0  0  0
 28 29  1  0  0  0
 56 48  1  0  0  0
 56 60  1  0  0  0
 29 30  1  0  0  0
 57 60  1  0  0  0
 57 61  1  0  0  0
 30 31  1  0  0  0
 44 49  1  0  0  0
 44 52  1  0  0  0
 31 32  1  0  0  0
 45 46  1  0  0  0
 45 50  1  0  0  0
 32 33  1  0  0  0
 53 54  1  0  0  0
 53 55  1  0  0  0
 33 34  1  0  0  0
 34 35  1  0  0  0
 35 36  1  0  0  0
 58 60  1  0  0  0
 36 37  1  0  0  0
 59 60  1  0  0  0
 59 62  1  0  0  0
 37 38  1  0  0  0
 38 39  1  0  0  0
 39 40  1  0  0  0
  4  6  1  0  0  0
  6  7  1  0  0  0
  7  8  1  0  0  0
  8  9  1  0  0  0
  9 10  1  0  0  0
 10 11  1  0  0  0
 11 12  1  0  0  0
 12 13  1  0  0  0
 13 14  1  0  0  0
 14 15  1  0  0  0
 15 16  1  0  0  0
 16 17  1  0  0  0
 17 18  1  0  0  0
 18 19  1  0  0  0
 19 20  1  0  0  0
 20 21  1  0  0  0
 21 22  1  0  0  0
 46 47  1  0  0  0
 47 48  1  0  0  0
 48 49  1  0  0  0
 49 50  1  0  0  0
 50 54  1  0  0  0
M  CHG 1  58  -1
M  END
> <minimizedAffinity>
-9.82587

> <CNNscore>
0.2958569825

> <CNNaffinity>
6.8983178139

> <CNN_VS>
2.0409154892

> <CNNaffinity_variance>
1.8423414230

$$$$
/media/chris/experiments/cd1a-new-docking/inputs/ligands/1onq_ligand.pdb


 62 62  0  0  0  0  0  0  0  0999 V2000
  -40.8114   59.6951   64.1852 C   0  0  0  0  0  0  0  0  0  0  0  0
  -41.2210   60.3617   65.4055 N   0  0  0  0  0  0  0  0  0  0  0  0
  -42.7465   61.2311   66.8422 O   0  0  0  0  0  0  0  0  0  0  0  0
  -42.4644   60.6569   65.8085 C   0  0  0  0  0  0  0  0  0  0  0  0
  -40.4953   60.6310   66.0139 H   0  0  0  0  0  0  0  0  0  0  0  0
  -43.5561   60.2316   64.8721 C   0  0  0  0  0  0  0  0  0  0  0  0
  -44.8287   60.1207   65.7121 C   0  0  0  0  0  0  0  0  0  0  0  0
  -46.0502   60.4367   64.8523 C   0  0  0  0  0  0  0  0  0  0  0  0
  -46.9080   59.2582   64.4600 C   0  0  0  0  0  0  0  0  0  0  0  0
  -47.7131   58.8452   65.6875 C   0  0  0  0  0  0  0  0  0  0  0  0
  -48.6761   59.9419   66.1618 C   0  0  0  0  0  0  0  0  0  0  0  0
  -50.1161   59.7880   65.6389 C   0  0  0  0  0  0  0  0  0  0  0  0
  -50.3888   60.6315   64.3742 C   0  0  0  0  0  0  0  0  0  0  0  0
  -51.5241   60.0174   63.5500 C   0  0  0  0  0  0  0  0  0  0  0  0
  -51.1065   58.8844   62.6205 C   0  0  0  0  0  0  0  0  0  0  0  0
  -49.6866   59.0567   62.1017 C   0  0  0  0  0  0  0  0  0  0  0  0
  -49.2048   58.0028   61.1020 C   0  0  0  0  0  0  0  0  0  0  0  0
  -49.8379   58.3046   59.7505 C   0  0  0  0  0  0  0  0  0  0  0  0
  -49.1729   57.7589   58.4954 C   0  0  0  0  0  0  0  0  0  0  0  0
  -47.8523   58.4917   58.2100 C   0  0  0  0  0  0  0  0  0  0  0  0
  -46.8346   57.6776   57.3900 C   0  0  0  0  0  0  0  0  0  0  0  0
  -47.2399   56.2174   57.2025 C   0  0  0  0  0  0  0  0  0  0  0  0
  -39.0473   58.5983   65.2248 O   0  0  0  0  0  0  0  0  0  0  0  0
  -40.3332   58.3446   64.6903 C   0  0  0  0  0  0  0  0  0  0  0  0
  -39.1208   59.2283   65.9586 H   0  0  0  0  0  0  0  0  0  0  0  0
  -40.2880   57.3543   63.5242 C   0  0  0  0  0  0  0  0  0  0  0  0
  -41.3930   56.8485   62.9502 C   0  0  0  0  0  0  0  0  0  0  0  0
  -41.2640   55.8633   61.7900 C   0  0  0  0  0  0  0  0  0  0  0  0
  -41.0987   56.5354   60.4192 C   0  0  0  0  0  0  0  0  0  0  0  0
  -41.7248   57.9356   60.2834 C   0  0  0  0  0  0  0  0  0  0  0  0
  -40.6700   58.9657   59.8127 C   0  0  0  0  0  0  0  0  0  0  0  0
  -39.3870   58.3608   59.1885 C   0  0  0  0  0  0  0  0  0  0  0  0
  -38.0800   58.7663   59.9094 C   0  0  0  0  0  0  0  0  0  0  0  0
  -37.8617   58.0337   61.2510 C   0  0  0  0  0  0  0  0  0  0  0  0
  -36.8012   58.6864   62.1458 C   0  0  0  0  0  0  0  0  0  0  0  0
  -36.2130   57.8027   63.2438 C   0  0  0  0  0  0  0  0  0  0  0  0
  -34.8053   57.2617   62.9249 C   0  0  0  0  0  0  0  0  0  0  0  0
  -33.7379   58.3329   62.6549 C   0  0  0  0  0  0  0  0  0  0  0  0
  -32.8738   58.5735   63.8963 C   0  0  0  0  0  0  0  0  0  0  0  0
  -33.5448   59.2837   65.0585 C   0  0  0  0  0  0  0  0  0  0  0  0
  -39.8388   60.4913   63.2859 C   0  0  0  0  0  0  0  0  0  0  0  0
  -39.2539   61.6865   63.8626 O   0  0  0  0  0  0  0  0  0  0  0  0
  -37.2009   62.1794   61.9340 O   0  0  0  0  0  0  0  0  0  0  0  0
  -35.5928   64.4929   65.0097 O   0  0  0  0  0  0  0  0  0  0  0  0
  -37.5515   62.2394   65.5001 O   0  0  0  0  0  0  0  0  0  0  0  0
  -37.8090   61.7670   64.1555 C   0  0  0  0  0  0  0  0  0  0  0  0
  -36.9794   62.6616   63.2233 C   0  0  0  0  0  0  0  0  0  0  0  0
  -35.4617   62.6128   63.5053 C   0  0  0  0  0  0  0  0  0  0  0  0
  -35.2799   63.1054   64.9145 C   0  0  0  0  0  0  0  0  0  0  0  0
  -36.1443   62.2902   65.8592 C   0  0  0  0  0  0  0  0  0  0  0  0
  -38.1509   62.2026   61.7389 H   0  0  0  0  0  0  0  0  0  0  0  0
  -35.0299   64.9940   64.3989 H   0  0  0  0  0  0  0  0  0  0  0  0
  -34.4416   63.0656   67.3469 O   0  0  0  0  0  0  0  0  0  0  0  0
  -35.8249   62.9462   67.2007 C   0  0  0  0  0  0  0  0  0  0  0  0
  -34.2414   63.4824   68.1996 H   0  0  0  0  0  0  0  0  0  0  0  0
  -34.6345   63.4584   62.6742 O   0  0  0  0  0  0  0  0  0  0  0  0
  -32.8785   61.6133   62.1960 O   0  0  0  0  0  0  0  0  0  0  0  0
  -32.2131   63.6188   63.3897 O   0  0  0  0  0  0  0  0  0  0  0  0
  -32.6021   63.6957   60.9986 O   0  0  0  0  0  0  0  0  0  0  0  0
  -33.0580   63.0929   62.2833 S   0  0  0  0  0  0  0  0  0  0  0  0
  -33.1704   61.2027   63.0248 H   0  0  0  0  0  0  0  0  0  0  0  0
  -33.1481   63.3581   60.2714 H   0  0  0  0  0  0  0  0  0  0  0  0
  2  1  1  0  0  0
  2  4  1  0  0  0
  2  5  1  0  0  0
 41 42  1  0  0  0
 41  1  1  0  0  0
 42 46  1  0  0  0
  1 24  1  0  0  0
 23 24  1  0  0  0
 23 25  1  0  0  0
 24 26  1  0  0  0
  3  4  2  0  0  0
 26 27  2  0  0  0
 27 28  1  0  0  0
 43 47  1  0  0  0
 43 51  1  0  0  0
 28 29  1  0  0  0
 56 48  1  0  0  0
 56 60  1  0  0  0
 29 30  1  0  0  0
 57 60  1  0  0  0
 57 61  1  0  0  0
 30 31  1  0  0  0
 44 49  1  0  0  0
 44 52  1  0  0  0
 31 32  1  0  0  0
 45 46  1  0  0  0
 45 50  1  0  0  0
 32 33  1  0  0  0
 53 54  1  0  0  0
 53 55  1  0  0  0
 33 34  1  0  0  0
 34 35  1  0  0  0
 35 36  1  0  0  0
 58 60  1  0  0  0
 36 37  1  0  0  0
 59 60  1  0  0  0
 59 62  1  0  0  0
 37 38  1  0  0  0
 38 39  1  0  0  0
 39 40  1  0  0  0
  4  6  1  0  0  0
  6  7  1  0  0  0
  7  8  1  0  0  0
  8  9  1  0  0  0
  9 10  1  0  0  0
 10 11  1  0  0  0
 11 12  1  0  0  0
 12 13  1  0  0  0
 13 14  1  0  0  0
 14 15  1  0  0  0
 15 16  1  0  0  0
 16 17  1  0  0  0
 17 18  1  0  0  0
 18 19  1  0  0  0
 19 20  1  0  0  0
 20 21  1  0  0  0
 21 22  1  0  0  0
 46 47  1  0  0  0
 47 48  1  0  0  0
 48 49  1  0  0  0
 49 50  1  0  0  0
 50 54  1  0  0  0
M  CHG 1  58  -1
M  END
> <minimizedAffinity>
-9.77640

> <CNNscore>
0.2624686062

> <CNNaffinity>
7.1463804245

> <CNN_VS>
1.8757004738

> <CNNaffinity_variance>
1.5329229832

$$$$
/media/chris/experiments/cd1a-new-docking/inputs/ligands/1onq_ligand.pdb


 62 62  0  0  0  0  0  0  0  0999 V2000
  -41.6299   60.1086   64.7461 C   0  0  0  0  0  0  0  0  0  0  0  0
  -41.8816   58.7491   64.3107 N   0  0  0  0  0  0  0  0  0  0  0  0
  -42.7801   56.6755   64.5119 O   0  0  0  0  0  0  0  0  0  0  0  0
  -42.6143   57.8080   64.9216 C   0  0  0  0  0  0  0  0  0  0  0  0
  -41.4620   58.4842   63.4604 H   0  0  0  0  0  0  0  0  0  0  0  0
  -43.2515   58.2332   66.2111 C   0  0  0  0  0  0  0  0  0  0  0  0
  -44.7219   57.8238   66.1234 C   0  0  0  0  0  0  0  0  0  0  0  0
  -45.5960   59.0591   65.9209 C   0  0  0  0  0  0  0  0  0  0  0  0
  -46.4690   59.0594   64.6894 C   0  0  0  0  0  0  0  0  0  0  0  0
  -47.7966   58.4100   65.0655 C   0  0  0  0  0  0  0  0  0  0  0  0
  -48.8200   59.4199   65.6018 C   0  0  0  0  0  0  0  0  0  0  0  0
  -50.2791   59.1004   65.2280 C   0  0  0  0  0  0  0  0  0  0  0  0
  -51.0584   60.3403   64.7375 C   0  0  0  0  0  0  0  0  0  0  0  0
  -51.6014   60.1123   63.3239 C   0  0  0  0  0  0  0  0  0  0  0  0
  -51.0019   58.9209   62.5869 C   0  0  0  0  0  0  0  0  0  0  0  0
  -49.8663   59.3276   61.6594 C   0  0  0  0  0  0  0  0  0  0  0  0
  -48.9113   58.2087   61.2371 C   0  0  0  0  0  0  0  0  0  0  0  0
  -49.5918   57.3874   60.1504 C   0  0  0  0  0  0  0  0  0  0  0  0
  -49.4038   57.8009   58.6983 C   0  0  0  0  0  0  0  0  0  0  0  0
  -48.0253   58.4461   58.4843 C   0  0  0  0  0  0  0  0  0  0  0  0
  -47.2141   57.8480   57.3203 C   0  0  0  0  0  0  0  0  0  0  0  0
  -47.2760   56.3235   57.2615 C   0  0  0  0  0  0  0  0  0  0  0  0
  -43.5512   60.8961   63.7047 O   0  0  0  0  0  0  0  0  0  0  0  0
  -42.1419   60.9310   63.5760 C   0  0  0  0  0  0  0  0  0  0  0  0
  -43.8092   61.3051   64.5455 H   0  0  0  0  0  0  0  0  0  0  0  0
  -41.6666   60.2988   62.2657 C   0  0  0  0  0  0  0  0  0  0  0  0
  -41.4181   61.0147   61.1557 C   0  0  0  0  0  0  0  0  0  0  0  0
  -40.9470   60.3088   59.8855 C   0  0  0  0  0  0  0  0  0  0  0  0
  -41.1613   58.7883   59.9033 C   0  0  0  0  0  0  0  0  0  0  0  0
  -40.0087   57.9458   59.3265 C   0  0  0  0  0  0  0  0  0  0  0  0
  -38.7003   58.7705   59.2703 C   0  0  0  0  0  0  0  0  0  0  0  0
  -37.7482   58.5842   60.4788 C   0  0  0  0  0  0  0  0  0  0  0  0
  -38.2320   57.5387   61.5110 C   0  0  0  0  0  0  0  0  0  0  0  0
  -38.6827   58.1575   62.8520 C   0  0  0  0  0  0  0  0  0  0  0  0
  -37.8815   57.6610   64.0616 C   0  0  0  0  0  0  0  0  0  0  0  0
  -36.6691   58.5023   64.4549 C   0  0  0  0  0  0  0  0  0  0  0  0
  -35.3234   57.7628   64.3189 C   0  0  0  0  0  0  0  0  0  0  0  0
  -34.7357   57.7284   62.9001 C   0  0  0  0  0  0  0  0  0  0  0  0
  -33.3558   58.3915   62.8601 C   0  0  0  0  0  0  0  0  0  0  0  0
  -32.6620   58.5876   64.1964 C   0  0  0  0  0  0  0  0  0  0  0  0
  -40.1903   60.3973   65.2288 C   0  0  0  0  0  0  0  0  0  0  0  0
  -39.4506   61.4060   64.4949 O   0  0  0  0  0  0  0  0  0  0  0  0
  -37.6514   61.6707   62.2881 O   0  0  0  0  0  0  0  0  0  0  0  0
  -35.6883   64.2860   64.8776 O   0  0  0  0  0  0  0  0  0  0  0  0
  -37.5627   62.1158   65.8431 O   0  0  0  0  0  0  0  0  0  0  0  0
  -37.9811   61.5043   64.5986 C   0  0  0  0  0  0  0  0  0  0  0  0
  -37.2757   62.2863   63.4813 C   0  0  0  0  0  0  0  0  0  0  0  0
  -35.7346   62.2543   63.5793 C   0  0  0  0  0  0  0  0  0  0  0  0
  -35.3836   62.8935   64.8945 C   0  0  0  0  0  0  0  0  0  0  0  0
  -36.1224   62.1921   66.0199 C   0  0  0  0  0  0  0  0  0  0  0  0
  -38.6181   61.6815   62.2092 H   0  0  0  0  0  0  0  0  0  0  0  0
  -35.2066   64.7136   64.1523 H   0  0  0  0  0  0  0  0  0  0  0  0
  -36.4927   64.0725   67.4484 O   0  0  0  0  0  0  0  0  0  0  0  0
  -35.6438   62.9852   67.2340 C   0  0  0  0  0  0  0  0  0  0  0  0
  -36.1866   64.5745   68.2198 H   0  0  0  0  0  0  0  0  0  0  0  0
  -35.0190   62.9985   62.5673 O   0  0  0  0  0  0  0  0  0  0  0  0
  -32.9105   64.3561   63.2212 O   0  0  0  0  0  0  0  0  0  0  0  0
  -32.9775   63.2029   61.0870 O   0  0  0  0  0  0  0  0  0  0  0  0
  -32.6579   61.9529   63.1387 O   0  0  0  0  0  0  0  0  0  0  0  0
  -33.3588   63.1152   62.5228 S   0  0  0  0  0  0  0  0  0  0  0  0
  -33.3569   65.1248   62.8331 H   0  0  0  0  0  0  0  0  0  0  0  0
  -32.9011   61.8881   64.0755 H   0  0  0  0  0  0  0  0  0  0  0  0
  2  1  1  0  0  0
  2  4  1  0  0  0
  2  5  1  0  0  0
 41 42  1  0  0  0
 41  1  1  0  0  0
 42 46  1  0  0  0
  1 24  1  0  0  0
 23 24  1  0  0  0
 23 25  1  0  0  0
 24 26  1  0  0  0
  3  4  2  0  0  0
 26 27  2  0  0  0
 27 28  1  0  0  0
 43 47  1  0  0  0
 43 51  1  0  0  0
 28 29  1  0  0  0
 56 48  1  0  0  0
 56 60  1  0  0  0
 29 30  1  0  0  0
 57 60  1  0  0  0
 57 61  1  0  0  0
 30 31  1  0  0  0
 44 49  1  0  0  0
 44 52  1  0  0  0
 31 32  1  0  0  0
 45 46  1  0  0  0
 45 50  1  0  0  0
 32 33  1  0  0  0
 53 54  1  0  0  0
 53 55  1  0  0  0
 33 34  1  0  0  0
 34 35  1  0  0  0
 35 36  1  0  0  0
 58 60  1  0  0  0
 36 37  1  0  0  0
 59 60  1  0  0  0
 59 62  1  0  0  0
 37 38  1  0  0  0
 38 39  1  0  0  0
 39 40  1  0  0  0
  4  6  1  0  0  0
  6  7  1  0  0  0
  7  8  1  0  0  0
  8  9  1  0  0  0
  9 10  1  0  0  0
 10 11  1  0  0  0
 11 12  1  0  0  0
 12 13  1  0  0  0
 13 14  1  0  0  0
 14 15  1  0  0  0
 15 16  1  0  0  0
 16 17  1  0  0  0
 17 18  1  0  0  0
 18 19  1  0  0  0
 19 20  1  0  0  0
 20 21  1  0  0  0
 21 22  1  0  0  0
 46 47  1  0  0  0
 47 48  1  0  0  0
 48 49  1  0  0  0
 49 50  1  0  0  0
 50 54  1  0  0  0
M  CHG 1  58  -1
M  END
> <minimizedAffinity>
-9.75921

> <CNNscore>
0.2252611518

> <CNNaffinity>
7.1336946487

> <CNN_VS>
1.6069443226

> <CNNaffinity_variance>
1.6795814037

$$$$
/media/chris/experiments/cd1a-new-docking/inputs/ligands/1onq_ligand.pdb


 62 62  0  0  0  0  0  0  0  0999 V2000
  -41.5321   60.6237   65.1501 C   0  0  0  0  0  0  0  0  0  0  0  0
  -42.1826   59.6249   65.9749 N   0  0  0  0  0  0  0  0  0  0  0  0
  -42.5980   57.5035   66.6641 O   0  0  0  0  0  0  0  0  0  0  0  0
  -42.0121   58.2959   65.9523 C   0  0  0  0  0  0  0  0  0  0  0  0
  -42.8302   59.9652   66.6338 H   0  0  0  0  0  0  0  0  0  0  0  0
  -41.0159   57.7979   64.9476 C   0  0  0  0  0  0  0  0  0  0  0  0
  -41.4771   56.3993   64.5368 C   0  0  0  0  0  0  0  0  0  0  0  0
  -41.9889   56.4205   63.0985 C   0  0  0  0  0  0  0  0  0  0  0  0
  -41.1802   55.6348   62.0949 C   0  0  0  0  0  0  0  0  0  0  0  0
  -41.1921   56.4125   60.7832 C   0  0  0  0  0  0  0  0  0  0  0  0
  -41.6844   57.8559   60.9540 C   0  0  0  0  0  0  0  0  0  0  0  0
  -41.0006   58.8717   60.0206 C   0  0  0  0  0  0  0  0  0  0  0  0
  -40.1633   58.1984   58.9111 C   0  0  0  0  0  0  0  0  0  0  0  0
  -38.6927   58.6117   59.0184 C   0  0  0  0  0  0  0  0  0  0  0  0
  -38.2881   59.2145   60.3581 C   0  0  0  0  0  0  0  0  0  0  0  0
  -37.4954   58.2383   61.2147 C   0  0  0  0  0  0  0  0  0  0  0  0
  -38.1665   57.7876   62.5143 C   0  0  0  0  0  0  0  0  0  0  0  0
  -37.1904   58.0209   63.6594 C   0  0  0  0  0  0  0  0  0  0  0  0
  -35.7530   58.3941   63.3280 C   0  0  0  0  0  0  0  0  0  0  0  0
  -35.0544   59.0247   64.5431 C   0  0  0  0  0  0  0  0  0  0  0  0
  -33.7242   58.3548   64.9336 C   0  0  0  0  0  0  0  0  0  0  0  0
  -32.5812   58.6765   63.9737 C   0  0  0  0  0  0  0  0  0  0  0  0
  -42.2749   61.9807   63.4173 O   0  0  0  0  0  0  0  0  0  0  0  0
  -42.4197   60.6646   63.9180 C   0  0  0  0  0  0  0  0  0  0  0  0
  -41.3487   62.1337   63.1734 H   0  0  0  0  0  0  0  0  0  0  0  0
  -43.8633   60.3572   64.3229 C   0  0  0  0  0  0  0  0  0  0  0  0
  -44.8688   61.2361   64.1719 C   0  0  0  0  0  0  0  0  0  0  0  0
  -46.2838   60.8537   64.6020 C   0  0  0  0  0  0  0  0  0  0  0  0
  -46.4358   59.3777   64.9976 C   0  0  0  0  0  0  0  0  0  0  0  0
  -47.5846   59.0642   65.9739 C   0  0  0  0  0  0  0  0  0  0  0  0
  -48.7466   60.0709   65.7963 C   0  0  0  0  0  0  0  0  0  0  0  0
  -50.1088   59.4462   65.4016 C   0  0  0  0  0  0  0  0  0  0  0  0
  -51.0174   60.3816   64.5698 C   0  0  0  0  0  0  0  0  0  0  0  0
  -51.4597   59.7740   63.2210 C   0  0  0  0  0  0  0  0  0  0  0  0
  -50.6747   58.5186   62.8220 C   0  0  0  0  0  0  0  0  0  0  0  0
  -51.0703   57.8727   61.4959 C   0  0  0  0  0  0  0  0  0  0  0  0
  -49.8798   57.3124   60.6928 C   0  0  0  0  0  0  0  0  0  0  0  0
  -49.7605   57.8303   59.2515 C   0  0  0  0  0  0  0  0  0  0  0  0
  -48.4483   58.5933   59.0482 C   0  0  0  0  0  0  0  0  0  0  0  0
  -47.5910   58.1606   57.8720 C   0  0  0  0  0  0  0  0  0  0  0  0
  -40.0189   60.4118   64.9169 C   0  0  0  0  0  0  0  0  0  0  0  0
  -39.2982   61.5088   64.3003 O   0  0  0  0  0  0  0  0  0  0  0  0
  -37.4639   61.8890   62.1396 O   0  0  0  0  0  0  0  0  0  0  0  0
  -35.6080   64.4531   64.8562 O   0  0  0  0  0  0  0  0  0  0  0  0
  -37.4522   62.2110   65.7090 O   0  0  0  0  0  0  0  0  0  0  0  0
  -37.8334   61.6348   64.4361 C   0  0  0  0  0  0  0  0  0  0  0  0
  -37.1244   62.4703   63.3606 C   0  0  0  0  0  0  0  0  0  0  0  0
  -35.5851   62.4677   63.4877 C   0  0  0  0  0  0  0  0  0  0  0  0
  -35.2731   63.0677   64.8308 C   0  0  0  0  0  0  0  0  0  0  0  0
  -36.0175   62.3117   65.9165 C   0  0  0  0  0  0  0  0  0  0  0  0
  -38.4291   61.8819   62.0422 H   0  0  0  0  0  0  0  0  0  0  0  0
  -35.1222   64.9161   64.1557 H   0  0  0  0  0  0  0  0  0  0  0  0
  -36.4849   64.1008   67.4313 O   0  0  0  0  0  0  0  0  0  0  0  0
  -35.5793   63.0718   67.1665 C   0  0  0  0  0  0  0  0  0  0  0  0
  -36.2044   64.5819   68.2254 H   0  0  0  0  0  0  0  0  0  0  0  0
  -34.8671   63.2619   62.5162 O   0  0  0  0  0  0  0  0  0  0  0  0
  -32.7976   61.7210   62.2730 O   0  0  0  0  0  0  0  0  0  0  0  0
  -32.5831   63.8384   63.4392 O   0  0  0  0  0  0  0  0  0  0  0  0
  -32.7498   63.7894   61.0217 O   0  0  0  0  0  0  0  0  0  0  0  0
  -33.2222   63.1522   62.2836 S   0  0  0  0  0  0  0  0  0  0  0  0
  -33.0966   61.2889   63.0883 H   0  0  0  0  0  0  0  0  0  0  0  0
  -33.1620   63.3479   60.2627 H   0  0  0  0  0  0  0  0  0  0  0  0
  2  1  1  0  0  0
  2  4  1  0  0  0
  2  5  1  0  0  0
 41 42  1  0  0  0
 41  1  1  0  0  0
 42 46  1  0  0  0
  1 24  1  0  0  0
 23 24  1  0  0  0
 23 25  1  0  0  0
 24 26  1  0  0  0
  3  4  2  0  0  0
 26 27  2  0  0  0
 27 28  1  0  0  0
 43 47  1  0  0  0
 43 51  1  0  0  0
 28 29  1  0  0  0
 56 48  1  0  0  0
 56 60  1  0  0  0
 29 30  1  0  0  0
 57 60  1  0  0  0
 57 61  1  0  0  0
 30 31  1  0  0  0
 44 49  1  0  0  0
 44 52  1  0  0  0
 31 32  1  0  0  0
 45 46  1  0  0  0
 45 50  1  0  0  0
 32 33  1  0  0  0
 53 54  1  0  0  0
 53 55  1  0  0  0
 33 34  1  0  0  0
 34 35  1  0  0  0
 35 36  1  0  0  0
 58 60  1  0  0  0
 36 37  1  0  0  0
 59 60  1  0  0  0
 59 62  1  0  0  0
 37 38  1  0  0  0
 38 39  1  0  0  0
 39 40  1  0  0  0
  4  6  1  0  0  0
  6  7  1  0  0  0
  7  8  1  0  0  0
  8  9  1  0  0  0
  9 10  1  0  0  0
 10 11  1  0  0  0
 11 12  1  0  0  0
 12 13  1  0  0  0
 13 14  1  0  0  0
 14 15  1  0  0  0
 15 16  1  0  0  0
 16 17  1  0  0  0
 17 18  1  0  0  0
 18 19  1  0  0  0
 19 20  1  0  0  0
 20 21  1  0  0  0
 21 22  1  0  0  0
 46 47  1  0  0  0
 47 48  1  0  0  0
 48 49  1  0  0  0
 49 50  1  0  0  0
 50 54  1  0  0  0
M  CHG 1  58  -1
M  END
> <minimizedAffinity>
-9.87667

> <CNNscore>
0.2203199714

> <CNNaffinity>
7.0802612305

> <CNN_VS>
1.5599229336

> <CNNaffinity_variance>
1.9542386532

$$$$
/media/chris/experiments/cd1a-new-docking/inputs/ligands/1onq_ligand.pdb


 62 62  0  0  0  0  0  0  0  0999 V2000
  -40.8868   59.7380   64.3174 C   0  0  0  0  0  0  0  0  0  0  0  0
  -41.2700   60.3590   65.5699 N   0  0  0  0  0  0  0  0  0  0  0  0
  -42.5388   61.7198   66.8684 O   0  0  0  0  0  0  0  0  0  0  0  0
  -42.2720   61.2206   65.7925 C   0  0  0  0  0  0  0  0  0  0  0  0
  -40.7266   60.1178   66.3546 H   0  0  0  0  0  0  0  0  0  0  0  0
  -43.0929   61.5693   64.5866 C   0  0  0  0  0  0  0  0  0  0  0  0
  -44.4743   60.9536   64.8100 C   0  0  0  0  0  0  0  0  0  0  0  0
  -44.4828   59.5040   64.3310 C   0  0  0  0  0  0  0  0  0  0  0  0
  -45.3388   58.5477   65.1256 C   0  0  0  0  0  0  0  0  0  0  0  0
  -45.7226   59.2448   66.4266 C   0  0  0  0  0  0  0  0  0  0  0  0
  -47.2272   59.1687   66.7188 C   0  0  0  0  0  0  0  0  0  0  0  0
  -48.0116   60.4351   66.3297 C   0  0  0  0  0  0  0  0  0  0  0  0
  -48.6859   60.3219   64.9449 C   0  0  0  0  0  0  0  0  0  0  0  0
  -50.0168   59.5718   65.0521 C   0  0  0  0  0  0  0  0  0  0  0  0
  -51.1815   60.2153   64.3094 C   0  0  0  0  0  0  0  0  0  0  0  0
  -51.1287   59.9501   62.8121 C   0  0  0  0  0  0  0  0  0  0  0  0
  -50.9748   58.4856   62.3950 C   0  0  0  0  0  0  0  0  0  0  0  0
  -49.6889   58.3529   61.5902 C   0  0  0  0  0  0  0  0  0  0  0  0
  -49.5121   59.2171   60.3504 C   0  0  0  0  0  0  0  0  0  0  0  0
  -49.3859   58.3489   59.0884 C   0  0  0  0  0  0  0  0  0  0  0  0
  -47.9875   57.7435   58.8671 C   0  0  0  0  0  0  0  0  0  0  0  0
  -47.2840   58.2861   57.6253 C   0  0  0  0  0  0  0  0  0  0  0  0
  -39.2754   58.1435   64.8241 O   0  0  0  0  0  0  0  0  0  0  0  0
  -40.6796   58.2872   64.7171 C   0  0  0  0  0  0  0  0  0  0  0  0
  -38.9415   58.7367   65.5150 H   0  0  0  0  0  0  0  0  0  0  0  0
  -41.2723   57.3752   63.6403 C   0  0  0  0  0  0  0  0  0  0  0  0
  -40.5196   56.7240   62.7373 C   0  0  0  0  0  0  0  0  0  0  0  0
  -41.1874   55.8319   61.6925 C   0  0  0  0  0  0  0  0  0  0  0  0
  -41.2190   56.4414   60.2833 C   0  0  0  0  0  0  0  0  0  0  0  0
  -41.6679   57.9121   60.2030 C   0  0  0  0  0  0  0  0  0  0  0  0
  -40.5861   58.7800   59.5163 C   0  0  0  0  0  0  0  0  0  0  0  0
  -39.1562   58.1827   59.5229 C   0  0  0  0  0  0  0  0  0  0  0  0
  -38.1768   58.8945   60.4856 C   0  0  0  0  0  0  0  0  0  0  0  0
  -37.5977   57.9662   61.5751 C   0  0  0  0  0  0  0  0  0  0  0  0
  -36.4691   58.6041   62.3941 C   0  0  0  0  0  0  0  0  0  0  0  0
  -35.4487   57.6401   62.9958 C   0  0  0  0  0  0  0  0  0  0  0  0
  -35.0292   57.9919   64.4367 C   0  0  0  0  0  0  0  0  0  0  0  0
  -33.7144   58.7761   64.5629 C   0  0  0  0  0  0  0  0  0  0  0  0
  -32.7473   58.4139   63.4320 C   0  0  0  0  0  0  0  0  0  0  0  0
  -31.8219   59.5192   62.9550 C   0  0  0  0  0  0  0  0  0  0  0  0
  -39.7303   60.4279   63.5588 C   0  0  0  0  0  0  0  0  0  0  0  0
  -39.1353   61.5857   64.1981 O   0  0  0  0  0  0  0  0  0  0  0  0
  -37.1461   61.9404   62.1745 O   0  0  0  0  0  0  0  0  0  0  0  0
  -35.4079   64.4092   65.0523 O   0  0  0  0  0  0  0  0  0  0  0  0
  -37.3710   62.2121   65.7409 O   0  0  0  0  0  0  0  0  0  0  0  0
  -37.6803   61.6654   64.4359 C   0  0  0  0  0  0  0  0  0  0  0  0
  -36.8748   62.4941   63.4249 C   0  0  0  0  0  0  0  0  0  0  0  0
  -35.3487   62.4433   63.6571 C   0  0  0  0  0  0  0  0  0  0  0  0
  -35.1126   63.0149   65.0278 C   0  0  0  0  0  0  0  0  0  0  0  0
  -35.9517   62.2666   66.0478 C   0  0  0  0  0  0  0  0  0  0  0  0
  -38.1021   61.9638   62.0111 H   0  0  0  0  0  0  0  0  0  0  0  0
  -34.8617   64.8670   64.3942 H   0  0  0  0  0  0  0  0  0  0  0  0
  -36.4603   64.0576   67.5469 O   0  0  0  0  0  0  0  0  0  0  0  0
  -35.5788   62.9956   67.3369 C   0  0  0  0  0  0  0  0  0  0  0  0
  -36.2213   64.5190   68.3660 H   0  0  0  0  0  0  0  0  0  0  0  0
  -34.5426   63.2289   62.7499 O   0  0  0  0  0  0  0  0  0  0  0  0
  -34.1571   65.4462   61.4645 O   0  0  0  0  0  0  0  0  0  0  0  0
  -36.3260   64.9994   62.4573 O   0  0  0  0  0  0  0  0  0  0  0  0
  -35.6526   63.8516   60.4316 O   0  0  0  0  0  0  0  0  0  0  0  0
  -35.1755   64.3891   61.7373 S   0  0  0  0  0  0  0  0  0  0  0  0
  -33.8343   65.8086   62.3043 H   0  0  0  0  0  0  0  0  0  0  0  0
  -34.9084   63.4515   59.9553 H   0  0  0  0  0  0  0  0  0  0  0  0
  2  1  1  0  0  0
  2  4  1  0  0  0
  2  5  1  0  0  0
 41 42  1  0  0  0
 41  1  1  0  0  0
 42 46  1  0  0  0
  1 24  1  0  0  0
 23 24  1  0  0  0
 23 25  1  0  0  0
 24 26  1  0  0  0
  3  4  2  0  0  0
 26 27  2  0  0  0
 27 28  1  0  0  0
 43 47  1  0  0  0
 43 51  1  0  0  0
 28 29  1  0  0  0
 56 48  1  0  0  0
 56 60  1  0  0  0
 29 30  1  0  0  0
 57 60  1  0  0  0
 57 61  1  0  0  0
 30 31  1  0  0  0
 44 49  1  0  0  0
 44 52  1  0  0  0
 31 32  1  0  0  0
 45 46  1  0  0  0
 45 50  1  0  0  0
 32 33  1  0  0  0
 53 54  1  0  0  0
 53 55  1  0  0  0
 33 34  1  0  0  0
 34 35  1  0  0  0
 35 36  1  0  0  0
 58 60  1  0  0  0
 36 37  1  0  0  0
 59 60  1  0  0  0
 59 62  1  0  0  0
 37 38  1  0  0  0
 38 39  1  0  0  0
 39 40  1  0  0  0
  4  6  1  0  0  0
  6  7  1  0  0  0
  7  8  1  0  0  0
  8  9  1  0  0  0
  9 10  1  0  0  0
 10 11  1  0  0  0
 11 12  1  0  0  0
 12 13  1  0  0  0
 13 14  1  0  0  0
 14 15  1  0  0  0
 15 16  1  0  0  0
 16 17  1  0  0  0
 17 18  1  0  0  0
 18 19  1  0  0  0
 19 20  1  0  0  0
 20 21  1  0  0  0
 21 22  1  0  0  0
 46 47  1  0  0  0
 47 48  1  0  0  0
 48 49  1  0  0  0
 49 50  1  0  0  0
 50 54  1  0  0  0
M  CHG 1  58  -1
M  END
> <minimizedAffinity>
-9.71503

> <CNNscore>
0.1877097189

> <CNNaffinity>
7.0099906921

> <CNN_VS>
1.3158433437

> <CNNaffinity_variance>
1.9524132013

$$$$
/media/chris/experiments/cd1a-new-docking/inputs/ligands/1onq_ligand.pdb


 62 62  0  0  0  0  0  0  0  0999 V2000
  -40.7534   60.1672   63.8626 C   0  0  0  0  0  0  0  0  0  0  0  0
  -41.8224   61.0695   64.2423 N   0  0  0  0  0  0  0  0  0  0  0  0
  -43.9964   61.6465   64.5398 O   0  0  0  0  0  0  0  0  0  0  0  0
  -43.1429   60.8425   64.2189 C   0  0  0  0  0  0  0  0  0  0  0  0
  -41.5437   61.9599   64.5566 H   0  0  0  0  0  0  0  0  0  0  0  0
  -43.5470   59.4780   63.7449 C   0  0  0  0  0  0  0  0  0  0  0  0
  -44.9220   59.1982   64.3517 C   0  0  0  0  0  0  0  0  0  0  0  0
  -44.7817   58.2682   65.5545 C   0  0  0  0  0  0  0  0  0  0  0  0
  -46.0069   58.1180   66.4234 C   0  0  0  0  0  0  0  0  0  0  0  0
  -46.5886   59.5102   66.6446 C   0  0  0  0  0  0  0  0  0  0  0  0
  -48.0721   59.6008   66.2625 C   0  0  0  0  0  0  0  0  0  0  0  0
  -48.5170   58.5718   65.2072 C   0  0  0  0  0  0  0  0  0  0  0  0
  -50.0527   58.4684   65.0796 C   0  0  0  0  0  0  0  0  0  0  0  0
  -50.6850   59.8621   65.0246 C   0  0  0  0  0  0  0  0  0  0  0  0
  -51.4779   60.1611   63.7582 C   0  0  0  0  0  0  0  0  0  0  0  0
  -50.8654   59.5110   62.5264 C   0  0  0  0  0  0  0  0  0  0  0  0
  -49.7413   60.2935   61.8433 C   0  0  0  0  0  0  0  0  0  0  0  0
  -49.5394   59.7164   60.4487 C   0  0  0  0  0  0  0  0  0  0  0  0
  -49.9998   58.2923   60.1751 C   0  0  0  0  0  0  0  0  0  0  0  0
  -49.3988   57.7625   58.8634 C   0  0  0  0  0  0  0  0  0  0  0  0
  -47.8598   57.7231   58.8364 C   0  0  0  0  0  0  0  0  0  0  0  0
  -47.2717   58.0304   57.4611 C   0  0  0  0  0  0  0  0  0  0  0  0
  -39.8951   60.7252   65.9477 O   0  0  0  0  0  0  0  0  0  0  0  0
  -40.3105   59.5977   65.1993 C   0  0  0  0  0  0  0  0  0  0  0  0
  -40.6455   61.3279   66.0676 H   0  0  0  0  0  0  0  0  0  0  0  0
  -39.1693   58.6031   64.9735 C   0  0  0  0  0  0  0  0  0  0  0  0
  -37.9218   58.8042   65.4314 C   0  0  0  0  0  0  0  0  0  0  0  0
  -36.8366   57.7631   65.1633 C   0  0  0  0  0  0  0  0  0  0  0  0
  -35.6847   58.2772   64.2874 C   0  0  0  0  0  0  0  0  0  0  0  0
  -36.0841   58.7770   62.8868 C   0  0  0  0  0  0  0  0  0  0  0  0
  -36.7741   57.6521   62.0782 C   0  0  0  0  0  0  0  0  0  0  0  0
  -38.1728   58.0062   61.5127 C   0  0  0  0  0  0  0  0  0  0  0  0
  -38.1598   58.4761   60.0390 C   0  0  0  0  0  0  0  0  0  0  0  0
  -39.4887   58.2172   59.2965 C   0  0  0  0  0  0  0  0  0  0  0  0
  -40.7047   58.8764   59.9584 C   0  0  0  0  0  0  0  0  0  0  0  0
  -41.7075   57.9295   60.6143 C   0  0  0  0  0  0  0  0  0  0  0  0
  -41.3373   56.4387   60.4855 C   0  0  0  0  0  0  0  0  0  0  0  0
  -41.1041   55.7048   61.8147 C   0  0  0  0  0  0  0  0  0  0  0  0
  -41.3216   56.6422   63.0060 C   0  0  0  0  0  0  0  0  0  0  0  0
  -42.0711   56.0631   64.1928 C   0  0  0  0  0  0  0  0  0  0  0  0
  -39.6552   60.7777   62.9625 C   0  0  0  0  0  0  0  0  0  0  0  0
  -39.0370   62.0019   63.4340 O   0  0  0  0  0  0  0  0  0  0  0  0
  -36.8089   62.7229   61.7929 O   0  0  0  0  0  0  0  0  0  0  0  0
  -35.5099   64.5946   65.2869 O   0  0  0  0  0  0  0  0  0  0  0  0
  -37.5015   62.3167   65.2857 O   0  0  0  0  0  0  0  0  0  0  0  0
  -37.6272   62.0281   63.8720 C   0  0  0  0  0  0  0  0  0  0  0  0
  -36.7138   63.0289   63.1498 C   0  0  0  0  0  0  0  0  0  0  0  0
  -35.2301   62.9275   63.5670 C   0  0  0  0  0  0  0  0  0  0  0  0
  -35.1860   63.2285   65.0398 C   0  0  0  0  0  0  0  0  0  0  0  0
  -36.1356   62.3051   65.7814 C   0  0  0  0  0  0  0  0  0  0  0  0
  -37.7357   62.7815   61.5125 H   0  0  0  0  0  0  0  0  0  0  0  0
  -34.8920   65.1658   64.8044 H   0  0  0  0  0  0  0  0  0  0  0  0
  -34.6084   63.1019   67.4386 O   0  0  0  0  0  0  0  0  0  0  0  0
  -35.9483   62.7754   67.2222 C   0  0  0  0  0  0  0  0  0  0  0  0
  -34.4921   63.4002   68.3543 H   0  0  0  0  0  0  0  0  0  0  0  0
  -34.3287   63.8665   62.9379 O   0  0  0  0  0  0  0  0  0  0  0  0
  -32.9294   63.9388   60.7577 O   0  0  0  0  0  0  0  0  0  0  0  0
  -32.9440   61.9200   62.1044 O   0  0  0  0  0  0  0  0  0  0  0  0
  -31.6862   63.8607   62.8300 O   0  0  0  0  0  0  0  0  0  0  0  0
  -32.9342   63.4074   62.1528 S   0  0  0  0  0  0  0  0  0  0  0  0
  -33.7356   63.6535   60.3002 H   0  0  0  0  0  0  0  0  0  0  0  0
  -31.6717   64.8298   62.8660 H   0  0  0  0  0  0  0  0  0  0  0  0
  2  1  1  0  0  0
  2  4  1  0  0  0
  2  5  1  0  0  0
 41 42  1  0  0  0
 41  1  1  0  0  0
 42 46  1  0  0  0
  1 24  1  0  0  0
 23 24  1  0  0  0
 23 25  1  0  0  0
 24 26  1  0  0  0
  3  4  2  0  0  0
 26 27  2  0  0  0
 27 28  1  0  0  0
 43 47  1  0  0  0
 43 51  1  0  0  0
 28 29  1  0  0  0
 56 48  1  0  0  0
 56 60  1  0  0  0
 29 30  1  0  0  0
 57 60  1  0  0  0
 57 61  1  0  0  0
 30 31  1  0  0  0
 44 49  1  0  0  0
 44 52  1  0  0  0
 31 32  1  0  0  0
 45 46  1  0  0  0
 45 50  1  0  0  0
 32 33  1  0  0  0
 53 54  1  0  0  0
 53 55  1  0  0  0
 33 34  1  0  0  0
 34 35  1  0  0  0
 35 36  1  0  0  0
 58 60  1  0  0  0
 36 37  1  0  0  0
 59 60  1  0  0  0
 59 62  1  0  0  0
 37 38  1  0  0  0
 38 39  1  0  0  0
 39 40  1  0  0  0
  4  6  1  0  0  0
  6  7  1  0  0  0
  7  8  1  0  0  0
  8  9  1  0  0  0
  9 10  1  0  0  0
 10 11  1  0  0  0
 11 12  1  0  0  0
 12 13  1  0  0  0
 13 14  1  0  0  0
 14 15  1  0  0  0
 15 16  1  0  0  0
 16 17  1  0  0  0
 17 18  1  0  0  0
 18 19  1  0  0  0
 19 20  1  0  0  0
 20 21  1  0  0  0
 21 22  1  0  0  0
 46 47  1  0  0  0
 47 48  1  0  0  0
 48 49  1  0  0  0
 49 50  1  0  0  0
 50 54  1  0  0  0
M  CHG 1  58  -1
M  END
> <minimizedAffinity>
-9.56462

> <CNNscore>
0.1809417158

> <CNNaffinity>
7.2613649368

> <CNN_VS>
1.3138837814

> <CNNaffinity_variance>
1.2112622261

$$$$
/media/chris/experiments/cd1a-new-docking/inputs/ligands/1onq_ligand.pdb


 62 62  0  0  0  0  0  0  0  0999 V2000
  -37.6294   61.2848   64.5943 C   0  0  0  0  0  0  0  0  0  0  0  0
  -38.6066   61.0665   65.6424 N   0  0  0  0  0  0  0  0  0  0  0  0
  -40.6757   60.5746   66.4327 O   0  0  0  0  0  0  0  0  0  0  0  0
  -39.8979   60.7331   65.5119 C   0  0  0  0  0  0  0  0  0  0  0  0
  -38.2811   61.1770   66.5650 H   0  0  0  0  0  0  0  0  0  0  0  0
  -40.3726   60.5617   64.0994 C   0  0  0  0  0  0  0  0  0  0  0  0
  -41.8857   60.3554   64.1729 C   0  0  0  0  0  0  0  0  0  0  0  0
  -42.5708   61.1113   63.0370 C   0  0  0  0  0  0  0  0  0  0  0  0
  -43.8850   61.7713   63.3772 C   0  0  0  0  0  0  0  0  0  0  0  0
  -44.4680   61.0428   64.5834 C   0  0  0  0  0  0  0  0  0  0  0  0
  -45.9819   60.8202   64.4671 C   0  0  0  0  0  0  0  0  0  0  0  0
  -46.3850   59.3678   64.1529 C   0  0  0  0  0  0  0  0  0  0  0  0
  -47.9101   59.1375   64.2320 C   0  0  0  0  0  0  0  0  0  0  0  0
  -48.6683   60.4336   63.9311 C   0  0  0  0  0  0  0  0  0  0  0  0
  -49.9641   60.2562   63.1491 C   0  0  0  0  0  0  0  0  0  0  0  0
  -50.5539   58.8638   63.3172 C   0  0  0  0  0  0  0  0  0  0  0  0
  -50.8703   58.1084   62.0243 C   0  0  0  0  0  0  0  0  0  0  0  0
  -49.7354   58.3549   61.0395 C   0  0  0  0  0  0  0  0  0  0  0  0
  -49.4667   57.3155   59.9613 C   0  0  0  0  0  0  0  0  0  0  0  0
  -48.1078   57.5617   59.2867 C   0  0  0  0  0  0  0  0  0  0  0  0
  -48.1669   57.6684   57.7518 C   0  0  0  0  0  0  0  0  0  0  0  0
  -46.9348   58.3353   57.1447 C   0  0  0  0  0  0  0  0  0  0  0  0
  -35.5039   60.3854   64.8575 O   0  0  0  0  0  0  0  0  0  0  0  0
  -36.8386   59.9879   64.6038 C   0  0  0  0  0  0  0  0  0  0  0  0
  -35.4549   60.8190   65.7237 H   0  0  0  0  0  0  0  0  0  0  0  0
  -36.9859   59.2943   63.2474 C   0  0  0  0  0  0  0  0  0  0  0  0
  -37.7676   58.2178   63.0569 C   0  0  0  0  0  0  0  0  0  0  0  0
  -37.8607   57.5815   61.6713 C   0  0  0  0  0  0  0  0  0  0  0  0
  -37.3808   58.4952   60.5341 C   0  0  0  0  0  0  0  0  0  0  0  0
  -38.4602   58.9245   59.5234 C   0  0  0  0  0  0  0  0  0  0  0  0
  -39.4151   59.9689   60.1499 C   0  0  0  0  0  0  0  0  0  0  0  0
  -40.9232   59.6233   60.0619 C   0  0  0  0  0  0  0  0  0  0  0  0
  -41.2219   58.2517   59.4123 C   0  0  0  0  0  0  0  0  0  0  0  0
  -41.6461   57.1673   60.4263 C   0  0  0  0  0  0  0  0  0  0  0  0
  -41.3474   57.5348   61.8848 C   0  0  0  0  0  0  0  0  0  0  0  0
  -41.4164   56.3898   62.8932 C   0  0  0  0  0  0  0  0  0  0  0  0
  -42.3829   56.6465   64.0664 C   0  0  0  0  0  0  0  0  0  0  0  0
  -41.7237   57.1484   65.3599 C   0  0  0  0  0  0  0  0  0  0  0  0
  -42.7675   57.7230   66.3220 C   0  0  0  0  0  0  0  0  0  0  0  0
  -44.2205   57.4223   65.9998 C   0  0  0  0  0  0  0  0  0  0  0  0
  -36.8221   62.5985   64.6999 C   0  0  0  0  0  0  0  0  0  0  0  0
  -36.5482   63.2928   63.4564 O   0  0  0  0  0  0  0  0  0  0  0  0
  -34.9686   65.6749   63.5439 O   0  0  0  0  0  0  0  0  0  0  0  0
  -31.9051   62.9854   64.4274 O   0  0  0  0  0  0  0  0  0  0  0  0
  -34.4459   62.1713   63.0003 O   0  0  0  0  0  0  0  0  0  0  0  0
  -35.1712   63.4235   62.9399 C   0  0  0  0  0  0  0  0  0  0  0  0
  -34.2837   64.4641   63.6377 C   0  0  0  0  0  0  0  0  0  0  0  0
  -32.8975   64.6387   62.9793 C   0  0  0  0  0  0  0  0  0  0  0  0
  -32.2163   63.3013   63.0726 C   0  0  0  0  0  0  0  0  0  0  0  0
  -33.0994   62.2310   62.4571 C   0  0  0  0  0  0  0  0  0  0  0  0
  -35.8434   65.5841   63.9531 H   0  0  0  0  0  0  0  0  0  0  0  0
  -31.3413   63.6811   64.8003 H   0  0  0  0  0  0  0  0  0  0  0  0
  -31.5924   60.6593   61.4709 O   0  0  0  0  0  0  0  0  0  0  0  0
  -32.2451   60.9818   62.6621 C   0  0  0  0  0  0  0  0  0  0  0  0
  -31.0507   59.8658   61.6037 H   0  0  0  0  0  0  0  0  0  0  0  0
  -32.0092   65.5871   63.6129 O   0  0  0  0  0  0  0  0  0  0  0  0
  -30.8586   67.0409   61.8020 O   0  0  0  0  0  0  0  0  0  0  0  0
  -31.0079   67.8630   64.0805 O   0  0  0  0  0  0  0  0  0  0  0  0
  -32.9682   67.8581   62.6551 O   0  0  0  0  0  0  0  0  0  0  0  0
  -31.7272   67.1147   63.0140 S   0  0  0  0  0  0  0  0  0  0  0  0
  -30.0443   66.5596   62.0167 H   0  0  0  0  0  0  0  0  0  0  0  0
  -33.4437   67.3769   61.9600 H   0  0  0  0  0  0  0  0  0  0  0  0
  2  1  1  0  0  0
  2  4  1  0  0  0
  2  5  1  0  0  0
 41 42  1  0  0  0
 41  1  1  0  0  0
 42 46  1  0  0  0
  1 24  1  0  0  0
 23 24  1  0  0  0
 23 25  1  0  0  0
 24 26  1  0  0  0
  3  4  2  0  0  0
 26 27  2  0  0  0
 27 28  1  0  0  0
 43 47  1  0  0  0
 43 51  1  0  0  0
 28 29  1  0  0  0
 56 48  1  0  0  0
 56 60  1  0  0  0
 29 30  1  0  0  0
 57 60  1  0  0  0
 57 61  1  0  0  0
 30 31  1  0  0  0
 44 49  1  0  0  0
 44 52  1  0  0  0
 31 32  1  0  0  0
 45 46  1  0  0  0
 45 50  1  0  0  0
 32 33  1  0  0  0
 53 54  1  0  0  0
 53 55  1  0  0  0
 33 34  1  0  0  0
 34 35  1  0  0  0
 35 36  1  0  0  0
 58 60  1  0  0  0
 36 37  1  0  0  0
 59 60  1  0  0  0
 59 62  1  0  0  0
 37 38  1  0  0  0
 38 39  1  0  0  0
 39 40  1  0  0  0
  4  6  1  0  0  0
  6  7  1  0  0  0
  7  8  1  0  0  0
  8  9  1  0  0  0
  9 10  1  0  0  0
 10 11  1  0  0  0
 11 12  1  0  0  0
 12 13  1  0  0  0
 13 14  1  0  0  0
 14 15  1  0  0  0
 15 16  1  0  0  0
 16 17  1  0  0  0
 17 18  1  0  0  0
 18 19  1  0  0  0
 19 20  1  0  0  0
 20 21  1  0  0  0
 21 22  1  0  0  0
 46 47  1  0  0  0
 47 48  1  0  0  0
 48 49  1  0  0  0
 49 50  1  0  0  0
 50 54  1  0  0  0
M  CHG 1  58  -1
M  END
> <minimizedAffinity>
-8.19630

> <CNNscore>
0.1551421583

> <CNNaffinity>
6.9925336838

> <CNN_VS>
1.0848367214

> <CNNaffinity_variance>
0.6981261969

$$$$
/media/chris/experiments/cd1a-new-docking/inputs/ligands/1onq_ligand.pdb


 62 62  0  0  0  0  0  0  0  0999 V2000
  -40.9975   60.5965   63.6901 C   0  0  0  0  0  0  0  0  0  0  0  0
  -40.8454   59.2375   64.1710 N   0  0  0  0  0  0  0  0  0  0  0  0
  -40.9747   56.9802   63.9831 O   0  0  0  0  0  0  0  0  0  0  0  0
  -41.1116   58.0963   63.5211 C   0  0  0  0  0  0  0  0  0  0  0  0
  -40.5041   59.1409   65.0894 H   0  0  0  0  0  0  0  0  0  0  0  0
  -41.6229   58.2642   62.1210 C   0  0  0  0  0  0  0  0  0  0  0  0
  -41.5389   56.8877   61.4611 C   0  0  0  0  0  0  0  0  0  0  0  0
  -41.1479   57.0363   59.9927 C   0  0  0  0  0  0  0  0  0  0  0  0
  -40.7640   58.4260   59.5458 C   0  0  0  0  0  0  0  0  0  0  0  0
  -39.3340   58.3622   59.0196 C   0  0  0  0  0  0  0  0  0  0  0  0
  -38.3009   58.8361   60.0508 C   0  0  0  0  0  0  0  0  0  0  0  0
  -38.0789   57.8577   61.2187 C   0  0  0  0  0  0  0  0  0  0  0  0
  -36.7429   58.0963   61.9560 C   0  0  0  0  0  0  0  0  0  0  0  0
  -36.9286   57.9547   63.4694 C   0  0  0  0  0  0  0  0  0  0  0  0
  -35.6610   58.1384   64.2948 C   0  0  0  0  0  0  0  0  0  0  0  0
  -34.4960   58.6470   63.4585 C   0  0  0  0  0  0  0  0  0  0  0  0
  -33.2805   59.1533   64.2386 C   0  0  0  0  0  0  0  0  0  0  0  0
  -32.0263   58.7788   63.4605 C   0  0  0  0  0  0  0  0  0  0  0  0
  -31.1408   59.8938   62.9241 C   0  0  0  0  0  0  0  0  0  0  0  0
  -31.6945   60.4477   61.6016 C   0  0  0  0  0  0  0  0  0  0  0  0
  -30.8433   61.5652   60.9712 C   0  0  0  0  0  0  0  0  0  0  0  0
  -31.0508   62.9270   61.6298 C   0  0  0  0  0  0  0  0  0  0  0  0
  -42.6333   61.9097   62.6924 O   0  0  0  0  0  0  0  0  0  0  0  0
  -42.4733   60.6589   63.3357 C   0  0  0  0  0  0  0  0  0  0  0  0
  -42.0902   61.9319   61.8891 H   0  0  0  0  0  0  0  0  0  0  0  0
  -43.3067   60.5577   64.6154 C   0  0  0  0  0  0  0  0  0  0  0  0
  -44.4821   59.9086   64.6739 C   0  0  0  0  0  0  0  0  0  0  0  0
  -45.2553   59.8533   65.9901 C   0  0  0  0  0  0  0  0  0  0  0  0
  -46.7785   59.9503   65.8209 C   0  0  0  0  0  0  0  0  0  0  0  0
  -47.2663   60.4460   64.4470 C   0  0  0  0  0  0  0  0  0  0  0  0
  -48.7940   60.6935   64.4631 C   0  0  0  0  0  0  0  0  0  0  0  0
  -49.5055   60.5284   63.0964 C   0  0  0  0  0  0  0  0  0  0  0  0
  -50.9400   59.9582   63.1938 C   0  0  0  0  0  0  0  0  0  0  0  0
  -51.0609   58.5018   62.6954 C   0  0  0  0  0  0  0  0  0  0  0  0
  -49.9433   58.0837   61.7323 C   0  0  0  0  0  0  0  0  0  0  0  0
  -50.3055   58.0708   60.2487 C   0  0  0  0  0  0  0  0  0  0  0  0
  -49.1739   58.5612   59.3239 C   0  0  0  0  0  0  0  0  0  0  0  0
  -47.9618   57.6235   59.2184 C   0  0  0  0  0  0  0  0  0  0  0  0
  -47.6253   57.3222   57.7551 C   0  0  0  0  0  0  0  0  0  0  0  0
  -46.7614   58.3437   57.0369 C   0  0  0  0  0  0  0  0  0  0  0  0
  -39.9952   61.0319   62.5970 C   0  0  0  0  0  0  0  0  0  0  0  0
  -38.5873   60.9065   62.9215 O   0  0  0  0  0  0  0  0  0  0  0  0
  -37.1698   61.1260   65.3954 O   0  0  0  0  0  0  0  0  0  0  0  0
  -34.3124   62.9840   62.9908 O   0  0  0  0  0  0  0  0  0  0  0  0
  -37.2334   62.7951   62.2245 O   0  0  0  0  0  0  0  0  0  0  0  0
  -37.7934   62.0754   63.3497 C   0  0  0  0  0  0  0  0  0  0  0  0
  -36.6201   61.7852   64.2966 C   0  0  0  0  0  0  0  0  0  0  0  0
  -35.9023   63.0557   64.8025 C   0  0  0  0  0  0  0  0  0  0  0  0
  -35.3613   63.7473   63.5816 C   0  0  0  0  0  0  0  0  0  0  0  0
  -36.4830   63.9855   62.5869 C   0  0  0  0  0  0  0  0  0  0  0  0
  -37.6257   60.3238   65.0962 H   0  0  0  0  0  0  0  0  0  0  0  0
  -33.6078   62.8439   63.6426 H   0  0  0  0  0  0  0  0  0  0  0  0
  -35.5860   63.7802   60.3807 O   0  0  0  0  0  0  0  0  0  0  0  0
  -35.7330   64.6702   61.4463 C   0  0  0  0  0  0  0  0  0  0  0  0
  -35.1094   64.2174   59.6578 H   0  0  0  0  0  0  0  0  0  0  0  0
  -34.7710   62.8398   65.6763 O   0  0  0  0  0  0  0  0  0  0  0  0
  -35.4828   64.5256   67.5115 O   0  0  0  0  0  0  0  0  0  0  0  0
  -33.5541   65.0128   66.1215 O   0  0  0  0  0  0  0  0  0  0  0  0
  -33.4013   63.3518   67.8800 O   0  0  0  0  0  0  0  0  0  0  0  0
  -34.2904   63.9343   66.8352 S   0  0  0  0  0  0  0  0  0  0  0  0
  -36.0743   64.9105   66.8461 H   0  0  0  0  0  0  0  0  0  0  0  0
  -33.8738   62.6473   68.3504 H   0  0  0  0  0  0  0  0  0  0  0  0
  2  1  1  0  0  0
  2  4  1  0  0  0
  2  5  1  0  0  0
 41 42  1  0  0  0
 41  1  1  0  0  0
 42 46  1  0  0  0
  1 24  1  0  0  0
 23 24  1  0  0  0
 23 25  1  0  0  0
 24 26  1  0  0  0
  3  4  2  0  0  0
 26 27  2  0  0  0
 27 28  1  0  0  0
 43 47  1  0  0  0
 43 51  1  0  0  0
 28 29  1  0  0  0
 56 48  1  0  0  0
 56 60  1  0  0  0
 29 30  1  0  0  0
 57 60  1  0  0  0
 57 61  1  0  0  0
 30 31  1  0  0  0
 44 49  1  0  0  0
 44 52  1  0  0  0
 31 32  1  0  0  0
 45 46  1  0  0  0
 45 50  1  0  0  0
 32 33  1  0  0  0
 53 54  1  0  0  0
 53 55  1  0  0  0
 33 34  1  0  0  0
 34 35  1  0  0  0
 35 36  1  0  0  0
 58 60  1  0  0  0
 36 37  1  0  0  0
 59 60  1  0  0  0
 59 62  1  0  0  0
 37 38  1  0  0  0
 38 39  1  0  0  0
 39 40  1  0  0  0
  4  6  1  0  0  0
  6  7  1  0  0  0
  7  8  1  0  0  0
  8  9  1  0  0  0
  9 10  1  0  0  0
 10 11  1  0  0  0
 11 12  1  0  0  0
 12 13  1  0  0  0
 13 14  1  0  0  0
 14 15  1  0  0  0
 15 16  1  0  0  0
 16 17  1  0  0  0
 17 18  1  0  0  0
 18 19  1  0  0  0
 19 20  1  0  0  0
 20 21  1  0  0  0
 21 22  1  0  0  0
 46 47  1  0  0  0
 47 48  1  0  0  0
 48 49  1  0  0  0
 49 50  1  0  0  0
 50 54  1  0  0  0
M  CHG 1  58  -1
M  END
> <minimizedAffinity>
-9.60791

> <CNNscore>
0.1467094570

> <CNNaffinity>
6.7628698349

> <CNN_VS>
0.9921769500

> <CNNaffinity_variance>
1.3066793680

$$$$
/media/chris/experiments/cd1a-new-docking/inputs/ligands/1onq_ligand.pdb


 62 62  0  0  0  0  0  0  0  0999 V2000
  -38.5480   59.9022   60.7651 C   0  0  0  0  0  0  0  0  0  0  0  0
  -39.5262   60.3272   59.7834 N   0  0  0  0  0  0  0  0  0  0  0  0
  -41.5812   61.0224   59.1193 O   0  0  0  0  0  0  0  0  0  0  0  0
  -40.8012   60.6850   59.9885 C   0  0  0  0  0  0  0  0  0  0  0  0
  -39.2151   60.3567   58.8498 H   0  0  0  0  0  0  0  0  0  0  0  0
  -41.2537   60.6410   61.4179 C   0  0  0  0  0  0  0  0  0  0  0  0
  -42.3593   61.6881   61.5546 C   0  0  0  0  0  0  0  0  0  0  0  0
  -42.8480   61.7447   63.0000 C   0  0  0  0  0  0  0  0  0  0  0  0
  -43.7448   60.6138   63.4419 C   0  0  0  0  0  0  0  0  0  0  0  0
  -44.5949   61.1254   64.6001 C   0  0  0  0  0  0  0  0  0  0  0  0
  -46.0663   60.7043   64.4871 C   0  0  0  0  0  0  0  0  0  0  0  0
  -46.5115   59.6737   65.5407 C   0  0  0  0  0  0  0  0  0  0  0  0
  -47.8091   60.0840   66.2710 C   0  0  0  0  0  0  0  0  0  0  0  0
  -49.0385   59.7151   65.4359 C   0  0  0  0  0  0  0  0  0  0  0  0
  -48.9445   58.3821   64.7035 C   0  0  0  0  0  0  0  0  0  0  0  0
  -48.9045   58.5551   63.1924 C   0  0  0  0  0  0  0  0  0  0  0  0
  -50.1702   58.1445   62.4362 C   0  0  0  0  0  0  0  0  0  0  0  0
  -50.2056   58.9070   61.1186 C   0  0  0  0  0  0  0  0  0  0  0  0
  -49.9583   58.1423   59.8266 C   0  0  0  0  0  0  0  0  0  0  0  0
  -48.6424   58.5863   59.1681 C   0  0  0  0  0  0  0  0  0  0  0  0
  -48.1732   57.6873   58.0095 C   0  0  0  0  0  0  0  0  0  0  0  0
  -47.0037   58.2759   57.2237 C   0  0  0  0  0  0  0  0  0  0  0  0
  -38.5201   58.4185   58.9779 O   0  0  0  0  0  0  0  0  0  0  0  0
  -38.2942   58.4562   60.3748 C   0  0  0  0  0  0  0  0  0  0  0  0
  -37.8897   59.0058   58.5325 H   0  0  0  0  0  0  0  0  0  0  0  0
  -39.2595   57.5478   61.1399 C   0  0  0  0  0  0  0  0  0  0  0  0
  -40.4146   57.1018   60.6171 C   0  0  0  0  0  0  0  0  0  0  0  0
  -41.3255   56.1982   61.4460 C   0  0  0  0  0  0  0  0  0  0  0  0
  -41.1955   56.4068   62.9618 C   0  0  0  0  0  0  0  0  0  0  0  0
  -42.3143   57.2361   63.6190 C   0  0  0  0  0  0  0  0  0  0  0  0
  -42.2199   57.1609   65.1619 C   0  0  0  0  0  0  0  0  0  0  0  0
  -41.9332   58.5072   65.8737 C   0  0  0  0  0  0  0  0  0  0  0  0
  -40.8971   59.3986   65.1494 C   0  0  0  0  0  0  0  0  0  0  0  0
  -39.4470   59.1760   65.6308 C   0  0  0  0  0  0  0  0  0  0  0  0
  -38.6776   58.1325   64.8120 C   0  0  0  0  0  0  0  0  0  0  0  0
  -37.2428   57.8555   65.2559 C   0  0  0  0  0  0  0  0  0  0  0  0
  -36.1750   58.5665   64.4014 C   0  0  0  0  0  0  0  0  0  0  0  0
  -35.7487   57.8175   63.1297 C   0  0  0  0  0  0  0  0  0  0  0  0
  -34.5319   58.4836   62.4809 C   0  0  0  0  0  0  0  0  0  0  0  0
  -33.1700   58.0299   62.9756 C   0  0  0  0  0  0  0  0  0  0  0  0
  -38.9230   60.1746   62.2395 C   0  0  0  0  0  0  0  0  0  0  0  0
  -38.6618   61.5110   62.7386 O   0  0  0  0  0  0  0  0  0  0  0  0
  -36.5728   63.1275   61.6428 O   0  0  0  0  0  0  0  0  0  0  0  0
  -36.3474   64.5641   65.5523 O   0  0  0  0  0  0  0  0  0  0  0  0
  -37.5363   61.8699   64.8575 O   0  0  0  0  0  0  0  0  0  0  0  0
  -37.3923   61.8403   63.4167 C   0  0  0  0  0  0  0  0  0  0  0  0
  -36.7441   63.1762   63.0256 C   0  0  0  0  0  0  0  0  0  0  0  0
  -35.3635   63.4101   63.6774 C   0  0  0  0  0  0  0  0  0  0  0  0
  -35.5957   63.4171   65.1632 C   0  0  0  0  0  0  0  0  0  0  0  0
  -36.3039   62.1403   65.5784 C   0  0  0  0  0  0  0  0  0  0  0  0
  -37.4314   62.9809   61.2157 H   0  0  0  0  0  0  0  0  0  0  0  0
  -35.8775   65.3671   65.2777 H   0  0  0  0  0  0  0  0  0  0  0  0
  -35.3321   63.0350   67.5706 O   0  0  0  0  0  0  0  0  0  0  0  0
  -36.4485   62.3526   67.0838 C   0  0  0  0  0  0  0  0  0  0  0  0
  -35.4263   63.1684   68.5267 H   0  0  0  0  0  0  0  0  0  0  0  0
  -34.7194   64.6662   63.3654 O   0  0  0  0  0  0  0  0  0  0  0  0
  -32.7301   65.6936   62.0602 O   0  0  0  0  0  0  0  0  0  0  0  0
  -34.9812   65.9158   61.1812 O   0  0  0  0  0  0  0  0  0  0  0  0
  -33.8198   63.7933   61.0366 O   0  0  0  0  0  0  0  0  0  0  0  0
  -34.0404   65.0005   61.8825 S   0  0  0  0  0  0  0  0  0  0  0  0
  -32.8539   66.4836   62.6092 H   0  0  0  0  0  0  0  0  0  0  0  0
  -33.2073   63.1907   61.4867 H   0  0  0  0  0  0  0  0  0  0  0  0
  2  1  1  0  0  0
  2  4  1  0  0  0
  2  5  1  0  0  0
 41 42  1  0  0  0
 41  1  1  0  0  0
 42 46  1  0  0  0
  1 24  1  0  0  0
 23 24  1  0  0  0
 23 25  1  0  0  0
 24 26  1  0  0  0
  3  4  2  0  0  0
 26 27  2  0  0  0
 27 28  1  0  0  0
 43 47  1  0  0  0
 43 51  1  0  0  0
 28 29  1  0  0  0
 56 48  1  0  0  0
 56 60  1  0  0  0
 29 30  1  0  0  0
 57 60  1  0  0  0
 57 61  1  0  0  0
 30 31  1  0  0  0
 44 49  1  0  0  0
 44 52  1  0  0  0
 31 32  1  0  0  0
 45 46  1  0  0  0
 45 50  1  0  0  0
 32 33  1  0  0  0
 53 54  1  0  0  0
 53 55  1  0  0  0
 33 34  1  0  0  0
 34 35  1  0  0  0
 35 36  1  0  0  0
 58 60  1  0  0  0
 36 37  1  0  0  0
 59 60  1  0  0  0
 59 62  1  0  0  0
 37 38  1  0  0  0
 38 39  1  0  0  0
 39 40  1  0  0  0
  4  6  1  0  0  0
  6  7  1  0  0  0
  7  8  1  0  0  0
  8  9  1  0  0  0
  9 10  1  0  0  0
 10 11  1  0  0  0
 11 12  1  0  0  0
 12 13  1  0  0  0
 13 14  1  0  0  0
 14 15  1  0  0  0
 15 16  1  0  0  0
 16 17  1  0  0  0
 17 18  1  0  0  0
 18 19  1  0  0  0
 19 20  1  0  0  0
 20 21  1  0  0  0
 21 22  1  0  0  0
 46 47  1  0  0  0
 47 48  1  0  0  0
 48 49  1  0  0  0
 49 50  1  0  0  0
 50 54  1  0  0  0
M  CHG 1  58  -1
M  END
> <minimizedAffinity>
-8.83589

> <CNNscore>
0.1443874836

> <CNNaffinity>
7.1911268234

> <CNN_VS>
1.0383087397

> <CNNaffinity_variance>
1.6480922699

$$$$
