/media/chris/experiments/cd1a-new-docking/inputs/ligands/1onq_ligand.pdb


 62 62  0  0  0  0  0  0  0  0999 V2000
  -41.6489   60.0370   65.2904 C   0  0  0  0  0  0  0  0  0  0  0  0
  -41.9124   58.7301   64.7215 N   0  0  0  0  0  0  0  0  0  0  0  0
  -42.6347   57.5628   66.5280 O   0  0  0  0  0  0  0  0  0  0  0  0
  -42.3651   57.6336   65.3447 C   0  0  0  0  0  0  0  0  0  0  0  0
  -41.7369   58.6363   63.7573 H   0  0  0  0  0  0  0  0  0  0  0  0
  -42.5429   56.4295   64.4681 C   0  0  0  0  0  0  0  0  0  0  0  0
  -41.1712   56.1262   63.8652 C   0  0  0  0  0  0  0  0  0  0  0  0
  -41.2901   55.9696   62.3510 C   0  0  0  0  0  0  0  0  0  0  0  0
  -41.7975   57.1748   61.5972 C   0  0  0  0  0  0  0  0  0  0  0  0
  -41.3816   57.0149   60.1387 C   0  0  0  0  0  0  0  0  0  0  0  0
  -40.8644   58.3219   59.5228 C   0  0  0  0  0  0  0  0  0  0  0  0
  -39.3566   58.3205   59.2113 C   0  0  0  0  0  0  0  0  0  0  0  0
  -38.5356   59.1611   60.2137 C   0  0  0  0  0  0  0  0  0  0  0  0
  -37.4183   58.3190   60.8365 C   0  0  0  0  0  0  0  0  0  0  0  0
  -37.8495   57.4347   62.0003 C   0  0  0  0  0  0  0  0  0  0  0  0
  -38.3952   58.2429   63.1681 C   0  0  0  0  0  0  0  0  0  0  0  0
  -37.8319   57.8935   64.5475 C   0  0  0  0  0  0  0  0  0  0  0  0
  -36.3321   57.6712   64.4066 C   0  0  0  0  0  0  0  0  0  0  0  0
  -35.4069   58.8775   64.4686 C   0  0  0  0  0  0  0  0  0  0  0  0
  -34.6441   59.0539   63.1460 C   0  0  0  0  0  0  0  0  0  0  0  0
  -33.3675   58.2012   63.0265 C   0  0  0  0  0  0  0  0  0  0  0  0
  -32.0847   59.0004   63.2441 C   0  0  0  0  0  0  0  0  0  0  0  0
  -42.4396   62.2065   65.0378 O   0  0  0  0  0  0  0  0  0  0  0  0
  -42.4167   60.9627   64.3624 C   0  0  0  0  0  0  0  0  0  0  0  0
  -41.5315   62.5251   65.1597 H   0  0  0  0  0  0  0  0  0  0  0  0
  -43.8232   60.4027   64.1375 C   0  0  0  0  0  0  0  0  0  0  0  0
  -44.8919   60.8008   64.8486 C   0  0  0  0  0  0  0  0  0  0  0  0
  -46.2638   60.1925   64.5642 C   0  0  0  0  0  0  0  0  0  0  0  0
  -46.5523   58.9104   65.3588 C   0  0  0  0  0  0  0  0  0  0  0  0
  -48.0343   58.5025   65.4509 C   0  0  0  0  0  0  0  0  0  0  0  0
  -48.9138   59.7137   65.8445 C   0  0  0  0  0  0  0  0  0  0  0  0
  -50.4347   59.5309   65.6100 C   0  0  0  0  0  0  0  0  0  0  0  0
  -50.9945   60.3458   64.4203 C   0  0  0  0  0  0  0  0  0  0  0  0
  -51.1775   59.5129   63.1331 C   0  0  0  0  0  0  0  0  0  0  0  0
  -50.0924   59.7598   62.0781 C   0  0  0  0  0  0  0  0  0  0  0  0
  -48.9948   58.7022   61.9836 C   0  0  0  0  0  0  0  0  0  0  0  0
  -49.0322   57.8759   60.6829 C   0  0  0  0  0  0  0  0  0  0  0  0
  -48.8691   58.6858   59.3877 C   0  0  0  0  0  0  0  0  0  0  0  0
  -48.3810   57.7962   58.2407 C   0  0  0  0  0  0  0  0  0  0  0  0
  -47.1232   58.2511   57.5218 C   0  0  0  0  0  0  0  0  0  0  0  0
  -40.1593   60.3684   65.5355 C   0  0  0  0  0  0  0  0  0  0  0  0
  -39.5332   61.2749   64.5923 O   0  0  0  0  0  0  0  0  0  0  0  0
  -37.8375   61.6144   62.3149 O   0  0  0  0  0  0  0  0  0  0  0  0
  -36.1263   64.5885   64.6868 O   0  0  0  0  0  0  0  0  0  0  0  0
  -37.7062   62.2772   65.8345 O   0  0  0  0  0  0  0  0  0  0  0  0
  -38.0831   61.5485   64.6410 C   0  0  0  0  0  0  0  0  0  0  0  0
  -37.5047   62.3392   63.4586 C   0  0  0  0  0  0  0  0  0  0  0  0
  -35.9686   62.4917   63.5063 C   0  0  0  0  0  0  0  0  0  0  0  0
  -35.6599   63.2441   64.7712 C   0  0  0  0  0  0  0  0  0  0  0  0
  -36.2806   62.5301   65.9581 C   0  0  0  0  0  0  0  0  0  0  0  0
  -38.8006   61.5085   62.2681 H   0  0  0  0  0  0  0  0  0  0  0  0
  -35.7178   65.0250   63.9229 H   0  0  0  0  0  0  0  0  0  0  0  0
  -36.2684   62.8822   68.3224 O   0  0  0  0  0  0  0  0  0  0  0  0
  -35.8660   63.4439   67.1094 C   0  0  0  0  0  0  0  0  0  0  0  0
  -36.0040   63.4644   69.0518 H   0  0  0  0  0  0  0  0  0  0  0  0
  -35.3728   63.2522   62.4307 O   0  0  0  0  0  0  0  0  0  0  0  0
  -32.9847   62.3433   62.8640 O   0  0  0  0  0  0  0  0  0  0  0  0
  -33.4165   64.7221   63.0736 O   0  0  0  0  0  0  0  0  0  0  0  0
  -33.2758   63.6969   60.8819 O   0  0  0  0  0  0  0  0  0  0  0  0
  -33.7327   63.4991   62.2867 S   0  0  0  0  0  0  0  0  0  0  0  0
  -33.2693   62.1991   63.7801 H   0  0  0  0  0  0  0  0  0  0  0  0
  -33.4780   62.9037   60.3614 H   0  0  0  0  0  0  0  0  0  0  0  0
  2  1  1  0  0  0
  2  4  1  0  0  0
  2  5  1  0  0  0
 41 42  1  0  0  0
 41  1  1  0  0  0
 42 46  1  0  0  0
  1 24  1  0  0  0
 23 24  1  0  0  0
 23 25  1  0  0  0
 24 26  1  0  0  0
  3  4  2  0  0  0
 26 27  2  0  0  0
 27 28  1  0  0  0
 43 47  1  0  0  0
 43 51  1  0  0  0
 28 29  1  0  0  0
 56 48  1  0  0  0
 56 60  1  0  0  0
 29 30  1  0  0  0
 57 60  1  0  0  0
 57 61  1  0  0  0
 30 31  1  0  0  0
 44 49  1  0  0  0
 44 52  1  0  0  0
 31 32  1  0  0  0
 45 46  1  0  0  0
 45 50  1  0  0  0
 32 33  1  0  0  0
 53 54  1  0  0  0
 53 55  1  0  0  0
 33 34  1  0  0  0
 34 35  1  0  0  0
 35 36  1  0  0  0
 58 60  1  0  0  0
 36 37  1  0  0  0
 59 60  1  0  0  0
 59 62  1  0  0  0
 37 38  1  0  0  0
 38 39  1  0  0  0
 39 40  1  0  0  0
  4  6  1  0  0  0
  6  7  1  0  0  0
  7  8  1  0  0  0
  8  9  1  0  0  0
  9 10  1  0  0  0
 10 11  1  0  0  0
 11 12  1  0  0  0
 12 13  1  0  0  0
 13 14  1  0  0  0
 14 15  1  0  0  0
 15 16  1  0  0  0
 16 17  1  0  0  0
 17 18  1  0  0  0
 18 19  1  0  0  0
 19 20  1  0  0  0
 20 21  1  0  0  0
 21 22  1  0  0  0
 46 47  1  0  0  0
 47 48  1  0  0  0
 48 49  1  0  0  0
 49 50  1  0  0  0
 50 54  1  0  0  0
M  CHG 1  58  -1
M  END
> <minimizedAffinity>
-9.63872

> <CNNscore>
0.3285059035

> <CNNaffinity>
7.2066612244

> <CNN_VS>
2.3674306870

> <CNNaffinity_variance>
2.2250103951

$$$$
/media/chris/experiments/cd1a-new-docking/inputs/ligands/1onq_ligand.pdb


 62 62  0  0  0  0  0  0  0  0999 V2000
  -42.3283   59.9513   65.1101 C   0  0  0  0  0  0  0  0  0  0  0  0
  -43.3986   59.2286   65.7684 N   0  0  0  0  0  0  0  0  0  0  0  0
  -42.4793   57.1740   66.0529 O   0  0  0  0  0  0  0  0  0  0  0  0
  -43.4049   57.9523   66.1765 C   0  0  0  0  0  0  0  0  0  0  0  0
  -44.2235   59.7390   65.9365 H   0  0  0  0  0  0  0  0  0  0  0  0
  -44.6732   57.5006   66.8377 C   0  0  0  0  0  0  0  0  0  0  0  0
  -45.8140   57.8864   65.8959 C   0  0  0  0  0  0  0  0  0  0  0  0
  -46.8102   58.7855   66.6243 C   0  0  0  0  0  0  0  0  0  0  0  0
  -47.3427   59.9590   65.8382 C   0  0  0  0  0  0  0  0  0  0  0  0
  -47.9648   59.4118   64.5578 C   0  0  0  0  0  0  0  0  0  0  0  0
  -49.2054   58.5483   64.8233 C   0  0  0  0  0  0  0  0  0  0  0  0
  -50.4123   59.3286   65.3755 C   0  0  0  0  0  0  0  0  0  0  0  0
  -51.0980   60.2085   64.3074 C   0  0  0  0  0  0  0  0  0  0  0  0
  -51.1131   59.4980   62.9509 C   0  0  0  0  0  0  0  0  0  0  0  0
  -50.2663   60.1563   61.8685 C   0  0  0  0  0  0  0  0  0  0  0  0
  -49.6182   59.1373   60.9430 C   0  0  0  0  0  0  0  0  0  0  0  0
  -50.1182   57.6970   61.0754 C   0  0  0  0  0  0  0  0  0  0  0  0
  -49.3490   56.8334   60.0848 C   0  0  0  0  0  0  0  0  0  0  0  0
  -47.9803   57.3045   59.6158 C   0  0  0  0  0  0  0  0  0  0  0  0
  -47.3429   56.2801   58.6636 C   0  0  0  0  0  0  0  0  0  0  0  0
  -47.1712   56.7748   57.2156 C   0  0  0  0  0  0  0  0  0  0  0  0
  -46.9693   58.2849   57.1131 C   0  0  0  0  0  0  0  0  0  0  0  0
  -42.0272   61.8097   66.4709 O   0  0  0  0  0  0  0  0  0  0  0  0
  -41.5295   60.4983   66.2807 C   0  0  0  0  0  0  0  0  0  0  0  0
  -42.9705   61.7683   66.6935 H   0  0  0  0  0  0  0  0  0  0  0  0
  -40.0408   60.4924   65.9255 C   0  0  0  0  0  0  0  0  0  0  0  0
  -39.4550   59.4933   65.2435 C   0  0  0  0  0  0  0  0  0  0  0  0
  -37.9619   59.5611   64.9284 C   0  0  0  0  0  0  0  0  0  0  0  0
  -37.3398   58.2035   64.5705 C   0  0  0  0  0  0  0  0  0  0  0  0
  -35.8007   58.1625   64.5413 C   0  0  0  0  0  0  0  0  0  0  0  0
  -35.2922   57.5791   63.2010 C   0  0  0  0  0  0  0  0  0  0  0  0
  -34.0649   58.3004   62.5887 C   0  0  0  0  0  0  0  0  0  0  0  0
  -32.8640   58.4373   63.5540 C   0  0  0  0  0  0  0  0  0  0  0  0
  -31.7714   59.4035   63.0472 C   0  0  0  0  0  0  0  0  0  0  0  0
  -32.3192   60.5872   62.2409 C   0  0  0  0  0  0  0  0  0  0  0  0
  -32.0578   61.9746   62.8232 C   0  0  0  0  0  0  0  0  0  0  0  0
  -33.3337   62.7195   63.2628 C   0  0  0  0  0  0  0  0  0  0  0  0
  -34.4956   61.8199   63.7109 C   0  0  0  0  0  0  0  0  0  0  0  0
  -34.4253   61.5390   65.2146 C   0  0  0  0  0  0  0  0  0  0  0  0
  -35.5255   62.1460   66.0670 C   0  0  0  0  0  0  0  0  0  0  0  0
  -42.7742   60.9646   64.0316 C   0  0  0  0  0  0  0  0  0  0  0  0
  -42.0852   60.9000   62.7571 O   0  0  0  0  0  0  0  0  0  0  0  0
  -40.9619   60.6140   60.1430 O   0  0  0  0  0  0  0  0  0  0  0  0
  -39.4203   57.0919   61.7608 O   0  0  0  0  0  0  0  0  0  0  0  0
  -41.8577   58.4881   62.8856 O   0  0  0  0  0  0  0  0  0  0  0  0
  -41.9809   59.6327   62.0068 C   0  0  0  0  0  0  0  0  0  0  0  0
  -40.8175   59.5315   61.0098 C   0  0  0  0  0  0  0  0  0  0  0  0
  -40.8294   58.2341   60.1720 C   0  0  0  0  0  0  0  0  0  0  0  0
  -40.7090   57.0998   61.1517 C   0  0  0  0  0  0  0  0  0  0  0  0
  -41.8017   57.2082   62.1998 C   0  0  0  0  0  0  0  0  0  0  0  0
  -40.9566   61.4394   60.6526 H   0  0  0  0  0  0  0  0  0  0  0  0
  -38.7386   57.0222   61.0742 H   0  0  0  0  0  0  0  0  0  0  0  0
  -41.2290   54.8885   62.2734 O   0  0  0  0  0  0  0  0  0  0  0  0
  -41.4966   55.9971   63.0787 C   0  0  0  0  0  0  0  0  0  0  0  0
  -41.0356   54.1209   62.8339 H   0  0  0  0  0  0  0  0  0  0  0  0
  -39.7397   58.0737   59.2355 O   0  0  0  0  0  0  0  0  0  0  0  0
  -37.6258   58.9198   57.9975 O   0  0  0  0  0  0  0  0  0  0  0  0
  -37.4766   58.3103   60.3417 O   0  0  0  0  0  0  0  0  0  0  0  0
  -38.5407   60.3873   59.6873 O   0  0  0  0  0  0  0  0  0  0  0  0
  -38.3324   58.9600   59.3120 S   0  0  0  0  0  0  0  0  0  0  0  0
  -37.4812   57.9969   57.7363 H   0  0  0  0  0  0  0  0  0  0  0  0
  -39.0979   60.8189   59.0209 H   0  0  0  0  0  0  0  0  0  0  0  0
  2  1  1  0  0  0
  2  4  1  0  0  0
  2  5  1  0  0  0
 41 42  1  0  0  0
 41  1  1  0  0  0
 42 46  1  0  0  0
  1 24  1  0  0  0
 23 24  1  0  0  0
 23 25  1  0  0  0
 24 26  1  0  0  0
  3  4  2  0  0  0
 26 27  2  0  0  0
 27 28  1  0  0  0
 43 47  1  0  0  0
 43 51  1  0  0  0
 28 29  1  0  0  0
 56 48  1  0  0  0
 56 60  1  0  0  0
 29 30  1  0  0  0
 57 60  1  0  0  0
 57 61  1  0  0  0
 30 31  1  0  0  0
 44 49  1  0  0  0
 44 52  1  0  0  0
 31 32  1  0  0  0
 45 46  1  0  0  0
 45 50  1  0  0  0
 32 33  1  0  0  0
 53 54  1  0  0  0
 53 55  1  0  0  0
 33 34  1  0  0  0
 34 35  1  0  0  0
 35 36  1  0  0  0
 58 60  1  0  0  0
 36 37  1  0  0  0
 59 60  1  0  0  0
 59 62  1  0  0  0
 37 38  1  0  0  0
 38 39  1  0  0  0
 39 40  1  0  0  0
  4  6  1  0  0  0
  6  7  1  0  0  0
  7  8  1  0  0  0
  8  9  1  0  0  0
  9 10  1  0  0  0
 10 11  1  0  0  0
 11 12  1  0  0  0
 12 13  1  0  0  0
 13 14  1  0  0  0
 14 15  1  0  0  0
 15 16  1  0  0  0
 16 17  1  0  0  0
 17 18  1  0  0  0
 18 19  1  0  0  0
 19 20  1  0  0  0
 20 21  1  0  0  0
 21 22  1  0  0  0
 46 47  1  0  0  0
 47 48  1  0  0  0
 48 49  1  0  0  0
 49 50  1  0  0  0
 50 54  1  0  0  0
M  CHG 1  58  -1
M  END
> <minimizedAffinity>
-9.26987

> <CNNscore>
0.1959738880

> <CNNaffinity>
6.9900512695

> <CNN_VS>
1.3698675632

> <CNNaffinity_variance>
2.1684081554

$$$$
/media/chris/experiments/cd1a-new-docking/inputs/ligands/1onq_ligand.pdb


 62 62  0  0  0  0  0  0  0  0999 V2000
  -40.4199   60.1857   63.9342 C   0  0  0  0  0  0  0  0  0  0  0  0
  -41.6895   60.8118   64.2458 N   0  0  0  0  0  0  0  0  0  0  0  0
  -42.6572   60.9672   62.1997 O   0  0  0  0  0  0  0  0  0  0  0  0
  -42.6757   61.1450   63.4021 C   0  0  0  0  0  0  0  0  0  0  0  0
  -41.8469   61.0178   65.1956 H   0  0  0  0  0  0  0  0  0  0  0  0
  -43.8765   61.7761   64.0422 C   0  0  0  0  0  0  0  0  0  0  0  0
  -44.1799   60.9564   65.2964 C   0  0  0  0  0  0  0  0  0  0  0  0
  -45.5484   60.2919   65.1669 C   0  0  0  0  0  0  0  0  0  0  0  0
  -46.0855   59.6307   66.4130 C   0  0  0  0  0  0  0  0  0  0  0  0
  -47.6027   59.5563   66.2779 C   0  0  0  0  0  0  0  0  0  0  0  0
  -48.0631   58.3869   65.3973 C   0  0  0  0  0  0  0  0  0  0  0  0
  -49.5919   58.2403   65.2895 C   0  0  0  0  0  0  0  0  0  0  0  0
  -50.3487   59.5205   65.7066 C   0  0  0  0  0  0  0  0  0  0  0  0
  -50.8949   60.2500   64.4758 C   0  0  0  0  0  0  0  0  0  0  0  0
  -49.9353   60.3300   63.2948 C   0  0  0  0  0  0  0  0  0  0  0  0
  -50.5535   59.7957   62.0114 C   0  0  0  0  0  0  0  0  0  0  0  0
  -50.8993   58.3048   62.0030 C   0  0  0  0  0  0  0  0  0  0  0  0
  -49.9464   57.6008   61.0464 C   0  0  0  0  0  0  0  0  0  0  0  0
  -49.9888   57.9704   59.5711 C   0  0  0  0  0  0  0  0  0  0  0  0
  -48.6655   58.6138   59.1272 C   0  0  0  0  0  0  0  0  0  0  0  0
  -47.7046   57.6583   58.3958 C   0  0  0  0  0  0  0  0  0  0  0  0
  -47.0083   58.3014   57.1987 C   0  0  0  0  0  0  0  0  0  0  0  0
  -39.9355   61.0633   66.0297 O   0  0  0  0  0  0  0  0  0  0  0  0
  -39.8718   59.8463   65.3096 C   0  0  0  0  0  0  0  0  0  0  0  0
  -40.8591   61.3527   66.0944 H   0  0  0  0  0  0  0  0  0  0  0  0
  -38.4367   59.3328   65.1709 C   0  0  0  0  0  0  0  0  0  0  0  0
  -38.1421   58.0711   64.8133 C   0  0  0  0  0  0  0  0  0  0  0  0
  -36.6829   57.6347   64.6976 C   0  0  0  0  0  0  0  0  0  0  0  0
  -36.1543   57.6082   63.2561 C   0  0  0  0  0  0  0  0  0  0  0  0
  -37.2163   57.4018   62.1603 C   0  0  0  0  0  0  0  0  0  0  0  0
  -37.3840   58.6838   61.3096 C   0  0  0  0  0  0  0  0  0  0  0  0
  -38.1299   58.4925   59.9647 C   0  0  0  0  0  0  0  0  0  0  0  0
  -39.6501   58.7683   60.0387 C   0  0  0  0  0  0  0  0  0  0  0  0
  -40.5161   57.4990   59.8869 C   0  0  0  0  0  0  0  0  0  0  0  0
  -41.4711   57.2586   61.0623 C   0  0  0  0  0  0  0  0  0  0  0  0
  -41.0098   56.2428   62.1053 C   0  0  0  0  0  0  0  0  0  0  0  0
  -41.4324   56.5896   63.5465 C   0  0  0  0  0  0  0  0  0  0  0  0
  -42.7301   57.4023   63.6708 C   0  0  0  0  0  0  0  0  0  0  0  0
  -43.3909   57.1781   65.0339 C   0  0  0  0  0  0  0  0  0  0  0  0
  -42.6449   57.7154   66.2424 C   0  0  0  0  0  0  0  0  0  0  0  0
  -39.4959   60.9882   62.9902 C   0  0  0  0  0  0  0  0  0  0  0  0
  -38.8741   62.1747   63.5460 O   0  0  0  0  0  0  0  0  0  0  0  0
  -36.7326   62.8261   61.7665 O   0  0  0  0  0  0  0  0  0  0  0  0
  -35.2175   64.7623   65.1362 O   0  0  0  0  0  0  0  0  0  0  0  0
  -37.2338   62.5123   65.3013 O   0  0  0  0  0  0  0  0  0  0  0  0
  -37.4419   62.1920   63.9042 C   0  0  0  0  0  0  0  0  0  0  0  0
  -36.5580   63.1629   63.1082 C   0  0  0  0  0  0  0  0  0  0  0  0
  -35.0548   63.0514   63.4447 C   0  0  0  0  0  0  0  0  0  0  0  0
  -34.9248   63.3866   64.9048 C   0  0  0  0  0  0  0  0  0  0  0  0
  -35.8426   62.4940   65.7204 C   0  0  0  0  0  0  0  0  0  0  0  0
  -37.6728   62.8907   61.5366 H   0  0  0  0  0  0  0  0  0  0  0  0
  -34.6205   65.3134   64.6062 H   0  0  0  0  0  0  0  0  0  0  0  0
  -36.4409   64.0434   67.4395 O   0  0  0  0  0  0  0  0  0  0  0  0
  -35.5694   62.9957   67.1367 C   0  0  0  0  0  0  0  0  0  0  0  0
  -36.2654   64.3602   68.3393 H   0  0  0  0  0  0  0  0  0  0  0  0
  -34.1785   63.9629   62.7436 O   0  0  0  0  0  0  0  0  0  0  0  0
  -32.6918   62.0281   61.8698 O   0  0  0  0  0  0  0  0  0  0  0  0
  -31.6747   63.8610   63.0926 O   0  0  0  0  0  0  0  0  0  0  0  0
  -32.3970   64.1766   60.8006 O   0  0  0  0  0  0  0  0  0  0  0  0
  -32.7168   63.5042   62.0918 S   0  0  0  0  0  0  0  0  0  0  0  0
  -32.8980   61.5726   62.7010 H   0  0  0  0  0  0  0  0  0  0  0  0
  -33.0718   63.9493   60.1419 H   0  0  0  0  0  0  0  0  0  0  0  0
  2  1  1  0  0  0
  2  4  1  0  0  0
  2  5  1  0  0  0
 41 42  1  0  0  0
 41  1  1  0  0  0
 42 46  1  0  0  0
  1 24  1  0  0  0
 23 24  1  0  0  0
 23 25  1  0  0  0
 24 26  1  0  0  0
  3  4  2  0  0  0
 26 27  2  0  0  0
 27 28  1  0  0  0
 43 47  1  0  0  0
 43 51  1  0  0  0
 28 29  1  0  0  0
 56 48  1  0  0  0
 56 60  1  0  0  0
 29 30  1  0  0  0
 57 60  1  0  0  0
 57 61  1  0  0  0
 30 31  1  0  0  0
 44 49  1  0  0  0
 44 52  1  0  0  0
 31 32  1  0  0  0
 45 46  1  0  0  0
 45 50  1  0  0  0
 32 33  1  0  0  0
 53 54  1  0  0  0
 53 55  1  0  0  0
 33 34  1  0  0  0
 34 35  1  0  0  0
 35 36  1  0  0  0
 58 60  1  0  0  0
 36 37  1  0  0  0
 59 60  1  0  0  0
 59 62  1  0  0  0
 37 38  1  0  0  0
 38 39  1  0  0  0
 39 40  1  0  0  0
  4  6  1  0  0  0
  6  7  1  0  0  0
  7  8  1  0  0  0
  8  9  1  0  0  0
  9 10  1  0  0  0
 10 11  1  0  0  0
 11 12  1  0  0  0
 12 13  1  0  0  0
 13 14  1  0  0  0
 14 15  1  0  0  0
 15 16  1  0  0  0
 16 17  1  0  0  0
 17 18  1  0  0  0
 18 19  1  0  0  0
 19 20  1  0  0  0
 20 21  1  0  0  0
 21 22  1  0  0  0
 46 47  1  0  0  0
 47 48  1  0  0  0
 48 49  1  0  0  0
 49 50  1  0  0  0
 50 54  1  0  0  0
M  CHG 1  58  -1
M  END
> <minimizedAffinity>
-9.72715

> <CNNscore>
0.1803902388

> <CNNaffinity>
7.2152428627

> <CNN_VS>
1.3015593290

> <CNNaffinity_variance>
1.4237588644

$$$$
/media/chris/experiments/cd1a-new-docking/inputs/ligands/1onq_ligand.pdb


 62 62  0  0  0  0  0  0  0  0999 V2000
  -41.2441   60.6991   63.5399 C   0  0  0  0  0  0  0  0  0  0  0  0
  -41.4104   59.2743   63.7485 N   0  0  0  0  0  0  0  0  0  0  0  0
  -39.7579   58.8158   65.2339 O   0  0  0  0  0  0  0  0  0  0  0  0
  -40.6937   58.4660   64.5412 C   0  0  0  0  0  0  0  0  0  0  0  0
  -42.1409   58.8474   63.2451 H   0  0  0  0  0  0  0  0  0  0  0  0
  -41.1249   57.0293   64.5440 C   0  0  0  0  0  0  0  0  0  0  0  0
  -42.0147   56.8417   63.3151 C   0  0  0  0  0  0  0  0  0  0  0  0
  -41.3854   55.8247   62.3659 C   0  0  0  0  0  0  0  0  0  0  0  0
  -41.2437   56.2592   60.9273 C   0  0  0  0  0  0  0  0  0  0  0  0
  -41.8575   57.6499   60.8032 C   0  0  0  0  0  0  0  0  0  0  0  0
  -41.2441   58.4689   59.6596 C   0  0  0  0  0  0  0  0  0  0  0  0
  -39.8432   57.9995   59.2266 C   0  0  0  0  0  0  0  0  0  0  0  0
  -38.7606   59.0843   59.4177 C   0  0  0  0  0  0  0  0  0  0  0  0
  -37.6343   58.5703   60.3190 C   0  0  0  0  0  0  0  0  0  0  0  0
  -38.0949   57.8864   61.6005 C   0  0  0  0  0  0  0  0  0  0  0  0
  -36.9284   57.3840   62.4382 C   0  0  0  0  0  0  0  0  0  0  0  0
  -36.7816   58.0089   63.8274 C   0  0  0  0  0  0  0  0  0  0  0  0
  -35.4200   58.6864   63.9029 C   0  0  0  0  0  0  0  0  0  0  0  0
  -34.3532   58.0815   64.8035 C   0  0  0  0  0  0  0  0  0  0  0  0
  -32.9813   58.7209   64.5369 C   0  0  0  0  0  0  0  0  0  0  0  0
  -32.8596   59.4261   63.1734 C   0  0  0  0  0  0  0  0  0  0  0  0
  -31.4145   59.6875   62.7554 C   0  0  0  0  0  0  0  0  0  0  0  0
  -42.6557   62.4560   64.1025 O   0  0  0  0  0  0  0  0  0  0  0  0
  -42.6789   61.1923   63.4651 C   0  0  0  0  0  0  0  0  0  0  0  0
  -42.0658   63.0528   63.6157 H   0  0  0  0  0  0  0  0  0  0  0  0
  -43.5944   60.1998   64.1856 C   0  0  0  0  0  0  0  0  0  0  0  0
  -44.5912   60.5830   65.0016 C   0  0  0  0  0  0  0  0  0  0  0  0
  -45.4613   59.5301   65.6852 C   0  0  0  0  0  0  0  0  0  0  0  0
  -46.9696   59.7698   65.5238 C   0  0  0  0  0  0  0  0  0  0  0  0
  -47.6442   59.0143   64.3639 C   0  0  0  0  0  0  0  0  0  0  0  0
  -49.1781   58.9593   64.5627 C   0  0  0  0  0  0  0  0  0  0  0  0
  -49.9843   60.0335   63.7897 C   0  0  0  0  0  0  0  0  0  0  0  0
  -51.1772   59.4705   62.9817 C   0  0  0  0  0  0  0  0  0  0  0  0
  -50.8380   58.1874   62.1928 C   0  0  0  0  0  0  0  0  0  0  0  0
  -49.9781   58.4368   60.9478 C   0  0  0  0  0  0  0  0  0  0  0  0
  -49.5351   57.1946   60.1779 C   0  0  0  0  0  0  0  0  0  0  0  0
  -48.1236   57.3060   59.5687 C   0  0  0  0  0  0  0  0  0  0  0  0
  -47.9749   58.3443   58.4462 C   0  0  0  0  0  0  0  0  0  0  0  0
  -47.5975   57.6728   57.1226 C   0  0  0  0  0  0  0  0  0  0  0  0
  -47.1455   56.2256   57.2046 C   0  0  0  0  0  0  0  0  0  0  0  0
  -40.3049   61.0967   62.3786 C   0  0  0  0  0  0  0  0  0  0  0  0
  -38.8831   60.9251   62.6070 O   0  0  0  0  0  0  0  0  0  0  0  0
  -38.1234   61.2775   65.3412 O   0  0  0  0  0  0  0  0  0  0  0  0
  -34.4969   62.4391   63.6389 O   0  0  0  0  0  0  0  0  0  0  0  0
  -37.1206   62.5237   62.1341 O   0  0  0  0  0  0  0  0  0  0  0  0
  -38.0525   62.0296   63.1266 C   0  0  0  0  0  0  0  0  0  0  0  0
  -37.2175   61.7169   64.3767 C   0  0  0  0  0  0  0  0  0  0  0  0
  -36.4634   62.9407   64.9412 C   0  0  0  0  0  0  0  0  0  0  0  0
  -35.5298   63.3974   63.8544 C   0  0  0  0  0  0  0  0  0  0  0  0
  -36.3113   63.6464   62.5771 C   0  0  0  0  0  0  0  0  0  0  0  0
  -38.6073   60.5076   65.0034 H   0  0  0  0  0  0  0  0  0  0  0  0
  -34.0113   62.2955   64.4662 H   0  0  0  0  0  0  0  0  0  0  0  0
  -35.6302   63.9349   60.3040 O   0  0  0  0  0  0  0  0  0  0  0  0
  -35.1997   64.0802   61.6241 C   0  0  0  0  0  0  0  0  0  0  0  0
  -34.9225   64.2110   59.7009 H   0  0  0  0  0  0  0  0  0  0  0  0
  -35.6385   62.6969   66.1033 O   0  0  0  0  0  0  0  0  0  0  0  0
  -35.7232   64.7499   67.6829 O   0  0  0  0  0  0  0  0  0  0  0  0
  -34.1531   64.7271   65.8326 O   0  0  0  0  0  0  0  0  0  0  0  0
  -33.7332   63.3820   67.8047 O   0  0  0  0  0  0  0  0  0  0  0  0
  -34.7913   63.8955   66.8891 S   0  0  0  0  0  0  0  0  0  0  0  0
  -36.4201   65.0939   67.1025 H   0  0  0  0  0  0  0  0  0  0  0  0
  -34.1407   62.8385   68.4971 H   0  0  0  0  0  0  0  0  0  0  0  0
  2  1  1  0  0  0
  2  4  1  0  0  0
  2  5  1  0  0  0
 41 42  1  0  0  0
 41  1  1  0  0  0
 42 46  1  0  0  0
  1 24  1  0  0  0
 23 24  1  0  0  0
 23 25  1  0  0  0
 24 26  1  0  0  0
  3  4  2  0  0  0
 26 27  2  0  0  0
 27 28  1  0  0  0
 43 47  1  0  0  0
 43 51  1  0  0  0
 28 29  1  0  0  0
 56 48  1  0  0  0
 56 60  1  0  0  0
 29 30  1  0  0  0
 57 60  1  0  0  0
 57 61  1  0  0  0
 30 31  1  0  0  0
 44 49  1  0  0  0
 44 52  1  0  0  0
 31 32  1  0  0  0
 45 46  1  0  0  0
 45 50  1  0  0  0
 32 33  1  0  0  0
 53 54  1  0  0  0
 53 55  1  0  0  0
 33 34  1  0  0  0
 34 35  1  0  0  0
 35 36  1  0  0  0
 58 60  1  0  0  0
 36 37  1  0  0  0
 59 60  1  0  0  0
 59 62  1  0  0  0
 37 38  1  0  0  0
 38 39  1  0  0  0
 39 40  1  0  0  0
  4  6  1  0  0  0
  6  7  1  0  0  0
  7  8  1  0  0  0
  8  9  1  0  0  0
  9 10  1  0  0  0
 10 11  1  0  0  0
 11 12  1  0  0  0
 12 13  1  0  0  0
 13 14  1  0  0  0
 14 15  1  0  0  0
 15 16  1  0  0  0
 16 17  1  0  0  0
 17 18  1  0  0  0
 18 19  1  0  0  0
 19 20  1  0  0  0
 20 21  1  0  0  0
 21 22  1  0  0  0
 46 47  1  0  0  0
 47 48  1  0  0  0
 48 49  1  0  0  0
 49 50  1  0  0  0
 50 54  1  0  0  0
M  CHG 1  58  -1
M  END
> <minimizedAffinity>
-9.66251

> <CNNscore>
0.1791101843

> <CNNaffinity>
7.0717720985

> <CNN_VS>
1.2666263580

> <CNNaffinity_variance>
1.3840982914

$$$$
/media/chris/experiments/cd1a-new-docking/inputs/ligands/1onq_ligand.pdb


 62 62  0  0  0  0  0  0  0  0999 V2000
  -41.5651   60.2510   65.0584 C   0  0  0  0  0  0  0  0  0  0  0  0
  -41.8563   60.5149   63.6632 N   0  0  0  0  0  0  0  0  0  0  0  0
  -42.5195   62.6839   63.7186 O   0  0  0  0  0  0  0  0  0  0  0  0
  -42.2922   61.6555   63.1114 C   0  0  0  0  0  0  0  0  0  0  0  0
  -41.7164   59.7624   63.0439 H   0  0  0  0  0  0  0  0  0  0  0  0
  -42.4919   61.6095   61.6255 C   0  0  0  0  0  0  0  0  0  0  0  0
  -41.1338   61.2603   61.0166 C   0  0  0  0  0  0  0  0  0  0  0  0
  -41.3022   60.1796   59.9512 C   0  0  0  0  0  0  0  0  0  0  0  0
  -40.0696   59.3715   59.6254 C   0  0  0  0  0  0  0  0  0  0  0  0
  -40.5171   57.9403   59.3472 C   0  0  0  0  0  0  0  0  0  0  0  0
  -41.5528   57.4351   60.3607 C   0  0  0  0  0  0  0  0  0  0  0  0
  -40.9697   56.5344   61.4648 C   0  0  0  0  0  0  0  0  0  0  0  0
  -40.7788   57.2758   62.8062 C   0  0  0  0  0  0  0  0  0  0  0  0
  -39.3710   57.8714   62.8984 C   0  0  0  0  0  0  0  0  0  0  0  0
  -38.2973   57.1111   62.1294 C   0  0  0  0  0  0  0  0  0  0  0  0
  -37.3080   58.0428   61.4454 C   0  0  0  0  0  0  0  0  0  0  0  0
  -36.2331   58.6576   62.3447 C   0  0  0  0  0  0  0  0  0  0  0  0
  -35.4882   57.5251   63.0382 C   0  0  0  0  0  0  0  0  0  0  0  0
  -35.1696   57.6612   64.5198 C   0  0  0  0  0  0  0  0  0  0  0  0
  -34.2466   58.8633   64.7755 C   0  0  0  0  0  0  0  0  0  0  0  0
  -32.7519   58.5836   64.5334 C   0  0  0  0  0  0  0  0  0  0  0  0
  -32.2372   59.1517   63.2128 C   0  0  0  0  0  0  0  0  0  0  0  0
  -42.2185   61.2520   67.0501 O   0  0  0  0  0  0  0  0  0  0  0  0
  -42.7273   60.9206   65.7715 C   0  0  0  0  0  0  0  0  0  0  0  0
  -41.4780   61.8711   66.9529 H   0  0  0  0  0  0  0  0  0  0  0  0
  -43.9023   59.9433   65.8540 C   0  0  0  0  0  0  0  0  0  0  0  0
  -45.0450   60.1130   65.1672 C   0  0  0  0  0  0  0  0  0  0  0  0
  -46.1730   59.0922   65.3041 C   0  0  0  0  0  0  0  0  0  0  0  0
  -47.3634   59.3519   64.3693 C   0  0  0  0  0  0  0  0  0  0  0  0
  -48.3536   60.4349   64.8361 C   0  0  0  0  0  0  0  0  0  0  0  0
  -49.7400   59.8174   65.1395 C   0  0  0  0  0  0  0  0  0  0  0  0
  -50.9330   60.4740   64.3997 C   0  0  0  0  0  0  0  0  0  0  0  0
  -51.1550   59.9464   62.9627 C   0  0  0  0  0  0  0  0  0  0  0  0
  -50.9004   58.4307   62.8151 C   0  0  0  0  0  0  0  0  0  0  0  0
  -50.8282   57.9553   61.3590 C   0  0  0  0  0  0  0  0  0  0  0  0
  -49.7438   58.5970   60.4962 C   0  0  0  0  0  0  0  0  0  0  0  0
  -49.3383   57.7540   59.2710 C   0  0  0  0  0  0  0  0  0  0  0  0
  -47.8285   57.5232   59.1057 C   0  0  0  0  0  0  0  0  0  0  0  0
  -47.3164   58.1456   57.8036 C   0  0  0  0  0  0  0  0  0  0  0  0
  -47.9672   57.6587   56.5210 C   0  0  0  0  0  0  0  0  0  0  0  0
  -40.1423   60.6337   65.5254 C   0  0  0  0  0  0  0  0  0  0  0  0
  -39.3448   61.4157   64.6003 O   0  0  0  0  0  0  0  0  0  0  0  0
  -37.4945   61.5896   62.4269 O   0  0  0  0  0  0  0  0  0  0  0  0
  -35.5482   64.2504   64.9825 O   0  0  0  0  0  0  0  0  0  0  0  0
  -37.4759   62.1369   65.9687 O   0  0  0  0  0  0  0  0  0  0  0  0
  -37.8765   61.4955   64.7335 C   0  0  0  0  0  0  0  0  0  0  0  0
  -37.1353   62.2342   63.6099 C   0  0  0  0  0  0  0  0  0  0  0  0
  -35.5975   62.1827   63.7427 C   0  0  0  0  0  0  0  0  0  0  0  0
  -35.2653   62.8548   65.0462 C   0  0  0  0  0  0  0  0  0  0  0  0
  -36.0387   62.1974   66.1748 C   0  0  0  0  0  0  0  0  0  0  0  0
  -38.4591   61.6121   62.3265 H   0  0  0  0  0  0  0  0  0  0  0  0
  -35.0446   64.6496   64.2559 H   0  0  0  0  0  0  0  0  0  0  0  0
  -36.4563   64.0797   67.5878 O   0  0  0  0  0  0  0  0  0  0  0  0
  -35.5744   63.0184   67.3759 C   0  0  0  0  0  0  0  0  0  0  0  0
  -36.1592   64.5995   68.3509 H   0  0  0  0  0  0  0  0  0  0  0  0
  -34.8490   62.8865   62.7255 O   0  0  0  0  0  0  0  0  0  0  0  0
  -35.6124   63.9293   60.4791 O   0  0  0  0  0  0  0  0  0  0  0  0
  -34.3963   65.2901   62.0786 O   0  0  0  0  0  0  0  0  0  0  0  0
  -36.7229   64.7351   62.4699 O   0  0  0  0  0  0  0  0  0  0  0  0
  -35.4291   64.2290   61.9300 S   0  0  0  0  0  0  0  0  0  0  0  0
  -34.7789   63.5981   60.1096 H   0  0  0  0  0  0  0  0  0  0  0  0
  -37.4025   64.0492   62.3770 H   0  0  0  0  0  0  0  0  0  0  0  0
  2  1  1  0  0  0
  2  4  1  0  0  0
  2  5  1  0  0  0
 41 42  1  0  0  0
 41  1  1  0  0  0
 42 46  1  0  0  0
  1 24  1  0  0  0
 23 24  1  0  0  0
 23 25  1  0  0  0
 24 26  1  0  0  0
  3  4  2  0  0  0
 26 27  2  0  0  0
 27 28  1  0  0  0
 43 47  1  0  0  0
 43 51  1  0  0  0
 28 29  1  0  0  0
 56 48  1  0  0  0
 56 60  1  0  0  0
 29 30  1  0  0  0
 57 60  1  0  0  0
 57 61  1  0  0  0
 30 31  1  0  0  0
 44 49  1  0  0  0
 44 52  1  0  0  0
 31 32  1  0  0  0
 45 46  1  0  0  0
 45 50  1  0  0  0
 32 33  1  0  0  0
 53 54  1  0  0  0
 53 55  1  0  0  0
 33 34  1  0  0  0
 34 35  1  0  0  0
 35 36  1  0  0  0
 58 60  1  0  0  0
 36 37  1  0  0  0
 59 60  1  0  0  0
 59 62  1  0  0  0
 37 38  1  0  0  0
 38 39  1  0  0  0
 39 40  1  0  0  0
  4  6  1  0  0  0
  6  7  1  0  0  0
  7  8  1  0  0  0
  8  9  1  0  0  0
  9 10  1  0  0  0
 10 11  1  0  0  0
 11 12  1  0  0  0
 12 13  1  0  0  0
 13 14  1  0  0  0
 14 15  1  0  0  0
 15 16  1  0  0  0
 16 17  1  0  0  0
 17 18  1  0  0  0
 18 19  1  0  0  0
 19 20  1  0  0  0
 20 21  1  0  0  0
 21 22  1  0  0  0
 46 47  1  0  0  0
 47 48  1  0  0  0
 48 49  1  0  0  0
 49 50  1  0  0  0
 50 54  1  0  0  0
M  CHG 1  58  -1
M  END
> <minimizedAffinity>
-9.65098

> <CNNscore>
0.1753576994

> <CNNaffinity>
7.1257638931

> <CNN_VS>
1.2495576143

> <CNNaffinity_variance>
1.7316322327

$$$$
/media/chris/experiments/cd1a-new-docking/inputs/ligands/1onq_ligand.pdb


 62 62  0  0  0  0  0  0  0  0999 V2000
  -42.7948   59.4461   64.8126 C   0  0  0  0  0  0  0  0  0  0  0  0
  -44.0250   59.0769   65.4845 N   0  0  0  0  0  0  0  0  0  0  0  0
  -44.0873   56.8321   65.1612 O   0  0  0  0  0  0  0  0  0  0  0  0
  -44.5643   57.8566   65.6092 C   0  0  0  0  0  0  0  0  0  0  0  0
  -44.5268   59.8145   65.9010 H   0  0  0  0  0  0  0  0  0  0  0  0
  -45.8521   57.8040   66.3764 C   0  0  0  0  0  0  0  0  0  0  0  0
  -46.3420   59.2468   66.5000 C   0  0  0  0  0  0  0  0  0  0  0  0
  -47.8020   59.3412   66.0632 C   0  0  0  0  0  0  0  0  0  0  0  0
  -48.3088   58.2152   65.1951 C   0  0  0  0  0  0  0  0  0  0  0  0
  -49.8281   58.3316   65.1298 C   0  0  0  0  0  0  0  0  0  0  0  0
  -50.3338   59.7246   65.5283 C   0  0  0  0  0  0  0  0  0  0  0  0
  -50.8625   60.5655   64.3520 C   0  0  0  0  0  0  0  0  0  0  0  0
  -50.9090   59.7781   63.0241 C   0  0  0  0  0  0  0  0  0  0  0  0
  -49.6116   59.9740   62.2345 C   0  0  0  0  0  0  0  0  0  0  0  0
  -49.7960   60.2257   60.7429 C   0  0  0  0  0  0  0  0  0  0  0  0
  -49.5618   58.9725   59.9127 C   0  0  0  0  0  0  0  0  0  0  0  0
  -50.2297   57.6940   60.4241 C   0  0  0  0  0  0  0  0  0  0  0  0
  -49.2776   56.5305   60.1828 C   0  0  0  0  0  0  0  0  0  0  0  0
  -47.9026   56.8220   59.6001 C   0  0  0  0  0  0  0  0  0  0  0  0
  -47.7799   56.2624   58.1739 C   0  0  0  0  0  0  0  0  0  0  0  0
  -46.7364   56.9766   57.2952 C   0  0  0  0  0  0  0  0  0  0  0  0
  -47.0428   58.4563   57.0756 C   0  0  0  0  0  0  0  0  0  0  0  0
  -42.5276   61.7536   64.8112 O   0  0  0  0  0  0  0  0  0  0  0  0
  -42.3083   60.6253   65.6374 C   0  0  0  0  0  0  0  0  0  0  0  0
  -43.4757   61.8382   64.6245 H   0  0  0  0  0  0  0  0  0  0  0  0
  -40.8268   60.4339   65.9708 C   0  0  0  0  0  0  0  0  0  0  0  0
  -40.1093   59.3828   65.5388 C   0  0  0  0  0  0  0  0  0  0  0  0
  -38.6339   59.2630   65.9158 C   0  0  0  0  0  0  0  0  0  0  0  0
  -37.7552   58.6667   64.8065 C   0  0  0  0  0  0  0  0  0  0  0  0
  -36.8875   57.4630   65.2181 C   0  0  0  0  0  0  0  0  0  0  0  0
  -35.4600   57.5896   64.6337 C   0  0  0  0  0  0  0  0  0  0  0  0
  -35.3910   57.9478   63.1275 C   0  0  0  0  0  0  0  0  0  0  0  0
  -33.9577   57.9675   62.5462 C   0  0  0  0  0  0  0  0  0  0  0  0
  -32.8849   58.4133   63.5632 C   0  0  0  0  0  0  0  0  0  0  0  0
  -32.3256   59.8159   63.2963 C   0  0  0  0  0  0  0  0  0  0  0  0
  -31.9904   60.1396   61.8420 C   0  0  0  0  0  0  0  0  0  0  0  0
  -31.4690   61.5737   61.6241 C   0  0  0  0  0  0  0  0  0  0  0  0
  -31.5417   62.4909   62.8543 C   0  0  0  0  0  0  0  0  0  0  0  0
  -32.1437   63.8514   62.4911 C   0  0  0  0  0  0  0  0  0  0  0  0
  -33.0992   63.8735   61.3112 C   0  0  0  0  0  0  0  0  0  0  0  0
  -42.9079   59.6580   63.2858 C   0  0  0  0  0  0  0  0  0  0  0  0
  -42.2798   60.8496   62.7484 O   0  0  0  0  0  0  0  0  0  0  0  0
  -39.6915   61.9099   63.3433 O   0  0  0  0  0  0  0  0  0  0  0  0
  -38.4053   58.3692   61.5521 O   0  0  0  0  0  0  0  0  0  0  0  0
  -41.1294   59.5791   61.0315 O   0  0  0  0  0  0  0  0  0  0  0  0
  -41.0981   60.7612   61.8677 C   0  0  0  0  0  0  0  0  0  0  0  0
  -39.7321   60.7511   62.5689 C   0  0  0  0  0  0  0  0  0  0  0  0
  -38.5343   60.7767   61.5943 C   0  0  0  0  0  0  0  0  0  0  0  0
  -38.6440   59.5302   60.7604 C   0  0  0  0  0  0  0  0  0  0  0  0
  -40.0132   59.4676   60.1079 C   0  0  0  0  0  0  0  0  0  0  0  0
  -40.4380   61.9111   63.9627 H   0  0  0  0  0  0  0  0  0  0  0  0
  -37.5268   58.4301   61.9588 H   0  0  0  0  0  0  0  0  0  0  0  0
  -39.1147   58.3277   58.2086 O   0  0  0  0  0  0  0  0  0  0  0  0
  -39.9188   58.1530   59.3364 C   0  0  0  0  0  0  0  0  0  0  0  0
  -39.0565   57.4916   57.7204 H   0  0  0  0  0  0  0  0  0  0  0  0
  -37.2223   60.7404   62.2005 O   0  0  0  0  0  0  0  0  0  0  0  0
  -36.7718   63.2888   62.3419 O   0  0  0  0  0  0  0  0  0  0  0  0
  -35.1313   61.7324   63.2227 O   0  0  0  0  0  0  0  0  0  0  0  0
  -37.1870   62.1535   64.4358 O   0  0  0  0  0  0  0  0  0  0  0  0
  -36.5875   62.0040   63.0794 S   0  0  0  0  0  0  0  0  0  0  0  0
  -36.3870   63.2104   61.4549 H   0  0  0  0  0  0  0  0  0  0  0  0
  -38.1369   62.3309   64.3518 H   0  0  0  0  0  0  0  0  0  0  0  0
  2  1  1  0  0  0
  2  4  1  0  0  0
  2  5  1  0  0  0
 41 42  1  0  0  0
 41  1  1  0  0  0
 42 46  1  0  0  0
  1 24  1  0  0  0
 23 24  1  0  0  0
 23 25  1  0  0  0
 24 26  1  0  0  0
  3  4  2  0  0  0
 26 27  2  0  0  0
 27 28  1  0  0  0
 43 47  1  0  0  0
 43 51  1  0  0  0
 28 29  1  0  0  0
 56 48  1  0  0  0
 56 60  1  0  0  0
 29 30  1  0  0  0
 57 60  1  0  0  0
 57 61  1  0  0  0
 30 31  1  0  0  0
 44 49  1  0  0  0
 44 52  1  0  0  0
 31 32  1  0  0  0
 45 46  1  0  0  0
 45 50  1  0  0  0
 32 33  1  0  0  0
 53 54  1  0  0  0
 53 55  1  0  0  0
 33 34  1  0  0  0
 34 35  1  0  0  0
 35 36  1  0  0  0
 58 60  1  0  0  0
 36 37  1  0  0  0
 59 60  1  0  0  0
 59 62  1  0  0  0
 37 38  1  0  0  0
 38 39  1  0  0  0
 39 40  1  0  0  0
  4  6  1  0  0  0
  6  7  1  0  0  0
  7  8  1  0  0  0
  8  9  1  0  0  0
  9 10  1  0  0  0
 10 11  1  0  0  0
 11 12  1  0  0  0
 12 13  1  0  0  0
 13 14  1  0  0  0
 14 15  1  0  0  0
 15 16  1  0  0  0
 16 17  1  0  0  0
 17 18  1  0  0  0
 18 19  1  0  0  0
 19 20  1  0  0  0
 20 21  1  0  0  0
 21 22  1  0  0  0
 46 47  1  0  0  0
 47 48  1  0  0  0
 48 49  1  0  0  0
 49 50  1  0  0  0
 50 54  1  0  0  0
M  CHG 1  58  -1
M  END
> <minimizedAffinity>
-8.95999

> <CNNscore>
0.1555704325

> <CNNaffinity>
6.6874322891

> <CNN_VS>
1.0403667688

> <CNNaffinity_variance>
1.4936599731

$$$$
/media/chris/experiments/cd1a-new-docking/inputs/ligands/1onq_ligand.pdb


 62 62  0  0  0  0  0  0  0  0999 V2000
  -39.3681   60.6489   63.4670 C   0  0  0  0  0  0  0  0  0  0  0  0
  -40.7413   61.1052   63.3814 N   0  0  0  0  0  0  0  0  0  0  0  0
  -41.2441   60.6924   61.2079 O   0  0  0  0  0  0  0  0  0  0  0  0
  -41.5493   61.0979   62.3125 C   0  0  0  0  0  0  0  0  0  0  0  0
  -41.1284   61.4653   64.2119 H   0  0  0  0  0  0  0  0  0  0  0  0
  -42.9291   61.6352   62.5526 C   0  0  0  0  0  0  0  0  0  0  0  0
  -43.2289   61.4123   64.0350 C   0  0  0  0  0  0  0  0  0  0  0  0
  -44.7364   61.4514   64.2739 C   0  0  0  0  0  0  0  0  0  0  0  0
  -45.2879   60.3999   65.2058 C   0  0  0  0  0  0  0  0  0  0  0  0
  -46.7728   60.2421   64.8956 C   0  0  0  0  0  0  0  0  0  0  0  0
  -47.1583   58.7946   64.5621 C   0  0  0  0  0  0  0  0  0  0  0  0
  -48.5121   58.3506   65.1457 C   0  0  0  0  0  0  0  0  0  0  0  0
  -49.2714   59.5005   65.8433 C   0  0  0  0  0  0  0  0  0  0  0  0
  -50.6396   59.7181   65.1907 C   0  0  0  0  0  0  0  0  0  0  0  0
  -50.8121   59.0697   63.8224 C   0  0  0  0  0  0  0  0  0  0  0  0
  -50.8957   60.0970   62.7033 C   0  0  0  0  0  0  0  0  0  0  0  0
  -49.6419   60.2518   61.8394 C   0  0  0  0  0  0  0  0  0  0  0  0
  -49.4356   58.9576   61.0641 C   0  0  0  0  0  0  0  0  0  0  0  0
  -49.1279   59.0398   59.5762 C   0  0  0  0  0  0  0  0  0  0  0  0
  -48.4913   57.7344   59.0735 C   0  0  0  0  0  0  0  0  0  0  0  0
  -47.6045   57.8958   57.8250 C   0  0  0  0  0  0  0  0  0  0  0  0
  -47.1218   56.5658   57.2510 C   0  0  0  0  0  0  0  0  0  0  0  0
  -39.3554   61.3424   65.6840 O   0  0  0  0  0  0  0  0  0  0  0  0
  -39.2692   60.1647   64.9034 C   0  0  0  0  0  0  0  0  0  0  0  0
  -40.2115   61.7712   65.5287 H   0  0  0  0  0  0  0  0  0  0  0  0
  -37.9375   59.4370   65.1025 C   0  0  0  0  0  0  0  0  0  0  0  0
  -37.8270   58.0976   65.0941 C   0  0  0  0  0  0  0  0  0  0  0  0
  -36.4609   57.4463   65.3011 C   0  0  0  0  0  0  0  0  0  0  0  0
  -35.4454   57.7662   64.1945 C   0  0  0  0  0  0  0  0  0  0  0  0
  -35.8611   57.3563   62.7696 C   0  0  0  0  0  0  0  0  0  0  0  0
  -36.4133   58.5724   61.9875 C   0  0  0  0  0  0  0  0  0  0  0  0
  -37.5795   58.2599   61.0158 C   0  0  0  0  0  0  0  0  0  0  0  0
  -38.7798   57.5425   61.6770 C   0  0  0  0  0  0  0  0  0  0  0  0
  -40.0332   57.4793   60.7775 C   0  0  0  0  0  0  0  0  0  0  0  0
  -41.2708   56.9102   61.4816 C   0  0  0  0  0  0  0  0  0  0  0  0
  -41.2087   56.8524   63.0064 C   0  0  0  0  0  0  0  0  0  0  0  0
  -42.3107   57.6695   63.7092 C   0  0  0  0  0  0  0  0  0  0  0  0
  -43.1085   56.9086   64.7790 C   0  0  0  0  0  0  0  0  0  0  0  0
  -43.1659   57.7001   66.0887 C   0  0  0  0  0  0  0  0  0  0  0  0
  -42.0480   58.7006   66.3225 C   0  0  0  0  0  0  0  0  0  0  0  0
  -38.2998   61.6605   62.9935 C   0  0  0  0  0  0  0  0  0  0  0  0
  -37.5735   62.3690   64.0297 O   0  0  0  0  0  0  0  0  0  0  0  0
  -35.0250   61.2041   63.4594 O   0  0  0  0  0  0  0  0  0  0  0  0
  -34.8344   64.2778   60.6460 O   0  0  0  0  0  0  0  0  0  0  0  0
  -36.6218   64.3906   63.0849 O   0  0  0  0  0  0  0  0  0  0  0  0
  -36.3406   63.1211   63.7227 C   0  0  0  0  0  0  0  0  0  0  0  0
  -35.3210   62.4086   62.8225 C   0  0  0  0  0  0  0  0  0  0  0  0
  -34.0045   63.1938   62.6338 C   0  0  0  0  0  0  0  0  0  0  0  0
  -34.3809   64.4946   61.9799 C   0  0  0  0  0  0  0  0  0  0  0  0
  -35.4447   65.1955   62.8053 C   0  0  0  0  0  0  0  0  0  0  0  0
  -35.8417   60.6963   63.5866 H   0  0  0  0  0  0  0  0  0  0  0  0
  -34.1405   63.8297   60.1375 H   0  0  0  0  0  0  0  0  0  0  0  0
  -36.8666   66.3220   61.2486 O   0  0  0  0  0  0  0  0  0  0  0  0
  -35.6842   66.4570   61.9785 C   0  0  0  0  0  0  0  0  0  0  0  0
  -37.0164   67.1243   60.7245 H   0  0  0  0  0  0  0  0  0  0  0  0
  -33.0185   62.5814   61.7720 O   0  0  0  0  0  0  0  0  0  0  0  0
  -30.9477   61.1313   61.2009 O   0  0  0  0  0  0  0  0  0  0  0  0
  -32.4716   60.4076   62.9453 O   0  0  0  0  0  0  0  0  0  0  0  0
  -30.9282   62.2311   63.3540 O   0  0  0  0  0  0  0  0  0  0  0  0
  -31.8051   61.5894   62.3338 S   0  0  0  0  0  0  0  0  0  0  0  0
  -31.5021   60.7101   60.5256 H   0  0  0  0  0  0  0  0  0  0  0  0
  -30.4894   63.0031   62.9636 H   0  0  0  0  0  0  0  0  0  0  0  0
  2  1  1  0  0  0
  2  4  1  0  0  0
  2  5  1  0  0  0
 41 42  1  0  0  0
 41  1  1  0  0  0
 42 46  1  0  0  0
  1 24  1  0  0  0
 23 24  1  0  0  0
 23 25  1  0  0  0
 24 26  1  0  0  0
  3  4  2  0  0  0
 26 27  2  0  0  0
 27 28  1  0  0  0
 43 47  1  0  0  0
 43 51  1  0  0  0
 28 29  1  0  0  0
 56 48  1  0  0  0
 56 60  1  0  0  0
 29 30  1  0  0  0
 57 60  1  0  0  0
 57 61  1  0  0  0
 30 31  1  0  0  0
 44 49  1  0  0  0
 44 52  1  0  0  0
 31 32  1  0  0  0
 45 46  1  0  0  0
 45 50  1  0  0  0
 32 33  1  0  0  0
 53 54  1  0  0  0
 53 55  1  0  0  0
 33 34  1  0  0  0
 34 35  1  0  0  0
 35 36  1  0  0  0
 58 60  1  0  0  0
 36 37  1  0  0  0
 59 60  1  0  0  0
 59 62  1  0  0  0
 37 38  1  0  0  0
 38 39  1  0  0  0
 39 40  1  0  0  0
  4  6  1  0  0  0
  6  7  1  0  0  0
  7  8  1  0  0  0
  8  9  1  0  0  0
  9 10  1  0  0  0
 10 11  1  0  0  0
 11 12  1  0  0  0
 12 13  1  0  0  0
 13 14  1  0  0  0
 14 15  1  0  0  0
 15 16  1  0  0  0
 16 17  1  0  0  0
 17 18  1  0  0  0
 18 19  1  0  0  0
 19 20  1  0  0  0
 20 21  1  0  0  0
 21 22  1  0  0  0
 46 47  1  0  0  0
 47 48  1  0  0  0
 48 49  1  0  0  0
 49 50  1  0  0  0
 50 54  1  0  0  0
M  CHG 1  58  -1
M  END
> <minimizedAffinity>
-8.74426

> <CNNscore>
0.1502377093

> <CNNaffinity>
7.1351218224

> <CNN_VS>
1.0719643831

> <CNNaffinity_variance>
1.0683447123

$$$$
/media/chris/experiments/cd1a-new-docking/inputs/ligands/1onq_ligand.pdb


 62 62  0  0  0  0  0  0  0  0999 V2000
  -40.1810   60.0010   64.0474 C   0  0  0  0  0  0  0  0  0  0  0  0
  -41.6114   60.0663   64.2733 N   0  0  0  0  0  0  0  0  0  0  0  0
  -41.7563   61.5675   65.9682 O   0  0  0  0  0  0  0  0  0  0  0  0
  -42.2729   60.8072   65.1727 C   0  0  0  0  0  0  0  0  0  0  0  0
  -42.1658   59.4953   63.6938 H   0  0  0  0  0  0  0  0  0  0  0  0
  -43.7650   60.6560   65.1498 C   0  0  0  0  0  0  0  0  0  0  0  0
  -44.0623   59.4218   64.2981 C   0  0  0  0  0  0  0  0  0  0  0  0
  -45.3452   58.7504   64.7826 C   0  0  0  0  0  0  0  0  0  0  0  0
  -46.5800   59.6182   64.8061 C   0  0  0  0  0  0  0  0  0  0  0  0
  -47.3970   59.2242   66.0322 C   0  0  0  0  0  0  0  0  0  0  0  0
  -48.6487   60.0931   66.2149 C   0  0  0  0  0  0  0  0  0  0  0  0
  -49.9739   59.3571   65.9454 C   0  0  0  0  0  0  0  0  0  0  0  0
  -50.8697   60.0888   64.9220 C   0  0  0  0  0  0  0  0  0  0  0  0
  -50.0471   60.5457   63.7138 C   0  0  0  0  0  0  0  0  0  0  0  0
  -50.5742   60.0810   62.3616 C   0  0  0  0  0  0  0  0  0  0  0  0
  -49.8602   58.8342   61.8611 C   0  0  0  0  0  0  0  0  0  0  0  0
  -50.6772   57.9116   60.9537 C   0  0  0  0  0  0  0  0  0  0  0  0
  -50.1802   58.0874   59.5252 C   0  0  0  0  0  0  0  0  0  0  0  0
  -48.7075   58.3950   59.2979 C   0  0  0  0  0  0  0  0  0  0  0  0
  -47.8993   57.1021   59.1043 C   0  0  0  0  0  0  0  0  0  0  0  0
  -46.9866   57.0993   57.8640 C   0  0  0  0  0  0  0  0  0  0  0  0
  -46.9587   58.4388   57.1316 C   0  0  0  0  0  0  0  0  0  0  0  0
  -39.0852   60.6501   65.9900 O   0  0  0  0  0  0  0  0  0  0  0  0
  -39.6571   59.5056   65.3844 C   0  0  0  0  0  0  0  0  0  0  0  0
  -39.7715   61.3227   66.1226 H   0  0  0  0  0  0  0  0  0  0  0  0
  -38.6238   58.4019   65.1465 C   0  0  0  0  0  0  0  0  0  0  0  0
  -37.2987   58.6259   65.1545 C   0  0  0  0  0  0  0  0  0  0  0  0
  -36.3308   57.4703   64.9075 C   0  0  0  0  0  0  0  0  0  0  0  0
  -35.6804   57.4905   63.5165 C   0  0  0  0  0  0  0  0  0  0  0  0
  -36.2389   58.5371   62.5347 C   0  0  0  0  0  0  0  0  0  0  0  0
  -37.3652   57.9284   61.6651 C   0  0  0  0  0  0  0  0  0  0  0  0
  -38.2416   58.9551   60.9039 C   0  0  0  0  0  0  0  0  0  0  0  0
  -38.3252   58.7092   59.3790 C   0  0  0  0  0  0  0  0  0  0  0  0
  -39.7233   58.2603   58.9017 C   0  0  0  0  0  0  0  0  0  0  0  0
  -40.8770   58.8835   59.6966 C   0  0  0  0  0  0  0  0  0  0  0  0
  -41.7337   57.9142   60.5083 C   0  0  0  0  0  0  0  0  0  0  0  0
  -41.1447   56.4934   60.6110 C   0  0  0  0  0  0  0  0  0  0  0  0
  -40.9450   55.9692   62.0411 C   0  0  0  0  0  0  0  0  0  0  0  0
  -41.7865   56.7666   63.0416 C   0  0  0  0  0  0  0  0  0  0  0  0
  -41.7968   56.2575   64.4721 C   0  0  0  0  0  0  0  0  0  0  0  0
  -39.5382   61.2847   63.4750 C   0  0  0  0  0  0  0  0  0  0  0  0
  -38.0893   61.3143   63.4183 O   0  0  0  0  0  0  0  0  0  0  0  0
  -36.4553   62.0368   65.6510 O   0  0  0  0  0  0  0  0  0  0  0  0
  -33.9890   63.6006   62.6727 O   0  0  0  0  0  0  0  0  0  0  0  0
  -36.9499   63.1235   62.2719 O   0  0  0  0  0  0  0  0  0  0  0  0
  -37.3436   62.5811   63.5558 C   0  0  0  0  0  0  0  0  0  0  0  0
  -36.0651   62.5238   64.4043 C   0  0  0  0  0  0  0  0  0  0  0  0
  -35.3943   63.8998   64.6092 C   0  0  0  0  0  0  0  0  0  0  0  0
  -35.0271   64.3970   63.2384 C   0  0  0  0  0  0  0  0  0  0  0  0
  -36.2552   64.3976   62.3462 C   0  0  0  0  0  0  0  0  0  0  0  0
  -36.8795   61.1712   65.5418 H   0  0  0  0  0  0  0  0  0  0  0  0
  -33.2156   63.6143   63.2580 H   0  0  0  0  0  0  0  0  0  0  0  0
  -35.3838   63.8361   60.1922 O   0  0  0  0  0  0  0  0  0  0  0  0
  -35.6721   64.9133   61.0323 C   0  0  0  0  0  0  0  0  0  0  0  0
  -35.0137   64.1663   59.3587 H   0  0  0  0  0  0  0  0  0  0  0  0
  -34.1701   63.9006   65.3783 O   0  0  0  0  0  0  0  0  0  0  0  0
  -35.4836   64.4850   67.5347 O   0  0  0  0  0  0  0  0  0  0  0  0
  -33.3904   65.6188   67.0637 O   0  0  0  0  0  0  0  0  0  0  0  0
  -33.3857   63.3216   67.8367 O   0  0  0  0  0  0  0  0  0  0  0  0
  -34.1043   64.3151   66.9894 S   0  0  0  0  0  0  0  0  0  0  0  0
  -35.9676   65.1294   66.9949 H   0  0  0  0  0  0  0  0  0  0  0  0
  -33.8447   62.4681   67.7941 H   0  0  0  0  0  0  0  0  0  0  0  0
  2  1  1  0  0  0
  2  4  1  0  0  0
  2  5  1  0  0  0
 41 42  1  0  0  0
 41  1  1  0  0  0
 42 46  1  0  0  0
  1 24  1  0  0  0
 23 24  1  0  0  0
 23 25  1  0  0  0
 24 26  1  0  0  0
  3  4  2  0  0  0
 26 27  2  0  0  0
 27 28  1  0  0  0
 43 47  1  0  0  0
 43 51  1  0  0  0
 28 29  1  0  0  0
 56 48  1  0  0  0
 56 60  1  0  0  0
 29 30  1  0  0  0
 57 60  1  0  0  0
 57 61  1  0  0  0
 30 31  1  0  0  0
 44 49  1  0  0  0
 44 52  1  0  0  0
 31 32  1  0  0  0
 45 46  1  0  0  0
 45 50  1  0  0  0
 32 33  1  0  0  0
 53 54  1  0  0  0
 53 55  1  0  0  0
 33 34  1  0  0  0
 34 35  1  0  0  0
 35 36  1  0  0  0
 58 60  1  0  0  0
 36 37  1  0  0  0
 59 60  1  0  0  0
 59 62  1  0  0  0
 37 38  1  0  0  0
 38 39  1  0  0  0
 39 40  1  0  0  0
  4  6  1  0  0  0
  6  7  1  0  0  0
  7  8  1  0  0  0
  8  9  1  0  0  0
  9 10  1  0  0  0
 10 11  1  0  0  0
 11 12  1  0  0  0
 12 13  1  0  0  0
 13 14  1  0  0  0
 14 15  1  0  0  0
 15 16  1  0  0  0
 16 17  1  0  0  0
 17 18  1  0  0  0
 18 19  1  0  0  0
 19 20  1  0  0  0
 20 21  1  0  0  0
 21 22  1  0  0  0
 46 47  1  0  0  0
 47 48  1  0  0  0
 48 49  1  0  0  0
 49 50  1  0  0  0
 50 54  1  0  0  0
M  CHG 1  58  -1
M  END
> <minimizedAffinity>
-9.73198

> <CNNscore>
0.1433763653

> <CNNaffinity>
7.0135927200

> <CNN_VS>
1.0055834055

> <CNNaffinity_variance>
1.2512545586

$$$$
/media/chris/experiments/cd1a-new-docking/inputs/ligands/1onq_ligand.pdb


 62 62  0  0  0  0  0  0  0  0999 V2000
  -38.9807   60.7294   63.9907 C   0  0  0  0  0  0  0  0  0  0  0  0
  -40.4202   60.8709   64.0848 N   0  0  0  0  0  0  0  0  0  0  0  0
  -41.0764   58.7496   64.5503 O   0  0  0  0  0  0  0  0  0  0  0  0
  -41.3286   59.9209   64.3452 C   0  0  0  0  0  0  0  0  0  0  0  0
  -40.7746   61.7778   63.9393 H   0  0  0  0  0  0  0  0  0  0  0  0
  -42.7519   60.3929   64.3830 C   0  0  0  0  0  0  0  0  0  0  0  0
  -43.1862   60.3425   65.8479 C   0  0  0  0  0  0  0  0  0  0  0  0
  -44.7062   60.2282   65.9377 C   0  0  0  0  0  0  0  0  0  0  0  0
  -45.3190   59.0089   65.2925 C   0  0  0  0  0  0  0  0  0  0  0  0
  -46.7809   59.3286   64.9984 C   0  0  0  0  0  0  0  0  0  0  0  0
  -47.6575   59.3076   66.2579 C   0  0  0  0  0  0  0  0  0  0  0  0
  -49.0963   59.8079   66.0350 C   0  0  0  0  0  0  0  0  0  0  0  0
  -49.2714   60.5550   64.6945 C   0  0  0  0  0  0  0  0  0  0  0  0
  -50.7507   60.6250   64.3046 C   0  0  0  0  0  0  0  0  0  0  0  0
  -51.1736   59.6609   63.2029 C   0  0  0  0  0  0  0  0  0  0  0  0
  -49.9825   58.9974   62.5277 C   0  0  0  0  0  0  0  0  0  0  0  0
  -49.7979   59.3040   61.0398 C   0  0  0  0  0  0  0  0  0  0  0  0
  -49.7522   57.9830   60.2839 C   0  0  0  0  0  0  0  0  0  0  0  0
  -49.4063   58.0020   58.8023 C   0  0  0  0  0  0  0  0  0  0  0  0
  -47.8934   58.1737   58.5930 C   0  0  0  0  0  0  0  0  0  0  0  0
  -47.3882   57.7443   57.2032 C   0  0  0  0  0  0  0  0  0  0  0  0
  -47.1183   56.2453   57.0953 C   0  0  0  0  0  0  0  0  0  0  0  0
  -38.3632   61.3817   66.1329 O   0  0  0  0  0  0  0  0  0  0  0  0
  -38.6078   60.2145   65.3703 C   0  0  0  0  0  0  0  0  0  0  0  0
  -39.1726   61.9147   66.1769 H   0  0  0  0  0  0  0  0  0  0  0  0
  -37.3663   59.3262   65.2614 C   0  0  0  0  0  0  0  0  0  0  0  0
  -37.4084   57.9897   65.3971 C   0  0  0  0  0  0  0  0  0  0  0  0
  -36.1238   57.1723   65.2756 C   0  0  0  0  0  0  0  0  0  0  0  0
  -35.0274   57.8568   64.4464 C   0  0  0  0  0  0  0  0  0  0  0  0
  -35.0409   57.5467   62.9381 C   0  0  0  0  0  0  0  0  0  0  0  0
  -36.2474   58.2278   62.2482 C   0  0  0  0  0  0  0  0  0  0  0  0
  -37.3815   57.2705   61.8021 C   0  0  0  0  0  0  0  0  0  0  0  0
  -38.8035   57.7628   62.1605 C   0  0  0  0  0  0  0  0  0  0  0  0
  -39.8804   56.6602   62.0672 C   0  0  0  0  0  0  0  0  0  0  0  0
  -41.0527   57.0182   61.1459 C   0  0  0  0  0  0  0  0  0  0  0  0
  -40.6822   57.5211   59.7523 C   0  0  0  0  0  0  0  0  0  0  0  0
  -40.9469   59.0245   59.5386 C   0  0  0  0  0  0  0  0  0  0  0  0
  -41.4930   59.7739   60.7634 C   0  0  0  0  0  0  0  0  0  0  0  0
  -41.5281   61.2843   60.5134 C   0  0  0  0  0  0  0  0  0  0  0  0
  -42.5366   62.0794   61.3235 C   0  0  0  0  0  0  0  0  0  0  0  0
  -38.2214   61.9744   63.4786 C   0  0  0  0  0  0  0  0  0  0  0  0
  -36.9348   61.7371   62.8527 O   0  0  0  0  0  0  0  0  0  0  0  0
  -34.7676   63.1805   61.6707 O   0  0  0  0  0  0  0  0  0  0  0  0
  -34.6042   64.9810   65.4297 O   0  0  0  0  0  0  0  0  0  0  0  0
  -35.8569   62.2670   64.9605 O   0  0  0  0  0  0  0  0  0  0  0  0
  -35.6747   62.0942   63.5342 C   0  0  0  0  0  0  0  0  0  0  0  0
  -34.9748   63.3672   63.0368 C   0  0  0  0  0  0  0  0  0  0  0  0
  -33.6060   63.6239   63.7044 C   0  0  0  0  0  0  0  0  0  0  0  0
  -33.8783   63.7810   65.1750 C   0  0  0  0  0  0  0  0  0  0  0  0
  -34.6368   62.5708   65.6890 C   0  0  0  0  0  0  0  0  0  0  0  0
  -35.6183   63.0176   61.2339 H   0  0  0  0  0  0  0  0  0  0  0  0
  -34.1023   65.7400   65.0937 H   0  0  0  0  0  0  0  0  0  0  0  0
  -36.1446   63.2871   67.4001 O   0  0  0  0  0  0  0  0  0  0  0  0
  -34.8157   62.9315   67.1622 C   0  0  0  0  0  0  0  0  0  0  0  0
  -36.2555   63.5156   68.3362 H   0  0  0  0  0  0  0  0  0  0  0  0
  -32.9149   64.8253   63.2931 O   0  0  0  0  0  0  0  0  0  0  0  0
  -30.9287   63.6321   62.1321 O   0  0  0  0  0  0  0  0  0  0  0  0
  -30.9320   66.0522   62.3113 O   0  0  0  0  0  0  0  0  0  0  0  0
  -32.3738   64.9465   60.7072 O   0  0  0  0  0  0  0  0  0  0  0  0
  -31.7830   64.8549   62.0726 S   0  0  0  0  0  0  0  0  0  0  0  0
  -30.5348   63.5556   63.0152 H   0  0  0  0  0  0  0  0  0  0  0  0
  -32.9305   64.1693   60.5430 H   0  0  0  0  0  0  0  0  0  0  0  0
  2  1  1  0  0  0
  2  4  1  0  0  0
  2  5  1  0  0  0
 41 42  1  0  0  0
 41  1  1  0  0  0
 42 46  1  0  0  0
  1 24  1  0  0  0
 23 24  1  0  0  0
 23 25  1  0  0  0
 24 26  1  0  0  0
  3  4  2  0  0  0
 26 27  2  0  0  0
 27 28  1  0  0  0
 43 47  1  0  0  0
 43 51  1  0  0  0
 28 29  1  0  0  0
 56 48  1  0  0  0
 56 60  1  0  0  0
 29 30  1  0  0  0
 57 60  1  0  0  0
 57 61  1  0  0  0
 30 31  1  0  0  0
 44 49  1  0  0  0
 44 52  1  0  0  0
 31 32  1  0  0  0
 45 46  1  0  0  0
 45 50  1  0  0  0
 32 33  1  0  0  0
 53 54  1  0  0  0
 53 55  1  0  0  0
 33 34  1  0  0  0
 34 35  1  0  0  0
 35 36  1  0  0  0
 58 60  1  0  0  0
 36 37  1  0  0  0
 59 60  1  0  0  0
 59 62  1  0  0  0
 37 38  1  0  0  0
 38 39  1  0  0  0
 39 40  1  0  0  0
  4  6  1  0  0  0
  6  7  1  0  0  0
  7  8  1  0  0  0
  8  9  1  0  0  0
  9 10  1  0  0  0
 10 11  1  0  0  0
 11 12  1  0  0  0
 12 13  1  0  0  0
 13 14  1  0  0  0
 14 15  1  0  0  0
 15 16  1  0  0  0
 16 17  1  0  0  0
 17 18  1  0  0  0
 18 19  1  0  0  0
 19 20  1  0  0  0
 20 21  1  0  0  0
 21 22  1  0  0  0
 46 47  1  0  0  0
 47 48  1  0  0  0
 48 49  1  0  0  0
 49 50  1  0  0  0
 50 54  1  0  0  0
M  CHG 1  58  -1
M  END
> <minimizedAffinity>
-8.61392

> <CNNscore>
0.1191953644

> <CNNaffinity>
6.9060869217

> <CNN_VS>
0.8231735229

> <CNNaffinity_variance>
1.0531423092

$$$$
