/media/chris/experiments/cd1a-new-docking/inputs/ligands/1onq_ligand.pdb


 62 62  0  0  0  0  0  0  0  0999 V2000
  -41.5022   60.6052   65.6452 C   0  0  0  0  0  0  0  0  0  0  0  0
  -42.2200   59.5733   66.3670 N   0  0  0  0  0  0  0  0  0  0  0  0
  -42.8169   57.4286   66.8047 O   0  0  0  0  0  0  0  0  0  0  0  0
  -42.1798   58.2482   66.1720 C   0  0  0  0  0  0  0  0  0  0  0  0
  -42.8106   59.8847   67.0905 H   0  0  0  0  0  0  0  0  0  0  0  0
  -41.2688   57.7930   65.0709 C   0  0  0  0  0  0  0  0  0  0  0  0
  -42.1560   57.1154   64.0265 C   0  0  0  0  0  0  0  0  0  0  0  0
  -41.5417   55.7824   63.6060 C   0  0  0  0  0  0  0  0  0  0  0  0
  -41.2618   55.6165   62.1320 C   0  0  0  0  0  0  0  0  0  0  0  0
  -41.4669   56.9743   61.4683 C   0  0  0  0  0  0  0  0  0  0  0  0
  -41.2706   56.9264   59.9471 C   0  0  0  0  0  0  0  0  0  0  0  0
  -41.1125   58.3080   59.2862 C   0  0  0  0  0  0  0  0  0  0  0  0
  -40.7614   59.4209   60.2980 C   0  0  0  0  0  0  0  0  0  0  0  0
  -39.3396   59.9377   60.0606 C   0  0  0  0  0  0  0  0  0  0  0  0
  -38.3216   58.8711   59.6758 C   0  0  0  0  0  0  0  0  0  0  0  0
  -37.4158   58.4916   60.8379 C   0  0  0  0  0  0  0  0  0  0  0  0
  -37.9835   57.4694   61.8252 C   0  0  0  0  0  0  0  0  0  0  0  0
  -38.0286   58.1140   63.2041 C   0  0  0  0  0  0  0  0  0  0  0  0
  -36.9499   57.7515   64.2141 C   0  0  0  0  0  0  0  0  0  0  0  0
  -35.6694   58.5649   63.9668 C   0  0  0  0  0  0  0  0  0  0  0  0
  -34.6124   57.8464   63.1081 C   0  0  0  0  0  0  0  0  0  0  0  0
  -33.1856   58.3093   63.3940 C   0  0  0  0  0  0  0  0  0  0  0  0
  -41.7579   61.8705   63.7139 O   0  0  0  0  0  0  0  0  0  0  0  0
  -42.3264   60.7572   64.3782 C   0  0  0  0  0  0  0  0  0  0  0  0
  -40.8325   61.6788   63.4957 H   0  0  0  0  0  0  0  0  0  0  0  0
  -43.7914   60.9949   64.7519 C   0  0  0  0  0  0  0  0  0  0  0  0
  -44.8154   60.4126   64.1051 C   0  0  0  0  0  0  0  0  0  0  0  0
  -46.2515   60.7020   64.5383 C   0  0  0  0  0  0  0  0  0  0  0  0
  -47.0773   59.4418   64.8349 C   0  0  0  0  0  0  0  0  0  0  0  0
  -47.7310   59.3858   66.2280 C   0  0  0  0  0  0  0  0  0  0  0  0
  -49.1917   59.8942   66.1700 C   0  0  0  0  0  0  0  0  0  0  0  0
  -50.1247   59.1180   65.2063 C   0  0  0  0  0  0  0  0  0  0  0  0
  -51.0857   60.0174   64.3937 C   0  0  0  0  0  0  0  0  0  0  0  0
  -50.8227   59.9864   62.8726 C   0  0  0  0  0  0  0  0  0  0  0  0
  -50.1280   58.7068   62.3918 C   0  0  0  0  0  0  0  0  0  0  0  0
  -50.8941   57.8707   61.3689 C   0  0  0  0  0  0  0  0  0  0  0  0
  -50.4284   58.0799   59.9145 C   0  0  0  0  0  0  0  0  0  0  0  0
  -48.9251   58.3436   59.7399 C   0  0  0  0  0  0  0  0  0  0  0  0
  -48.4212   57.7901   58.4040 C   0  0  0  0  0  0  0  0  0  0  0  0
  -47.0651   57.1072   58.4244 C   0  0  0  0  0  0  0  0  0  0  0  0
  -39.9858   60.3629   65.4698 C   0  0  0  0  0  0  0  0  0  0  0  0
  -39.2932   61.2349   64.5408 O   0  0  0  0  0  0  0  0  0  0  0  0
  -37.5057   61.6969   62.3570 O   0  0  0  0  0  0  0  0  0  0  0  0
  -35.8590   64.4921   64.9788 O   0  0  0  0  0  0  0  0  0  0  0  0
  -37.5064   62.1328   65.9143 O   0  0  0  0  0  0  0  0  0  0  0  0
  -37.8434   61.4864   64.6629 C   0  0  0  0  0  0  0  0  0  0  0  0
  -37.2108   62.3432   63.5568 C   0  0  0  0  0  0  0  0  0  0  0  0
  -35.6763   62.4727   63.6735 C   0  0  0  0  0  0  0  0  0  0  0  0
  -35.4099   63.1392   64.9949 C   0  0  0  0  0  0  0  0  0  0  0  0
  -36.0842   62.3591   66.1089 C   0  0  0  0  0  0  0  0  0  0  0  0
  -38.4673   61.6065   62.2664 H   0  0  0  0  0  0  0  0  0  0  0  0
  -35.4163   64.9711   64.2609 H   0  0  0  0  0  0  0  0  0  0  0  0
  -34.3236   63.3863   67.3574 O   0  0  0  0  0  0  0  0  0  0  0  0
  -35.7059   63.1925   67.3314 C   0  0  0  0  0  0  0  0  0  0  0  0
  -34.0859   63.9157   68.1347 H   0  0  0  0  0  0  0  0  0  0  0  0
  -35.0309   63.2924   62.6727 O   0  0  0  0  0  0  0  0  0  0  0  0
  -33.0178   61.6905   62.3594 O   0  0  0  0  0  0  0  0  0  0  0  0
  -32.6431   63.9314   63.2120 O   0  0  0  0  0  0  0  0  0  0  0  0
  -33.1256   63.5860   60.8621 O   0  0  0  0  0  0  0  0  0  0  0  0
  -33.4312   63.1205   62.2447 S   0  0  0  0  0  0  0  0  0  0  0  0
  -33.2094   61.3694   63.2545 H   0  0  0  0  0  0  0  0  0  0  0  0
  -33.6355   63.0622   60.2245 H   0  0  0  0  0  0  0  0  0  0  0  0
  2  1  1  0  0  0
  2  4  1  0  0  0
  2  5  1  0  0  0
 41 42  1  0  0  0
 41  1  1  0  0  0
 42 46  1  0  0  0
  1 24  1  0  0  0
 23 24  1  0  0  0
 23 25  1  0  0  0
 24 26  1  0  0  0
  3  4  2  0  0  0
 26 27  2  0  0  0
 27 28  1  0  0  0
 43 47  1  0  0  0
 43 51  1  0  0  0
 28 29  1  0  0  0
 56 48  1  0  0  0
 56 60  1  0  0  0
 29 30  1  0  0  0
 57 60  1  0  0  0
 57 61  1  0  0  0
 30 31  1  0  0  0
 44 49  1  0  0  0
 44 52  1  0  0  0
 31 32  1  0  0  0
 45 46  1  0  0  0
 45 50  1  0  0  0
 32 33  1  0  0  0
 53 54  1  0  0  0
 53 55  1  0  0  0
 33 34  1  0  0  0
 34 35  1  0  0  0
 35 36  1  0  0  0
 58 60  1  0  0  0
 36 37  1  0  0  0
 59 60  1  0  0  0
 59 62  1  0  0  0
 37 38  1  0  0  0
 38 39  1  0  0  0
 39 40  1  0  0  0
  4  6  1  0  0  0
  6  7  1  0  0  0
  7  8  1  0  0  0
  8  9  1  0  0  0
  9 10  1  0  0  0
 10 11  1  0  0  0
 11 12  1  0  0  0
 12 13  1  0  0  0
 13 14  1  0  0  0
 14 15  1  0  0  0
 15 16  1  0  0  0
 16 17  1  0  0  0
 17 18  1  0  0  0
 18 19  1  0  0  0
 19 20  1  0  0  0
 20 21  1  0  0  0
 21 22  1  0  0  0
 46 47  1  0  0  0
 47 48  1  0  0  0
 48 49  1  0  0  0
 49 50  1  0  0  0
 50 54  1  0  0  0
M  CHG 1  58  -1
M  END
> <minimizedAffinity>
-9.59743

> <CNNscore>
0.2802618742

> <CNNaffinity>
7.2055029869

> <CNN_VS>
2.0194277763

> <CNNaffinity_variance>
2.0037837029

$$$$
/media/chris/experiments/cd1a-new-docking/inputs/ligands/1onq_ligand.pdb


 62 62  0  0  0  0  0  0  0  0999 V2000
  -41.3529   59.9403   64.1472 C   0  0  0  0  0  0  0  0  0  0  0  0
  -41.5831   60.4234   65.4943 N   0  0  0  0  0  0  0  0  0  0  0  0
  -42.8007   61.4377   67.1180 O   0  0  0  0  0  0  0  0  0  0  0  0
  -42.6695   61.0428   65.9757 C   0  0  0  0  0  0  0  0  0  0  0  0
  -40.8501   60.2784   66.1354 H   0  0  0  0  0  0  0  0  0  0  0  0
  -43.7779   61.2473   64.9862 C   0  0  0  0  0  0  0  0  0  0  0  0
  -44.9682   60.4336   65.4944 C   0  0  0  0  0  0  0  0  0  0  0  0
  -45.7059   59.7983   64.3184 C   0  0  0  0  0  0  0  0  0  0  0  0
  -47.2004   59.6531   64.4731 C   0  0  0  0  0  0  0  0  0  0  0  0
  -47.5772   60.2019   65.8453 C   0  0  0  0  0  0  0  0  0  0  0  0
  -49.0063   59.8286   66.2612 C   0  0  0  0  0  0  0  0  0  0  0  0
  -49.8700   59.2633   65.1188 C   0  0  0  0  0  0  0  0  0  0  0  0
  -51.0567   60.1813   64.7525 C   0  0  0  0  0  0  0  0  0  0  0  0
  -51.4545   59.9905   63.2860 C   0  0  0  0  0  0  0  0  0  0  0  0
  -50.4105   59.2967   62.4196 C   0  0  0  0  0  0  0  0  0  0  0  0
  -50.9557   58.0434   61.7509 C   0  0  0  0  0  0  0  0  0  0  0  0
  -49.9330   57.1798   61.0089 C   0  0  0  0  0  0  0  0  0  0  0  0
  -48.7523   58.0626   60.6274 C   0  0  0  0  0  0  0  0  0  0  0  0
  -48.6891   58.6254   59.2152 C   0  0  0  0  0  0  0  0  0  0  0  0
  -48.9770   57.5320   58.1741 C   0  0  0  0  0  0  0  0  0  0  0  0
  -47.8095   57.2421   57.2129 C   0  0  0  0  0  0  0  0  0  0  0  0
  -46.8536   58.4218   57.0507 C   0  0  0  0  0  0  0  0  0  0  0  0
  -41.0141   58.0039   65.3847 O   0  0  0  0  0  0  0  0  0  0  0  0
  -41.7258   58.4716   64.2540 C   0  0  0  0  0  0  0  0  0  0  0  0
  -41.3070   58.4865   66.1734 H   0  0  0  0  0  0  0  0  0  0  0  0
  -41.3098   57.7483   62.9710 C   0  0  0  0  0  0  0  0  0  0  0  0
  -42.0085   57.8295   61.8258 C   0  0  0  0  0  0  0  0  0  0  0  0
  -41.5277   57.0761   60.5868 C   0  0  0  0  0  0  0  0  0  0  0  0
  -41.0321   57.9902   59.4568 C   0  0  0  0  0  0  0  0  0  0  0  0
  -40.9730   59.4921   59.7919 C   0  0  0  0  0  0  0  0  0  0  0  0
  -39.5076   59.9884   59.8325 C   0  0  0  0  0  0  0  0  0  0  0  0
  -38.4423   58.9402   59.4228 C   0  0  0  0  0  0  0  0  0  0  0  0
  -37.4763   58.5399   60.5626 C   0  0  0  0  0  0  0  0  0  0  0  0
  -38.0726   57.5071   61.5434 C   0  0  0  0  0  0  0  0  0  0  0  0
  -37.5947   57.6814   62.9899 C   0  0  0  0  0  0  0  0  0  0  0  0
  -36.3244   58.5071   63.1825 C   0  0  0  0  0  0  0  0  0  0  0  0
  -35.0640   57.6625   63.4539 C   0  0  0  0  0  0  0  0  0  0  0  0
  -33.7978   58.1192   62.7135 C   0  0  0  0  0  0  0  0  0  0  0  0
  -32.6891   58.4952   63.7006 C   0  0  0  0  0  0  0  0  0  0  0  0
  -33.0472   58.4310   65.1748 C   0  0  0  0  0  0  0  0  0  0  0  0
  -39.9659   60.2694   63.5499 C   0  0  0  0  0  0  0  0  0  0  0  0
  -39.3704   61.5297   63.9499 O   0  0  0  0  0  0  0  0  0  0  0  0
  -37.3229   61.9510   61.9985 O   0  0  0  0  0  0  0  0  0  0  0  0
  -35.7346   64.4197   64.9618 O   0  0  0  0  0  0  0  0  0  0  0  0
  -37.6723   62.1736   65.5584 O   0  0  0  0  0  0  0  0  0  0  0  0
  -37.9261   61.6369   64.2374 C   0  0  0  0  0  0  0  0  0  0  0  0
  -37.1052   62.4947   63.2638 C   0  0  0  0  0  0  0  0  0  0  0  0
  -35.5870   62.4730   63.5464 C   0  0  0  0  0  0  0  0  0  0  0  0
  -35.4090   63.0323   64.9309 C   0  0  0  0  0  0  0  0  0  0  0  0
  -36.2654   62.2541   65.9134 C   0  0  0  0  0  0  0  0  0  0  0  0
  -38.2731   61.9564   61.8034 H   0  0  0  0  0  0  0  0  0  0  0  0
  -35.1766   64.8970   64.3279 H   0  0  0  0  0  0  0  0  0  0  0  0
  -34.5690   63.0221   67.4119 O   0  0  0  0  0  0  0  0  0  0  0  0
  -35.9513   62.9746   67.2226 C   0  0  0  0  0  0  0  0  0  0  0  0
  -34.3722   63.4801   68.2440 H   0  0  0  0  0  0  0  0  0  0  0  0
  -34.7681   63.2865   62.6761 O   0  0  0  0  0  0  0  0  0  0  0  0
  -32.3286   63.4712   63.5314 O   0  0  0  0  0  0  0  0  0  0  0  0
  -32.7909   63.7415   61.1645 O   0  0  0  0  0  0  0  0  0  0  0  0
  -32.8476   61.5387   62.1740 O   0  0  0  0  0  0  0  0  0  0  0  0
  -33.1566   62.9808   62.3901 S   0  0  0  0  0  0  0  0  0  0  0  0
  -32.5165   64.4100   63.6873 H   0  0  0  0  0  0  0  0  0  0  0  0
  -33.0831   61.0350   62.9687 H   0  0  0  0  0  0  0  0  0  0  0  0
  2  1  1  0  0  0
  2  4  1  0  0  0
  2  5  1  0  0  0
 41 42  1  0  0  0
 41  1  1  0  0  0
 42 46  1  0  0  0
  1 24  1  0  0  0
 23 24  1  0  0  0
 23 25  1  0  0  0
 24 26  1  0  0  0
  3  4  2  0  0  0
 26 27  2  0  0  0
 27 28  1  0  0  0
 43 47  1  0  0  0
 43 51  1  0  0  0
 28 29  1  0  0  0
 56 48  1  0  0  0
 56 60  1  0  0  0
 29 30  1  0  0  0
 57 60  1  0  0  0
 57 61  1  0  0  0
 30 31  1  0  0  0
 44 49  1  0  0  0
 44 52  1  0  0  0
 31 32  1  0  0  0
 45 46  1  0  0  0
 45 50  1  0  0  0
 32 33  1  0  0  0
 53 54  1  0  0  0
 53 55  1  0  0  0
 33 34  1  0  0  0
 34 35  1  0  0  0
 35 36  1  0  0  0
 58 60  1  0  0  0
 36 37  1  0  0  0
 59 60  1  0  0  0
 59 62  1  0  0  0
 37 38  1  0  0  0
 38 39  1  0  0  0
 39 40  1  0  0  0
  4  6  1  0  0  0
  6  7  1  0  0  0
  7  8  1  0  0  0
  8  9  1  0  0  0
  9 10  1  0  0  0
 10 11  1  0  0  0
 11 12  1  0  0  0
 12 13  1  0  0  0
 13 14  1  0  0  0
 14 15  1  0  0  0
 15 16  1  0  0  0
 16 17  1  0  0  0
 17 18  1  0  0  0
 18 19  1  0  0  0
 19 20  1  0  0  0
 20 21  1  0  0  0
 21 22  1  0  0  0
 46 47  1  0  0  0
 47 48  1  0  0  0
 48 49  1  0  0  0
 49 50  1  0  0  0
 50 54  1  0  0  0
M  CHG 1  58  -1
M  END
> <minimizedAffinity>
-9.89035

> <CNNscore>
0.2288424075

> <CNNaffinity>
7.0446829796

> <CNN_VS>
1.6121221781

> <CNNaffinity_variance>
1.7439365387

$$$$
/media/chris/experiments/cd1a-new-docking/inputs/ligands/1onq_ligand.pdb


 62 62  0  0  0  0  0  0  0  0999 V2000
  -41.6213   58.6906   64.5739 C   0  0  0  0  0  0  0  0  0  0  0  0
  -42.5626   57.9966   65.4303 N   0  0  0  0  0  0  0  0  0  0  0  0
  -44.4225   57.8510   66.7215 O   0  0  0  0  0  0  0  0  0  0  0  0
  -43.6748   58.4813   65.9993 C   0  0  0  0  0  0  0  0  0  0  0  0
  -42.3595   57.0516   65.6173 H   0  0  0  0  0  0  0  0  0  0  0  0
  -43.9712   59.9200   65.6963 C   0  0  0  0  0  0  0  0  0  0  0  0
  -44.8188   59.9293   64.4240 C   0  0  0  0  0  0  0  0  0  0  0  0
  -45.8725   61.0310   64.5073 C   0  0  0  0  0  0  0  0  0  0  0  0
  -47.2814   60.6304   64.1426 C   0  0  0  0  0  0  0  0  0  0  0  0
  -47.4140   59.1319   64.3934 C   0  0  0  0  0  0  0  0  0  0  0  0
  -48.1605   58.8123   65.6955 C   0  0  0  0  0  0  0  0  0  0  0  0
  -49.1483   59.9055   66.1426 C   0  0  0  0  0  0  0  0  0  0  0  0
  -50.5768   59.6822   65.5998 C   0  0  0  0  0  0  0  0  0  0  0  0
  -50.8384   60.5757   64.3839 C   0  0  0  0  0  0  0  0  0  0  0  0
  -51.4932   59.8766   63.1987 C   0  0  0  0  0  0  0  0  0  0  0  0
  -50.8817   58.5106   62.9244 C   0  0  0  0  0  0  0  0  0  0  0  0
  -51.0180   57.9898   61.4919 C   0  0  0  0  0  0  0  0  0  0  0  0
  -49.7754   58.4034   60.7150 C   0  0  0  0  0  0  0  0  0  0  0  0
  -49.4577   57.6856   59.4115 C   0  0  0  0  0  0  0  0  0  0  0  0
  -48.2846   58.3611   58.6836 C   0  0  0  0  0  0  0  0  0  0  0  0
  -47.5997   57.4807   57.6221 C   0  0  0  0  0  0  0  0  0  0  0  0
  -46.4513   58.1847   56.9030 C   0  0  0  0  0  0  0  0  0  0  0  0
  -40.5748   56.9050   63.5193 O   0  0  0  0  0  0  0  0  0  0  0  0
  -41.6229   57.8351   63.3187 C   0  0  0  0  0  0  0  0  0  0  0  0
  -40.7688   56.3627   64.2998 H   0  0  0  0  0  0  0  0  0  0  0  0
  -41.3781   58.7254   62.0981 C   0  0  0  0  0  0  0  0  0  0  0  0
  -40.9353   58.2492   60.9220 C   0  0  0  0  0  0  0  0  0  0  0  0
  -40.7147   59.2037   59.7498 C   0  0  0  0  0  0  0  0  0  0  0  0
  -39.2422   59.5725   59.5171 C   0  0  0  0  0  0  0  0  0  0  0  0
  -38.2166   58.4838   59.8833 C   0  0  0  0  0  0  0  0  0  0  0  0
  -37.5403   58.8001   61.2390 C   0  0  0  0  0  0  0  0  0  0  0  0
  -37.4553   57.6113   62.2295 C   0  0  0  0  0  0  0  0  0  0  0  0
  -37.0907   58.0174   63.6768 C   0  0  0  0  0  0  0  0  0  0  0  0
  -35.7043   57.5105   64.1298 C   0  0  0  0  0  0  0  0  0  0  0  0
  -34.6115   57.6669   63.0656 C   0  0  0  0  0  0  0  0  0  0  0  0
  -34.2174   59.0998   62.7134 C   0  0  0  0  0  0  0  0  0  0  0  0
  -33.0204   59.6366   63.5225 C   0  0  0  0  0  0  0  0  0  0  0  0
  -31.6535   59.0515   63.1359 C   0  0  0  0  0  0  0  0  0  0  0  0
  -30.7322   60.1350   62.5684 C   0  0  0  0  0  0  0  0  0  0  0  0
  -31.1830   60.7969   61.2782 C   0  0  0  0  0  0  0  0  0  0  0  0
  -40.2467   59.0004   65.2091 C   0  0  0  0  0  0  0  0  0  0  0  0
  -39.8985   60.4012   65.3496 O   0  0  0  0  0  0  0  0  0  0  0  0
  -38.8893   61.0887   62.7638 O   0  0  0  0  0  0  0  0  0  0  0  0
  -37.0416   64.1713   64.8810 O   0  0  0  0  0  0  0  0  0  0  0  0
  -37.9655   61.6035   66.1881 O   0  0  0  0  0  0  0  0  0  0  0  0
  -38.5316   60.8823   65.0670 C   0  0  0  0  0  0  0  0  0  0  0  0
  -38.3776   61.8020   63.8471 C   0  0  0  0  0  0  0  0  0  0  0  0
  -36.9125   62.1760   63.5330 C   0  0  0  0  0  0  0  0  0  0  0  0
  -36.3970   62.9075   64.7415 C   0  0  0  0  0  0  0  0  0  0  0  0
  -36.6004   62.0571   65.9823 C   0  0  0  0  0  0  0  0  0  0  0  0
  -39.8109   60.8448   62.9436 H   0  0  0  0  0  0  0  0  0  0  0  0
  -36.8991   64.6972   64.0785 H   0  0  0  0  0  0  0  0  0  0  0  0
  -36.4395   62.5125   68.3233 O   0  0  0  0  0  0  0  0  0  0  0  0
  -36.0330   62.9688   67.0682 C   0  0  0  0  0  0  0  0  0  0  0  0
  -36.0779   63.0932   69.0111 H   0  0  0  0  0  0  0  0  0  0  0  0
  -36.7111   63.0635   62.4098 O   0  0  0  0  0  0  0  0  0  0  0  0
  -35.1436   65.1059   62.7073 O   0  0  0  0  0  0  0  0  0  0  0  0
  -35.2066   63.9455   60.5769 O   0  0  0  0  0  0  0  0  0  0  0  0
  -34.0694   62.9524   62.4729 O   0  0  0  0  0  0  0  0  0  0  0  0
  -35.2449   63.7674   62.0538 S   0  0  0  0  0  0  0  0  0  0  0  0
  -35.9017   65.6516   62.4457 H   0  0  0  0  0  0  0  0  0  0  0  0
  -34.0865   62.8313   63.4351 H   0  0  0  0  0  0  0  0  0  0  0  0
  2  1  1  0  0  0
  2  4  1  0  0  0
  2  5  1  0  0  0
 41 42  1  0  0  0
 41  1  1  0  0  0
 42 46  1  0  0  0
  1 24  1  0  0  0
 23 24  1  0  0  0
 23 25  1  0  0  0
 24 26  1  0  0  0
  3  4  2  0  0  0
 26 27  2  0  0  0
 27 28  1  0  0  0
 43 47  1  0  0  0
 43 51  1  0  0  0
 28 29  1  0  0  0
 56 48  1  0  0  0
 56 60  1  0  0  0
 29 30  1  0  0  0
 57 60  1  0  0  0
 57 61  1  0  0  0
 30 31  1  0  0  0
 44 49  1  0  0  0
 44 52  1  0  0  0
 31 32  1  0  0  0
 45 46  1  0  0  0
 45 50  1  0  0  0
 32 33  1  0  0  0
 53 54  1  0  0  0
 53 55  1  0  0  0
 33 34  1  0  0  0
 34 35  1  0  0  0
 35 36  1  0  0  0
 58 60  1  0  0  0
 36 37  1  0  0  0
 59 60  1  0  0  0
 59 62  1  0  0  0
 37 38  1  0  0  0
 38 39  1  0  0  0
 39 40  1  0  0  0
  4  6  1  0  0  0
  6  7  1  0  0  0
  7  8  1  0  0  0
  8  9  1  0  0  0
  9 10  1  0  0  0
 10 11  1  0  0  0
 11 12  1  0  0  0
 12 13  1  0  0  0
 13 14  1  0  0  0
 14 15  1  0  0  0
 15 16  1  0  0  0
 16 17  1  0  0  0
 17 18  1  0  0  0
 18 19  1  0  0  0
 19 20  1  0  0  0
 20 21  1  0  0  0
 21 22  1  0  0  0
 46 47  1  0  0  0
 47 48  1  0  0  0
 48 49  1  0  0  0
 49 50  1  0  0  0
 50 54  1  0  0  0
M  CHG 1  58  -1
M  END
> <minimizedAffinity>
-9.26811

> <CNNscore>
0.2093023360

> <CNNaffinity>
6.9462594986

> <CNN_VS>
1.4538683891

> <CNNaffinity_variance>
1.6312658787

$$$$
/media/chris/experiments/cd1a-new-docking/inputs/ligands/1onq_ligand.pdb


 62 62  0  0  0  0  0  0  0  0999 V2000
  -41.3583   60.2645   65.1110 C   0  0  0  0  0  0  0  0  0  0  0  0
  -41.9916   59.0243   65.5133 N   0  0  0  0  0  0  0  0  0  0  0  0
  -42.3861   56.7946   65.3701 O   0  0  0  0  0  0  0  0  0  0  0  0
  -41.8147   57.8006   64.9967 C   0  0  0  0  0  0  0  0  0  0  0  0
  -42.6314   59.0890   66.2587 H   0  0  0  0  0  0  0  0  0  0  0  0
  -40.8306   57.7212   63.8676 C   0  0  0  0  0  0  0  0  0  0  0  0
  -41.6523   57.5960   62.5845 C   0  0  0  0  0  0  0  0  0  0  0  0
  -41.2138   56.3601   61.8029 C   0  0  0  0  0  0  0  0  0  0  0  0
  -41.3724   56.4326   60.3035 C   0  0  0  0  0  0  0  0  0  0  0  0
  -41.2365   57.8959   59.8959 C   0  0  0  0  0  0  0  0  0  0  0  0
  -40.0114   58.1529   59.0082 C   0  0  0  0  0  0  0  0  0  0  0  0
  -39.0706   59.2533   59.5322 C   0  0  0  0  0  0  0  0  0  0  0  0
  -37.7483   58.6926   60.1000 C   0  0  0  0  0  0  0  0  0  0  0  0
  -37.9502   58.1737   61.5266 C   0  0  0  0  0  0  0  0  0  0  0  0
  -36.6964   58.1636   62.3926 C   0  0  0  0  0  0  0  0  0  0  0  0
  -36.9877   57.7419   63.8252 C   0  0  0  0  0  0  0  0  0  0  0  0
  -35.9201   58.1019   64.8610 C   0  0  0  0  0  0  0  0  0  0  0  0
  -34.8524   58.9409   64.1718 C   0  0  0  0  0  0  0  0  0  0  0  0
  -33.3895   58.6494   64.4721 C   0  0  0  0  0  0  0  0  0  0  0  0
  -32.5761   58.5244   63.1740 C   0  0  0  0  0  0  0  0  0  0  0  0
  -31.5083   59.6171   62.9819 C   0  0  0  0  0  0  0  0  0  0  0  0
  -31.8991   60.6678   61.9450 C   0  0  0  0  0  0  0  0  0  0  0  0
  -42.1850   62.2140   64.1559 O   0  0  0  0  0  0  0  0  0  0  0  0
  -42.3245   60.8078   64.0723 C   0  0  0  0  0  0  0  0  0  0  0  0
  -41.2739   62.4622   63.9344 H   0  0  0  0  0  0  0  0  0  0  0  0
  -43.7444   60.3479   64.4113 C   0  0  0  0  0  0  0  0  0  0  0  0
  -44.8300   61.1132   64.2064 C   0  0  0  0  0  0  0  0  0  0  0  0
  -46.2148   60.5820   64.5724 C   0  0  0  0  0  0  0  0  0  0  0  0
  -46.2766   59.9036   65.9486 C   0  0  0  0  0  0  0  0  0  0  0  0
  -47.6664   59.4024   66.3828 C   0  0  0  0  0  0  0  0  0  0  0  0
  -48.3936   58.7108   65.2045 C   0  0  0  0  0  0  0  0  0  0  0  0
  -49.9137   58.4864   65.4052 C   0  0  0  0  0  0  0  0  0  0  0  0
  -50.7592   59.7800   65.3376 C   0  0  0  0  0  0  0  0  0  0  0  0
  -50.4675   60.6442   64.0918 C   0  0  0  0  0  0  0  0  0  0  0  0
  -50.9259   60.0050   62.7755 C   0  0  0  0  0  0  0  0  0  0  0  0
  -49.8326   59.7340   61.7442 C   0  0  0  0  0  0  0  0  0  0  0  0
  -49.8389   58.2964   61.1883 C   0  0  0  0  0  0  0  0  0  0  0  0
  -50.1760   58.1735   59.6946 C   0  0  0  0  0  0  0  0  0  0  0  0
  -48.9069   58.2188   58.8389 C   0  0  0  0  0  0  0  0  0  0  0  0
  -47.7989   57.2540   59.2227 C   0  0  0  0  0  0  0  0  0  0  0  0
  -39.8742   60.1498   64.6952 C   0  0  0  0  0  0  0  0  0  0  0  0
  -39.2137   61.3802   64.3037 O   0  0  0  0  0  0  0  0  0  0  0  0
  -37.2191   61.7341   62.2854 O   0  0  0  0  0  0  0  0  0  0  0  0
  -35.7276   64.5379   64.9895 O   0  0  0  0  0  0  0  0  0  0  0  0
  -37.5315   62.2541   65.8175 O   0  0  0  0  0  0  0  0  0  0  0  0
  -37.7737   61.5891   64.5540 C   0  0  0  0  0  0  0  0  0  0  0  0
  -37.0141   62.3992   63.4935 C   0  0  0  0  0  0  0  0  0  0  0  0
  -35.4934   62.4835   63.7489 C   0  0  0  0  0  0  0  0  0  0  0  0
  -35.3272   63.1725   65.0752 C   0  0  0  0  0  0  0  0  0  0  0  0
  -36.1265   62.4405   66.1380 C   0  0  0  0  0  0  0  0  0  0  0  0
  -38.1708   61.6716   62.1081 H   0  0  0  0  0  0  0  0  0  0  0  0
  -35.2052   64.9858   64.3058 H   0  0  0  0  0  0  0  0  0  0  0  0
  -36.3340   62.6533   68.5097 O   0  0  0  0  0  0  0  0  0  0  0  0
  -35.8343   63.2905   67.3727 C   0  0  0  0  0  0  0  0  0  0  0  0
  -36.1472   63.1950   69.2924 H   0  0  0  0  0  0  0  0  0  0  0  0
  -34.7320   63.2586   62.7952 O   0  0  0  0  0  0  0  0  0  0  0  0
  -35.7749   63.7703   60.4785 O   0  0  0  0  0  0  0  0  0  0  0  0
  -34.3814   65.4377   61.5586 O   0  0  0  0  0  0  0  0  0  0  0  0
  -36.6375   65.0374   62.3485 O   0  0  0  0  0  0  0  0  0  0  0  0
  -35.4163   64.3932   61.7870 S   0  0  0  0  0  0  0  0  0  0  0  0
  -34.9909   63.3452   60.0971 H   0  0  0  0  0  0  0  0  0  0  0  0
  -37.3179   64.3631   62.5005 H   0  0  0  0  0  0  0  0  0  0  0  0
  2  1  1  0  0  0
  2  4  1  0  0  0
  2  5  1  0  0  0
 41 42  1  0  0  0
 41  1  1  0  0  0
 42 46  1  0  0  0
  1 24  1  0  0  0
 23 24  1  0  0  0
 23 25  1  0  0  0
 24 26  1  0  0  0
  3  4  2  0  0  0
 26 27  2  0  0  0
 27 28  1  0  0  0
 43 47  1  0  0  0
 43 51  1  0  0  0
 28 29  1  0  0  0
 56 48  1  0  0  0
 56 60  1  0  0  0
 29 30  1  0  0  0
 57 60  1  0  0  0
 57 61  1  0  0  0
 30 31  1  0  0  0
 44 49  1  0  0  0
 44 52  1  0  0  0
 31 32  1  0  0  0
 45 46  1  0  0  0
 45 50  1  0  0  0
 32 33  1  0  0  0
 53 54  1  0  0  0
 53 55  1  0  0  0
 33 34  1  0  0  0
 34 35  1  0  0  0
 35 36  1  0  0  0
 58 60  1  0  0  0
 36 37  1  0  0  0
 59 60  1  0  0  0
 59 62  1  0  0  0
 37 38  1  0  0  0
 38 39  1  0  0  0
 39 40  1  0  0  0
  4  6  1  0  0  0
  6  7  1  0  0  0
  7  8  1  0  0  0
  8  9  1  0  0  0
  9 10  1  0  0  0
 10 11  1  0  0  0
 11 12  1  0  0  0
 12 13  1  0  0  0
 13 14  1  0  0  0
 14 15  1  0  0  0
 15 16  1  0  0  0
 16 17  1  0  0  0
 17 18  1  0  0  0
 18 19  1  0  0  0
 19 20  1  0  0  0
 20 21  1  0  0  0
 21 22  1  0  0  0
 46 47  1  0  0  0
 47 48  1  0  0  0
 48 49  1  0  0  0
 49 50  1  0  0  0
 50 54  1  0  0  0
M  CHG 1  58  -1
M  END
> <minimizedAffinity>
-9.60215

> <CNNscore>
0.2078190297

> <CNNaffinity>
6.9753370285

> <CNN_VS>
1.4496077299

> <CNNaffinity_variance>
2.2322092056

$$$$
/media/chris/experiments/cd1a-new-docking/inputs/ligands/1onq_ligand.pdb


 62 62  0  0  0  0  0  0  0  0999 V2000
  -41.4916   59.5126   65.2522 C   0  0  0  0  0  0  0  0  0  0  0  0
  -42.5438   60.5001   65.3890 N   0  0  0  0  0  0  0  0  0  0  0  0
  -44.1458   61.8978   64.5967 O   0  0  0  0  0  0  0  0  0  0  0  0
  -43.2808   61.0618   64.4210 C   0  0  0  0  0  0  0  0  0  0  0  0
  -42.7416   60.7948   66.3072 H   0  0  0  0  0  0  0  0  0  0  0  0
  -42.9700   60.5942   63.0302 C   0  0  0  0  0  0  0  0  0  0  0  0
  -41.9297   61.5639   62.4693 C   0  0  0  0  0  0  0  0  0  0  0  0
  -42.3236   61.9923   61.0578 C   0  0  0  0  0  0  0  0  0  0  0  0
  -41.4894   61.4248   59.9351 C   0  0  0  0  0  0  0  0  0  0  0  0
  -40.5598   60.3759   60.5365 C   0  0  0  0  0  0  0  0  0  0  0  0
  -39.8527   59.5289   59.4699 C   0  0  0  0  0  0  0  0  0  0  0  0
  -40.5499   58.1915   59.1603 C   0  0  0  0  0  0  0  0  0  0  0  0
  -41.5396   57.7604   60.2648 C   0  0  0  0  0  0  0  0  0  0  0  0
  -41.2370   56.3347   60.7347 C   0  0  0  0  0  0  0  0  0  0  0  0
  -40.6909   56.2254   62.1531 C   0  0  0  0  0  0  0  0  0  0  0  0
  -39.7286   57.3548   62.4899 C   0  0  0  0  0  0  0  0  0  0  0  0
  -38.3129   57.2214   61.9240 C   0  0  0  0  0  0  0  0  0  0  0  0
  -37.3309   57.7166   62.9773 C   0  0  0  0  0  0  0  0  0  0  0  0
  -36.0260   58.3496   62.5172 C   0  0  0  0  0  0  0  0  0  0  0  0
  -34.8194   57.6633   63.1771 C   0  0  0  0  0  0  0  0  0  0  0  0
  -34.5652   58.0834   64.6365 C   0  0  0  0  0  0  0  0  0  0  0  0
  -33.9607   59.4796   64.7666 C   0  0  0  0  0  0  0  0  0  0  0  0
  -41.6776   57.1990   65.3461 O   0  0  0  0  0  0  0  0  0  0  0  0
  -42.0116   58.3566   66.0893 C   0  0  0  0  0  0  0  0  0  0  0  0
  -40.7140   57.1426   65.2513 H   0  0  0  0  0  0  0  0  0  0  0  0
  -43.5234   58.5058   66.2760 C   0  0  0  0  0  0  0  0  0  0  0  0
  -44.4069   57.5834   65.8581 C   0  0  0  0  0  0  0  0  0  0  0  0
  -45.9017   57.8064   66.0810 C   0  0  0  0  0  0  0  0  0  0  0  0
  -46.3267   59.2806   66.0161 C   0  0  0  0  0  0  0  0  0  0  0  0
  -47.8339   59.5478   66.1844 C   0  0  0  0  0  0  0  0  0  0  0  0
  -48.6639   58.5913   65.2946 C   0  0  0  0  0  0  0  0  0  0  0  0
  -50.1957   58.8242   65.3222 C   0  0  0  0  0  0  0  0  0  0  0  0
  -50.6593   60.0814   64.5495 C   0  0  0  0  0  0  0  0  0  0  0  0
  -51.4841   59.7597   63.2845 C   0  0  0  0  0  0  0  0  0  0  0  0
  -50.7571   58.8486   62.2882 C   0  0  0  0  0  0  0  0  0  0  0  0
  -49.4517   59.3918   61.7108 C   0  0  0  0  0  0  0  0  0  0  0  0
  -49.4701   59.5683   60.1796 C   0  0  0  0  0  0  0  0  0  0  0  0
  -49.5196   58.2633   59.3706 C   0  0  0  0  0  0  0  0  0  0  0  0
  -48.1091   57.7452   59.0759 C   0  0  0  0  0  0  0  0  0  0  0  0
  -47.4540   58.2560   57.8048 C   0  0  0  0  0  0  0  0  0  0  0  0
  -40.0630   60.0148   65.5617 C   0  0  0  0  0  0  0  0  0  0  0  0
  -39.4666   60.9118   64.5907 O   0  0  0  0  0  0  0  0  0  0  0  0
  -37.7635   61.3879   62.3434 O   0  0  0  0  0  0  0  0  0  0  0  0
  -36.2885   64.4419   64.7715 O   0  0  0  0  0  0  0  0  0  0  0  0
  -37.7287   62.0186   65.8712 O   0  0  0  0  0  0  0  0  0  0  0  0
  -38.0387   61.2800   64.6646 C   0  0  0  0  0  0  0  0  0  0  0  0
  -37.4964   62.1203   63.4994 C   0  0  0  0  0  0  0  0  0  0  0  0
  -35.9747   62.3733   63.5725 C   0  0  0  0  0  0  0  0  0  0  0  0
  -35.7352   63.1304   64.8496 C   0  0  0  0  0  0  0  0  0  0  0  0
  -36.3249   62.3637   66.0195 C   0  0  0  0  0  0  0  0  0  0  0  0
  -38.7167   61.2191   62.2805 H   0  0  0  0  0  0  0  0  0  0  0  0
  -35.8985   64.9130   64.0186 H   0  0  0  0  0  0  0  0  0  0  0  0
  -36.3128   62.6636   68.3909 O   0  0  0  0  0  0  0  0  0  0  0  0
  -35.9888   63.2900   67.1862 C   0  0  0  0  0  0  0  0  0  0  0  0
  -36.0985   63.2539   69.1302 H   0  0  0  0  0  0  0  0  0  0  0  0
  -35.4147   63.1834   62.5141 O   0  0  0  0  0  0  0  0  0  0  0  0
  -33.5095   63.7262   60.8431 O   0  0  0  0  0  0  0  0  0  0  0  0
  -33.1649   62.0265   62.5405 O   0  0  0  0  0  0  0  0  0  0  0  0
  -33.1383   64.3739   63.1429 O   0  0  0  0  0  0  0  0  0  0  0  0
  -33.7776   63.3540   62.2638 S   0  0  0  0  0  0  0  0  0  0  0  0
  -33.9188   63.0725   60.2549 H   0  0  0  0  0  0  0  0  0  0  0  0
  -33.5320   65.2431   62.9690 H   0  0  0  0  0  0  0  0  0  0  0  0
  2  1  1  0  0  0
  2  4  1  0  0  0
  2  5  1  0  0  0
 41 42  1  0  0  0
 41  1  1  0  0  0
 42 46  1  0  0  0
  1 24  1  0  0  0
 23 24  1  0  0  0
 23 25  1  0  0  0
 24 26  1  0  0  0
  3  4  2  0  0  0
 26 27  2  0  0  0
 27 28  1  0  0  0
 43 47  1  0  0  0
 43 51  1  0  0  0
 28 29  1  0  0  0
 56 48  1  0  0  0
 56 60  1  0  0  0
 29 30  1  0  0  0
 57 60  1  0  0  0
 57 61  1  0  0  0
 30 31  1  0  0  0
 44 49  1  0  0  0
 44 52  1  0  0  0
 31 32  1  0  0  0
 45 46  1  0  0  0
 45 50  1  0  0  0
 32 33  1  0  0  0
 53 54  1  0  0  0
 53 55  1  0  0  0
 33 34  1  0  0  0
 34 35  1  0  0  0
 35 36  1  0  0  0
 58 60  1  0  0  0
 36 37  1  0  0  0
 59 60  1  0  0  0
 59 62  1  0  0  0
 37 38  1  0  0  0
 38 39  1  0  0  0
 39 40  1  0  0  0
  4  6  1  0  0  0
  6  7  1  0  0  0
  7  8  1  0  0  0
  8  9  1  0  0  0
  9 10  1  0  0  0
 10 11  1  0  0  0
 11 12  1  0  0  0
 12 13  1  0  0  0
 13 14  1  0  0  0
 14 15  1  0  0  0
 15 16  1  0  0  0
 16 17  1  0  0  0
 17 18  1  0  0  0
 18 19  1  0  0  0
 19 20  1  0  0  0
 20 21  1  0  0  0
 21 22  1  0  0  0
 46 47  1  0  0  0
 47 48  1  0  0  0
 48 49  1  0  0  0
 49 50  1  0  0  0
 50 54  1  0  0  0
M  CHG 1  58  -1
M  END
> <minimizedAffinity>
-9.60055

> <CNNscore>
0.2033631951

> <CNNaffinity>
7.1985688210

> <CNN_VS>
1.4639239311

> <CNNaffinity_variance>
2.0992722511

$$$$
/media/chris/experiments/cd1a-new-docking/inputs/ligands/1onq_ligand.pdb


 62 62  0  0  0  0  0  0  0  0999 V2000
  -41.3340   59.9774   65.0563 C   0  0  0  0  0  0  0  0  0  0  0  0
  -42.2196   60.9466   64.4419 N   0  0  0  0  0  0  0  0  0  0  0  0
  -43.3108   61.8913   62.6914 O   0  0  0  0  0  0  0  0  0  0  0  0
  -42.5693   61.0452   63.1521 C   0  0  0  0  0  0  0  0  0  0  0  0
  -42.6130   61.6157   65.0475 H   0  0  0  0  0  0  0  0  0  0  0  0
  -41.9660   60.0125   62.2471 C   0  0  0  0  0  0  0  0  0  0  0  0
  -41.1396   60.7741   61.2106 C   0  0  0  0  0  0  0  0  0  0  0  0
  -41.0502   59.9657   59.9185 C   0  0  0  0  0  0  0  0  0  0  0  0
  -40.1061   58.7881   59.9368 C   0  0  0  0  0  0  0  0  0  0  0  0
  -39.1039   59.0183   61.0631 C   0  0  0  0  0  0  0  0  0  0  0  0
  -37.8093   58.2154   60.8782 C   0  0  0  0  0  0  0  0  0  0  0  0
  -37.3819   57.4103   62.1191 C   0  0  0  0  0  0  0  0  0  0  0  0
  -37.6924   58.1401   63.4444 C   0  0  0  0  0  0  0  0  0  0  0  0
  -36.6525   57.7870   64.5117 C   0  0  0  0  0  0  0  0  0  0  0  0
  -35.4458   58.7158   64.5686 C   0  0  0  0  0  0  0  0  0  0  0  0
  -34.3312   58.2721   63.6326 C   0  0  0  0  0  0  0  0  0  0  0  0
  -32.9377   58.8259   63.9386 C   0  0  0  0  0  0  0  0  0  0  0  0
  -32.2849   59.2254   62.6222 C   0  0  0  0  0  0  0  0  0  0  0  0
  -30.9119   59.8801   62.6583 C   0  0  0  0  0  0  0  0  0  0  0  0
  -30.7267   60.8353   61.4685 C   0  0  0  0  0  0  0  0  0  0  0  0
  -29.4547   61.7004   61.5361 C   0  0  0  0  0  0  0  0  0  0  0  0
  -28.2896   61.0075   62.2388 C   0  0  0  0  0  0  0  0  0  0  0  0
  -42.1799   58.0000   65.9341 O   0  0  0  0  0  0  0  0  0  0  0  0
  -42.1963   59.3967   66.1640 C   0  0  0  0  0  0  0  0  0  0  0  0
  -41.2701   57.6714   66.0049 H   0  0  0  0  0  0  0  0  0  0  0  0
  -43.6077   59.9807   66.0666 C   0  0  0  0  0  0  0  0  0  0  0  0
  -44.7159   59.2205   66.0676 C   0  0  0  0  0  0  0  0  0  0  0  0
  -46.0902   59.8797   65.9660 C   0  0  0  0  0  0  0  0  0  0  0  0
  -46.4687   60.3118   64.5419 C   0  0  0  0  0  0  0  0  0  0  0  0
  -47.9483   60.6810   64.3285 C   0  0  0  0  0  0  0  0  0  0  0  0
  -48.7989   60.2717   65.5551 C   0  0  0  0  0  0  0  0  0  0  0  0
  -50.0580   59.4268   65.2349 C   0  0  0  0  0  0  0  0  0  0  0  0
  -51.1421   60.1845   64.4328 C   0  0  0  0  0  0  0  0  0  0  0  0
  -51.3675   59.6203   63.0133 C   0  0  0  0  0  0  0  0  0  0  0  0
  -50.5786   58.3372   62.7262 C   0  0  0  0  0  0  0  0  0  0  0  0
  -49.3045   58.5030   61.9005 C   0  0  0  0  0  0  0  0  0  0  0  0
  -49.3266   57.7478   60.5570 C   0  0  0  0  0  0  0  0  0  0  0  0
  -49.0002   58.6002   59.3213 C   0  0  0  0  0  0  0  0  0  0  0  0
  -48.4107   57.7400   58.2000 C   0  0  0  0  0  0  0  0  0  0  0  0
  -47.1720   58.2848   57.5111 C   0  0  0  0  0  0  0  0  0  0  0  0
  -39.9406   60.5107   65.4597 C   0  0  0  0  0  0  0  0  0  0  0  0
  -39.2412   61.3093   64.4716 O   0  0  0  0  0  0  0  0  0  0  0  0
  -37.5018   61.7536   62.2458 O   0  0  0  0  0  0  0  0  0  0  0  0
  -35.7297   64.4911   64.8466 O   0  0  0  0  0  0  0  0  0  0  0  0
  -37.4011   62.1581   65.8053 O   0  0  0  0  0  0  0  0  0  0  0  0
  -37.7839   61.5298   64.5578 C   0  0  0  0  0  0  0  0  0  0  0  0
  -37.1625   62.3831   63.4427 C   0  0  0  0  0  0  0  0  0  0  0  0
  -35.6231   62.4800   63.5203 C   0  0  0  0  0  0  0  0  0  0  0  0
  -35.3087   63.1292   64.8398 C   0  0  0  0  0  0  0  0  0  0  0  0
  -35.9699   62.3534   65.9646 C   0  0  0  0  0  0  0  0  0  0  0  0
  -38.4671   61.6838   62.1795 H   0  0  0  0  0  0  0  0  0  0  0  0
  -35.2959   64.9672   64.1213 H   0  0  0  0  0  0  0  0  0  0  0  0
  -36.4971   64.1518   67.4482 O   0  0  0  0  0  0  0  0  0  0  0  0
  -35.5427   63.1680   67.1836 C   0  0  0  0  0  0  0  0  0  0  0  0
  -36.2234   64.6677   68.2227 H   0  0  0  0  0  0  0  0  0  0  0  0
  -34.9870   63.2949   62.5098 O   0  0  0  0  0  0  0  0  0  0  0  0
  -33.2506   65.1326   63.0797 O   0  0  0  0  0  0  0  0  0  0  0  0
  -32.8749   63.6812   61.1715 O   0  0  0  0  0  0  0  0  0  0  0  0
  -32.5458   62.8453   63.4226 O   0  0  0  0  0  0  0  0  0  0  0  0
  -33.3826   63.7359   62.5693 S   0  0  0  0  0  0  0  0  0  0  0  0
  -33.7895   65.7280   62.5356 H   0  0  0  0  0  0  0  0  0  0  0  0
  -32.8700   62.8749   64.3362 H   0  0  0  0  0  0  0  0  0  0  0  0
  2  1  1  0  0  0
  2  4  1  0  0  0
  2  5  1  0  0  0
 41 42  1  0  0  0
 41  1  1  0  0  0
 42 46  1  0  0  0
  1 24  1  0  0  0
 23 24  1  0  0  0
 23 25  1  0  0  0
 24 26  1  0  0  0
  3  4  2  0  0  0
 26 27  2  0  0  0
 27 28  1  0  0  0
 43 47  1  0  0  0
 43 51  1  0  0  0
 28 29  1  0  0  0
 56 48  1  0  0  0
 56 60  1  0  0  0
 29 30  1  0  0  0
 57 60  1  0  0  0
 57 61  1  0  0  0
 30 31  1  0  0  0
 44 49  1  0  0  0
 44 52  1  0  0  0
 31 32  1  0  0  0
 45 46  1  0  0  0
 45 50  1  0  0  0
 32 33  1  0  0  0
 53 54  1  0  0  0
 53 55  1  0  0  0
 33 34  1  0  0  0
 34 35  1  0  0  0
 35 36  1  0  0  0
 58 60  1  0  0  0
 36 37  1  0  0  0
 59 60  1  0  0  0
 59 62  1  0  0  0
 37 38  1  0  0  0
 38 39  1  0  0  0
 39 40  1  0  0  0
  4  6  1  0  0  0
  6  7  1  0  0  0
  7  8  1  0  0  0
  8  9  1  0  0  0
  9 10  1  0  0  0
 10 11  1  0  0  0
 11 12  1  0  0  0
 12 13  1  0  0  0
 13 14  1  0  0  0
 14 15  1  0  0  0
 15 16  1  0  0  0
 16 17  1  0  0  0
 17 18  1  0  0  0
 18 19  1  0  0  0
 19 20  1  0  0  0
 20 21  1  0  0  0
 21 22  1  0  0  0
 46 47  1  0  0  0
 47 48  1  0  0  0
 48 49  1  0  0  0
 49 50  1  0  0  0
 50 54  1  0  0  0
M  CHG 1  58  -1
M  END
> <minimizedAffinity>
-9.40117

> <CNNscore>
0.1702868193

> <CNNaffinity>
6.7111983299

> <CNN_VS>
1.1428285837

> <CNNaffinity_variance>
1.5316286087

$$$$
/media/chris/experiments/cd1a-new-docking/inputs/ligands/1onq_ligand.pdb


 62 62  0  0  0  0  0  0  0  0999 V2000
  -40.3658   59.9973   64.6591 C   0  0  0  0  0  0  0  0  0  0  0  0
  -41.2852   60.3044   65.7368 N   0  0  0  0  0  0  0  0  0  0  0  0
  -43.2076   61.1430   66.6022 O   0  0  0  0  0  0  0  0  0  0  0  0
  -42.4829   60.8999   65.6568 C   0  0  0  0  0  0  0  0  0  0  0  0
  -40.9933   60.0430   66.6400 H   0  0  0  0  0  0  0  0  0  0  0  0
  -42.9132   61.2833   64.2721 C   0  0  0  0  0  0  0  0  0  0  0  0
  -44.4343   61.4304   64.3160 C   0  0  0  0  0  0  0  0  0  0  0  0
  -45.0863   60.0598   64.4809 C   0  0  0  0  0  0  0  0  0  0  0  0
  -46.3093   60.0089   65.3642 C   0  0  0  0  0  0  0  0  0  0  0  0
  -47.5079   59.6965   64.4743 C   0  0  0  0  0  0  0  0  0  0  0  0
  -48.1914   58.3731   64.8433 C   0  0  0  0  0  0  0  0  0  0  0  0
  -49.6524   58.5234   65.3053 C   0  0  0  0  0  0  0  0  0  0  0  0
  -50.2109   59.9451   65.0774 C   0  0  0  0  0  0  0  0  0  0  0  0
  -51.2436   59.9448   63.9465 C   0  0  0  0  0  0  0  0  0  0  0  0
  -50.6876   60.2698   62.5655 C   0  0  0  0  0  0  0  0  0  0  0  0
  -50.2981   59.0194   61.7910 C   0  0  0  0  0  0  0  0  0  0  0  0
  -49.5287   59.2494   60.4883 C   0  0  0  0  0  0  0  0  0  0  0  0
  -48.6243   58.0473   60.2513 C   0  0  0  0  0  0  0  0  0  0  0  0
  -48.9343   57.1202   59.0854 C   0  0  0  0  0  0  0  0  0  0  0  0
  -47.6950   56.3021   58.6888 C   0  0  0  0  0  0  0  0  0  0  0  0
  -47.1392   56.6229   57.2891 C   0  0  0  0  0  0  0  0  0  0  0  0
  -46.9257   58.1161   57.0517 C   0  0  0  0  0  0  0  0  0  0  0  0
  -39.2508   57.9730   64.8932 O   0  0  0  0  0  0  0  0  0  0  0  0
  -40.5130   58.4920   64.5173 C   0  0  0  0  0  0  0  0  0  0  0  0
  -39.0652   58.2104   65.8151 H   0  0  0  0  0  0  0  0  0  0  0  0
  -40.8682   58.1517   63.0680 C   0  0  0  0  0  0  0  0  0  0  0  0
  -40.8136   56.9026   62.5752 C   0  0  0  0  0  0  0  0  0  0  0  0
  -41.1834   56.6443   61.1157 C   0  0  0  0  0  0  0  0  0  0  0  0
  -41.4878   57.9197   60.3164 C   0  0  0  0  0  0  0  0  0  0  0  0
  -40.4159   58.3363   59.2923 C   0  0  0  0  0  0  0  0  0  0  0  0
  -39.8859   59.7576   59.5995 C   0  0  0  0  0  0  0  0  0  0  0  0
  -38.6099   59.8126   60.4773 C   0  0  0  0  0  0  0  0  0  0  0  0
  -37.7699   58.5139   60.4558 C   0  0  0  0  0  0  0  0  0  0  0  0
  -37.4697   57.9493   61.8612 C   0  0  0  0  0  0  0  0  0  0  0  0
  -36.0219   58.1659   62.3176 C   0  0  0  0  0  0  0  0  0  0  0  0
  -35.8366   58.6594   63.7509 C   0  0  0  0  0  0  0  0  0  0  0  0
  -34.8022   57.8538   64.5615 C   0  0  0  0  0  0  0  0  0  0  0  0
  -33.5350   58.6266   64.9577 C   0  0  0  0  0  0  0  0  0  0  0  0
  -33.1843   59.6835   63.9065 C   0  0  0  0  0  0  0  0  0  0  0  0
  -31.9892   59.3828   63.0193 C   0  0  0  0  0  0  0  0  0  0  0  0
  -38.9319   60.5481   64.8300 C   0  0  0  0  0  0  0  0  0  0  0  0
  -38.2915   61.0698   63.6379 O   0  0  0  0  0  0  0  0  0  0  0  0
  -36.5264   61.8255   65.7571 O   0  0  0  0  0  0  0  0  0  0  0  0
  -34.1409   63.1399   62.5980 O   0  0  0  0  0  0  0  0  0  0  0  0
  -37.1344   62.7724   62.3544 O   0  0  0  0  0  0  0  0  0  0  0  0
  -37.4891   62.3084   63.6797 C   0  0  0  0  0  0  0  0  0  0  0  0
  -36.1755   62.2361   64.4716 C   0  0  0  0  0  0  0  0  0  0  0  0
  -35.4404   63.5900   64.5788 C   0  0  0  0  0  0  0  0  0  0  0  0
  -35.1179   64.0060   63.1701 C   0  0  0  0  0  0  0  0  0  0  0  0
  -36.3854   64.0175   62.3349 C   0  0  0  0  0  0  0  0  0  0  0  0
  -36.9902   60.9748   65.7094 H   0  0  0  0  0  0  0  0  0  0  0  0
  -33.3409   63.1478   63.1465 H   0  0  0  0  0  0  0  0  0  0  0  0
  -36.1362   65.7927   60.7538 O   0  0  0  0  0  0  0  0  0  0  0  0
  -35.8441   64.4453   60.9725 C   0  0  0  0  0  0  0  0  0  0  0  0
  -35.7914   66.0619   59.8880 H   0  0  0  0  0  0  0  0  0  0  0  0
  -34.1824   63.5743   65.2910 O   0  0  0  0  0  0  0  0  0  0  0  0
  -35.3395   64.4055   67.4560 O   0  0  0  0  0  0  0  0  0  0  0  0
  -33.2782   65.4548   66.7218 O   0  0  0  0  0  0  0  0  0  0  0  0
  -33.2316   63.2550   67.7382 O   0  0  0  0  0  0  0  0  0  0  0  0
  -34.0024   64.1601   66.8390 S   0  0  0  0  0  0  0  0  0  0  0  0
  -35.8565   64.9938   66.8838 H   0  0  0  0  0  0  0  0  0  0  0  0
  -33.6969   62.4080   67.8204 H   0  0  0  0  0  0  0  0  0  0  0  0
  2  1  1  0  0  0
  2  4  1  0  0  0
  2  5  1  0  0  0
 41 42  1  0  0  0
 41  1  1  0  0  0
 42 46  1  0  0  0
  1 24  1  0  0  0
 23 24  1  0  0  0
 23 25  1  0  0  0
 24 26  1  0  0  0
  3  4  2  0  0  0
 26 27  2  0  0  0
 27 28  1  0  0  0
 43 47  1  0  0  0
 43 51  1  0  0  0
 28 29  1  0  0  0
 56 48  1  0  0  0
 56 60  1  0  0  0
 29 30  1  0  0  0
 57 60  1  0  0  0
 57 61  1  0  0  0
 30 31  1  0  0  0
 44 49  1  0  0  0
 44 52  1  0  0  0
 31 32  1  0  0  0
 45 46  1  0  0  0
 45 50  1  0  0  0
 32 33  1  0  0  0
 53 54  1  0  0  0
 53 55  1  0  0  0
 33 34  1  0  0  0
 34 35  1  0  0  0
 35 36  1  0  0  0
 58 60  1  0  0  0
 36 37  1  0  0  0
 59 60  1  0  0  0
 59 62  1  0  0  0
 37 38  1  0  0  0
 38 39  1  0  0  0
 39 40  1  0  0  0
  4  6  1  0  0  0
  6  7  1  0  0  0
  7  8  1  0  0  0
  8  9  1  0  0  0
  9 10  1  0  0  0
 10 11  1  0  0  0
 11 12  1  0  0  0
 12 13  1  0  0  0
 13 14  1  0  0  0
 14 15  1  0  0  0
 15 16  1  0  0  0
 16 17  1  0  0  0
 17 18  1  0  0  0
 18 19  1  0  0  0
 19 20  1  0  0  0
 20 21  1  0  0  0
 21 22  1  0  0  0
 46 47  1  0  0  0
 47 48  1  0  0  0
 48 49  1  0  0  0
 49 50  1  0  0  0
 50 54  1  0  0  0
M  CHG 1  58  -1
M  END
> <minimizedAffinity>
-9.45780

> <CNNscore>
0.1628758162

> <CNNaffinity>
6.9472427368

> <CNN_VS>
1.1315377951

> <CNNaffinity_variance>
1.3056474924

$$$$
/media/chris/experiments/cd1a-new-docking/inputs/ligands/1onq_ligand.pdb


 62 62  0  0  0  0  0  0  0  0999 V2000
  -35.2559   61.9237   64.0806 C   0  0  0  0  0  0  0  0  0  0  0  0
  -36.1030   61.6713   65.2294 N   0  0  0  0  0  0  0  0  0  0  0  0
  -38.0888   61.2743   66.2523 O   0  0  0  0  0  0  0  0  0  0  0  0
  -37.4276   61.4704   65.2511 C   0  0  0  0  0  0  0  0  0  0  0  0
  -35.6486   61.6442   66.1023 H   0  0  0  0  0  0  0  0  0  0  0  0
  -38.1003   61.5076   63.9111 C   0  0  0  0  0  0  0  0  0  0  0  0
  -39.1661   60.4118   63.9306 C   0  0  0  0  0  0  0  0  0  0  0  0
  -40.3233   60.7933   63.0106 C   0  0  0  0  0  0  0  0  0  0  0  0
  -41.7072   60.4564   63.5106 C   0  0  0  0  0  0  0  0  0  0  0  0
  -42.6874   61.4045   62.8278 C   0  0  0  0  0  0  0  0  0  0  0  0
  -43.9772   61.6058   63.6345 C   0  0  0  0  0  0  0  0  0  0  0  0
  -44.4184   60.3701   64.4401 C   0  0  0  0  0  0  0  0  0  0  0  0
  -45.8513   60.4996   65.0016 C   0  0  0  0  0  0  0  0  0  0  0  0
  -46.7629   59.4209   64.4096 C   0  0  0  0  0  0  0  0  0  0  0  0
  -47.6608   58.7119   65.4161 C   0  0  0  0  0  0  0  0  0  0  0  0
  -48.8055   59.5947   65.8909 C   0  0  0  0  0  0  0  0  0  0  0  0
  -50.2157   59.0996   65.5621 C   0  0  0  0  0  0  0  0  0  0  0  0
  -50.8929   60.1419   64.6824 C   0  0  0  0  0  0  0  0  0  0  0  0
  -51.3761   59.7270   63.3006 C   0  0  0  0  0  0  0  0  0  0  0  0
  -50.4238   58.6978   62.6711 C   0  0  0  0  0  0  0  0  0  0  0  0
  -51.0510   57.8501   61.5490 C   0  0  0  0  0  0  0  0  0  0  0  0
  -50.2730   57.9146   60.2367 C   0  0  0  0  0  0  0  0  0  0  0  0
  -33.3762   61.0130   63.0640 O   0  0  0  0  0  0  0  0  0  0  0  0
  -34.2393   60.7982   64.1653 C   0  0  0  0  0  0  0  0  0  0  0  0
  -32.9386   61.8733   63.1593 H   0  0  0  0  0  0  0  0  0  0  0  0
  -34.9638   59.4529   64.0764 C   0  0  0  0  0  0  0  0  0  0  0  0
  -35.0645   58.7500   62.9355 C   0  0  0  0  0  0  0  0  0  0  0  0
  -35.8057   57.4142   62.9284 C   0  0  0  0  0  0  0  0  0  0  0  0
  -37.3345   57.5518   62.8831 C   0  0  0  0  0  0  0  0  0  0  0  0
  -37.9676   57.4941   61.4806 C   0  0  0  0  0  0  0  0  0  0  0  0
  -37.9184   58.8824   60.7983 C   0  0  0  0  0  0  0  0  0  0  0  0
  -38.4258   58.9186   59.3344 C   0  0  0  0  0  0  0  0  0  0  0  0
  -39.7611   58.1712   59.1082 C   0  0  0  0  0  0  0  0  0  0  0  0
  -40.9736   58.8581   59.7731 C   0  0  0  0  0  0  0  0  0  0  0  0
  -41.7618   57.9418   60.7167 C   0  0  0  0  0  0  0  0  0  0  0  0
  -41.3137   56.4826   60.7651 C   0  0  0  0  0  0  0  0  0  0  0  0
  -41.3037   55.8775   62.1827 C   0  0  0  0  0  0  0  0  0  0  0  0
  -40.9645   56.8618   63.3124 C   0  0  0  0  0  0  0  0  0  0  0  0
  -41.7358   56.5192   64.5901 C   0  0  0  0  0  0  0  0  0  0  0  0
  -43.2006   56.9180   64.6221 C   0  0  0  0  0  0  0  0  0  0  0  0
  -34.7012   63.3618   63.9656 C   0  0  0  0  0  0  0  0  0  0  0  0
  -33.9008   63.6559   62.7925 O   0  0  0  0  0  0  0  0  0  0  0  0
  -32.4380   64.8934   60.6697 O   0  0  0  0  0  0  0  0  0  0  0  0
  -31.3390   67.5596   63.6834 O   0  0  0  0  0  0  0  0  0  0  0  0
  -32.2934   64.7442   64.2476 O   0  0  0  0  0  0  0  0  0  0  0  0
  -32.5507   64.2412   62.9141 C   0  0  0  0  0  0  0  0  0  0  0  0
  -32.2250   65.3940   61.9535 C   0  0  0  0  0  0  0  0  0  0  0  0
  -30.7637   65.8849   62.0465 C   0  0  0  0  0  0  0  0  0  0  0  0
  -30.5747   66.3783   63.4544 C   0  0  0  0  0  0  0  0  0  0  0  0
  -30.9588   65.2869   64.4371 C   0  0  0  0  0  0  0  0  0  0  0  0
  -33.3527   64.5797   60.5926 H   0  0  0  0  0  0  0  0  0  0  0  0
  -31.0779   68.2423   63.0458 H   0  0  0  0  0  0  0  0  0  0  0  0
  -29.4733   66.6322   65.7398 O   0  0  0  0  0  0  0  0  0  0  0  0
  -30.7090   65.9835   65.7729 C   0  0  0  0  0  0  0  0  0  0  0  0
  -29.3170   67.0737   66.5892 H   0  0  0  0  0  0  0  0  0  0  0  0
  -30.4092   66.9888   61.1829 O   0  0  0  0  0  0  0  0  0  0  0  0
  -30.0611   65.4473   59.1288 O   0  0  0  0  0  0  0  0  0  0  0  0
  -28.2395   66.8593   59.8882 O   0  0  0  0  0  0  0  0  0  0  0  0
  -30.1128   67.8248   58.6913 O   0  0  0  0  0  0  0  0  0  0  0  0
  -29.7118   66.7882   59.6845 S   0  0  0  0  0  0  0  0  0  0  0  0
  -29.8069   64.7584   59.7626 H   0  0  0  0  0  0  0  0  0  0  0  0
  -31.0720   67.7854   58.5523 H   0  0  0  0  0  0  0  0  0  0  0  0
  2  1  1  0  0  0
  2  4  1  0  0  0
  2  5  1  0  0  0
 41 42  1  0  0  0
 41  1  1  0  0  0
 42 46  1  0  0  0
  1 24  1  0  0  0
 23 24  1  0  0  0
 23 25  1  0  0  0
 24 26  1  0  0  0
  3  4  2  0  0  0
 26 27  2  0  0  0
 27 28  1  0  0  0
 43 47  1  0  0  0
 43 51  1  0  0  0
 28 29  1  0  0  0
 56 48  1  0  0  0
 56 60  1  0  0  0
 29 30  1  0  0  0
 57 60  1  0  0  0
 57 61  1  0  0  0
 30 31  1  0  0  0
 44 49  1  0  0  0
 44 52  1  0  0  0
 31 32  1  0  0  0
 45 46  1  0  0  0
 45 50  1  0  0  0
 32 33  1  0  0  0
 53 54  1  0  0  0
 53 55  1  0  0  0
 33 34  1  0  0  0
 34 35  1  0  0  0
 35 36  1  0  0  0
 58 60  1  0  0  0
 36 37  1  0  0  0
 59 60  1  0  0  0
 59 62  1  0  0  0
 37 38  1  0  0  0
 38 39  1  0  0  0
 39 40  1  0  0  0
  4  6  1  0  0  0
  6  7  1  0  0  0
  7  8  1  0  0  0
  8  9  1  0  0  0
  9 10  1  0  0  0
 10 11  1  0  0  0
 11 12  1  0  0  0
 12 13  1  0  0  0
 13 14  1  0  0  0
 14 15  1  0  0  0
 15 16  1  0  0  0
 16 17  1  0  0  0
 17 18  1  0  0  0
 18 19  1  0  0  0
 19 20  1  0  0  0
 20 21  1  0  0  0
 21 22  1  0  0  0
 46 47  1  0  0  0
 47 48  1  0  0  0
 48 49  1  0  0  0
 49 50  1  0  0  0
 50 54  1  0  0  0
M  CHG 1  58  -1
M  END
> <minimizedAffinity>
-8.77100

> <CNNscore>
0.1452185214

> <CNNaffinity>
6.5196585655

> <CNN_VS>
0.9467751980

> <CNNaffinity_variance>
0.7329924703

$$$$
/media/chris/experiments/cd1a-new-docking/inputs/ligands/1onq_ligand.pdb


 62 62  0  0  0  0  0  0  0  0999 V2000
  -41.1850   60.2160   63.2148 C   0  0  0  0  0  0  0  0  0  0  0  0
  -41.1298   60.7694   61.8762 N   0  0  0  0  0  0  0  0  0  0  0  0
  -41.0365   60.6313   59.6135 O   0  0  0  0  0  0  0  0  0  0  0  0
  -41.0947   60.1100   60.7102 C   0  0  0  0  0  0  0  0  0  0  0  0
  -41.1162   61.7520   61.8162 H   0  0  0  0  0  0  0  0  0  0  0  0
  -41.1240   58.6146   60.8222 C   0  0  0  0  0  0  0  0  0  0  0  0
  -40.1277   58.0832   59.7915 C   0  0  0  0  0  0  0  0  0  0  0  0
  -38.7127   58.1267   60.3632 C   0  0  0  0  0  0  0  0  0  0  0  0
  -38.4989   57.3877   61.6620 C   0  0  0  0  0  0  0  0  0  0  0  0
  -37.2273   57.9366   62.3005 C   0  0  0  0  0  0  0  0  0  0  0  0
  -37.2580   57.8719   63.8334 C   0  0  0  0  0  0  0  0  0  0  0  0
  -35.8722   57.7235   64.4878 C   0  0  0  0  0  0  0  0  0  0  0  0
  -34.7230   58.2078   63.5768 C   0  0  0  0  0  0  0  0  0  0  0  0
  -33.4039   58.2599   64.3529 C   0  0  0  0  0  0  0  0  0  0  0  0
  -32.3540   59.2026   63.7775 C   0  0  0  0  0  0  0  0  0  0  0  0
  -32.6389   59.5688   62.3285 C   0  0  0  0  0  0  0  0  0  0  0  0
  -31.5016   60.2631   61.5757 C   0  0  0  0  0  0  0  0  0  0  0  0
  -30.2847   60.3098   62.4899 C   0  0  0  0  0  0  0  0  0  0  0  0
  -28.9196   60.5779   61.8737 C   0  0  0  0  0  0  0  0  0  0  0  0
  -28.2090   61.7350   62.5938 C   0  0  0  0  0  0  0  0  0  0  0  0
  -29.0761   62.9917   62.7930 C   0  0  0  0  0  0  0  0  0  0  0  0
  -29.1638   63.8688   61.5462 C   0  0  0  0  0  0  0  0  0  0  0  0
  -41.9385   61.1164   65.2191 O   0  0  0  0  0  0  0  0  0  0  0  0
  -42.3076   61.0132   63.8564 C   0  0  0  0  0  0  0  0  0  0  0  0
  -41.0981   61.5955   65.2910 H   0  0  0  0  0  0  0  0  0  0  0  0
  -43.6301   60.2651   63.6722 C   0  0  0  0  0  0  0  0  0  0  0  0
  -44.2867   59.6787   64.6876 C   0  0  0  0  0  0  0  0  0  0  0  0
  -45.6024   58.9493   64.4218 C   0  0  0  0  0  0  0  0  0  0  0  0
  -46.6800   59.2033   65.4860 C   0  0  0  0  0  0  0  0  0  0  0  0
  -47.8050   60.1721   65.0773 C   0  0  0  0  0  0  0  0  0  0  0  0
  -49.0348   60.0072   66.0025 C   0  0  0  0  0  0  0  0  0  0  0  0
  -50.2629   59.3193   65.3542 C   0  0  0  0  0  0  0  0  0  0  0  0
  -51.0963   60.2447   64.4368 C   0  0  0  0  0  0  0  0  0  0  0  0
  -51.0313   59.8557   62.9439 C   0  0  0  0  0  0  0  0  0  0  0  0
  -50.6337   58.3945   62.7032 C   0  0  0  0  0  0  0  0  0  0  0  0
  -49.2837   58.1689   62.0257 C   0  0  0  0  0  0  0  0  0  0  0  0
  -49.2699   58.5204   60.5250 C   0  0  0  0  0  0  0  0  0  0  0  0
  -48.3396   57.6576   59.6589 C   0  0  0  0  0  0  0  0  0  0  0  0
  -47.9078   58.4104   58.3973 C   0  0  0  0  0  0  0  0  0  0  0  0
  -47.7099   57.5734   57.1459 C   0  0  0  0  0  0  0  0  0  0  0  0
  -39.8382   60.1683   63.9715 C   0  0  0  0  0  0  0  0  0  0  0  0
  -39.2774   61.4426   64.3776 O   0  0  0  0  0  0  0  0  0  0  0  0
  -37.5123   61.8056   62.1572 O   0  0  0  0  0  0  0  0  0  0  0  0
  -35.7173   64.5749   64.7081 O   0  0  0  0  0  0  0  0  0  0  0  0
  -37.4348   62.2928   65.7070 O   0  0  0  0  0  0  0  0  0  0  0  0
  -37.8173   61.6414   64.4713 C   0  0  0  0  0  0  0  0  0  0  0  0
  -37.1727   62.4578   63.3419 C   0  0  0  0  0  0  0  0  0  0  0  0
  -35.6327   62.5315   63.4307 C   0  0  0  0  0  0  0  0  0  0  0  0
  -35.3186   63.2066   64.7372 C   0  0  0  0  0  0  0  0  0  0  0  0
  -36.0020   62.4686   65.8741 C   0  0  0  0  0  0  0  0  0  0  0  0
  -38.4780   61.7499   62.0842 H   0  0  0  0  0  0  0  0  0  0  0  0
  -35.2697   65.0266   63.9756 H   0  0  0  0  0  0  0  0  0  0  0  0
  -36.2486   62.8691   68.2177 O   0  0  0  0  0  0  0  0  0  0  0  0
  -35.5716   63.3048   67.0772 C   0  0  0  0  0  0  0  0  0  0  0  0
  -35.9736   63.4017   68.9802 H   0  0  0  0  0  0  0  0  0  0  0  0
  -34.9748   63.3118   62.4068 O   0  0  0  0  0  0  0  0  0  0  0  0
  -32.6487   62.8156   63.4363 O   0  0  0  0  0  0  0  0  0  0  0  0
  -33.2440   65.0985   62.8683 O   0  0  0  0  0  0  0  0  0  0  0  0
  -32.6719   63.5175   61.1226 O   0  0  0  0  0  0  0  0  0  0  0  0
  -33.3509   63.6775   62.4399 S   0  0  0  0  0  0  0  0  0  0  0  0
  -33.0774   62.9066   64.3016 H   0  0  0  0  0  0  0  0  0  0  0  0
  -32.7367   62.5933   60.8356 H   0  0  0  0  0  0  0  0  0  0  0  0
  2  1  1  0  0  0
  2  4  1  0  0  0
  2  5  1  0  0  0
 41 42  1  0  0  0
 41  1  1  0  0  0
 42 46  1  0  0  0
  1 24  1  0  0  0
 23 24  1  0  0  0
 23 25  1  0  0  0
 24 26  1  0  0  0
  3  4  2  0  0  0
 26 27  2  0  0  0
 27 28  1  0  0  0
 43 47  1  0  0  0
 43 51  1  0  0  0
 28 29  1  0  0  0
 56 48  1  0  0  0
 56 60  1  0  0  0
 29 30  1  0  0  0
 57 60  1  0  0  0
 57 61  1  0  0  0
 30 31  1  0  0  0
 44 49  1  0  0  0
 44 52  1  0  0  0
 31 32  1  0  0  0
 45 46  1  0  0  0
 45 50  1  0  0  0
 32 33  1  0  0  0
 53 54  1  0  0  0
 53 55  1  0  0  0
 33 34  1  0  0  0
 34 35  1  0  0  0
 35 36  1  0  0  0
 58 60  1  0  0  0
 36 37  1  0  0  0
 59 60  1  0  0  0
 59 62  1  0  0  0
 37 38  1  0  0  0
 38 39  1  0  0  0
 39 40  1  0  0  0
  4  6  1  0  0  0
  6  7  1  0  0  0
  7  8  1  0  0  0
  8  9  1  0  0  0
  9 10  1  0  0  0
 10 11  1  0  0  0
 11 12  1  0  0  0
 12 13  1  0  0  0
 13 14  1  0  0  0
 14 15  1  0  0  0
 15 16  1  0  0  0
 16 17  1  0  0  0
 17 18  1  0  0  0
 18 19  1  0  0  0
 19 20  1  0  0  0
 20 21  1  0  0  0
 21 22  1  0  0  0
 46 47  1  0  0  0
 47 48  1  0  0  0
 48 49  1  0  0  0
 49 50  1  0  0  0
 50 54  1  0  0  0
M  CHG 1  58  -1
M  END
> <minimizedAffinity>
-9.61349

> <CNNscore>
0.1342157871

> <CNNaffinity>
6.5491499901

> <CNN_VS>
0.8789992929

> <CNNaffinity_variance>
1.2253308296

$$$$
