/media/chris/experiments/cd1a-new-docking/inputs/ligands/1onq_ligand.pdb


 62 62  0  0  0  0  0  0  0  0999 V2000
  -41.4297   59.5570   64.6476 C   0  0  0  0  0  0  0  0  0  0  0  0
  -41.5997   58.2174   64.1206 N   0  0  0  0  0  0  0  0  0  0  0  0
  -42.4401   56.1101   64.1366 O   0  0  0  0  0  0  0  0  0  0  0  0
  -42.3459   57.2221   64.6187 C   0  0  0  0  0  0  0  0  0  0  0  0
  -41.1054   58.0134   63.2940 H   0  0  0  0  0  0  0  0  0  0  0  0
  -43.0971   57.5546   65.8736 C   0  0  0  0  0  0  0  0  0  0  0  0
  -44.5824   57.4137   65.5399 C   0  0  0  0  0  0  0  0  0  0  0  0
  -45.4284   57.9928   66.6713 C   0  0  0  0  0  0  0  0  0  0  0  0
  -46.1603   59.2761   66.3622 C   0  0  0  0  0  0  0  0  0  0  0  0
  -47.0537   59.0175   65.1535 C   0  0  0  0  0  0  0  0  0  0  0  0
  -47.2108   60.2531   64.2571 C   0  0  0  0  0  0  0  0  0  0  0  0
  -48.6249   60.8621   64.2620 C   0  0  0  0  0  0  0  0  0  0  0  0
  -49.6130   60.0785   65.1536 C   0  0  0  0  0  0  0  0  0  0  0  0
  -51.0149   60.0809   64.5375 C   0  0  0  0  0  0  0  0  0  0  0  0
  -51.0510   60.0040   63.0161 C   0  0  0  0  0  0  0  0  0  0  0  0
  -51.0089   58.5700   62.5094 C   0  0  0  0  0  0  0  0  0  0  0  0
  -49.6867   58.1171   61.8859 C   0  0  0  0  0  0  0  0  0  0  0  0
  -49.3751   59.0355   60.7119 C   0  0  0  0  0  0  0  0  0  0  0  0
  -49.5063   58.4841   59.2998 C   0  0  0  0  0  0  0  0  0  0  0  0
  -48.1288   58.3509   58.6313 C   0  0  0  0  0  0  0  0  0  0  0  0
  -47.4886   56.9564   58.7601 C   0  0  0  0  0  0  0  0  0  0  0  0
  -47.1699   56.3114   57.4133 C   0  0  0  0  0  0  0  0  0  0  0  0
  -43.5116   60.2012   63.8436 O   0  0  0  0  0  0  0  0  0  0  0  0
  -42.1321   60.4132   63.6079 C   0  0  0  0  0  0  0  0  0  0  0  0
  -43.7366   60.5010   64.7383 H   0  0  0  0  0  0  0  0  0  0  0  0
  -41.7098   59.9597   62.2084 C   0  0  0  0  0  0  0  0  0  0  0  0
  -41.3488   60.8176   61.2389 C   0  0  0  0  0  0  0  0  0  0  0  0
  -40.9407   60.2858   59.8664 C   0  0  0  0  0  0  0  0  0  0  0  0
  -41.0543   58.7603   59.7317 C   0  0  0  0  0  0  0  0  0  0  0  0
  -39.7820   58.0368   59.2532 C   0  0  0  0  0  0  0  0  0  0  0  0
  -38.5479   58.5026   60.0628 C   0  0  0  0  0  0  0  0  0  0  0  0
  -38.4970   58.0124   61.5321 C   0  0  0  0  0  0  0  0  0  0  0  0
  -37.0716   57.7056   62.0484 C   0  0  0  0  0  0  0  0  0  0  0  0
  -36.8704   58.0408   63.5421 C   0  0  0  0  0  0  0  0  0  0  0  0
  -35.4620   57.7274   64.0613 C   0  0  0  0  0  0  0  0  0  0  0  0
  -34.7110   58.8892   64.7083 C   0  0  0  0  0  0  0  0  0  0  0  0
  -33.1790   58.7185   64.7141 C   0  0  0  0  0  0  0  0  0  0  0  0
  -32.5412   58.4838   63.3364 C   0  0  0  0  0  0  0  0  0  0  0  0
  -32.6960   59.7170   62.4416 C   0  0  0  0  0  0  0  0  0  0  0  0
  -31.4283   60.2439   61.7930 C   0  0  0  0  0  0  0  0  0  0  0  0
  -39.9804   59.9489   65.0150 C   0  0  0  0  0  0  0  0  0  0  0  0
  -39.4602   61.1560   64.4022 O   0  0  0  0  0  0  0  0  0  0  0  0
  -37.6678   61.4673   62.1959 O   0  0  0  0  0  0  0  0  0  0  0  0
  -36.2449   64.6563   64.4773 O   0  0  0  0  0  0  0  0  0  0  0  0
  -37.7571   62.3249   65.6745 O   0  0  0  0  0  0  0  0  0  0  0  0
  -38.0314   61.5130   64.5070 C   0  0  0  0  0  0  0  0  0  0  0  0
  -37.4347   62.2702   63.3118 C   0  0  0  0  0  0  0  0  0  0  0  0
  -35.9136   62.5112   63.4268 C   0  0  0  0  0  0  0  0  0  0  0  0
  -35.7124   63.3468   64.6607 C   0  0  0  0  0  0  0  0  0  0  0  0
  -36.3555   62.6638   65.8540 C   0  0  0  0  0  0  0  0  0  0  0  0
  -38.6202   61.3050   62.1076 H   0  0  0  0  0  0  0  0  0  0  0  0
  -35.8208   65.0734   63.7111 H   0  0  0  0  0  0  0  0  0  0  0  0
  -36.0756   63.0051   68.2033 O   0  0  0  0  0  0  0  0  0  0  0  0
  -36.0513   63.6602   66.9708 C   0  0  0  0  0  0  0  0  0  0  0  0
  -35.8822   63.6399   68.9107 H   0  0  0  0  0  0  0  0  0  0  0  0
  -35.3037   63.2450   62.3407 O   0  0  0  0  0  0  0  0  0  0  0  0
  -32.9495   62.9328   63.3785 O   0  0  0  0  0  0  0  0  0  0  0  0
  -33.6403   65.1311   62.6173 O   0  0  0  0  0  0  0  0  0  0  0  0
  -33.0239   63.4230   61.0119 O   0  0  0  0  0  0  0  0  0  0  0  0
  -33.6952   63.6742   62.3187 S   0  0  0  0  0  0  0  0  0  0  0  0
  -33.3726   63.0846   64.2380 H   0  0  0  0  0  0  0  0  0  0  0  0
  -33.0550   62.4750   60.8095 H   0  0  0  0  0  0  0  0  0  0  0  0
  2  1  1  0  0  0
  2  4  1  0  0  0
  2  5  1  0  0  0
 41 42  1  0  0  0
 41  1  1  0  0  0
 42 46  1  0  0  0
  1 24  1  0  0  0
 23 24  1  0  0  0
 23 25  1  0  0  0
 24 26  1  0  0  0
  3  4  2  0  0  0
 26 27  2  0  0  0
 27 28  1  0  0  0
 43 47  1  0  0  0
 43 51  1  0  0  0
 28 29  1  0  0  0
 56 48  1  0  0  0
 56 60  1  0  0  0
 29 30  1  0  0  0
 57 60  1  0  0  0
 57 61  1  0  0  0
 30 31  1  0  0  0
 44 49  1  0  0  0
 44 52  1  0  0  0
 31 32  1  0  0  0
 45 46  1  0  0  0
 45 50  1  0  0  0
 32 33  1  0  0  0
 53 54  1  0  0  0
 53 55  1  0  0  0
 33 34  1  0  0  0
 34 35  1  0  0  0
 35 36  1  0  0  0
 58 60  1  0  0  0
 36 37  1  0  0  0
 59 60  1  0  0  0
 59 62  1  0  0  0
 37 38  1  0  0  0
 38 39  1  0  0  0
 39 40  1  0  0  0
  4  6  1  0  0  0
  6  7  1  0  0  0
  7  8  1  0  0  0
  8  9  1  0  0  0
  9 10  1  0  0  0
 10 11  1  0  0  0
 11 12  1  0  0  0
 12 13  1  0  0  0
 13 14  1  0  0  0
 14 15  1  0  0  0
 15 16  1  0  0  0
 16 17  1  0  0  0
 17 18  1  0  0  0
 18 19  1  0  0  0
 19 20  1  0  0  0
 20 21  1  0  0  0
 21 22  1  0  0  0
 46 47  1  0  0  0
 47 48  1  0  0  0
 48 49  1  0  0  0
 49 50  1  0  0  0
 50 54  1  0  0  0
M  CHG 1  58  -1
M  END
> <minimizedAffinity>
-9.79171

> <CNNscore>
0.2686293423

> <CNNaffinity>
7.0573973656

> <CNN_VS>
1.8958239555

> <CNNaffinity_variance>
1.9972432852

$$$$
/media/chris/experiments/cd1a-new-docking/inputs/ligands/1onq_ligand.pdb


 62 62  0  0  0  0  0  0  0  0999 V2000
  -41.2634   59.3696   65.1455 C   0  0  0  0  0  0  0  0  0  0  0  0
  -41.8345   59.8796   66.3764 N   0  0  0  0  0  0  0  0  0  0  0  0
  -42.9260   61.4200   67.6346 O   0  0  0  0  0  0  0  0  0  0  0  0
  -42.4772   61.0391   66.5709 C   0  0  0  0  0  0  0  0  0  0  0  0
  -41.7382   59.3021   67.1679 H   0  0  0  0  0  0  0  0  0  0  0  0
  -42.6206   61.9012   65.3519 C   0  0  0  0  0  0  0  0  0  0  0  0
  -43.8679   61.4093   64.6175 C   0  0  0  0  0  0  0  0  0  0  0  0
  -43.7224   61.6579   63.1180 C   0  0  0  0  0  0  0  0  0  0  0  0
  -42.3109   61.8052   62.6041 C   0  0  0  0  0  0  0  0  0  0  0  0
  -42.3824   61.9113   61.0844 C   0  0  0  0  0  0  0  0  0  0  0  0
  -41.3511   61.0206   60.3787 C   0  0  0  0  0  0  0  0  0  0  0  0
  -41.2914   59.5776   60.9123 C   0  0  0  0  0  0  0  0  0  0  0  0
  -41.2761   58.5211   59.7858 C   0  0  0  0  0  0  0  0  0  0  0  0
  -39.9603   57.7379   59.7977 C   0  0  0  0  0  0  0  0  0  0  0  0
  -38.7157   58.5633   59.4948 C   0  0  0  0  0  0  0  0  0  0  0  0
  -37.6766   58.4688   60.6021 C   0  0  0  0  0  0  0  0  0  0  0  0
  -38.0165   57.5314   61.7631 C   0  0  0  0  0  0  0  0  0  0  0  0
  -37.1441   57.9111   62.9521 C   0  0  0  0  0  0  0  0  0  0  0  0
  -35.8176   58.6089   62.6900 C   0  0  0  0  0  0  0  0  0  0  0  0
  -34.6353   57.7017   63.0663 C   0  0  0  0  0  0  0  0  0  0  0  0
  -33.3461   58.4556   63.4412 C   0  0  0  0  0  0  0  0  0  0  0  0
  -33.0518   58.4410   64.9394 C   0  0  0  0  0  0  0  0  0  0  0  0
  -41.7450   57.5622   63.7681 O   0  0  0  0  0  0  0  0  0  0  0  0
  -41.7331   57.9250   65.1363 C   0  0  0  0  0  0  0  0  0  0  0  0
  -40.8468   57.6293   63.4080 H   0  0  0  0  0  0  0  0  0  0  0  0
  -43.1248   57.8404   65.7675 C   0  0  0  0  0  0  0  0  0  0  0  0
  -44.2575   57.8350   65.0441 C   0  0  0  0  0  0  0  0  0  0  0  0
  -45.6096   57.7490   65.7494 C   0  0  0  0  0  0  0  0  0  0  0  0
  -45.8618   58.8854   66.7510 C   0  0  0  0  0  0  0  0  0  0  0  0
  -46.8637   59.9634   66.2976 C   0  0  0  0  0  0  0  0  0  0  0  0
  -48.0123   59.3336   65.4732 C   0  0  0  0  0  0  0  0  0  0  0  0
  -49.0732   60.3327   64.9461 C   0  0  0  0  0  0  0  0  0  0  0  0
  -50.5283   59.8146   65.0308 C   0  0  0  0  0  0  0  0  0  0  0  0
  -51.3652   60.1154   63.7686 C   0  0  0  0  0  0  0  0  0  0  0  0
  -50.6674   59.7308   62.4585 C   0  0  0  0  0  0  0  0  0  0  0  0
  -50.5286   58.2345   62.1860 C   0  0  0  0  0  0  0  0  0  0  0  0
  -50.3034   57.8870   60.7011 C   0  0  0  0  0  0  0  0  0  0  0  0
  -49.5331   58.9411   59.8916 C   0  0  0  0  0  0  0  0  0  0  0  0
  -48.5184   58.2807   58.9537 C   0  0  0  0  0  0  0  0  0  0  0  0
  -48.0751   56.8756   59.3204 C   0  0  0  0  0  0  0  0  0  0  0  0
  -39.7484   59.6151   64.9627 C   0  0  0  0  0  0  0  0  0  0  0  0
  -39.3526   60.9491   64.5540 O   0  0  0  0  0  0  0  0  0  0  0  0
  -37.6797   61.4284   62.2849 O   0  0  0  0  0  0  0  0  0  0  0  0
  -36.3263   64.6143   64.6124 O   0  0  0  0  0  0  0  0  0  0  0  0
  -37.6583   62.1668   65.7918 O   0  0  0  0  0  0  0  0  0  0  0  0
  -37.9414   61.3795   64.6096 C   0  0  0  0  0  0  0  0  0  0  0  0
  -37.4396   62.2062   63.4169 C   0  0  0  0  0  0  0  0  0  0  0  0
  -35.9296   62.5255   63.4748 C   0  0  0  0  0  0  0  0  0  0  0  0
  -35.7178   63.3304   64.7272 C   0  0  0  0  0  0  0  0  0  0  0  0
  -36.2700   62.5753   65.9226 C   0  0  0  0  0  0  0  0  0  0  0  0
  -38.6251   61.2177   62.2319 H   0  0  0  0  0  0  0  0  0  0  0  0
  -35.9595   65.0784   63.8437 H   0  0  0  0  0  0  0  0  0  0  0  0
  -36.1332   62.9048   68.2862 O   0  0  0  0  0  0  0  0  0  0  0  0
  -35.9691   63.5500   67.0592 C   0  0  0  0  0  0  0  0  0  0  0  0
  -35.9416   63.5258   69.0062 H   0  0  0  0  0  0  0  0  0  0  0  0
  -35.4085   63.3261   62.3896 O   0  0  0  0  0  0  0  0  0  0  0  0
  -32.9588   62.8226   63.0694 O   0  0  0  0  0  0  0  0  0  0  0  0
  -33.6763   65.1247   62.7959 O   0  0  0  0  0  0  0  0  0  0  0  0
  -33.2941   63.7277   60.8525 O   0  0  0  0  0  0  0  0  0  0  0  0
  -33.8029   63.7448   62.2533 S   0  0  0  0  0  0  0  0  0  0  0  0
  -33.2754   62.8205   63.9862 H   0  0  0  0  0  0  0  0  0  0  0  0
  -33.3730   62.8312   60.4908 H   0  0  0  0  0  0  0  0  0  0  0  0
  2  1  1  0  0  0
  2  4  1  0  0  0
  2  5  1  0  0  0
 41 42  1  0  0  0
 41  1  1  0  0  0
 42 46  1  0  0  0
  1 24  1  0  0  0
 23 24  1  0  0  0
 23 25  1  0  0  0
 24 26  1  0  0  0
  3  4  2  0  0  0
 26 27  2  0  0  0
 27 28  1  0  0  0
 43 47  1  0  0  0
 43 51  1  0  0  0
 28 29  1  0  0  0
 56 48  1  0  0  0
 56 60  1  0  0  0
 29 30  1  0  0  0
 57 60  1  0  0  0
 57 61  1  0  0  0
 30 31  1  0  0  0
 44 49  1  0  0  0
 44 52  1  0  0  0
 31 32  1  0  0  0
 45 46  1  0  0  0
 45 50  1  0  0  0
 32 33  1  0  0  0
 53 54  1  0  0  0
 53 55  1  0  0  0
 33 34  1  0  0  0
 34 35  1  0  0  0
 35 36  1  0  0  0
 58 60  1  0  0  0
 36 37  1  0  0  0
 59 60  1  0  0  0
 59 62  1  0  0  0
 37 38  1  0  0  0
 38 39  1  0  0  0
 39 40  1  0  0  0
  4  6  1  0  0  0
  6  7  1  0  0  0
  7  8  1  0  0  0
  8  9  1  0  0  0
  9 10  1  0  0  0
 10 11  1  0  0  0
 11 12  1  0  0  0
 12 13  1  0  0  0
 13 14  1  0  0  0
 14 15  1  0  0  0
 15 16  1  0  0  0
 16 17  1  0  0  0
 17 18  1  0  0  0
 18 19  1  0  0  0
 19 20  1  0  0  0
 20 21  1  0  0  0
 21 22  1  0  0  0
 46 47  1  0  0  0
 47 48  1  0  0  0
 48 49  1  0  0  0
 49 50  1  0  0  0
 50 54  1  0  0  0
M  CHG 1  58  -1
M  END
> <minimizedAffinity>
-9.41621

> <CNNscore>
0.2003524005

> <CNNaffinity>
6.9732413292

> <CNN_VS>
1.3971056938

> <CNNaffinity_variance>
2.5010333061

$$$$
/media/chris/experiments/cd1a-new-docking/inputs/ligands/1onq_ligand.pdb


 62 62  0  0  0  0  0  0  0  0999 V2000
  -41.5366   60.0504   64.9045 C   0  0  0  0  0  0  0  0  0  0  0  0
  -42.3658   61.0722   64.2967 N   0  0  0  0  0  0  0  0  0  0  0  0
  -43.3592   62.1192   62.5461 O   0  0  0  0  0  0  0  0  0  0  0  0
  -42.6642   61.2310   63.0001 C   0  0  0  0  0  0  0  0  0  0  0  0
  -42.7586   61.7317   64.9132 H   0  0  0  0  0  0  0  0  0  0  0  0
  -42.0629   60.2123   62.0779 C   0  0  0  0  0  0  0  0  0  0  0  0
  -40.8937   60.9015   61.3742 C   0  0  0  0  0  0  0  0  0  0  0  0
  -40.7532   60.3669   59.9509 C   0  0  0  0  0  0  0  0  0  0  0  0
  -39.4337   59.7160   59.6141 C   0  0  0  0  0  0  0  0  0  0  0  0
  -39.7319   58.3189   59.0803 C   0  0  0  0  0  0  0  0  0  0  0  0
  -41.1455   57.8381   59.4344 C   0  0  0  0  0  0  0  0  0  0  0  0
  -41.1824   56.5593   60.2911 C   0  0  0  0  0  0  0  0  0  0  0  0
  -41.6256   56.8243   61.7467 C   0  0  0  0  0  0  0  0  0  0  0  0
  -40.4665   56.5796   62.7172 C   0  0  0  0  0  0  0  0  0  0  0  0
  -39.4166   57.6832   62.7591 C   0  0  0  0  0  0  0  0  0  0  0  0
  -38.1328   57.2861   62.0456 C   0  0  0  0  0  0  0  0  0  0  0  0
  -36.8555   57.9774   62.5278 C   0  0  0  0  0  0  0  0  0  0  0  0
  -36.7911   57.8537   64.0442 C   0  0  0  0  0  0  0  0  0  0  0  0
  -35.4369   57.6298   64.7008 C   0  0  0  0  0  0  0  0  0  0  0  0
  -34.5934   58.9144   64.6735 C   0  0  0  0  0  0  0  0  0  0  0  0
  -33.0717   58.6790   64.6636 C   0  0  0  0  0  0  0  0  0  0  0  0
  -32.5254   58.3174   63.2844 C   0  0  0  0  0  0  0  0  0  0  0  0
  -41.8431   58.2649   66.3584 O   0  0  0  0  0  0  0  0  0  0  0  0
  -42.4397   59.4953   65.9925 C   0  0  0  0  0  0  0  0  0  0  0  0
  -40.9527   58.4283   66.7070 H   0  0  0  0  0  0  0  0  0  0  0  0
  -43.8517   59.3076   65.4326 C   0  0  0  0  0  0  0  0  0  0  0  0
  -44.9162   59.0373   66.2072 C   0  0  0  0  0  0  0  0  0  0  0  0
  -46.2942   58.8627   65.5716 C   0  0  0  0  0  0  0  0  0  0  0  0
  -46.6768   59.9871   64.5982 C   0  0  0  0  0  0  0  0  0  0  0  0
  -48.0898   60.5722   64.7779 C   0  0  0  0  0  0  0  0  0  0  0  0
  -48.8739   59.7915   65.8600 C   0  0  0  0  0  0  0  0  0  0  0  0
  -50.2871   59.3152   65.4386 C   0  0  0  0  0  0  0  0  0  0  0  0
  -51.0007   60.2557   64.4392 C   0  0  0  0  0  0  0  0  0  0  0  0
  -51.3107   59.5920   63.0800 C   0  0  0  0  0  0  0  0  0  0  0  0
  -50.4087   58.3946   62.7573 C   0  0  0  0  0  0  0  0  0  0  0  0
  -49.2220   58.6766   61.8382 C   0  0  0  0  0  0  0  0  0  0  0  0
  -49.1074   57.7040   60.6478 C   0  0  0  0  0  0  0  0  0  0  0  0
  -48.8809   58.3666   59.2805 C   0  0  0  0  0  0  0  0  0  0  0  0
  -47.7592   57.6655   58.5088 C   0  0  0  0  0  0  0  0  0  0  0  0
  -47.1091   58.4613   57.3910 C   0  0  0  0  0  0  0  0  0  0  0  0
  -40.1234   60.5072   65.3322 C   0  0  0  0  0  0  0  0  0  0  0  0
  -39.3538   61.2420   64.3468 O   0  0  0  0  0  0  0  0  0  0  0  0
  -37.4588   61.5185   62.2231 O   0  0  0  0  0  0  0  0  0  0  0  0
  -35.8574   64.4390   64.7340 O   0  0  0  0  0  0  0  0  0  0  0  0
  -37.6070   62.1852   65.7412 O   0  0  0  0  0  0  0  0  0  0  0  0
  -37.9048   61.4667   64.5195 C   0  0  0  0  0  0  0  0  0  0  0  0
  -37.2008   62.2344   63.3913 C   0  0  0  0  0  0  0  0  0  0  0  0
  -35.6702   62.3352   63.5705 C   0  0  0  0  0  0  0  0  0  0  0  0
  -35.4456   63.0799   64.8574 C   0  0  0  0  0  0  0  0  0  0  0  0
  -36.1894   62.3901   65.9866 C   0  0  0  0  0  0  0  0  0  0  0  0
  -38.4175   61.4450   62.0939 H   0  0  0  0  0  0  0  0  0  0  0  0
  -35.3705   64.8597   64.0081 H   0  0  0  0  0  0  0  0  0  0  0  0
  -36.3320   62.7267   68.3489 O   0  0  0  0  0  0  0  0  0  0  0  0
  -35.8442   63.2923   67.1695 C   0  0  0  0  0  0  0  0  0  0  0  0
  -36.1115   63.3015   69.0984 H   0  0  0  0  0  0  0  0  0  0  0  0
  -34.9592   63.0724   62.5502 O   0  0  0  0  0  0  0  0  0  0  0  0
  -32.9074   63.6599   61.0800 O   0  0  0  0  0  0  0  0  0  0  0  0
  -32.9390   61.5684   62.3102 O   0  0  0  0  0  0  0  0  0  0  0  0
  -32.5507   63.6601   63.4714 O   0  0  0  0  0  0  0  0  0  0  0  0
  -33.3060   63.0096   62.3633 S   0  0  0  0  0  0  0  0  0  0  0  0
  -33.3896   63.2488   60.3456 H   0  0  0  0  0  0  0  0  0  0  0  0
  -32.7841   64.6007   63.5131 H   0  0  0  0  0  0  0  0  0  0  0  0
  2  1  1  0  0  0
  2  4  1  0  0  0
  2  5  1  0  0  0
 41 42  1  0  0  0
 41  1  1  0  0  0
 42 46  1  0  0  0
  1 24  1  0  0  0
 23 24  1  0  0  0
 23 25  1  0  0  0
 24 26  1  0  0  0
  3  4  2  0  0  0
 26 27  2  0  0  0
 27 28  1  0  0  0
 43 47  1  0  0  0
 43 51  1  0  0  0
 28 29  1  0  0  0
 56 48  1  0  0  0
 56 60  1  0  0  0
 29 30  1  0  0  0
 57 60  1  0  0  0
 57 61  1  0  0  0
 30 31  1  0  0  0
 44 49  1  0  0  0
 44 52  1  0  0  0
 31 32  1  0  0  0
 45 46  1  0  0  0
 45 50  1  0  0  0
 32 33  1  0  0  0
 53 54  1  0  0  0
 53 55  1  0  0  0
 33 34  1  0  0  0
 34 35  1  0  0  0
 35 36  1  0  0  0
 58 60  1  0  0  0
 36 37  1  0  0  0
 59 60  1  0  0  0
 59 62  1  0  0  0
 37 38  1  0  0  0
 38 39  1  0  0  0
 39 40  1  0  0  0
  4  6  1  0  0  0
  6  7  1  0  0  0
  7  8  1  0  0  0
  8  9  1  0  0  0
  9 10  1  0  0  0
 10 11  1  0  0  0
 11 12  1  0  0  0
 12 13  1  0  0  0
 13 14  1  0  0  0
 14 15  1  0  0  0
 15 16  1  0  0  0
 16 17  1  0  0  0
 17 18  1  0  0  0
 18 19  1  0  0  0
 19 20  1  0  0  0
 20 21  1  0  0  0
 21 22  1  0  0  0
 46 47  1  0  0  0
 47 48  1  0  0  0
 48 49  1  0  0  0
 49 50  1  0  0  0
 50 54  1  0  0  0
M  CHG 1  58  -1
M  END
> <minimizedAffinity>
-9.64280

> <CNNscore>
0.1623266786

> <CNNaffinity>
7.0935769081

> <CNN_VS>
1.1514767408

> <CNNaffinity_variance>
2.0653731823

$$$$
/media/chris/experiments/cd1a-new-docking/inputs/ligands/1onq_ligand.pdb


 62 62  0  0  0  0  0  0  0  0999 V2000
  -41.1397   59.8269   65.0465 C   0  0  0  0  0  0  0  0  0  0  0  0
  -42.2380   60.7606   65.1992 N   0  0  0  0  0  0  0  0  0  0  0  0
  -43.9758   62.0077   64.4429 O   0  0  0  0  0  0  0  0  0  0  0  0
  -43.0763   61.2116   64.2561 C   0  0  0  0  0  0  0  0  0  0  0  0
  -42.3864   61.1064   66.1089 H   0  0  0  0  0  0  0  0  0  0  0  0
  -42.8388   60.6675   62.8787 C   0  0  0  0  0  0  0  0  0  0  0  0
  -42.8191   61.8702   61.9351 C   0  0  0  0  0  0  0  0  0  0  0  0
  -41.8064   61.6387   60.8162 C   0  0  0  0  0  0  0  0  0  0  0  0
  -40.7617   60.5807   61.0756 C   0  0  0  0  0  0  0  0  0  0  0  0
  -40.3699   59.9801   59.7297 C   0  0  0  0  0  0  0  0  0  0  0  0
  -41.1602   58.7078   59.3956 C   0  0  0  0  0  0  0  0  0  0  0  0
  -40.4660   57.4017   59.8229 C   0  0  0  0  0  0  0  0  0  0  0  0
  -40.9930   56.8536   61.1673 C   0  0  0  0  0  0  0  0  0  0  0  0
  -39.9404   57.0181   62.2673 C   0  0  0  0  0  0  0  0  0  0  0  0
  -38.4998   57.0904   61.7760 C   0  0  0  0  0  0  0  0  0  0  0  0
  -37.6569   58.0537   62.5984 C   0  0  0  0  0  0  0  0  0  0  0  0
  -37.4415   57.6730   64.0650 C   0  0  0  0  0  0  0  0  0  0  0  0
  -35.9967   57.9861   64.4304 C   0  0  0  0  0  0  0  0  0  0  0  0
  -35.0000   58.2414   63.3095 C   0  0  0  0  0  0  0  0  0  0  0  0
  -33.7589   58.9804   63.8350 C   0  0  0  0  0  0  0  0  0  0  0  0
  -32.4391   58.5781   63.1515 C   0  0  0  0  0  0  0  0  0  0  0  0
  -31.5118   59.7615   62.8848 C   0  0  0  0  0  0  0  0  0  0  0  0
  -41.1383   57.5078   65.1784 O   0  0  0  0  0  0  0  0  0  0  0  0
  -41.5900   58.6457   65.8889 C   0  0  0  0  0  0  0  0  0  0  0  0
  -40.1706   57.5296   65.1144 H   0  0  0  0  0  0  0  0  0  0  0  0
  -43.1141   58.6726   66.0261 C   0  0  0  0  0  0  0  0  0  0  0  0
  -43.8900   57.6031   65.7803 C   0  0  0  0  0  0  0  0  0  0  0  0
  -45.4053   57.7105   65.9392 C   0  0  0  0  0  0  0  0  0  0  0  0
  -45.9687   59.0993   65.6042 C   0  0  0  0  0  0  0  0  0  0  0  0
  -47.4706   59.2943   65.8829 C   0  0  0  0  0  0  0  0  0  0  0  0
  -48.3255   58.5050   64.8624 C   0  0  0  0  0  0  0  0  0  0  0  0
  -49.8550   58.5463   65.1084 C   0  0  0  0  0  0  0  0  0  0  0  0
  -50.5783   59.7184   64.4043 C   0  0  0  0  0  0  0  0  0  0  0  0
  -51.1579   59.3457   63.0226 C   0  0  0  0  0  0  0  0  0  0  0  0
  -50.1664   59.5281   61.8672 C   0  0  0  0  0  0  0  0  0  0  0  0
  -50.1406   58.4144   60.8225 C   0  0  0  0  0  0  0  0  0  0  0  0
  -48.7217   57.9916   60.3933 C   0  0  0  0  0  0  0  0  0  0  0  0
  -48.4879   57.9295   58.8763 C   0  0  0  0  0  0  0  0  0  0  0  0
  -47.3119   57.0084   58.5384 C   0  0  0  0  0  0  0  0  0  0  0  0
  -47.4563   56.1605   57.2872 C   0  0  0  0  0  0  0  0  0  0  0  0
  -39.7339   60.3996   65.3373 C   0  0  0  0  0  0  0  0  0  0  0  0
  -38.9428   60.7914   64.1867 O   0  0  0  0  0  0  0  0  0  0  0  0
  -36.9981   61.1204   66.2572 O   0  0  0  0  0  0  0  0  0  0  0  0
  -34.5761   62.3047   63.0745 O   0  0  0  0  0  0  0  0  0  0  0  0
  -37.5984   62.3978   62.9630 O   0  0  0  0  0  0  0  0  0  0  0  0
  -37.9632   61.8928   64.2705 C   0  0  0  0  0  0  0  0  0  0  0  0
  -36.6435   61.5703   64.9861 C   0  0  0  0  0  0  0  0  0  0  0  0
  -35.7103   62.7905   65.1463 C   0  0  0  0  0  0  0  0  0  0  0  0
  -35.3880   63.2590   63.7542 C   0  0  0  0  0  0  0  0  0  0  0  0
  -36.6732   63.5180   62.9890 C   0  0  0  0  0  0  0  0  0  0  0  0
  -37.5855   60.3526   66.1763 H   0  0  0  0  0  0  0  0  0  0  0  0
  -33.7619   62.1545   63.5799 H   0  0  0  0  0  0  0  0  0  0  0  0
  -36.1413   65.3568   61.5571 O   0  0  0  0  0  0  0  0  0  0  0  0
  -36.1310   63.9628   61.6324 C   0  0  0  0  0  0  0  0  0  0  0  0
  -35.7966   65.6366   60.6948 H   0  0  0  0  0  0  0  0  0  0  0  0
  -34.4403   62.5378   65.7893 O   0  0  0  0  0  0  0  0  0  0  0  0
  -33.1995   63.2855   67.9382 O   0  0  0  0  0  0  0  0  0  0  0  0
  -34.4270   64.9227   66.6335 O   0  0  0  0  0  0  0  0  0  0  0  0
  -32.2951   64.0836   65.8427 O   0  0  0  0  0  0  0  0  0  0  0  0
  -33.5532   63.7206   66.5546 S   0  0  0  0  0  0  0  0  0  0  0  0
  -34.0075   63.0449   68.4180 H   0  0  0  0  0  0  0  0  0  0  0  0
  -31.7192   63.3051   65.7868 H   0  0  0  0  0  0  0  0  0  0  0  0
  2  1  1  0  0  0
  2  4  1  0  0  0
  2  5  1  0  0  0
 41 42  1  0  0  0
 41  1  1  0  0  0
 42 46  1  0  0  0
  1 24  1  0  0  0
 23 24  1  0  0  0
 23 25  1  0  0  0
 24 26  1  0  0  0
  3  4  2  0  0  0
 26 27  2  0  0  0
 27 28  1  0  0  0
 43 47  1  0  0  0
 43 51  1  0  0  0
 28 29  1  0  0  0
 56 48  1  0  0  0
 56 60  1  0  0  0
 29 30  1  0  0  0
 57 60  1  0  0  0
 57 61  1  0  0  0
 30 31  1  0  0  0
 44 49  1  0  0  0
 44 52  1  0  0  0
 31 32  1  0  0  0
 45 46  1  0  0  0
 45 50  1  0  0  0
 32 33  1  0  0  0
 53 54  1  0  0  0
 53 55  1  0  0  0
 33 34  1  0  0  0
 34 35  1  0  0  0
 35 36  1  0  0  0
 58 60  1  0  0  0
 36 37  1  0  0  0
 59 60  1  0  0  0
 59 62  1  0  0  0
 37 38  1  0  0  0
 38 39  1  0  0  0
 39 40  1  0  0  0
  4  6  1  0  0  0
  6  7  1  0  0  0
  7  8  1  0  0  0
  8  9  1  0  0  0
  9 10  1  0  0  0
 10 11  1  0  0  0
 11 12  1  0  0  0
 12 13  1  0  0  0
 13 14  1  0  0  0
 14 15  1  0  0  0
 15 16  1  0  0  0
 16 17  1  0  0  0
 17 18  1  0  0  0
 18 19  1  0  0  0
 19 20  1  0  0  0
 20 21  1  0  0  0
 21 22  1  0  0  0
 46 47  1  0  0  0
 47 48  1  0  0  0
 48 49  1  0  0  0
 49 50  1  0  0  0
 50 54  1  0  0  0
M  CHG 1  58  -1
M  END
> <minimizedAffinity>
-9.03155

> <CNNscore>
0.1528403908

> <CNNaffinity>
7.1200194359

> <CNN_VS>
1.0882265568

> <CNNaffinity_variance>
1.4998962879

$$$$
/media/chris/experiments/cd1a-new-docking/inputs/ligands/1onq_ligand.pdb


 62 62  0  0  0  0  0  0  0  0999 V2000
  -36.6140   59.5110   63.4114 C   0  0  0  0  0  0  0  0  0  0  0  0
  -37.2394   60.1215   64.5678 N   0  0  0  0  0  0  0  0  0  0  0  0
  -38.7940   61.4075   65.6056 O   0  0  0  0  0  0  0  0  0  0  0  0
  -38.3204   60.9126   64.6013 C   0  0  0  0  0  0  0  0  0  0  0  0
  -36.8175   59.9313   65.4367 H   0  0  0  0  0  0  0  0  0  0  0  0
  -38.9533   61.1844   63.2689 C   0  0  0  0  0  0  0  0  0  0  0  0
  -40.2995   60.4599   63.2726 C   0  0  0  0  0  0  0  0  0  0  0  0
  -41.2147   61.0543   62.2047 C   0  0  0  0  0  0  0  0  0  0  0  0
  -42.4346   61.7860   62.7092 C   0  0  0  0  0  0  0  0  0  0  0  0
  -43.3773   60.7497   63.3117 C   0  0  0  0  0  0  0  0  0  0  0  0
  -44.6230   61.3804   63.9484 C   0  0  0  0  0  0  0  0  0  0  0  0
  -45.4968   60.3919   64.7420 C   0  0  0  0  0  0  0  0  0  0  0  0
  -46.9919   60.4744   64.3633 C   0  0  0  0  0  0  0  0  0  0  0  0
  -47.7518   59.2561   64.8955 C   0  0  0  0  0  0  0  0  0  0  0  0
  -48.7570   58.6484   63.9248 C   0  0  0  0  0  0  0  0  0  0  0  0
  -49.6552   59.6999   63.2904 C   0  0  0  0  0  0  0  0  0  0  0  0
  -50.9962   59.1990   62.7490 C   0  0  0  0  0  0  0  0  0  0  0  0
  -50.7391   57.9389   61.9335 C   0  0  0  0  0  0  0  0  0  0  0  0
  -50.4539   58.0788   60.4455 C   0  0  0  0  0  0  0  0  0  0  0  0
  -48.9760   57.7882   60.1391 C   0  0  0  0  0  0  0  0  0  0  0  0
  -48.4016   58.5835   58.9523 C   0  0  0  0  0  0  0  0  0  0  0  0
  -47.5089   57.7459   58.0395 C   0  0  0  0  0  0  0  0  0  0  0  0
  -36.2189   57.2255   63.5398 O   0  0  0  0  0  0  0  0  0  0  0  0
  -37.2786   58.1461   63.3577 C   0  0  0  0  0  0  0  0  0  0  0  0
  -35.8105   57.3702   64.4077 H   0  0  0  0  0  0  0  0  0  0  0  0
  -37.9682   57.9710   62.0026 C   0  0  0  0  0  0  0  0  0  0  0  0
  -37.6707   58.7209   60.9277 C   0  0  0  0  0  0  0  0  0  0  0  0
  -38.4052   58.4851   59.6094 C   0  0  0  0  0  0  0  0  0  0  0  0
  -39.6502   59.3651   59.4251 C   0  0  0  0  0  0  0  0  0  0  0  0
  -40.9813   58.6097   59.2562 C   0  0  0  0  0  0  0  0  0  0  0  0
  -40.9167   57.2233   59.9411 C   0  0  0  0  0  0  0  0  0  0  0  0
  -41.6674   57.1174   61.2927 C   0  0  0  0  0  0  0  0  0  0  0  0
  -41.1270   56.0142   62.2327 C   0  0  0  0  0  0  0  0  0  0  0  0
  -41.8011   56.0016   63.6217 C   0  0  0  0  0  0  0  0  0  0  0  0
  -42.6717   57.2335   63.8970 C   0  0  0  0  0  0  0  0  0  0  0  0
  -43.4427   57.2296   65.2153 C   0  0  0  0  0  0  0  0  0  0  0  0
  -42.6845   57.8863   66.3858 C   0  0  0  0  0  0  0  0  0  0  0  0
  -41.6265   58.9237   65.9806 C   0  0  0  0  0  0  0  0  0  0  0  0
  -41.5515   60.0610   67.0034 C   0  0  0  0  0  0  0  0  0  0  0  0
  -42.3573   61.3082   66.6866 C   0  0  0  0  0  0  0  0  0  0  0  0
  -35.0687   59.5389   63.3980 C   0  0  0  0  0  0  0  0  0  0  0  0
  -34.4180   59.9907   64.6128 O   0  0  0  0  0  0  0  0  0  0  0  0
  -33.6817   62.0016   62.7177 O   0  0  0  0  0  0  0  0  0  0  0  0
  -36.5260   64.2478   64.7825 O   0  0  0  0  0  0  0  0  0  0  0  0
  -35.1257   61.8550   65.9945 O   0  0  0  0  0  0  0  0  0  0  0  0
  -34.2655   61.4289   64.9100 C   0  0  0  0  0  0  0  0  0  0  0  0
  -34.5387   62.3921   63.7459 C   0  0  0  0  0  0  0  0  0  0  0  0
  -34.2491   63.8711   64.0833 C   0  0  0  0  0  0  0  0  0  0  0  0
  -35.1686   64.2314   65.2174 C   0  0  0  0  0  0  0  0  0  0  0  0
  -34.9795   63.2531   66.3625 C   0  0  0  0  0  0  0  0  0  0  0  0
  -33.8496   61.0732   62.4919 H   0  0  0  0  0  0  0  0  0  0  0  0
  -36.6238   64.8783   64.0519 H   0  0  0  0  0  0  0  0  0  0  0  0
  -36.2078   62.8189   68.3668 O   0  0  0  0  0  0  0  0  0  0  0  0
  -35.9897   63.7810   67.3790 C   0  0  0  0  0  0  0  0  0  0  0  0
  -36.8496   63.1566   69.0109 H   0  0  0  0  0  0  0  0  0  0  0  0
  -34.5158   64.8259   63.0310 O   0  0  0  0  0  0  0  0  0  0  0  0
  -36.4876   63.4761   62.0276 O   0  0  0  0  0  0  0  0  0  0  0  0
  -34.4987   63.8623   60.6917 O   0  0  0  0  0  0  0  0  0  0  0  0
  -36.0818   65.6585   61.0690 O   0  0  0  0  0  0  0  0  0  0  0  0
  -35.4270   64.4691   61.6840 S   0  0  0  0  0  0  0  0  0  0  0  0
  -36.0796   62.6933   62.4298 H   0  0  0  0  0  0  0  0  0  0  0  0
  -36.6892   66.0604   61.7096 H   0  0  0  0  0  0  0  0  0  0  0  0
  2  1  1  0  0  0
  2  4  1  0  0  0
  2  5  1  0  0  0
 41 42  1  0  0  0
 41  1  1  0  0  0
 42 46  1  0  0  0
  1 24  1  0  0  0
 23 24  1  0  0  0
 23 25  1  0  0  0
 24 26  1  0  0  0
  3  4  2  0  0  0
 26 27  2  0  0  0
 27 28  1  0  0  0
 43 47  1  0  0  0
 43 51  1  0  0  0
 28 29  1  0  0  0
 56 48  1  0  0  0
 56 60  1  0  0  0
 29 30  1  0  0  0
 57 60  1  0  0  0
 57 61  1  0  0  0
 30 31  1  0  0  0
 44 49  1  0  0  0
 44 52  1  0  0  0
 31 32  1  0  0  0
 45 46  1  0  0  0
 45 50  1  0  0  0
 32 33  1  0  0  0
 53 54  1  0  0  0
 53 55  1  0  0  0
 33 34  1  0  0  0
 34 35  1  0  0  0
 35 36  1  0  0  0
 58 60  1  0  0  0
 36 37  1  0  0  0
 59 60  1  0  0  0
 59 62  1  0  0  0
 37 38  1  0  0  0
 38 39  1  0  0  0
 39 40  1  0  0  0
  4  6  1  0  0  0
  6  7  1  0  0  0
  7  8  1  0  0  0
  8  9  1  0  0  0
  9 10  1  0  0  0
 10 11  1  0  0  0
 11 12  1  0  0  0
 12 13  1  0  0  0
 13 14  1  0  0  0
 14 15  1  0  0  0
 15 16  1  0  0  0
 16 17  1  0  0  0
 17 18  1  0  0  0
 18 19  1  0  0  0
 19 20  1  0  0  0
 20 21  1  0  0  0
 21 22  1  0  0  0
 46 47  1  0  0  0
 47 48  1  0  0  0
 48 49  1  0  0  0
 49 50  1  0  0  0
 50 54  1  0  0  0
M  CHG 1  58  -1
M  END
> <minimizedAffinity>
-9.27345

> <CNNscore>
0.1476428211

> <CNNaffinity>
7.1008849144

> <CNN_VS>
1.0483946800

> <CNNaffinity_variance>
2.1003999710

$$$$
/media/chris/experiments/cd1a-new-docking/inputs/ligands/1onq_ligand.pdb


 62 62  0  0  0  0  0  0  0  0999 V2000
  -42.2862   58.7531   64.3783 C   0  0  0  0  0  0  0  0  0  0  0  0
  -43.1360   57.8033   65.0688 N   0  0  0  0  0  0  0  0  0  0  0  0
  -45.1186   57.0475   65.8721 O   0  0  0  0  0  0  0  0  0  0  0  0
  -44.4586   57.8733   65.2719 C   0  0  0  0  0  0  0  0  0  0  0  0
  -42.6854   57.0078   65.4339 H   0  0  0  0  0  0  0  0  0  0  0  0
  -45.1280   59.0884   64.7017 C   0  0  0  0  0  0  0  0  0  0  0  0
  -46.6275   58.9088   64.9391 C   0  0  0  0  0  0  0  0  0  0  0  0
  -47.4079   59.9765   64.1761 C   0  0  0  0  0  0  0  0  0  0  0  0
  -48.3965   60.7805   64.9852 C   0  0  0  0  0  0  0  0  0  0  0  0
  -49.0883   59.8237   65.9504 C   0  0  0  0  0  0  0  0  0  0  0  0
  -50.5682   59.6040   65.6088 C   0  0  0  0  0  0  0  0  0  0  0  0
  -51.1463   60.6279   64.6148 C   0  0  0  0  0  0  0  0  0  0  0  0
  -51.2663   60.0697   63.1797 C   0  0  0  0  0  0  0  0  0  0  0  0
  -50.9761   58.5662   63.1589 C   0  0  0  0  0  0  0  0  0  0  0  0
  -49.9553   58.1206   62.1190 C   0  0  0  0  0  0  0  0  0  0  0  0
  -50.6125   57.6439   60.8323 C   0  0  0  0  0  0  0  0  0  0  0  0
  -49.8921   58.0140   59.5337 C   0  0  0  0  0  0  0  0  0  0  0  0
  -48.4211   57.6506   59.6856 C   0  0  0  0  0  0  0  0  0  0  0  0
  -47.9752   56.2443   59.3134 C   0  0  0  0  0  0  0  0  0  0  0  0
  -47.1264   56.2576   58.0321 C   0  0  0  0  0  0  0  0  0  0  0  0
  -47.5988   57.2606   56.9635 C   0  0  0  0  0  0  0  0  0  0  0  0
  -46.7918   58.5568   56.9529 C   0  0  0  0  0  0  0  0  0  0  0  0
  -42.3659   61.0175   64.8901 O   0  0  0  0  0  0  0  0  0  0  0  0
  -41.9884   59.7777   65.4594 C   0  0  0  0  0  0  0  0  0  0  0  0
  -43.3143   61.0045   64.6869 H   0  0  0  0  0  0  0  0  0  0  0  0
  -40.4981   59.7317   65.8048 C   0  0  0  0  0  0  0  0  0  0  0  0
  -39.6247   58.9295   65.1725 C   0  0  0  0  0  0  0  0  0  0  0  0
  -38.1517   58.9410   65.5767 C   0  0  0  0  0  0  0  0  0  0  0  0
  -37.2853   57.9407   64.7975 C   0  0  0  0  0  0  0  0  0  0  0  0
  -35.8835   58.4400   64.4015 C   0  0  0  0  0  0  0  0  0  0  0  0
  -35.3854   57.7219   63.1241 C   0  0  0  0  0  0  0  0  0  0  0  0
  -33.9448   58.0828   62.6813 C   0  0  0  0  0  0  0  0  0  0  0  0
  -33.0976   58.7680   63.7792 C   0  0  0  0  0  0  0  0  0  0  0  0
  -31.8476   59.4914   63.2332 C   0  0  0  0  0  0  0  0  0  0  0  0
  -32.0329   60.0662   61.8237 C   0  0  0  0  0  0  0  0  0  0  0  0
  -30.9624   61.0486   61.3532 C   0  0  0  0  0  0  0  0  0  0  0  0
  -31.0857   62.4538   61.9749 C   0  0  0  0  0  0  0  0  0  0  0  0
  -32.2307   63.3160   61.4222 C   0  0  0  0  0  0  0  0  0  0  0  0
  -32.9227   64.0959   62.5439 C   0  0  0  0  0  0  0  0  0  0  0  0
  -32.7602   65.6053   62.5165 C   0  0  0  0  0  0  0  0  0  0  0  0
  -42.8387   59.2891   63.0380 C   0  0  0  0  0  0  0  0  0  0  0  0
  -42.3390   60.5781   62.6000 O   0  0  0  0  0  0  0  0  0  0  0  0
  -39.8646   61.7620   63.4081 O   0  0  0  0  0  0  0  0  0  0  0  0
  -38.2413   58.5640   61.2782 O   0  0  0  0  0  0  0  0  0  0  0  0
  -41.0396   59.6088   60.7952 O   0  0  0  0  0  0  0  0  0  0  0  0
  -41.1294   60.6850   61.7602 C   0  0  0  0  0  0  0  0  0  0  0  0
  -39.7877   60.7010   62.5068 C   0  0  0  0  0  0  0  0  0  0  0  0
  -38.5687   60.9329   61.5873 C   0  0  0  0  0  0  0  0  0  0  0  0
  -38.5518   59.7865   60.6143 C   0  0  0  0  0  0  0  0  0  0  0  0
  -39.8920   59.6927   59.9077 C   0  0  0  0  0  0  0  0  0  0  0  0
  -40.6261   61.6331   63.9951 H   0  0  0  0  0  0  0  0  0  0  0  0
  -37.3827   58.6461   61.7221 H   0  0  0  0  0  0  0  0  0  0  0  0
  -38.3847   58.5449   58.4501 O   0  0  0  0  0  0  0  0  0  0  0  0
  -39.6680   58.4876   58.9967 C   0  0  0  0  0  0  0  0  0  0  0  0
  -38.2450   57.7787   57.8720 H   0  0  0  0  0  0  0  0  0  0  0  0
  -37.2761   60.9297   62.2346 O   0  0  0  0  0  0  0  0  0  0  0  0
  -36.3898   63.3424   61.9027 O   0  0  0  0  0  0  0  0  0  0  0  0
  -35.2802   61.8653   63.4763 O   0  0  0  0  0  0  0  0  0  0  0  0
  -37.4182   62.8598   64.0371 O   0  0  0  0  0  0  0  0  0  0  0  0
  -36.6012   62.2823   62.9324 S   0  0  0  0  0  0  0  0  0  0  0  0
  -35.8588   62.9843   61.1742 H   0  0  0  0  0  0  0  0  0  0  0  0
  -38.2816   63.1345   63.6911 H   0  0  0  0  0  0  0  0  0  0  0  0
  2  1  1  0  0  0
  2  4  1  0  0  0
  2  5  1  0  0  0
 41 42  1  0  0  0
 41  1  1  0  0  0
 42 46  1  0  0  0
  1 24  1  0  0  0
 23 24  1  0  0  0
 23 25  1  0  0  0
 24 26  1  0  0  0
  3  4  2  0  0  0
 26 27  2  0  0  0
 27 28  1  0  0  0
 43 47  1  0  0  0
 43 51  1  0  0  0
 28 29  1  0  0  0
 56 48  1  0  0  0
 56 60  1  0  0  0
 29 30  1  0  0  0
 57 60  1  0  0  0
 57 61  1  0  0  0
 30 31  1  0  0  0
 44 49  1  0  0  0
 44 52  1  0  0  0
 31 32  1  0  0  0
 45 46  1  0  0  0
 45 50  1  0  0  0
 32 33  1  0  0  0
 53 54  1  0  0  0
 53 55  1  0  0  0
 33 34  1  0  0  0
 34 35  1  0  0  0
 35 36  1  0  0  0
 58 60  1  0  0  0
 36 37  1  0  0  0
 59 60  1  0  0  0
 59 62  1  0  0  0
 37 38  1  0  0  0
 38 39  1  0  0  0
 39 40  1  0  0  0
  4  6  1  0  0  0
  6  7  1  0  0  0
  7  8  1  0  0  0
  8  9  1  0  0  0
  9 10  1  0  0  0
 10 11  1  0  0  0
 11 12  1  0  0  0
 12 13  1  0  0  0
 13 14  1  0  0  0
 14 15  1  0  0  0
 15 16  1  0  0  0
 16 17  1  0  0  0
 17 18  1  0  0  0
 18 19  1  0  0  0
 19 20  1  0  0  0
 20 21  1  0  0  0
 21 22  1  0  0  0
 46 47  1  0  0  0
 47 48  1  0  0  0
 48 49  1  0  0  0
 49 50  1  0  0  0
 50 54  1  0  0  0
M  CHG 1  58  -1
M  END
> <minimizedAffinity>
-9.13696

> <CNNscore>
0.1317446232

> <CNNaffinity>
6.5889310837

> <CNN_VS>
0.8680562377

> <CNNaffinity_variance>
1.3838089705

$$$$
/media/chris/experiments/cd1a-new-docking/inputs/ligands/1onq_ligand.pdb


 62 62  0  0  0  0  0  0  0  0999 V2000
  -40.5081   60.3435   64.0016 C   0  0  0  0  0  0  0  0  0  0  0  0
  -40.6998   58.9330   63.7276 N   0  0  0  0  0  0  0  0  0  0  0  0
  -41.7086   56.9197   64.0034 O   0  0  0  0  0  0  0  0  0  0  0  0
  -41.6032   58.1022   64.2652 C   0  0  0  0  0  0  0  0  0  0  0  0
  -40.0904   58.5362   63.0640 H   0  0  0  0  0  0  0  0  0  0  0  0
  -42.5272   58.7271   65.2679 C   0  0  0  0  0  0  0  0  0  0  0  0
  -43.9418   58.5719   64.7094 C   0  0  0  0  0  0  0  0  0  0  0  0
  -44.9207   58.2761   65.8432 C   0  0  0  0  0  0  0  0  0  0  0  0
  -46.3800   58.5112   65.5378 C   0  0  0  0  0  0  0  0  0  0  0  0
  -46.6057   60.0190   65.4990 C   0  0  0  0  0  0  0  0  0  0  0  0
  -48.0522   60.3932   65.1492 C   0  0  0  0  0  0  0  0  0  0  0  0
  -49.1010   59.8606   66.1427 C   0  0  0  0  0  0  0  0  0  0  0  0
  -50.3296   59.2391   65.4430 C   0  0  0  0  0  0  0  0  0  0  0  0
  -50.9966   60.2592   64.5159 C   0  0  0  0  0  0  0  0  0  0  0  0
  -51.3580   59.7336   63.1320 C   0  0  0  0  0  0  0  0  0  0  0  0
  -50.4899   58.5549   62.7174 C   0  0  0  0  0  0  0  0  0  0  0  0
  -49.2044   58.9009   61.9625 C   0  0  0  0  0  0  0  0  0  0  0  0
  -49.5653   59.1733   60.5084 C   0  0  0  0  0  0  0  0  0  0  0  0
  -50.1805   58.0498   59.6870 C   0  0  0  0  0  0  0  0  0  0  0  0
  -49.3204   57.7369   58.4522 C   0  0  0  0  0  0  0  0  0  0  0  0
  -47.8176   58.0204   58.6323 C   0  0  0  0  0  0  0  0  0  0  0  0
  -47.0914   58.2876   57.3160 C   0  0  0  0  0  0  0  0  0  0  0  0
  -42.2125   61.5861   63.0286 O   0  0  0  0  0  0  0  0  0  0  0  0
  -40.9658   60.9969   62.7089 C   0  0  0  0  0  0  0  0  0  0  0  0
  -42.0865   62.2542   63.7205 H   0  0  0  0  0  0  0  0  0  0  0  0
  -41.0947   59.9298   61.6194 C   0  0  0  0  0  0  0  0  0  0  0  0
  -40.9364   60.1961   60.3116 C   0  0  0  0  0  0  0  0  0  0  0  0
  -41.0821   59.0751   59.2844 C   0  0  0  0  0  0  0  0  0  0  0  0
  -39.9124   58.0802   59.2797 C   0  0  0  0  0  0  0  0  0  0  0  0
  -38.5233   58.6857   59.0058 C   0  0  0  0  0  0  0  0  0  0  0  0
  -37.6815   58.7381   60.3035 C   0  0  0  0  0  0  0  0  0  0  0  0
  -38.1082   57.7401   61.4097 C   0  0  0  0  0  0  0  0  0  0  0  0
  -36.9910   57.4049   62.4255 C   0  0  0  0  0  0  0  0  0  0  0  0
  -37.3455   57.7822   63.8802 C   0  0  0  0  0  0  0  0  0  0  0  0
  -36.1226   57.9542   64.7893 C   0  0  0  0  0  0  0  0  0  0  0  0
  -34.7619   57.9270   64.0965 C   0  0  0  0  0  0  0  0  0  0  0  0
  -33.6730   58.7405   64.8235 C   0  0  0  0  0  0  0  0  0  0  0  0
  -33.1510   59.9661   64.0584 C   0  0  0  0  0  0  0  0  0  0  0  0
  -31.9386   59.6012   63.1968 C   0  0  0  0  0  0  0  0  0  0  0  0
  -32.0341   59.9386   61.7195 C   0  0  0  0  0  0  0  0  0  0  0  0
  -39.1086   60.7353   64.5275 C   0  0  0  0  0  0  0  0  0  0  0  0
  -38.1262   61.1194   63.5322 O   0  0  0  0  0  0  0  0  0  0  0  0
  -36.2197   61.5750   65.6142 O   0  0  0  0  0  0  0  0  0  0  0  0
  -34.0347   63.3158   62.5167 O   0  0  0  0  0  0  0  0  0  0  0  0
  -37.0408   62.9840   62.4229 O   0  0  0  0  0  0  0  0  0  0  0  0
  -37.3120   62.3407   63.6918 C   0  0  0  0  0  0  0  0  0  0  0  0
  -35.9501   62.1600   64.3776 C   0  0  0  0  0  0  0  0  0  0  0  0
  -35.1978   63.4865   64.6221 C   0  0  0  0  0  0  0  0  0  0  0  0
  -34.9647   64.0937   63.2663 C   0  0  0  0  0  0  0  0  0  0  0  0
  -36.2840   64.2202   62.5264 C   0  0  0  0  0  0  0  0  0  0  0  0
  -36.6929   60.7389   65.4801 H   0  0  0  0  0  0  0  0  0  0  0  0
  -33.2006   63.2480   63.0071 H   0  0  0  0  0  0  0  0  0  0  0  0
  -35.5085   63.8167   60.3016 O   0  0  0  0  0  0  0  0  0  0  0  0
  -35.8294   64.8329   61.2035 C   0  0  0  0  0  0  0  0  0  0  0  0
  -35.2201   64.2084   59.4624 H   0  0  0  0  0  0  0  0  0  0  0  0
  -33.8961   63.3727   65.2408 O   0  0  0  0  0  0  0  0  0  0  0  0
  -33.1698   63.1569   67.7192 O   0  0  0  0  0  0  0  0  0  0  0  0
  -34.6778   64.9421   67.0648 O   0  0  0  0  0  0  0  0  0  0  0  0
  -32.3211   65.0736   66.5140 O   0  0  0  0  0  0  0  0  0  0  0  0
  -33.4851   64.1531   66.6529 S   0  0  0  0  0  0  0  0  0  0  0  0
  -33.9175   62.5480   67.8242 H   0  0  0  0  0  0  0  0  0  0  0  0
  -31.5386   64.5671   66.2456 H   0  0  0  0  0  0  0  0  0  0  0  0
  2  1  1  0  0  0
  2  4  1  0  0  0
  2  5  1  0  0  0
 41 42  1  0  0  0
 41  1  1  0  0  0
 42 46  1  0  0  0
  1 24  1  0  0  0
 23 24  1  0  0  0
 23 25  1  0  0  0
 24 26  1  0  0  0
  3  4  2  0  0  0
 26 27  2  0  0  0
 27 28  1  0  0  0
 43 47  1  0  0  0
 43 51  1  0  0  0
 28 29  1  0  0  0
 56 48  1  0  0  0
 56 60  1  0  0  0
 29 30  1  0  0  0
 57 60  1  0  0  0
 57 61  1  0  0  0
 30 31  1  0  0  0
 44 49  1  0  0  0
 44 52  1  0  0  0
 31 32  1  0  0  0
 45 46  1  0  0  0
 45 50  1  0  0  0
 32 33  1  0  0  0
 53 54  1  0  0  0
 53 55  1  0  0  0
 33 34  1  0  0  0
 34 35  1  0  0  0
 35 36  1  0  0  0
 58 60  1  0  0  0
 36 37  1  0  0  0
 59 60  1  0  0  0
 59 62  1  0  0  0
 37 38  1  0  0  0
 38 39  1  0  0  0
 39 40  1  0  0  0
  4  6  1  0  0  0
  6  7  1  0  0  0
  7  8  1  0  0  0
  8  9  1  0  0  0
  9 10  1  0  0  0
 10 11  1  0  0  0
 11 12  1  0  0  0
 12 13  1  0  0  0
 13 14  1  0  0  0
 14 15  1  0  0  0
 15 16  1  0  0  0
 16 17  1  0  0  0
 17 18  1  0  0  0
 18 19  1  0  0  0
 19 20  1  0  0  0
 20 21  1  0  0  0
 21 22  1  0  0  0
 46 47  1  0  0  0
 47 48  1  0  0  0
 48 49  1  0  0  0
 49 50  1  0  0  0
 50 54  1  0  0  0
M  CHG 1  58  -1
M  END
> <minimizedAffinity>
-9.52983

> <CNNscore>
0.1239621937

> <CNNaffinity>
6.8072633743

> <CNN_VS>
0.8438432813

> <CNNaffinity_variance>
1.2173540592

$$$$
/media/chris/experiments/cd1a-new-docking/inputs/ligands/1onq_ligand.pdb


 62 62  0  0  0  0  0  0  0  0999 V2000
  -40.2425   59.4906   64.5165 C   0  0  0  0  0  0  0  0  0  0  0  0
  -40.8942   58.2630   64.9282 N   0  0  0  0  0  0  0  0  0  0  0  0
  -41.7506   56.1913   64.5789 O   0  0  0  0  0  0  0  0  0  0  0  0
  -41.1893   57.1925   64.1783 C   0  0  0  0  0  0  0  0  0  0  0  0
  -41.1521   58.2091   65.8768 H   0  0  0  0  0  0  0  0  0  0  0  0
  -40.7818   57.2906   62.7382 C   0  0  0  0  0  0  0  0  0  0  0  0
  -42.0401   57.6684   61.9564 C   0  0  0  0  0  0  0  0  0  0  0  0
  -41.7308   57.7169   60.4620 C   0  0  0  0  0  0  0  0  0  0  0  0
  -40.3188   57.3608   60.0651 C   0  0  0  0  0  0  0  0  0  0  0  0
  -39.8867   58.3359   58.9750 C   0  0  0  0  0  0  0  0  0  0  0  0
  -38.4499   58.8400   59.1658 C   0  0  0  0  0  0  0  0  0  0  0  0
  -38.0209   58.9848   60.6374 C   0  0  0  0  0  0  0  0  0  0  0  0
  -38.4253   60.3438   61.2497 C   0  0  0  0  0  0  0  0  0  0  0  0
  -37.5421   60.6771   62.4556 C   0  0  0  0  0  0  0  0  0  0  0  0
  -37.5985   62.1290   62.9148 C   0  0  0  0  0  0  0  0  0  0  0  0
  -36.5092   62.4578   63.9248 C   0  0  0  0  0  0  0  0  0  0  0  0
  -35.2858   61.5383   63.9157 C   0  0  0  0  0  0  0  0  0  0  0  0
  -34.5776   61.6756   65.2567 C   0  0  0  0  0  0  0  0  0  0  0  0
  -35.0209   62.7792   66.2059 C   0  0  0  0  0  0  0  0  0  0  0  0
  -33.8081   63.4986   66.8174 C   0  0  0  0  0  0  0  0  0  0  0  0
  -33.3225   64.7226   66.0193 C   0  0  0  0  0  0  0  0  0  0  0  0
  -31.8448   64.6499   65.6415 C   0  0  0  0  0  0  0  0  0  0  0  0
  -39.5196   61.2323   65.8728 O   0  0  0  0  0  0  0  0  0  0  0  0
  -39.3853   59.8311   65.7234 C   0  0  0  0  0  0  0  0  0  0  0  0
  -40.4489   61.4517   66.0438 H   0  0  0  0  0  0  0  0  0  0  0  0
  -37.9376   59.4164   65.4503 C   0  0  0  0  0  0  0  0  0  0  0  0
  -37.6040   58.2238   64.9282 C   0  0  0  0  0  0  0  0  0  0  0  0
  -36.1347   57.8840   64.6860 C   0  0  0  0  0  0  0  0  0  0  0  0
  -35.8122   57.5219   63.2289 C   0  0  0  0  0  0  0  0  0  0  0  0
  -34.4625   58.0382   62.6968 C   0  0  0  0  0  0  0  0  0  0  0  0
  -33.5093   58.3880   63.8648 C   0  0  0  0  0  0  0  0  0  0  0  0
  -32.2417   59.1863   63.4679 C   0  0  0  0  0  0  0  0  0  0  0  0
  -32.3664   59.9471   62.1269 C   0  0  0  0  0  0  0  0  0  0  0  0
  -31.0864   60.7146   61.7311 C   0  0  0  0  0  0  0  0  0  0  0  0
  -31.3190   62.2061   61.4616 C   0  0  0  0  0  0  0  0  0  0  0  0
  -32.4663   62.8566   62.2316 C   0  0  0  0  0  0  0  0  0  0  0  0
  -33.2824   63.8680   61.4027 C   0  0  0  0  0  0  0  0  0  0  0  0
  -34.2144   64.7797   62.2152 C   0  0  0  0  0  0  0  0  0  0  0  0
  -35.5540   64.9750   61.4992 C   0  0  0  0  0  0  0  0  0  0  0  0
  -36.2030   66.3402   61.6418 C   0  0  0  0  0  0  0  0  0  0  0  0
  -41.1822   60.5987   63.9893 C   0  0  0  0  0  0  0  0  0  0  0  0
  -41.9368   61.3363   64.9843 O   0  0  0  0  0  0  0  0  0  0  0  0
  -44.4712   62.1978   63.9785 O   0  0  0  0  0  0  0  0  0  0  0  0
  -45.4344   58.1649   64.4330 O   0  0  0  0  0  0  0  0  0  0  0  0
  -43.1878   59.5000   65.9580 O   0  0  0  0  0  0  0  0  0  0  0  0
  -43.2506   60.8579   65.4583 C   0  0  0  0  0  0  0  0  0  0  0  0
  -44.3897   60.8808   64.4289 C   0  0  0  0  0  0  0  0  0  0  0  0
  -45.7625   60.4822   65.0136 C   0  0  0  0  0  0  0  0  0  0  0  0
  -45.6120   59.0733   65.5171 C   0  0  0  0  0  0  0  0  0  0  0  0
  -44.4447   58.9954   66.4844 C   0  0  0  0  0  0  0  0  0  0  0  0
  -43.6162   62.4661   63.6071 H   0  0  0  0  0  0  0  0  0  0  0  0
  -46.1901   58.2312   63.8285 H   0  0  0  0  0  0  0  0  0  0  0  0
  -45.7781   57.0962   67.0579 O   0  0  0  0  0  0  0  0  0  0  0  0
  -44.4614   57.5145   66.8573 C   0  0  0  0  0  0  0  0  0  0  0  0
  -45.7860   56.1556   67.2946 H   0  0  0  0  0  0  0  0  0  0  0  0
  -46.8669   60.4599   64.0810 O   0  0  0  0  0  0  0  0  0  0  0  0
  -48.8152   58.7515   64.1288 O   0  0  0  0  0  0  0  0  0  0  0  0
  -49.2965   61.1073   63.8005 O   0  0  0  0  0  0  0  0  0  0  0  0
  -48.6830   60.2827   65.9955 O   0  0  0  0  0  0  0  0  0  0  0  0
  -48.4367   60.1380   64.5326 S   0  0  0  0  0  0  0  0  0  0  0  0
  -48.6616   58.6383   63.1778 H   0  0  0  0  0  0  0  0  0  0  0  0
  -48.1261   59.6539   66.4807 H   0  0  0  0  0  0  0  0  0  0  0  0
  2  1  1  0  0  0
  2  4  1  0  0  0
  2  5  1  0  0  0
 41 42  1  0  0  0
 41  1  1  0  0  0
 42 46  1  0  0  0
  1 24  1  0  0  0
 23 24  1  0  0  0
 23 25  1  0  0  0
 24 26  1  0  0  0
  3  4  2  0  0  0
 26 27  2  0  0  0
 27 28  1  0  0  0
 43 47  1  0  0  0
 43 51  1  0  0  0
 28 29  1  0  0  0
 56 48  1  0  0  0
 56 60  1  0  0  0
 29 30  1  0  0  0
 57 60  1  0  0  0
 57 61  1  0  0  0
 30 31  1  0  0  0
 44 49  1  0  0  0
 44 52  1  0  0  0
 31 32  1  0  0  0
 45 46  1  0  0  0
 45 50  1  0  0  0
 32 33  1  0  0  0
 53 54  1  0  0  0
 53 55  1  0  0  0
 33 34  1  0  0  0
 34 35  1  0  0  0
 35 36  1  0  0  0
 58 60  1  0  0  0
 36 37  1  0  0  0
 59 60  1  0  0  0
 59 62  1  0  0  0
 37 38  1  0  0  0
 38 39  1  0  0  0
 39 40  1  0  0  0
  4  6  1  0  0  0
  6  7  1  0  0  0
  7  8  1  0  0  0
  8  9  1  0  0  0
  9 10  1  0  0  0
 10 11  1  0  0  0
 11 12  1  0  0  0
 12 13  1  0  0  0
 13 14  1  0  0  0
 14 15  1  0  0  0
 15 16  1  0  0  0
 16 17  1  0  0  0
 17 18  1  0  0  0
 18 19  1  0  0  0
 19 20  1  0  0  0
 20 21  1  0  0  0
 21 22  1  0  0  0
 46 47  1  0  0  0
 47 48  1  0  0  0
 48 49  1  0  0  0
 49 50  1  0  0  0
 50 54  1  0  0  0
M  CHG 1  58  -1
M  END
> <minimizedAffinity>
-7.86142

> <CNNscore>
0.1230533570

> <CNNaffinity>
6.9898386002

> <CNN_VS>
0.8601230979

> <CNNaffinity_variance>
2.4176928997

$$$$
/media/chris/experiments/cd1a-new-docking/inputs/ligands/1onq_ligand.pdb


 62 62  0  0  0  0  0  0  0  0999 V2000
  -42.3521   59.4802   64.3000 C   0  0  0  0  0  0  0  0  0  0  0  0
  -42.3943   58.1181   64.7941 N   0  0  0  0  0  0  0  0  0  0  0  0
  -41.7913   55.9309   64.8019 O   0  0  0  0  0  0  0  0  0  0  0  0
  -41.7045   57.0574   64.3531 C   0  0  0  0  0  0  0  0  0  0  0  0
  -43.0060   57.9516   65.5474 H   0  0  0  0  0  0  0  0  0  0  0  0
  -40.7727   57.3328   63.2104 C   0  0  0  0  0  0  0  0  0  0  0  0
  -40.9226   56.1632   62.2374 C   0  0  0  0  0  0  0  0  0  0  0  0
  -41.1000   56.6879   60.8146 C   0  0  0  0  0  0  0  0  0  0  0  0
  -41.7938   58.0217   60.6813 C   0  0  0  0  0  0  0  0  0  0  0  0
  -41.0133   58.8476   59.6642 C   0  0  0  0  0  0  0  0  0  0  0  0
  -39.7930   58.1027   59.1067 C   0  0  0  0  0  0  0  0  0  0  0  0
  -38.4573   58.8439   59.2994 C   0  0  0  0  0  0  0  0  0  0  0  0
  -38.5358   59.9542   60.3702 C   0  0  0  0  0  0  0  0  0  0  0  0
  -38.1605   59.4026   61.7486 C   0  0  0  0  0  0  0  0  0  0  0  0
  -37.4333   58.0636   61.7314 C   0  0  0  0  0  0  0  0  0  0  0  0
  -36.8016   57.7324   63.0753 C   0  0  0  0  0  0  0  0  0  0  0  0
  -35.2732   57.6562   63.0980 C   0  0  0  0  0  0  0  0  0  0  0  0
  -34.7595   58.6993   64.0813 C   0  0  0  0  0  0  0  0  0  0  0  0
  -33.2869   58.6783   64.4635 C   0  0  0  0  0  0  0  0  0  0  0  0
  -32.3949   58.6287   63.2129 C   0  0  0  0  0  0  0  0  0  0  0  0
  -31.4922   59.8617   63.0231 C   0  0  0  0  0  0  0  0  0  0  0  0
  -31.8886   60.7219   61.8255 C   0  0  0  0  0  0  0  0  0  0  0  0
  -42.1038   61.6242   65.1588 O   0  0  0  0  0  0  0  0  0  0  0  0
  -41.9522   60.2682   65.5356 C   0  0  0  0  0  0  0  0  0  0  0  0
  -43.0315   61.7952   64.9328 H   0  0  0  0  0  0  0  0  0  0  0  0
  -40.5061   59.9307   65.9061 C   0  0  0  0  0  0  0  0  0  0  0  0
  -39.4559   60.2702   65.1392 C   0  0  0  0  0  0  0  0  0  0  0  0
  -38.0415   59.8959   65.5781 C   0  0  0  0  0  0  0  0  0  0  0  0
  -37.0796   61.0901   65.6606 C   0  0  0  0  0  0  0  0  0  0  0  0
  -37.0041   61.9734   64.4016 C   0  0  0  0  0  0  0  0  0  0  0  0
  -35.7690   62.9045   64.4572 C   0  0  0  0  0  0  0  0  0  0  0  0
  -34.4641   62.2428   64.9682 C   0  0  0  0  0  0  0  0  0  0  0  0
  -34.0751   62.6410   66.4114 C   0  0  0  0  0  0  0  0  0  0  0  0
  -33.7173   64.1352   66.5645 C   0  0  0  0  0  0  0  0  0  0  0  0
  -32.3973   64.5267   65.8894 C   0  0  0  0  0  0  0  0  0  0  0  0
  -32.5076   65.4807   64.7020 C   0  0  0  0  0  0  0  0  0  0  0  0
  -32.3913   64.7882   63.3298 C   0  0  0  0  0  0  0  0  0  0  0  0
  -33.2797   65.3755   62.2227 C   0  0  0  0  0  0  0  0  0  0  0  0
  -34.0431   64.2708   61.4863 C   0  0  0  0  0  0  0  0  0  0  0  0
  -35.5369   64.4817   61.3147 C   0  0  0  0  0  0  0  0  0  0  0  0
  -43.6148   59.9539   63.5451 C   0  0  0  0  0  0  0  0  0  0  0  0
  -44.4108   60.9789   64.1925 O   0  0  0  0  0  0  0  0  0  0  0  0
  -47.1881   61.4590   63.7098 O   0  0  0  0  0  0  0  0  0  0  0  0
  -47.6078   57.7046   65.4782 O   0  0  0  0  0  0  0  0  0  0  0  0
  -45.1919   59.4707   65.9247 O   0  0  0  0  0  0  0  0  0  0  0  0
  -45.5104   60.6269   65.1126 C   0  0  0  0  0  0  0  0  0  0  0  0
  -46.8680   60.3284   64.4602 C   0  0  0  0  0  0  0  0  0  0  0  0
  -48.0044   60.0831   65.4769 C   0  0  0  0  0  0  0  0  0  0  0  0
  -47.5955   58.8812   66.2828 C   0  0  0  0  0  0  0  0  0  0  0  0
  -46.2210   59.1099   66.8850 C   0  0  0  0  0  0  0  0  0  0  0  0
  -46.4841   61.6288   63.0644 H   0  0  0  0  0  0  0  0  0  0  0  0
  -48.4938   57.5780   65.1041 H   0  0  0  0  0  0  0  0  0  0  0  0
  -44.9640   57.0819   67.0302 O   0  0  0  0  0  0  0  0  0  0  0  0
  -45.9989   57.7979   67.6345 C   0  0  0  0  0  0  0  0  0  0  0  0
  -44.8250   56.2493   67.5079 H   0  0  0  0  0  0  0  0  0  0  0  0
  -49.2999   59.7697   64.9170 O   0  0  0  0  0  0  0  0  0  0  0  0
  -49.7750   60.5473   62.4908 O   0  0  0  0  0  0  0  0  0  0  0  0
  -50.7331   58.4659   63.2901 O   0  0  0  0  0  0  0  0  0  0  0  0
  -48.3766   58.5903   62.7373 O   0  0  0  0  0  0  0  0  0  0  0  0
  -49.5257   59.3351   63.3257 S   0  0  0  0  0  0  0  0  0  0  0  0
  -50.5211   61.0458   62.8591 H   0  0  0  0  0  0  0  0  0  0  0  0
  -47.5846   59.1500   62.7565 H   0  0  0  0  0  0  0  0  0  0  0  0
  2  1  1  0  0  0
  2  4  1  0  0  0
  2  5  1  0  0  0
 41 42  1  0  0  0
 41  1  1  0  0  0
 42 46  1  0  0  0
  1 24  1  0  0  0
 23 24  1  0  0  0
 23 25  1  0  0  0
 24 26  1  0  0  0
  3  4  2  0  0  0
 26 27  2  0  0  0
 27 28  1  0  0  0
 43 47  1  0  0  0
 43 51  1  0  0  0
 28 29  1  0  0  0
 56 48  1  0  0  0
 56 60  1  0  0  0
 29 30  1  0  0  0
 57 60  1  0  0  0
 57 61  1  0  0  0
 30 31  1  0  0  0
 44 49  1  0  0  0
 44 52  1  0  0  0
 31 32  1  0  0  0
 45 46  1  0  0  0
 45 50  1  0  0  0
 32 33  1  0  0  0
 53 54  1  0  0  0
 53 55  1  0  0  0
 33 34  1  0  0  0
 34 35  1  0  0  0
 35 36  1  0  0  0
 58 60  1  0  0  0
 36 37  1  0  0  0
 59 60  1  0  0  0
 59 62  1  0  0  0
 37 38  1  0  0  0
 38 39  1  0  0  0
 39 40  1  0  0  0
  4  6  1  0  0  0
  6  7  1  0  0  0
  7  8  1  0  0  0
  8  9  1  0  0  0
  9 10  1  0  0  0
 10 11  1  0  0  0
 11 12  1  0  0  0
 12 13  1  0  0  0
 13 14  1  0  0  0
 14 15  1  0  0  0
 15 16  1  0  0  0
 16 17  1  0  0  0
 17 18  1  0  0  0
 18 19  1  0  0  0
 19 20  1  0  0  0
 20 21  1  0  0  0
 21 22  1  0  0  0
 46 47  1  0  0  0
 47 48  1  0  0  0
 48 49  1  0  0  0
 49 50  1  0  0  0
 50 54  1  0  0  0
M  CHG 1  58  -1
M  END
> <minimizedAffinity>
-7.89246

> <CNNscore>
0.0998107195

> <CNNaffinity>
6.8972001076

> <CNN_VS>
0.6884145141

> <CNNaffinity_variance>
2.2713649273

$$$$
