/media/chris/experiments/cd1a-new-docking/inputs/ligands/1onq_ligand.pdb


 62 62  0  0  0  0  0  0  0  0999 V2000
  -41.6151   60.0544   65.4355 C   0  0  0  0  0  0  0  0  0  0  0  0
  -41.6479   58.7205   64.8693 N   0  0  0  0  0  0  0  0  0  0  0  0
  -42.5377   57.5061   66.5667 O   0  0  0  0  0  0  0  0  0  0  0  0
  -42.0845   57.5903   65.4417 C   0  0  0  0  0  0  0  0  0  0  0  0
  -41.3069   58.6340   63.9499 H   0  0  0  0  0  0  0  0  0  0  0  0
  -41.9928   56.3638   64.5831 C   0  0  0  0  0  0  0  0  0  0  0  0
  -41.8876   56.8531   63.1386 C   0  0  0  0  0  0  0  0  0  0  0  0
  -41.2754   55.7631   62.2621 C   0  0  0  0  0  0  0  0  0  0  0  0
  -41.1830   56.0718   60.7874 C   0  0  0  0  0  0  0  0  0  0  0  0
  -41.7195   57.4838   60.5775 C   0  0  0  0  0  0  0  0  0  0  0  0
  -40.9901   58.2347   59.4554 C   0  0  0  0  0  0  0  0  0  0  0  0
  -40.5746   59.6711   59.8223 C   0  0  0  0  0  0  0  0  0  0  0  0
  -39.0423   59.8569   59.8795 C   0  0  0  0  0  0  0  0  0  0  0  0
  -38.3338   58.4993   59.8882 C   0  0  0  0  0  0  0  0  0  0  0  0
  -37.3404   58.2976   61.0261 C   0  0  0  0  0  0  0  0  0  0  0  0
  -37.9170   57.4534   62.1530 C   0  0  0  0  0  0  0  0  0  0  0  0
  -38.5608   58.2247   63.3074 C   0  0  0  0  0  0  0  0  0  0  0  0
  -37.8337   57.8523   64.5924 C   0  0  0  0  0  0  0  0  0  0  0  0
  -36.3438   57.5508   64.5262 C   0  0  0  0  0  0  0  0  0  0  0  0
  -35.5201   58.8483   64.5153 C   0  0  0  0  0  0  0  0  0  0  0  0
  -34.2841   58.8122   63.5977 C   0  0  0  0  0  0  0  0  0  0  0  0
  -32.9657   58.7285   64.3635 C   0  0  0  0  0  0  0  0  0  0  0  0
  -42.4989   62.1579   64.9990 O   0  0  0  0  0  0  0  0  0  0  0  0
  -42.4777   60.8460   64.4676 C   0  0  0  0  0  0  0  0  0  0  0  0
  -41.5965   62.5135   65.0182 H   0  0  0  0  0  0  0  0  0  0  0  0
  -43.8753   60.2248   64.4094 C   0  0  0  0  0  0  0  0  0  0  0  0
  -44.9906   60.9004   64.7348 C   0  0  0  0  0  0  0  0  0  0  0  0
  -46.3500   60.2087   64.6515 C   0  0  0  0  0  0  0  0  0  0  0  0
  -46.9972   59.9432   66.0186 C   0  0  0  0  0  0  0  0  0  0  0  0
  -48.5082   60.2264   66.1070 C   0  0  0  0  0  0  0  0  0  0  0  0
  -49.1106   60.4390   64.6973 C   0  0  0  0  0  0  0  0  0  0  0  0
  -50.6552   60.3435   64.6163 C   0  0  0  0  0  0  0  0  0  0  0  0
  -51.1753   59.4603   63.4577 C   0  0  0  0  0  0  0  0  0  0  0  0
  -50.1281   58.4570   62.9279 C   0  0  0  0  0  0  0  0  0  0  0  0
  -50.4906   57.8454   61.5693 C   0  0  0  0  0  0  0  0  0  0  0  0
  -49.4462   57.9956   60.4652 C   0  0  0  0  0  0  0  0  0  0  0  0
  -48.9486   56.6559   59.8877 C   0  0  0  0  0  0  0  0  0  0  0  0
  -47.7424   56.7581   58.9420 C   0  0  0  0  0  0  0  0  0  0  0  0
  -47.9193   57.9094   57.9478 C   0  0  0  0  0  0  0  0  0  0  0  0
  -46.7522   58.1814   57.0151 C   0  0  0  0  0  0  0  0  0  0  0  0
  -40.2068   60.6147   65.7383 C   0  0  0  0  0  0  0  0  0  0  0  0
  -39.5193   61.2678   64.6411 O   0  0  0  0  0  0  0  0  0  0  0  0
  -37.8170   61.5424   62.3598 O   0  0  0  0  0  0  0  0  0  0  0  0
  -36.0432   64.5096   64.6940 O   0  0  0  0  0  0  0  0  0  0  0  0
  -37.6715   62.2470   65.8708 O   0  0  0  0  0  0  0  0  0  0  0  0
  -38.0638   61.5114   64.6865 C   0  0  0  0  0  0  0  0  0  0  0  0
  -37.4689   62.2746   63.4942 C   0  0  0  0  0  0  0  0  0  0  0  0
  -35.9299   62.3951   63.5403 C   0  0  0  0  0  0  0  0  0  0  0  0
  -35.6052   63.1569   64.7956 C   0  0  0  0  0  0  0  0  0  0  0  0
  -36.2409   62.4714   65.9915 C   0  0  0  0  0  0  0  0  0  0  0  0
  -38.7821   61.4563   62.3142 H   0  0  0  0  0  0  0  0  0  0  0  0
  -35.6257   64.9278   63.9248 H   0  0  0  0  0  0  0  0  0  0  0  0
  -36.2097   62.8467   68.3519 O   0  0  0  0  0  0  0  0  0  0  0  0
  -35.8070   63.3908   67.1310 C   0  0  0  0  0  0  0  0  0  0  0  0
  -35.9330   63.4324   69.0739 H   0  0  0  0  0  0  0  0  0  0  0  0
  -35.3183   63.1291   62.4554 O   0  0  0  0  0  0  0  0  0  0  0  0
  -33.0221   61.9318   62.5618 O   0  0  0  0  0  0  0  0  0  0  0  0
  -33.1848   64.2679   63.1985 O   0  0  0  0  0  0  0  0  0  0  0  0
  -33.2691   63.6326   60.8611 O   0  0  0  0  0  0  0  0  0  0  0  0
  -33.6707   63.2376   62.2410 S   0  0  0  0  0  0  0  0  0  0  0  0
  -33.2725   61.6580   63.4581 H   0  0  0  0  0  0  0  0  0  0  0  0
  -33.5821   62.9659   60.2299 H   0  0  0  0  0  0  0  0  0  0  0  0
  2  1  1  0  0  0
  2  4  1  0  0  0
  2  5  1  0  0  0
 41 42  1  0  0  0
 41  1  1  0  0  0
 42 46  1  0  0  0
  1 24  1  0  0  0
 23 24  1  0  0  0
 23 25  1  0  0  0
 24 26  1  0  0  0
  3  4  2  0  0  0
 26 27  2  0  0  0
 27 28  1  0  0  0
 43 47  1  0  0  0
 43 51  1  0  0  0
 28 29  1  0  0  0
 56 48  1  0  0  0
 56 60  1  0  0  0
 29 30  1  0  0  0
 57 60  1  0  0  0
 57 61  1  0  0  0
 30 31  1  0  0  0
 44 49  1  0  0  0
 44 52  1  0  0  0
 31 32  1  0  0  0
 45 46  1  0  0  0
 45 50  1  0  0  0
 32 33  1  0  0  0
 53 54  1  0  0  0
 53 55  1  0  0  0
 33 34  1  0  0  0
 34 35  1  0  0  0
 35 36  1  0  0  0
 58 60  1  0  0  0
 36 37  1  0  0  0
 59 60  1  0  0  0
 59 62  1  0  0  0
 37 38  1  0  0  0
 38 39  1  0  0  0
 39 40  1  0  0  0
  4  6  1  0  0  0
  6  7  1  0  0  0
  7  8  1  0  0  0
  8  9  1  0  0  0
  9 10  1  0  0  0
 10 11  1  0  0  0
 11 12  1  0  0  0
 12 13  1  0  0  0
 13 14  1  0  0  0
 14 15  1  0  0  0
 15 16  1  0  0  0
 16 17  1  0  0  0
 17 18  1  0  0  0
 18 19  1  0  0  0
 19 20  1  0  0  0
 20 21  1  0  0  0
 21 22  1  0  0  0
 46 47  1  0  0  0
 47 48  1  0  0  0
 48 49  1  0  0  0
 49 50  1  0  0  0
 50 54  1  0  0  0
M  CHG 1  58  -1
M  END
> <minimizedAffinity>
-9.88028

> <CNNscore>
0.3418324590

> <CNNaffinity>
7.2887105942

> <CNN_VS>
2.4915177822

> <CNNaffinity_variance>
2.1262490749

$$$$
/media/chris/experiments/cd1a-new-docking/inputs/ligands/1onq_ligand.pdb


 62 62  0  0  0  0  0  0  0  0999 V2000
  -41.1805   59.8237   64.1640 C   0  0  0  0  0  0  0  0  0  0  0  0
  -42.4669   60.4603   64.3662 N   0  0  0  0  0  0  0  0  0  0  0  0
  -42.8411   61.4264   62.3478 O   0  0  0  0  0  0  0  0  0  0  0  0
  -43.1779   61.1835   63.4904 C   0  0  0  0  0  0  0  0  0  0  0  0
  -42.8682   60.3474   65.2581 H   0  0  0  0  0  0  0  0  0  0  0  0
  -44.4865   61.7038   64.0066 C   0  0  0  0  0  0  0  0  0  0  0  0
  -45.1730   60.5313   64.7073 C   0  0  0  0  0  0  0  0  0  0  0  0
  -46.6605   60.5166   64.3633 C   0  0  0  0  0  0  0  0  0  0  0  0
  -47.3446   59.1730   64.4346 C   0  0  0  0  0  0  0  0  0  0  0  0
  -47.7995   58.9631   65.8750 C   0  0  0  0  0  0  0  0  0  0  0  0
  -48.9598   59.8862   66.2710 C   0  0  0  0  0  0  0  0  0  0  0  0
  -50.3331   59.4402   65.7366 C   0  0  0  0  0  0  0  0  0  0  0  0
  -50.9571   60.4602   64.7590 C   0  0  0  0  0  0  0  0  0  0  0  0
  -51.1768   59.8248   63.3831 C   0  0  0  0  0  0  0  0  0  0  0  0
  -50.6298   58.4106   63.2311 C   0  0  0  0  0  0  0  0  0  0  0  0
  -50.3971   58.0351   61.7751 C   0  0  0  0  0  0  0  0  0  0  0  0
  -49.2305   58.7394   61.0786 C   0  0  0  0  0  0  0  0  0  0  0  0
  -49.5754   58.8848   59.6026 C   0  0  0  0  0  0  0  0  0  0  0  0
  -49.2921   57.7172   58.6690 C   0  0  0  0  0  0  0  0  0  0  0  0
  -47.9606   57.0379   59.0264 C   0  0  0  0  0  0  0  0  0  0  0  0
  -46.9094   57.0617   57.9015 C   0  0  0  0  0  0  0  0  0  0  0  0
  -46.9092   58.3629   57.1026 C   0  0  0  0  0  0  0  0  0  0  0  0
  -40.2834   57.9049   65.1175 O   0  0  0  0  0  0  0  0  0  0  0  0
  -41.4717   58.3728   64.5070 C   0  0  0  0  0  0  0  0  0  0  0  0
  -40.1110   58.4162   65.9236 H   0  0  0  0  0  0  0  0  0  0  0  0
  -41.8022   57.6052   63.2248 C   0  0  0  0  0  0  0  0  0  0  0  0
  -41.0642   56.5747   62.7779 C   0  0  0  0  0  0  0  0  0  0  0  0
  -41.4596   55.8598   61.4873 C   0  0  0  0  0  0  0  0  0  0  0  0
  -41.0406   56.6039   60.2109 C   0  0  0  0  0  0  0  0  0  0  0  0
  -41.5557   58.0493   60.0825 C   0  0  0  0  0  0  0  0  0  0  0  0
  -40.4686   58.9679   59.4746 C   0  0  0  0  0  0  0  0  0  0  0  0
  -39.0786   58.3105   59.2818 C   0  0  0  0  0  0  0  0  0  0  0  0
  -37.9848   58.8508   60.2328 C   0  0  0  0  0  0  0  0  0  0  0  0
  -38.3068   58.6390   61.7280 C   0  0  0  0  0  0  0  0  0  0  0  0
  -37.4529   57.5547   62.3961 C   0  0  0  0  0  0  0  0  0  0  0  0
  -37.0045   57.8406   63.8278 C   0  0  0  0  0  0  0  0  0  0  0  0
  -35.6085   58.4862   63.9294 C   0  0  0  0  0  0  0  0  0  0  0  0
  -34.7516   58.3967   62.6575 C   0  0  0  0  0  0  0  0  0  0  0  0
  -33.2690   58.2324   63.0038 C   0  0  0  0  0  0  0  0  0  0  0  0
  -32.8641   58.5856   64.4241 C   0  0  0  0  0  0  0  0  0  0  0  0
  -39.9875   60.4889   64.8872 C   0  0  0  0  0  0  0  0  0  0  0  0
  -39.2330   61.4675   64.1279 O   0  0  0  0  0  0  0  0  0  0  0  0
  -37.2689   61.7763   62.0727 O   0  0  0  0  0  0  0  0  0  0  0  0
  -35.6955   64.5862   64.7237 O   0  0  0  0  0  0  0  0  0  0  0  0
  -37.5142   62.3340   65.6044 O   0  0  0  0  0  0  0  0  0  0  0  0
  -37.7864   61.6601   64.3517 C   0  0  0  0  0  0  0  0  0  0  0  0
  -37.0348   62.4502   63.2706 C   0  0  0  0  0  0  0  0  0  0  0  0
  -35.5088   62.5171   63.4993 C   0  0  0  0  0  0  0  0  0  0  0  0
  -35.3113   63.2165   64.8159 C   0  0  0  0  0  0  0  0  0  0  0  0
  -36.1016   62.5052   65.8992 C   0  0  0  0  0  0  0  0  0  0  0  0
  -38.2241   61.7246   61.9121 H   0  0  0  0  0  0  0  0  0  0  0  0
  -35.1792   65.0207   64.0269 H   0  0  0  0  0  0  0  0  0  0  0  0
  -36.2474   62.7330   68.2741 O   0  0  0  0  0  0  0  0  0  0  0  0
  -35.7776   63.3630   67.1203 C   0  0  0  0  0  0  0  0  0  0  0  0
  -36.0404   63.2797   69.0482 H   0  0  0  0  0  0  0  0  0  0  0  0
  -34.7540   63.2732   62.5255 O   0  0  0  0  0  0  0  0  0  0  0  0
  -32.6153   61.8822   62.9822 O   0  0  0  0  0  0  0  0  0  0  0  0
  -32.5063   64.3054   63.0582 O   0  0  0  0  0  0  0  0  0  0  0  0
  -32.6492   63.1576   60.9283 O   0  0  0  0  0  0  0  0  0  0  0  0
  -33.1037   63.1423   62.3477 S   0  0  0  0  0  0  0  0  0  0  0  0
  -32.9022   61.8544   63.9084 H   0  0  0  0  0  0  0  0  0  0  0  0
  -33.0342   62.4021   60.4573 H   0  0  0  0  0  0  0  0  0  0  0  0
  2  1  1  0  0  0
  2  4  1  0  0  0
  2  5  1  0  0  0
 41 42  1  0  0  0
 41  1  1  0  0  0
 42 46  1  0  0  0
  1 24  1  0  0  0
 23 24  1  0  0  0
 23 25  1  0  0  0
 24 26  1  0  0  0
  3  4  2  0  0  0
 26 27  2  0  0  0
 27 28  1  0  0  0
 43 47  1  0  0  0
 43 51  1  0  0  0
 28 29  1  0  0  0
 56 48  1  0  0  0
 56 60  1  0  0  0
 29 30  1  0  0  0
 57 60  1  0  0  0
 57 61  1  0  0  0
 30 31  1  0  0  0
 44 49  1  0  0  0
 44 52  1  0  0  0
 31 32  1  0  0  0
 45 46  1  0  0  0
 45 50  1  0  0  0
 32 33  1  0  0  0
 53 54  1  0  0  0
 53 55  1  0  0  0
 33 34  1  0  0  0
 34 35  1  0  0  0
 35 36  1  0  0  0
 58 60  1  0  0  0
 36 37  1  0  0  0
 59 60  1  0  0  0
 59 62  1  0  0  0
 37 38  1  0  0  0
 38 39  1  0  0  0
 39 40  1  0  0  0
  4  6  1  0  0  0
  6  7  1  0  0  0
  7  8  1  0  0  0
  8  9  1  0  0  0
  9 10  1  0  0  0
 10 11  1  0  0  0
 11 12  1  0  0  0
 12 13  1  0  0  0
 13 14  1  0  0  0
 14 15  1  0  0  0
 15 16  1  0  0  0
 16 17  1  0  0  0
 17 18  1  0  0  0
 18 19  1  0  0  0
 19 20  1  0  0  0
 20 21  1  0  0  0
 21 22  1  0  0  0
 46 47  1  0  0  0
 47 48  1  0  0  0
 48 49  1  0  0  0
 49 50  1  0  0  0
 50 54  1  0  0  0
M  CHG 1  58  -1
M  END
> <minimizedAffinity>
-9.84487

> <CNNscore>
0.2042999417

> <CNNaffinity>
7.1018419266

> <CNN_VS>
1.4509059191

> <CNNaffinity_variance>
1.6642004251

$$$$
/media/chris/experiments/cd1a-new-docking/inputs/ligands/1onq_ligand.pdb


 62 62  0  0  0  0  0  0  0  0999 V2000
  -39.6497   60.0582   65.1945 C   0  0  0  0  0  0  0  0  0  0  0  0
  -41.0376   60.2528   65.5646 N   0  0  0  0  0  0  0  0  0  0  0  0
  -41.7891   61.5974   63.8988 O   0  0  0  0  0  0  0  0  0  0  0  0
  -41.9700   60.9727   64.9260 C   0  0  0  0  0  0  0  0  0  0  0  0
  -41.3318   59.7997   66.3876 H   0  0  0  0  0  0  0  0  0  0  0  0
  -43.3272   60.9685   65.5646 C   0  0  0  0  0  0  0  0  0  0  0  0
  -44.3230   60.6032   64.4637 C   0  0  0  0  0  0  0  0  0  0  0  0
  -44.3403   59.0905   64.2572 C   0  0  0  0  0  0  0  0  0  0  0  0
  -45.0640   58.2856   65.3092 C   0  0  0  0  0  0  0  0  0  0  0  0
  -46.5548   58.5727   65.1648 C   0  0  0  0  0  0  0  0  0  0  0  0
  -47.1654   59.1897   66.4302 C   0  0  0  0  0  0  0  0  0  0  0  0
  -48.1880   60.3080   66.1581 C   0  0  0  0  0  0  0  0  0  0  0  0
  -48.3976   60.5764   64.6516 C   0  0  0  0  0  0  0  0  0  0  0  0
  -49.8847   60.5082   64.2927 C   0  0  0  0  0  0  0  0  0  0  0  0
  -50.4150   59.1091   64.0039 C   0  0  0  0  0  0  0  0  0  0  0  0
  -51.1778   59.0408   62.6891 C   0  0  0  0  0  0  0  0  0  0  0  0
  -50.7684   57.9178   61.7334 C   0  0  0  0  0  0  0  0  0  0  0  0
  -49.3221   58.1507   61.3176 C   0  0  0  0  0  0  0  0  0  0  0  0
  -49.0261   58.4830   59.8626 C   0  0  0  0  0  0  0  0  0  0  0  0
  -47.9929   57.5086   59.2752 C   0  0  0  0  0  0  0  0  0  0  0  0
  -47.9554   57.4688   57.7364 C   0  0  0  0  0  0  0  0  0  0  0  0
  -46.9216   58.4167   57.1328 C   0  0  0  0  0  0  0  0  0  0  0  0
  -38.0981   58.3419   65.4015 O   0  0  0  0  0  0  0  0  0  0  0  0
  -39.4930   58.5496   65.2795 C   0  0  0  0  0  0  0  0  0  0  0  0
  -37.7785   58.7627   66.2150 H   0  0  0  0  0  0  0  0  0  0  0  0
  -40.0628   57.9084   64.0120 C   0  0  0  0  0  0  0  0  0  0  0  0
  -41.1937   57.1823   64.0040 C   0  0  0  0  0  0  0  0  0  0  0  0
  -41.6972   56.5738   62.6965 C   0  0  0  0  0  0  0  0  0  0  0  0
  -41.7156   57.5591   61.5188 C   0  0  0  0  0  0  0  0  0  0  0  0
  -41.1026   57.0394   60.2053 C   0  0  0  0  0  0  0  0  0  0  0  0
  -40.7511   58.2139   59.2606 C   0  0  0  0  0  0  0  0  0  0  0  0
  -39.2417   58.5480   59.1533 C   0  0  0  0  0  0  0  0  0  0  0  0
  -38.8026   59.7717   59.9914 C   0  0  0  0  0  0  0  0  0  0  0  0
  -38.0535   59.3954   61.2881 C   0  0  0  0  0  0  0  0  0  0  0  0
  -37.6746   57.9120   61.3742 C   0  0  0  0  0  0  0  0  0  0  0  0
  -36.6971   57.5321   62.4845 C   0  0  0  0  0  0  0  0  0  0  0  0
  -35.6753   58.6353   62.8234 C   0  0  0  0  0  0  0  0  0  0  0  0
  -34.2210   58.3205   62.4416 C   0  0  0  0  0  0  0  0  0  0  0  0
  -33.2445   58.9075   63.4647 C   0  0  0  0  0  0  0  0  0  0  0  0
  -33.8058   59.1954   64.8460 C   0  0  0  0  0  0  0  0  0  0  0  0
  -38.6263   60.9141   65.9747 C   0  0  0  0  0  0  0  0  0  0  0  0
  -38.0035   62.0031   65.2471 O   0  0  0  0  0  0  0  0  0  0  0  0
  -36.6670   62.0554   62.7196 O   0  0  0  0  0  0  0  0  0  0  0  0
  -34.1817   64.7721   64.6796 O   0  0  0  0  0  0  0  0  0  0  0  0
  -35.8739   62.7380   66.1474 O   0  0  0  0  0  0  0  0  0  0  0  0
  -36.5404   62.0580   65.0561 C   0  0  0  0  0  0  0  0  0  0  0  0
  -36.0522   62.7377   63.7687 C   0  0  0  0  0  0  0  0  0  0  0  0
  -34.5228   62.6597   63.5677 C   0  0  0  0  0  0  0  0  0  0  0  0
  -33.9078   63.3744   64.7392 C   0  0  0  0  0  0  0  0  0  0  0  0
  -34.4257   62.7770   66.0350 C   0  0  0  0  0  0  0  0  0  0  0  0
  -37.6300   62.0939   62.8293 H   0  0  0  0  0  0  0  0  0  0  0  0
  -33.8430   65.1327   63.8453 H   0  0  0  0  0  0  0  0  0  0  0  0
  -32.4378   63.9812   66.5929 O   0  0  0  0  0  0  0  0  0  0  0  0
  -33.7023   63.6339   67.0715 C   0  0  0  0  0  0  0  0  0  0  0  0
  -31.9804   64.5253   67.2530 H   0  0  0  0  0  0  0  0  0  0  0  0
  -34.0047   63.3084   62.3842 O   0  0  0  0  0  0  0  0  0  0  0  0
  -31.9588   61.8118   61.8441 O   0  0  0  0  0  0  0  0  0  0  0  0
  -31.6274   63.9231   62.9938 O   0  0  0  0  0  0  0  0  0  0  0  0
  -32.1215   63.8912   60.6212 O   0  0  0  0  0  0  0  0  0  0  0  0
  -32.4051   63.2340   61.9285 S   0  0  0  0  0  0  0  0  0  0  0  0
  -32.1358   61.3669   62.6877 H   0  0  0  0  0  0  0  0  0  0  0  0
  -32.6248   63.4479   59.9204 H   0  0  0  0  0  0  0  0  0  0  0  0
  2  1  1  0  0  0
  2  4  1  0  0  0
  2  5  1  0  0  0
 41 42  1  0  0  0
 41  1  1  0  0  0
 42 46  1  0  0  0
  1 24  1  0  0  0
 23 24  1  0  0  0
 23 25  1  0  0  0
 24 26  1  0  0  0
  3  4  2  0  0  0
 26 27  2  0  0  0
 27 28  1  0  0  0
 43 47  1  0  0  0
 43 51  1  0  0  0
 28 29  1  0  0  0
 56 48  1  0  0  0
 56 60  1  0  0  0
 29 30  1  0  0  0
 57 60  1  0  0  0
 57 61  1  0  0  0
 30 31  1  0  0  0
 44 49  1  0  0  0
 44 52  1  0  0  0
 31 32  1  0  0  0
 45 46  1  0  0  0
 45 50  1  0  0  0
 32 33  1  0  0  0
 53 54  1  0  0  0
 53 55  1  0  0  0
 33 34  1  0  0  0
 34 35  1  0  0  0
 35 36  1  0  0  0
 58 60  1  0  0  0
 36 37  1  0  0  0
 59 60  1  0  0  0
 59 62  1  0  0  0
 37 38  1  0  0  0
 38 39  1  0  0  0
 39 40  1  0  0  0
  4  6  1  0  0  0
  6  7  1  0  0  0
  7  8  1  0  0  0
  8  9  1  0  0  0
  9 10  1  0  0  0
 10 11  1  0  0  0
 11 12  1  0  0  0
 12 13  1  0  0  0
 13 14  1  0  0  0
 14 15  1  0  0  0
 15 16  1  0  0  0
 16 17  1  0  0  0
 17 18  1  0  0  0
 18 19  1  0  0  0
 19 20  1  0  0  0
 20 21  1  0  0  0
 21 22  1  0  0  0
 46 47  1  0  0  0
 47 48  1  0  0  0
 48 49  1  0  0  0
 49 50  1  0  0  0
 50 54  1  0  0  0
M  CHG 1  58  -1
M  END
> <minimizedAffinity>
-9.18963

> <CNNscore>
0.1987530738

> <CNNaffinity>
7.0123000145

> <CNN_VS>
1.3937162161

> <CNNaffinity_variance>
1.6881084442

$$$$
/media/chris/experiments/cd1a-new-docking/inputs/ligands/1onq_ligand.pdb


 62 62  0  0  0  0  0  0  0  0999 V2000
  -40.5000   60.2356   63.8762 C   0  0  0  0  0  0  0  0  0  0  0  0
  -41.9477   60.2758   63.9377 N   0  0  0  0  0  0  0  0  0  0  0  0
  -42.3113   61.8272   65.5528 O   0  0  0  0  0  0  0  0  0  0  0  0
  -42.7204   61.0301   64.7311 C   0  0  0  0  0  0  0  0  0  0  0  0
  -42.4221   59.6741   63.3197 H   0  0  0  0  0  0  0  0  0  0  0  0
  -44.1973   60.8446   64.5460 C   0  0  0  0  0  0  0  0  0  0  0  0
  -44.4211   59.3494   64.3194 C   0  0  0  0  0  0  0  0  0  0  0  0
  -45.9006   59.0120   64.4879 C   0  0  0  0  0  0  0  0  0  0  0  0
  -46.2633   58.2149   65.7173 C   0  0  0  0  0  0  0  0  0  0  0  0
  -46.8624   59.1817   66.7333 C   0  0  0  0  0  0  0  0  0  0  0  0
  -47.7617   60.2422   66.0842 C   0  0  0  0  0  0  0  0  0  0  0  0
  -49.2438   59.8378   65.9822 C   0  0  0  0  0  0  0  0  0  0  0  0
  -49.7994   59.9507   64.5455 C   0  0  0  0  0  0  0  0  0  0  0  0
  -50.4305   58.6267   64.1051 C   0  0  0  0  0  0  0  0  0  0  0  0
  -50.4806   58.4060   62.5981 C   0  0  0  0  0  0  0  0  0  0  0  0
  -49.2682   58.9905   61.8884 C   0  0  0  0  0  0  0  0  0  0  0  0
  -49.3955   59.1609   60.3728 C   0  0  0  0  0  0  0  0  0  0  0  0
  -49.8544   57.8346   59.7819 C   0  0  0  0  0  0  0  0  0  0  0  0
  -48.9072   56.6451   59.8366 C   0  0  0  0  0  0  0  0  0  0  0  0
  -47.5696   56.9755   59.1556 C   0  0  0  0  0  0  0  0  0  0  0  0
  -47.6609   57.1735   57.6314 C   0  0  0  0  0  0  0  0  0  0  0  0
  -46.9636   58.4416   57.1443 C   0  0  0  0  0  0  0  0  0  0  0  0
  -39.5815   60.7961   65.9349 O   0  0  0  0  0  0  0  0  0  0  0  0
  -40.1258   59.6878   65.2427 C   0  0  0  0  0  0  0  0  0  0  0  0
  -40.2566   61.4875   66.0198 H   0  0  0  0  0  0  0  0  0  0  0  0
  -39.1084   58.5569   65.0743 C   0  0  0  0  0  0  0  0  0  0  0  0
  -37.7968   58.7089   65.3251 C   0  0  0  0  0  0  0  0  0  0  0  0
  -36.8442   57.5307   65.1317 C   0  0  0  0  0  0  0  0  0  0  0  0
  -35.5892   57.8735   64.3157 C   0  0  0  0  0  0  0  0  0  0  0  0
  -35.8425   58.3703   62.8804 C   0  0  0  0  0  0  0  0  0  0  0  0
  -36.8621   57.4591   62.1556 C   0  0  0  0  0  0  0  0  0  0  0  0
  -38.1510   58.1666   61.6660 C   0  0  0  0  0  0  0  0  0  0  0  0
  -38.1386   58.5375   60.1643 C   0  0  0  0  0  0  0  0  0  0  0  0
  -39.4435   59.2084   59.6832 C   0  0  0  0  0  0  0  0  0  0  0  0
  -40.5286   58.2130   59.2555 C   0  0  0  0  0  0  0  0  0  0  0  0
  -41.4403   57.6954   60.3661 C   0  0  0  0  0  0  0  0  0  0  0  0
  -41.3002   56.1846   60.6378 C   0  0  0  0  0  0  0  0  0  0  0  0
  -41.0779   55.8017   62.1088 C   0  0  0  0  0  0  0  0  0  0  0  0
  -41.7601   56.8019   63.0465 C   0  0  0  0  0  0  0  0  0  0  0  0
  -42.0161   56.3295   64.4667 C   0  0  0  0  0  0  0  0  0  0  0  0
  -39.8156   61.5499   63.4368 C   0  0  0  0  0  0  0  0  0  0  0  0
  -38.5581   61.4198   62.7261 O   0  0  0  0  0  0  0  0  0  0  0  0
  -36.6111   63.1543   61.5523 O   0  0  0  0  0  0  0  0  0  0  0  0
  -36.2976   64.5858   65.4576 O   0  0  0  0  0  0  0  0  0  0  0  0
  -37.3642   61.8323   64.7973 O   0  0  0  0  0  0  0  0  0  0  0  0
  -37.2808   61.8165   63.3515 C   0  0  0  0  0  0  0  0  0  0  0  0
  -36.7251   63.1879   62.9416 C   0  0  0  0  0  0  0  0  0  0  0  0
  -35.3329   63.4957   63.5351 C   0  0  0  0  0  0  0  0  0  0  0  0
  -35.5010   63.4839   65.0295 C   0  0  0  0  0  0  0  0  0  0  0  0
  -36.1190   62.1682   65.4666 C   0  0  0  0  0  0  0  0  0  0  0  0
  -37.4777   62.9618   61.1614 H   0  0  0  0  0  0  0  0  0  0  0  0
  -35.8851   65.4148   65.1683 H   0  0  0  0  0  0  0  0  0  0  0  0
  -35.0735   63.0370   67.4327 O   0  0  0  0  0  0  0  0  0  0  0  0
  -36.2101   62.3661   66.9781 C   0  0  0  0  0  0  0  0  0  0  0  0
  -35.1338   63.1614   68.3928 H   0  0  0  0  0  0  0  0  0  0  0  0
  -34.7734   64.7869   63.2039 O   0  0  0  0  0  0  0  0  0  0  0  0
  -32.3428   64.0409   63.7072 O   0  0  0  0  0  0  0  0  0  0  0  0
  -33.3086   65.8900   64.9471 O   0  0  0  0  0  0  0  0  0  0  0  0
  -32.6070   66.1982   62.6477 O   0  0  0  0  0  0  0  0  0  0  0  0
  -33.2242   65.2420   63.6101 S   0  0  0  0  0  0  0  0  0  0  0  0
  -32.7292   63.4059   64.3304 H   0  0  0  0  0  0  0  0  0  0  0  0
  -32.5479   65.7836   61.7728 H   0  0  0  0  0  0  0  0  0  0  0  0
  2  1  1  0  0  0
  2  4  1  0  0  0
  2  5  1  0  0  0
 41 42  1  0  0  0
 41  1  1  0  0  0
 42 46  1  0  0  0
  1 24  1  0  0  0
 23 24  1  0  0  0
 23 25  1  0  0  0
 24 26  1  0  0  0
  3  4  2  0  0  0
 26 27  2  0  0  0
 27 28  1  0  0  0
 43 47  1  0  0  0
 43 51  1  0  0  0
 28 29  1  0  0  0
 56 48  1  0  0  0
 56 60  1  0  0  0
 29 30  1  0  0  0
 57 60  1  0  0  0
 57 61  1  0  0  0
 30 31  1  0  0  0
 44 49  1  0  0  0
 44 52  1  0  0  0
 31 32  1  0  0  0
 45 46  1  0  0  0
 45 50  1  0  0  0
 32 33  1  0  0  0
 53 54  1  0  0  0
 53 55  1  0  0  0
 33 34  1  0  0  0
 34 35  1  0  0  0
 35 36  1  0  0  0
 58 60  1  0  0  0
 36 37  1  0  0  0
 59 60  1  0  0  0
 59 62  1  0  0  0
 37 38  1  0  0  0
 38 39  1  0  0  0
 39 40  1  0  0  0
  4  6  1  0  0  0
  6  7  1  0  0  0
  7  8  1  0  0  0
  8  9  1  0  0  0
  9 10  1  0  0  0
 10 11  1  0  0  0
 11 12  1  0  0  0
 12 13  1  0  0  0
 13 14  1  0  0  0
 14 15  1  0  0  0
 15 16  1  0  0  0
 16 17  1  0  0  0
 17 18  1  0  0  0
 18 19  1  0  0  0
 19 20  1  0  0  0
 20 21  1  0  0  0
 21 22  1  0  0  0
 46 47  1  0  0  0
 47 48  1  0  0  0
 48 49  1  0  0  0
 49 50  1  0  0  0
 50 54  1  0  0  0
M  CHG 1  58  -1
M  END
> <minimizedAffinity>
-9.05428

> <CNNscore>
0.1953364462

> <CNNaffinity>
7.1363310814

> <CNN_VS>
1.3939855099

> <CNNaffinity_variance>
1.4772195816

$$$$
/media/chris/experiments/cd1a-new-docking/inputs/ligands/1onq_ligand.pdb


 62 62  0  0  0  0  0  0  0  0999 V2000
  -40.5742   59.9804   63.5847 C   0  0  0  0  0  0  0  0  0  0  0  0
  -42.0187   60.0805   63.6529 N   0  0  0  0  0  0  0  0  0  0  0  0
  -42.3063   61.9520   64.9027 O   0  0  0  0  0  0  0  0  0  0  0  0
  -42.7540   61.0118   64.2753 C   0  0  0  0  0  0  0  0  0  0  0  0
  -42.5221   59.3766   63.1834 H   0  0  0  0  0  0  0  0  0  0  0  0
  -44.2389   60.8398   64.1514 C   0  0  0  0  0  0  0  0  0  0  0  0
  -44.5101   59.3380   64.2411 C   0  0  0  0  0  0  0  0  0  0  0  0
  -45.9864   59.0917   64.5428 C   0  0  0  0  0  0  0  0  0  0  0  0
  -46.2907   58.4120   65.8558 C   0  0  0  0  0  0  0  0  0  0  0  0
  -47.1084   59.3842   66.6995 C   0  0  0  0  0  0  0  0  0  0  0  0
  -48.1127   60.1924   65.8669 C   0  0  0  0  0  0  0  0  0  0  0  0
  -49.5543   59.6541   65.9181 C   0  0  0  0  0  0  0  0  0  0  0  0
  -50.3473   59.9373   64.6233 C   0  0  0  0  0  0  0  0  0  0  0  0
  -50.4576   58.6707   63.7697 C   0  0  0  0  0  0  0  0  0  0  0  0
  -50.8120   58.9078   62.3067 C   0  0  0  0  0  0  0  0  0  0  0  0
  -49.7352   59.6923   61.5717 C   0  0  0  0  0  0  0  0  0  0  0  0
  -49.4866   59.2891   60.1164 C   0  0  0  0  0  0  0  0  0  0  0  0
  -50.0522   57.8909   59.9070 C   0  0  0  0  0  0  0  0  0  0  0  0
  -49.0942   56.7087   59.9099 C   0  0  0  0  0  0  0  0  0  0  0  0
  -47.7032   57.1270   59.4075 C   0  0  0  0  0  0  0  0  0  0  0  0
  -47.4941   56.9568   57.8915 C   0  0  0  0  0  0  0  0  0  0  0  0
  -46.9844   58.2226   57.2063 C   0  0  0  0  0  0  0  0  0  0  0  0
  -39.7534   60.7555   65.6148 O   0  0  0  0  0  0  0  0  0  0  0  0
  -40.2042   59.5639   64.9979 C   0  0  0  0  0  0  0  0  0  0  0  0
  -40.4743   61.4044   65.6300 H   0  0  0  0  0  0  0  0  0  0  0  0
  -39.1108   58.4945   64.9414 C   0  0  0  0  0  0  0  0  0  0  0  0
  -37.8322   58.7366   65.2774 C   0  0  0  0  0  0  0  0  0  0  0  0
  -36.7986   57.6151   65.1932 C   0  0  0  0  0  0  0  0  0  0  0  0
  -35.5516   57.9792   64.3741 C   0  0  0  0  0  0  0  0  0  0  0  0
  -35.8205   58.6213   63.0007 C   0  0  0  0  0  0  0  0  0  0  0  0
  -36.5626   57.6338   62.0683 C   0  0  0  0  0  0  0  0  0  0  0  0
  -37.9692   58.0907   61.6054 C   0  0  0  0  0  0  0  0  0  0  0  0
  -38.0077   58.6668   60.1703 C   0  0  0  0  0  0  0  0  0  0  0  0
  -39.3644   59.3019   59.7960 C   0  0  0  0  0  0  0  0  0  0  0  0
  -40.3990   58.2923   59.2847 C   0  0  0  0  0  0  0  0  0  0  0  0
  -41.3979   57.7735   60.3169 C   0  0  0  0  0  0  0  0  0  0  0  0
  -41.2383   56.2758   60.6448 C   0  0  0  0  0  0  0  0  0  0  0  0
  -40.9693   55.9541   62.1226 C   0  0  0  0  0  0  0  0  0  0  0  0
  -41.9850   56.6527   63.0311 C   0  0  0  0  0  0  0  0  0  0  0  0
  -41.9583   56.2633   64.4986 C   0  0  0  0  0  0  0  0  0  0  0  0
  -39.8479   61.2156   63.0053 C   0  0  0  0  0  0  0  0  0  0  0  0
  -38.4049   61.2448   63.1474 O   0  0  0  0  0  0  0  0  0  0  0  0
  -37.6316   62.4798   65.6079 O   0  0  0  0  0  0  0  0  0  0  0  0
  -34.1641   63.3683   63.4664 O   0  0  0  0  0  0  0  0  0  0  0  0
  -36.8115   62.7657   62.1308 O   0  0  0  0  0  0  0  0  0  0  0  0
  -37.6735   62.5217   63.2687 C   0  0  0  0  0  0  0  0  0  0  0  0
  -36.7895   62.6782   64.5145 C   0  0  0  0  0  0  0  0  0  0  0  0
  -36.1448   64.0755   64.6460 C   0  0  0  0  0  0  0  0  0  0  0  0
  -35.2793   64.2554   63.4295 C   0  0  0  0  0  0  0  0  0  0  0  0
  -36.1044   64.0344   62.1747 C   0  0  0  0  0  0  0  0  0  0  0  0
  -38.0462   61.6053   65.5421 H   0  0  0  0  0  0  0  0  0  0  0  0
  -33.6517   63.5264   64.2747 H   0  0  0  0  0  0  0  0  0  0  0  0
  -34.1971   65.2834   61.4567 O   0  0  0  0  0  0  0  0  0  0  0  0
  -35.0569   64.2486   61.0843 C   0  0  0  0  0  0  0  0  0  0  0  0
  -33.5329   65.4175   60.7626 H   0  0  0  0  0  0  0  0  0  0  0  0
  -35.2791   64.2697   65.7874 O   0  0  0  0  0  0  0  0  0  0  0  0
  -33.6487   63.4051   67.6072 O   0  0  0  0  0  0  0  0  0  0  0  0
  -34.6322   61.8367   66.0381 O   0  0  0  0  0  0  0  0  0  0  0  0
  -35.9652   62.7535   67.8428 O   0  0  0  0  0  0  0  0  0  0  0  0
  -34.8897   63.0533   66.8554 S   0  0  0  0  0  0  0  0  0  0  0  0
  -32.9362   63.6039   66.9798 H   0  0  0  0  0  0  0  0  0  0  0  0
  -36.1396   63.5419   68.3804 H   0  0  0  0  0  0  0  0  0  0  0  0
  2  1  1  0  0  0
  2  4  1  0  0  0
  2  5  1  0  0  0
 41 42  1  0  0  0
 41  1  1  0  0  0
 42 46  1  0  0  0
  1 24  1  0  0  0
 23 24  1  0  0  0
 23 25  1  0  0  0
 24 26  1  0  0  0
  3  4  2  0  0  0
 26 27  2  0  0  0
 27 28  1  0  0  0
 43 47  1  0  0  0
 43 51  1  0  0  0
 28 29  1  0  0  0
 56 48  1  0  0  0
 56 60  1  0  0  0
 29 30  1  0  0  0
 57 60  1  0  0  0
 57 61  1  0  0  0
 30 31  1  0  0  0
 44 49  1  0  0  0
 44 52  1  0  0  0
 31 32  1  0  0  0
 45 46  1  0  0  0
 45 50  1  0  0  0
 32 33  1  0  0  0
 53 54  1  0  0  0
 53 55  1  0  0  0
 33 34  1  0  0  0
 34 35  1  0  0  0
 35 36  1  0  0  0
 58 60  1  0  0  0
 36 37  1  0  0  0
 59 60  1  0  0  0
 59 62  1  0  0  0
 37 38  1  0  0  0
 38 39  1  0  0  0
 39 40  1  0  0  0
  4  6  1  0  0  0
  6  7  1  0  0  0
  7  8  1  0  0  0
  8  9  1  0  0  0
  9 10  1  0  0  0
 10 11  1  0  0  0
 11 12  1  0  0  0
 12 13  1  0  0  0
 13 14  1  0  0  0
 14 15  1  0  0  0
 15 16  1  0  0  0
 16 17  1  0  0  0
 17 18  1  0  0  0
 18 19  1  0  0  0
 19 20  1  0  0  0
 20 21  1  0  0  0
 21 22  1  0  0  0
 46 47  1  0  0  0
 47 48  1  0  0  0
 48 49  1  0  0  0
 49 50  1  0  0  0
 50 54  1  0  0  0
M  CHG 1  58  -1
M  END
> <minimizedAffinity>
-9.69713

> <CNNscore>
0.1907785684

> <CNNaffinity>
7.1229567528

> <CNN_VS>
1.3589074612

> <CNNaffinity_variance>
1.5092493296

$$$$
/media/chris/experiments/cd1a-new-docking/inputs/ligands/1onq_ligand.pdb


 62 62  0  0  0  0  0  0  0  0999 V2000
  -40.9968   61.2832   62.7861 C   0  0  0  0  0  0  0  0  0  0  0  0
  -41.9491   60.3519   63.3579 N   0  0  0  0  0  0  0  0  0  0  0  0
  -42.7235   61.5060   65.1511 O   0  0  0  0  0  0  0  0  0  0  0  0
  -42.7119   60.5147   64.4475 C   0  0  0  0  0  0  0  0  0  0  0  0
  -42.0476   59.4929   62.8872 H   0  0  0  0  0  0  0  0  0  0  0  0
  -43.6088   59.3584   64.7766 C   0  0  0  0  0  0  0  0  0  0  0  0
  -44.6135   59.8697   65.8092 C   0  0  0  0  0  0  0  0  0  0  0  0
  -45.6260   58.7752   66.1382 C   0  0  0  0  0  0  0  0  0  0  0  0
  -46.9217   59.2356   66.7607 C   0  0  0  0  0  0  0  0  0  0  0  0
  -47.5277   60.2883   65.8386 C   0  0  0  0  0  0  0  0  0  0  0  0
  -48.3436   59.6745   64.6930 C   0  0  0  0  0  0  0  0  0  0  0  0
  -49.7760   59.2677   65.0845 C   0  0  0  0  0  0  0  0  0  0  0  0
  -50.8488   60.2166   64.5066 C   0  0  0  0  0  0  0  0  0  0  0  0
  -51.1190   59.8934   63.0343 C   0  0  0  0  0  0  0  0  0  0  0  0
  -51.0098   58.4184   62.6673 C   0  0  0  0  0  0  0  0  0  0  0  0
  -50.0201   58.1764   61.5372 C   0  0  0  0  0  0  0  0  0  0  0  0
  -50.6266   57.9621   60.1485 C   0  0  0  0  0  0  0  0  0  0  0  0
  -49.4885   57.8752   59.1406 C   0  0  0  0  0  0  0  0  0  0  0  0
  -48.1091   57.4615   59.6320 C   0  0  0  0  0  0  0  0  0  0  0  0
  -47.4182   56.5372   58.6170 C   0  0  0  0  0  0  0  0  0  0  0  0
  -47.4038   57.0718   57.1730 C   0  0  0  0  0  0  0  0  0  0  0  0
  -46.7183   58.4296   57.0386 C   0  0  0  0  0  0  0  0  0  0  0  0
  -42.5876   61.9752   61.2413 O   0  0  0  0  0  0  0  0  0  0  0  0
  -41.3634   61.2681   61.3120 C   0  0  0  0  0  0  0  0  0  0  0  0
  -42.4534   62.8855   61.5483 H   0  0  0  0  0  0  0  0  0  0  0  0
  -41.5063   59.8192   60.8400 C   0  0  0  0  0  0  0  0  0  0  0  0
  -40.7816   59.3028   59.8327 C   0  0  0  0  0  0  0  0  0  0  0  0
  -40.9836   57.8461   59.4198 C   0  0  0  0  0  0  0  0  0  0  0  0
  -40.5027   56.8308   60.4669 C   0  0  0  0  0  0  0  0  0  0  0  0
  -41.5802   56.3134   61.4376 C   0  0  0  0  0  0  0  0  0  0  0  0
  -41.2261   56.6820   62.8985 C   0  0  0  0  0  0  0  0  0  0  0  0
  -39.8945   57.4531   63.0824 C   0  0  0  0  0  0  0  0  0  0  0  0
  -39.5778   57.8295   64.5489 C   0  0  0  0  0  0  0  0  0  0  0  0
  -38.0983   58.2032   64.7848 C   0  0  0  0  0  0  0  0  0  0  0  0
  -37.2274   58.1016   63.5269 C   0  0  0  0  0  0  0  0  0  0  0  0
  -35.7768   57.6775   63.7470 C   0  0  0  0  0  0  0  0  0  0  0  0
  -34.8186   58.1172   62.6225 C   0  0  0  0  0  0  0  0  0  0  0  0
  -33.5797   58.8982   63.0862 C   0  0  0  0  0  0  0  0  0  0  0  0
  -33.6540   59.2086   64.5839 C   0  0  0  0  0  0  0  0  0  0  0  0
  -32.9261   58.2495   65.5092 C   0  0  0  0  0  0  0  0  0  0  0  0
  -39.5154   61.0234   63.1424 C   0  0  0  0  0  0  0  0  0  0  0  0
  -38.9295   61.8881   64.1485 O   0  0  0  0  0  0  0  0  0  0  0  0
  -37.0069   62.4742   62.1145 O   0  0  0  0  0  0  0  0  0  0  0  0
  -35.1828   64.6217   65.1902 O   0  0  0  0  0  0  0  0  0  0  0  0
  -37.1182   62.3512   65.6945 O   0  0  0  0  0  0  0  0  0  0  0  0
  -37.4678   61.9495   64.3477 C   0  0  0  0  0  0  0  0  0  0  0  0
  -36.6968   62.8888   63.4091 C   0  0  0  0  0  0  0  0  0  0  0  0
  -35.1640   62.8215   63.5859 C   0  0  0  0  0  0  0  0  0  0  0  0
  -34.8855   63.2402   65.0032 C   0  0  0  0  0  0  0  0  0  0  0  0
  -35.6899   62.3798   65.9606 C   0  0  0  0  0  0  0  0  0  0  0  0
  -37.9675   62.5101   61.9849 H   0  0  0  0  0  0  0  0  0  0  0  0
  -34.6589   65.1522   64.5696 H   0  0  0  0  0  0  0  0  0  0  0  0
  -33.8885   63.0931   67.3603 O   0  0  0  0  0  0  0  0  0  0  0  0
  -35.2776   62.9648   67.3096 C   0  0  0  0  0  0  0  0  0  0  0  0
  -33.6292   63.4647   68.2180 H   0  0  0  0  0  0  0  0  0  0  0  0
  -34.3890   63.7066   62.7458 O   0  0  0  0  0  0  0  0  0  0  0  0
  -31.8643   63.6843   63.3310 O   0  0  0  0  0  0  0  0  0  0  0  0
  -32.5656   64.2442   61.0763 O   0  0  0  0  0  0  0  0  0  0  0  0
  -32.6368   61.9450   61.8397 O   0  0  0  0  0  0  0  0  0  0  0  0
  -32.8382   63.3650   62.2455 S   0  0  0  0  0  0  0  0  0  0  0  0
  -31.9807   64.6064   63.6087 H   0  0  0  0  0  0  0  0  0  0  0  0
  -32.8125   61.3643   62.5966 H   0  0  0  0  0  0  0  0  0  0  0  0
  2  1  1  0  0  0
  2  4  1  0  0  0
  2  5  1  0  0  0
 41 42  1  0  0  0
 41  1  1  0  0  0
 42 46  1  0  0  0
  1 24  1  0  0  0
 23 24  1  0  0  0
 23 25  1  0  0  0
 24 26  1  0  0  0
  3  4  2  0  0  0
 26 27  2  0  0  0
 27 28  1  0  0  0
 43 47  1  0  0  0
 43 51  1  0  0  0
 28 29  1  0  0  0
 56 48  1  0  0  0
 56 60  1  0  0  0
 29 30  1  0  0  0
 57 60  1  0  0  0
 57 61  1  0  0  0
 30 31  1  0  0  0
 44 49  1  0  0  0
 44 52  1  0  0  0
 31 32  1  0  0  0
 45 46  1  0  0  0
 45 50  1  0  0  0
 32 33  1  0  0  0
 53 54  1  0  0  0
 53 55  1  0  0  0
 33 34  1  0  0  0
 34 35  1  0  0  0
 35 36  1  0  0  0
 58 60  1  0  0  0
 36 37  1  0  0  0
 59 60  1  0  0  0
 59 62  1  0  0  0
 37 38  1  0  0  0
 38 39  1  0  0  0
 39 40  1  0  0  0
  4  6  1  0  0  0
  6  7  1  0  0  0
  7  8  1  0  0  0
  8  9  1  0  0  0
  9 10  1  0  0  0
 10 11  1  0  0  0
 11 12  1  0  0  0
 12 13  1  0  0  0
 13 14  1  0  0  0
 14 15  1  0  0  0
 15 16  1  0  0  0
 16 17  1  0  0  0
 17 18  1  0  0  0
 18 19  1  0  0  0
 19 20  1  0  0  0
 20 21  1  0  0  0
 21 22  1  0  0  0
 46 47  1  0  0  0
 47 48  1  0  0  0
 48 49  1  0  0  0
 49 50  1  0  0  0
 50 54  1  0  0  0
M  CHG 1  58  -1
M  END
> <minimizedAffinity>
-8.97127

> <CNNscore>
0.1623114347

> <CNNaffinity>
7.1169915199

> <CNN_VS>
1.1551691294

> <CNNaffinity_variance>
1.2854535580

$$$$
/media/chris/experiments/cd1a-new-docking/inputs/ligands/1onq_ligand.pdb


 62 62  0  0  0  0  0  0  0  0999 V2000
  -38.8701   61.3838   62.2878 C   0  0  0  0  0  0  0  0  0  0  0  0
  -39.9214   60.9485   63.1858 N   0  0  0  0  0  0  0  0  0  0  0  0
  -39.0096   61.3648   65.2212 O   0  0  0  0  0  0  0  0  0  0  0  0
  -39.9235   60.9661   64.5257 C   0  0  0  0  0  0  0  0  0  0  0  0
  -40.7350   60.5961   62.7581 H   0  0  0  0  0  0  0  0  0  0  0  0
  -41.1770   60.4507   65.1683 C   0  0  0  0  0  0  0  0  0  0  0  0
  -42.3068   60.6882   64.1662 C   0  0  0  0  0  0  0  0  0  0  0  0
  -43.4740   59.7501   64.4641 C   0  0  0  0  0  0  0  0  0  0  0  0
  -44.8149   60.4082   64.6819 C   0  0  0  0  0  0  0  0  0  0  0  0
  -45.3591   59.9145   66.0182 C   0  0  0  0  0  0  0  0  0  0  0  0
  -46.8890   60.0000   66.1037 C   0  0  0  0  0  0  0  0  0  0  0  0
  -47.5931   60.1104   64.7389 C   0  0  0  0  0  0  0  0  0  0  0  0
  -49.0821   59.7043   64.7970 C   0  0  0  0  0  0  0  0  0  0  0  0
  -49.9519   60.7363   64.0735 C   0  0  0  0  0  0  0  0  0  0  0  0
  -50.7094   60.2057   62.8624 C   0  0  0  0  0  0  0  0  0  0  0  0
  -51.0486   58.7284   62.9953 C   0  0  0  0  0  0  0  0  0  0  0  0
  -51.0456   57.9197   61.6960 C   0  0  0  0  0  0  0  0  0  0  0  0
  -49.9895   58.5095   60.7711 C   0  0  0  0  0  0  0  0  0  0  0  0
  -48.9586   57.5767   60.1527 C   0  0  0  0  0  0  0  0  0  0  0  0
  -48.6516   57.9809   58.7020 C   0  0  0  0  0  0  0  0  0  0  0  0
  -47.2478   57.5814   58.2113 C   0  0  0  0  0  0  0  0  0  0  0  0
  -46.7857   58.3753   56.9917 C   0  0  0  0  0  0  0  0  0  0  0  0
  -37.7849   60.5361   60.4171 O   0  0  0  0  0  0  0  0  0  0  0  0
  -38.5128   60.1040   61.5516 C   0  0  0  0  0  0  0  0  0  0  0  0
  -36.9816   60.9976   60.7048 H   0  0  0  0  0  0  0  0  0  0  0  0
  -39.7967   59.3655   61.1661 C   0  0  0  0  0  0  0  0  0  0  0  0
  -39.8326   58.3973   60.2347 C   0  0  0  0  0  0  0  0  0  0  0  0
  -41.1552   57.7078   59.9055 C   0  0  0  0  0  0  0  0  0  0  0  0
  -41.5525   56.6141   60.9076 C   0  0  0  0  0  0  0  0  0  0  0  0
  -42.1007   57.1138   62.2570 C   0  0  0  0  0  0  0  0  0  0  0  0
  -41.4217   56.3729   63.4341 C   0  0  0  0  0  0  0  0  0  0  0  0
  -40.5739   57.2644   64.3763 C   0  0  0  0  0  0  0  0  0  0  0  0
  -39.1331   57.5236   63.8765 C   0  0  0  0  0  0  0  0  0  0  0  0
  -38.1445   57.8892   65.0049 C   0  0  0  0  0  0  0  0  0  0  0  0
  -36.8095   58.4490   64.4991 C   0  0  0  0  0  0  0  0  0  0  0  0
  -36.3438   57.9447   63.1348 C   0  0  0  0  0  0  0  0  0  0  0  0
  -34.8768   57.4719   63.1096 C   0  0  0  0  0  0  0  0  0  0  0  0
  -33.8753   58.4760   62.5192 C   0  0  0  0  0  0  0  0  0  0  0  0
  -32.7528   58.7829   63.5147 C   0  0  0  0  0  0  0  0  0  0  0  0
  -33.0926   58.6227   64.9860 C   0  0  0  0  0  0  0  0  0  0  0  0
  -37.7083   62.1594   62.9493 C   0  0  0  0  0  0  0  0  0  0  0  0
  -36.4048   61.5243   62.9191 O   0  0  0  0  0  0  0  0  0  0  0  0
  -33.6590   62.1304   62.3993 O   0  0  0  0  0  0  0  0  0  0  0  0
  -34.2217   64.8727   65.4915 O   0  0  0  0  0  0  0  0  0  0  0  0
  -35.9638   62.4256   65.1279 O   0  0  0  0  0  0  0  0  0  0  0  0
  -35.3862   61.8183   63.9467 C   0  0  0  0  0  0  0  0  0  0  0  0
  -34.2356   62.7384   63.5137 C   0  0  0  0  0  0  0  0  0  0  0  0
  -33.1425   62.9134   64.5906 C   0  0  0  0  0  0  0  0  0  0  0  0
  -33.8201   63.5357   65.7802 C   0  0  0  0  0  0  0  0  0  0  0  0
  -35.0116   62.6907   66.1930 C   0  0  0  0  0  0  0  0  0  0  0  0
  -34.3322   62.0121   61.7110 H   0  0  0  0  0  0  0  0  0  0  0  0
  -33.4464   65.3940   65.2304 H   0  0  0  0  0  0  0  0  0  0  0  0
  -36.5831   64.3225   66.9553 O   0  0  0  0  0  0  0  0  0  0  0  0
  -35.5484   63.4873   67.3802 C   0  0  0  0  0  0  0  0  0  0  0  0
  -36.9223   64.8273   67.7110 H   0  0  0  0  0  0  0  0  0  0  0  0
  -32.0478   63.7926   64.2462 O   0  0  0  0  0  0  0  0  0  0  0  0
  -33.4669   65.2995   62.6865 O   0  0  0  0  0  0  0  0  0  0  0  0
  -31.6288   64.0134   61.7609 O   0  0  0  0  0  0  0  0  0  0  0  0
  -31.1860   66.0014   63.0746 O   0  0  0  0  0  0  0  0  0  0  0  0
  -32.0764   64.8147   62.9322 S   0  0  0  0  0  0  0  0  0  0  0  0
  -34.0621   64.5395   62.5911 H   0  0  0  0  0  0  0  0  0  0  0  0
  -31.4708   66.5300   63.8365 H   0  0  0  0  0  0  0  0  0  0  0  0
  2  1  1  0  0  0
  2  4  1  0  0  0
  2  5  1  0  0  0
 41 42  1  0  0  0
 41  1  1  0  0  0
 42 46  1  0  0  0
  1 24  1  0  0  0
 23 24  1  0  0  0
 23 25  1  0  0  0
 24 26  1  0  0  0
  3  4  2  0  0  0
 26 27  2  0  0  0
 27 28  1  0  0  0
 43 47  1  0  0  0
 43 51  1  0  0  0
 28 29  1  0  0  0
 56 48  1  0  0  0
 56 60  1  0  0  0
 29 30  1  0  0  0
 57 60  1  0  0  0
 57 61  1  0  0  0
 30 31  1  0  0  0
 44 49  1  0  0  0
 44 52  1  0  0  0
 31 32  1  0  0  0
 45 46  1  0  0  0
 45 50  1  0  0  0
 32 33  1  0  0  0
 53 54  1  0  0  0
 53 55  1  0  0  0
 33 34  1  0  0  0
 34 35  1  0  0  0
 35 36  1  0  0  0
 58 60  1  0  0  0
 36 37  1  0  0  0
 59 60  1  0  0  0
 59 62  1  0  0  0
 37 38  1  0  0  0
 38 39  1  0  0  0
 39 40  1  0  0  0
  4  6  1  0  0  0
  6  7  1  0  0  0
  7  8  1  0  0  0
  8  9  1  0  0  0
  9 10  1  0  0  0
 10 11  1  0  0  0
 11 12  1  0  0  0
 12 13  1  0  0  0
 13 14  1  0  0  0
 14 15  1  0  0  0
 15 16  1  0  0  0
 16 17  1  0  0  0
 17 18  1  0  0  0
 18 19  1  0  0  0
 19 20  1  0  0  0
 20 21  1  0  0  0
 21 22  1  0  0  0
 46 47  1  0  0  0
 47 48  1  0  0  0
 48 49  1  0  0  0
 49 50  1  0  0  0
 50 54  1  0  0  0
M  CHG 1  58  -1
M  END
> <minimizedAffinity>
-8.57123

> <CNNscore>
0.1565240920

> <CNNaffinity>
7.0208768845

> <CNN_VS>
1.0989364386

> <CNNaffinity_variance>
0.8188001513

$$$$
/media/chris/experiments/cd1a-new-docking/inputs/ligands/1onq_ligand.pdb


 62 62  0  0  0  0  0  0  0  0999 V2000
  -40.4546   59.4557   65.2137 C   0  0  0  0  0  0  0  0  0  0  0  0
  -41.0292   59.4086   63.8838 N   0  0  0  0  0  0  0  0  0  0  0  0
  -41.0587   57.1803   63.4581 O   0  0  0  0  0  0  0  0  0  0  0  0
  -41.2813   58.3296   63.1303 C   0  0  0  0  0  0  0  0  0  0  0  0
  -41.2633   60.2774   63.4845 H   0  0  0  0  0  0  0  0  0  0  0  0
  -41.8928   58.6159   61.7909 C   0  0  0  0  0  0  0  0  0  0  0  0
  -41.2798   57.6146   60.8118 C   0  0  0  0  0  0  0  0  0  0  0  0
  -41.1509   58.2491   59.4291 C   0  0  0  0  0  0  0  0  0  0  0  0
  -39.7901   58.1593   58.7823 C   0  0  0  0  0  0  0  0  0  0  0  0
  -38.9275   59.2731   59.3664 C   0  0  0  0  0  0  0  0  0  0  0  0
  -37.7036   58.7404   60.1235 C   0  0  0  0  0  0  0  0  0  0  0  0
  -37.8350   58.7964   61.6565 C   0  0  0  0  0  0  0  0  0  0  0  0
  -37.6032   57.4256   62.3294 C   0  0  0  0  0  0  0  0  0  0  0  0
  -36.5887   57.5487   63.4699 C   0  0  0  0  0  0  0  0  0  0  0  0
  -35.1379   57.7003   63.0289 C   0  0  0  0  0  0  0  0  0  0  0  0
  -34.4984   58.9688   63.5740 C   0  0  0  0  0  0  0  0  0  0  0  0
  -33.1521   58.7916   64.2799 C   0  0  0  0  0  0  0  0  0  0  0  0
  -32.0483   58.9239   63.2393 C   0  0  0  0  0  0  0  0  0  0  0  0
  -32.2695   59.8539   62.0556 C   0  0  0  0  0  0  0  0  0  0  0  0
  -31.0506   60.7640   61.8360 C   0  0  0  0  0  0  0  0  0  0  0  0
  -31.2989   62.2507   62.1506 C   0  0  0  0  0  0  0  0  0  0  0  0
  -32.6392   62.5075   62.8355 C   0  0  0  0  0  0  0  0  0  0  0  0
  -42.0190   58.2862   66.4712 O   0  0  0  0  0  0  0  0  0  0  0  0
  -41.6799   59.6090   66.0984 C   0  0  0  0  0  0  0  0  0  0  0  0
  -41.2864   57.8934   66.9712 H   0  0  0  0  0  0  0  0  0  0  0  0
  -42.7974   60.2885   65.3033 C   0  0  0  0  0  0  0  0  0  0  0  0
  -44.0906   60.2337   65.6652 C   0  0  0  0  0  0  0  0  0  0  0  0
  -45.1478   60.9382   64.8172 C   0  0  0  0  0  0  0  0  0  0  0  0
  -46.4141   60.1020   64.5815 C   0  0  0  0  0  0  0  0  0  0  0  0
  -47.2306   59.7593   65.8413 C   0  0  0  0  0  0  0  0  0  0  0  0
  -48.7479   59.7916   65.5381 C   0  0  0  0  0  0  0  0  0  0  0  0
  -49.1867   60.8196   64.4648 C   0  0  0  0  0  0  0  0  0  0  0  0
  -50.3820   60.3591   63.5977 C   0  0  0  0  0  0  0  0  0  0  0  0
  -50.4966   58.8246   63.4690 C   0  0  0  0  0  0  0  0  0  0  0  0
  -50.8862   58.3500   62.0640 C   0  0  0  0  0  0  0  0  0  0  0  0
  -49.8522   58.5854   60.9650 C   0  0  0  0  0  0  0  0  0  0  0  0
  -49.5854   57.3507   60.0816 C   0  0  0  0  0  0  0  0  0  0  0  0
  -49.2499   57.6558   58.6140 C   0  0  0  0  0  0  0  0  0  0  0  0
  -47.8451   58.2515   58.4834 C   0  0  0  0  0  0  0  0  0  0  0  0
  -47.1493   58.0538   57.1483 C   0  0  0  0  0  0  0  0  0  0  0  0
  -39.3153   60.4814   65.4107 C   0  0  0  0  0  0  0  0  0  0  0  0
  -38.0863   60.2330   64.6818 O   0  0  0  0  0  0  0  0  0  0  0  0
  -37.5711   62.1649   62.6374 O   0  0  0  0  0  0  0  0  0  0  0  0
  -36.6709   64.6046   65.8988 O   0  0  0  0  0  0  0  0  0  0  0  0
  -36.5931   61.5829   66.0359 O   0  0  0  0  0  0  0  0  0  0  0  0
  -36.9802   61.2110   64.6908 C   0  0  0  0  0  0  0  0  0  0  0  0
  -37.2356   62.5267   63.9415 C   0  0  0  0  0  0  0  0  0  0  0  0
  -36.0044   63.4575   63.8851 C   0  0  0  0  0  0  0  0  0  0  0  0
  -35.6612   63.7875   65.3115 C   0  0  0  0  0  0  0  0  0  0  0  0
  -35.4736   62.5068   66.1044 C   0  0  0  0  0  0  0  0  0  0  0  0
  -38.3439   61.5789   62.6532 H   0  0  0  0  0  0  0  0  0  0  0  0
  -36.7742   65.4160   65.3773 H   0  0  0  0  0  0  0  0  0  0  0  0
  -36.2364   62.8472   68.3439 O   0  0  0  0  0  0  0  0  0  0  0  0
  -35.1505   63.0565   67.4919 C   0  0  0  0  0  0  0  0  0  0  0  0
  -36.0288   63.1972   69.2244 H   0  0  0  0  0  0  0  0  0  0  0  0
  -36.1967   64.7238   63.2148 O   0  0  0  0  0  0  0  0  0  0  0  0
  -34.2285   65.4628   61.6990 O   0  0  0  0  0  0  0  0  0  0  0  0
  -36.4899   66.1448   61.1421 O   0  0  0  0  0  0  0  0  0  0  0  0
  -35.7733   63.8629   60.7502 O   0  0  0  0  0  0  0  0  0  0  0  0
  -35.6571   65.0301   61.6697 S   0  0  0  0  0  0  0  0  0  0  0  0
  -34.1332   66.2231   62.2937 H   0  0  0  0  0  0  0  0  0  0  0  0
  -35.2330   63.1309   61.0869 H   0  0  0  0  0  0  0  0  0  0  0  0
  2  1  1  0  0  0
  2  4  1  0  0  0
  2  5  1  0  0  0
 41 42  1  0  0  0
 41  1  1  0  0  0
 42 46  1  0  0  0
  1 24  1  0  0  0
 23 24  1  0  0  0
 23 25  1  0  0  0
 24 26  1  0  0  0
  3  4  2  0  0  0
 26 27  2  0  0  0
 27 28  1  0  0  0
 43 47  1  0  0  0
 43 51  1  0  0  0
 28 29  1  0  0  0
 56 48  1  0  0  0
 56 60  1  0  0  0
 29 30  1  0  0  0
 57 60  1  0  0  0
 57 61  1  0  0  0
 30 31  1  0  0  0
 44 49  1  0  0  0
 44 52  1  0  0  0
 31 32  1  0  0  0
 45 46  1  0  0  0
 45 50  1  0  0  0
 32 33  1  0  0  0
 53 54  1  0  0  0
 53 55  1  0  0  0
 33 34  1  0  0  0
 34 35  1  0  0  0
 35 36  1  0  0  0
 58 60  1  0  0  0
 36 37  1  0  0  0
 59 60  1  0  0  0
 59 62  1  0  0  0
 37 38  1  0  0  0
 38 39  1  0  0  0
 39 40  1  0  0  0
  4  6  1  0  0  0
  6  7  1  0  0  0
  7  8  1  0  0  0
  8  9  1  0  0  0
  9 10  1  0  0  0
 10 11  1  0  0  0
 11 12  1  0  0  0
 12 13  1  0  0  0
 13 14  1  0  0  0
 14 15  1  0  0  0
 15 16  1  0  0  0
 16 17  1  0  0  0
 17 18  1  0  0  0
 18 19  1  0  0  0
 19 20  1  0  0  0
 20 21  1  0  0  0
 21 22  1  0  0  0
 46 47  1  0  0  0
 47 48  1  0  0  0
 48 49  1  0  0  0
 49 50  1  0  0  0
 50 54  1  0  0  0
M  CHG 1  58  -1
M  END
> <minimizedAffinity>
-9.08792

> <CNNscore>
0.1532326192

> <CNNaffinity>
6.7737731934

> <CNN_VS>
1.0379630327

> <CNNaffinity_variance>
1.6898742914

$$$$
/media/chris/experiments/cd1a-new-docking/inputs/ligands/1onq_ligand.pdb


 62 62  0  0  0  0  0  0  0  0999 V2000
  -41.3089   60.0914   66.2632 C   0  0  0  0  0  0  0  0  0  0  0  0
  -42.2573   59.2229   65.5945 N   0  0  0  0  0  0  0  0  0  0  0  0
  -42.4998   57.5394   67.0960 O   0  0  0  0  0  0  0  0  0  0  0  0
  -42.7657   58.0625   66.0313 C   0  0  0  0  0  0  0  0  0  0  0  0
  -42.5665   59.5228   64.7093 H   0  0  0  0  0  0  0  0  0  0  0  0
  -43.7392   57.4022   65.1007 C   0  0  0  0  0  0  0  0  0  0  0  0
  -45.1342   57.8228   65.5632 C   0  0  0  0  0  0  0  0  0  0  0  0
  -45.5836   59.0667   64.8003 C   0  0  0  0  0  0  0  0  0  0  0  0
  -47.0041   59.0547   64.2899 C   0  0  0  0  0  0  0  0  0  0  0  0
  -47.7710   60.1420   65.0350 C   0  0  0  0  0  0  0  0  0  0  0  0
  -48.7799   59.5727   66.0413 C   0  0  0  0  0  0  0  0  0  0  0  0
  -50.2215   59.4817   65.5084 C   0  0  0  0  0  0  0  0  0  0  0  0
  -50.5315   60.5440   64.4309 C   0  0  0  0  0  0  0  0  0  0  0  0
  -51.1025   59.8853   63.1719 C   0  0  0  0  0  0  0  0  0  0  0  0
  -50.6329   58.4574   62.9216 C   0  0  0  0  0  0  0  0  0  0  0  0
  -49.5621   58.3824   61.8432 C   0  0  0  0  0  0  0  0  0  0  0  0
  -49.7451   59.3223   60.6494 C   0  0  0  0  0  0  0  0  0  0  0  0
  -50.1636   58.4876   59.4465 C   0  0  0  0  0  0  0  0  0  0  0  0
  -49.1586   57.5136   58.8494 C   0  0  0  0  0  0  0  0  0  0  0  0
  -47.8596   58.2354   58.4573 C   0  0  0  0  0  0  0  0  0  0  0  0
  -47.2401   57.7593   57.1305 C   0  0  0  0  0  0  0  0  0  0  0  0
  -47.1134   56.2407   57.0337 C   0  0  0  0  0  0  0  0  0  0  0  0
  -42.8323   61.5205   67.2795 O   0  0  0  0  0  0  0  0  0  0  0  0
  -41.9741   61.4528   66.1558 C   0  0  0  0  0  0  0  0  0  0  0  0
  -42.3058   61.4632   68.0923 H   0  0  0  0  0  0  0  0  0  0  0  0
  -42.7443   61.5380   64.8360 C   0  0  0  0  0  0  0  0  0  0  0  0
  -42.1688   61.8920   63.6742 C   0  0  0  0  0  0  0  0  0  0  0  0
  -43.0067   61.9545   62.3986 C   0  0  0  0  0  0  0  0  0  0  0  0
  -42.2241   61.6089   61.1233 C   0  0  0  0  0  0  0  0  0  0  0  0
  -41.1503   60.5159   61.2757 C   0  0  0  0  0  0  0  0  0  0  0  0
  -40.5542   60.1356   59.8990 C   0  0  0  0  0  0  0  0  0  0  0  0
  -41.1764   58.8831   59.2315 C   0  0  0  0  0  0  0  0  0  0  0  0
  -40.5979   57.5413   59.7394 C   0  0  0  0  0  0  0  0  0  0  0  0
  -41.4092   56.9172   60.8954 C   0  0  0  0  0  0  0  0  0  0  0  0
  -40.5403   56.3606   62.0297 C   0  0  0  0  0  0  0  0  0  0  0  0
  -40.1915   57.3383   63.1499 C   0  0  0  0  0  0  0  0  0  0  0  0
  -38.8995   58.1412   62.9003 C   0  0  0  0  0  0  0  0  0  0  0  0
  -37.7902   57.3820   62.1567 C   0  0  0  0  0  0  0  0  0  0  0  0
  -36.5218   58.2327   62.0445 C   0  0  0  0  0  0  0  0  0  0  0  0
  -35.5811   58.2028   63.2362 C   0  0  0  0  0  0  0  0  0  0  0  0
  -39.8474   59.9849   65.7717 C   0  0  0  0  0  0  0  0  0  0  0  0
  -39.3433   61.0984   64.9911 O   0  0  0  0  0  0  0  0  0  0  0  0
  -37.9256   61.6104   62.5610 O   0  0  0  0  0  0  0  0  0  0  0  0
  -35.9190   64.3947   64.9317 O   0  0  0  0  0  0  0  0  0  0  0  0
  -37.3732   62.0028   66.0803 O   0  0  0  0  0  0  0  0  0  0  0  0
  -37.8952   61.3674   64.8881 C   0  0  0  0  0  0  0  0  0  0  0  0
  -37.4534   62.2459   63.7088 C   0  0  0  0  0  0  0  0  0  0  0  0
  -35.9210   62.3941   63.5855 C   0  0  0  0  0  0  0  0  0  0  0  0
  -35.4581   63.0478   64.8582 C   0  0  0  0  0  0  0  0  0  0  0  0
  -35.9408   62.2454   66.0529 C   0  0  0  0  0  0  0  0  0  0  0  0
  -38.8884   61.5086   62.6208 H   0  0  0  0  0  0  0  0  0  0  0  0
  -35.5996   64.8884   64.1602 H   0  0  0  0  0  0  0  0  0  0  0  0
  -36.4017   63.8510   67.7626 O   0  0  0  0  0  0  0  0  0  0  0  0
  -35.3847   63.0687   67.2127 C   0  0  0  0  0  0  0  0  0  0  0  0
  -36.0460   64.3729   68.4989 H   0  0  0  0  0  0  0  0  0  0  0  0
  -35.4496   63.2343   62.5077 O   0  0  0  0  0  0  0  0  0  0  0  0
  -32.9819   62.5655   62.9329 O   0  0  0  0  0  0  0  0  0  0  0  0
  -33.5943   64.9132   62.8820 O   0  0  0  0  0  0  0  0  0  0  0  0
  -33.4540   63.6449   60.8214 O   0  0  0  0  0  0  0  0  0  0  0  0
  -33.8409   63.5842   62.2596 S   0  0  0  0  0  0  0  0  0  0  0  0
  -33.2198   62.5118   63.8717 H   0  0  0  0  0  0  0  0  0  0  0  0
  -33.6116   62.7819   60.4075 H   0  0  0  0  0  0  0  0  0  0  0  0
  2  1  1  0  0  0
  2  4  1  0  0  0
  2  5  1  0  0  0
 41 42  1  0  0  0
 41  1  1  0  0  0
 42 46  1  0  0  0
  1 24  1  0  0  0
 23 24  1  0  0  0
 23 25  1  0  0  0
 24 26  1  0  0  0
  3  4  2  0  0  0
 26 27  2  0  0  0
 27 28  1  0  0  0
 43 47  1  0  0  0
 43 51  1  0  0  0
 28 29  1  0  0  0
 56 48  1  0  0  0
 56 60  1  0  0  0
 29 30  1  0  0  0
 57 60  1  0  0  0
 57 61  1  0  0  0
 30 31  1  0  0  0
 44 49  1  0  0  0
 44 52  1  0  0  0
 31 32  1  0  0  0
 45 46  1  0  0  0
 45 50  1  0  0  0
 32 33  1  0  0  0
 53 54  1  0  0  0
 53 55  1  0  0  0
 33 34  1  0  0  0
 34 35  1  0  0  0
 35 36  1  0  0  0
 58 60  1  0  0  0
 36 37  1  0  0  0
 59 60  1  0  0  0
 59 62  1  0  0  0
 37 38  1  0  0  0
 38 39  1  0  0  0
 39 40  1  0  0  0
  4  6  1  0  0  0
  6  7  1  0  0  0
  7  8  1  0  0  0
  8  9  1  0  0  0
  9 10  1  0  0  0
 10 11  1  0  0  0
 11 12  1  0  0  0
 12 13  1  0  0  0
 13 14  1  0  0  0
 14 15  1  0  0  0
 15 16  1  0  0  0
 16 17  1  0  0  0
 17 18  1  0  0  0
 18 19  1  0  0  0
 19 20  1  0  0  0
 20 21  1  0  0  0
 21 22  1  0  0  0
 46 47  1  0  0  0
 47 48  1  0  0  0
 48 49  1  0  0  0
 49 50  1  0  0  0
 50 54  1  0  0  0
M  CHG 1  58  -1
M  END
> <minimizedAffinity>
-9.51064

> <CNNscore>
0.1483296156

> <CNNaffinity>
7.0215468407

> <CNN_VS>
1.0415033102

> <CNNaffinity_variance>
2.3015878201

$$$$
