/media/chris/experiments/cd1a-new-docking/inputs/ligands/1onq_ligand.pdb


 62 62  0  0  0  0  0  0  0  0999 V2000
  -41.3519   59.8350   65.2971 C   0  0  0  0  0  0  0  0  0  0  0  0
  -41.5170   59.4009   63.9240 N   0  0  0  0  0  0  0  0  0  0  0  0
  -42.2801   57.2804   64.1849 O   0  0  0  0  0  0  0  0  0  0  0  0
  -41.9482   58.2128   63.4791 C   0  0  0  0  0  0  0  0  0  0  0  0
  -41.2832   60.0612   63.2321 H   0  0  0  0  0  0  0  0  0  0  0  0
  -42.0158   58.0769   61.9869 C   0  0  0  0  0  0  0  0  0  0  0  0
  -41.3413   56.7491   61.6417 C   0  0  0  0  0  0  0  0  0  0  0  0
  -40.9424   56.7343   60.1680 C   0  0  0  0  0  0  0  0  0  0  0  0
  -40.8527   58.0807   59.4914 C   0  0  0  0  0  0  0  0  0  0  0  0
  -39.3763   58.3788   59.2520 C   0  0  0  0  0  0  0  0  0  0  0  0
  -38.7125   59.0820   60.4435 C   0  0  0  0  0  0  0  0  0  0  0  0
  -37.4792   58.3494   61.0029 C   0  0  0  0  0  0  0  0  0  0  0  0
  -37.8249   57.3937   62.1659 C   0  0  0  0  0  0  0  0  0  0  0  0
  -38.0758   58.1808   63.4554 C   0  0  0  0  0  0  0  0  0  0  0  0
  -37.2209   57.7600   64.6445 C   0  0  0  0  0  0  0  0  0  0  0  0
  -35.7350   57.7632   64.3170 C   0  0  0  0  0  0  0  0  0  0  0  0
  -35.0100   59.0983   64.5013 C   0  0  0  0  0  0  0  0  0  0  0  0
  -33.5110   58.8391   64.4324 C   0  0  0  0  0  0  0  0  0  0  0  0
  -32.9301   58.2538   63.1537 C   0  0  0  0  0  0  0  0  0  0  0  0
  -32.4663   59.3667   62.2007 C   0  0  0  0  0  0  0  0  0  0  0  0
  -31.1153   60.0047   62.5735 C   0  0  0  0  0  0  0  0  0  0  0  0
  -30.5143   60.8461   61.4500 C   0  0  0  0  0  0  0  0  0  0  0  0
  -42.0371   61.8044   66.3208 O   0  0  0  0  0  0  0  0  0  0  0  0
  -42.5338   60.7689   65.4933 C   0  0  0  0  0  0  0  0  0  0  0  0
  -41.3141   62.2633   65.8654 H   0  0  0  0  0  0  0  0  0  0  0  0
  -43.6813   60.0022   66.1550 C   0  0  0  0  0  0  0  0  0  0  0  0
  -44.9051   59.9014   65.6088 C   0  0  0  0  0  0  0  0  0  0  0  0
  -45.9988   59.1184   66.3329 C   0  0  0  0  0  0  0  0  0  0  0  0
  -47.3967   59.7414   66.2068 C   0  0  0  0  0  0  0  0  0  0  0  0
  -48.2577   59.2169   65.0429 C   0  0  0  0  0  0  0  0  0  0  0  0
  -49.7607   59.2572   65.4099 C   0  0  0  0  0  0  0  0  0  0  0  0
  -50.7319   59.3852   64.2091 C   0  0  0  0  0  0  0  0  0  0  0  0
  -50.1388   58.9111   62.8614 C   0  0  0  0  0  0  0  0  0  0  0  0
  -50.0389   60.0305   61.8027 C   0  0  0  0  0  0  0  0  0  0  0  0
  -49.4143   59.5746   60.4785 C   0  0  0  0  0  0  0  0  0  0  0  0
  -49.9384   58.2589   59.9070 C   0  0  0  0  0  0  0  0  0  0  0  0
  -48.9860   57.5930   58.8943 C   0  0  0  0  0  0  0  0  0  0  0  0
  -47.9002   58.5121   58.3143 C   0  0  0  0  0  0  0  0  0  0  0  0
  -47.0934   57.7933   57.2293 C   0  0  0  0  0  0  0  0  0  0  0  0
  -47.2315   56.2821   57.1747 C   0  0  0  0  0  0  0  0  0  0  0  0
  -39.9544   60.3884   65.6569 C   0  0  0  0  0  0  0  0  0  0  0  0
  -39.3477   61.2907   64.6972 O   0  0  0  0  0  0  0  0  0  0  0  0
  -37.7474   61.7160   62.3658 O   0  0  0  0  0  0  0  0  0  0  0  0
  -35.8826   64.5431   64.8008 O   0  0  0  0  0  0  0  0  0  0  0  0
  -37.4510   62.2025   65.9041 O   0  0  0  0  0  0  0  0  0  0  0  0
  -37.8923   61.5395   64.6945 C   0  0  0  0  0  0  0  0  0  0  0  0
  -37.3524   62.3784   63.5274 C   0  0  0  0  0  0  0  0  0  0  0  0
  -35.8132   62.5048   63.5141 C   0  0  0  0  0  0  0  0  0  0  0  0
  -35.4365   63.1893   64.7990 C   0  0  0  0  0  0  0  0  0  0  0  0
  -36.0172   62.4273   65.9765 C   0  0  0  0  0  0  0  0  0  0  0  0
  -38.7133   61.6273   62.3568 H   0  0  0  0  0  0  0  0  0  0  0  0
  -35.5004   65.0106   64.0416 H   0  0  0  0  0  0  0  0  0  0  0  0
  -36.3197   63.0083   68.2752 O   0  0  0  0  0  0  0  0  0  0  0  0
  -35.5368   63.2767   67.1510 C   0  0  0  0  0  0  0  0  0  0  0  0
  -36.0126   63.5490   69.0198 H   0  0  0  0  0  0  0  0  0  0  0  0
  -35.2518   63.3081   62.4514 O   0  0  0  0  0  0  0  0  0  0  0  0
  -33.1422   63.5180   60.9605 O   0  0  0  0  0  0  0  0  0  0  0  0
  -32.9175   62.7496   63.2515 O   0  0  0  0  0  0  0  0  0  0  0  0
  -33.3285   65.0925   62.7861 O   0  0  0  0  0  0  0  0  0  0  0  0
  -33.6360   63.6983   62.3579 S   0  0  0  0  0  0  0  0  0  0  0  0
  -33.3339   62.6145   60.6640 H   0  0  0  0  0  0  0  0  0  0  0  0
  -33.7932   65.7181   62.2084 H   0  0  0  0  0  0  0  0  0  0  0  0
  2  1  1  0  0  0
  2  4  1  0  0  0
  2  5  1  0  0  0
 41 42  1  0  0  0
 41  1  1  0  0  0
 42 46  1  0  0  0
  1 24  1  0  0  0
 23 24  1  0  0  0
 23 25  1  0  0  0
 24 26  1  0  0  0
  3  4  2  0  0  0
 26 27  2  0  0  0
 27 28  1  0  0  0
 43 47  1  0  0  0
 43 51  1  0  0  0
 28 29  1  0  0  0
 56 48  1  0  0  0
 56 60  1  0  0  0
 29 30  1  0  0  0
 57 60  1  0  0  0
 57 61  1  0  0  0
 30 31  1  0  0  0
 44 49  1  0  0  0
 44 52  1  0  0  0
 31 32  1  0  0  0
 45 46  1  0  0  0
 45 50  1  0  0  0
 32 33  1  0  0  0
 53 54  1  0  0  0
 53 55  1  0  0  0
 33 34  1  0  0  0
 34 35  1  0  0  0
 35 36  1  0  0  0
 58 60  1  0  0  0
 36 37  1  0  0  0
 59 60  1  0  0  0
 59 62  1  0  0  0
 37 38  1  0  0  0
 38 39  1  0  0  0
 39 40  1  0  0  0
  4  6  1  0  0  0
  6  7  1  0  0  0
  7  8  1  0  0  0
  8  9  1  0  0  0
  9 10  1  0  0  0
 10 11  1  0  0  0
 11 12  1  0  0  0
 12 13  1  0  0  0
 13 14  1  0  0  0
 14 15  1  0  0  0
 15 16  1  0  0  0
 16 17  1  0  0  0
 17 18  1  0  0  0
 18 19  1  0  0  0
 19 20  1  0  0  0
 20 21  1  0  0  0
 21 22  1  0  0  0
 46 47  1  0  0  0
 47 48  1  0  0  0
 48 49  1  0  0  0
 49 50  1  0  0  0
 50 54  1  0  0  0
M  CHG 1  58  -1
M  END
> <minimizedAffinity>
-9.70048

> <CNNscore>
0.3960874677

> <CNNaffinity>
7.2746114731

> <CNN_VS>
2.8813824654

> <CNNaffinity_variance>
1.7167913914

$$$$
/media/chris/experiments/cd1a-new-docking/inputs/ligands/1onq_ligand.pdb


 62 62  0  0  0  0  0  0  0  0999 V2000
  -41.5621   59.9298   65.6904 C   0  0  0  0  0  0  0  0  0  0  0  0
  -41.4368   58.6476   65.0258 N   0  0  0  0  0  0  0  0  0  0  0  0
  -42.7485   57.3162   66.3120 O   0  0  0  0  0  0  0  0  0  0  0  0
  -42.0087   57.4833   65.3620 C   0  0  0  0  0  0  0  0  0  0  0  0
  -40.8600   58.6301   64.2282 H   0  0  0  0  0  0  0  0  0  0  0  0
  -41.6849   56.3299   64.4596 C   0  0  0  0  0  0  0  0  0  0  0  0
  -41.8600   56.8371   63.0281 C   0  0  0  0  0  0  0  0  0  0  0  0
  -41.2898   55.8211   62.0413 C   0  0  0  0  0  0  0  0  0  0  0  0
  -41.2679   56.2437   60.5923 C   0  0  0  0  0  0  0  0  0  0  0  0
  -41.6807   57.7108   60.5339 C   0  0  0  0  0  0  0  0  0  0  0  0
  -40.9115   58.5012   59.4669 C   0  0  0  0  0  0  0  0  0  0  0  0
  -39.4270   58.1128   59.3402 C   0  0  0  0  0  0  0  0  0  0  0  0
  -38.4825   59.1154   60.0390 C   0  0  0  0  0  0  0  0  0  0  0  0
  -37.4227   58.3760   60.8609 C   0  0  0  0  0  0  0  0  0  0  0  0
  -37.9731   57.4219   61.9139 C   0  0  0  0  0  0  0  0  0  0  0  0
  -38.4691   58.1532   63.1526 C   0  0  0  0  0  0  0  0  0  0  0  0
  -37.7544   57.8147   64.4629 C   0  0  0  0  0  0  0  0  0  0  0  0
  -36.2596   57.7379   64.1833 C   0  0  0  0  0  0  0  0  0  0  0  0
  -35.4071   58.9741   64.4291 C   0  0  0  0  0  0  0  0  0  0  0  0
  -34.3825   59.1689   63.3003 C   0  0  0  0  0  0  0  0  0  0  0  0
  -33.0063   58.5330   63.5703 C   0  0  0  0  0  0  0  0  0  0  0  0
  -31.8459   59.3323   62.9822 C   0  0  0  0  0  0  0  0  0  0  0  0
  -42.2862   61.9524   64.8071 O   0  0  0  0  0  0  0  0  0  0  0  0
  -42.6828   60.5977   64.9124 C   0  0  0  0  0  0  0  0  0  0  0  0
  -41.4521   62.0078   64.3153 H   0  0  0  0  0  0  0  0  0  0  0  0
  -43.9972   60.4396   65.6804 C   0  0  0  0  0  0  0  0  0  0  0  0
  -45.1769   60.2210   65.0749 C   0  0  0  0  0  0  0  0  0  0  0  0
  -46.4460   60.0750   65.9126 C   0  0  0  0  0  0  0  0  0  0  0  0
  -47.7264   59.9187   65.0792 C   0  0  0  0  0  0  0  0  0  0  0  0
  -48.3397   58.5065   65.0583 C   0  0  0  0  0  0  0  0  0  0  0  0
  -49.8857   58.5793   65.0428 C   0  0  0  0  0  0  0  0  0  0  0  0
  -50.4799   59.9259   64.5581 C   0  0  0  0  0  0  0  0  0  0  0  0
  -51.2312   59.8376   63.2088 C   0  0  0  0  0  0  0  0  0  0  0  0
  -50.6396   58.7913   62.2398 C   0  0  0  0  0  0  0  0  0  0  0  0
  -49.3511   59.2503   61.5464 C   0  0  0  0  0  0  0  0  0  0  0  0
  -49.4235   59.4034   60.0287 C   0  0  0  0  0  0  0  0  0  0  0  0
  -50.0749   58.2060   59.3092 C   0  0  0  0  0  0  0  0  0  0  0  0
  -49.1651   57.4632   58.3189 C   0  0  0  0  0  0  0  0  0  0  0  0
  -47.7169   57.9478   58.4328 C   0  0  0  0  0  0  0  0  0  0  0  0
  -47.0564   58.4102   57.1462 C   0  0  0  0  0  0  0  0  0  0  0  0
  -40.2481   60.7276   65.8506 C   0  0  0  0  0  0  0  0  0  0  0  0
  -39.5324   61.0497   64.6310 O   0  0  0  0  0  0  0  0  0  0  0  0
  -37.9070   61.5211   62.3260 O   0  0  0  0  0  0  0  0  0  0  0  0
  -36.3093   64.5424   64.7173 O   0  0  0  0  0  0  0  0  0  0  0  0
  -37.7364   62.1285   65.8540 O   0  0  0  0  0  0  0  0  0  0  0  0
  -38.0987   61.4014   64.6550 C   0  0  0  0  0  0  0  0  0  0  0  0
  -37.5895   62.2430   63.4759 C   0  0  0  0  0  0  0  0  0  0  0  0
  -36.0633   62.4783   63.4951 C   0  0  0  0  0  0  0  0  0  0  0  0
  -35.7688   63.2243   64.7671 C   0  0  0  0  0  0  0  0  0  0  0  0
  -36.3243   62.4568   65.9532 C   0  0  0  0  0  0  0  0  0  0  0  0
  -38.8636   61.3636   62.2970 H   0  0  0  0  0  0  0  0  0  0  0  0
  -35.9416   65.0140   63.9535 H   0  0  0  0  0  0  0  0  0  0  0  0
  -36.2791   62.7670   68.3228 O   0  0  0  0  0  0  0  0  0  0  0  0
  -35.9352   63.3716   67.1123 C   0  0  0  0  0  0  0  0  0  0  0  0
  -36.0309   63.3499   69.0574 H   0  0  0  0  0  0  0  0  0  0  0  0
  -35.5329   63.2889   62.4220 O   0  0  0  0  0  0  0  0  0  0  0  0
  -33.0870   62.6347   62.9757 O   0  0  0  0  0  0  0  0  0  0  0  0
  -33.7155   64.9780   62.9171 O   0  0  0  0  0  0  0  0  0  0  0  0
  -33.4506   63.7348   60.8534 O   0  0  0  0  0  0  0  0  0  0  0  0
  -33.9160   63.6543   62.2671 S   0  0  0  0  0  0  0  0  0  0  0  0
  -33.3759   62.5682   63.8993 H   0  0  0  0  0  0  0  0  0  0  0  0
  -33.5778   62.8754   60.4218 H   0  0  0  0  0  0  0  0  0  0  0  0
  2  1  1  0  0  0
  2  4  1  0  0  0
  2  5  1  0  0  0
 41 42  1  0  0  0
 41  1  1  0  0  0
 42 46  1  0  0  0
  1 24  1  0  0  0
 23 24  1  0  0  0
 23 25  1  0  0  0
 24 26  1  0  0  0
  3  4  2  0  0  0
 26 27  2  0  0  0
 27 28  1  0  0  0
 43 47  1  0  0  0
 43 51  1  0  0  0
 28 29  1  0  0  0
 56 48  1  0  0  0
 56 60  1  0  0  0
 29 30  1  0  0  0
 57 60  1  0  0  0
 57 61  1  0  0  0
 30 31  1  0  0  0
 44 49  1  0  0  0
 44 52  1  0  0  0
 31 32  1  0  0  0
 45 46  1  0  0  0
 45 50  1  0  0  0
 32 33  1  0  0  0
 53 54  1  0  0  0
 53 55  1  0  0  0
 33 34  1  0  0  0
 34 35  1  0  0  0
 35 36  1  0  0  0
 58 60  1  0  0  0
 36 37  1  0  0  0
 59 60  1  0  0  0
 59 62  1  0  0  0
 37 38  1  0  0  0
 38 39  1  0  0  0
 39 40  1  0  0  0
  4  6  1  0  0  0
  6  7  1  0  0  0
  7  8  1  0  0  0
  8  9  1  0  0  0
  9 10  1  0  0  0
 10 11  1  0  0  0
 11 12  1  0  0  0
 12 13  1  0  0  0
 13 14  1  0  0  0
 14 15  1  0  0  0
 15 16  1  0  0  0
 16 17  1  0  0  0
 17 18  1  0  0  0
 18 19  1  0  0  0
 19 20  1  0  0  0
 20 21  1  0  0  0
 21 22  1  0  0  0
 46 47  1  0  0  0
 47 48  1  0  0  0
 48 49  1  0  0  0
 49 50  1  0  0  0
 50 54  1  0  0  0
M  CHG 1  58  -1
M  END
> <minimizedAffinity>
-9.83206

> <CNNscore>
0.3538027704

> <CNNaffinity>
7.1754350662

> <CNN_VS>
2.5386888981

> <CNNaffinity_variance>
2.1874890327

$$$$
/media/chris/experiments/cd1a-new-docking/inputs/ligands/1onq_ligand.pdb


 62 62  0  0  0  0  0  0  0  0999 V2000
  -39.5766   60.5734   63.6956 C   0  0  0  0  0  0  0  0  0  0  0  0
  -40.9518   61.0188   63.5886 N   0  0  0  0  0  0  0  0  0  0  0  0
  -41.2745   61.0280   61.3429 O   0  0  0  0  0  0  0  0  0  0  0  0
  -41.6751   61.2077   62.4765 C   0  0  0  0  0  0  0  0  0  0  0  0
  -41.4118   61.2057   64.4388 H   0  0  0  0  0  0  0  0  0  0  0  0
  -43.0841   61.6692   62.7029 C   0  0  0  0  0  0  0  0  0  0  0  0
  -43.4614   61.2315   64.1183 C   0  0  0  0  0  0  0  0  0  0  0  0
  -44.9794   61.2470   64.2818 C   0  0  0  0  0  0  0  0  0  0  0  0
  -45.5882   60.0322   64.9392 C   0  0  0  0  0  0  0  0  0  0  0  0
  -46.9607   59.8086   64.3130 C   0  0  0  0  0  0  0  0  0  0  0  0
  -48.1044   60.3464   65.1834 C   0  0  0  0  0  0  0  0  0  0  0  0
  -49.0191   59.2556   65.7700 C   0  0  0  0  0  0  0  0  0  0  0  0
  -50.5182   59.6158   65.6782 C   0  0  0  0  0  0  0  0  0  0  0  0
  -50.7760   60.5575   64.4983 C   0  0  0  0  0  0  0  0  0  0  0  0
  -51.5508   59.9421   63.3394 C   0  0  0  0  0  0  0  0  0  0  0  0
  -50.6324   59.4028   62.2528 C   0  0  0  0  0  0  0  0  0  0  0  0
  -50.9514   57.9958   61.7419 C   0  0  0  0  0  0  0  0  0  0  0  0
  -49.6676   57.3857   61.1956 C   0  0  0  0  0  0  0  0  0  0  0  0
  -49.5125   57.2409   59.6889 C   0  0  0  0  0  0  0  0  0  0  0  0
  -48.4682   58.2293   59.1462 C   0  0  0  0  0  0  0  0  0  0  0  0
  -47.3395   57.5788   58.3251 C   0  0  0  0  0  0  0  0  0  0  0  0
  -46.9731   58.3684   57.0706 C   0  0  0  0  0  0  0  0  0  0  0  0
  -39.6016   61.2671   65.9124 O   0  0  0  0  0  0  0  0  0  0  0  0
  -39.4963   60.0899   65.1334 C   0  0  0  0  0  0  0  0  0  0  0  0
  -40.4579   61.6904   65.7442 H   0  0  0  0  0  0  0  0  0  0  0  0
  -38.1631   59.3707   65.3526 C   0  0  0  0  0  0  0  0  0  0  0  0
  -37.9711   58.0762   65.0469 C   0  0  0  0  0  0  0  0  0  0  0  0
  -36.6096   57.4298   65.2968 C   0  0  0  0  0  0  0  0  0  0  0  0
  -35.5220   57.8682   64.3053 C   0  0  0  0  0  0  0  0  0  0  0  0
  -35.7315   57.4228   62.8463 C   0  0  0  0  0  0  0  0  0  0  0  0
  -36.3986   58.5479   62.0189 C   0  0  0  0  0  0  0  0  0  0  0  0
  -37.7543   58.1752   61.3673 C   0  0  0  0  0  0  0  0  0  0  0  0
  -38.2211   59.1594   60.2690 C   0  0  0  0  0  0  0  0  0  0  0  0
  -38.9980   58.4801   59.1206 C   0  0  0  0  0  0  0  0  0  0  0  0
  -40.5099   58.3957   59.3627 C   0  0  0  0  0  0  0  0  0  0  0  0
  -40.9985   57.1732   60.1367 C   0  0  0  0  0  0  0  0  0  0  0  0
  -41.6633   57.5112   61.4857 C   0  0  0  0  0  0  0  0  0  0  0  0
  -40.8855   57.0584   62.7307 C   0  0  0  0  0  0  0  0  0  0  0  0
  -41.8395   56.6479   63.8560 C   0  0  0  0  0  0  0  0  0  0  0  0
  -42.3559   57.7655   64.7447 C   0  0  0  0  0  0  0  0  0  0  0  0
  -38.5090   61.5934   63.2387 C   0  0  0  0  0  0  0  0  0  0  0  0
  -37.7103   62.2071   64.2821 O   0  0  0  0  0  0  0  0  0  0  0  0
  -35.0611   61.1499   64.0797 O   0  0  0  0  0  0  0  0  0  0  0  0
  -34.8126   63.7978   60.8661 O   0  0  0  0  0  0  0  0  0  0  0  0
  -36.8001   64.1340   63.1228 O   0  0  0  0  0  0  0  0  0  0  0  0
  -36.5010   62.9904   63.9596 C   0  0  0  0  0  0  0  0  0  0  0  0
  -35.3712   62.2284   63.2521 C   0  0  0  0  0  0  0  0  0  0  0  0
  -34.0905   63.0671   63.0478 C   0  0  0  0  0  0  0  0  0  0  0  0
  -34.4847   64.2328   62.1834 C   0  0  0  0  0  0  0  0  0  0  0  0
  -35.6516   64.9696   62.8156 C   0  0  0  0  0  0  0  0  0  0  0  0
  -35.8552   60.6109   64.2194 H   0  0  0  0  0  0  0  0  0  0  0  0
  -34.0545   63.3304   60.4818 H   0  0  0  0  0  0  0  0  0  0  0  0
  -37.1216   66.6929   62.0522 O   0  0  0  0  0  0  0  0  0  0  0  0
  -35.8930   66.0811   61.7967 C   0  0  0  0  0  0  0  0  0  0  0  0
  -37.2725   67.3985   61.4038 H   0  0  0  0  0  0  0  0  0  0  0  0
  -33.0030   62.4072   62.3609 O   0  0  0  0  0  0  0  0  0  0  0  0
  -31.3374   63.6711   60.8295 O   0  0  0  0  0  0  0  0  0  0  0  0
  -30.5115   61.9673   62.3474 O   0  0  0  0  0  0  0  0  0  0  0  0
  -31.1839   64.1351   63.1975 O   0  0  0  0  0  0  0  0  0  0  0  0
  -31.4889   63.0786   62.1914 S   0  0  0  0  0  0  0  0  0  0  0  0
  -31.5324   62.9968   60.1600 H   0  0  0  0  0  0  0  0  0  0  0  0
  -31.8168   64.8642   63.1028 H   0  0  0  0  0  0  0  0  0  0  0  0
  2  1  1  0  0  0
  2  4  1  0  0  0
  2  5  1  0  0  0
 41 42  1  0  0  0
 41  1  1  0  0  0
 42 46  1  0  0  0
  1 24  1  0  0  0
 23 24  1  0  0  0
 23 25  1  0  0  0
 24 26  1  0  0  0
  3  4  2  0  0  0
 26 27  2  0  0  0
 27 28  1  0  0  0
 43 47  1  0  0  0
 43 51  1  0  0  0
 28 29  1  0  0  0
 56 48  1  0  0  0
 56 60  1  0  0  0
 29 30  1  0  0  0
 57 60  1  0  0  0
 57 61  1  0  0  0
 30 31  1  0  0  0
 44 49  1  0  0  0
 44 52  1  0  0  0
 31 32  1  0  0  0
 45 46  1  0  0  0
 45 50  1  0  0  0
 32 33  1  0  0  0
 53 54  1  0  0  0
 53 55  1  0  0  0
 33 34  1  0  0  0
 34 35  1  0  0  0
 35 36  1  0  0  0
 58 60  1  0  0  0
 36 37  1  0  0  0
 59 60  1  0  0  0
 59 62  1  0  0  0
 37 38  1  0  0  0
 38 39  1  0  0  0
 39 40  1  0  0  0
  4  6  1  0  0  0
  6  7  1  0  0  0
  7  8  1  0  0  0
  8  9  1  0  0  0
  9 10  1  0  0  0
 10 11  1  0  0  0
 11 12  1  0  0  0
 12 13  1  0  0  0
 13 14  1  0  0  0
 14 15  1  0  0  0
 15 16  1  0  0  0
 16 17  1  0  0  0
 17 18  1  0  0  0
 18 19  1  0  0  0
 19 20  1  0  0  0
 20 21  1  0  0  0
 21 22  1  0  0  0
 46 47  1  0  0  0
 47 48  1  0  0  0
 48 49  1  0  0  0
 49 50  1  0  0  0
 50 54  1  0  0  0
M  CHG 1  58  -1
M  END
> <minimizedAffinity>
-9.65313

> <CNNscore>
0.2575290203

> <CNNaffinity>
7.1014709473

> <CNN_VS>
1.8288348913

> <CNNaffinity_variance>
1.4023441076

$$$$
/media/chris/experiments/cd1a-new-docking/inputs/ligands/1onq_ligand.pdb


 62 62  0  0  0  0  0  0  0  0999 V2000
  -42.5151   58.6917   64.6368 C   0  0  0  0  0  0  0  0  0  0  0  0
  -41.1483   58.8305   65.0991 N   0  0  0  0  0  0  0  0  0  0  0  0
  -40.0283   57.4476   63.6918 O   0  0  0  0  0  0  0  0  0  0  0  0
  -40.0494   58.2305   64.6215 C   0  0  0  0  0  0  0  0  0  0  0  0
  -41.0101   59.4418   65.8584 H   0  0  0  0  0  0  0  0  0  0  0  0
  -38.7713   58.5930   65.3177 C   0  0  0  0  0  0  0  0  0  0  0  0
  -37.6376   58.2358   64.3563 C   0  0  0  0  0  0  0  0  0  0  0  0
  -36.5231   57.5136   65.1096 C   0  0  0  0  0  0  0  0  0  0  0  0
  -35.1531   57.5668   64.4781 C   0  0  0  0  0  0  0  0  0  0  0  0
  -35.2873   58.2991   63.1470 C   0  0  0  0  0  0  0  0  0  0  0  0
  -33.9335   58.5513   62.4698 C   0  0  0  0  0  0  0  0  0  0  0  0
  -32.7187   58.3707   63.3985 C   0  0  0  0  0  0  0  0  0  0  0  0
  -31.5826   59.3743   63.1028 C   0  0  0  0  0  0  0  0  0  0  0  0
  -31.9702   60.3045   61.9496 C   0  0  0  0  0  0  0  0  0  0  0  0
  -30.7983   60.8857   61.1680 C   0  0  0  0  0  0  0  0  0  0  0  0
  -29.4872   60.7848   61.9335 C   0  0  0  0  0  0  0  0  0  0  0  0
  -28.8699   62.1104   62.3850 C   0  0  0  0  0  0  0  0  0  0  0  0
  -29.9207   63.2016   62.2303 C   0  0  0  0  0  0  0  0  0  0  0  0
  -30.8015   63.5403   63.4239 C   0  0  0  0  0  0  0  0  0  0  0  0
  -30.0911   64.5202   64.3710 C   0  0  0  0  0  0  0  0  0  0  0  0
  -30.8839   64.8649   65.6453 C   0  0  0  0  0  0  0  0  0  0  0  0
  -32.3848   64.6209   65.5073 C   0  0  0  0  0  0  0  0  0  0  0  0
  -42.8005   56.4440   64.1245 O   0  0  0  0  0  0  0  0  0  0  0  0
  -42.9229   57.3451   65.2093 C   0  0  0  0  0  0  0  0  0  0  0  0
  -41.8778   56.4205   63.8264 H   0  0  0  0  0  0  0  0  0  0  0  0
  -44.3599   57.4296   65.7295 C   0  0  0  0  0  0  0  0  0  0  0  0
  -45.0165   58.5925   65.8797 C   0  0  0  0  0  0  0  0  0  0  0  0
  -46.4505   58.5935   66.4063 C   0  0  0  0  0  0  0  0  0  0  0  0
  -47.4147   59.4592   65.5824 C   0  0  0  0  0  0  0  0  0  0  0  0
  -48.6293   60.0167   66.3474 C   0  0  0  0  0  0  0  0  0  0  0  0
  -49.9520   59.5395   65.7005 C   0  0  0  0  0  0  0  0  0  0  0  0
  -50.5025   60.4483   64.5725 C   0  0  0  0  0  0  0  0  0  0  0  0
  -51.2996   59.6932   63.4829 C   0  0  0  0  0  0  0  0  0  0  0  0
  -50.5016   58.5548   62.8112 C   0  0  0  0  0  0  0  0  0  0  0  0
  -49.2696   59.0378   62.0362 C   0  0  0  0  0  0  0  0  0  0  0  0
  -49.5338   59.6117   60.6459 C   0  0  0  0  0  0  0  0  0  0  0  0
  -49.9232   58.5531   59.5954 C   0  0  0  0  0  0  0  0  0  0  0  0
  -48.7575   57.7184   59.0435 C   0  0  0  0  0  0  0  0  0  0  0  0
  -47.7815   58.5931   58.2515 C   0  0  0  0  0  0  0  0  0  0  0  0
  -46.8922   57.8768   57.2508 C   0  0  0  0  0  0  0  0  0  0  0  0
  -42.7297   58.9025   63.1207 C   0  0  0  0  0  0  0  0  0  0  0  0
  -42.4226   60.2207   62.5997 O   0  0  0  0  0  0  0  0  0  0  0  0
  -40.0142   61.4853   63.4814 O   0  0  0  0  0  0  0  0  0  0  0  0
  -38.2260   58.5413   61.1287 O   0  0  0  0  0  0  0  0  0  0  0  0
  -41.0826   59.4551   60.7279 O   0  0  0  0  0  0  0  0  0  0  0  0
  -41.2268   60.4548   61.7660 C   0  0  0  0  0  0  0  0  0  0  0  0
  -39.8832   60.4957   62.5079 C   0  0  0  0  0  0  0  0  0  0  0  0
  -38.6858   60.8605   61.6033 C   0  0  0  0  0  0  0  0  0  0  0  0
  -38.6103   59.7873   60.5526 C   0  0  0  0  0  0  0  0  0  0  0  0
  -39.9478   59.6661   59.8451 C   0  0  0  0  0  0  0  0  0  0  0  0
  -40.7629   61.2725   64.0600 H   0  0  0  0  0  0  0  0  0  0  0  0
  -37.3704   58.6415   61.5748 H   0  0  0  0  0  0  0  0  0  0  0  0
  -38.3484   58.6471   58.3902 O   0  0  0  0  0  0  0  0  0  0  0  0
  -39.6618   58.5422   58.8516 C   0  0  0  0  0  0  0  0  0  0  0  0
  -38.1691   57.9323   57.7594 H   0  0  0  0  0  0  0  0  0  0  0  0
  -37.3906   60.8863   62.2450 O   0  0  0  0  0  0  0  0  0  0  0  0
  -37.6254   62.7433   64.0376 O   0  0  0  0  0  0  0  0  0  0  0  0
  -36.6850   63.2864   61.8673 O   0  0  0  0  0  0  0  0  0  0  0  0
  -35.3725   62.0560   63.4915 O   0  0  0  0  0  0  0  0  0  0  0  0
  -36.7421   62.2542   62.9379 S   0  0  0  0  0  0  0  0  0  0  0  0
  -38.5230   62.8784   63.6954 H   0  0  0  0  0  0  0  0  0  0  0  0
  -35.4005   61.3842   64.1907 H   0  0  0  0  0  0  0  0  0  0  0  0
  2  1  1  0  0  0
  2  4  1  0  0  0
  2  5  1  0  0  0
 41 42  1  0  0  0
 41  1  1  0  0  0
 42 46  1  0  0  0
  1 24  1  0  0  0
 23 24  1  0  0  0
 23 25  1  0  0  0
 24 26  1  0  0  0
  3  4  2  0  0  0
 26 27  2  0  0  0
 27 28  1  0  0  0
 43 47  1  0  0  0
 43 51  1  0  0  0
 28 29  1  0  0  0
 56 48  1  0  0  0
 56 60  1  0  0  0
 29 30  1  0  0  0
 57 60  1  0  0  0
 57 61  1  0  0  0
 30 31  1  0  0  0
 44 49  1  0  0  0
 44 52  1  0  0  0
 31 32  1  0  0  0
 45 46  1  0  0  0
 45 50  1  0  0  0
 32 33  1  0  0  0
 53 54  1  0  0  0
 53 55  1  0  0  0
 33 34  1  0  0  0
 34 35  1  0  0  0
 35 36  1  0  0  0
 58 60  1  0  0  0
 36 37  1  0  0  0
 59 60  1  0  0  0
 59 62  1  0  0  0
 37 38  1  0  0  0
 38 39  1  0  0  0
 39 40  1  0  0  0
  4  6  1  0  0  0
  6  7  1  0  0  0
  7  8  1  0  0  0
  8  9  1  0  0  0
  9 10  1  0  0  0
 10 11  1  0  0  0
 11 12  1  0  0  0
 12 13  1  0  0  0
 13 14  1  0  0  0
 14 15  1  0  0  0
 15 16  1  0  0  0
 16 17  1  0  0  0
 17 18  1  0  0  0
 18 19  1  0  0  0
 19 20  1  0  0  0
 20 21  1  0  0  0
 21 22  1  0  0  0
 46 47  1  0  0  0
 47 48  1  0  0  0
 48 49  1  0  0  0
 49 50  1  0  0  0
 50 54  1  0  0  0
M  CHG 1  58  -1
M  END
> <minimizedAffinity>
-9.31675

> <CNNscore>
0.2112372071

> <CNNaffinity>
6.4988646507

> <CNN_VS>
1.3728020191

> <CNNaffinity_variance>
1.1269879341

$$$$
/media/chris/experiments/cd1a-new-docking/inputs/ligands/1onq_ligand.pdb


 62 62  0  0  0  0  0  0  0  0999 V2000
  -41.0226   60.2806   62.9138 C   0  0  0  0  0  0  0  0  0  0  0  0
  -42.4068   60.2614   63.3434 N   0  0  0  0  0  0  0  0  0  0  0  0
  -42.6703   62.3501   64.1894 O   0  0  0  0  0  0  0  0  0  0  0  0
  -43.1057   61.2466   63.9236 C   0  0  0  0  0  0  0  0  0  0  0  0
  -42.8942   59.4199   63.1898 H   0  0  0  0  0  0  0  0  0  0  0  0
  -44.5330   60.9136   64.2425 C   0  0  0  0  0  0  0  0  0  0  0  0
  -44.5014   59.9988   65.4670 C   0  0  0  0  0  0  0  0  0  0  0  0
  -45.2300   58.6925   65.1609 C   0  0  0  0  0  0  0  0  0  0  0  0
  -46.2635   58.2568   66.1713 C   0  0  0  0  0  0  0  0  0  0  0  0
  -47.1417   59.4643   66.4822 C   0  0  0  0  0  0  0  0  0  0  0  0
  -48.3614   59.5645   65.5564 C   0  0  0  0  0  0  0  0  0  0  0  0
  -48.2841   60.7102   64.5307 C   0  0  0  0  0  0  0  0  0  0  0  0
  -49.0921   60.4217   63.2464 C   0  0  0  0  0  0  0  0  0  0  0  0
  -50.5952   60.4379   63.5390 C   0  0  0  0  0  0  0  0  0  0  0  0
  -51.3676   59.2344   63.0126 C   0  0  0  0  0  0  0  0  0  0  0  0
  -50.4554   58.1970   62.3747 C   0  0  0  0  0  0  0  0  0  0  0  0
  -50.5932   58.0227   60.8605 C   0  0  0  0  0  0  0  0  0  0  0  0
  -49.1968   58.0172   60.2533 C   0  0  0  0  0  0  0  0  0  0  0  0
  -49.0468   57.7034   58.7720 C   0  0  0  0  0  0  0  0  0  0  0  0
  -47.8744   58.4863   58.1600 C   0  0  0  0  0  0  0  0  0  0  0  0
  -46.7957   57.6081   57.4995 C   0  0  0  0  0  0  0  0  0  0  0  0
  -47.2793   56.1956   57.1798 C   0  0  0  0  0  0  0  0  0  0  0  0
  -41.7816   58.1383   62.4336 O   0  0  0  0  0  0  0  0  0  0  0  0
  -40.9810   59.1670   61.8815 C   0  0  0  0  0  0  0  0  0  0  0  0
  -42.6891   58.4612   62.5480 H   0  0  0  0  0  0  0  0  0  0  0  0
  -39.5315   58.7214   61.6746 C   0  0  0  0  0  0  0  0  0  0  0  0
  -39.0246   57.6031   62.2210 C   0  0  0  0  0  0  0  0  0  0  0  0
  -37.5658   57.2268   61.9677 C   0  0  0  0  0  0  0  0  0  0  0  0
  -36.5558   58.2251   62.5520 C   0  0  0  0  0  0  0  0  0  0  0  0
  -35.2059   57.6280   62.9905 C   0  0  0  0  0  0  0  0  0  0  0  0
  -34.0348   58.5450   62.5626 C   0  0  0  0  0  0  0  0  0  0  0  0
  -32.6699   58.2274   63.2242 C   0  0  0  0  0  0  0  0  0  0  0  0
  -31.6033   59.3322   63.0378 C   0  0  0  0  0  0  0  0  0  0  0  0
  -31.8019   60.1728   61.7580 C   0  0  0  0  0  0  0  0  0  0  0  0
  -30.5058   60.7861   61.2144 C   0  0  0  0  0  0  0  0  0  0  0  0
  -29.2880   60.7043   62.1322 C   0  0  0  0  0  0  0  0  0  0  0  0
  -28.8666   62.0588   62.7353 C   0  0  0  0  0  0  0  0  0  0  0  0
  -29.2384   63.2922   61.8983 C   0  0  0  0  0  0  0  0  0  0  0  0
  -29.6863   64.4502   62.7946 C   0  0  0  0  0  0  0  0  0  0  0  0
  -29.6078   64.2141   64.2925 C   0  0  0  0  0  0  0  0  0  0  0  0
  -39.9730   60.2251   64.0470 C   0  0  0  0  0  0  0  0  0  0  0  0
  -39.3764   61.4871   64.4403 O   0  0  0  0  0  0  0  0  0  0  0  0
  -37.6746   61.8484   62.1708 O   0  0  0  0  0  0  0  0  0  0  0  0
  -35.7499   64.5492   64.7007 O   0  0  0  0  0  0  0  0  0  0  0  0
  -37.4779   62.2852   65.7225 O   0  0  0  0  0  0  0  0  0  0  0  0
  -37.9107   61.6581   64.4909 C   0  0  0  0  0  0  0  0  0  0  0  0
  -37.2863   62.4779   63.3527 C   0  0  0  0  0  0  0  0  0  0  0  0
  -35.7430   62.5223   63.3944 C   0  0  0  0  0  0  0  0  0  0  0  0
  -35.3762   63.1735   64.6992 C   0  0  0  0  0  0  0  0  0  0  0  0
  -36.0376   62.4325   65.8471 C   0  0  0  0  0  0  0  0  0  0  0  0
  -38.6428   61.8114   62.1272 H   0  0  0  0  0  0  0  0  0  0  0  0
  -35.3169   65.0027   63.9606 H   0  0  0  0  0  0  0  0  0  0  0  0
  -36.2254   62.8248   68.1975 O   0  0  0  0  0  0  0  0  0  0  0  0
  -35.5547   63.2441   67.0471 C   0  0  0  0  0  0  0  0  0  0  0  0
  -35.9168   63.3418   68.9582 H   0  0  0  0  0  0  0  0  0  0  0  0
  -35.1028   63.3045   62.3609 O   0  0  0  0  0  0  0  0  0  0  0  0
  -32.7515   62.7302   63.2876 O   0  0  0  0  0  0  0  0  0  0  0  0
  -33.3220   65.0421   62.8197 O   0  0  0  0  0  0  0  0  0  0  0  0
  -32.8436   63.5124   61.0016 O   0  0  0  0  0  0  0  0  0  0  0  0
  -33.4719   63.6389   62.3473 S   0  0  0  0  0  0  0  0  0  0  0  0
  -33.1473   62.7990   64.1706 H   0  0  0  0  0  0  0  0  0  0  0  0
  -32.9368   62.6000   60.6857 H   0  0  0  0  0  0  0  0  0  0  0  0
  2  1  1  0  0  0
  2  4  1  0  0  0
  2  5  1  0  0  0
 41 42  1  0  0  0
 41  1  1  0  0  0
 42 46  1  0  0  0
  1 24  1  0  0  0
 23 24  1  0  0  0
 23 25  1  0  0  0
 24 26  1  0  0  0
  3  4  2  0  0  0
 26 27  2  0  0  0
 27 28  1  0  0  0
 43 47  1  0  0  0
 43 51  1  0  0  0
 28 29  1  0  0  0
 56 48  1  0  0  0
 56 60  1  0  0  0
 29 30  1  0  0  0
 57 60  1  0  0  0
 57 61  1  0  0  0
 30 31  1  0  0  0
 44 49  1  0  0  0
 44 52  1  0  0  0
 31 32  1  0  0  0
 45 46  1  0  0  0
 45 50  1  0  0  0
 32 33  1  0  0  0
 53 54  1  0  0  0
 53 55  1  0  0  0
 33 34  1  0  0  0
 34 35  1  0  0  0
 35 36  1  0  0  0
 58 60  1  0  0  0
 36 37  1  0  0  0
 59 60  1  0  0  0
 59 62  1  0  0  0
 37 38  1  0  0  0
 38 39  1  0  0  0
 39 40  1  0  0  0
  4  6  1  0  0  0
  6  7  1  0  0  0
  7  8  1  0  0  0
  8  9  1  0  0  0
  9 10  1  0  0  0
 10 11  1  0  0  0
 11 12  1  0  0  0
 12 13  1  0  0  0
 13 14  1  0  0  0
 14 15  1  0  0  0
 15 16  1  0  0  0
 16 17  1  0  0  0
 17 18  1  0  0  0
 18 19  1  0  0  0
 19 20  1  0  0  0
 20 21  1  0  0  0
 21 22  1  0  0  0
 46 47  1  0  0  0
 47 48  1  0  0  0
 48 49  1  0  0  0
 49 50  1  0  0  0
 50 54  1  0  0  0
M  CHG 1  58  -1
M  END
> <minimizedAffinity>
-9.48270

> <CNNscore>
0.2039770782

> <CNNaffinity>
6.5150198936

> <CNN_VS>
1.3289147615

> <CNNaffinity_variance>
0.8787126541

$$$$
/media/chris/experiments/cd1a-new-docking/inputs/ligands/1onq_ligand.pdb


 62 62  0  0  0  0  0  0  0  0999 V2000
  -40.7397   59.9686   64.1186 C   0  0  0  0  0  0  0  0  0  0  0  0
  -42.0398   60.5687   64.3441 N   0  0  0  0  0  0  0  0  0  0  0  0
  -42.7878   60.8904   62.2264 O   0  0  0  0  0  0  0  0  0  0  0  0
  -42.9342   60.9703   63.4306 C   0  0  0  0  0  0  0  0  0  0  0  0
  -42.2978   60.6971   65.2855 H   0  0  0  0  0  0  0  0  0  0  0  0
  -44.2003   61.5487   63.9892 C   0  0  0  0  0  0  0  0  0  0  0  0
  -44.6129   60.6463   65.1522 C   0  0  0  0  0  0  0  0  0  0  0  0
  -45.7878   59.7642   64.7366 C   0  0  0  0  0  0  0  0  0  0  0  0
  -47.0334   60.4876   64.2852 C   0  0  0  0  0  0  0  0  0  0  0  0
  -48.0710   60.3551   65.3950 C   0  0  0  0  0  0  0  0  0  0  0  0
  -48.6069   58.9243   65.5381 C   0  0  0  0  0  0  0  0  0  0  0  0
  -50.1285   58.7965   65.3399 C   0  0  0  0  0  0  0  0  0  0  0  0
  -50.7798   60.1025   64.8343 C   0  0  0  0  0  0  0  0  0  0  0  0
  -51.4023   59.8951   63.4506 C   0  0  0  0  0  0  0  0  0  0  0  0
  -50.4192   59.5069   62.3529 C   0  0  0  0  0  0  0  0  0  0  0  0
  -50.5976   58.0647   61.9019 C   0  0  0  0  0  0  0  0  0  0  0  0
  -50.5944   57.8292   60.3897 C   0  0  0  0  0  0  0  0  0  0  0  0
  -49.4448   56.8875   60.0574 C   0  0  0  0  0  0  0  0  0  0  0  0
  -48.1007   57.4861   59.6692 C   0  0  0  0  0  0  0  0  0  0  0  0
  -47.3000   56.5143   58.7881 C   0  0  0  0  0  0  0  0  0  0  0  0
  -47.2601   56.8907   57.2955 C   0  0  0  0  0  0  0  0  0  0  0  0
  -46.8688   58.3460   57.0498 C   0  0  0  0  0  0  0  0  0  0  0  0
  -40.2638   61.0795   66.1023 O   0  0  0  0  0  0  0  0  0  0  0  0
  -40.2103   59.7857   65.5306 C   0  0  0  0  0  0  0  0  0  0  0  0
  -41.1836   61.3865   66.1220 H   0  0  0  0  0  0  0  0  0  0  0  0
  -38.7814   59.2407   65.4696 C   0  0  0  0  0  0  0  0  0  0  0  0
  -38.4397   58.1628   64.7433 C   0  0  0  0  0  0  0  0  0  0  0  0
  -36.9904   57.6799   64.7351 C   0  0  0  0  0  0  0  0  0  0  0  0
  -36.3644   57.6160   63.3343 C   0  0  0  0  0  0  0  0  0  0  0  0
  -37.3583   57.4872   62.1653 C   0  0  0  0  0  0  0  0  0  0  0  0
  -37.4533   58.8153   61.3763 C   0  0  0  0  0  0  0  0  0  0  0  0
  -37.7720   58.6670   59.8670 C   0  0  0  0  0  0  0  0  0  0  0  0
  -39.1681   59.1940   59.4596 C   0  0  0  0  0  0  0  0  0  0  0  0
  -40.2229   58.0797   59.2877 C   0  0  0  0  0  0  0  0  0  0  0  0
  -41.3013   58.0763   60.3780 C   0  0  0  0  0  0  0  0  0  0  0  0
  -41.5553   56.7371   61.0667 C   0  0  0  0  0  0  0  0  0  0  0  0
  -40.7684   56.5488   62.3787 C   0  0  0  0  0  0  0  0  0  0  0  0
  -41.5976   56.0566   63.5747 C   0  0  0  0  0  0  0  0  0  0  0  0
  -42.7152   57.0470   63.9138 C   0  0  0  0  0  0  0  0  0  0  0  0
  -43.0236   57.2382   65.3882 C   0  0  0  0  0  0  0  0  0  0  0  0
  -39.8267   60.7142   63.1190 C   0  0  0  0  0  0  0  0  0  0  0  0
  -39.1829   61.9198   63.6041 O   0  0  0  0  0  0  0  0  0  0  0  0
  -37.0601   62.3575   61.7387 O   0  0  0  0  0  0  0  0  0  0  0  0
  -35.4468   64.5620   64.8910 O   0  0  0  0  0  0  0  0  0  0  0  0
  -37.5055   62.3815   65.2948 O   0  0  0  0  0  0  0  0  0  0  0  0
  -37.7445   61.9387   63.9367 C   0  0  0  0  0  0  0  0  0  0  0  0
  -36.8551   62.8125   63.0407 C   0  0  0  0  0  0  0  0  0  0  0  0
  -35.3488   62.6994   63.3625 C   0  0  0  0  0  0  0  0  0  0  0  0
  -35.1863   63.1646   64.7833 C   0  0  0  0  0  0  0  0  0  0  0  0
  -36.1078   62.3714   65.6921 C   0  0  0  0  0  0  0  0  0  0  0  0
  -38.0026   62.4212   61.5187 H   0  0  0  0  0  0  0  0  0  0  0  0
  -34.8482   65.0488   64.3031 H   0  0  0  0  0  0  0  0  0  0  0  0
  -34.4183   63.0226   67.2526 O   0  0  0  0  0  0  0  0  0  0  0  0
  -35.7995   62.9952   67.0515 C   0  0  0  0  0  0  0  0  0  0  0  0
  -34.2251   63.4192   68.1165 H   0  0  0  0  0  0  0  0  0  0  0  0
  -34.4666   63.5230   62.5667 O   0  0  0  0  0  0  0  0  0  0  0  0
  -32.4294   63.7460   60.9801 O   0  0  0  0  0  0  0  0  0  0  0  0
  -32.8217   61.6493   62.1373 O   0  0  0  0  0  0  0  0  0  0  0  0
  -31.9376   63.5587   63.3401 O   0  0  0  0  0  0  0  0  0  0  0  0
  -32.8769   63.1309   62.2648 S   0  0  0  0  0  0  0  0  0  0  0  0
  -33.0300   63.4783   60.2670 H   0  0  0  0  0  0  0  0  0  0  0  0
  -31.9673   64.5241   63.4301 H   0  0  0  0  0  0  0  0  0  0  0  0
  2  1  1  0  0  0
  2  4  1  0  0  0
  2  5  1  0  0  0
 41 42  1  0  0  0
 41  1  1  0  0  0
 42 46  1  0  0  0
  1 24  1  0  0  0
 23 24  1  0  0  0
 23 25  1  0  0  0
 24 26  1  0  0  0
  3  4  2  0  0  0
 26 27  2  0  0  0
 27 28  1  0  0  0
 43 47  1  0  0  0
 43 51  1  0  0  0
 28 29  1  0  0  0
 56 48  1  0  0  0
 56 60  1  0  0  0
 29 30  1  0  0  0
 57 60  1  0  0  0
 57 61  1  0  0  0
 30 31  1  0  0  0
 44 49  1  0  0  0
 44 52  1  0  0  0
 31 32  1  0  0  0
 45 46  1  0  0  0
 45 50  1  0  0  0
 32 33  1  0  0  0
 53 54  1  0  0  0
 53 55  1  0  0  0
 33 34  1  0  0  0
 34 35  1  0  0  0
 35 36  1  0  0  0
 58 60  1  0  0  0
 36 37  1  0  0  0
 59 60  1  0  0  0
 59 62  1  0  0  0
 37 38  1  0  0  0
 38 39  1  0  0  0
 39 40  1  0  0  0
  4  6  1  0  0  0
  6  7  1  0  0  0
  7  8  1  0  0  0
  8  9  1  0  0  0
  9 10  1  0  0  0
 10 11  1  0  0  0
 11 12  1  0  0  0
 12 13  1  0  0  0
 13 14  1  0  0  0
 14 15  1  0  0  0
 15 16  1  0  0  0
 16 17  1  0  0  0
 17 18  1  0  0  0
 18 19  1  0  0  0
 19 20  1  0  0  0
 20 21  1  0  0  0
 21 22  1  0  0  0
 46 47  1  0  0  0
 47 48  1  0  0  0
 48 49  1  0  0  0
 49 50  1  0  0  0
 50 54  1  0  0  0
M  CHG 1  58  -1
M  END
> <minimizedAffinity>
-9.75475

> <CNNscore>
0.1950677037

> <CNNaffinity>
7.1405744553

> <CNN_VS>
1.3928954601

> <CNNaffinity_variance>
1.6773837805

$$$$
/media/chris/experiments/cd1a-new-docking/inputs/ligands/1onq_ligand.pdb


 62 62  0  0  0  0  0  0  0  0999 V2000
  -38.6710   59.8941   64.4573 C   0  0  0  0  0  0  0  0  0  0  0  0
  -39.7549   59.2416   65.1649 N   0  0  0  0  0  0  0  0  0  0  0  0
  -41.2692   60.9192   65.3648 O   0  0  0  0  0  0  0  0  0  0  0  0
  -40.9240   59.7689   65.5531 C   0  0  0  0  0  0  0  0  0  0  0  0
  -39.6146   58.2930   65.3879 H   0  0  0  0  0  0  0  0  0  0  0  0
  -41.8456   58.8227   66.2639 C   0  0  0  0  0  0  0  0  0  0  0  0
  -42.5181   57.9777   65.1818 C   0  0  0  0  0  0  0  0  0  0  0  0
  -44.0164   57.8747   65.4565 C   0  0  0  0  0  0  0  0  0  0  0  0
  -44.9069   58.7603   64.6191 C   0  0  0  0  0  0  0  0  0  0  0  0
  -45.2628   59.9823   65.4592 C   0  0  0  0  0  0  0  0  0  0  0  0
  -46.7007   59.9365   65.9932 C   0  0  0  0  0  0  0  0  0  0  0  0
  -47.7222   59.3398   65.0078 C   0  0  0  0  0  0  0  0  0  0  0  0
  -48.1284   60.3279   63.8924 C   0  0  0  0  0  0  0  0  0  0  0  0
  -49.5361   60.8762   64.1429 C   0  0  0  0  0  0  0  0  0  0  0  0
  -50.6714   59.9201   63.7981 C   0  0  0  0  0  0  0  0  0  0  0  0
  -50.6597   59.5152   62.3314 C   0  0  0  0  0  0  0  0  0  0  0  0
  -51.0927   58.0789   62.0283 C   0  0  0  0  0  0  0  0  0  0  0  0
  -50.1087   57.4865   61.0285 C   0  0  0  0  0  0  0  0  0  0  0  0
  -48.9256   58.3322   60.5809 C   0  0  0  0  0  0  0  0  0  0  0  0
  -48.9324   58.5240   59.0561 C   0  0  0  0  0  0  0  0  0  0  0  0
  -47.7213   57.9101   58.3299 C   0  0  0  0  0  0  0  0  0  0  0  0
  -47.3392   56.5281   58.8547 C   0  0  0  0  0  0  0  0  0  0  0  0
  -39.1277   57.7519   63.6836 O   0  0  0  0  0  0  0  0  0  0  0  0
  -38.2517   58.8387   63.4484 C   0  0  0  0  0  0  0  0  0  0  0  0
  -40.0419   58.0325   63.5210 H   0  0  0  0  0  0  0  0  0  0  0  0
  -36.7878   58.4618   63.6878 C   0  0  0  0  0  0  0  0  0  0  0  0
  -35.9395   58.1527   62.6924 C   0  0  0  0  0  0  0  0  0  0  0  0
  -34.4918   57.7857   63.0136 C   0  0  0  0  0  0  0  0  0  0  0  0
  -33.4550   58.5875   62.2135 C   0  0  0  0  0  0  0  0  0  0  0  0
  -32.7447   59.7152   62.9848 C   0  0  0  0  0  0  0  0  0  0  0  0
  -31.2244   59.7057   62.6951 C   0  0  0  0  0  0  0  0  0  0  0  0
  -30.7249   60.8230   61.7444 C   0  0  0  0  0  0  0  0  0  0  0  0
  -29.2190   61.1477   61.8847 C   0  0  0  0  0  0  0  0  0  0  0  0
  -28.9413   62.5333   62.5065 C   0  0  0  0  0  0  0  0  0  0  0  0
  -30.2026   63.2544   62.9971 C   0  0  0  0  0  0  0  0  0  0  0  0
  -30.0935   64.7701   63.1484 C   0  0  0  0  0  0  0  0  0  0  0  0
  -31.3682   65.5335   62.7382 C   0  0  0  0  0  0  0  0  0  0  0  0
  -31.1591   66.6473   61.7009 C   0  0  0  0  0  0  0  0  0  0  0  0
  -29.9332   66.3631   60.8284 C   0  0  0  0  0  0  0  0  0  0  0  0
  -30.1578   65.4759   59.6168 C   0  0  0  0  0  0  0  0  0  0  0  0
  -37.5591   60.4924   65.3486 C   0  0  0  0  0  0  0  0  0  0  0  0
  -37.7615   61.8513   65.8130 O   0  0  0  0  0  0  0  0  0  0  0  0
  -35.4285   62.8913   67.0987 O   0  0  0  0  0  0  0  0  0  0  0  0
  -34.0131   63.1250   63.1819 O   0  0  0  0  0  0  0  0  0  0  0  0
  -36.9604   63.0511   63.8626 O   0  0  0  0  0  0  0  0  0  0  0  0
  -36.9329   62.9642   65.3080 C   0  0  0  0  0  0  0  0  0  0  0  0
  -35.4501   62.9369   65.7053 C   0  0  0  0  0  0  0  0  0  0  0  0
  -34.6624   64.1844   65.2485 C   0  0  0  0  0  0  0  0  0  0  0  0
  -34.7467   64.2086   63.7473 C   0  0  0  0  0  0  0  0  0  0  0  0
  -36.2007   64.1615   63.3136 C   0  0  0  0  0  0  0  0  0  0  0  0
  -35.9195   62.1126   67.4042 H   0  0  0  0  0  0  0  0  0  0  0  0
  -33.0886   63.1744   63.4715 H   0  0  0  0  0  0  0  0  0  0  0  0
  -36.2501   65.4847   61.3236 O   0  0  0  0  0  0  0  0  0  0  0  0
  -36.0619   64.1835   61.7930 C   0  0  0  0  0  0  0  0  0  0  0  0
  -36.1614   65.4960   60.3576 H   0  0  0  0  0  0  0  0  0  0  0  0
  -33.2535   64.1987   65.5721 O   0  0  0  0  0  0  0  0  0  0  0  0
  -33.0755   65.6226   67.7302 O   0  0  0  0  0  0  0  0  0  0  0  0
  -32.8081   66.6892   65.5668 O   0  0  0  0  0  0  0  0  0  0  0  0
  -31.0318   65.3133   66.4757 O   0  0  0  0  0  0  0  0  0  0  0  0
  -32.5099   65.4643   66.3577 S   0  0  0  0  0  0  0  0  0  0  0  0
  -34.0387   65.7225   67.6734 H   0  0  0  0  0  0  0  0  0  0  0  0
  -30.8282   64.5166   66.9902 H   0  0  0  0  0  0  0  0  0  0  0  0
  2  1  1  0  0  0
  2  4  1  0  0  0
  2  5  1  0  0  0
 41 42  1  0  0  0
 41  1  1  0  0  0
 42 46  1  0  0  0
  1 24  1  0  0  0
 23 24  1  0  0  0
 23 25  1  0  0  0
 24 26  1  0  0  0
  3  4  2  0  0  0
 26 27  2  0  0  0
 27 28  1  0  0  0
 43 47  1  0  0  0
 43 51  1  0  0  0
 28 29  1  0  0  0
 56 48  1  0  0  0
 56 60  1  0  0  0
 29 30  1  0  0  0
 57 60  1  0  0  0
 57 61  1  0  0  0
 30 31  1  0  0  0
 44 49  1  0  0  0
 44 52  1  0  0  0
 31 32  1  0  0  0
 45 46  1  0  0  0
 45 50  1  0  0  0
 32 33  1  0  0  0
 53 54  1  0  0  0
 53 55  1  0  0  0
 33 34  1  0  0  0
 34 35  1  0  0  0
 35 36  1  0  0  0
 58 60  1  0  0  0
 36 37  1  0  0  0
 59 60  1  0  0  0
 59 62  1  0  0  0
 37 38  1  0  0  0
 38 39  1  0  0  0
 39 40  1  0  0  0
  4  6  1  0  0  0
  6  7  1  0  0  0
  7  8  1  0  0  0
  8  9  1  0  0  0
  9 10  1  0  0  0
 10 11  1  0  0  0
 11 12  1  0  0  0
 12 13  1  0  0  0
 13 14  1  0  0  0
 14 15  1  0  0  0
 15 16  1  0  0  0
 16 17  1  0  0  0
 17 18  1  0  0  0
 18 19  1  0  0  0
 19 20  1  0  0  0
 20 21  1  0  0  0
 21 22  1  0  0  0
 46 47  1  0  0  0
 47 48  1  0  0  0
 48 49  1  0  0  0
 49 50  1  0  0  0
 50 54  1  0  0  0
M  CHG 1  58  -1
M  END
> <minimizedAffinity>
-8.64537

> <CNNscore>
0.1679264158

> <CNNaffinity>
6.2775354385

> <CNN_VS>
1.0541640520

> <CNNaffinity_variance>
0.6477421522

$$$$
/media/chris/experiments/cd1a-new-docking/inputs/ligands/1onq_ligand.pdb


 62 62  0  0  0  0  0  0  0  0999 V2000
  -45.2016   58.5840   66.3399 C   0  0  0  0  0  0  0  0  0  0  0  0
  -44.5531   57.6400   65.4514 N   0  0  0  0  0  0  0  0  0  0  0  0
  -42.4448   57.5730   66.2868 O   0  0  0  0  0  0  0  0  0  0  0  0
  -43.2820   57.2169   65.4805 C   0  0  0  0  0  0  0  0  0  0  0  0
  -45.1168   57.2626   64.7379 H   0  0  0  0  0  0  0  0  0  0  0  0
  -42.9167   56.2217   64.4195 C   0  0  0  0  0  0  0  0  0  0  0  0
  -41.4913   56.5586   63.9815 C   0  0  0  0  0  0  0  0  0  0  0  0
  -41.0250   55.5685   62.9169 C   0  0  0  0  0  0  0  0  0  0  0  0
  -41.6699   55.7021   61.5587 C   0  0  0  0  0  0  0  0  0  0  0  0
  -40.8094   56.6514   60.7314 C   0  0  0  0  0  0  0  0  0  0  0  0
  -41.6038   57.8420   60.1780 C   0  0  0  0  0  0  0  0  0  0  0  0
  -40.7415   58.9027   59.4695 C   0  0  0  0  0  0  0  0  0  0  0  0
  -39.5030   58.3004   58.7704 C   0  0  0  0  0  0  0  0  0  0  0  0
  -38.2156   58.9085   59.3341 C   0  0  0  0  0  0  0  0  0  0  0  0
  -38.4138   59.8772   60.4936 C   0  0  0  0  0  0  0  0  0  0  0  0
  -37.7142   59.4105   61.7617 C   0  0  0  0  0  0  0  0  0  0  0  0
  -37.6557   57.8965   61.9774 C   0  0  0  0  0  0  0  0  0  0  0  0
  -36.3543   57.5685   62.6969 C   0  0  0  0  0  0  0  0  0  0  0  0
  -35.1451   58.4613   62.4602 C   0  0  0  0  0  0  0  0  0  0  0  0
  -33.8397   57.7139   62.7755 C   0  0  0  0  0  0  0  0  0  0  0  0
  -32.8313   58.5173   63.6173 C   0  0  0  0  0  0  0  0  0  0  0  0
  -33.1864   58.5654   65.1016 C   0  0  0  0  0  0  0  0  0  0  0  0
  -46.5245   56.7068   65.9908 O   0  0  0  0  0  0  0  0  0  0  0  0
  -46.6256   58.0585   66.3988 C   0  0  0  0  0  0  0  0  0  0  0  0
  -45.9584   56.2230   66.6123 H   0  0  0  0  0  0  0  0  0  0  0  0
  -47.5087   58.8807   65.4572 C   0  0  0  0  0  0  0  0  0  0  0  0
  -48.4941   59.6839   65.8931 C   0  0  0  0  0  0  0  0  0  0  0  0
  -49.3329   60.4720   64.8887 C   0  0  0  0  0  0  0  0  0  0  0  0
  -50.8318   60.1412   64.9354 C   0  0  0  0  0  0  0  0  0  0  0  0
  -51.5855   60.2735   63.5992 C   0  0  0  0  0  0  0  0  0  0  0  0
  -50.7787   59.6276   62.4472 C   0  0  0  0  0  0  0  0  0  0  0  0
  -50.8252   58.0796   62.3935 C   0  0  0  0  0  0  0  0  0  0  0  0
  -50.7298   57.4921   60.9657 C   0  0  0  0  0  0  0  0  0  0  0  0
  -50.0943   58.4574   59.9419 C   0  0  0  0  0  0  0  0  0  0  0  0
  -48.5795   58.2795   59.7827 C   0  0  0  0  0  0  0  0  0  0  0  0
  -48.0600   56.8456   59.8627 C   0  0  0  0  0  0  0  0  0  0  0  0
  -47.2128   56.4181   58.6481 C   0  0  0  0  0  0  0  0  0  0  0  0
  -47.9697   56.3508   57.3129 C   0  0  0  0  0  0  0  0  0  0  0  0
  -47.8061   57.6518   56.5219 C   0  0  0  0  0  0  0  0  0  0  0  0
  -46.6570   58.5538   56.9360 C   0  0  0  0  0  0  0  0  0  0  0  0
  -45.0193   60.0748   65.9749 C   0  0  0  0  0  0  0  0  0  0  0  0
  -43.8158   60.7194   66.4640 O   0  0  0  0  0  0  0  0  0  0  0  0
  -41.0026   60.4838   66.9195 O   0  0  0  0  0  0  0  0  0  0  0  0
  -40.9504   59.5673   62.8504 O   0  0  0  0  0  0  0  0  0  0  0  0
  -43.1914   61.1264   64.1553 O   0  0  0  0  0  0  0  0  0  0  0  0
  -42.7599   61.1734   65.5370 C   0  0  0  0  0  0  0  0  0  0  0  0
  -41.4327   60.4036   65.5956 C   0  0  0  0  0  0  0  0  0  0  0  0
  -40.3308   60.9972   64.6907 C   0  0  0  0  0  0  0  0  0  0  0  0
  -40.8564   60.9221   63.2838 C   0  0  0  0  0  0  0  0  0  0  0  0
  -42.2069   61.6105   63.2024 C   0  0  0  0  0  0  0  0  0  0  0  0
  -41.6834   60.1147   67.5034 H   0  0  0  0  0  0  0  0  0  0  0  0
  -40.0780   59.1473   62.9106 H   0  0  0  0  0  0  0  0  0  0  0  0
  -42.6542   62.6563   61.1002 O   0  0  0  0  0  0  0  0  0  0  0  0
  -42.5565   61.4137   61.7289 C   0  0  0  0  0  0  0  0  0  0  0  0
  -42.8762   62.5287   60.1645 H   0  0  0  0  0  0  0  0  0  0  0  0
  -39.0674   60.2948   64.6857 O   0  0  0  0  0  0  0  0  0  0  0  0
  -37.8328   61.0216   66.8454 O   0  0  0  0  0  0  0  0  0  0  0  0
  -37.4933   62.2725   64.7938 O   0  0  0  0  0  0  0  0  0  0  0  0
  -36.4597   60.0992   65.0819 O   0  0  0  0  0  0  0  0  0  0  0  0
  -37.6776   60.9106   65.3648 S   0  0  0  0  0  0  0  0  0  0  0  0
  -38.6220   61.5475   67.0492 H   0  0  0  0  0  0  0  0  0  0  0  0
  -36.5714   59.2091   65.4509 H   0  0  0  0  0  0  0  0  0  0  0  0
  2  1  1  0  0  0
  2  4  1  0  0  0
  2  5  1  0  0  0
 41 42  1  0  0  0
 41  1  1  0  0  0
 42 46  1  0  0  0
  1 24  1  0  0  0
 23 24  1  0  0  0
 23 25  1  0  0  0
 24 26  1  0  0  0
  3  4  2  0  0  0
 26 27  2  0  0  0
 27 28  1  0  0  0
 43 47  1  0  0  0
 43 51  1  0  0  0
 28 29  1  0  0  0
 56 48  1  0  0  0
 56 60  1  0  0  0
 29 30  1  0  0  0
 57 60  1  0  0  0
 57 61  1  0  0  0
 30 31  1  0  0  0
 44 49  1  0  0  0
 44 52  1  0  0  0
 31 32  1  0  0  0
 45 46  1  0  0  0
 45 50  1  0  0  0
 32 33  1  0  0  0
 53 54  1  0  0  0
 53 55  1  0  0  0
 33 34  1  0  0  0
 34 35  1  0  0  0
 35 36  1  0  0  0
 58 60  1  0  0  0
 36 37  1  0  0  0
 59 60  1  0  0  0
 59 62  1  0  0  0
 37 38  1  0  0  0
 38 39  1  0  0  0
 39 40  1  0  0  0
  4  6  1  0  0  0
  6  7  1  0  0  0
  7  8  1  0  0  0
  8  9  1  0  0  0
  9 10  1  0  0  0
 10 11  1  0  0  0
 11 12  1  0  0  0
 12 13  1  0  0  0
 13 14  1  0  0  0
 14 15  1  0  0  0
 15 16  1  0  0  0
 16 17  1  0  0  0
 17 18  1  0  0  0
 18 19  1  0  0  0
 19 20  1  0  0  0
 20 21  1  0  0  0
 21 22  1  0  0  0
 46 47  1  0  0  0
 47 48  1  0  0  0
 48 49  1  0  0  0
 49 50  1  0  0  0
 50 54  1  0  0  0
M  CHG 1  58  -1
M  END
> <minimizedAffinity>
-9.25615

> <CNNscore>
0.1536288410

> <CNNaffinity>
7.0077171326

> <CNN_VS>
1.0765874386

> <CNNaffinity_variance>
2.5009350777

$$$$
/media/chris/experiments/cd1a-new-docking/inputs/ligands/1onq_ligand.pdb


 62 62  0  0  0  0  0  0  0  0999 V2000
  -38.5485   61.2893   64.1686 C   0  0  0  0  0  0  0  0  0  0  0  0
  -39.5826   60.3177   64.4649 N   0  0  0  0  0  0  0  0  0  0  0  0
  -40.6403   61.2737   66.2298 O   0  0  0  0  0  0  0  0  0  0  0  0
  -40.5141   60.3697   65.4268 C   0  0  0  0  0  0  0  0  0  0  0  0
  -39.6032   59.5205   63.8876 H   0  0  0  0  0  0  0  0  0  0  0  0
  -41.4538   59.2015   65.4683 C   0  0  0  0  0  0  0  0  0  0  0  0
  -42.5838   59.5193   64.4888 C   0  0  0  0  0  0  0  0  0  0  0  0
  -43.8473   59.9010   65.2563 C   0  0  0  0  0  0  0  0  0  0  0  0
  -45.1158   59.1982   64.8373 C   0  0  0  0  0  0  0  0  0  0  0  0
  -46.2903   59.9984   65.3907 C   0  0  0  0  0  0  0  0  0  0  0  0
  -47.6475   59.3578   65.0708 C   0  0  0  0  0  0  0  0  0  0  0  0
  -48.8384   59.9994   65.8063 C   0  0  0  0  0  0  0  0  0  0  0  0
  -50.1911   59.3509   65.4385 C   0  0  0  0  0  0  0  0  0  0  0  0
  -51.0605   60.3293   64.6433 C   0  0  0  0  0  0  0  0  0  0  0  0
  -51.4217   59.8732   63.2350 C   0  0  0  0  0  0  0  0  0  0  0  0
  -50.1944   59.6949   62.3534 C   0  0  0  0  0  0  0  0  0  0  0  0
  -49.8254   58.2521   62.0006 C   0  0  0  0  0  0  0  0  0  0  0  0
  -50.6688   57.8235   60.8074 C   0  0  0  0  0  0  0  0  0  0  0  0
  -50.1701   58.1491   59.4072 C   0  0  0  0  0  0  0  0  0  0  0  0
  -48.7313   57.6478   59.2057 C   0  0  0  0  0  0  0  0  0  0  0  0
  -47.8451   58.5759   58.3545 C   0  0  0  0  0  0  0  0  0  0  0  0
  -47.2631   57.8904   57.1205 C   0  0  0  0  0  0  0  0  0  0  0  0
  -37.4784   62.0822   62.2654 O   0  0  0  0  0  0  0  0  0  0  0  0
  -38.1648   60.9393   62.7410 C   0  0  0  0  0  0  0  0  0  0  0  0
  -36.6850   62.2300   62.8034 H   0  0  0  0  0  0  0  0  0  0  0  0
  -39.4315   60.6492   61.9324 C   0  0  0  0  0  0  0  0  0  0  0  0
  -39.4060   60.2712   60.6430 C   0  0  0  0  0  0  0  0  0  0  0  0
  -40.7153   60.0008   59.9039 C   0  0  0  0  0  0  0  0  0  0  0  0
  -40.8708   58.5500   59.4252 C   0  0  0  0  0  0  0  0  0  0  0  0
  -41.8392   57.6777   60.2452 C   0  0  0  0  0  0  0  0  0  0  0  0
  -41.1781   56.3306   60.6241 C   0  0  0  0  0  0  0  0  0  0  0  0
  -40.8850   56.1387   62.1337 C   0  0  0  0  0  0  0  0  0  0  0  0
  -39.8599   57.1423   62.7124 C   0  0  0  0  0  0  0  0  0  0  0  0
  -38.4600   57.0347   62.0702 C   0  0  0  0  0  0  0  0  0  0  0  0
  -37.3425   57.6560   62.9168 C   0  0  0  0  0  0  0  0  0  0  0  0
  -36.1017   58.1180   62.1558 C   0  0  0  0  0  0  0  0  0  0  0  0
  -35.0383   58.7938   63.0438 C   0  0  0  0  0  0  0  0  0  0  0  0
  -33.5825   58.5712   62.6066 C   0  0  0  0  0  0  0  0  0  0  0  0
  -32.6189   58.7755   63.7790 C   0  0  0  0  0  0  0  0  0  0  0  0
  -33.1564   58.4454   65.1602 C   0  0  0  0  0  0  0  0  0  0  0  0
  -37.4016   61.3766   65.2010 C   0  0  0  0  0  0  0  0  0  0  0  0
  -37.2267   62.6519   65.8692 O   0  0  0  0  0  0  0  0  0  0  0  0
  -35.0004   63.5536   67.4209 O   0  0  0  0  0  0  0  0  0  0  0  0
  -33.0092   63.2731   63.7663 O   0  0  0  0  0  0  0  0  0  0  0  0
  -36.0121   63.5747   63.9828 O   0  0  0  0  0  0  0  0  0  0  0  0
  -36.2070   63.6194   65.4172 C   0  0  0  0  0  0  0  0  0  0  0  0
  -34.8121   63.4723   66.0417 C   0  0  0  0  0  0  0  0  0  0  0  0
  -33.8238   64.5818   65.6207 C   0  0  0  0  0  0  0  0  0  0  0  0
  -33.6839   64.4758   64.1272 C   0  0  0  0  0  0  0  0  0  0  0  0
  -35.0539   64.5430   63.4769 C   0  0  0  0  0  0  0  0  0  0  0  0
  -35.6197   62.8628   67.7039 H   0  0  0  0  0  0  0  0  0  0  0  0
  -32.1378   63.2510   64.1920 H   0  0  0  0  0  0  0  0  0  0  0  0
  -35.8351   64.0896   61.2639 O   0  0  0  0  0  0  0  0  0  0  0  0
  -34.6923   64.4094   61.9993 C   0  0  0  0  0  0  0  0  0  0  0  0
  -35.6028   64.0054   60.3258 H   0  0  0  0  0  0  0  0  0  0  0  0
  -32.4858   64.4768   66.1580 O   0  0  0  0  0  0  0  0  0  0  0  0
  -31.8279   66.7868   65.1844 O   0  0  0  0  0  0  0  0  0  0  0  0
  -30.4185   64.8595   64.7506 O   0  0  0  0  0  0  0  0  0  0  0  0
  -30.4048   65.9134   66.9331 O   0  0  0  0  0  0  0  0  0  0  0  0
  -31.2614   65.5372   65.7728 S   0  0  0  0  0  0  0  0  0  0  0  0
  -32.3894   66.5615   64.4262 H   0  0  0  0  0  0  0  0  0  0  0  0
  -30.9467   66.3561   67.6049 H   0  0  0  0  0  0  0  0  0  0  0  0
  2  1  1  0  0  0
  2  4  1  0  0  0
  2  5  1  0  0  0
 41 42  1  0  0  0
 41  1  1  0  0  0
 42 46  1  0  0  0
  1 24  1  0  0  0
 23 24  1  0  0  0
 23 25  1  0  0  0
 24 26  1  0  0  0
  3  4  2  0  0  0
 26 27  2  0  0  0
 27 28  1  0  0  0
 43 47  1  0  0  0
 43 51  1  0  0  0
 28 29  1  0  0  0
 56 48  1  0  0  0
 56 60  1  0  0  0
 29 30  1  0  0  0
 57 60  1  0  0  0
 57 61  1  0  0  0
 30 31  1  0  0  0
 44 49  1  0  0  0
 44 52  1  0  0  0
 31 32  1  0  0  0
 45 46  1  0  0  0
 45 50  1  0  0  0
 32 33  1  0  0  0
 53 54  1  0  0  0
 53 55  1  0  0  0
 33 34  1  0  0  0
 34 35  1  0  0  0
 35 36  1  0  0  0
 58 60  1  0  0  0
 36 37  1  0  0  0
 59 60  1  0  0  0
 59 62  1  0  0  0
 37 38  1  0  0  0
 38 39  1  0  0  0
 39 40  1  0  0  0
  4  6  1  0  0  0
  6  7  1  0  0  0
  7  8  1  0  0  0
  8  9  1  0  0  0
  9 10  1  0  0  0
 10 11  1  0  0  0
 11 12  1  0  0  0
 12 13  1  0  0  0
 13 14  1  0  0  0
 14 15  1  0  0  0
 15 16  1  0  0  0
 16 17  1  0  0  0
 17 18  1  0  0  0
 18 19  1  0  0  0
 19 20  1  0  0  0
 20 21  1  0  0  0
 21 22  1  0  0  0
 46 47  1  0  0  0
 47 48  1  0  0  0
 48 49  1  0  0  0
 49 50  1  0  0  0
 50 54  1  0  0  0
M  CHG 1  58  -1
M  END
> <minimizedAffinity>
-9.68147

> <CNNscore>
0.1495143026

> <CNNaffinity>
6.9517226219

> <CNN_VS>
1.0393819809

> <CNNaffinity_variance>
0.9861327410

$$$$
