/media/chris/experiments/cd1a-new-docking/inputs/ligands/1onq_ligand.pdb


 62 62  0  0  0  0  0  0  0  0999 V2000
  -41.6230   59.9980   64.9790 C   0  0  0  0  0  0  0  0  0  0  0  0
  -41.6442   58.6218   64.5245 N   0  0  0  0  0  0  0  0  0  0  0  0
  -42.6210   57.5587   66.2747 O   0  0  0  0  0  0  0  0  0  0  0  0
  -42.1174   57.5461   65.1684 C   0  0  0  0  0  0  0  0  0  0  0  0
  -41.2635   58.4568   63.6316 H   0  0  0  0  0  0  0  0  0  0  0  0
  -42.0001   56.2518   64.4194 C   0  0  0  0  0  0  0  0  0  0  0  0
  -41.0072   56.4972   63.2831 C   0  0  0  0  0  0  0  0  0  0  0  0
  -41.2867   55.5366   62.1298 C   0  0  0  0  0  0  0  0  0  0  0  0
  -41.3926   56.1592   60.7588 C   0  0  0  0  0  0  0  0  0  0  0  0
  -41.8164   57.6125   60.9441 C   0  0  0  0  0  0  0  0  0  0  0  0
  -41.1238   58.5625   59.9579 C   0  0  0  0  0  0  0  0  0  0  0  0
  -39.9229   57.9424   59.2205 C   0  0  0  0  0  0  0  0  0  0  0  0
  -38.7548   58.9356   59.0338 C   0  0  0  0  0  0  0  0  0  0  0  0
  -37.7353   58.7893   60.1670 C   0  0  0  0  0  0  0  0  0  0  0  0
  -38.1362   57.8224   61.2745 C   0  0  0  0  0  0  0  0  0  0  0  0
  -37.0917   57.7437   62.3781 C   0  0  0  0  0  0  0  0  0  0  0  0
  -37.6225   57.8241   63.8113 C   0  0  0  0  0  0  0  0  0  0  0  0
  -36.4308   57.8620   64.7585 C   0  0  0  0  0  0  0  0  0  0  0  0
  -35.3464   58.9034   64.5249 C   0  0  0  0  0  0  0  0  0  0  0  0
  -33.9608   58.3449   64.8857 C   0  0  0  0  0  0  0  0  0  0  0  0
  -32.8946   58.5245   63.7894 C   0  0  0  0  0  0  0  0  0  0  0  0
  -33.4799   58.5729   62.3799 C   0  0  0  0  0  0  0  0  0  0  0  0
  -42.1846   62.0996   64.1644 O   0  0  0  0  0  0  0  0  0  0  0  0
  -42.3494   60.7268   63.8615 C   0  0  0  0  0  0  0  0  0  0  0  0
  -41.2404   62.3214   64.1565 H   0  0  0  0  0  0  0  0  0  0  0  0
  -43.8219   60.3098   63.8576 C   0  0  0  0  0  0  0  0  0  0  0  0
  -44.7723   60.9732   64.5380 C   0  0  0  0  0  0  0  0  0  0  0  0
  -46.2214   60.4929   64.4842 C   0  0  0  0  0  0  0  0  0  0  0  0
  -46.5040   59.2696   65.3683 C   0  0  0  0  0  0  0  0  0  0  0  0
  -47.8803   59.2499   66.0588 C   0  0  0  0  0  0  0  0  0  0  0  0
  -48.9423   58.5884   65.1478 C   0  0  0  0  0  0  0  0  0  0  0  0
  -50.3179   59.3011   65.1094 C   0  0  0  0  0  0  0  0  0  0  0  0
  -50.7651   59.7392   63.6949 C   0  0  0  0  0  0  0  0  0  0  0  0
  -49.6053   60.2434   62.8091 C   0  0  0  0  0  0  0  0  0  0  0  0
  -49.5671   59.6015   61.4169 C   0  0  0  0  0  0  0  0  0  0  0  0
  -49.8247   58.0970   61.3641 C   0  0  0  0  0  0  0  0  0  0  0  0
  -49.3385   57.4240   60.0655 C   0  0  0  0  0  0  0  0  0  0  0  0
  -48.6962   58.3693   59.0389 C   0  0  0  0  0  0  0  0  0  0  0  0
  -47.5504   57.6769   58.2953 C   0  0  0  0  0  0  0  0  0  0  0  0
  -46.9712   58.4205   57.1049 C   0  0  0  0  0  0  0  0  0  0  0  0
  -40.2352   60.5437   65.3852 C   0  0  0  0  0  0  0  0  0  0  0  0
  -39.4518   61.1681   64.3366 O   0  0  0  0  0  0  0  0  0  0  0  0
  -37.6113   61.6980   62.2131 O   0  0  0  0  0  0  0  0  0  0  0  0
  -36.0118   64.3863   64.9724 O   0  0  0  0  0  0  0  0  0  0  0  0
  -37.6930   62.0047   65.7829 O   0  0  0  0  0  0  0  0  0  0  0  0
  -38.0040   61.4062   64.5013 C   0  0  0  0  0  0  0  0  0  0  0  0
  -37.3412   62.2986   63.4421 C   0  0  0  0  0  0  0  0  0  0  0  0
  -35.8092   62.4146   63.5991 C   0  0  0  0  0  0  0  0  0  0  0  0
  -35.5704   63.0311   64.9497 C   0  0  0  0  0  0  0  0  0  0  0  0
  -36.2746   62.2152   66.0186 C   0  0  0  0  0  0  0  0  0  0  0  0
  -38.5709   61.6168   62.0969 H   0  0  0  0  0  0  0  0  0  0  0  0
  -35.5500   64.8884   64.2828 H   0  0  0  0  0  0  0  0  0  0  0  0
  -34.5354   63.1517   67.3646 O   0  0  0  0  0  0  0  0  0  0  0  0
  -35.9207   63.0014   67.2791 C   0  0  0  0  0  0  0  0  0  0  0  0
  -34.3132   63.6513   68.1658 H   0  0  0  0  0  0  0  0  0  0  0  0
  -35.1363   63.2660   62.6440 O   0  0  0  0  0  0  0  0  0  0  0  0
  -32.8871   62.0326   63.0137 O   0  0  0  0  0  0  0  0  0  0  0  0
  -32.9623   64.4538   63.1578 O   0  0  0  0  0  0  0  0  0  0  0  0
  -33.0674   63.3572   60.9990 O   0  0  0  0  0  0  0  0  0  0  0  0
  -33.4856   63.2680   62.4268 S   0  0  0  0  0  0  0  0  0  0  0  0
  -33.1488   61.9573   63.9447 H   0  0  0  0  0  0  0  0  0  0  0  0
  -33.4045   62.5874   60.5146 H   0  0  0  0  0  0  0  0  0  0  0  0
  2  1  1  0  0  0
  2  4  1  0  0  0
  2  5  1  0  0  0
 41 42  1  0  0  0
 41  1  1  0  0  0
 42 46  1  0  0  0
  1 24  1  0  0  0
 23 24  1  0  0  0
 23 25  1  0  0  0
 24 26  1  0  0  0
  3  4  2  0  0  0
 26 27  2  0  0  0
 27 28  1  0  0  0
 43 47  1  0  0  0
 43 51  1  0  0  0
 28 29  1  0  0  0
 56 48  1  0  0  0
 56 60  1  0  0  0
 29 30  1  0  0  0
 57 60  1  0  0  0
 57 61  1  0  0  0
 30 31  1  0  0  0
 44 49  1  0  0  0
 44 52  1  0  0  0
 31 32  1  0  0  0
 45 46  1  0  0  0
 45 50  1  0  0  0
 32 33  1  0  0  0
 53 54  1  0  0  0
 53 55  1  0  0  0
 33 34  1  0  0  0
 34 35  1  0  0  0
 35 36  1  0  0  0
 58 60  1  0  0  0
 36 37  1  0  0  0
 59 60  1  0  0  0
 59 62  1  0  0  0
 37 38  1  0  0  0
 38 39  1  0  0  0
 39 40  1  0  0  0
  4  6  1  0  0  0
  6  7  1  0  0  0
  7  8  1  0  0  0
  8  9  1  0  0  0
  9 10  1  0  0  0
 10 11  1  0  0  0
 11 12  1  0  0  0
 12 13  1  0  0  0
 13 14  1  0  0  0
 14 15  1  0  0  0
 15 16  1  0  0  0
 16 17  1  0  0  0
 17 18  1  0  0  0
 18 19  1  0  0  0
 19 20  1  0  0  0
 20 21  1  0  0  0
 21 22  1  0  0  0
 46 47  1  0  0  0
 47 48  1  0  0  0
 48 49  1  0  0  0
 49 50  1  0  0  0
 50 54  1  0  0  0
M  CHG 1  58  -1
M  END
> <minimizedAffinity>
-9.69691

> <CNNscore>
0.3190575242

> <CNNaffinity>
7.2245345116

> <CNN_VS>
2.3050420284

> <CNNaffinity_variance>
2.1885159016

$$$$
/media/chris/experiments/cd1a-new-docking/inputs/ligands/1onq_ligand.pdb


 62 62  0  0  0  0  0  0  0  0999 V2000
  -41.5643   60.5286   64.5279 C   0  0  0  0  0  0  0  0  0  0  0  0
  -42.2963   59.2815   64.6279 N   0  0  0  0  0  0  0  0  0  0  0  0
  -41.9284   58.6867   66.7862 O   0  0  0  0  0  0  0  0  0  0  0  0
  -42.4246   58.4819   65.6955 C   0  0  0  0  0  0  0  0  0  0  0  0
  -42.7564   58.9850   63.8095 H   0  0  0  0  0  0  0  0  0  0  0  0
  -43.2619   57.2566   65.4776 C   0  0  0  0  0  0  0  0  0  0  0  0
  -44.6238   57.7448   64.9834 C   0  0  0  0  0  0  0  0  0  0  0  0
  -45.5350   58.0396   66.1724 C   0  0  0  0  0  0  0  0  0  0  0  0
  -46.0527   59.4536   66.2769 C   0  0  0  0  0  0  0  0  0  0  0  0
  -46.6948   59.8092   64.9400 C   0  0  0  0  0  0  0  0  0  0  0  0
  -48.0947   60.4178   65.0979 C   0  0  0  0  0  0  0  0  0  0  0  0
  -49.0540   59.5806   65.9635 C   0  0  0  0  0  0  0  0  0  0  0  0
  -50.2637   59.0411   65.1692 C   0  0  0  0  0  0  0  0  0  0  0  0
  -51.0581   60.1928   64.5467 C   0  0  0  0  0  0  0  0  0  0  0  0
  -51.1729   60.1501   63.0277 C   0  0  0  0  0  0  0  0  0  0  0  0
  -50.2981   59.0676   62.4129 C   0  0  0  0  0  0  0  0  0  0  0  0
  -51.0376   57.9067   61.7440 C   0  0  0  0  0  0  0  0  0  0  0  0
  -50.1374   57.3313   60.6590 C   0  0  0  0  0  0  0  0  0  0  0  0
  -48.7718   57.9632   60.4334 C   0  0  0  0  0  0  0  0  0  0  0  0
  -48.6235   58.4489   58.9828 C   0  0  0  0  0  0  0  0  0  0  0  0
  -47.3811   57.9074   58.2520 C   0  0  0  0  0  0  0  0  0  0  0  0
  -47.3164   56.3822   58.2194 C   0  0  0  0  0  0  0  0  0  0  0  0
  -43.6732   61.0366   63.6971 O   0  0  0  0  0  0  0  0  0  0  0  0
  -42.3031   61.2580   63.4190 C   0  0  0  0  0  0  0  0  0  0  0  0
  -43.8938   61.4193   64.5606 H   0  0  0  0  0  0  0  0  0  0  0  0
  -41.8880   60.6765   62.0656 C   0  0  0  0  0  0  0  0  0  0  0  0
  -41.6187   61.4396   60.9925 C   0  0  0  0  0  0  0  0  0  0  0  0
  -41.2113   60.7826   59.6751 C   0  0  0  0  0  0  0  0  0  0  0  0
  -39.9340   59.9357   59.7718 C   0  0  0  0  0  0  0  0  0  0  0  0
  -40.0333   58.5115   59.1947 C   0  0  0  0  0  0  0  0  0  0  0  0
  -41.3157   57.8043   59.6953 C   0  0  0  0  0  0  0  0  0  0  0  0
  -41.0795   56.5590   60.5871 C   0  0  0  0  0  0  0  0  0  0  0  0
  -41.2116   56.8319   62.1039 C   0  0  0  0  0  0  0  0  0  0  0  0
  -39.9055   57.3334   62.7572 C   0  0  0  0  0  0  0  0  0  0  0  0
  -38.6451   57.0098   61.9459 C   0  0  0  0  0  0  0  0  0  0  0  0
  -37.3922   57.8054   62.3061 C   0  0  0  0  0  0  0  0  0  0  0  0
  -37.1846   57.9937   63.8218 C   0  0  0  0  0  0  0  0  0  0  0  0
  -35.7521   57.7526   64.3215 C   0  0  0  0  0  0  0  0  0  0  0  0
  -34.7515   58.6349   63.5696 C   0  0  0  0  0  0  0  0  0  0  0  0
  -33.6996   57.9126   62.7466 C   0  0  0  0  0  0  0  0  0  0  0  0
  -40.0323   60.3911   64.3767 C   0  0  0  0  0  0  0  0  0  0  0  0
  -39.2978   61.6074   64.0866 O   0  0  0  0  0  0  0  0  0  0  0  0
  -37.2790   61.6929   62.0630 O   0  0  0  0  0  0  0  0  0  0  0  0
  -35.5504   64.4787   64.6418 O   0  0  0  0  0  0  0  0  0  0  0  0
  -37.5466   62.4010   65.5661 O   0  0  0  0  0  0  0  0  0  0  0  0
  -37.8451   61.7018   64.3334 C   0  0  0  0  0  0  0  0  0  0  0  0
  -37.0175   62.3929   63.2402 C   0  0  0  0  0  0  0  0  0  0  0  0
  -35.4953   62.3564   63.4982 C   0  0  0  0  0  0  0  0  0  0  0  0
  -35.2704   63.0890   64.7921 C   0  0  0  0  0  0  0  0  0  0  0  0
  -36.1308   62.4792   65.8839 C   0  0  0  0  0  0  0  0  0  0  0  0
  -38.2324   61.7053   61.8846 H   0  0  0  0  0  0  0  0  0  0  0  0
  -34.9907   64.8473   63.9405 H   0  0  0  0  0  0  0  0  0  0  0  0
  -36.2034   62.7493   68.2578 O   0  0  0  0  0  0  0  0  0  0  0  0
  -35.7663   63.3568   67.0794 C   0  0  0  0  0  0  0  0  0  0  0  0
  -35.9708   63.3085   69.0155 H   0  0  0  0  0  0  0  0  0  0  0  0
  -34.6689   63.0174   62.5133 O   0  0  0  0  0  0  0  0  0  0  0  0
  -32.5096   63.4099   61.1348 O   0  0  0  0  0  0  0  0  0  0  0  0
  -32.8475   61.2813   62.2500 O   0  0  0  0  0  0  0  0  0  0  0  0
  -32.2389   63.2462   63.5319 O   0  0  0  0  0  0  0  0  0  0  0  0
  -33.0314   62.7531   62.3698 S   0  0  0  0  0  0  0  0  0  0  0  0
  -33.0142   63.1007   60.3663 H   0  0  0  0  0  0  0  0  0  0  0  0
  -32.3530   64.2056   63.6174 H   0  0  0  0  0  0  0  0  0  0  0  0
  2  1  1  0  0  0
  2  4  1  0  0  0
  2  5  1  0  0  0
 41 42  1  0  0  0
 41  1  1  0  0  0
 42 46  1  0  0  0
  1 24  1  0  0  0
 23 24  1  0  0  0
 23 25  1  0  0  0
 24 26  1  0  0  0
  3  4  2  0  0  0
 26 27  2  0  0  0
 27 28  1  0  0  0
 43 47  1  0  0  0
 43 51  1  0  0  0
 28 29  1  0  0  0
 56 48  1  0  0  0
 56 60  1  0  0  0
 29 30  1  0  0  0
 57 60  1  0  0  0
 57 61  1  0  0  0
 30 31  1  0  0  0
 44 49  1  0  0  0
 44 52  1  0  0  0
 31 32  1  0  0  0
 45 46  1  0  0  0
 45 50  1  0  0  0
 32 33  1  0  0  0
 53 54  1  0  0  0
 53 55  1  0  0  0
 33 34  1  0  0  0
 34 35  1  0  0  0
 35 36  1  0  0  0
 58 60  1  0  0  0
 36 37  1  0  0  0
 59 60  1  0  0  0
 59 62  1  0  0  0
 37 38  1  0  0  0
 38 39  1  0  0  0
 39 40  1  0  0  0
  4  6  1  0  0  0
  6  7  1  0  0  0
  7  8  1  0  0  0
  8  9  1  0  0  0
  9 10  1  0  0  0
 10 11  1  0  0  0
 11 12  1  0  0  0
 12 13  1  0  0  0
 13 14  1  0  0  0
 14 15  1  0  0  0
 15 16  1  0  0  0
 16 17  1  0  0  0
 17 18  1  0  0  0
 18 19  1  0  0  0
 19 20  1  0  0  0
 20 21  1  0  0  0
 21 22  1  0  0  0
 46 47  1  0  0  0
 47 48  1  0  0  0
 48 49  1  0  0  0
 49 50  1  0  0  0
 50 54  1  0  0  0
M  CHG 1  58  -1
M  END
> <minimizedAffinity>
-9.73045

> <CNNscore>
0.1837862432

> <CNNaffinity>
7.1683144569

> <CNN_VS>
1.3174375296

> <CNNaffinity_variance>
1.9030268192

$$$$
/media/chris/experiments/cd1a-new-docking/inputs/ligands/1onq_ligand.pdb


 62 62  0  0  0  0  0  0  0  0999 V2000
  -40.9004   59.5278   64.1681 C   0  0  0  0  0  0  0  0  0  0  0  0
  -42.1953   59.8876   64.7110 N   0  0  0  0  0  0  0  0  0  0  0  0
  -42.4230   62.0343   64.0128 O   0  0  0  0  0  0  0  0  0  0  0  0
  -42.8402   61.0574   64.6040 C   0  0  0  0  0  0  0  0  0  0  0  0
  -42.6588   59.1852   65.2220 H   0  0  0  0  0  0  0  0  0  0  0  0
  -44.1798   61.1109   65.2765 C   0  0  0  0  0  0  0  0  0  0  0  0
  -45.2070   61.3762   64.1757 C   0  0  0  0  0  0  0  0  0  0  0  0
  -46.4953   60.6114   64.4694 C   0  0  0  0  0  0  0  0  0  0  0  0
  -46.3809   59.1066   64.5013 C   0  0  0  0  0  0  0  0  0  0  0  0
  -47.4532   58.5830   65.4511 C   0  0  0  0  0  0  0  0  0  0  0  0
  -48.1434   59.7028   66.2413 C   0  0  0  0  0  0  0  0  0  0  0  0
  -49.6508   59.8393   65.9588 C   0  0  0  0  0  0  0  0  0  0  0  0
  -50.2290   58.6322   65.1880 C   0  0  0  0  0  0  0  0  0  0  0  0
  -50.8304   59.0815   63.8533 C   0  0  0  0  0  0  0  0  0  0  0  0
  -50.1241   60.2584   63.1913 C   0  0  0  0  0  0  0  0  0  0  0  0
  -49.4000   59.8537   61.9158 C   0  0  0  0  0  0  0  0  0  0  0  0
  -49.4166   58.3608   61.5795 C   0  0  0  0  0  0  0  0  0  0  0  0
  -50.2370   58.1678   60.3113 C   0  0  0  0  0  0  0  0  0  0  0  0
  -49.5070   57.8865   59.0063 C   0  0  0  0  0  0  0  0  0  0  0  0
  -48.0237   57.5760   59.2618 C   0  0  0  0  0  0  0  0  0  0  0  0
  -47.2306   57.1703   58.0059 C   0  0  0  0  0  0  0  0  0  0  0  0
  -46.9302   58.3436   57.0761 C   0  0  0  0  0  0  0  0  0  0  0  0
  -39.7208   57.6377   64.8250 O   0  0  0  0  0  0  0  0  0  0  0  0
  -40.9369   58.0096   64.2035 C   0  0  0  0  0  0  0  0  0  0  0  0
  -39.6945   57.9975   65.7254 H   0  0  0  0  0  0  0  0  0  0  0  0
  -41.0424   57.4716   62.7746 C   0  0  0  0  0  0  0  0  0  0  0  0
  -41.5709   58.1809   61.7627 C   0  0  0  0  0  0  0  0  0  0  0  0
  -41.6414   57.5725   60.3633 C   0  0  0  0  0  0  0  0  0  0  0  0
  -40.8112   58.3271   59.3148 C   0  0  0  0  0  0  0  0  0  0  0  0
  -40.4787   59.7914   59.6558 C   0  0  0  0  0  0  0  0  0  0  0  0
  -38.9850   59.9421   60.0322 C   0  0  0  0  0  0  0  0  0  0  0  0
  -38.1267   58.6633   59.8593 C   0  0  0  0  0  0  0  0  0  0  0  0
  -37.9280   57.8530   61.1618 C   0  0  0  0  0  0  0  0  0  0  0  0
  -37.2918   58.6706   62.3068 C   0  0  0  0  0  0  0  0  0  0  0  0
  -36.0828   57.9867   62.9564 C   0  0  0  0  0  0  0  0  0  0  0  0
  -35.8196   58.3366   64.4196 C   0  0  0  0  0  0  0  0  0  0  0  0
  -34.6357   59.3011   64.6293 C   0  0  0  0  0  0  0  0  0  0  0  0
  -33.2889   58.6281   64.9345 C   0  0  0  0  0  0  0  0  0  0  0  0
  -32.4739   58.4232   63.6543 C   0  0  0  0  0  0  0  0  0  0  0  0
  -32.0960   59.6775   62.8864 C   0  0  0  0  0  0  0  0  0  0  0  0
  -39.6858   60.2152   64.8323 C   0  0  0  0  0  0  0  0  0  0  0  0
  -39.0278   61.2535   64.0628 O   0  0  0  0  0  0  0  0  0  0  0  0
  -37.2215   62.4536   62.1987 O   0  0  0  0  0  0  0  0  0  0  0  0
  -36.1601   64.7574   65.5100 O   0  0  0  0  0  0  0  0  0  0  0  0
  -37.4730   62.0418   65.7500 O   0  0  0  0  0  0  0  0  0  0  0  0
  -37.6419   61.6659   64.3616 C   0  0  0  0  0  0  0  0  0  0  0  0
  -37.0915   62.8358   63.5333 C   0  0  0  0  0  0  0  0  0  0  0  0
  -35.6031   63.1436   63.8069 C   0  0  0  0  0  0  0  0  0  0  0  0
  -35.5106   63.5129   65.2617 C   0  0  0  0  0  0  0  0  0  0  0  0
  -36.1143   62.4092   66.1113 C   0  0  0  0  0  0  0  0  0  0  0  0
  -38.1519   62.2559   62.0081 H   0  0  0  0  0  0  0  0  0  0  0  0
  -35.7594   65.4470   64.9579 H   0  0  0  0  0  0  0  0  0  0  0  0
  -34.5995   63.3511   67.7024 O   0  0  0  0  0  0  0  0  0  0  0  0
  -35.9318   62.9776   67.5168 C   0  0  0  0  0  0  0  0  0  0  0  0
  -34.4862   63.7117   68.5958 H   0  0  0  0  0  0  0  0  0  0  0  0
  -35.0399   64.2550   63.0737 O   0  0  0  0  0  0  0  0  0  0  0  0
  -35.2400   63.8366   60.5238 O   0  0  0  0  0  0  0  0  0  0  0  0
  -33.3704   62.8918   61.7488 O   0  0  0  0  0  0  0  0  0  0  0  0
  -33.4217   65.2607   61.2394 O   0  0  0  0  0  0  0  0  0  0  0  0
  -34.2530   64.0825   61.6166 S   0  0  0  0  0  0  0  0  0  0  0  0
  -35.7912   63.0718   60.7520 H   0  0  0  0  0  0  0  0  0  0  0  0
  -33.9896   66.0421   61.1509 H   0  0  0  0  0  0  0  0  0  0  0  0
  2  1  1  0  0  0
  2  4  1  0  0  0
  2  5  1  0  0  0
 41 42  1  0  0  0
 41  1  1  0  0  0
 42 46  1  0  0  0
  1 24  1  0  0  0
 23 24  1  0  0  0
 23 25  1  0  0  0
 24 26  1  0  0  0
  3  4  2  0  0  0
 26 27  2  0  0  0
 27 28  1  0  0  0
 43 47  1  0  0  0
 43 51  1  0  0  0
 28 29  1  0  0  0
 56 48  1  0  0  0
 56 60  1  0  0  0
 29 30  1  0  0  0
 57 60  1  0  0  0
 57 61  1  0  0  0
 30 31  1  0  0  0
 44 49  1  0  0  0
 44 52  1  0  0  0
 31 32  1  0  0  0
 45 46  1  0  0  0
 45 50  1  0  0  0
 32 33  1  0  0  0
 53 54  1  0  0  0
 53 55  1  0  0  0
 33 34  1  0  0  0
 34 35  1  0  0  0
 35 36  1  0  0  0
 58 60  1  0  0  0
 36 37  1  0  0  0
 59 60  1  0  0  0
 59 62  1  0  0  0
 37 38  1  0  0  0
 38 39  1  0  0  0
 39 40  1  0  0  0
  4  6  1  0  0  0
  6  7  1  0  0  0
  7  8  1  0  0  0
  8  9  1  0  0  0
  9 10  1  0  0  0
 10 11  1  0  0  0
 11 12  1  0  0  0
 12 13  1  0  0  0
 13 14  1  0  0  0
 14 15  1  0  0  0
 15 16  1  0  0  0
 16 17  1  0  0  0
 17 18  1  0  0  0
 18 19  1  0  0  0
 19 20  1  0  0  0
 20 21  1  0  0  0
 21 22  1  0  0  0
 46 47  1  0  0  0
 47 48  1  0  0  0
 48 49  1  0  0  0
 49 50  1  0  0  0
 50 54  1  0  0  0
M  CHG 1  58  -1
M  END
> <minimizedAffinity>
-9.48367

> <CNNscore>
0.1708975136

> <CNNaffinity>
7.1439080238

> <CNN_VS>
1.2208760977

> <CNNaffinity_variance>
1.3772767782

$$$$
/media/chris/experiments/cd1a-new-docking/inputs/ligands/1onq_ligand.pdb


 62 62  0  0  0  0  0  0  0  0999 V2000
  -41.5478   60.5093   64.8286 C   0  0  0  0  0  0  0  0  0  0  0  0
  -42.3135   59.2785   64.8182 N   0  0  0  0  0  0  0  0  0  0  0  0
  -41.9440   58.4717   66.9062 O   0  0  0  0  0  0  0  0  0  0  0  0
  -42.4551   58.3850   65.8067 C   0  0  0  0  0  0  0  0  0  0  0  0
  -42.7887   59.0737   63.9806 H   0  0  0  0  0  0  0  0  0  0  0  0
  -43.3282   57.2090   65.4831 C   0  0  0  0  0  0  0  0  0  0  0  0
  -44.7469   57.7547   65.3197 C   0  0  0  0  0  0  0  0  0  0  0  0
  -45.4900   57.6825   66.6515 C   0  0  0  0  0  0  0  0  0  0  0  0
  -46.0033   58.9931   67.1967 C   0  0  0  0  0  0  0  0  0  0  0  0
  -46.4549   59.8400   66.0113 C   0  0  0  0  0  0  0  0  0  0  0  0
  -47.9814   59.8828   65.8606 C   0  0  0  0  0  0  0  0  0  0  0  0
  -48.4706   59.9635   64.4029 C   0  0  0  0  0  0  0  0  0  0  0  0
  -49.6832   60.9040   64.2277 C   0  0  0  0  0  0  0  0  0  0  0  0
  -50.8583   60.1571   63.5904 C   0  0  0  0  0  0  0  0  0  0  0  0
  -50.6510   58.6575   63.4159 C   0  0  0  0  0  0  0  0  0  0  0  0
  -50.7360   58.2288   61.9584 C   0  0  0  0  0  0  0  0  0  0  0  0
  -49.9254   59.0642   60.9648 C   0  0  0  0  0  0  0  0  0  0  0  0
  -48.8683   58.1649   60.3384 C   0  0  0  0  0  0  0  0  0  0  0  0
  -49.1030   57.6338   58.9320 C   0  0  0  0  0  0  0  0  0  0  0  0
  -48.0773   56.5458   58.5768 C   0  0  0  0  0  0  0  0  0  0  0  0
  -46.7994   57.0705   57.8968 C   0  0  0  0  0  0  0  0  0  0  0  0
  -47.0282   58.3388   57.0779 C   0  0  0  0  0  0  0  0  0  0  0  0
  -43.6409   60.7461   63.8495 O   0  0  0  0  0  0  0  0  0  0  0  0
  -42.4277   61.4533   64.0274 C   0  0  0  0  0  0  0  0  0  0  0  0
  -44.0388   60.5639   64.7151 H   0  0  0  0  0  0  0  0  0  0  0  0
  -41.7461   61.7735   62.6950 C   0  0  0  0  0  0  0  0  0  0  0  0
  -42.1279   61.2276   61.5277 C   0  0  0  0  0  0  0  0  0  0  0  0
  -41.3954   61.5979   60.2395 C   0  0  0  0  0  0  0  0  0  0  0  0
  -41.1171   60.4022   59.3170 C   0  0  0  0  0  0  0  0  0  0  0  0
  -41.3051   59.0122   59.9523 C   0  0  0  0  0  0  0  0  0  0  0  0
  -40.3318   57.9854   59.3248 C   0  0  0  0  0  0  0  0  0  0  0  0
  -39.1099   58.5943   58.5913 C   0  0  0  0  0  0  0  0  0  0  0  0
  -37.8585   58.7698   59.4834 C   0  0  0  0  0  0  0  0  0  0  0  0
  -38.1322   59.5567   60.7834 C   0  0  0  0  0  0  0  0  0  0  0  0
  -37.6441   58.8447   62.0509 C   0  0  0  0  0  0  0  0  0  0  0  0
  -37.5308   57.3240   61.9652 C   0  0  0  0  0  0  0  0  0  0  0  0
  -38.8737   56.5860   62.1311 C   0  0  0  0  0  0  0  0  0  0  0  0
  -39.9575   57.3620   62.8947 C   0  0  0  0  0  0  0  0  0  0  0  0
  -41.3223   56.6816   62.7555 C   0  0  0  0  0  0  0  0  0  0  0  0
  -41.3623   55.4126   61.9226 C   0  0  0  0  0  0  0  0  0  0  0  0
  -40.0731   60.3795   64.3846 C   0  0  0  0  0  0  0  0  0  0  0  0
  -39.3582   61.6175   64.1408 O   0  0  0  0  0  0  0  0  0  0  0  0
  -37.3697   61.9033   62.1057 O   0  0  0  0  0  0  0  0  0  0  0  0
  -35.6587   64.5103   64.8760 O   0  0  0  0  0  0  0  0  0  0  0  0
  -37.6021   62.3265   65.6570 O   0  0  0  0  0  0  0  0  0  0  0  0
  -37.9043   61.7211   64.3764 C   0  0  0  0  0  0  0  0  0  0  0  0
  -37.1052   62.5130   63.3315 C   0  0  0  0  0  0  0  0  0  0  0  0
  -35.5791   62.4867   63.5670 C   0  0  0  0  0  0  0  0  0  0  0  0
  -35.3503   63.1190   64.9121 C   0  0  0  0  0  0  0  0  0  0  0  0
  -36.1837   62.4077   65.9626 C   0  0  0  0  0  0  0  0  0  0  0  0
  -38.3255   61.9106   61.9405 H   0  0  0  0  0  0  0  0  0  0  0  0
  -35.1159   64.9444   64.1994 H   0  0  0  0  0  0  0  0  0  0  0  0
  -36.3563   62.5617   68.3416 O   0  0  0  0  0  0  0  0  0  0  0  0
  -35.8195   63.1950   67.2193 C   0  0  0  0  0  0  0  0  0  0  0  0
  -36.1236   63.0636   69.1384 H   0  0  0  0  0  0  0  0  0  0  0  0
  -34.7792   63.2401   62.6275 O   0  0  0  0  0  0  0  0  0  0  0  0
  -32.6406   64.3839   63.5412 O   0  0  0  0  0  0  0  0  0  0  0  0
  -32.6632   63.5278   61.2707 O   0  0  0  0  0  0  0  0  0  0  0  0
  -32.5003   62.0025   63.1471 O   0  0  0  0  0  0  0  0  0  0  0  0
  -33.1150   63.2720   62.6653 S   0  0  0  0  0  0  0  0  0  0  0  0
  -33.0310   65.2201   63.2423 H   0  0  0  0  0  0  0  0  0  0  0  0
  -32.7896   61.8279   64.0563 H   0  0  0  0  0  0  0  0  0  0  0  0
  2  1  1  0  0  0
  2  4  1  0  0  0
  2  5  1  0  0  0
 41 42  1  0  0  0
 41  1  1  0  0  0
 42 46  1  0  0  0
  1 24  1  0  0  0
 23 24  1  0  0  0
 23 25  1  0  0  0
 24 26  1  0  0  0
  3  4  2  0  0  0
 26 27  2  0  0  0
 27 28  1  0  0  0
 43 47  1  0  0  0
 43 51  1  0  0  0
 28 29  1  0  0  0
 56 48  1  0  0  0
 56 60  1  0  0  0
 29 30  1  0  0  0
 57 60  1  0  0  0
 57 61  1  0  0  0
 30 31  1  0  0  0
 44 49  1  0  0  0
 44 52  1  0  0  0
 31 32  1  0  0  0
 45 46  1  0  0  0
 45 50  1  0  0  0
 32 33  1  0  0  0
 53 54  1  0  0  0
 53 55  1  0  0  0
 33 34  1  0  0  0
 34 35  1  0  0  0
 35 36  1  0  0  0
 58 60  1  0  0  0
 36 37  1  0  0  0
 59 60  1  0  0  0
 59 62  1  0  0  0
 37 38  1  0  0  0
 38 39  1  0  0  0
 39 40  1  0  0  0
  4  6  1  0  0  0
  6  7  1  0  0  0
  7  8  1  0  0  0
  8  9  1  0  0  0
  9 10  1  0  0  0
 10 11  1  0  0  0
 11 12  1  0  0  0
 12 13  1  0  0  0
 13 14  1  0  0  0
 14 15  1  0  0  0
 15 16  1  0  0  0
 16 17  1  0  0  0
 17 18  1  0  0  0
 18 19  1  0  0  0
 19 20  1  0  0  0
 20 21  1  0  0  0
 21 22  1  0  0  0
 46 47  1  0  0  0
 47 48  1  0  0  0
 48 49  1  0  0  0
 49 50  1  0  0  0
 50 54  1  0  0  0
M  CHG 1  58  -1
M  END
> <minimizedAffinity>
-8.82765

> <CNNscore>
0.1624615937

> <CNNaffinity>
7.0649499893

> <CNN_VS>
1.1477830410

> <CNNaffinity_variance>
1.4953050613

$$$$
/media/chris/experiments/cd1a-new-docking/inputs/ligands/1onq_ligand.pdb


 62 62  0  0  0  0  0  0  0  0999 V2000
  -40.6045   60.0468   64.0690 C   0  0  0  0  0  0  0  0  0  0  0  0
  -42.0071   60.3111   64.3220 N   0  0  0  0  0  0  0  0  0  0  0  0
  -42.6191   61.4514   62.4585 O   0  0  0  0  0  0  0  0  0  0  0  0
  -42.8793   60.9628   63.5408 C   0  0  0  0  0  0  0  0  0  0  0  0
  -42.3633   59.9692   65.1738 H   0  0  0  0  0  0  0  0  0  0  0  0
  -44.2730   61.0625   64.0862 C   0  0  0  0  0  0  0  0  0  0  0  0
  -44.6939   59.6416   64.4621 C   0  0  0  0  0  0  0  0  0  0  0  0
  -45.3499   59.6395   65.8407 C   0  0  0  0  0  0  0  0  0  0  0  0
  -46.7506   59.0810   65.9080 C   0  0  0  0  0  0  0  0  0  0  0  0
  -47.4391   59.4030   64.5857 C   0  0  0  0  0  0  0  0  0  0  0  0
  -48.5381   60.4639   64.7323 C   0  0  0  0  0  0  0  0  0  0  0  0
  -49.8880   59.9115   65.2255 C   0  0  0  0  0  0  0  0  0  0  0  0
  -51.0941   60.5080   64.4671 C   0  0  0  0  0  0  0  0  0  0  0  0
  -51.0366   60.1352   62.9829 C   0  0  0  0  0  0  0  0  0  0  0  0
  -51.1142   58.6419   62.6895 C   0  0  0  0  0  0  0  0  0  0  0  0
  -49.9209   58.1491   61.8843 C   0  0  0  0  0  0  0  0  0  0  0  0
  -50.2390   57.2051   60.7225 C   0  0  0  0  0  0  0  0  0  0  0  0
  -49.6245   57.7856   59.4559 C   0  0  0  0  0  0  0  0  0  0  0  0
  -48.1089   57.8009   59.3215 C   0  0  0  0  0  0  0  0  0  0  0  0
  -47.6754   58.5899   58.0759 C   0  0  0  0  0  0  0  0  0  0  0  0
  -47.0024   57.7390   56.9833 C   0  0  0  0  0  0  0  0  0  0  0  0
  -47.1893   56.2372   57.1866 C   0  0  0  0  0  0  0  0  0  0  0  0
  -39.1690   58.8807   65.4743 O   0  0  0  0  0  0  0  0  0  0  0  0
  -40.3863   58.7174   64.7707 C   0  0  0  0  0  0  0  0  0  0  0  0
  -39.2640   59.5953   66.1233 H   0  0  0  0  0  0  0  0  0  0  0  0
  -40.3040   57.6008   63.7272 C   0  0  0  0  0  0  0  0  0  0  0  0
  -41.3863   57.0862   63.1189 C   0  0  0  0  0  0  0  0  0  0  0  0
  -41.2209   55.9714   62.0878 C   0  0  0  0  0  0  0  0  0  0  0  0
  -41.1058   56.4744   60.6415 C   0  0  0  0  0  0  0  0  0  0  0  0
  -41.8144   57.8082   60.3413 C   0  0  0  0  0  0  0  0  0  0  0  0
  -40.9587   58.6837   59.3943 C   0  0  0  0  0  0  0  0  0  0  0  0
  -40.5039   60.0440   59.9812 C   0  0  0  0  0  0  0  0  0  0  0  0
  -39.0656   60.0391   60.5504 C   0  0  0  0  0  0  0  0  0  0  0  0
  -38.2208   58.8339   60.0836 C   0  0  0  0  0  0  0  0  0  0  0  0
  -37.7786   57.9104   61.2251 C   0  0  0  0  0  0  0  0  0  0  0  0
  -36.6075   58.4035   62.0723 C   0  0  0  0  0  0  0  0  0  0  0  0
  -36.5930   57.8417   63.5076 C   0  0  0  0  0  0  0  0  0  0  0  0
  -35.2336   57.9013   64.2205 C   0  0  0  0  0  0  0  0  0  0  0  0
  -34.0901   58.0492   63.2127 C   0  0  0  0  0  0  0  0  0  0  0  0
  -32.7654   58.5475   63.7628 C   0  0  0  0  0  0  0  0  0  0  0  0
  -39.6353   61.1960   64.4279 C   0  0  0  0  0  0  0  0  0  0  0  0
  -38.3559   61.2020   63.7450 O   0  0  0  0  0  0  0  0  0  0  0  0
  -36.5578   61.9485   65.8396 O   0  0  0  0  0  0  0  0  0  0  0  0
  -34.1093   63.0300   62.6406 O   0  0  0  0  0  0  0  0  0  0  0  0
  -37.1169   62.7987   62.4032 O   0  0  0  0  0  0  0  0  0  0  0  0
  -37.4945   62.4011   63.7437 C   0  0  0  0  0  0  0  0  0  0  0  0
  -36.1866   62.2945   64.5409 C   0  0  0  0  0  0  0  0  0  0  0  0
  -35.3869   63.6144   64.6005 C   0  0  0  0  0  0  0  0  0  0  0  0
  -35.0437   63.9626   63.1784 C   0  0  0  0  0  0  0  0  0  0  0  0
  -36.3086   64.0047   62.3402 C   0  0  0  0  0  0  0  0  0  0  0  0
  -37.0621   61.1200   65.8218 H   0  0  0  0  0  0  0  0  0  0  0  0
  -33.3103   63.0193   63.1905 H   0  0  0  0  0  0  0  0  0  0  0  0
  -35.7172   65.7429   60.8098 O   0  0  0  0  0  0  0  0  0  0  0  0
  -35.7463   64.3559   60.9645 C   0  0  0  0  0  0  0  0  0  0  0  0
  -35.3598   65.9633   59.9354 H   0  0  0  0  0  0  0  0  0  0  0  0
  -34.1317   63.5639   65.3159 O   0  0  0  0  0  0  0  0  0  0  0  0
  -35.2497   64.5240   67.4478 O   0  0  0  0  0  0  0  0  0  0  0  0
  -33.1408   65.4488   66.6821 O   0  0  0  0  0  0  0  0  0  0  0  0
  -33.1985   63.2863   67.7750 O   0  0  0  0  0  0  0  0  0  0  0  0
  -33.9252   64.1945   66.8429 S   0  0  0  0  0  0  0  0  0  0  0  0
  -35.7381   65.1156   66.8542 H   0  0  0  0  0  0  0  0  0  0  0  0
  -33.7033   62.4655   67.8857 H   0  0  0  0  0  0  0  0  0  0  0  0
  2  1  1  0  0  0
  2  4  1  0  0  0
  2  5  1  0  0  0
 41 42  1  0  0  0
 41  1  1  0  0  0
 42 46  1  0  0  0
  1 24  1  0  0  0
 23 24  1  0  0  0
 23 25  1  0  0  0
 24 26  1  0  0  0
  3  4  2  0  0  0
 26 27  2  0  0  0
 27 28  1  0  0  0
 43 47  1  0  0  0
 43 51  1  0  0  0
 28 29  1  0  0  0
 56 48  1  0  0  0
 56 60  1  0  0  0
 29 30  1  0  0  0
 57 60  1  0  0  0
 57 61  1  0  0  0
 30 31  1  0  0  0
 44 49  1  0  0  0
 44 52  1  0  0  0
 31 32  1  0  0  0
 45 46  1  0  0  0
 45 50  1  0  0  0
 32 33  1  0  0  0
 53 54  1  0  0  0
 53 55  1  0  0  0
 33 34  1  0  0  0
 34 35  1  0  0  0
 35 36  1  0  0  0
 58 60  1  0  0  0
 36 37  1  0  0  0
 59 60  1  0  0  0
 59 62  1  0  0  0
 37 38  1  0  0  0
 38 39  1  0  0  0
 39 40  1  0  0  0
  4  6  1  0  0  0
  6  7  1  0  0  0
  7  8  1  0  0  0
  8  9  1  0  0  0
  9 10  1  0  0  0
 10 11  1  0  0  0
 11 12  1  0  0  0
 12 13  1  0  0  0
 13 14  1  0  0  0
 14 15  1  0  0  0
 15 16  1  0  0  0
 16 17  1  0  0  0
 17 18  1  0  0  0
 18 19  1  0  0  0
 19 20  1  0  0  0
 20 21  1  0  0  0
 21 22  1  0  0  0
 46 47  1  0  0  0
 47 48  1  0  0  0
 48 49  1  0  0  0
 49 50  1  0  0  0
 50 54  1  0  0  0
M  CHG 1  58  -1
M  END
> <minimizedAffinity>
-9.39654

> <CNNscore>
0.1602445543

> <CNNaffinity>
7.0922460556

> <CNN_VS>
1.1364938021

> <CNNaffinity_variance>
1.0763890743

$$$$
/media/chris/experiments/cd1a-new-docking/inputs/ligands/1onq_ligand.pdb


 62 62  0  0  0  0  0  0  0  0999 V2000
  -38.5943   60.3017   64.5068 C   0  0  0  0  0  0  0  0  0  0  0  0
  -39.9050   60.6161   63.9734 N   0  0  0  0  0  0  0  0  0  0  0  0
  -41.2266   60.4030   65.8052 O   0  0  0  0  0  0  0  0  0  0  0  0
  -41.0764   60.6450   64.6234 C   0  0  0  0  0  0  0  0  0  0  0  0
  -39.9387   60.8357   63.0143 H   0  0  0  0  0  0  0  0  0  0  0  0
  -42.2622   61.0184   63.7841 C   0  0  0  0  0  0  0  0  0  0  0  0
  -43.3267   61.5437   64.7475 C   0  0  0  0  0  0  0  0  0  0  0  0
  -44.7151   61.3668   64.1375 C   0  0  0  0  0  0  0  0  0  0  0  0
  -45.7229   60.6288   64.9848 C   0  0  0  0  0  0  0  0  0  0  0  0
  -47.0487   60.6311   64.2308 C   0  0  0  0  0  0  0  0  0  0  0  0
  -47.9944   59.5137   64.6910 C   0  0  0  0  0  0  0  0  0  0  0  0
  -49.0530   59.9631   65.7147 C   0  0  0  0  0  0  0  0  0  0  0  0
  -50.4811   59.5094   65.3402 C   0  0  0  0  0  0  0  0  0  0  0  0
  -51.0843   60.4408   64.2849 C   0  0  0  0  0  0  0  0  0  0  0  0
  -51.1009   59.8835   62.8666 C   0  0  0  0  0  0  0  0  0  0  0  0
  -50.8918   58.3767   62.8361 C   0  0  0  0  0  0  0  0  0  0  0  0
  -49.8309   57.8661   61.8583 C   0  0  0  0  0  0  0  0  0  0  0  0
  -49.9297   58.6856   60.5787 C   0  0  0  0  0  0  0  0  0  0  0  0
  -48.7545   58.6733   59.6122 C   0  0  0  0  0  0  0  0  0  0  0  0
  -49.1101   57.9148   58.3237 C   0  0  0  0  0  0  0  0  0  0  0  0
  -47.9063   57.2802   57.6034 C   0  0  0  0  0  0  0  0  0  0  0  0
  -47.0661   56.3818   58.5081 C   0  0  0  0  0  0  0  0  0  0  0  0
  -37.6286   58.5227   65.6462 O   0  0  0  0  0  0  0  0  0  0  0  0
  -38.6855   58.8046   64.7478 C   0  0  0  0  0  0  0  0  0  0  0  0
  -37.7693   59.0087   66.4737 H   0  0  0  0  0  0  0  0  0  0  0  0
  -38.5236   58.0662   63.4170 C   0  0  0  0  0  0  0  0  0  0  0  0
  -38.0800   58.6635   62.2978 C   0  0  0  0  0  0  0  0  0  0  0  0
  -37.9469   57.8572   61.0073 C   0  0  0  0  0  0  0  0  0  0  0  0
  -38.0390   58.7066   59.7313 C   0  0  0  0  0  0  0  0  0  0  0  0
  -39.3291   58.5353   58.9082 C   0  0  0  0  0  0  0  0  0  0  0  0
  -40.3343   57.6192   59.6471 C   0  0  0  0  0  0  0  0  0  0  0  0
  -41.5907   58.3323   60.2082 C   0  0  0  0  0  0  0  0  0  0  0  0
  -41.8993   58.0012   61.6873 C   0  0  0  0  0  0  0  0  0  0  0  0
  -41.4477   56.5866   62.1107 C   0  0  0  0  0  0  0  0  0  0  0  0
  -41.8987   56.1907   63.5219 C   0  0  0  0  0  0  0  0  0  0  0  0
  -42.1242   57.3403   64.5018 C   0  0  0  0  0  0  0  0  0  0  0  0
  -43.6076   57.6041   64.8265 C   0  0  0  0  0  0  0  0  0  0  0  0
  -43.9861   57.4764   66.3099 C   0  0  0  0  0  0  0  0  0  0  0  0
  -45.5061   57.4166   66.4864 C   0  0  0  0  0  0  0  0  0  0  0  0
  -46.0938   58.2915   67.5795 C   0  0  0  0  0  0  0  0  0  0  0  0
  -38.1318   61.1757   65.6947 C   0  0  0  0  0  0  0  0  0  0  0  0
  -36.7176   61.4910   65.7555 O   0  0  0  0  0  0  0  0  0  0  0  0
  -34.6923   63.2788   64.8176 O   0  0  0  0  0  0  0  0  0  0  0  0
  -32.5591   59.7375   64.2630 O   0  0  0  0  0  0  0  0  0  0  0  0
  -35.5804   59.8320   64.3991 O   0  0  0  0  0  0  0  0  0  0  0  0
  -35.8281   61.2442   64.6032 C   0  0  0  0  0  0  0  0  0  0  0  0
  -34.4481   61.9152   64.6590 C   0  0  0  0  0  0  0  0  0  0  0  0
  -33.6103   61.7185   63.3766 C   0  0  0  0  0  0  0  0  0  0  0  0
  -33.4066   60.2357   63.2307 C   0  0  0  0  0  0  0  0  0  0  0  0
  -34.7498   59.5288   63.2459 C   0  0  0  0  0  0  0  0  0  0  0  0
  -35.2186   63.4218   65.6199 H   0  0  0  0  0  0  0  0  0  0  0  0
  -31.7081   60.2021   64.2349 H   0  0  0  0  0  0  0  0  0  0  0  0
  -35.1186   57.2647   63.9177 O   0  0  0  0  0  0  0  0  0  0  0  0
  -34.3234   58.0697   63.1001 C   0  0  0  0  0  0  0  0  0  0  0  0
  -34.8458   56.3386   63.8234 H   0  0  0  0  0  0  0  0  0  0  0  0
  -32.2896   62.3066   63.3852 O   0  0  0  0  0  0  0  0  0  0  0  0
  -33.1779   64.5857   62.5289 O   0  0  0  0  0  0  0  0  0  0  0  0
  -31.4009   63.4618   61.3173 O   0  0  0  0  0  0  0  0  0  0  0  0
  -30.9294   64.5745   63.4182 O   0  0  0  0  0  0  0  0  0  0  0  0
  -31.9366   63.7686   62.6713 S   0  0  0  0  0  0  0  0  0  0  0  0
  -33.8463   64.0766   62.0442 H   0  0  0  0  0  0  0  0  0  0  0  0
  -31.2708   64.7792   64.3027 H   0  0  0  0  0  0  0  0  0  0  0  0
  2  1  1  0  0  0
  2  4  1  0  0  0
  2  5  1  0  0  0
 41 42  1  0  0  0
 41  1  1  0  0  0
 42 46  1  0  0  0
  1 24  1  0  0  0
 23 24  1  0  0  0
 23 25  1  0  0  0
 24 26  1  0  0  0
  3  4  2  0  0  0
 26 27  2  0  0  0
 27 28  1  0  0  0
 43 47  1  0  0  0
 43 51  1  0  0  0
 28 29  1  0  0  0
 56 48  1  0  0  0
 56 60  1  0  0  0
 29 30  1  0  0  0
 57 60  1  0  0  0
 57 61  1  0  0  0
 30 31  1  0  0  0
 44 49  1  0  0  0
 44 52  1  0  0  0
 31 32  1  0  0  0
 45 46  1  0  0  0
 45 50  1  0  0  0
 32 33  1  0  0  0
 53 54  1  0  0  0
 53 55  1  0  0  0
 33 34  1  0  0  0
 34 35  1  0  0  0
 35 36  1  0  0  0
 58 60  1  0  0  0
 36 37  1  0  0  0
 59 60  1  0  0  0
 59 62  1  0  0  0
 37 38  1  0  0  0
 38 39  1  0  0  0
 39 40  1  0  0  0
  4  6  1  0  0  0
  6  7  1  0  0  0
  7  8  1  0  0  0
  8  9  1  0  0  0
  9 10  1  0  0  0
 10 11  1  0  0  0
 11 12  1  0  0  0
 12 13  1  0  0  0
 13 14  1  0  0  0
 14 15  1  0  0  0
 15 16  1  0  0  0
 16 17  1  0  0  0
 17 18  1  0  0  0
 18 19  1  0  0  0
 19 20  1  0  0  0
 20 21  1  0  0  0
 21 22  1  0  0  0
 46 47  1  0  0  0
 47 48  1  0  0  0
 48 49  1  0  0  0
 49 50  1  0  0  0
 50 54  1  0  0  0
M  CHG 1  58  -1
M  END
> <minimizedAffinity>
-8.52211

> <CNNscore>
0.1466013938

> <CNNaffinity>
7.1373505592

> <CNN_VS>
1.0463455915

> <CNNaffinity_variance>
1.1049692631

$$$$
/media/chris/experiments/cd1a-new-docking/inputs/ligands/1onq_ligand.pdb


 62 62  0  0  0  0  0  0  0  0999 V2000
  -41.5656   60.0760   65.5458 C   0  0  0  0  0  0  0  0  0  0  0  0
  -41.9055   59.9520   64.1422 N   0  0  0  0  0  0  0  0  0  0  0  0
  -42.2121   62.1164   63.5348 O   0  0  0  0  0  0  0  0  0  0  0  0
  -42.1922   60.9297   63.2718 C   0  0  0  0  0  0  0  0  0  0  0  0
  -41.9287   59.0353   63.7837 H   0  0  0  0  0  0  0  0  0  0  0  0
  -42.4970   60.4720   61.8763 C   0  0  0  0  0  0  0  0  0  0  0  0
  -41.4656   61.1395   60.9664 C   0  0  0  0  0  0  0  0  0  0  0  0
  -40.1683   60.3345   60.9701 C   0  0  0  0  0  0  0  0  0  0  0  0
  -39.7681   59.7151   59.6530 C   0  0  0  0  0  0  0  0  0  0  0  0
  -40.9147   58.8179   59.1985 C   0  0  0  0  0  0  0  0  0  0  0  0
  -40.7313   57.3569   59.6305 C   0  0  0  0  0  0  0  0  0  0  0  0
  -41.5872   56.9436   60.8418 C   0  0  0  0  0  0  0  0  0  0  0  0
  -40.7880   56.1513   61.8995 C   0  0  0  0  0  0  0  0  0  0  0  0
  -40.5726   56.9963   63.1584 C   0  0  0  0  0  0  0  0  0  0  0  0
  -39.2888   57.8172   63.1723 C   0  0  0  0  0  0  0  0  0  0  0  0
  -38.2873   57.3401   62.1309 C   0  0  0  0  0  0  0  0  0  0  0  0
  -36.8124   57.5885   62.4551 C   0  0  0  0  0  0  0  0  0  0  0  0
  -36.6959   57.8848   63.9441 C   0  0  0  0  0  0  0  0  0  0  0  0
  -35.4498   58.5959   64.4510 C   0  0  0  0  0  0  0  0  0  0  0  0
  -34.3627   58.6410   63.3656 C   0  0  0  0  0  0  0  0  0  0  0  0
  -32.9207   58.6073   63.9044 C   0  0  0  0  0  0  0  0  0  0  0  0
  -32.8350   58.2103   65.3763 C   0  0  0  0  0  0  0  0  0  0  0  0
  -42.3074   61.2566   67.4036 O   0  0  0  0  0  0  0  0  0  0  0  0
  -42.7099   60.9134   66.0907 C   0  0  0  0  0  0  0  0  0  0  0  0
  -41.4920   61.7805   67.3653 H   0  0  0  0  0  0  0  0  0  0  0  0
  -43.9955   60.0830   66.0801 C   0  0  0  0  0  0  0  0  0  0  0  0
  -45.1578   60.5398   65.5833 C   0  0  0  0  0  0  0  0  0  0  0  0
  -46.3985   59.6491   65.6103 C   0  0  0  0  0  0  0  0  0  0  0  0
  -47.1642   59.6094   64.2798 C   0  0  0  0  0  0  0  0  0  0  0  0
  -48.3554   60.5787   64.1672 C   0  0  0  0  0  0  0  0  0  0  0  0
  -49.4443   60.2343   65.2118 C   0  0  0  0  0  0  0  0  0  0  0  0
  -50.8608   59.9861   64.6340 C   0  0  0  0  0  0  0  0  0  0  0  0
  -50.9353   60.0502   63.0903 C   0  0  0  0  0  0  0  0  0  0  0  0
  -51.0723   58.6656   62.4207 C   0  0  0  0  0  0  0  0  0  0  0  0
  -49.7402   57.9235   62.2584 C   0  0  0  0  0  0  0  0  0  0  0  0
  -49.0520   58.0681   60.9026 C   0  0  0  0  0  0  0  0  0  0  0  0
  -49.9582   57.7326   59.7018 C   0  0  0  0  0  0  0  0  0  0  0  0
  -49.2766   57.8043   58.3269 C   0  0  0  0  0  0  0  0  0  0  0  0
  -47.7906   58.1466   58.4669 C   0  0  0  0  0  0  0  0  0  0  0  0
  -46.9943   58.2377   57.1773 C   0  0  0  0  0  0  0  0  0  0  0  0
  -40.1318   60.5713   65.8423 C   0  0  0  0  0  0  0  0  0  0  0  0
  -39.3456   61.0007   64.7018 O   0  0  0  0  0  0  0  0  0  0  0  0
  -37.5262   61.3508   62.5236 O   0  0  0  0  0  0  0  0  0  0  0  0
  -35.9904   64.3569   64.9737 O   0  0  0  0  0  0  0  0  0  0  0  0
  -37.6054   62.0314   66.0414 O   0  0  0  0  0  0  0  0  0  0  0  0
  -37.9042   61.2927   64.8321 C   0  0  0  0  0  0  0  0  0  0  0  0
  -37.2685   62.0850   63.6806 C   0  0  0  0  0  0  0  0  0  0  0  0
  -35.7396   62.2568   63.8155 C   0  0  0  0  0  0  0  0  0  0  0  0
  -35.5132   63.0189   65.0920 C   0  0  0  0  0  0  0  0  0  0  0  0
  -36.1923   62.3027   66.2453 C   0  0  0  0  0  0  0  0  0  0  0  0
  -38.4837   61.2327   62.4222 H   0  0  0  0  0  0  0  0  0  0  0  0
  -35.5441   64.7950   64.2323 H   0  0  0  0  0  0  0  0  0  0  0  0
  -34.4699   63.3463   67.5326 O   0  0  0  0  0  0  0  0  0  0  0  0
  -35.8556   63.2269   67.4134 C   0  0  0  0  0  0  0  0  0  0  0  0
  -34.2586   63.9337   68.2751 H   0  0  0  0  0  0  0  0  0  0  0  0
  -35.0924   63.0196   62.7719 O   0  0  0  0  0  0  0  0  0  0  0  0
  -32.9820   64.4468   63.2473 O   0  0  0  0  0  0  0  0  0  0  0  0
  -33.1314   63.1821   61.1816 O   0  0  0  0  0  0  0  0  0  0  0  0
  -32.6851   62.0474   63.2762 O   0  0  0  0  0  0  0  0  0  0  0  0
  -33.4392   63.1631   62.6374 S   0  0  0  0  0  0  0  0  0  0  0  0
  -33.4627   65.1861   62.8432 H   0  0  0  0  0  0  0  0  0  0  0  0
  -32.8800   62.0277   64.2262 H   0  0  0  0  0  0  0  0  0  0  0  0
  2  1  1  0  0  0
  2  4  1  0  0  0
  2  5  1  0  0  0
 41 42  1  0  0  0
 41  1  1  0  0  0
 42 46  1  0  0  0
  1 24  1  0  0  0
 23 24  1  0  0  0
 23 25  1  0  0  0
 24 26  1  0  0  0
  3  4  2  0  0  0
 26 27  2  0  0  0
 27 28  1  0  0  0
 43 47  1  0  0  0
 43 51  1  0  0  0
 28 29  1  0  0  0
 56 48  1  0  0  0
 56 60  1  0  0  0
 29 30  1  0  0  0
 57 60  1  0  0  0
 57 61  1  0  0  0
 30 31  1  0  0  0
 44 49  1  0  0  0
 44 52  1  0  0  0
 31 32  1  0  0  0
 45 46  1  0  0  0
 45 50  1  0  0  0
 32 33  1  0  0  0
 53 54  1  0  0  0
 53 55  1  0  0  0
 33 34  1  0  0  0
 34 35  1  0  0  0
 35 36  1  0  0  0
 58 60  1  0  0  0
 36 37  1  0  0  0
 59 60  1  0  0  0
 59 62  1  0  0  0
 37 38  1  0  0  0
 38 39  1  0  0  0
 39 40  1  0  0  0
  4  6  1  0  0  0
  6  7  1  0  0  0
  7  8  1  0  0  0
  8  9  1  0  0  0
  9 10  1  0  0  0
 10 11  1  0  0  0
 11 12  1  0  0  0
 12 13  1  0  0  0
 13 14  1  0  0  0
 14 15  1  0  0  0
 15 16  1  0  0  0
 16 17  1  0  0  0
 17 18  1  0  0  0
 18 19  1  0  0  0
 19 20  1  0  0  0
 20 21  1  0  0  0
 21 22  1  0  0  0
 46 47  1  0  0  0
 47 48  1  0  0  0
 48 49  1  0  0  0
 49 50  1  0  0  0
 50 54  1  0  0  0
M  CHG 1  58  -1
M  END
> <minimizedAffinity>
-9.22475

> <CNNscore>
0.1433777660

> <CNNaffinity>
7.1170716286

> <CNN_VS>
1.0204298496

> <CNNaffinity_variance>
1.5156422853

$$$$
/media/chris/experiments/cd1a-new-docking/inputs/ligands/1onq_ligand.pdb


 62 62  0  0  0  0  0  0  0  0999 V2000
  -37.8355   60.7082   63.9606 C   0  0  0  0  0  0  0  0  0  0  0  0
  -39.2515   60.9164   64.1901 N   0  0  0  0  0  0  0  0  0  0  0  0
  -39.9628   58.8229   64.6986 O   0  0  0  0  0  0  0  0  0  0  0  0
  -40.1764   60.0072   64.5270 C   0  0  0  0  0  0  0  0  0  0  0  0
  -39.5738   61.8408   64.0855 H   0  0  0  0  0  0  0  0  0  0  0  0
  -41.5656   60.5453   64.7016 C   0  0  0  0  0  0  0  0  0  0  0  0
  -42.1372   59.8726   65.9497 C   0  0  0  0  0  0  0  0  0  0  0  0
  -43.6609   59.9681   65.9422 C   0  0  0  0  0  0  0  0  0  0  0  0
  -44.2634   60.8774   64.8987 C   0  0  0  0  0  0  0  0  0  0  0  0
  -45.7011   60.4239   64.6671 C   0  0  0  0  0  0  0  0  0  0  0  0
  -46.3621   59.8758   65.9389 C   0  0  0  0  0  0  0  0  0  0  0  0
  -47.9000   59.9480   65.9334 C   0  0  0  0  0  0  0  0  0  0  0  0
  -48.5559   58.7298   65.2468 C   0  0  0  0  0  0  0  0  0  0  0  0
  -50.0821   58.8525   65.2720 C   0  0  0  0  0  0  0  0  0  0  0  0
  -50.6406   60.0952   64.5894 C   0  0  0  0  0  0  0  0  0  0  0  0
  -51.1764   59.7973   63.1968 C   0  0  0  0  0  0  0  0  0  0  0  0
  -50.8727   58.4024   62.6452 C   0  0  0  0  0  0  0  0  0  0  0  0
  -49.7071   58.5190   61.6724 C   0  0  0  0  0  0  0  0  0  0  0  0
  -49.9255   58.1173   60.2211 C   0  0  0  0  0  0  0  0  0  0  0  0
  -48.9006   58.7998   59.3015 C   0  0  0  0  0  0  0  0  0  0  0  0
  -47.9103   57.8358   58.6225 C   0  0  0  0  0  0  0  0  0  0  0  0
  -47.8776   56.4515   59.2660 C   0  0  0  0  0  0  0  0  0  0  0  0
  -37.7126   62.2645   65.6806 O   0  0  0  0  0  0  0  0  0  0  0  0
  -37.2349   60.9792   65.3293 C   0  0  0  0  0  0  0  0  0  0  0  0
  -38.6810   62.2465   65.7325 H   0  0  0  0  0  0  0  0  0  0  0  0
  -35.7082   60.9386   65.2301 C   0  0  0  0  0  0  0  0  0  0  0  0
  -35.0124   59.7946   65.1143 C   0  0  0  0  0  0  0  0  0  0  0  0
  -33.4883   59.8377   65.0215 C   0  0  0  0  0  0  0  0  0  0  0  0
  -32.8699   58.5939   64.3669 C   0  0  0  0  0  0  0  0  0  0  0  0
  -33.3546   58.2815   62.9391 C   0  0  0  0  0  0  0  0  0  0  0  0
  -34.6767   57.4775   62.9715 C   0  0  0  0  0  0  0  0  0  0  0  0
  -35.8484   58.0978   62.1689 C   0  0  0  0  0  0  0  0  0  0  0  0
  -37.2310   57.4825   62.4888 C   0  0  0  0  0  0  0  0  0  0  0  0
  -38.2849   57.7250   61.3867 C   0  0  0  0  0  0  0  0  0  0  0  0
  -37.8338   58.7176   60.3083 C   0  0  0  0  0  0  0  0  0  0  0  0
  -38.9179   59.2061   59.3498 C   0  0  0  0  0  0  0  0  0  0  0  0
  -40.3378   59.1877   59.9492 C   0  0  0  0  0  0  0  0  0  0  0  0
  -41.2263   58.0207   59.4924 C   0  0  0  0  0  0  0  0  0  0  0  0
  -41.7703   57.2410   60.6929 C   0  0  0  0  0  0  0  0  0  0  0  0
  -41.9963   58.0349   61.9674 C   0  0  0  0  0  0  0  0  0  0  0  0
  -37.2339   61.4824   62.7657 C   0  0  0  0  0  0  0  0  0  0  0  0
  -37.2828   62.9299   62.8405 O   0  0  0  0  0  0  0  0  0  0  0  0
  -36.5114   64.8194   64.8435 O   0  0  0  0  0  0  0  0  0  0  0  0
  -32.7194   63.2321   64.1363 O   0  0  0  0  0  0  0  0  0  0  0  0
  -34.9704   63.0713   62.1207 O   0  0  0  0  0  0  0  0  0  0  0  0
  -36.0483   63.7396   62.8200 C   0  0  0  0  0  0  0  0  0  0  0  0
  -35.4824   64.1436   64.1890 C   0  0  0  0  0  0  0  0  0  0  0  0
  -34.2617   65.0856   64.1022 C   0  0  0  0  0  0  0  0  0  0  0  0
  -33.1972   64.3271   63.3586 C   0  0  0  0  0  0  0  0  0  0  0  0
  -33.7446   63.8461   62.0269 C   0  0  0  0  0  0  0  0  0  0  0  0
  -37.2882   64.2418   64.9074 H   0  0  0  0  0  0  0  0  0  0  0  0
  -32.3750   63.5616   64.9811 H   0  0  0  0  0  0  0  0  0  0  0  0
  -32.5852   61.7654   61.8269 O   0  0  0  0  0  0  0  0  0  0  0  0
  -32.5360   63.1095   61.4533 C   0  0  0  0  0  0  0  0  0  0  0  0
  -31.8167   61.2998   61.4615 H   0  0  0  0  0  0  0  0  0  0  0  0
  -33.6707   65.4759   65.3625 O   0  0  0  0  0  0  0  0  0  0  0  0
  -33.2733   65.3704   67.9214 O   0  0  0  0  0  0  0  0  0  0  0  0
  -33.3618   63.3128   66.6379 O   0  0  0  0  0  0  0  0  0  0  0  0
  -35.3982   64.5319   67.1288 O   0  0  0  0  0  0  0  0  0  0  0  0
  -33.9528   64.6698   66.7917 S   0  0  0  0  0  0  0  0  0  0  0  0
  -32.3297   65.4695   67.7197 H   0  0  0  0  0  0  0  0  0  0  0  0
  -35.7917   65.4125   67.2310 H   0  0  0  0  0  0  0  0  0  0  0  0
  2  1  1  0  0  0
  2  4  1  0  0  0
  2  5  1  0  0  0
 41 42  1  0  0  0
 41  1  1  0  0  0
 42 46  1  0  0  0
  1 24  1  0  0  0
 23 24  1  0  0  0
 23 25  1  0  0  0
 24 26  1  0  0  0
  3  4  2  0  0  0
 26 27  2  0  0  0
 27 28  1  0  0  0
 43 47  1  0  0  0
 43 51  1  0  0  0
 28 29  1  0  0  0
 56 48  1  0  0  0
 56 60  1  0  0  0
 29 30  1  0  0  0
 57 60  1  0  0  0
 57 61  1  0  0  0
 30 31  1  0  0  0
 44 49  1  0  0  0
 44 52  1  0  0  0
 31 32  1  0  0  0
 45 46  1  0  0  0
 45 50  1  0  0  0
 32 33  1  0  0  0
 53 54  1  0  0  0
 53 55  1  0  0  0
 33 34  1  0  0  0
 34 35  1  0  0  0
 35 36  1  0  0  0
 58 60  1  0  0  0
 36 37  1  0  0  0
 59 60  1  0  0  0
 59 62  1  0  0  0
 37 38  1  0  0  0
 38 39  1  0  0  0
 39 40  1  0  0  0
  4  6  1  0  0  0
  6  7  1  0  0  0
  7  8  1  0  0  0
  8  9  1  0  0  0
  9 10  1  0  0  0
 10 11  1  0  0  0
 11 12  1  0  0  0
 12 13  1  0  0  0
 13 14  1  0  0  0
 14 15  1  0  0  0
 15 16  1  0  0  0
 16 17  1  0  0  0
 17 18  1  0  0  0
 18 19  1  0  0  0
 19 20  1  0  0  0
 20 21  1  0  0  0
 21 22  1  0  0  0
 46 47  1  0  0  0
 47 48  1  0  0  0
 48 49  1  0  0  0
 49 50  1  0  0  0
 50 54  1  0  0  0
M  CHG 1  58  -1
M  END
> <minimizedAffinity>
-9.02436

> <CNNscore>
0.1416319311

> <CNNaffinity>
6.8608231544

> <CNN_VS>
0.9717116356

> <CNNaffinity_variance>
1.0708059072

$$$$
/media/chris/experiments/cd1a-new-docking/inputs/ligands/1onq_ligand.pdb


 62 62  0  0  0  0  0  0  0  0999 V2000
  -41.5123   57.7398   64.3044 C   0  0  0  0  0  0  0  0  0  0  0  0
  -42.4246   57.6055   65.4228 N   0  0  0  0  0  0  0  0  0  0  0  0
  -44.4330   58.0110   64.4485 O   0  0  0  0  0  0  0  0  0  0  0  0
  -43.7576   57.7427   65.4230 C   0  0  0  0  0  0  0  0  0  0  0  0
  -42.0138   57.3862   66.2902 H   0  0  0  0  0  0  0  0  0  0  0  0
  -44.4203   57.5307   66.7518 C   0  0  0  0  0  0  0  0  0  0  0  0
  -45.9236   57.6743   66.5140 C   0  0  0  0  0  0  0  0  0  0  0  0
  -46.4353   58.9548   67.1693 C   0  0  0  0  0  0  0  0  0  0  0  0
  -46.7053   60.1134   66.2402 C   0  0  0  0  0  0  0  0  0  0  0  0
  -47.8922   59.7323   65.3615 C   0  0  0  0  0  0  0  0  0  0  0  0
  -49.2261   59.7659   66.1195 C   0  0  0  0  0  0  0  0  0  0  0  0
  -50.4231   59.2242   65.3169 C   0  0  0  0  0  0  0  0  0  0  0  0
  -51.0954   60.3031   64.4396 C   0  0  0  0  0  0  0  0  0  0  0  0
  -51.1734   59.8419   62.9814 C   0  0  0  0  0  0  0  0  0  0  0  0
  -50.7163   58.4096   62.7327 C   0  0  0  0  0  0  0  0  0  0  0  0
  -49.4005   58.3476   61.9712 C   0  0  0  0  0  0  0  0  0  0  0  0
  -49.4138   58.9382   60.5594 C   0  0  0  0  0  0  0  0  0  0  0  0
  -49.2222   57.8003   59.5658 C   0  0  0  0  0  0  0  0  0  0  0  0
  -47.8931   57.0596   59.5527 C   0  0  0  0  0  0  0  0  0  0  0  0
  -47.6499   56.3907   58.1906 C   0  0  0  0  0  0  0  0  0  0  0  0
  -47.7916   57.3337   56.9817 C   0  0  0  0  0  0  0  0  0  0  0  0
  -46.7325   58.4331   56.9459 C   0  0  0  0  0  0  0  0  0  0  0  0
  -41.4790   55.4526   63.9004 O   0  0  0  0  0  0  0  0  0  0  0  0
  -41.9904   56.6546   63.3551 C   0  0  0  0  0  0  0  0  0  0  0  0
  -41.8498   55.3159   64.7863 H   0  0  0  0  0  0  0  0  0  0  0  0
  -41.4429   56.9305   61.9528 C   0  0  0  0  0  0  0  0  0  0  0  0
  -42.1407   57.5878   61.0109 C   0  0  0  0  0  0  0  0  0  0  0  0
  -41.5241   57.8228   59.6332 C   0  0  0  0  0  0  0  0  0  0  0  0
  -40.0402   57.4384   59.5425 C   0  0  0  0  0  0  0  0  0  0  0  0
  -39.0962   58.5411   59.0286 C   0  0  0  0  0  0  0  0  0  0  0  0
  -38.2285   59.1022   60.1808 C   0  0  0  0  0  0  0  0  0  0  0  0
  -38.6752   60.4784   60.7361 C   0  0  0  0  0  0  0  0  0  0  0  0
  -40.0697   60.4690   61.4053 C   0  0  0  0  0  0  0  0  0  0  0  0
  -41.1626   61.1645   60.5651 C   0  0  0  0  0  0  0  0  0  0  0  0
  -42.3138   61.7367   61.4010 C   0  0  0  0  0  0  0  0  0  0  0  0
  -42.3899   61.2640   62.8513 C   0  0  0  0  0  0  0  0  0  0  0  0
  -43.7987   61.3631   63.4688 C   0  0  0  0  0  0  0  0  0  0  0  0
  -43.8352   61.4966   64.9987 C   0  0  0  0  0  0  0  0  0  0  0  0
  -42.4449   61.2795   65.6030 C   0  0  0  0  0  0  0  0  0  0  0  0
  -42.3998   60.8838   67.0683 C   0  0  0  0  0  0  0  0  0  0  0  0
  -40.0099   57.7412   64.6674 C   0  0  0  0  0  0  0  0  0  0  0  0
  -39.4580   58.9970   65.1382 O   0  0  0  0  0  0  0  0  0  0  0  0
  -38.2989   61.5124   65.8500 O   0  0  0  0  0  0  0  0  0  0  0  0
  -34.7339   59.5110   65.0235 O   0  0  0  0  0  0  0  0  0  0  0  0
  -37.4046   58.6447   63.8954 O   0  0  0  0  0  0  0  0  0  0  0  0
  -38.3042   59.6262   64.4653 C   0  0  0  0  0  0  0  0  0  0  0  0
  -37.4352   60.5472   65.3339 C   0  0  0  0  0  0  0  0  0  0  0  0
  -36.3170   61.2670   64.5488 C   0  0  0  0  0  0  0  0  0  0  0  0
  -35.4374   60.1861   63.9836 C   0  0  0  0  0  0  0  0  0  0  0  0
  -36.2757   59.2111   63.1768 C   0  0  0  0  0  0  0  0  0  0  0  0
  -39.0093   61.0778   66.3475 H   0  0  0  0  0  0  0  0  0  0  0  0
  -34.2058   60.1516   65.5252 H   0  0  0  0  0  0  0  0  0  0  0  0
  -34.0599   58.9000   62.3358 O   0  0  0  0  0  0  0  0  0  0  0  0
  -35.2155   58.2141   62.7141 C   0  0  0  0  0  0  0  0  0  0  0  0
  -33.3882   58.2647   62.0424 H   0  0  0  0  0  0  0  0  0  0  0  0
  -35.4501   62.1263   65.3234 O   0  0  0  0  0  0  0  0  0  0  0  0
  -34.4126   64.4075   65.9842 O   0  0  0  0  0  0  0  0  0  0  0  0
  -36.7899   64.0372   66.3003 O   0  0  0  0  0  0  0  0  0  0  0  0
  -35.9000   64.4157   64.0779 O   0  0  0  0  0  0  0  0  0  0  0  0
  -35.6341   63.7793   65.3993 S   0  0  0  0  0  0  0  0  0  0  0  0
  -34.2234   64.0052   66.8463 H   0  0  0  0  0  0  0  0  0  0  0  0
  -35.1509   64.2524   63.4838 H   0  0  0  0  0  0  0  0  0  0  0  0
  2  1  1  0  0  0
  2  4  1  0  0  0
  2  5  1  0  0  0
 41 42  1  0  0  0
 41  1  1  0  0  0
 42 46  1  0  0  0
  1 24  1  0  0  0
 23 24  1  0  0  0
 23 25  1  0  0  0
 24 26  1  0  0  0
  3  4  2  0  0  0
 26 27  2  0  0  0
 27 28  1  0  0  0
 43 47  1  0  0  0
 43 51  1  0  0  0
 28 29  1  0  0  0
 56 48  1  0  0  0
 56 60  1  0  0  0
 29 30  1  0  0  0
 57 60  1  0  0  0
 57 61  1  0  0  0
 30 31  1  0  0  0
 44 49  1  0  0  0
 44 52  1  0  0  0
 31 32  1  0  0  0
 45 46  1  0  0  0
 45 50  1  0  0  0
 32 33  1  0  0  0
 53 54  1  0  0  0
 53 55  1  0  0  0
 33 34  1  0  0  0
 34 35  1  0  0  0
 35 36  1  0  0  0
 58 60  1  0  0  0
 36 37  1  0  0  0
 59 60  1  0  0  0
 59 62  1  0  0  0
 37 38  1  0  0  0
 38 39  1  0  0  0
 39 40  1  0  0  0
  4  6  1  0  0  0
  6  7  1  0  0  0
  7  8  1  0  0  0
  8  9  1  0  0  0
  9 10  1  0  0  0
 10 11  1  0  0  0
 11 12  1  0  0  0
 12 13  1  0  0  0
 13 14  1  0  0  0
 14 15  1  0  0  0
 15 16  1  0  0  0
 16 17  1  0  0  0
 17 18  1  0  0  0
 18 19  1  0  0  0
 19 20  1  0  0  0
 20 21  1  0  0  0
 21 22  1  0  0  0
 46 47  1  0  0  0
 47 48  1  0  0  0
 48 49  1  0  0  0
 49 50  1  0  0  0
 50 54  1  0  0  0
M  CHG 1  58  -1
M  END
> <minimizedAffinity>
-9.26576

> <CNNscore>
0.1327427477

> <CNNaffinity>
7.1170501709

> <CNN_VS>
0.9447367787

> <CNNaffinity_variance>
2.5709567070

$$$$
