/media/chris/experiments/cd1a-new-docking/inputs/ligands/1onq_ligand.pdb


 62 62  0  0  0  0  0  0  0  0999 V2000
  -41.6196   60.0489   65.2634 C   0  0  0  0  0  0  0  0  0  0  0  0
  -41.5838   58.6965   64.7429 N   0  0  0  0  0  0  0  0  0  0  0  0
  -42.4421   57.5006   66.4693 O   0  0  0  0  0  0  0  0  0  0  0  0
  -41.9771   57.5675   65.3481 C   0  0  0  0  0  0  0  0  0  0  0  0
  -41.2260   58.5948   63.8313 H   0  0  0  0  0  0  0  0  0  0  0  0
  -41.8175   56.3183   64.5333 C   0  0  0  0  0  0  0  0  0  0  0  0
  -42.0378   56.7210   63.0750 C   0  0  0  0  0  0  0  0  0  0  0  0
  -41.2763   55.7732   62.1515 C   0  0  0  0  0  0  0  0  0  0  0  0
  -41.1409   56.2138   60.7142 C   0  0  0  0  0  0  0  0  0  0  0  0
  -41.5316   57.6863   60.6449 C   0  0  0  0  0  0  0  0  0  0  0  0
  -41.0665   58.3628   59.3483 C   0  0  0  0  0  0  0  0  0  0  0  0
  -39.5476   58.2897   59.1068 C   0  0  0  0  0  0  0  0  0  0  0  0
  -38.7434   59.1992   60.0614 C   0  0  0  0  0  0  0  0  0  0  0  0
  -37.5949   58.4206   60.7094 C   0  0  0  0  0  0  0  0  0  0  0  0
  -38.0011   57.5158   61.8664 C   0  0  0  0  0  0  0  0  0  0  0  0
  -38.5023   58.3044   63.0673 C   0  0  0  0  0  0  0  0  0  0  0  0
  -37.9852   57.8474   64.4333 C   0  0  0  0  0  0  0  0  0  0  0  0
  -36.4766   57.6663   64.3345 C   0  0  0  0  0  0  0  0  0  0  0  0
  -35.6249   58.8562   63.9171 C   0  0  0  0  0  0  0  0  0  0  0  0
  -34.4108   58.4010   63.0920 C   0  0  0  0  0  0  0  0  0  0  0  0
  -33.0474   58.7700   63.7052 C   0  0  0  0  0  0  0  0  0  0  0  0
  -32.8971   58.3221   65.1572 C   0  0  0  0  0  0  0  0  0  0  0  0
  -42.4463   62.1317   64.6517 O   0  0  0  0  0  0  0  0  0  0  0  0
  -42.4392   60.7846   64.2172 C   0  0  0  0  0  0  0  0  0  0  0  0
  -41.5375   62.4702   64.6703 H   0  0  0  0  0  0  0  0  0  0  0  0
  -43.8477   60.1879   64.1651 C   0  0  0  0  0  0  0  0  0  0  0  0
  -44.8138   60.5150   65.0401 C   0  0  0  0  0  0  0  0  0  0  0  0
  -46.1955   59.8742   64.9218 C   0  0  0  0  0  0  0  0  0  0  0  0
  -47.0330   59.9610   66.2061 C   0  0  0  0  0  0  0  0  0  0  0  0
  -48.5377   60.2185   66.0044 C   0  0  0  0  0  0  0  0  0  0  0  0
  -48.8505   60.5101   64.5170 C   0  0  0  0  0  0  0  0  0  0  0  0
  -50.3538   60.6676   64.1754 C   0  0  0  0  0  0  0  0  0  0  0  0
  -50.9185   59.5471   63.2708 C   0  0  0  0  0  0  0  0  0  0  0  0
  -49.9044   58.4202   62.9777 C   0  0  0  0  0  0  0  0  0  0  0  0
  -49.9880   57.8703   61.5487 C   0  0  0  0  0  0  0  0  0  0  0  0
  -49.8859   58.9005   60.4259 C   0  0  0  0  0  0  0  0  0  0  0  0
  -49.0051   58.4520   59.2431 C   0  0  0  0  0  0  0  0  0  0  0  0
  -48.4389   57.0280   59.3513 C   0  0  0  0  0  0  0  0  0  0  0  0
  -47.1274   56.8968   58.5716 C   0  0  0  0  0  0  0  0  0  0  0  0
  -47.2126   56.2180   57.2161 C   0  0  0  0  0  0  0  0  0  0  0  0
  -40.2473   60.6565   65.6330 C   0  0  0  0  0  0  0  0  0  0  0  0
  -39.5188   61.3109   64.5633 O   0  0  0  0  0  0  0  0  0  0  0  0
  -37.7467   61.5978   62.3375 O   0  0  0  0  0  0  0  0  0  0  0  0
  -36.0088   64.5098   64.7663 O   0  0  0  0  0  0  0  0  0  0  0  0
  -37.6971   62.2501   65.8612 O   0  0  0  0  0  0  0  0  0  0  0  0
  -38.0626   61.5364   64.6552 C   0  0  0  0  0  0  0  0  0  0  0  0
  -37.4238   62.3094   63.4924 C   0  0  0  0  0  0  0  0  0  0  0  0
  -35.8856   62.4109   63.5855 C   0  0  0  0  0  0  0  0  0  0  0  0
  -35.5896   63.1506   64.8609 C   0  0  0  0  0  0  0  0  0  0  0  0
  -36.2682   62.4555   66.0273 C   0  0  0  0  0  0  0  0  0  0  0  0
  -38.7108   61.5240   62.2622 H   0  0  0  0  0  0  0  0  0  0  0  0
  -35.5637   64.9339   64.0160 H   0  0  0  0  0  0  0  0  0  0  0  0
  -36.2389   62.7610   68.3978 O   0  0  0  0  0  0  0  0  0  0  0  0
  -35.8576   63.3533   67.1926 C   0  0  0  0  0  0  0  0  0  0  0  0
  -35.9770   63.3330   69.1362 H   0  0  0  0  0  0  0  0  0  0  0  0
  -35.2337   63.1530   62.5300 O   0  0  0  0  0  0  0  0  0  0  0  0
  -33.2204   64.6662   63.1416 O   0  0  0  0  0  0  0  0  0  0  0  0
  -33.2310   63.4872   61.0205 O   0  0  0  0  0  0  0  0  0  0  0  0
  -32.7963   62.2866   63.0806 O   0  0  0  0  0  0  0  0  0  0  0  0
  -33.5868   63.3884   62.4621 S   0  0  0  0  0  0  0  0  0  0  0  0
  -33.7260   65.3964   62.7515 H   0  0  0  0  0  0  0  0  0  0  0  0
  -33.0223   62.2151   64.0212 H   0  0  0  0  0  0  0  0  0  0  0  0
  2  1  1  0  0  0
  2  4  1  0  0  0
  2  5  1  0  0  0
 41 42  1  0  0  0
 41  1  1  0  0  0
 42 46  1  0  0  0
  1 24  1  0  0  0
 23 24  1  0  0  0
 23 25  1  0  0  0
 24 26  1  0  0  0
  3  4  2  0  0  0
 26 27  2  0  0  0
 27 28  1  0  0  0
 43 47  1  0  0  0
 43 51  1  0  0  0
 28 29  1  0  0  0
 56 48  1  0  0  0
 56 60  1  0  0  0
 29 30  1  0  0  0
 57 60  1  0  0  0
 57 61  1  0  0  0
 30 31  1  0  0  0
 44 49  1  0  0  0
 44 52  1  0  0  0
 31 32  1  0  0  0
 45 46  1  0  0  0
 45 50  1  0  0  0
 32 33  1  0  0  0
 53 54  1  0  0  0
 53 55  1  0  0  0
 33 34  1  0  0  0
 34 35  1  0  0  0
 35 36  1  0  0  0
 58 60  1  0  0  0
 36 37  1  0  0  0
 59 60  1  0  0  0
 59 62  1  0  0  0
 37 38  1  0  0  0
 38 39  1  0  0  0
 39 40  1  0  0  0
  4  6  1  0  0  0
  6  7  1  0  0  0
  7  8  1  0  0  0
  8  9  1  0  0  0
  9 10  1  0  0  0
 10 11  1  0  0  0
 11 12  1  0  0  0
 12 13  1  0  0  0
 13 14  1  0  0  0
 14 15  1  0  0  0
 15 16  1  0  0  0
 16 17  1  0  0  0
 17 18  1  0  0  0
 18 19  1  0  0  0
 19 20  1  0  0  0
 20 21  1  0  0  0
 21 22  1  0  0  0
 46 47  1  0  0  0
 47 48  1  0  0  0
 48 49  1  0  0  0
 49 50  1  0  0  0
 50 54  1  0  0  0
M  CHG 1  58  -1
M  END
> <minimizedAffinity>
-9.67446

> <CNNscore>
0.3797220290

> <CNNaffinity>
7.2714014053

> <CNN_VS>
2.7611112595

> <CNNaffinity_variance>
2.1373591423

$$$$
/media/chris/experiments/cd1a-new-docking/inputs/ligands/1onq_ligand.pdb


 62 62  0  0  0  0  0  0  0  0999 V2000
  -40.1348   60.8887   64.6506 C   0  0  0  0  0  0  0  0  0  0  0  0
  -41.3256   60.4414   65.3458 N   0  0  0  0  0  0  0  0  0  0  0  0
  -42.8089   62.0859   64.8532 O   0  0  0  0  0  0  0  0  0  0  0  0
  -42.5242   61.0380   65.3996 C   0  0  0  0  0  0  0  0  0  0  0  0
  -41.2434   59.5938   65.8399 H   0  0  0  0  0  0  0  0  0  0  0  0
  -43.5624   60.3119   66.2025 C   0  0  0  0  0  0  0  0  0  0  0  0
  -44.8956   60.5319   65.4873 C   0  0  0  0  0  0  0  0  0  0  0  0
  -45.3026   59.2638   64.7408 C   0  0  0  0  0  0  0  0  0  0  0  0
  -46.7857   59.0436   64.5667 C   0  0  0  0  0  0  0  0  0  0  0  0
  -47.4013   60.3709   64.1367 C   0  0  0  0  0  0  0  0  0  0  0  0
  -48.5461   60.8188   65.0553 C   0  0  0  0  0  0  0  0  0  0  0  0
  -49.1752   59.6822   65.8817 C   0  0  0  0  0  0  0  0  0  0  0  0
  -50.4058   59.0505   65.1948 C   0  0  0  0  0  0  0  0  0  0  0  0
  -51.1009   60.0701   64.2879 C   0  0  0  0  0  0  0  0  0  0  0  0
  -51.0918   59.7248   62.8037 C   0  0  0  0  0  0  0  0  0  0  0  0
  -50.6147   58.3033   62.5447 C   0  0  0  0  0  0  0  0  0  0  0  0
  -49.2748   58.1671   61.8179 C   0  0  0  0  0  0  0  0  0  0  0  0
  -49.4981   58.4842   60.3454 C   0  0  0  0  0  0  0  0  0  0  0  0
  -48.7402   57.6763   59.3023 C   0  0  0  0  0  0  0  0  0  0  0  0
  -47.9530   58.5986   58.3579 C   0  0  0  0  0  0  0  0  0  0  0  0
  -47.0622   57.8612   57.3412 C   0  0  0  0  0  0  0  0  0  0  0  0
  -47.2263   56.3436   57.3833 C   0  0  0  0  0  0  0  0  0  0  0  0
  -40.8652   61.0703   62.4530 O   0  0  0  0  0  0  0  0  0  0  0  0
  -40.2299   60.1535   63.3247 C   0  0  0  0  0  0  0  0  0  0  0  0
  -40.3153   61.8641   62.3622 H   0  0  0  0  0  0  0  0  0  0  0  0
  -41.0485   58.8740   63.5121 C   0  0  0  0  0  0  0  0  0  0  0  0
  -40.4893   57.6769   63.7581 C   0  0  0  0  0  0  0  0  0  0  0  0
  -41.3757   56.4450   63.9323 C   0  0  0  0  0  0  0  0  0  0  0  0
  -41.5212   55.5989   62.6590 C   0  0  0  0  0  0  0  0  0  0  0  0
  -40.6275   56.0154   61.4762 C   0  0  0  0  0  0  0  0  0  0  0  0
  -41.4786   56.6039   60.3253 C   0  0  0  0  0  0  0  0  0  0  0  0
  -41.1359   58.0620   59.9276 C   0  0  0  0  0  0  0  0  0  0  0  0
  -39.8134   58.2091   59.1390 C   0  0  0  0  0  0  0  0  0  0  0  0
  -39.0101   59.4743   59.5108 C   0  0  0  0  0  0  0  0  0  0  0  0
  -38.1938   59.3307   60.8009 C   0  0  0  0  0  0  0  0  0  0  0  0
  -37.6786   57.9281   61.1168 C   0  0  0  0  0  0  0  0  0  0  0  0
  -37.2388   57.7380   62.5818 C   0  0  0  0  0  0  0  0  0  0  0  0
  -36.0542   58.6084   63.0281 C   0  0  0  0  0  0  0  0  0  0  0  0
  -34.7466   57.8116   63.0045 C   0  0  0  0  0  0  0  0  0  0  0  0
  -33.5300   58.5271   62.4449 C   0  0  0  0  0  0  0  0  0  0  0  0
  -38.8119   60.7468   65.4372 C   0  0  0  0  0  0  0  0  0  0  0  0
  -38.0050   61.9445   65.5698 O   0  0  0  0  0  0  0  0  0  0  0  0
  -36.8976   62.0430   62.9352 O   0  0  0  0  0  0  0  0  0  0  0  0
  -34.1080   64.5453   64.7671 O   0  0  0  0  0  0  0  0  0  0  0  0
  -35.7681   62.5336   66.3009 O   0  0  0  0  0  0  0  0  0  0  0  0
  -36.5639   61.9360   65.2487 C   0  0  0  0  0  0  0  0  0  0  0  0
  -36.1567   62.6472   63.9502 C   0  0  0  0  0  0  0  0  0  0  0  0
  -34.6576   62.5034   63.6079 C   0  0  0  0  0  0  0  0  0  0  0  0
  -33.9041   63.1346   64.7460 C   0  0  0  0  0  0  0  0  0  0  0  0
  -34.3355   62.5064   66.0588 C   0  0  0  0  0  0  0  0  0  0  0  0
  -37.8436   62.1237   63.1336 H   0  0  0  0  0  0  0  0  0  0  0  0
  -33.8262   64.9254   63.9202 H   0  0  0  0  0  0  0  0  0  0  0  0
  -34.1539   64.4339   67.4608 O   0  0  0  0  0  0  0  0  0  0  0  0
  -33.4786   63.2803   67.0584 C   0  0  0  0  0  0  0  0  0  0  0  0
  -33.6077   64.9235   68.0955 H   0  0  0  0  0  0  0  0  0  0  0  0
  -34.2132   63.1776   62.4088 O   0  0  0  0  0  0  0  0  0  0  0  0
  -32.2420   61.6908   61.6207 O   0  0  0  0  0  0  0  0  0  0  0  0
  -31.7888   63.6900   62.9196 O   0  0  0  0  0  0  0  0  0  0  0  0
  -32.4244   63.8692   60.5876 O   0  0  0  0  0  0  0  0  0  0  0  0
  -32.6461   63.1095   61.8506 S   0  0  0  0  0  0  0  0  0  0  0  0
  -32.3794   61.1797   62.4337 H   0  0  0  0  0  0  0  0  0  0  0  0
  -32.9799   63.4971   59.8848 H   0  0  0  0  0  0  0  0  0  0  0  0
  2  1  1  0  0  0
  2  4  1  0  0  0
  2  5  1  0  0  0
 41 42  1  0  0  0
 41  1  1  0  0  0
 42 46  1  0  0  0
  1 24  1  0  0  0
 23 24  1  0  0  0
 23 25  1  0  0  0
 24 26  1  0  0  0
  3  4  2  0  0  0
 26 27  2  0  0  0
 27 28  1  0  0  0
 43 47  1  0  0  0
 43 51  1  0  0  0
 28 29  1  0  0  0
 56 48  1  0  0  0
 56 60  1  0  0  0
 29 30  1  0  0  0
 57 60  1  0  0  0
 57 61  1  0  0  0
 30 31  1  0  0  0
 44 49  1  0  0  0
 44 52  1  0  0  0
 31 32  1  0  0  0
 45 46  1  0  0  0
 45 50  1  0  0  0
 32 33  1  0  0  0
 53 54  1  0  0  0
 53 55  1  0  0  0
 33 34  1  0  0  0
 34 35  1  0  0  0
 35 36  1  0  0  0
 58 60  1  0  0  0
 36 37  1  0  0  0
 59 60  1  0  0  0
 59 62  1  0  0  0
 37 38  1  0  0  0
 38 39  1  0  0  0
 39 40  1  0  0  0
  4  6  1  0  0  0
  6  7  1  0  0  0
  7  8  1  0  0  0
  8  9  1  0  0  0
  9 10  1  0  0  0
 10 11  1  0  0  0
 11 12  1  0  0  0
 12 13  1  0  0  0
 13 14  1  0  0  0
 14 15  1  0  0  0
 15 16  1  0  0  0
 16 17  1  0  0  0
 17 18  1  0  0  0
 18 19  1  0  0  0
 19 20  1  0  0  0
 20 21  1  0  0  0
 21 22  1  0  0  0
 46 47  1  0  0  0
 47 48  1  0  0  0
 48 49  1  0  0  0
 49 50  1  0  0  0
 50 54  1  0  0  0
M  CHG 1  58  -1
M  END
> <minimizedAffinity>
-9.25711

> <CNNscore>
0.2863779068

> <CNNaffinity>
7.1643624306

> <CNN_VS>
2.0517151356

> <CNNaffinity_variance>
1.2502114773

$$$$
/media/chris/experiments/cd1a-new-docking/inputs/ligands/1onq_ligand.pdb


 62 62  0  0  0  0  0  0  0  0999 V2000
  -40.1809   60.5733   65.2671 C   0  0  0  0  0  0  0  0  0  0  0  0
  -40.9545   59.3830   65.5598 N   0  0  0  0  0  0  0  0  0  0  0  0
  -42.8950   60.2588   66.3438 O   0  0  0  0  0  0  0  0  0  0  0  0
  -42.1978   59.3061   66.0538 C   0  0  0  0  0  0  0  0  0  0  0  0
  -40.5114   58.5240   65.3722 H   0  0  0  0  0  0  0  0  0  0  0  0
  -42.7263   57.9145   66.2369 C   0  0  0  0  0  0  0  0  0  0  0  0
  -43.9824   57.8106   65.3717 C   0  0  0  0  0  0  0  0  0  0  0  0
  -45.2059   57.5765   66.2545 C   0  0  0  0  0  0  0  0  0  0  0  0
  -46.0270   58.7984   66.5879 C   0  0  0  0  0  0  0  0  0  0  0  0
  -46.2308   59.5831   65.2962 C   0  0  0  0  0  0  0  0  0  0  0  0
  -47.6580   60.1284   65.1525 C   0  0  0  0  0  0  0  0  0  0  0  0
  -48.5575   59.8759   66.3764 C   0  0  0  0  0  0  0  0  0  0  0  0
  -50.0184   59.5548   65.9918 C   0  0  0  0  0  0  0  0  0  0  0  0
  -50.0963   59.0330   64.5542 C   0  0  0  0  0  0  0  0  0  0  0  0
  -50.9272   59.8855   63.6028 C   0  0  0  0  0  0  0  0  0  0  0  0
  -50.7791   59.4448   62.1540 C   0  0  0  0  0  0  0  0  0  0  0  0
  -50.9366   57.9456   61.8893 C   0  0  0  0  0  0  0  0  0  0  0  0
  -49.6747   57.4500   61.1960 C   0  0  0  0  0  0  0  0  0  0  0  0
  -48.9708   58.3750   60.2140 C   0  0  0  0  0  0  0  0  0  0  0  0
  -48.8524   57.7190   58.8291 C   0  0  0  0  0  0  0  0  0  0  0  0
  -47.4065   57.4693   58.3624 C   0  0  0  0  0  0  0  0  0  0  0  0
  -46.9993   58.3314   57.1697 C   0  0  0  0  0  0  0  0  0  0  0  0
  -41.6474   61.6003   63.7871 O   0  0  0  0  0  0  0  0  0  0  0  0
  -40.4758   60.8061   63.7952 C   0  0  0  0  0  0  0  0  0  0  0  0
  -41.4703   62.4423   64.2349 H   0  0  0  0  0  0  0  0  0  0  0  0
  -40.6878   59.4584   63.1015 C   0  0  0  0  0  0  0  0  0  0  0  0
  -41.6234   59.2605   62.1573 C   0  0  0  0  0  0  0  0  0  0  0  0
  -41.7733   57.8840   61.5121 C   0  0  0  0  0  0  0  0  0  0  0  0
  -41.5387   57.8799   59.9944 C   0  0  0  0  0  0  0  0  0  0  0  0
  -40.1190   57.4932   59.5405 C   0  0  0  0  0  0  0  0  0  0  0  0
  -39.2885   58.7542   59.2007 C   0  0  0  0  0  0  0  0  0  0  0  0
  -38.0478   58.9912   60.0984 C   0  0  0  0  0  0  0  0  0  0  0  0
  -37.9604   58.0468   61.3203 C   0  0  0  0  0  0  0  0  0  0  0  0
  -36.6764   58.2361   62.1566 C   0  0  0  0  0  0  0  0  0  0  0  0
  -36.8632   57.9434   63.6502 C   0  0  0  0  0  0  0  0  0  0  0  0
  -35.5983   57.5857   64.4276 C   0  0  0  0  0  0  0  0  0  0  0  0
  -34.6760   58.7881   64.7099 C   0  0  0  0  0  0  0  0  0  0  0  0
  -33.1740   58.4676   64.7434 C   0  0  0  0  0  0  0  0  0  0  0  0
  -32.4230   59.2369   63.6529 C   0  0  0  0  0  0  0  0  0  0  0  0
  -32.9704   59.1153   62.2419 C   0  0  0  0  0  0  0  0  0  0  0  0
  -38.6935   60.5198   65.6839 C   0  0  0  0  0  0  0  0  0  0  0  0
  -37.9718   61.7776   65.6735 O   0  0  0  0  0  0  0  0  0  0  0  0
  -36.8650   61.6994   63.0380 O   0  0  0  0  0  0  0  0  0  0  0  0
  -34.2471   64.5360   64.6187 O   0  0  0  0  0  0  0  0  0  0  0  0
  -35.7794   62.5748   66.3394 O   0  0  0  0  0  0  0  0  0  0  0  0
  -36.5321   61.8315   65.3503 C   0  0  0  0  0  0  0  0  0  0  0  0
  -36.1674   62.4423   63.9896 C   0  0  0  0  0  0  0  0  0  0  0  0
  -34.6611   62.3635   63.6578 C   0  0  0  0  0  0  0  0  0  0  0  0
  -33.9531   63.1456   64.7294 C   0  0  0  0  0  0  0  0  0  0  0  0
  -34.3473   62.6169   66.0967 C   0  0  0  0  0  0  0  0  0  0  0  0
  -37.8148   61.7375   63.2308 H   0  0  0  0  0  0  0  0  0  0  0  0
  -33.9876   64.8523   63.7391 H   0  0  0  0  0  0  0  0  0  0  0  0
  -34.3397   64.6106   67.4153 O   0  0  0  0  0  0  0  0  0  0  0  0
  -33.5448   63.5344   67.0167 C   0  0  0  0  0  0  0  0  0  0  0  0
  -33.8278   65.1917   67.9995 H   0  0  0  0  0  0  0  0  0  0  0  0
  -34.2572   62.9493   62.3994 O   0  0  0  0  0  0  0  0  0  0  0  0
  -34.1352   65.4295   61.6571 O   0  0  0  0  0  0  0  0  0  0  0  0
  -36.2053   64.5544   62.5727 O   0  0  0  0  0  0  0  0  0  0  0  0
  -35.5278   63.9748   60.3189 O   0  0  0  0  0  0  0  0  0  0  0  0
  -35.0397   64.2426   61.7014 S   0  0  0  0  0  0  0  0  0  0  0  0
  -33.8070   65.6194   62.5499 H   0  0  0  0  0  0  0  0  0  0  0  0
  -34.7738   63.7705   59.7438 H   0  0  0  0  0  0  0  0  0  0  0  0
  2  1  1  0  0  0
  2  4  1  0  0  0
  2  5  1  0  0  0
 41 42  1  0  0  0
 41  1  1  0  0  0
 42 46  1  0  0  0
  1 24  1  0  0  0
 23 24  1  0  0  0
 23 25  1  0  0  0
 24 26  1  0  0  0
  3  4  2  0  0  0
 26 27  2  0  0  0
 27 28  1  0  0  0
 43 47  1  0  0  0
 43 51  1  0  0  0
 28 29  1  0  0  0
 56 48  1  0  0  0
 56 60  1  0  0  0
 29 30  1  0  0  0
 57 60  1  0  0  0
 57 61  1  0  0  0
 30 31  1  0  0  0
 44 49  1  0  0  0
 44 52  1  0  0  0
 31 32  1  0  0  0
 45 46  1  0  0  0
 45 50  1  0  0  0
 32 33  1  0  0  0
 53 54  1  0  0  0
 53 55  1  0  0  0
 33 34  1  0  0  0
 34 35  1  0  0  0
 35 36  1  0  0  0
 58 60  1  0  0  0
 36 37  1  0  0  0
 59 60  1  0  0  0
 59 62  1  0  0  0
 37 38  1  0  0  0
 38 39  1  0  0  0
 39 40  1  0  0  0
  4  6  1  0  0  0
  6  7  1  0  0  0
  7  8  1  0  0  0
  8  9  1  0  0  0
  9 10  1  0  0  0
 10 11  1  0  0  0
 11 12  1  0  0  0
 12 13  1  0  0  0
 13 14  1  0  0  0
 14 15  1  0  0  0
 15 16  1  0  0  0
 16 17  1  0  0  0
 17 18  1  0  0  0
 18 19  1  0  0  0
 19 20  1  0  0  0
 20 21  1  0  0  0
 21 22  1  0  0  0
 46 47  1  0  0  0
 47 48  1  0  0  0
 48 49  1  0  0  0
 49 50  1  0  0  0
 50 54  1  0  0  0
M  CHG 1  58  -1
M  END
> <minimizedAffinity>
-9.57042

> <CNNscore>
0.2659873664

> <CNNaffinity>
7.0298891068

> <CNN_VS>
1.8698617220

> <CNNaffinity_variance>
1.7817337513

$$$$
/media/chris/experiments/cd1a-new-docking/inputs/ligands/1onq_ligand.pdb


 62 62  0  0  0  0  0  0  0  0999 V2000
  -40.4624   61.1175   62.9978 C   0  0  0  0  0  0  0  0  0  0  0  0
  -40.8798   60.1189   63.9621 N   0  0  0  0  0  0  0  0  0  0  0  0
  -40.5369   61.1896   65.9327 O   0  0  0  0  0  0  0  0  0  0  0  0
  -40.8897   60.2143   65.2986 C   0  0  0  0  0  0  0  0  0  0  0  0
  -41.1953   59.2644   63.5885 H   0  0  0  0  0  0  0  0  0  0  0  0
  -41.3913   58.9992   66.0209 C   0  0  0  0  0  0  0  0  0  0  0  0
  -42.5534   58.4514   65.1923 C   0  0  0  0  0  0  0  0  0  0  0  0
  -43.8494   58.5300   65.9956 C   0  0  0  0  0  0  0  0  0  0  0  0
  -44.7665   59.6822   65.6641 C   0  0  0  0  0  0  0  0  0  0  0  0
  -46.2005   59.1729   65.7628 C   0  0  0  0  0  0  0  0  0  0  0  0
  -47.1227   59.7880   64.7015 C   0  0  0  0  0  0  0  0  0  0  0  0
  -48.3130   60.5760   65.2784 C   0  0  0  0  0  0  0  0  0  0  0  0
  -49.3929   59.6631   65.8996 C   0  0  0  0  0  0  0  0  0  0  0  0
  -50.6105   59.5615   64.9765 C   0  0  0  0  0  0  0  0  0  0  0  0
  -50.4256   58.6594   63.7622 C   0  0  0  0  0  0  0  0  0  0  0  0
  -50.6883   59.3912   62.4543 C   0  0  0  0  0  0  0  0  0  0  0  0
  -49.4527   59.9156   61.7190 C   0  0  0  0  0  0  0  0  0  0  0  0
  -49.5467   59.4825   60.2622 C   0  0  0  0  0  0  0  0  0  0  0  0
  -49.8098   58.0161   59.9528 C   0  0  0  0  0  0  0  0  0  0  0  0
  -49.3239   57.6565   58.5398 C   0  0  0  0  0  0  0  0  0  0  0  0
  -47.7998   57.4762   58.4152 C   0  0  0  0  0  0  0  0  0  0  0  0
  -47.1526   58.4602   57.4434 C   0  0  0  0  0  0  0  0  0  0  0  0
  -42.6326   60.4225   62.5470 O   0  0  0  0  0  0  0  0  0  0  0  0
  -41.4997   60.9694   61.8979 C   0  0  0  0  0  0  0  0  0  0  0  0
  -42.9449   61.0396   63.2270 H   0  0  0  0  0  0  0  0  0  0  0  0
  -40.9551   60.0419   60.8091 C   0  0  0  0  0  0  0  0  0  0  0  0
  -41.1019   58.7065   60.8446 C   0  0  0  0  0  0  0  0  0  0  0  0
  -40.5280   57.8483   59.7186 C   0  0  0  0  0  0  0  0  0  0  0  0
  -39.4198   58.5409   58.9121 C   0  0  0  0  0  0  0  0  0  0  0  0
  -38.0576   58.6630   59.6197 C   0  0  0  0  0  0  0  0  0  0  0  0
  -38.0741   57.9168   60.9755 C   0  0  0  0  0  0  0  0  0  0  0  0
  -36.8569   58.1885   61.8954 C   0  0  0  0  0  0  0  0  0  0  0  0
  -37.0968   57.8392   63.3830 C   0  0  0  0  0  0  0  0  0  0  0  0
  -35.7995   57.7663   64.2172 C   0  0  0  0  0  0  0  0  0  0  0  0
  -34.6903   58.6995   63.7171 C   0  0  0  0  0  0  0  0  0  0  0  0
  -33.3821   58.0272   63.3060 C   0  0  0  0  0  0  0  0  0  0  0  0
  -32.1846   58.9932   63.2116 C   0  0  0  0  0  0  0  0  0  0  0  0
  -32.3420   60.1338   62.1947 C   0  0  0  0  0  0  0  0  0  0  0  0
  -30.9817   60.7310   61.8232 C   0  0  0  0  0  0  0  0  0  0  0  0
  -31.0046   62.0725   61.1123 C   0  0  0  0  0  0  0  0  0  0  0  0
  -38.9775   61.0536   62.5737 C   0  0  0  0  0  0  0  0  0  0  0  0
  -37.9953   61.2820   63.6160 O   0  0  0  0  0  0  0  0  0  0  0  0
  -36.3025   62.0578   65.7862 O   0  0  0  0  0  0  0  0  0  0  0  0
  -33.9661   63.6366   62.7125 O   0  0  0  0  0  0  0  0  0  0  0  0
  -36.9291   63.1003   62.4150 O   0  0  0  0  0  0  0  0  0  0  0  0
  -37.2696   62.5639   63.7164 C   0  0  0  0  0  0  0  0  0  0  0  0
  -35.9629   62.5393   64.5224 C   0  0  0  0  0  0  0  0  0  0  0  0
  -35.3121   63.9295   64.6917 C   0  0  0  0  0  0  0  0  0  0  0  0
  -34.9999   64.4193   63.3047 C   0  0  0  0  0  0  0  0  0  0  0  0
  -36.2566   64.3878   62.4538 C   0  0  0  0  0  0  0  0  0  0  0  0
  -36.7134   61.1835   65.6993 H   0  0  0  0  0  0  0  0  0  0  0  0
  -33.1741   63.6709   63.2716 H   0  0  0  0  0  0  0  0  0  0  0  0
  -35.3976   63.8198   60.2967 O   0  0  0  0  0  0  0  0  0  0  0  0
  -35.7271   64.9007   61.1163 C   0  0  0  0  0  0  0  0  0  0  0  0
  -35.0616   64.1481   59.4480 H   0  0  0  0  0  0  0  0  0  0  0  0
  -34.0634   63.9611   65.4196 O   0  0  0  0  0  0  0  0  0  0  0  0
  -33.2595   63.2100   67.7662 O   0  0  0  0  0  0  0  0  0  0  0  0
  -35.3598   64.4057   67.5462 O   0  0  0  0  0  0  0  0  0  0  0  0
  -33.2552   65.5900   67.3400 O   0  0  0  0  0  0  0  0  0  0  0  0
  -33.9621   64.3117   67.0440 S   0  0  0  0  0  0  0  0  0  0  0  0
  -33.7064   62.3683   67.5852 H   0  0  0  0  0  0  0  0  0  0  0  0
  -32.3426   65.5374   67.0157 H   0  0  0  0  0  0  0  0  0  0  0  0
  2  1  1  0  0  0
  2  4  1  0  0  0
  2  5  1  0  0  0
 41 42  1  0  0  0
 41  1  1  0  0  0
 42 46  1  0  0  0
  1 24  1  0  0  0
 23 24  1  0  0  0
 23 25  1  0  0  0
 24 26  1  0  0  0
  3  4  2  0  0  0
 26 27  2  0  0  0
 27 28  1  0  0  0
 43 47  1  0  0  0
 43 51  1  0  0  0
 28 29  1  0  0  0
 56 48  1  0  0  0
 56 60  1  0  0  0
 29 30  1  0  0  0
 57 60  1  0  0  0
 57 61  1  0  0  0
 30 31  1  0  0  0
 44 49  1  0  0  0
 44 52  1  0  0  0
 31 32  1  0  0  0
 45 46  1  0  0  0
 45 50  1  0  0  0
 32 33  1  0  0  0
 53 54  1  0  0  0
 53 55  1  0  0  0
 33 34  1  0  0  0
 34 35  1  0  0  0
 35 36  1  0  0  0
 58 60  1  0  0  0
 36 37  1  0  0  0
 59 60  1  0  0  0
 59 62  1  0  0  0
 37 38  1  0  0  0
 38 39  1  0  0  0
 39 40  1  0  0  0
  4  6  1  0  0  0
  6  7  1  0  0  0
  7  8  1  0  0  0
  8  9  1  0  0  0
  9 10  1  0  0  0
 10 11  1  0  0  0
 11 12  1  0  0  0
 12 13  1  0  0  0
 13 14  1  0  0  0
 14 15  1  0  0  0
 15 16  1  0  0  0
 16 17  1  0  0  0
 17 18  1  0  0  0
 18 19  1  0  0  0
 19 20  1  0  0  0
 20 21  1  0  0  0
 21 22  1  0  0  0
 46 47  1  0  0  0
 47 48  1  0  0  0
 48 49  1  0  0  0
 49 50  1  0  0  0
 50 54  1  0  0  0
M  CHG 1  58  -1
M  END
> <minimizedAffinity>
-9.36126

> <CNNscore>
0.2036398500

> <CNNaffinity>
6.9655485153

> <CNN_VS>
1.4184632301

> <CNNaffinity_variance>
1.2285379171

$$$$
/media/chris/experiments/cd1a-new-docking/inputs/ligands/1onq_ligand.pdb


 62 62  0  0  0  0  0  0  0  0999 V2000
  -41.5714   60.5357   64.6846 C   0  0  0  0  0  0  0  0  0  0  0  0
  -42.3358   59.3041   64.6746 N   0  0  0  0  0  0  0  0  0  0  0  0
  -41.8312   58.4157   66.7003 O   0  0  0  0  0  0  0  0  0  0  0  0
  -42.4126   58.3713   65.6337 C   0  0  0  0  0  0  0  0  0  0  0  0
  -42.8643   59.1314   63.8621 H   0  0  0  0  0  0  0  0  0  0  0  0
  -43.3044   57.2067   65.3205 C   0  0  0  0  0  0  0  0  0  0  0  0
  -44.6552   57.7932   64.9100 C   0  0  0  0  0  0  0  0  0  0  0  0
  -45.4861   58.1081   66.1516 C   0  0  0  0  0  0  0  0  0  0  0  0
  -45.7782   59.5677   66.4017 C   0  0  0  0  0  0  0  0  0  0  0  0
  -46.6309   60.0723   65.2424 C   0  0  0  0  0  0  0  0  0  0  0  0
  -47.9444   59.2935   65.0894 C   0  0  0  0  0  0  0  0  0  0  0  0
  -49.0216   59.6610   66.1263 C   0  0  0  0  0  0  0  0  0  0  0  0
  -50.4480   59.6662   65.5341 C   0  0  0  0  0  0  0  0  0  0  0  0
  -50.4979   60.5036   64.2530 C   0  0  0  0  0  0  0  0  0  0  0  0
  -51.1765   59.8285   63.0672 C   0  0  0  0  0  0  0  0  0  0  0  0
  -50.6574   58.4177   62.8316 C   0  0  0  0  0  0  0  0  0  0  0  0
  -50.8432   57.8618   61.4179 C   0  0  0  0  0  0  0  0  0  0  0  0
  -49.5120   57.9681   60.6863 C   0  0  0  0  0  0  0  0  0  0  0  0
  -48.9148   56.7106   60.0722 C   0  0  0  0  0  0  0  0  0  0  0  0
  -47.6865   57.0486   59.2123 C   0  0  0  0  0  0  0  0  0  0  0  0
  -47.8304   58.3285   58.3685 C   0  0  0  0  0  0  0  0  0  0  0  0
  -47.0633   58.2718   57.0495 C   0  0  0  0  0  0  0  0  0  0  0  0
  -43.5961   61.0771   63.6829 O   0  0  0  0  0  0  0  0  0  0  0  0
  -42.2089   61.3300   63.5577 C   0  0  0  0  0  0  0  0  0  0  0  0
  -43.9070   61.3995   64.5433 H   0  0  0  0  0  0  0  0  0  0  0  0
  -41.6528   60.8439   62.2172 C   0  0  0  0  0  0  0  0  0  0  0  0
  -41.8486   61.5018   61.0618 C   0  0  0  0  0  0  0  0  0  0  0  0
  -41.2609   60.9506   59.7640 C   0  0  0  0  0  0  0  0  0  0  0  0
  -40.0561   60.0214   59.9724 C   0  0  0  0  0  0  0  0  0  0  0  0
  -40.1203   58.6712   59.2349 C   0  0  0  0  0  0  0  0  0  0  0  0
  -41.3740   57.8707   59.6626 C   0  0  0  0  0  0  0  0  0  0  0  0
  -41.0913   56.5872   60.4837 C   0  0  0  0  0  0  0  0  0  0  0  0
  -41.3124   56.7479   62.0062 C   0  0  0  0  0  0  0  0  0  0  0  0
  -40.0897   57.3274   62.7500 C   0  0  0  0  0  0  0  0  0  0  0  0
  -38.7570   57.0831   62.0320 C   0  0  0  0  0  0  0  0  0  0  0  0
  -37.6408   58.0818   62.3303 C   0  0  0  0  0  0  0  0  0  0  0  0
  -37.0532   57.9581   63.7500 C   0  0  0  0  0  0  0  0  0  0  0  0
  -35.7068   58.6657   63.9654 C   0  0  0  0  0  0  0  0  0  0  0  0
  -34.8358   58.5849   62.7084 C   0  0  0  0  0  0  0  0  0  0  0  0
  -33.7082   57.5683   62.7325 C   0  0  0  0  0  0  0  0  0  0  0  0
  -40.0357   60.3664   64.6412 C   0  0  0  0  0  0  0  0  0  0  0  0
  -39.2730   61.4957   64.1451 O   0  0  0  0  0  0  0  0  0  0  0  0
  -37.2762   61.6249   62.1023 O   0  0  0  0  0  0  0  0  0  0  0  0
  -35.5435   64.3902   64.7004 O   0  0  0  0  0  0  0  0  0  0  0  0
  -37.5130   62.2840   65.6171 O   0  0  0  0  0  0  0  0  0  0  0  0
  -37.8187   61.5989   64.3783 C   0  0  0  0  0  0  0  0  0  0  0  0
  -37.0080   62.3113   63.2860 C   0  0  0  0  0  0  0  0  0  0  0  0
  -35.4829   62.2840   63.5279 C   0  0  0  0  0  0  0  0  0  0  0  0
  -35.2507   63.0011   64.8291 C   0  0  0  0  0  0  0  0  0  0  0  0
  -36.0947   62.3697   65.9214 C   0  0  0  0  0  0  0  0  0  0  0  0
  -38.2313   61.6318   61.9339 H   0  0  0  0  0  0  0  0  0  0  0  0
  -34.9941   64.7728   63.9984 H   0  0  0  0  0  0  0  0  0  0  0  0
  -36.5910   64.3265   67.2012 O   0  0  0  0  0  0  0  0  0  0  0  0
  -35.7250   63.2343   67.1248 C   0  0  0  0  0  0  0  0  0  0  0  0
  -36.3542   64.8740   67.9662 H   0  0  0  0  0  0  0  0  0  0  0  0
  -34.6722   62.9649   62.5435 O   0  0  0  0  0  0  0  0  0  0  0  0
  -32.5281   64.0525   63.5114 O   0  0  0  0  0  0  0  0  0  0  0  0
  -32.5511   63.2976   61.2052 O   0  0  0  0  0  0  0  0  0  0  0  0
  -32.4031   61.6900   63.0130 O   0  0  0  0  0  0  0  0  0  0  0  0
  -33.0079   62.9836   62.5863 S   0  0  0  0  0  0  0  0  0  0  0  0
  -32.9121   64.9038   63.2488 H   0  0  0  0  0  0  0  0  0  0  0  0
  -32.6960   61.4774   63.9130 H   0  0  0  0  0  0  0  0  0  0  0  0
  2  1  1  0  0  0
  2  4  1  0  0  0
  2  5  1  0  0  0
 41 42  1  0  0  0
 41  1  1  0  0  0
 42 46  1  0  0  0
  1 24  1  0  0  0
 23 24  1  0  0  0
 23 25  1  0  0  0
 24 26  1  0  0  0
  3  4  2  0  0  0
 26 27  2  0  0  0
 27 28  1  0  0  0
 43 47  1  0  0  0
 43 51  1  0  0  0
 28 29  1  0  0  0
 56 48  1  0  0  0
 56 60  1  0  0  0
 29 30  1  0  0  0
 57 60  1  0  0  0
 57 61  1  0  0  0
 30 31  1  0  0  0
 44 49  1  0  0  0
 44 52  1  0  0  0
 31 32  1  0  0  0
 45 46  1  0  0  0
 45 50  1  0  0  0
 32 33  1  0  0  0
 53 54  1  0  0  0
 53 55  1  0  0  0
 33 34  1  0  0  0
 34 35  1  0  0  0
 35 36  1  0  0  0
 58 60  1  0  0  0
 36 37  1  0  0  0
 59 60  1  0  0  0
 59 62  1  0  0  0
 37 38  1  0  0  0
 38 39  1  0  0  0
 39 40  1  0  0  0
  4  6  1  0  0  0
  6  7  1  0  0  0
  7  8  1  0  0  0
  8  9  1  0  0  0
  9 10  1  0  0  0
 10 11  1  0  0  0
 11 12  1  0  0  0
 12 13  1  0  0  0
 13 14  1  0  0  0
 14 15  1  0  0  0
 15 16  1  0  0  0
 16 17  1  0  0  0
 17 18  1  0  0  0
 18 19  1  0  0  0
 19 20  1  0  0  0
 20 21  1  0  0  0
 21 22  1  0  0  0
 46 47  1  0  0  0
 47 48  1  0  0  0
 48 49  1  0  0  0
 49 50  1  0  0  0
 50 54  1  0  0  0
M  CHG 1  58  -1
M  END
> <minimizedAffinity>
-9.61277

> <CNNscore>
0.1804285944

> <CNNaffinity>
7.1304998398

> <CNN_VS>
1.2865461111

> <CNNaffinity_variance>
1.9410043955

$$$$
/media/chris/experiments/cd1a-new-docking/inputs/ligands/1onq_ligand.pdb


 62 62  0  0  0  0  0  0  0  0999 V2000
  -39.0703   60.9182   65.0114 C   0  0  0  0  0  0  0  0  0  0  0  0
  -40.1501   60.1157   65.5510 N   0  0  0  0  0  0  0  0  0  0  0  0
  -41.4806   61.6881   66.5022 O   0  0  0  0  0  0  0  0  0  0  0  0
  -41.2301   60.5308   66.2268 C   0  0  0  0  0  0  0  0  0  0  0  0
  -40.0814   59.1449   65.4024 H   0  0  0  0  0  0  0  0  0  0  0  0
  -42.1760   59.4450   66.6466 C   0  0  0  0  0  0  0  0  0  0  0  0
  -43.4110   59.5776   65.7553 C   0  0  0  0  0  0  0  0  0  0  0  0
  -44.1793   58.2585   65.7291 C   0  0  0  0  0  0  0  0  0  0  0  0
  -45.6834   58.3654   65.7971 C   0  0  0  0  0  0  0  0  0  0  0  0
  -46.1466   59.1383   64.5667 C   0  0  0  0  0  0  0  0  0  0  0  0
  -47.3153   60.0863   64.8671 C   0  0  0  0  0  0  0  0  0  0  0  0
  -48.1940   59.6503   66.0539 C   0  0  0  0  0  0  0  0  0  0  0  0
  -49.6717   59.4351   65.6598 C   0  0  0  0  0  0  0  0  0  0  0  0
  -50.1110   60.4734   64.6234 C   0  0  0  0  0  0  0  0  0  0  0  0
  -51.1761   59.9960   63.6437 C   0  0  0  0  0  0  0  0  0  0  0  0
  -50.8230   58.6562   63.0147 C   0  0  0  0  0  0  0  0  0  0  0  0
  -49.7332   58.6858   61.9406 C   0  0  0  0  0  0  0  0  0  0  0  0
  -50.1101   57.6887   60.8531 C   0  0  0  0  0  0  0  0  0  0  0  0
  -50.0664   58.1418   59.4012 C   0  0  0  0  0  0  0  0  0  0  0  0
  -48.8645   57.5248   58.6686 C   0  0  0  0  0  0  0  0  0  0  0  0
  -47.8548   58.5506   58.1217 C   0  0  0  0  0  0  0  0  0  0  0  0
  -46.7805   57.9265   57.2339 C   0  0  0  0  0  0  0  0  0  0  0  0
  -38.3676   61.4580   62.8641 O   0  0  0  0  0  0  0  0  0  0  0  0
  -38.9415   60.3890   63.5933 C   0  0  0  0  0  0  0  0  0  0  0  0
  -37.4934   61.6659   63.2294 H   0  0  0  0  0  0  0  0  0  0  0  0
  -40.3273   60.0097   63.0660 C   0  0  0  0  0  0  0  0  0  0  0  0
  -40.7701   58.7417   63.0179 C   0  0  0  0  0  0  0  0  0  0  0  0
  -42.1672   58.4443   62.4762 C   0  0  0  0  0  0  0  0  0  0  0  0
  -42.1964   57.3501   61.3991 C   0  0  0  0  0  0  0  0  0  0  0  0
  -40.9412   57.2541   60.5123 C   0  0  0  0  0  0  0  0  0  0  0  0
  -41.0028   58.2853   59.3597 C   0  0  0  0  0  0  0  0  0  0  0  0
  -39.8962   59.3699   59.3822 C   0  0  0  0  0  0  0  0  0  0  0  0
  -38.4644   58.8181   59.1871 C   0  0  0  0  0  0  0  0  0  0  0  0
  -37.6287   58.7964   60.4853 C   0  0  0  0  0  0  0  0  0  0  0  0
  -37.8191   57.5251   61.3213 C   0  0  0  0  0  0  0  0  0  0  0  0
  -37.2413   57.5583   62.7346 C   0  0  0  0  0  0  0  0  0  0  0  0
  -35.7748   58.0286   62.8004 C   0  0  0  0  0  0  0  0  0  0  0  0
  -35.1345   57.9827   64.1960 C   0  0  0  0  0  0  0  0  0  0  0  0
  -33.6963   58.5076   64.1588 C   0  0  0  0  0  0  0  0  0  0  0  0
  -32.8657   58.2905   65.4111 C   0  0  0  0  0  0  0  0  0  0  0  0
  -37.7815   60.9596   65.8636 C   0  0  0  0  0  0  0  0  0  0  0  0
  -36.5253   60.8819   65.1432 O   0  0  0  0  0  0  0  0  0  0  0  0
  -36.2612   63.4303   66.4131 O   0  0  0  0  0  0  0  0  0  0  0  0
  -32.5593   63.4198   64.4909 O   0  0  0  0  0  0  0  0  0  0  0  0
  -34.8985   61.7405   63.5615 O   0  0  0  0  0  0  0  0  0  0  0  0
  -35.9175   62.0809   64.5326 C   0  0  0  0  0  0  0  0  0  0  0  0
  -35.2659   63.0768   65.5029 C   0  0  0  0  0  0  0  0  0  0  0  0
  -34.7537   64.3638   64.8199 C   0  0  0  0  0  0  0  0  0  0  0  0
  -33.7137   63.9267   63.8256 C   0  0  0  0  0  0  0  0  0  0  0  0
  -34.3013   62.8838   62.8923 C   0  0  0  0  0  0  0  0  0  0  0  0
  -36.5954   62.6329   66.8526 H   0  0  0  0  0  0  0  0  0  0  0  0
  -32.2008   64.1012   65.0808 H   0  0  0  0  0  0  0  0  0  0  0  0
  -33.0999   63.4514   60.9053 O   0  0  0  0  0  0  0  0  0  0  0  0
  -33.1055   62.5767   61.9933 C   0  0  0  0  0  0  0  0  0  0  0  0
  -32.3396   63.2544   60.3360 H   0  0  0  0  0  0  0  0  0  0  0  0
  -34.1055   65.3252   65.6832 O   0  0  0  0  0  0  0  0  0  0  0  0
  -33.3465   65.8187   68.1116 O   0  0  0  0  0  0  0  0  0  0  0  0
  -31.7252   65.0292   66.4878 O   0  0  0  0  0  0  0  0  0  0  0  0
  -33.3457   63.4970   67.4367 O   0  0  0  0  0  0  0  0  0  0  0  0
  -33.1295   64.8928   66.9609 S   0  0  0  0  0  0  0  0  0  0  0  0
  -33.2098   66.7339   67.8205 H   0  0  0  0  0  0  0  0  0  0  0  0
  -34.2595   63.3991   67.7471 H   0  0  0  0  0  0  0  0  0  0  0  0
  2  1  1  0  0  0
  2  4  1  0  0  0
  2  5  1  0  0  0
 41 42  1  0  0  0
 41  1  1  0  0  0
 42 46  1  0  0  0
  1 24  1  0  0  0
 23 24  1  0  0  0
 23 25  1  0  0  0
 24 26  1  0  0  0
  3  4  2  0  0  0
 26 27  2  0  0  0
 27 28  1  0  0  0
 43 47  1  0  0  0
 43 51  1  0  0  0
 28 29  1  0  0  0
 56 48  1  0  0  0
 56 60  1  0  0  0
 29 30  1  0  0  0
 57 60  1  0  0  0
 57 61  1  0  0  0
 30 31  1  0  0  0
 44 49  1  0  0  0
 44 52  1  0  0  0
 31 32  1  0  0  0
 45 46  1  0  0  0
 45 50  1  0  0  0
 32 33  1  0  0  0
 53 54  1  0  0  0
 53 55  1  0  0  0
 33 34  1  0  0  0
 34 35  1  0  0  0
 35 36  1  0  0  0
 58 60  1  0  0  0
 36 37  1  0  0  0
 59 60  1  0  0  0
 59 62  1  0  0  0
 37 38  1  0  0  0
 38 39  1  0  0  0
 39 40  1  0  0  0
  4  6  1  0  0  0
  6  7  1  0  0  0
  7  8  1  0  0  0
  8  9  1  0  0  0
  9 10  1  0  0  0
 10 11  1  0  0  0
 11 12  1  0  0  0
 12 13  1  0  0  0
 13 14  1  0  0  0
 14 15  1  0  0  0
 15 16  1  0  0  0
 16 17  1  0  0  0
 17 18  1  0  0  0
 18 19  1  0  0  0
 19 20  1  0  0  0
 20 21  1  0  0  0
 21 22  1  0  0  0
 46 47  1  0  0  0
 47 48  1  0  0  0
 48 49  1  0  0  0
 49 50  1  0  0  0
 50 54  1  0  0  0
M  CHG 1  58  -1
M  END
> <minimizedAffinity>
-9.05200

> <CNNscore>
0.1793017536

> <CNNaffinity>
6.9230065346

> <CNN_VS>
1.2413072586

> <CNNaffinity_variance>
1.1637331247

$$$$
/media/chris/experiments/cd1a-new-docking/inputs/ligands/1onq_ligand.pdb


 62 62  0  0  0  0  0  0  0  0999 V2000
  -38.1469   61.1074   65.0706 C   0  0  0  0  0  0  0  0  0  0  0  0
  -39.1953   60.1273   65.2740 N   0  0  0  0  0  0  0  0  0  0  0  0
  -40.7503   61.3249   66.4121 O   0  0  0  0  0  0  0  0  0  0  0  0
  -40.3691   60.2907   65.8994 C   0  0  0  0  0  0  0  0  0  0  0  0
  -39.0237   59.2301   64.9069 H   0  0  0  0  0  0  0  0  0  0  0  0
  -41.2472   59.0752   65.9351 C   0  0  0  0  0  0  0  0  0  0  0  0
  -42.6800   59.5695   65.7351 C   0  0  0  0  0  0  0  0  0  0  0  0
  -43.6195   58.3815   65.5424 C   0  0  0  0  0  0  0  0  0  0  0  0
  -44.8210   58.6222   64.6610 C   0  0  0  0  0  0  0  0  0  0  0  0
  -45.8309   59.4301   65.4692 C   0  0  0  0  0  0  0  0  0  0  0  0
  -47.1872   59.5603   64.7632 C   0  0  0  0  0  0  0  0  0  0  0  0
  -48.3047   58.6969   65.3767 C   0  0  0  0  0  0  0  0  0  0  0  0
  -49.6845   58.9539   64.7321 C   0  0  0  0  0  0  0  0  0  0  0  0
  -49.5853   60.0430   63.6601 C   0  0  0  0  0  0  0  0  0  0  0  0
  -50.4025   59.7841   62.4001 C   0  0  0  0  0  0  0  0  0  0  0  0
  -50.7885   58.3196   62.2534 C   0  0  0  0  0  0  0  0  0  0  0  0
  -50.6905   57.7381   60.8411 C   0  0  0  0  0  0  0  0  0  0  0  0
  -49.3841   58.2142   60.2204 C   0  0  0  0  0  0  0  0  0  0  0  0
  -49.1583   57.9877   58.7328 C   0  0  0  0  0  0  0  0  0  0  0  0
  -47.7912   58.5363   58.2944 C   0  0  0  0  0  0  0  0  0  0  0  0
  -47.0592   57.6693   57.2535 C   0  0  0  0  0  0  0  0  0  0  0  0
  -47.4813   56.2022   57.2852 C   0  0  0  0  0  0  0  0  0  0  0  0
  -37.6798   62.6948   63.4404 O   0  0  0  0  0  0  0  0  0  0  0  0
  -38.2631   61.4134   63.5873 C   0  0  0  0  0  0  0  0  0  0  0  0
  -36.7480   62.6584   63.7072 H   0  0  0  0  0  0  0  0  0  0  0  0
  -39.7388   61.4016   63.1814 C   0  0  0  0  0  0  0  0  0  0  0  0
  -40.1868   60.7959   62.0685 C   0  0  0  0  0  0  0  0  0  0  0  0
  -41.6765   60.8295   61.7318 C   0  0  0  0  0  0  0  0  0  0  0  0
  -42.4362   59.5607   62.1457 C   0  0  0  0  0  0  0  0  0  0  0  0
  -41.5720   58.3020   62.3461 C   0  0  0  0  0  0  0  0  0  0  0  0
  -41.6682   57.3681   61.1157 C   0  0  0  0  0  0  0  0  0  0  0  0
  -41.4173   58.0494   59.7466 C   0  0  0  0  0  0  0  0  0  0  0  0
  -39.9956   57.8269   59.1795 C   0  0  0  0  0  0  0  0  0  0  0  0
  -39.1034   59.0858   59.2377 C   0  0  0  0  0  0  0  0  0  0  0  0
  -37.9326   58.9682   60.2209 C   0  0  0  0  0  0  0  0  0  0  0  0
  -37.8661   57.6775   61.0345 C   0  0  0  0  0  0  0  0  0  0  0  0
  -38.0727   57.8805   62.5485 C   0  0  0  0  0  0  0  0  0  0  0  0
  -36.7908   57.8478   63.3944 C   0  0  0  0  0  0  0  0  0  0  0  0
  -35.5713   58.2515   62.5609 C   0  0  0  0  0  0  0  0  0  0  0  0
  -34.2612   57.5655   62.9048 C   0  0  0  0  0  0  0  0  0  0  0  0
  -36.7497   60.7063   65.5960 C   0  0  0  0  0  0  0  0  0  0  0  0
  -35.6436   60.8470   64.6687 O   0  0  0  0  0  0  0  0  0  0  0  0
  -33.4567   61.3737   62.9031 O   0  0  0  0  0  0  0  0  0  0  0  0
  -33.9412   65.2706   64.3098 O   0  0  0  0  0  0  0  0  0  0  0  0
  -34.9035   62.8412   65.8353 O   0  0  0  0  0  0  0  0  0  0  0  0
  -34.5183   61.7598   64.9523 C   0  0  0  0  0  0  0  0  0  0  0  0
  -33.8595   62.4198   63.7324 C   0  0  0  0  0  0  0  0  0  0  0  0
  -32.6171   63.2682   64.0814 C   0  0  0  0  0  0  0  0  0  0  0  0
  -33.0960   64.3557   65.0030 C   0  0  0  0  0  0  0  0  0  0  0  0
  -33.8199   63.7428   66.1882 C   0  0  0  0  0  0  0  0  0  0  0  0
  -34.2256   60.8291   62.6731 H   0  0  0  0  0  0  0  0  0  0  0  0
  -33.4595   65.6497   63.5579 H   0  0  0  0  0  0  0  0  0  0  0  0
  -33.1422   65.4321   67.7375 O   0  0  0  0  0  0  0  0  0  0  0  0
  -34.2228   64.9899   66.9722 C   0  0  0  0  0  0  0  0  0  0  0  0
  -33.4005   66.2242   68.2344 H   0  0  0  0  0  0  0  0  0  0  0  0
  -31.9731   63.9359   62.9726 O   0  0  0  0  0  0  0  0  0  0  0  0
  -31.8168   62.5155   60.8104 O   0  0  0  0  0  0  0  0  0  0  0  0
  -31.9560   64.9327   60.6473 O   0  0  0  0  0  0  0  0  0  0  0  0
  -33.9228   63.6335   61.2114 O   0  0  0  0  0  0  0  0  0  0  0  0
  -32.4467   63.7392   61.3886 S   0  0  0  0  0  0  0  0  0  0  0  0
  -30.8539   62.5665   60.9167 H   0  0  0  0  0  0  0  0  0  0  0  0
  -34.2513   62.8575   61.6919 H   0  0  0  0  0  0  0  0  0  0  0  0
  2  1  1  0  0  0
  2  4  1  0  0  0
  2  5  1  0  0  0
 41 42  1  0  0  0
 41  1  1  0  0  0
 42 46  1  0  0  0
  1 24  1  0  0  0
 23 24  1  0  0  0
 23 25  1  0  0  0
 24 26  1  0  0  0
  3  4  2  0  0  0
 26 27  2  0  0  0
 27 28  1  0  0  0
 43 47  1  0  0  0
 43 51  1  0  0  0
 28 29  1  0  0  0
 56 48  1  0  0  0
 56 60  1  0  0  0
 29 30  1  0  0  0
 57 60  1  0  0  0
 57 61  1  0  0  0
 30 31  1  0  0  0
 44 49  1  0  0  0
 44 52  1  0  0  0
 31 32  1  0  0  0
 45 46  1  0  0  0
 45 50  1  0  0  0
 32 33  1  0  0  0
 53 54  1  0  0  0
 53 55  1  0  0  0
 33 34  1  0  0  0
 34 35  1  0  0  0
 35 36  1  0  0  0
 58 60  1  0  0  0
 36 37  1  0  0  0
 59 60  1  0  0  0
 59 62  1  0  0  0
 37 38  1  0  0  0
 38 39  1  0  0  0
 39 40  1  0  0  0
  4  6  1  0  0  0
  6  7  1  0  0  0
  7  8  1  0  0  0
  8  9  1  0  0  0
  9 10  1  0  0  0
 10 11  1  0  0  0
 11 12  1  0  0  0
 12 13  1  0  0  0
 13 14  1  0  0  0
 14 15  1  0  0  0
 15 16  1  0  0  0
 16 17  1  0  0  0
 17 18  1  0  0  0
 18 19  1  0  0  0
 19 20  1  0  0  0
 20 21  1  0  0  0
 21 22  1  0  0  0
 46 47  1  0  0  0
 47 48  1  0  0  0
 48 49  1  0  0  0
 49 50  1  0  0  0
 50 54  1  0  0  0
M  CHG 1  58  -1
M  END
> <minimizedAffinity>
-8.83779

> <CNNscore>
0.1744538248

> <CNNaffinity>
7.0340623856

> <CNN_VS>
1.2271190882

> <CNNaffinity_variance>
1.1056835651

$$$$
/media/chris/experiments/cd1a-new-docking/inputs/ligands/1onq_ligand.pdb


 62 62  0  0  0  0  0  0  0  0999 V2000
  -40.4083   59.4131   65.1536 C   0  0  0  0  0  0  0  0  0  0  0  0
  -40.9210   59.2746   63.8049 N   0  0  0  0  0  0  0  0  0  0  0  0
  -41.2192   57.0317   63.6383 O   0  0  0  0  0  0  0  0  0  0  0  0
  -41.2753   58.1508   63.1669 C   0  0  0  0  0  0  0  0  0  0  0  0
  -41.0216   60.1102   63.2942 H   0  0  0  0  0  0  0  0  0  0  0  0
  -41.7810   58.3440   61.7681 C   0  0  0  0  0  0  0  0  0  0  0  0
  -41.4488   59.7856   61.3825 C   0  0  0  0  0  0  0  0  0  0  0  0
  -40.8344   59.8234   59.9852 C   0  0  0  0  0  0  0  0  0  0  0  0
  -40.4186   58.4925   59.4072 C   0  0  0  0  0  0  0  0  0  0  0  0
  -38.9315   58.5766   59.0798 C   0  0  0  0  0  0  0  0  0  0  0  0
  -38.0494   58.6163   60.3349 C   0  0  0  0  0  0  0  0  0  0  0  0
  -38.3199   57.4765   61.3341 C   0  0  0  0  0  0  0  0  0  0  0  0
  -37.4464   57.5716   62.6043 C   0  0  0  0  0  0  0  0  0  0  0  0
  -36.1052   58.2399   62.2887 C   0  0  0  0  0  0  0  0  0  0  0  0
  -34.8991   57.6297   62.9924 C   0  0  0  0  0  0  0  0  0  0  0  0
  -34.6452   58.2601   64.3538 C   0  0  0  0  0  0  0  0  0  0  0  0
  -33.1945   58.6428   64.6558 C   0  0  0  0  0  0  0  0  0  0  0  0
  -32.4035   58.5715   63.3566 C   0  0  0  0  0  0  0  0  0  0  0  0
  -31.6905   59.8235   62.8672 C   0  0  0  0  0  0  0  0  0  0  0  0
  -32.6168   61.0478   62.9400 C   0  0  0  0  0  0  0  0  0  0  0  0
  -32.2323   62.1968   61.9899 C   0  0  0  0  0  0  0  0  0  0  0  0
  -30.9643   61.9174   61.1863 C   0  0  0  0  0  0  0  0  0  0  0  0
  -42.1113   58.3953   66.3619 O   0  0  0  0  0  0  0  0  0  0  0  0
  -41.6674   59.6783   65.9609 C   0  0  0  0  0  0  0  0  0  0  0  0
  -41.4341   57.9778   66.9168 H   0  0  0  0  0  0  0  0  0  0  0  0
  -42.6935   60.3939   65.0791 C   0  0  0  0  0  0  0  0  0  0  0  0
  -44.0128   60.3824   65.3347 C   0  0  0  0  0  0  0  0  0  0  0  0
  -44.9739   61.1211   64.4050 C   0  0  0  0  0  0  0  0  0  0  0  0
  -46.4076   60.5712   64.4287 C   0  0  0  0  0  0  0  0  0  0  0  0
  -46.5403   59.0692   64.7413 C   0  0  0  0  0  0  0  0  0  0  0  0
  -47.9987   58.7133   65.1179 C   0  0  0  0  0  0  0  0  0  0  0  0
  -49.0252   59.8618   64.9478 C   0  0  0  0  0  0  0  0  0  0  0  0
  -50.4417   59.3903   64.5431 C   0  0  0  0  0  0  0  0  0  0  0  0
  -50.7224   59.5071   63.0293 C   0  0  0  0  0  0  0  0  0  0  0  0
  -49.5717   60.1357   62.2343 C   0  0  0  0  0  0  0  0  0  0  0  0
  -49.6028   59.9187   60.7229 C   0  0  0  0  0  0  0  0  0  0  0  0
  -49.4608   58.4434   60.2993 C   0  0  0  0  0  0  0  0  0  0  0  0
  -49.2151   58.2133   58.8004 C   0  0  0  0  0  0  0  0  0  0  0  0
  -47.7197   58.0677   58.5042 C   0  0  0  0  0  0  0  0  0  0  0  0
  -47.3340   57.8928   57.0461 C   0  0  0  0  0  0  0  0  0  0  0  0
  -39.2432   60.4145   65.3234 C   0  0  0  0  0  0  0  0  0  0  0  0
  -38.0571   60.1703   64.5254 O   0  0  0  0  0  0  0  0  0  0  0  0
  -37.5590   62.0702   62.4471 O   0  0  0  0  0  0  0  0  0  0  0  0
  -36.5657   64.5389   65.6593 O   0  0  0  0  0  0  0  0  0  0  0  0
  -36.5215   61.5184   65.8329 O   0  0  0  0  0  0  0  0  0  0  0  0
  -36.9394   61.1346   64.5005 C   0  0  0  0  0  0  0  0  0  0  0  0
  -37.1935   62.4440   63.7398 C   0  0  0  0  0  0  0  0  0  0  0  0
  -35.9527   63.3589   63.6477 C   0  0  0  0  0  0  0  0  0  0  0  0
  -35.5776   63.7023   65.0628 C   0  0  0  0  0  0  0  0  0  0  0  0
  -35.3897   62.4292   65.8679 C   0  0  0  0  0  0  0  0  0  0  0  0
  -38.3383   61.4941   62.4854 H   0  0  0  0  0  0  0  0  0  0  0  0
  -36.6693   65.3450   65.1297 H   0  0  0  0  0  0  0  0  0  0  0  0
  -36.1331   62.8816   68.0942 O   0  0  0  0  0  0  0  0  0  0  0  0
  -35.0329   62.9922   67.2420 C   0  0  0  0  0  0  0  0  0  0  0  0
  -35.9040   63.2397   68.9660 H   0  0  0  0  0  0  0  0  0  0  0  0
  -36.1429   64.6191   62.9653 O   0  0  0  0  0  0  0  0  0  0  0  0
  -34.0980   65.3189   61.5350 O   0  0  0  0  0  0  0  0  0  0  0  0
  -36.3139   66.0873   60.9119 O   0  0  0  0  0  0  0  0  0  0  0  0
  -35.6597   63.7900   60.5008 O   0  0  0  0  0  0  0  0  0  0  0  0
  -35.5381   64.9354   61.4466 S   0  0  0  0  0  0  0  0  0  0  0  0
  -33.9989   66.0646   62.1474 H   0  0  0  0  0  0  0  0  0  0  0  0
  -35.1565   63.0342   60.8419 H   0  0  0  0  0  0  0  0  0  0  0  0
  2  1  1  0  0  0
  2  4  1  0  0  0
  2  5  1  0  0  0
 41 42  1  0  0  0
 41  1  1  0  0  0
 42 46  1  0  0  0
  1 24  1  0  0  0
 23 24  1  0  0  0
 23 25  1  0  0  0
 24 26  1  0  0  0
  3  4  2  0  0  0
 26 27  2  0  0  0
 27 28  1  0  0  0
 43 47  1  0  0  0
 43 51  1  0  0  0
 28 29  1  0  0  0
 56 48  1  0  0  0
 56 60  1  0  0  0
 29 30  1  0  0  0
 57 60  1  0  0  0
 57 61  1  0  0  0
 30 31  1  0  0  0
 44 49  1  0  0  0
 44 52  1  0  0  0
 31 32  1  0  0  0
 45 46  1  0  0  0
 45 50  1  0  0  0
 32 33  1  0  0  0
 53 54  1  0  0  0
 53 55  1  0  0  0
 33 34  1  0  0  0
 34 35  1  0  0  0
 35 36  1  0  0  0
 58 60  1  0  0  0
 36 37  1  0  0  0
 59 60  1  0  0  0
 59 62  1  0  0  0
 37 38  1  0  0  0
 38 39  1  0  0  0
 39 40  1  0  0  0
  4  6  1  0  0  0
  6  7  1  0  0  0
  7  8  1  0  0  0
  8  9  1  0  0  0
  9 10  1  0  0  0
 10 11  1  0  0  0
 11 12  1  0  0  0
 12 13  1  0  0  0
 13 14  1  0  0  0
 14 15  1  0  0  0
 15 16  1  0  0  0
 16 17  1  0  0  0
 17 18  1  0  0  0
 18 19  1  0  0  0
 19 20  1  0  0  0
 20 21  1  0  0  0
 21 22  1  0  0  0
 46 47  1  0  0  0
 47 48  1  0  0  0
 48 49  1  0  0  0
 49 50  1  0  0  0
 50 54  1  0  0  0
M  CHG 1  58  -1
M  END
> <minimizedAffinity>
-9.34106

> <CNNscore>
0.1527355462

> <CNNaffinity>
6.7773904800

> <CNN_VS>
1.0351483822

> <CNNaffinity_variance>
2.0397765636

$$$$
/media/chris/experiments/cd1a-new-docking/inputs/ligands/1onq_ligand.pdb


 62 62  0  0  0  0  0  0  0  0999 V2000
  -40.7399   59.6523   64.2963 C   0  0  0  0  0  0  0  0  0  0  0  0
  -40.3696   58.5197   63.4709 N   0  0  0  0  0  0  0  0  0  0  0  0
  -41.4249   56.8051   64.5167 O   0  0  0  0  0  0  0  0  0  0  0  0
  -40.7180   57.2351   63.6261 C   0  0  0  0  0  0  0  0  0  0  0  0
  -39.7902   58.7191   62.7003 H   0  0  0  0  0  0  0  0  0  0  0  0
  -40.1739   56.2972   62.5898 C   0  0  0  0  0  0  0  0  0  0  0  0
  -41.3352   55.9664   61.6521 C   0  0  0  0  0  0  0  0  0  0  0  0
  -41.1792   56.7299   60.3392 C   0  0  0  0  0  0  0  0  0  0  0  0
  -41.8003   58.1049   60.2935 C   0  0  0  0  0  0  0  0  0  0  0  0
  -40.7835   59.0491   59.6609 C   0  0  0  0  0  0  0  0  0  0  0  0
  -39.6434   58.3048   58.9528 C   0  0  0  0  0  0  0  0  0  0  0  0
  -38.2350   58.7090   59.4255 C   0  0  0  0  0  0  0  0  0  0  0  0
  -38.1845   59.0633   60.9280 C   0  0  0  0  0  0  0  0  0  0  0  0
  -36.8796   58.5663   61.5565 C   0  0  0  0  0  0  0  0  0  0  0  0
  -37.0509   57.5568   62.6851 C   0  0  0  0  0  0  0  0  0  0  0  0
  -36.6588   58.1316   64.0383 C   0  0  0  0  0  0  0  0  0  0  0  0
  -35.1676   58.4078   64.2434 C   0  0  0  0  0  0  0  0  0  0  0  0
  -34.3797   57.4171   63.3970 C   0  0  0  0  0  0  0  0  0  0  0  0
  -33.1071   57.8932   62.7121 C   0  0  0  0  0  0  0  0  0  0  0  0
  -32.7442   59.3192   63.1561 C   0  0  0  0  0  0  0  0  0  0  0  0
  -31.3601   59.8020   62.6848 C   0  0  0  0  0  0  0  0  0  0  0  0
  -31.4266   61.0121   61.7559 C   0  0  0  0  0  0  0  0  0  0  0  0
  -41.5540   61.6532   63.4422 O   0  0  0  0  0  0  0  0  0  0  0  0
  -41.8790   60.2771   63.5092 C   0  0  0  0  0  0  0  0  0  0  0  0
  -40.7143   61.7644   62.9698 H   0  0  0  0  0  0  0  0  0  0  0  0
  -43.1983   60.0313   64.2451 C   0  0  0  0  0  0  0  0  0  0  0  0
  -44.0303   59.0214   63.9383 C   0  0  0  0  0  0  0  0  0  0  0  0
  -45.3306   58.8433   64.7200 C   0  0  0  0  0  0  0  0  0  0  0  0
  -46.2950   60.0325   64.6016 C   0  0  0  0  0  0  0  0  0  0  0  0
  -47.7883   59.6717   64.4966 C   0  0  0  0  0  0  0  0  0  0  0  0
  -48.6040   60.8648   63.9429 C   0  0  0  0  0  0  0  0  0  0  0  0
  -49.9650   60.4948   63.3008 C   0  0  0  0  0  0  0  0  0  0  0  0
  -50.4869   59.0910   63.6874 C   0  0  0  0  0  0  0  0  0  0  0  0
  -50.6705   58.1462   62.4800 C   0  0  0  0  0  0  0  0  0  0  0  0
  -49.8601   58.5576   61.2449 C   0  0  0  0  0  0  0  0  0  0  0  0
  -50.3994   58.0798   59.8984 C   0  0  0  0  0  0  0  0  0  0  0  0
  -49.3203   57.9360   58.8072 C   0  0  0  0  0  0  0  0  0  0  0  0
  -47.9601   57.4154   59.2961 C   0  0  0  0  0  0  0  0  0  0  0  0
  -46.9946   57.2149   58.1244 C   0  0  0  0  0  0  0  0  0  0  0  0
  -46.9668   58.3135   57.0767 C   0  0  0  0  0  0  0  0  0  0  0  0
  -39.5778   60.5849   64.7070 C   0  0  0  0  0  0  0  0  0  0  0  0
  -38.6030   60.8970   63.6795 O   0  0  0  0  0  0  0  0  0  0  0  0
  -36.8037   61.3932   65.8458 O   0  0  0  0  0  0  0  0  0  0  0  0
  -34.3064   62.7204   62.7797 O   0  0  0  0  0  0  0  0  0  0  0  0
  -37.3168   62.5860   62.5054 O   0  0  0  0  0  0  0  0  0  0  0  0
  -37.7136   62.0695   63.7990 C   0  0  0  0  0  0  0  0  0  0  0  0
  -36.4146   61.8545   64.5889 C   0  0  0  0  0  0  0  0  0  0  0  0
  -35.5845   63.1427   64.7804 C   0  0  0  0  0  0  0  0  0  0  0  0
  -35.2226   63.6187   63.4007 C   0  0  0  0  0  0  0  0  0  0  0  0
  -36.4799   63.7725   62.5641 C   0  0  0  0  0  0  0  0  0  0  0  0
  -37.3271   60.5829   65.7451 H   0  0  0  0  0  0  0  0  0  0  0  0
  -33.5120   62.6372   63.3300 H   0  0  0  0  0  0  0  0  0  0  0  0
  -34.8596   65.1438   61.4651 O   0  0  0  0  0  0  0  0  0  0  0  0
  -35.8991   64.2417   61.2318 C   0  0  0  0  0  0  0  0  0  0  0  0
  -34.4925   65.4402   60.6176 H   0  0  0  0  0  0  0  0  0  0  0  0
  -34.3363   62.9928   65.4941 O   0  0  0  0  0  0  0  0  0  0  0  0
  -35.0606   64.7066   67.2983 O   0  0  0  0  0  0  0  0  0  0  0  0
  -32.9331   64.9881   66.1655 O   0  0  0  0  0  0  0  0  0  0  0  0
  -33.1939   63.2773   67.8624 O   0  0  0  0  0  0  0  0  0  0  0  0
  -33.8737   63.9906   66.7441 S   0  0  0  0  0  0  0  0  0  0  0  0
  -35.5168   65.1778   66.5835 H   0  0  0  0  0  0  0  0  0  0  0  0
  -33.8004   62.6245   68.2456 H   0  0  0  0  0  0  0  0  0  0  0  0
  2  1  1  0  0  0
  2  4  1  0  0  0
  2  5  1  0  0  0
 41 42  1  0  0  0
 41  1  1  0  0  0
 42 46  1  0  0  0
  1 24  1  0  0  0
 23 24  1  0  0  0
 23 25  1  0  0  0
 24 26  1  0  0  0
  3  4  2  0  0  0
 26 27  2  0  0  0
 27 28  1  0  0  0
 43 47  1  0  0  0
 43 51  1  0  0  0
 28 29  1  0  0  0
 56 48  1  0  0  0
 56 60  1  0  0  0
 29 30  1  0  0  0
 57 60  1  0  0  0
 57 61  1  0  0  0
 30 31  1  0  0  0
 44 49  1  0  0  0
 44 52  1  0  0  0
 31 32  1  0  0  0
 45 46  1  0  0  0
 45 50  1  0  0  0
 32 33  1  0  0  0
 53 54  1  0  0  0
 53 55  1  0  0  0
 33 34  1  0  0  0
 34 35  1  0  0  0
 35 36  1  0  0  0
 58 60  1  0  0  0
 36 37  1  0  0  0
 59 60  1  0  0  0
 59 62  1  0  0  0
 37 38  1  0  0  0
 38 39  1  0  0  0
 39 40  1  0  0  0
  4  6  1  0  0  0
  6  7  1  0  0  0
  7  8  1  0  0  0
  8  9  1  0  0  0
  9 10  1  0  0  0
 10 11  1  0  0  0
 11 12  1  0  0  0
 12 13  1  0  0  0
 13 14  1  0  0  0
 14 15  1  0  0  0
 15 16  1  0  0  0
 16 17  1  0  0  0
 17 18  1  0  0  0
 18 19  1  0  0  0
 19 20  1  0  0  0
 20 21  1  0  0  0
 21 22  1  0  0  0
 46 47  1  0  0  0
 47 48  1  0  0  0
 48 49  1  0  0  0
 49 50  1  0  0  0
 50 54  1  0  0  0
M  CHG 1  58  -1
M  END
> <minimizedAffinity>
-9.13256

> <CNNscore>
0.1452419758

> <CNNaffinity>
6.9132003784

> <CNN_VS>
1.0040868521

> <CNNaffinity_variance>
1.2947161198

$$$$
