/media/chris/experiments/cd1a-new-docking/inputs/ligands/1onq_ligand.pdb


 62 62  0  0  0  0  0  0  0  0999 V2000
  -41.7965   60.0373   65.1623 C   0  0  0  0  0  0  0  0  0  0  0  0
  -41.8473   58.7182   64.5636 N   0  0  0  0  0  0  0  0  0  0  0  0
  -42.2545   57.3961   66.3618 O   0  0  0  0  0  0  0  0  0  0  0  0
  -42.0620   57.5429   65.1705 C   0  0  0  0  0  0  0  0  0  0  0  0
  -41.7066   58.6811   63.5899 H   0  0  0  0  0  0  0  0  0  0  0  0
  -42.0630   56.3480   64.2640 C   0  0  0  0  0  0  0  0  0  0  0  0
  -41.9962   56.8878   62.8353 C   0  0  0  0  0  0  0  0  0  0  0  0
  -41.3191   55.8675   61.9233 C   0  0  0  0  0  0  0  0  0  0  0  0
  -41.2134   56.2473   60.4662 C   0  0  0  0  0  0  0  0  0  0  0  0
  -41.6176   57.7125   60.3414 C   0  0  0  0  0  0  0  0  0  0  0  0
  -40.8672   58.4410   59.2185 C   0  0  0  0  0  0  0  0  0  0  0  0
  -39.6919   59.3094   59.7034 C   0  0  0  0  0  0  0  0  0  0  0  0
  -38.3336   58.5781   59.6276 C   0  0  0  0  0  0  0  0  0  0  0  0
  -37.7083   58.4545   61.0200 C   0  0  0  0  0  0  0  0  0  0  0  0
  -38.6946   58.5320   62.1790 C   0  0  0  0  0  0  0  0  0  0  0  0
  -38.4113   57.4877   63.2488 C   0  0  0  0  0  0  0  0  0  0  0  0
  -37.7947   58.0090   64.5489 C   0  0  0  0  0  0  0  0  0  0  0  0
  -36.2973   57.7352   64.5085 C   0  0  0  0  0  0  0  0  0  0  0  0
  -35.3749   58.8065   63.9460 C   0  0  0  0  0  0  0  0  0  0  0  0
  -34.5107   58.2447   62.8060 C   0  0  0  0  0  0  0  0  0  0  0  0
  -32.9948   58.2881   63.0728 C   0  0  0  0  0  0  0  0  0  0  0  0
  -32.6460   58.6081   64.5246 C   0  0  0  0  0  0  0  0  0  0  0  0
  -42.6927   62.1488   64.7956 O   0  0  0  0  0  0  0  0  0  0  0  0
  -42.5964   60.8771   64.1813 C   0  0  0  0  0  0  0  0  0  0  0  0
  -41.8038   62.5191   64.9132 H   0  0  0  0  0  0  0  0  0  0  0  0
  -43.9691   60.2352   63.9661 C   0  0  0  0  0  0  0  0  0  0  0  0
  -44.9603   60.3067   64.8708 C   0  0  0  0  0  0  0  0  0  0  0  0
  -46.3030   59.6381   64.5820 C   0  0  0  0  0  0  0  0  0  0  0  0
  -47.1480   59.3727   65.8365 C   0  0  0  0  0  0  0  0  0  0  0  0
  -48.3102   60.3539   66.0771 C   0  0  0  0  0  0  0  0  0  0  0  0
  -49.0148   60.7077   64.7453 C   0  0  0  0  0  0  0  0  0  0  0  0
  -50.5324   60.3974   64.6968 C   0  0  0  0  0  0  0  0  0  0  0  0
  -51.0424   59.9452   63.3082 C   0  0  0  0  0  0  0  0  0  0  0  0
  -50.7099   58.4743   62.9772 C   0  0  0  0  0  0  0  0  0  0  0  0
  -49.7080   58.3109   61.8280 C   0  0  0  0  0  0  0  0  0  0  0  0
  -50.2349   57.6222   60.5708 C   0  0  0  0  0  0  0  0  0  0  0  0
  -49.5536   58.0890   59.2693 C   0  0  0  0  0  0  0  0  0  0  0  0
  -48.1180   57.5822   59.0635 C   0  0  0  0  0  0  0  0  0  0  0  0
  -47.7862   57.4605   57.5735 C   0  0  0  0  0  0  0  0  0  0  0  0
  -46.8058   58.4766   57.0148 C   0  0  0  0  0  0  0  0  0  0  0  0
  -40.3848   60.5466   65.5321 C   0  0  0  0  0  0  0  0  0  0  0  0
  -39.6144   61.1539   64.4640 O   0  0  0  0  0  0  0  0  0  0  0  0
  -37.8121   61.7036   62.3130 O   0  0  0  0  0  0  0  0  0  0  0  0
  -36.1594   64.3620   65.0700 O   0  0  0  0  0  0  0  0  0  0  0  0
  -37.8286   61.9740   65.8867 O   0  0  0  0  0  0  0  0  0  0  0  0
  -38.1635   61.3889   64.6049 C   0  0  0  0  0  0  0  0  0  0  0  0
  -37.5190   62.2915   63.5429 C   0  0  0  0  0  0  0  0  0  0  0  0
  -35.9842   62.4041   63.6732 C   0  0  0  0  0  0  0  0  0  0  0  0
  -35.7201   63.0066   65.0255 C   0  0  0  0  0  0  0  0  0  0  0  0
  -36.4060   62.1807   66.0987 C   0  0  0  0  0  0  0  0  0  0  0  0
  -38.7737   61.6246   62.2134 H   0  0  0  0  0  0  0  0  0  0  0  0
  -35.7095   64.8707   64.3773 H   0  0  0  0  0  0  0  0  0  0  0  0
  -34.6502   63.1761   67.3793 O   0  0  0  0  0  0  0  0  0  0  0  0
  -36.0283   62.9537   67.3604 C   0  0  0  0  0  0  0  0  0  0  0  0
  -34.4128   63.6671   68.1814 H   0  0  0  0  0  0  0  0  0  0  0  0
  -35.3277   63.2646   62.7148 O   0  0  0  0  0  0  0  0  0  0  0  0
  -32.9475   64.0806   63.3359 O   0  0  0  0  0  0  0  0  0  0  0  0
  -33.5133   63.7020   61.0066 O   0  0  0  0  0  0  0  0  0  0  0  0
  -33.1218   61.8234   62.4871 O   0  0  0  0  0  0  0  0  0  0  0  0
  -33.6953   63.1959   62.3942 S   0  0  0  0  0  0  0  0  0  0  0  0
  -33.3075   64.9802   63.2893 H   0  0  0  0  0  0  0  0  0  0  0  0
  -33.2362   61.4855   63.3892 H   0  0  0  0  0  0  0  0  0  0  0  0
  2  1  1  0  0  0
  2  4  1  0  0  0
  2  5  1  0  0  0
 41 42  1  0  0  0
 41  1  1  0  0  0
 42 46  1  0  0  0
  1 24  1  0  0  0
 23 24  1  0  0  0
 23 25  1  0  0  0
 24 26  1  0  0  0
  3  4  2  0  0  0
 26 27  2  0  0  0
 27 28  1  0  0  0
 43 47  1  0  0  0
 43 51  1  0  0  0
 28 29  1  0  0  0
 56 48  1  0  0  0
 56 60  1  0  0  0
 29 30  1  0  0  0
 57 60  1  0  0  0
 57 61  1  0  0  0
 30 31  1  0  0  0
 44 49  1  0  0  0
 44 52  1  0  0  0
 31 32  1  0  0  0
 45 46  1  0  0  0
 45 50  1  0  0  0
 32 33  1  0  0  0
 53 54  1  0  0  0
 53 55  1  0  0  0
 33 34  1  0  0  0
 34 35  1  0  0  0
 35 36  1  0  0  0
 58 60  1  0  0  0
 36 37  1  0  0  0
 59 60  1  0  0  0
 59 62  1  0  0  0
 37 38  1  0  0  0
 38 39  1  0  0  0
 39 40  1  0  0  0
  4  6  1  0  0  0
  6  7  1  0  0  0
  7  8  1  0  0  0
  8  9  1  0  0  0
  9 10  1  0  0  0
 10 11  1  0  0  0
 11 12  1  0  0  0
 12 13  1  0  0  0
 13 14  1  0  0  0
 14 15  1  0  0  0
 15 16  1  0  0  0
 16 17  1  0  0  0
 17 18  1  0  0  0
 18 19  1  0  0  0
 19 20  1  0  0  0
 20 21  1  0  0  0
 21 22  1  0  0  0
 46 47  1  0  0  0
 47 48  1  0  0  0
 48 49  1  0  0  0
 49 50  1  0  0  0
 50 54  1  0  0  0
M  CHG 1  58  -1
M  END
> <minimizedAffinity>
-9.54110

> <CNNscore>
0.2493876368

> <CNNaffinity>
7.1380949020

> <CNN_VS>
1.7801525593

> <CNNaffinity_variance>
1.9886831045

$$$$
/media/chris/experiments/cd1a-new-docking/inputs/ligands/1onq_ligand.pdb


 62 62  0  0  0  0  0  0  0  0999 V2000
  -41.3273   60.0270   64.0319 C   0  0  0  0  0  0  0  0  0  0  0  0
  -41.2095   60.1584   62.5932 N   0  0  0  0  0  0  0  0  0  0  0  0
  -41.8651   58.1088   61.8741 O   0  0  0  0  0  0  0  0  0  0  0  0
  -41.4725   59.2383   61.6551 C   0  0  0  0  0  0  0  0  0  0  0  0
  -40.8975   61.0323   62.2643 H   0  0  0  0  0  0  0  0  0  0  0  0
  -41.2571   59.6898   60.2410 C   0  0  0  0  0  0  0  0  0  0  0  0
  -41.2541   58.4275   59.3787 C   0  0  0  0  0  0  0  0  0  0  0  0
  -39.8210   57.9477   59.1615 C   0  0  0  0  0  0  0  0  0  0  0  0
  -38.7520   59.0127   59.1986 C   0  0  0  0  0  0  0  0  0  0  0  0
  -37.7072   58.5815   60.2225 C   0  0  0  0  0  0  0  0  0  0  0  0
  -38.2805   57.6489   61.2978 C   0  0  0  0  0  0  0  0  0  0  0  0
  -37.8445   57.9958   62.7332 C   0  0  0  0  0  0  0  0  0  0  0  0
  -36.3117   57.9615   62.9201 C   0  0  0  0  0  0  0  0  0  0  0  0
  -35.9294   58.4158   64.3317 C   0  0  0  0  0  0  0  0  0  0  0  0
  -34.5913   57.8909   64.8378 C   0  0  0  0  0  0  0  0  0  0  0  0
  -33.5453   58.9902   64.9501 C   0  0  0  0  0  0  0  0  0  0  0  0
  -32.3995   58.9323   63.9370 C   0  0  0  0  0  0  0  0  0  0  0  0
  -32.8562   59.6288   62.6622 C   0  0  0  0  0  0  0  0  0  0  0  0
  -31.8453   60.4539   61.8797 C   0  0  0  0  0  0  0  0  0  0  0  0
  -30.4104   60.1354   62.3286 C   0  0  0  0  0  0  0  0  0  0  0  0
  -29.3530   61.1496   61.8548 C   0  0  0  0  0  0  0  0  0  0  0  0
  -28.2620   61.4130   62.8901 C   0  0  0  0  0  0  0  0  0  0  0  0
  -42.2929   61.4206   65.6198 O   0  0  0  0  0  0  0  0  0  0  0  0
  -42.5525   60.8697   64.3420 C   0  0  0  0  0  0  0  0  0  0  0  0
  -41.4999   61.9778   65.5766 H   0  0  0  0  0  0  0  0  0  0  0  0
  -43.7955   59.9766   64.3409 C   0  0  0  0  0  0  0  0  0  0  0  0
  -44.9597   60.3420   64.9042 C   0  0  0  0  0  0  0  0  0  0  0  0
  -46.1557   59.3928   64.8620 C   0  0  0  0  0  0  0  0  0  0  0  0
  -47.0012   59.4007   66.1441 C   0  0  0  0  0  0  0  0  0  0  0  0
  -48.2166   60.3462   66.1351 C   0  0  0  0  0  0  0  0  0  0  0  0
  -49.4386   59.6635   65.4747 C   0  0  0  0  0  0  0  0  0  0  0  0
  -50.2017   60.5295   64.4406 C   0  0  0  0  0  0  0  0  0  0  0  0
  -51.1708   59.7308   63.5375 C   0  0  0  0  0  0  0  0  0  0  0  0
  -50.6016   58.3744   63.0685 C   0  0  0  0  0  0  0  0  0  0  0  0
  -51.0210   57.9873   61.6453 C   0  0  0  0  0  0  0  0  0  0  0  0
  -49.9573   57.2931   60.7974 C   0  0  0  0  0  0  0  0  0  0  0  0
  -49.8328   57.8541   59.3671 C   0  0  0  0  0  0  0  0  0  0  0  0
  -48.5032   58.5566   59.0527 C   0  0  0  0  0  0  0  0  0  0  0  0
  -47.6235   57.6892   58.1479 C   0  0  0  0  0  0  0  0  0  0  0  0
  -46.8567   58.4138   57.0559 C   0  0  0  0  0  0  0  0  0  0  0  0
  -40.0435   60.3347   64.8358 C   0  0  0  0  0  0  0  0  0  0  0  0
  -39.2800   61.4950   64.4187 O   0  0  0  0  0  0  0  0  0  0  0  0
  -37.3578   61.7530   62.3174 O   0  0  0  0  0  0  0  0  0  0  0  0
  -35.4764   64.2735   65.0572 O   0  0  0  0  0  0  0  0  0  0  0  0
  -37.4518   62.1342   65.8797 O   0  0  0  0  0  0  0  0  0  0  0  0
  -37.8164   61.5550   64.6034 C   0  0  0  0  0  0  0  0  0  0  0  0
  -37.0328   62.3385   63.5404 C   0  0  0  0  0  0  0  0  0  0  0  0
  -35.5006   62.2665   63.7207 C   0  0  0  0  0  0  0  0  0  0  0  0
  -35.2064   62.8738   65.0646 C   0  0  0  0  0  0  0  0  0  0  0  0
  -36.0219   62.1718   66.1352 C   0  0  0  0  0  0  0  0  0  0  0  0
  -38.3182   61.7892   62.1867 H   0  0  0  0  0  0  0  0  0  0  0  0
  -34.9459   64.7015   64.3670 H   0  0  0  0  0  0  0  0  0  0  0  0
  -36.4408   64.0204   67.5915 O   0  0  0  0  0  0  0  0  0  0  0  0
  -35.5911   62.9315   67.3879 C   0  0  0  0  0  0  0  0  0  0  0  0
  -36.1652   64.5012   68.3876 H   0  0  0  0  0  0  0  0  0  0  0  0
  -34.7135   63.0099   62.7627 O   0  0  0  0  0  0  0  0  0  0  0  0
  -35.6840   63.7971   60.4921 O   0  0  0  0  0  0  0  0  0  0  0  0
  -34.2367   65.2808   61.7544 O   0  0  0  0  0  0  0  0  0  0  0  0
  -36.5248   64.9140   62.4649 O   0  0  0  0  0  0  0  0  0  0  0  0
  -35.3237   64.2700   61.8616 S   0  0  0  0  0  0  0  0  0  0  0  0
  -34.9130   63.3742   60.0828 H   0  0  0  0  0  0  0  0  0  0  0  0
  -37.2388   64.2616   62.5385 H   0  0  0  0  0  0  0  0  0  0  0  0
  2  1  1  0  0  0
  2  4  1  0  0  0
  2  5  1  0  0  0
 41 42  1  0  0  0
 41  1  1  0  0  0
 42 46  1  0  0  0
  1 24  1  0  0  0
 23 24  1  0  0  0
 23 25  1  0  0  0
 24 26  1  0  0  0
  3  4  2  0  0  0
 26 27  2  0  0  0
 27 28  1  0  0  0
 43 47  1  0  0  0
 43 51  1  0  0  0
 28 29  1  0  0  0
 56 48  1  0  0  0
 56 60  1  0  0  0
 29 30  1  0  0  0
 57 60  1  0  0  0
 57 61  1  0  0  0
 30 31  1  0  0  0
 44 49  1  0  0  0
 44 52  1  0  0  0
 31 32  1  0  0  0
 45 46  1  0  0  0
 45 50  1  0  0  0
 32 33  1  0  0  0
 53 54  1  0  0  0
 53 55  1  0  0  0
 33 34  1  0  0  0
 34 35  1  0  0  0
 35 36  1  0  0  0
 58 60  1  0  0  0
 36 37  1  0  0  0
 59 60  1  0  0  0
 59 62  1  0  0  0
 37 38  1  0  0  0
 38 39  1  0  0  0
 39 40  1  0  0  0
  4  6  1  0  0  0
  6  7  1  0  0  0
  7  8  1  0  0  0
  8  9  1  0  0  0
  9 10  1  0  0  0
 10 11  1  0  0  0
 11 12  1  0  0  0
 12 13  1  0  0  0
 13 14  1  0  0  0
 14 15  1  0  0  0
 15 16  1  0  0  0
 16 17  1  0  0  0
 17 18  1  0  0  0
 18 19  1  0  0  0
 19 20  1  0  0  0
 20 21  1  0  0  0
 21 22  1  0  0  0
 46 47  1  0  0  0
 47 48  1  0  0  0
 48 49  1  0  0  0
 49 50  1  0  0  0
 50 54  1  0  0  0
M  CHG 1  58  -1
M  END
> <minimizedAffinity>
-10.00478

> <CNNscore>
0.2351499498

> <CNNaffinity>
6.8373880386

> <CNN_VS>
1.6078114510

> <CNNaffinity_variance>
1.1717612743

$$$$
/media/chris/experiments/cd1a-new-docking/inputs/ligands/1onq_ligand.pdb


 62 62  0  0  0  0  0  0  0  0999 V2000
  -36.5526   62.5845   63.0278 C   0  0  0  0  0  0  0  0  0  0  0  0
  -37.7286   61.8889   62.5436 N   0  0  0  0  0  0  0  0  0  0  0  0
  -38.9211   61.5884   64.4502 O   0  0  0  0  0  0  0  0  0  0  0  0
  -38.7829   61.4578   63.2495 C   0  0  0  0  0  0  0  0  0  0  0  0
  -37.7561   61.7111   61.5757 H   0  0  0  0  0  0  0  0  0  0  0  0
  -39.8509   60.7750   62.4477 C   0  0  0  0  0  0  0  0  0  0  0  0
  -41.1214   60.8130   63.2972 C   0  0  0  0  0  0  0  0  0  0  0  0
  -42.3303   61.1139   62.4144 C   0  0  0  0  0  0  0  0  0  0  0  0
  -43.5417   61.6763   63.1176 C   0  0  0  0  0  0  0  0  0  0  0  0
  -43.7176   60.9043   64.4210 C   0  0  0  0  0  0  0  0  0  0  0  0
  -44.8957   59.9222   64.3741 C   0  0  0  0  0  0  0  0  0  0  0  0
  -46.2785   60.5869   64.5032 C   0  0  0  0  0  0  0  0  0  0  0  0
  -47.4289   59.6796   64.0145 C   0  0  0  0  0  0  0  0  0  0  0  0
  -48.7627   60.4312   64.0521 C   0  0  0  0  0  0  0  0  0  0  0  0
  -49.6002   60.3225   62.7837 C   0  0  0  0  0  0  0  0  0  0  0  0
  -50.7966   59.3988   62.9594 C   0  0  0  0  0  0  0  0  0  0  0  0
  -50.7054   58.0417   62.2578 C   0  0  0  0  0  0  0  0  0  0  0  0
  -50.4245   58.2874   60.7814 C   0  0  0  0  0  0  0  0  0  0  0  0
  -49.3938   57.4152   60.0801 C   0  0  0  0  0  0  0  0  0  0  0  0
  -48.4485   58.2665   59.2178 C   0  0  0  0  0  0  0  0  0  0  0  0
  -47.9534   57.5715   57.9361 C   0  0  0  0  0  0  0  0  0  0  0  0
  -46.9474   58.4059   57.1466 C   0  0  0  0  0  0  0  0  0  0  0  0
  -36.6610   63.8271   64.9874 O   0  0  0  0  0  0  0  0  0  0  0  0
  -36.7076   62.4864   64.5358 C   0  0  0  0  0  0  0  0  0  0  0  0
  -37.3997   64.3239   64.6020 H   0  0  0  0  0  0  0  0  0  0  0  0
  -35.5650   61.6447   65.1091 C   0  0  0  0  0  0  0  0  0  0  0  0
  -34.8399   60.7918   64.3656 C   0  0  0  0  0  0  0  0  0  0  0  0
  -33.7152   59.9857   65.0127 C   0  0  0  0  0  0  0  0  0  0  0  0
  -33.0698   58.9551   64.0748 C   0  0  0  0  0  0  0  0  0  0  0  0
  -33.8039   58.7145   62.7428 C   0  0  0  0  0  0  0  0  0  0  0  0
  -34.7053   57.4595   62.8314 C   0  0  0  0  0  0  0  0  0  0  0  0
  -36.1407   57.7116   63.3584 C   0  0  0  0  0  0  0  0  0  0  0  0
  -37.1510   58.1357   62.2666 C   0  0  0  0  0  0  0  0  0  0  0  0
  -38.2490   57.0837   61.9990 C   0  0  0  0  0  0  0  0  0  0  0  0
  -39.5245   57.2988   62.8224 C   0  0  0  0  0  0  0  0  0  0  0  0
  -40.8096   56.7217   62.2325 C   0  0  0  0  0  0  0  0  0  0  0  0
  -41.5204   57.6629   61.2401 C   0  0  0  0  0  0  0  0  0  0  0  0
  -41.0539   57.5489   59.7809 C   0  0  0  0  0  0  0  0  0  0  0  0
  -40.3480   58.8300   59.3276 C   0  0  0  0  0  0  0  0  0  0  0  0
  -38.8957   58.6883   58.9074 C   0  0  0  0  0  0  0  0  0  0  0  0
  -36.3227   63.9942   62.4373 C   0  0  0  0  0  0  0  0  0  0  0  0
  -35.3418   64.0995   61.3742 O   0  0  0  0  0  0  0  0  0  0  0  0
  -34.2601   65.4430   63.6551 O   0  0  0  0  0  0  0  0  0  0  0  0
  -31.5331   62.2879   63.5668 O   0  0  0  0  0  0  0  0  0  0  0  0
  -33.1179   63.1587   61.1407 O   0  0  0  0  0  0  0  0  0  0  0  0
  -33.9038   64.2530   61.6721 C   0  0  0  0  0  0  0  0  0  0  0  0
  -33.5296   64.3648   63.1571 C   0  0  0  0  0  0  0  0  0  0  0  0
  -32.0297   64.6417   63.3997 C   0  0  0  0  0  0  0  0  0  0  0  0
  -31.2863   63.4730   62.8141 C   0  0  0  0  0  0  0  0  0  0  0  0
  -31.6872   63.2844   61.3622 C   0  0  0  0  0  0  0  0  0  0  0  0
  -35.2065   65.2864   63.5112 H   0  0  0  0  0  0  0  0  0  0  0  0
  -31.2703   62.4302   64.4896 H   0  0  0  0  0  0  0  0  0  0  0  0
  -29.5670   62.1920   61.5191 O   0  0  0  0  0  0  0  0  0  0  0  0
  -30.8461   62.0707   60.9731 C   0  0  0  0  0  0  0  0  0  0  0  0
  -29.0348   61.4200   61.2706 H   0  0  0  0  0  0  0  0  0  0  0  0
  -31.6163   64.7289   64.7822 O   0  0  0  0  0  0  0  0  0  0  0  0
  -30.5500   65.9027   66.8322 O   0  0  0  0  0  0  0  0  0  0  0  0
  -30.9729   67.1756   64.8098 O   0  0  0  0  0  0  0  0  0  0  0  0
  -29.1252   65.6096   64.9008 O   0  0  0  0  0  0  0  0  0  0  0  0
  -30.5276   65.8584   65.3401 S   0  0  0  0  0  0  0  0  0  0  0  0
  -31.4565   66.0641   67.1373 H   0  0  0  0  0  0  0  0  0  0  0  0
  -28.8267   64.7523   65.2424 H   0  0  0  0  0  0  0  0  0  0  0  0
  2  1  1  0  0  0
  2  4  1  0  0  0
  2  5  1  0  0  0
 41 42  1  0  0  0
 41  1  1  0  0  0
 42 46  1  0  0  0
  1 24  1  0  0  0
 23 24  1  0  0  0
 23 25  1  0  0  0
 24 26  1  0  0  0
  3  4  2  0  0  0
 26 27  2  0  0  0
 27 28  1  0  0  0
 43 47  1  0  0  0
 43 51  1  0  0  0
 28 29  1  0  0  0
 56 48  1  0  0  0
 56 60  1  0  0  0
 29 30  1  0  0  0
 57 60  1  0  0  0
 57 61  1  0  0  0
 30 31  1  0  0  0
 44 49  1  0  0  0
 44 52  1  0  0  0
 31 32  1  0  0  0
 45 46  1  0  0  0
 45 50  1  0  0  0
 32 33  1  0  0  0
 53 54  1  0  0  0
 53 55  1  0  0  0
 33 34  1  0  0  0
 34 35  1  0  0  0
 35 36  1  0  0  0
 58 60  1  0  0  0
 36 37  1  0  0  0
 59 60  1  0  0  0
 59 62  1  0  0  0
 37 38  1  0  0  0
 38 39  1  0  0  0
 39 40  1  0  0  0
  4  6  1  0  0  0
  6  7  1  0  0  0
  7  8  1  0  0  0
  8  9  1  0  0  0
  9 10  1  0  0  0
 10 11  1  0  0  0
 11 12  1  0  0  0
 12 13  1  0  0  0
 13 14  1  0  0  0
 14 15  1  0  0  0
 15 16  1  0  0  0
 16 17  1  0  0  0
 17 18  1  0  0  0
 18 19  1  0  0  0
 19 20  1  0  0  0
 20 21  1  0  0  0
 21 22  1  0  0  0
 46 47  1  0  0  0
 47 48  1  0  0  0
 48 49  1  0  0  0
 49 50  1  0  0  0
 50 54  1  0  0  0
M  CHG 1  58  -1
M  END
> <minimizedAffinity>
-9.13873

> <CNNscore>
0.2225933522

> <CNNaffinity>
6.8845610619

> <CNN_VS>
1.5324574709

> <CNNaffinity_variance>
0.8921719790

$$$$
/media/chris/experiments/cd1a-new-docking/inputs/ligands/1onq_ligand.pdb


 62 62  0  0  0  0  0  0  0  0999 V2000
  -41.2031   59.7780   64.8673 C   0  0  0  0  0  0  0  0  0  0  0  0
  -41.1883   59.3277   63.4895 N   0  0  0  0  0  0  0  0  0  0  0  0
  -42.0700   57.2443   63.6615 O   0  0  0  0  0  0  0  0  0  0  0  0
  -41.6014   58.1504   63.0004 C   0  0  0  0  0  0  0  0  0  0  0  0
  -40.8301   59.9661   62.8312 H   0  0  0  0  0  0  0  0  0  0  0  0
  -41.4606   57.9922   61.5155 C   0  0  0  0  0  0  0  0  0  0  0  0
  -40.5720   56.7683   61.2926 C   0  0  0  0  0  0  0  0  0  0  0  0
  -39.1472   57.0676   61.7527 C   0  0  0  0  0  0  0  0  0  0  0  0
  -38.3873   58.0865   60.9387 C   0  0  0  0  0  0  0  0  0  0  0  0
  -37.0707   58.3617   61.6576 C   0  0  0  0  0  0  0  0  0  0  0  0
  -37.0625   57.8391   63.1003 C   0  0  0  0  0  0  0  0  0  0  0  0
  -35.6980   57.9499   63.8051 C   0  0  0  0  0  0  0  0  0  0  0  0
  -34.5066   57.7755   62.8377 C   0  0  0  0  0  0  0  0  0  0  0  0
  -33.2699   58.5074   63.3668 C   0  0  0  0  0  0  0  0  0  0  0  0
  -32.6827   59.5481   62.4211 C   0  0  0  0  0  0  0  0  0  0  0  0
  -31.1794   59.7046   62.5966 C   0  0  0  0  0  0  0  0  0  0  0  0
  -30.4724   60.5910   61.5686 C   0  0  0  0  0  0  0  0  0  0  0  0
  -28.9998   60.6762   61.9466 C   0  0  0  0  0  0  0  0  0  0  0  0
  -28.4628   61.9892   62.4968 C   0  0  0  0  0  0  0  0  0  0  0  0
  -29.2724   63.1813   61.9627 C   0  0  0  0  0  0  0  0  0  0  0  0
  -29.4687   64.3248   62.9749 C   0  0  0  0  0  0  0  0  0  0  0  0
  -28.2598   65.2515   63.0813 C   0  0  0  0  0  0  0  0  0  0  0  0
  -42.0386   61.7470   65.7731 O   0  0  0  0  0  0  0  0  0  0  0  0
  -42.4131   60.6956   64.9026 C   0  0  0  0  0  0  0  0  0  0  0  0
  -41.2705   62.2123   65.4064 H   0  0  0  0  0  0  0  0  0  0  0  0
  -43.6238   59.9182   65.4246 C   0  0  0  0  0  0  0  0  0  0  0  0
  -44.6507   59.5495   64.6399 C   0  0  0  0  0  0  0  0  0  0  0  0
  -45.8243   58.7755   65.2372 C   0  0  0  0  0  0  0  0  0  0  0  0
  -47.1705   59.0652   64.5573 C   0  0  0  0  0  0  0  0  0  0  0  0
  -48.2647   59.6515   65.4684 C   0  0  0  0  0  0  0  0  0  0  0  0
  -49.0632   60.7522   64.7292 C   0  0  0  0  0  0  0  0  0  0  0  0
  -49.3279   60.4815   63.2264 C   0  0  0  0  0  0  0  0  0  0  0  0
  -50.8000   60.1427   62.8935 C   0  0  0  0  0  0  0  0  0  0  0  0
  -51.0206   58.6653   62.5032 C   0  0  0  0  0  0  0  0  0  0  0  0
  -49.7615   57.9731   61.9675 C   0  0  0  0  0  0  0  0  0  0  0  0
  -49.9495   57.1062   60.7244 C   0  0  0  0  0  0  0  0  0  0  0  0
  -49.9025   57.8929   59.3997 C   0  0  0  0  0  0  0  0  0  0  0  0
  -48.5981   58.6621   59.1410 C   0  0  0  0  0  0  0  0  0  0  0  0
  -47.5474   57.7591   58.4885 C   0  0  0  0  0  0  0  0  0  0  0  0
  -47.0597   58.1757   57.1122 C   0  0  0  0  0  0  0  0  0  0  0  0
  -39.8696   60.3562   65.3930 C   0  0  0  0  0  0  0  0  0  0  0  0
  -39.2064   61.3292   64.5464 O   0  0  0  0  0  0  0  0  0  0  0  0
  -37.4993   61.7483   62.2909 O   0  0  0  0  0  0  0  0  0  0  0  0
  -35.6390   64.4547   64.8626 O   0  0  0  0  0  0  0  0  0  0  0  0
  -37.3301   62.1474   65.8485 O   0  0  0  0  0  0  0  0  0  0  0  0
  -37.7445   61.5266   64.6073 C   0  0  0  0  0  0  0  0  0  0  0  0
  -37.1293   62.3712   63.4822 C   0  0  0  0  0  0  0  0  0  0  0  0
  -35.5874   62.4436   63.5330 C   0  0  0  0  0  0  0  0  0  0  0  0
  -35.2398   63.0863   64.8474 C   0  0  0  0  0  0  0  0  0  0  0  0
  -35.8936   62.3199   65.9829 C   0  0  0  0  0  0  0  0  0  0  0  0
  -38.4666   61.6939   62.2414 H   0  0  0  0  0  0  0  0  0  0  0  0
  -35.2104   64.9247   64.1302 H   0  0  0  0  0  0  0  0  0  0  0  0
  -36.3894   64.0939   67.5063 O   0  0  0  0  0  0  0  0  0  0  0  0
  -35.4323   63.1264   67.1948 C   0  0  0  0  0  0  0  0  0  0  0  0
  -36.0943   64.6046   68.2763 H   0  0  0  0  0  0  0  0  0  0  0  0
  -34.9562   63.2495   62.5122 O   0  0  0  0  0  0  0  0  0  0  0  0
  -32.6054   62.7008   63.4555 O   0  0  0  0  0  0  0  0  0  0  0  0
  -33.1794   65.0005   62.9344 O   0  0  0  0  0  0  0  0  0  0  0  0
  -32.6951   63.4308   61.1522 O   0  0  0  0  0  0  0  0  0  0  0  0
  -33.3258   63.5866   62.4936 S   0  0  0  0  0  0  0  0  0  0  0  0
  -33.0026   62.7888   64.3360 H   0  0  0  0  0  0  0  0  0  0  0  0
  -32.7861   62.5113   60.8570 H   0  0  0  0  0  0  0  0  0  0  0  0
  2  1  1  0  0  0
  2  4  1  0  0  0
  2  5  1  0  0  0
 41 42  1  0  0  0
 41  1  1  0  0  0
 42 46  1  0  0  0
  1 24  1  0  0  0
 23 24  1  0  0  0
 23 25  1  0  0  0
 24 26  1  0  0  0
  3  4  2  0  0  0
 26 27  2  0  0  0
 27 28  1  0  0  0
 43 47  1  0  0  0
 43 51  1  0  0  0
 28 29  1  0  0  0
 56 48  1  0  0  0
 56 60  1  0  0  0
 29 30  1  0  0  0
 57 60  1  0  0  0
 57 61  1  0  0  0
 30 31  1  0  0  0
 44 49  1  0  0  0
 44 52  1  0  0  0
 31 32  1  0  0  0
 45 46  1  0  0  0
 45 50  1  0  0  0
 32 33  1  0  0  0
 53 54  1  0  0  0
 53 55  1  0  0  0
 33 34  1  0  0  0
 34 35  1  0  0  0
 35 36  1  0  0  0
 58 60  1  0  0  0
 36 37  1  0  0  0
 59 60  1  0  0  0
 59 62  1  0  0  0
 37 38  1  0  0  0
 38 39  1  0  0  0
 39 40  1  0  0  0
  4  6  1  0  0  0
  6  7  1  0  0  0
  7  8  1  0  0  0
  8  9  1  0  0  0
  9 10  1  0  0  0
 10 11  1  0  0  0
 11 12  1  0  0  0
 12 13  1  0  0  0
 13 14  1  0  0  0
 14 15  1  0  0  0
 15 16  1  0  0  0
 16 17  1  0  0  0
 17 18  1  0  0  0
 18 19  1  0  0  0
 19 20  1  0  0  0
 20 21  1  0  0  0
 21 22  1  0  0  0
 46 47  1  0  0  0
 47 48  1  0  0  0
 48 49  1  0  0  0
 49 50  1  0  0  0
 50 54  1  0  0  0
M  CHG 1  58  -1
M  END
> <minimizedAffinity>
-9.42859

> <CNNscore>
0.2154694945

> <CNNaffinity>
6.6423606873

> <CNN_VS>
1.4312261343

> <CNNaffinity_variance>
1.1521255970

$$$$
/media/chris/experiments/cd1a-new-docking/inputs/ligands/1onq_ligand.pdb


 62 62  0  0  0  0  0  0  0  0999 V2000
  -41.6206   60.5279   64.8631 C   0  0  0  0  0  0  0  0  0  0  0  0
  -42.4052   59.3137   64.7577 N   0  0  0  0  0  0  0  0  0  0  0  0
  -41.9836   58.3020   66.7443 O   0  0  0  0  0  0  0  0  0  0  0  0
  -42.5299   58.3295   65.6587 C   0  0  0  0  0  0  0  0  0  0  0  0
  -42.9092   59.1975   63.9200 H   0  0  0  0  0  0  0  0  0  0  0  0
  -43.4308   57.2018   65.2505 C   0  0  0  0  0  0  0  0  0  0  0  0
  -44.8297   57.7987   65.0966 C   0  0  0  0  0  0  0  0  0  0  0  0
  -45.6145   57.6301   66.3954 C   0  0  0  0  0  0  0  0  0  0  0  0
  -46.4571   58.8086   66.8192 C   0  0  0  0  0  0  0  0  0  0  0  0
  -46.4418   59.8201   65.6779 C   0  0  0  0  0  0  0  0  0  0  0  0
  -47.7912   59.9175   64.9538 C   0  0  0  0  0  0  0  0  0  0  0  0
  -49.0144   59.7127   65.8662 C   0  0  0  0  0  0  0  0  0  0  0  0
  -50.1709   58.9692   65.1623 C   0  0  0  0  0  0  0  0  0  0  0  0
  -51.0003   59.9391   64.3158 C   0  0  0  0  0  0  0  0  0  0  0  0
  -50.9104   59.7204   62.8104 C   0  0  0  0  0  0  0  0  0  0  0  0
  -50.2363   58.4026   62.4578 C   0  0  0  0  0  0  0  0  0  0  0  0
  -50.7168   57.7261   61.1718 C   0  0  0  0  0  0  0  0  0  0  0  0
  -50.0080   58.3833   59.9951 C   0  0  0  0  0  0  0  0  0  0  0  0
  -49.0566   57.5438   59.1554 C   0  0  0  0  0  0  0  0  0  0  0  0
  -48.0122   58.4291   58.4574 C   0  0  0  0  0  0  0  0  0  0  0  0
  -47.2830   57.7513   57.2827 C   0  0  0  0  0  0  0  0  0  0  0  0
  -47.4059   56.2293   57.2929 C   0  0  0  0  0  0  0  0  0  0  0  0
  -43.6405   61.5644   64.3719 O   0  0  0  0  0  0  0  0  0  0  0  0
  -42.3162   61.4575   63.8836 C   0  0  0  0  0  0  0  0  0  0  0  0
  -43.6272   61.9552   65.2597 H   0  0  0  0  0  0  0  0  0  0  0  0
  -42.2662   60.8461   62.4815 C   0  0  0  0  0  0  0  0  0  0  0  0
  -41.5066   61.3458   61.4918 C   0  0  0  0  0  0  0  0  0  0  0  0
  -41.5122   60.6782   60.1179 C   0  0  0  0  0  0  0  0  0  0  0  0
  -40.4313   59.6009   59.9458 C   0  0  0  0  0  0  0  0  0  0  0  0
  -40.8863   58.3057   59.2482 C   0  0  0  0  0  0  0  0  0  0  0  0
  -40.7625   57.0945   60.2038 C   0  0  0  0  0  0  0  0  0  0  0  0
  -41.2570   57.3408   61.6517 C   0  0  0  0  0  0  0  0  0  0  0  0
  -40.1515   57.2228   62.7273 C   0  0  0  0  0  0  0  0  0  0  0  0
  -38.7241   57.1626   62.1418 C   0  0  0  0  0  0  0  0  0  0  0  0
  -37.7419   58.1341   62.8073 C   0  0  0  0  0  0  0  0  0  0  0  0
  -37.3536   57.8133   64.2490 C   0  0  0  0  0  0  0  0  0  0  0  0
  -35.8351   57.6680   64.4706 C   0  0  0  0  0  0  0  0  0  0  0  0
  -35.0237   58.9630   64.3141 C   0  0  0  0  0  0  0  0  0  0  0  0
  -33.6297   58.8165   64.9310 C   0  0  0  0  0  0  0  0  0  0  0  0
  -32.4927   58.5229   63.9685 C   0  0  0  0  0  0  0  0  0  0  0  0
  -40.0941   60.3505   64.6974 C   0  0  0  0  0  0  0  0  0  0  0  0
  -39.3565   61.5020   64.2144 O   0  0  0  0  0  0  0  0  0  0  0  0
  -37.4899   61.8185   62.0713 O   0  0  0  0  0  0  0  0  0  0  0  0
  -35.5955   64.3513   64.7906 O   0  0  0  0  0  0  0  0  0  0  0  0
  -37.5075   62.1647   65.6384 O   0  0  0  0  0  0  0  0  0  0  0  0
  -37.8904   61.5900   64.3653 C   0  0  0  0  0  0  0  0  0  0  0  0
  -37.1480   62.3991   63.2920 C   0  0  0  0  0  0  0  0  0  0  0  0
  -35.6109   62.3567   63.4356 C   0  0  0  0  0  0  0  0  0  0  0  0
  -35.2973   62.9574   64.7781 C   0  0  0  0  0  0  0  0  0  0  0  0
  -36.0730   62.2291   65.8607 C   0  0  0  0  0  0  0  0  0  0  0  0
  -38.4537   61.8363   61.9635 H   0  0  0  0  0  0  0  0  0  0  0  0
  -35.0902   64.7964   64.0924 H   0  0  0  0  0  0  0  0  0  0  0  0
  -36.4888   64.0611   67.3387 O   0  0  0  0  0  0  0  0  0  0  0  0
  -35.6282   62.9858   67.1103 C   0  0  0  0  0  0  0  0  0  0  0  0
  -36.2042   64.5400   68.1328 H   0  0  0  0  0  0  0  0  0  0  0  0
  -34.8618   63.1248   62.4668 O   0  0  0  0  0  0  0  0  0  0  0  0
  -32.7136   63.5909   61.0938 O   0  0  0  0  0  0  0  0  0  0  0  0
  -32.7077   61.8318   62.7656 O   0  0  0  0  0  0  0  0  0  0  0  0
  -32.6312   64.1578   63.4429 O   0  0  0  0  0  0  0  0  0  0  0  0
  -33.1986   63.2010   62.4509 S   0  0  0  0  0  0  0  0  0  0  0  0
  -33.0733   62.9782   60.4334 H   0  0  0  0  0  0  0  0  0  0  0  0
  -32.9464   65.0535   63.2450 H   0  0  0  0  0  0  0  0  0  0  0  0
  2  1  1  0  0  0
  2  4  1  0  0  0
  2  5  1  0  0  0
 41 42  1  0  0  0
 41  1  1  0  0  0
 42 46  1  0  0  0
  1 24  1  0  0  0
 23 24  1  0  0  0
 23 25  1  0  0  0
 24 26  1  0  0  0
  3  4  2  0  0  0
 26 27  2  0  0  0
 27 28  1  0  0  0
 43 47  1  0  0  0
 43 51  1  0  0  0
 28 29  1  0  0  0
 56 48  1  0  0  0
 56 60  1  0  0  0
 29 30  1  0  0  0
 57 60  1  0  0  0
 57 61  1  0  0  0
 30 31  1  0  0  0
 44 49  1  0  0  0
 44 52  1  0  0  0
 31 32  1  0  0  0
 45 46  1  0  0  0
 45 50  1  0  0  0
 32 33  1  0  0  0
 53 54  1  0  0  0
 53 55  1  0  0  0
 33 34  1  0  0  0
 34 35  1  0  0  0
 35 36  1  0  0  0
 58 60  1  0  0  0
 36 37  1  0  0  0
 59 60  1  0  0  0
 59 62  1  0  0  0
 37 38  1  0  0  0
 38 39  1  0  0  0
 39 40  1  0  0  0
  4  6  1  0  0  0
  6  7  1  0  0  0
  7  8  1  0  0  0
  8  9  1  0  0  0
  9 10  1  0  0  0
 10 11  1  0  0  0
 11 12  1  0  0  0
 12 13  1  0  0  0
 13 14  1  0  0  0
 14 15  1  0  0  0
 15 16  1  0  0  0
 16 17  1  0  0  0
 17 18  1  0  0  0
 18 19  1  0  0  0
 19 20  1  0  0  0
 20 21  1  0  0  0
 21 22  1  0  0  0
 46 47  1  0  0  0
 47 48  1  0  0  0
 48 49  1  0  0  0
 49 50  1  0  0  0
 50 54  1  0  0  0
M  CHG 1  58  -1
M  END
> <minimizedAffinity>
-9.62120

> <CNNscore>
0.2124133408

> <CNNaffinity>
7.2457756996

> <CNN_VS>
1.5390994549

> <CNNaffinity_variance>
1.6946194172

$$$$
/media/chris/experiments/cd1a-new-docking/inputs/ligands/1onq_ligand.pdb


 62 62  0  0  0  0  0  0  0  0999 V2000
  -39.5109   60.2738   64.9060 C   0  0  0  0  0  0  0  0  0  0  0  0
  -40.8973   60.1104   65.2962 N   0  0  0  0  0  0  0  0  0  0  0  0
  -41.9429   61.6379   63.9843 O   0  0  0  0  0  0  0  0  0  0  0  0
  -41.9690   60.7690   64.8340 C   0  0  0  0  0  0  0  0  0  0  0  0
  -41.0736   59.4310   65.9866 H   0  0  0  0  0  0  0  0  0  0  0  0
  -43.2790   60.3591   65.4388 C   0  0  0  0  0  0  0  0  0  0  0  0
  -44.3701   60.8812   64.5039 C   0  0  0  0  0  0  0  0  0  0  0  0
  -45.7345   60.3659   64.9556 C   0  0  0  0  0  0  0  0  0  0  0  0
  -45.7791   59.7091   66.3140 C   0  0  0  0  0  0  0  0  0  0  0  0
  -47.2225   59.2933   66.5776 C   0  0  0  0  0  0  0  0  0  0  0  0
  -48.0951   59.3480   65.3165 C   0  0  0  0  0  0  0  0  0  0  0  0
  -49.4559   58.6417   65.4582 C   0  0  0  0  0  0  0  0  0  0  0  0
  -50.6244   59.6278   65.6762 C   0  0  0  0  0  0  0  0  0  0  0  0
  -50.7504   60.5868   64.4889 C   0  0  0  0  0  0  0  0  0  0  0  0
  -51.5809   60.0641   63.3230 C   0  0  0  0  0  0  0  0  0  0  0  0
  -50.7152   59.5578   62.1787 C   0  0  0  0  0  0  0  0  0  0  0  0
  -50.6288   58.0376   62.0243 C   0  0  0  0  0  0  0  0  0  0  0  0
  -50.5449   57.7144   60.5386 C   0  0  0  0  0  0  0  0  0  0  0  0
  -49.7269   58.6285   59.6384 C   0  0  0  0  0  0  0  0  0  0  0  0
  -49.0990   57.8396   58.4786 C   0  0  0  0  0  0  0  0  0  0  0  0
  -47.5594   57.8516   58.4577 C   0  0  0  0  0  0  0  0  0  0  0  0
  -46.9767   58.2367   57.0999 C   0  0  0  0  0  0  0  0  0  0  0  0
  -39.9877   58.0185   64.6193 O   0  0  0  0  0  0  0  0  0  0  0  0
  -39.2783   59.0760   64.0011 C   0  0  0  0  0  0  0  0  0  0  0  0
  -40.9317   58.2393   64.6541 H   0  0  0  0  0  0  0  0  0  0  0  0
  -37.7772   58.7902   63.9142 C   0  0  0  0  0  0  0  0  0  0  0  0
  -37.1645   57.8606   64.6669 C   0  0  0  0  0  0  0  0  0  0  0  0
  -35.6606   57.6354   64.5220 C   0  0  0  0  0  0  0  0  0  0  0  0
  -35.0712   58.1932   63.2182 C   0  0  0  0  0  0  0  0  0  0  0  0
  -33.6723   57.6708   62.8421 C   0  0  0  0  0  0  0  0  0  0  0  0
  -32.5723   58.6384   63.3412 C   0  0  0  0  0  0  0  0  0  0  0  0
  -32.8664   60.1441   63.1221 C   0  0  0  0  0  0  0  0  0  0  0  0
  -31.6754   60.9447   62.5448 C   0  0  0  0  0  0  0  0  0  0  0  0
  -30.3793   60.1158   62.4144 C   0  0  0  0  0  0  0  0  0  0  0  0
  -29.2362   60.8622   61.7161 C   0  0  0  0  0  0  0  0  0  0  0  0
  -28.1680   61.4597   62.6295 C   0  0  0  0  0  0  0  0  0  0  0  0
  -28.3321   62.9720   62.8786 C   0  0  0  0  0  0  0  0  0  0  0  0
  -29.3718   63.6728   61.9909 C   0  0  0  0  0  0  0  0  0  0  0  0
  -30.3169   64.5381   62.8293 C   0  0  0  0  0  0  0  0  0  0  0  0
  -30.2543   64.3437   64.3339 C   0  0  0  0  0  0  0  0  0  0  0  0
  -38.5122   60.4788   66.0677 C   0  0  0  0  0  0  0  0  0  0  0  0
  -37.8713   61.7772   66.1500 O   0  0  0  0  0  0  0  0  0  0  0  0
  -37.5631   63.0304   63.5982 O   0  0  0  0  0  0  0  0  0  0  0  0
  -34.3086   64.8493   65.4686 O   0  0  0  0  0  0  0  0  0  0  0  0
  -35.5057   62.2398   66.4242 O   0  0  0  0  0  0  0  0  0  0  0  0
  -36.5832   62.0390   65.4776 C   0  0  0  0  0  0  0  0  0  0  0  0
  -36.5488   63.2468   64.5301 C   0  0  0  0  0  0  0  0  0  0  0  0
  -35.2144   63.3995   63.7678 C   0  0  0  0  0  0  0  0  0  0  0  0
  -34.1520   63.5924   64.8145 C   0  0  0  0  0  0  0  0  0  0  0  0
  -34.2036   62.4522   65.8152 C   0  0  0  0  0  0  0  0  0  0  0  0
  -38.4106   62.9319   64.0598 H   0  0  0  0  0  0  0  0  0  0  0  0
  -34.2725   65.5623   64.8119 H   0  0  0  0  0  0  0  0  0  0  0  0
  -33.5984   63.5946   67.8258 O   0  0  0  0  0  0  0  0  0  0  0  0
  -33.0786   62.8406   66.7721 C   0  0  0  0  0  0  0  0  0  0  0  0
  -32.8821   63.8400   68.4320 H   0  0  0  0  0  0  0  0  0  0  0  0
  -35.1166   64.5374   62.8815 O   0  0  0  0  0  0  0  0  0  0  0  0
  -33.3099   63.4846   61.3505 O   0  0  0  0  0  0  0  0  0  0  0  0
  -33.9218   65.8140   61.0529 O   0  0  0  0  0  0  0  0  0  0  0  0
  -35.4100   64.0564   60.2975 O   0  0  0  0  0  0  0  0  0  0  0  0
  -34.4444   64.4550   61.3606 S   0  0  0  0  0  0  0  0  0  0  0  0
  -32.6698   63.7283   62.0373 H   0  0  0  0  0  0  0  0  0  0  0  0
  -35.7559   63.1709   60.4903 H   0  0  0  0  0  0  0  0  0  0  0  0
  2  1  1  0  0  0
  2  4  1  0  0  0
  2  5  1  0  0  0
 41 42  1  0  0  0
 41  1  1  0  0  0
 42 46  1  0  0  0
  1 24  1  0  0  0
 23 24  1  0  0  0
 23 25  1  0  0  0
 24 26  1  0  0  0
  3  4  2  0  0  0
 26 27  2  0  0  0
 27 28  1  0  0  0
 43 47  1  0  0  0
 43 51  1  0  0  0
 28 29  1  0  0  0
 56 48  1  0  0  0
 56 60  1  0  0  0
 29 30  1  0  0  0
 57 60  1  0  0  0
 57 61  1  0  0  0
 30 31  1  0  0  0
 44 49  1  0  0  0
 44 52  1  0  0  0
 31 32  1  0  0  0
 45 46  1  0  0  0
 45 50  1  0  0  0
 32 33  1  0  0  0
 53 54  1  0  0  0
 53 55  1  0  0  0
 33 34  1  0  0  0
 34 35  1  0  0  0
 35 36  1  0  0  0
 58 60  1  0  0  0
 36 37  1  0  0  0
 59 60  1  0  0  0
 59 62  1  0  0  0
 37 38  1  0  0  0
 38 39  1  0  0  0
 39 40  1  0  0  0
  4  6  1  0  0  0
  6  7  1  0  0  0
  7  8  1  0  0  0
  8  9  1  0  0  0
  9 10  1  0  0  0
 10 11  1  0  0  0
 11 12  1  0  0  0
 12 13  1  0  0  0
 13 14  1  0  0  0
 14 15  1  0  0  0
 15 16  1  0  0  0
 16 17  1  0  0  0
 17 18  1  0  0  0
 18 19  1  0  0  0
 19 20  1  0  0  0
 20 21  1  0  0  0
 21 22  1  0  0  0
 46 47  1  0  0  0
 47 48  1  0  0  0
 48 49  1  0  0  0
 49 50  1  0  0  0
 50 54  1  0  0  0
M  CHG 1  58  -1
M  END
> <minimizedAffinity>
-9.28462

> <CNNscore>
0.1984113157

> <CNNaffinity>
6.2775855064

> <CNN_VS>
1.2455439568

> <CNNaffinity_variance>
0.6804116964

$$$$
/media/chris/experiments/cd1a-new-docking/inputs/ligands/1onq_ligand.pdb


 62 62  0  0  0  0  0  0  0  0999 V2000
  -40.6664   59.9874   63.7360 C   0  0  0  0  0  0  0  0  0  0  0  0
  -41.9068   60.5893   64.1837 N   0  0  0  0  0  0  0  0  0  0  0  0
  -42.8389   61.2655   62.2288 O   0  0  0  0  0  0  0  0  0  0  0  0
  -42.8639   61.1603   63.4396 C   0  0  0  0  0  0  0  0  0  0  0  0
  -42.0657   60.5773   65.1552 H   0  0  0  0  0  0  0  0  0  0  0  0
  -44.0395   61.6872   64.2079 C   0  0  0  0  0  0  0  0  0  0  0  0
  -44.0715   60.9210   65.5304 C   0  0  0  0  0  0  0  0  0  0  0  0
  -45.4412   60.2751   65.7258 C   0  0  0  0  0  0  0  0  0  0  0  0
  -46.4194   60.4367   64.5877 C   0  0  0  0  0  0  0  0  0  0  0  0
  -47.0582   59.0756   64.3324 C   0  0  0  0  0  0  0  0  0  0  0  0
  -47.9753   58.6268   65.4779 C   0  0  0  0  0  0  0  0  0  0  0  0
  -49.0195   59.6767   65.9000 C   0  0  0  0  0  0  0  0  0  0  0  0
  -50.4394   59.3516   65.3863 C   0  0  0  0  0  0  0  0  0  0  0  0
  -50.8850   60.3804   64.3432 C   0  0  0  0  0  0  0  0  0  0  0  0
  -51.1673   59.8131   62.9574 C   0  0  0  0  0  0  0  0  0  0  0  0
  -50.6811   58.3787   62.8109 C   0  0  0  0  0  0  0  0  0  0  0  0
  -49.4957   58.1650   61.8667 C   0  0  0  0  0  0  0  0  0  0  0  0
  -49.6191   59.1554   60.7167 C   0  0  0  0  0  0  0  0  0  0  0  0
  -49.3360   58.6701   59.3027 C   0  0  0  0  0  0  0  0  0  0  0  0
  -48.0955   57.7635   59.2706 C   0  0  0  0  0  0  0  0  0  0  0  0
  -47.3295   57.7763   57.9349 C   0  0  0  0  0  0  0  0  0  0  0  0
  -47.2995   56.4156   57.2427 C   0  0  0  0  0  0  0  0  0  0  0  0
  -39.8320   60.2132   65.8921 O   0  0  0  0  0  0  0  0  0  0  0  0
  -40.2117   59.2153   64.9627 C   0  0  0  0  0  0  0  0  0  0  0  0
  -40.6002   60.7661   66.1047 H   0  0  0  0  0  0  0  0  0  0  0  0
  -39.0411   58.3051   64.5836 C   0  0  0  0  0  0  0  0  0  0  0  0
  -37.7581   58.6235   64.8258 C   0  0  0  0  0  0  0  0  0  0  0  0
  -36.6453   57.6609   64.4157 C   0  0  0  0  0  0  0  0  0  0  0  0
  -36.2496   57.7625   62.9353 C   0  0  0  0  0  0  0  0  0  0  0  0
  -37.3946   57.5669   61.9244 C   0  0  0  0  0  0  0  0  0  0  0  0
  -37.7483   58.9039   61.2297 C   0  0  0  0  0  0  0  0  0  0  0  0
  -37.9553   58.8184   59.6963 C   0  0  0  0  0  0  0  0  0  0  0  0
  -39.2935   58.1682   59.2730 C   0  0  0  0  0  0  0  0  0  0  0  0
  -40.5061   58.6618   60.0916 C   0  0  0  0  0  0  0  0  0  0  0  0
  -41.4683   57.5422   60.5066 C   0  0  0  0  0  0  0  0  0  0  0  0
  -41.8498   57.4987   61.9848 C   0  0  0  0  0  0  0  0  0  0  0  0
  -41.4707   56.1818   62.6905 C   0  0  0  0  0  0  0  0  0  0  0  0
  -41.9526   56.0555   64.1437 C   0  0  0  0  0  0  0  0  0  0  0  0
  -43.0805   57.0487   64.4373 C   0  0  0  0  0  0  0  0  0  0  0  0
  -43.3190   57.3872   65.8982 C   0  0  0  0  0  0  0  0  0  0  0  0
  -39.6458   60.9592   63.1015 C   0  0  0  0  0  0  0  0  0  0  0  0
  -39.0393   61.9327   63.9892 O   0  0  0  0  0  0  0  0  0  0  0  0
  -37.0613   62.2766   61.9530 O   0  0  0  0  0  0  0  0  0  0  0  0
  -35.2150   64.6138   64.8732 O   0  0  0  0  0  0  0  0  0  0  0  0
  -37.2400   62.4628   65.5275 O   0  0  0  0  0  0  0  0  0  0  0  0
  -37.5801   61.9602   64.2126 C   0  0  0  0  0  0  0  0  0  0  0  0
  -36.7592   62.7890   63.2141 C   0  0  0  0  0  0  0  0  0  0  0  0
  -35.2332   62.6839   63.4275 C   0  0  0  0  0  0  0  0  0  0  0  0
  -34.9647   63.2119   64.8097 C   0  0  0  0  0  0  0  0  0  0  0  0
  -35.8165   62.4646   65.8196 C   0  0  0  0  0  0  0  0  0  0  0  0
  -38.0175   62.3345   61.8010 H   0  0  0  0  0  0  0  0  0  0  0  0
  -34.6614   65.0711   64.2209 H   0  0  0  0  0  0  0  0  0  0  0  0
  -36.2944   62.7892   68.1391 O   0  0  0  0  0  0  0  0  0  0  0  0
  -35.4071   63.1476   67.1226 C   0  0  0  0  0  0  0  0  0  0  0  0
  -36.0322   63.2242   68.9655 H   0  0  0  0  0  0  0  0  0  0  0  0
  -34.4120   63.4669   62.5317 O   0  0  0  0  0  0  0  0  0  0  0  0
  -32.4018   63.7323   60.9175 O   0  0  0  0  0  0  0  0  0  0  0  0
  -32.7271   61.6321   62.0892 O   0  0  0  0  0  0  0  0  0  0  0  0
  -31.8749   63.5687   63.2715 O   0  0  0  0  0  0  0  0  0  0  0  0
  -32.8172   63.1126   62.2107 S   0  0  0  0  0  0  0  0  0  0  0  0
  -33.0048   63.4464   60.2135 H   0  0  0  0  0  0  0  0  0  0  0  0
  -31.9272   64.5335   63.3575 H   0  0  0  0  0  0  0  0  0  0  0  0
  2  1  1  0  0  0
  2  4  1  0  0  0
  2  5  1  0  0  0
 41 42  1  0  0  0
 41  1  1  0  0  0
 42 46  1  0  0  0
  1 24  1  0  0  0
 23 24  1  0  0  0
 23 25  1  0  0  0
 24 26  1  0  0  0
  3  4  2  0  0  0
 26 27  2  0  0  0
 27 28  1  0  0  0
 43 47  1  0  0  0
 43 51  1  0  0  0
 28 29  1  0  0  0
 56 48  1  0  0  0
 56 60  1  0  0  0
 29 30  1  0  0  0
 57 60  1  0  0  0
 57 61  1  0  0  0
 30 31  1  0  0  0
 44 49  1  0  0  0
 44 52  1  0  0  0
 31 32  1  0  0  0
 45 46  1  0  0  0
 45 50  1  0  0  0
 32 33  1  0  0  0
 53 54  1  0  0  0
 53 55  1  0  0  0
 33 34  1  0  0  0
 34 35  1  0  0  0
 35 36  1  0  0  0
 58 60  1  0  0  0
 36 37  1  0  0  0
 59 60  1  0  0  0
 59 62  1  0  0  0
 37 38  1  0  0  0
 38 39  1  0  0  0
 39 40  1  0  0  0
  4  6  1  0  0  0
  6  7  1  0  0  0
  7  8  1  0  0  0
  8  9  1  0  0  0
  9 10  1  0  0  0
 10 11  1  0  0  0
 11 12  1  0  0  0
 12 13  1  0  0  0
 13 14  1  0  0  0
 14 15  1  0  0  0
 15 16  1  0  0  0
 16 17  1  0  0  0
 17 18  1  0  0  0
 18 19  1  0  0  0
 19 20  1  0  0  0
 20 21  1  0  0  0
 21 22  1  0  0  0
 46 47  1  0  0  0
 47 48  1  0  0  0
 48 49  1  0  0  0
 49 50  1  0  0  0
 50 54  1  0  0  0
M  CHG 1  58  -1
M  END
> <minimizedAffinity>
-9.68126

> <CNNscore>
0.1774792522

> <CNNaffinity>
7.2316255569

> <CNN_VS>
1.2834634781

> <CNNaffinity_variance>
1.4564937353

$$$$
/media/chris/experiments/cd1a-new-docking/inputs/ligands/1onq_ligand.pdb


 62 62  0  0  0  0  0  0  0  0999 V2000
  -42.6024   58.1491   64.4004 C   0  0  0  0  0  0  0  0  0  0  0  0
  -43.6570   58.9225   65.0256 N   0  0  0  0  0  0  0  0  0  0  0  0
  -44.7408   57.3473   66.2469 O   0  0  0  0  0  0  0  0  0  0  0  0
  -44.6093   58.4940   65.8653 C   0  0  0  0  0  0  0  0  0  0  0  0
  -43.6760   59.8820   64.8058 H   0  0  0  0  0  0  0  0  0  0  0  0
  -45.5561   59.5521   66.3490 C   0  0  0  0  0  0  0  0  0  0  0  0
  -45.8013   60.4880   65.1654 C   0  0  0  0  0  0  0  0  0  0  0  0
  -47.2282   60.3145   64.6503 C   0  0  0  0  0  0  0  0  0  0  0  0
  -47.5864   58.9403   64.1388 C   0  0  0  0  0  0  0  0  0  0  0  0
  -48.4076   58.2458   65.2201 C   0  0  0  0  0  0  0  0  0  0  0  0
  -49.9195   58.3823   64.9957 C   0  0  0  0  0  0  0  0  0  0  0  0
  -50.5019   59.7418   65.4237 C   0  0  0  0  0  0  0  0  0  0  0  0
  -51.3871   60.3857   64.3340 C   0  0  0  0  0  0  0  0  0  0  0  0
  -51.2427   59.6345   63.0074 C   0  0  0  0  0  0  0  0  0  0  0  0
  -50.2498   60.2447   62.0255 C   0  0  0  0  0  0  0  0  0  0  0  0
  -49.6377   59.2026   61.1010 C   0  0  0  0  0  0  0  0  0  0  0  0
  -50.2706   57.8099   61.1473 C   0  0  0  0  0  0  0  0  0  0  0  0
  -49.3688   56.8519   60.3806 C   0  0  0  0  0  0  0  0  0  0  0  0
  -48.6596   57.3584   59.1334 C   0  0  0  0  0  0  0  0  0  0  0  0
  -47.7877   56.2564   58.5109 C   0  0  0  0  0  0  0  0  0  0  0  0
  -47.0523   56.6744   57.2244 C   0  0  0  0  0  0  0  0  0  0  0  0
  -46.8997   58.1869   57.0800 C   0  0  0  0  0  0  0  0  0  0  0  0
  -41.4220   59.8280   65.4885 O   0  0  0  0  0  0  0  0  0  0  0  0
  -41.4110   58.4249   65.3016 C   0  0  0  0  0  0  0  0  0  0  0  0
  -42.2469   60.0893   65.9270 H   0  0  0  0  0  0  0  0  0  0  0  0
  -40.1318   57.9450   64.6118 C   0  0  0  0  0  0  0  0  0  0  0  0
  -38.9051   58.3532   64.9790 C   0  0  0  0  0  0  0  0  0  0  0  0
  -37.6761   57.8283   64.2392 C   0  0  0  0  0  0  0  0  0  0  0  0
  -36.4833   57.5197   65.1560 C   0  0  0  0  0  0  0  0  0  0  0  0
  -35.1043   57.9506   64.6234 C   0  0  0  0  0  0  0  0  0  0  0  0
  -35.2025   58.4015   63.1460 C   0  0  0  0  0  0  0  0  0  0  0  0
  -33.8867   58.2985   62.3338 C   0  0  0  0  0  0  0  0  0  0  0  0
  -32.6057   58.2949   63.2008 C   0  0  0  0  0  0  0  0  0  0  0  0
  -31.8400   59.6354   63.1768 C   0  0  0  0  0  0  0  0  0  0  0  0
  -31.9590   60.3911   61.8479 C   0  0  0  0  0  0  0  0  0  0  0  0
  -30.6451   60.8315   61.2061 C   0  0  0  0  0  0  0  0  0  0  0  0
  -29.3966   60.5059   62.0494 C   0  0  0  0  0  0  0  0  0  0  0  0
  -28.4119   61.6699   62.2378 C   0  0  0  0  0  0  0  0  0  0  0  0
  -29.0740   63.0098   61.9043 C   0  0  0  0  0  0  0  0  0  0  0  0
  -28.6338   64.2049   62.7311 C   0  0  0  0  0  0  0  0  0  0  0  0
  -42.4069   58.3916   62.8865 C   0  0  0  0  0  0  0  0  0  0  0  0
  -42.2053   59.7664   62.4710 O   0  0  0  0  0  0  0  0  0  0  0  0
  -39.9430   61.2390   63.4148 O   0  0  0  0  0  0  0  0  0  0  0  0
  -37.8541   58.5907   60.9609 O   0  0  0  0  0  0  0  0  0  0  0  0
  -40.7895   59.2177   60.5790 O   0  0  0  0  0  0  0  0  0  0  0  0
  -41.0388   60.1557   61.6539 C   0  0  0  0  0  0  0  0  0  0  0  0
  -39.7080   60.3070   62.4048 C   0  0  0  0  0  0  0  0  0  0  0  0
  -38.5534   60.8293   61.5219 C   0  0  0  0  0  0  0  0  0  0  0  0
  -38.3648   59.8115   60.4310 C   0  0  0  0  0  0  0  0  0  0  0  0
  -39.6812   59.5796   59.7116 C   0  0  0  0  0  0  0  0  0  0  0  0
  -40.6666   60.9272   63.9805 H   0  0  0  0  0  0  0  0  0  0  0  0
  -37.0144   58.7617   61.4154 H   0  0  0  0  0  0  0  0  0  0  0  0
  -38.0149   58.8368   58.1672 O   0  0  0  0  0  0  0  0  0  0  0  0
  -39.2780   58.5311   58.6772 C   0  0  0  0  0  0  0  0  0  0  0  0
  -37.7611   58.1695   57.5106 H   0  0  0  0  0  0  0  0  0  0  0  0
  -37.2692   60.9645   62.1717 O   0  0  0  0  0  0  0  0  0  0  0  0
  -36.6077   63.4599   61.9434 O   0  0  0  0  0  0  0  0  0  0  0  0
  -35.4552   62.0586   63.5550 O   0  0  0  0  0  0  0  0  0  0  0  0
  -37.7114   62.8249   63.9988 O   0  0  0  0  0  0  0  0  0  0  0  0
  -36.7754   62.3583   62.9369 S   0  0  0  0  0  0  0  0  0  0  0  0
  -36.0004   63.1741   61.2430 H   0  0  0  0  0  0  0  0  0  0  0  0
  -38.5752   63.0226   63.6043 H   0  0  0  0  0  0  0  0  0  0  0  0
  2  1  1  0  0  0
  2  4  1  0  0  0
  2  5  1  0  0  0
 41 42  1  0  0  0
 41  1  1  0  0  0
 42 46  1  0  0  0
  1 24  1  0  0  0
 23 24  1  0  0  0
 23 25  1  0  0  0
 24 26  1  0  0  0
  3  4  2  0  0  0
 26 27  2  0  0  0
 27 28  1  0  0  0
 43 47  1  0  0  0
 43 51  1  0  0  0
 28 29  1  0  0  0
 56 48  1  0  0  0
 56 60  1  0  0  0
 29 30  1  0  0  0
 57 60  1  0  0  0
 57 61  1  0  0  0
 30 31  1  0  0  0
 44 49  1  0  0  0
 44 52  1  0  0  0
 31 32  1  0  0  0
 45 46  1  0  0  0
 45 50  1  0  0  0
 32 33  1  0  0  0
 53 54  1  0  0  0
 53 55  1  0  0  0
 33 34  1  0  0  0
 34 35  1  0  0  0
 35 36  1  0  0  0
 58 60  1  0  0  0
 36 37  1  0  0  0
 59 60  1  0  0  0
 59 62  1  0  0  0
 37 38  1  0  0  0
 38 39  1  0  0  0
 39 40  1  0  0  0
  4  6  1  0  0  0
  6  7  1  0  0  0
  7  8  1  0  0  0
  8  9  1  0  0  0
  9 10  1  0  0  0
 10 11  1  0  0  0
 11 12  1  0  0  0
 12 13  1  0  0  0
 13 14  1  0  0  0
 14 15  1  0  0  0
 15 16  1  0  0  0
 16 17  1  0  0  0
 17 18  1  0  0  0
 18 19  1  0  0  0
 19 20  1  0  0  0
 20 21  1  0  0  0
 21 22  1  0  0  0
 46 47  1  0  0  0
 47 48  1  0  0  0
 48 49  1  0  0  0
 49 50  1  0  0  0
 50 54  1  0  0  0
M  CHG 1  58  -1
M  END
> <minimizedAffinity>
-9.52168

> <CNNscore>
0.1726683974

> <CNNaffinity>
6.5957221985

> <CNN_VS>
1.1388727427

> <CNNaffinity_variance>
1.0211819410

$$$$
/media/chris/experiments/cd1a-new-docking/inputs/ligands/1onq_ligand.pdb


 62 62  0  0  0  0  0  0  0  0999 V2000
  -40.4610   60.0117   64.1803 C   0  0  0  0  0  0  0  0  0  0  0  0
  -41.7323   60.5975   64.5567 N   0  0  0  0  0  0  0  0  0  0  0  0
  -42.5091   61.3645   62.5678 O   0  0  0  0  0  0  0  0  0  0  0  0
  -42.6285   61.2049   63.7669 C   0  0  0  0  0  0  0  0  0  0  0  0
  -41.9665   60.5423   65.5114 H   0  0  0  0  0  0  0  0  0  0  0  0
  -43.8602   61.7011   64.4644 C   0  0  0  0  0  0  0  0  0  0  0  0
  -44.3721   60.5406   65.3178 C   0  0  0  0  0  0  0  0  0  0  0  0
  -45.0442   59.4966   64.4292 C   0  0  0  0  0  0  0  0  0  0  0  0
  -46.4562   59.1166   64.8038 C   0  0  0  0  0  0  0  0  0  0  0  0
  -47.3890   60.1667   64.2097 C   0  0  0  0  0  0  0  0  0  0  0  0
  -48.3102   60.8032   65.2590 C   0  0  0  0  0  0  0  0  0  0  0  0
  -49.0726   59.7879   66.1300 C   0  0  0  0  0  0  0  0  0  0  0  0
  -50.3575   59.2617   65.4535 C   0  0  0  0  0  0  0  0  0  0  0  0
  -51.0491   60.3782   64.6659 C   0  0  0  0  0  0  0  0  0  0  0  0
  -51.6487   59.9502   63.3319 C   0  0  0  0  0  0  0  0  0  0  0  0
  -50.5871   59.4945   62.3416 C   0  0  0  0  0  0  0  0  0  0  0  0
  -50.6476   58.0238   61.9223 C   0  0  0  0  0  0  0  0  0  0  0  0
  -50.5174   57.9556   60.4067 C   0  0  0  0  0  0  0  0  0  0  0  0
  -49.3728   58.7029   59.7386 C   0  0  0  0  0  0  0  0  0  0  0  0
  -48.6990   57.8320   58.6665 C   0  0  0  0  0  0  0  0  0  0  0  0
  -47.6787   58.5775   57.7866 C   0  0  0  0  0  0  0  0  0  0  0  0
  -46.5903   57.6680   57.2211 C   0  0  0  0  0  0  0  0  0  0  0  0
  -39.6777   57.8774   64.6565 O   0  0  0  0  0  0  0  0  0  0  0  0
  -40.7938   58.5328   64.0833 C   0  0  0  0  0  0  0  0  0  0  0  0
  -39.5872   58.1447   65.5845 H   0  0  0  0  0  0  0  0  0  0  0  0
  -40.9935   58.1533   62.6141 C   0  0  0  0  0  0  0  0  0  0  0  0
  -40.9831   56.8819   62.1787 C   0  0  0  0  0  0  0  0  0  0  0  0
  -41.1890   56.5848   60.6946 C   0  0  0  0  0  0  0  0  0  0  0  0
  -41.4051   57.8381   59.8338 C   0  0  0  0  0  0  0  0  0  0  0  0
  -40.2984   58.1400   58.8065 C   0  0  0  0  0  0  0  0  0  0  0  0
  -39.2956   59.1764   59.3683 C   0  0  0  0  0  0  0  0  0  0  0  0
  -37.9451   58.5934   59.8562 C   0  0  0  0  0  0  0  0  0  0  0  0
  -37.6724   58.8030   61.3643 C   0  0  0  0  0  0  0  0  0  0  0  0
  -37.3941   57.4913   62.1297 C   0  0  0  0  0  0  0  0  0  0  0  0
  -36.1219   57.5330   62.9847 C   0  0  0  0  0  0  0  0  0  0  0  0
  -35.0285   58.4903   62.5150 C   0  0  0  0  0  0  0  0  0  0  0  0
  -33.6116   57.8841   62.5427 C   0  0  0  0  0  0  0  0  0  0  0  0
  -32.5250   58.7866   63.1465 C   0  0  0  0  0  0  0  0  0  0  0  0
  -32.8983   59.2222   64.5663 C   0  0  0  0  0  0  0  0  0  0  0  0
  -33.0596   58.1144   65.5921 C   0  0  0  0  0  0  0  0  0  0  0  0
  -39.2586   60.4026   65.0693 C   0  0  0  0  0  0  0  0  0  0  0  0
  -37.9408   60.0847   64.5538 O   0  0  0  0  0  0  0  0  0  0  0  0
  -37.5786   61.9993   62.4609 O   0  0  0  0  0  0  0  0  0  0  0  0
  -36.6433   64.5254   65.6457 O   0  0  0  0  0  0  0  0  0  0  0  0
  -36.4472   61.5113   65.8263 O   0  0  0  0  0  0  0  0  0  0  0  0
  -36.8725   61.1027   64.5036 C   0  0  0  0  0  0  0  0  0  0  0  0
  -37.2061   62.3953   63.7449 C   0  0  0  0  0  0  0  0  0  0  0  0
  -36.0138   63.3696   63.6251 C   0  0  0  0  0  0  0  0  0  0  0  0
  -35.6275   63.7361   65.0315 C   0  0  0  0  0  0  0  0  0  0  0  0
  -35.3612   62.4767   65.8360 C   0  0  0  0  0  0  0  0  0  0  0  0
  -38.3279   61.3857   62.5164 H   0  0  0  0  0  0  0  0  0  0  0  0
  -36.7971   65.3235   65.1163 H   0  0  0  0  0  0  0  0  0  0  0  0
  -36.1191   63.0064   68.0402 O   0  0  0  0  0  0  0  0  0  0  0  0
  -35.0048   63.0614   67.2009 C   0  0  0  0  0  0  0  0  0  0  0  0
  -35.8902   63.3782   68.9063 H   0  0  0  0  0  0  0  0  0  0  0  0
  -36.2794   64.6164   62.9435 O   0  0  0  0  0  0  0  0  0  0  0  0
  -35.6642   63.8008   60.5616 O   0  0  0  0  0  0  0  0  0  0  0  0
  -34.2252   65.3967   61.6894 O   0  0  0  0  0  0  0  0  0  0  0  0
  -36.3478   66.1113   60.7628 O   0  0  0  0  0  0  0  0  0  0  0  0
  -35.6394   64.9972   61.4543 S   0  0  0  0  0  0  0  0  0  0  0  0
  -35.2068   63.0638   60.9957 H   0  0  0  0  0  0  0  0  0  0  0  0
  -37.2711   65.8592   60.6055 H   0  0  0  0  0  0  0  0  0  0  0  0
  2  1  1  0  0  0
  2  4  1  0  0  0
  2  5  1  0  0  0
 41 42  1  0  0  0
 41  1  1  0  0  0
 42 46  1  0  0  0
  1 24  1  0  0  0
 23 24  1  0  0  0
 23 25  1  0  0  0
 24 26  1  0  0  0
  3  4  2  0  0  0
 26 27  2  0  0  0
 27 28  1  0  0  0
 43 47  1  0  0  0
 43 51  1  0  0  0
 28 29  1  0  0  0
 56 48  1  0  0  0
 56 60  1  0  0  0
 29 30  1  0  0  0
 57 60  1  0  0  0
 57 61  1  0  0  0
 30 31  1  0  0  0
 44 49  1  0  0  0
 44 52  1  0  0  0
 31 32  1  0  0  0
 45 46  1  0  0  0
 45 50  1  0  0  0
 32 33  1  0  0  0
 53 54  1  0  0  0
 53 55  1  0  0  0
 33 34  1  0  0  0
 34 35  1  0  0  0
 35 36  1  0  0  0
 58 60  1  0  0  0
 36 37  1  0  0  0
 59 60  1  0  0  0
 59 62  1  0  0  0
 37 38  1  0  0  0
 38 39  1  0  0  0
 39 40  1  0  0  0
  4  6  1  0  0  0
  6  7  1  0  0  0
  7  8  1  0  0  0
  8  9  1  0  0  0
  9 10  1  0  0  0
 10 11  1  0  0  0
 11 12  1  0  0  0
 12 13  1  0  0  0
 13 14  1  0  0  0
 14 15  1  0  0  0
 15 16  1  0  0  0
 16 17  1  0  0  0
 17 18  1  0  0  0
 18 19  1  0  0  0
 19 20  1  0  0  0
 20 21  1  0  0  0
 21 22  1  0  0  0
 46 47  1  0  0  0
 47 48  1  0  0  0
 48 49  1  0  0  0
 49 50  1  0  0  0
 50 54  1  0  0  0
M  CHG 1  58  -1
M  END
> <minimizedAffinity>
-9.53620

> <CNNscore>
0.1681867987

> <CNNaffinity>
6.8290967941

> <CNN_VS>
1.1485639811

> <CNNaffinity_variance>
1.4306647778

$$$$
