/media/chris/experiments/cd1a-new-docking/inputs/ligands/1onq_ligand.pdb


 62 62  0  0  0  0  0  0  0  0999 V2000
  -41.5326   59.9756   65.0928 C   0  0  0  0  0  0  0  0  0  0  0  0
  -41.5150   58.6099   64.6071 N   0  0  0  0  0  0  0  0  0  0  0  0
  -42.6561   57.5133   66.2328 O   0  0  0  0  0  0  0  0  0  0  0  0
  -42.0503   57.5226   65.1789 C   0  0  0  0  0  0  0  0  0  0  0  0
  -41.0523   58.4630   63.7506 H   0  0  0  0  0  0  0  0  0  0  0  0
  -41.8669   56.2449   64.4151 C   0  0  0  0  0  0  0  0  0  0  0  0
  -40.9405   56.5697   63.2432 C   0  0  0  0  0  0  0  0  0  0  0  0
  -41.2329   55.6344   62.0723 C   0  0  0  0  0  0  0  0  0  0  0  0
  -41.5619   56.2997   60.7579 C   0  0  0  0  0  0  0  0  0  0  0  0
  -41.8138   57.7773   61.0397 C   0  0  0  0  0  0  0  0  0  0  0  0
  -41.0374   58.7021   60.0928 C   0  0  0  0  0  0  0  0  0  0  0  0
  -40.0284   57.9748   59.1852 C   0  0  0  0  0  0  0  0  0  0  0  0
  -38.6956   58.7408   59.0346 C   0  0  0  0  0  0  0  0  0  0  0  0
  -37.9665   58.8251   60.3785 C   0  0  0  0  0  0  0  0  0  0  0  0
  -38.0929   57.5883   61.2597 C   0  0  0  0  0  0  0  0  0  0  0  0
  -37.1966   57.6600   62.4870 C   0  0  0  0  0  0  0  0  0  0  0  0
  -37.8627   58.1434   63.7773 C   0  0  0  0  0  0  0  0  0  0  0  0
  -36.8923   57.9147   64.9283 C   0  0  0  0  0  0  0  0  0  0  0  0
  -35.4451   57.5737   64.6054 C   0  0  0  0  0  0  0  0  0  0  0  0
  -34.5530   58.8220   64.6943 C   0  0  0  0  0  0  0  0  0  0  0  0
  -33.2494   58.7347   63.8795 C   0  0  0  0  0  0  0  0  0  0  0  0
  -33.4841   58.6171   62.3752 C   0  0  0  0  0  0  0  0  0  0  0  0
  -42.1474   62.0763   64.3149 O   0  0  0  0  0  0  0  0  0  0  0  0
  -42.3029   60.7039   64.0048 C   0  0  0  0  0  0  0  0  0  0  0  0
  -41.2068   62.3111   64.2800 H   0  0  0  0  0  0  0  0  0  0  0  0
  -43.7691   60.2667   64.0424 C   0  0  0  0  0  0  0  0  0  0  0  0
  -44.7557   61.0531   64.5054 C   0  0  0  0  0  0  0  0  0  0  0  0
  -46.1955   60.5431   64.5107 C   0  0  0  0  0  0  0  0  0  0  0  0
  -46.5865   59.7986   65.7957 C   0  0  0  0  0  0  0  0  0  0  0  0
  -47.8598   58.9373   65.7058 C   0  0  0  0  0  0  0  0  0  0  0  0
  -49.1168   59.7795   66.0315 C   0  0  0  0  0  0  0  0  0  0  0  0
  -50.4379   59.2660   65.4048 C   0  0  0  0  0  0  0  0  0  0  0  0
  -51.1687   60.3078   64.5254 C   0  0  0  0  0  0  0  0  0  0  0  0
  -51.0859   60.0063   63.0133 C   0  0  0  0  0  0  0  0  0  0  0  0
  -50.5553   58.6041   62.6912 C   0  0  0  0  0  0  0  0  0  0  0  0
  -49.2022   58.5440   61.9857 C   0  0  0  0  0  0  0  0  0  0  0  0
  -49.2944   58.6099   60.4484 C   0  0  0  0  0  0  0  0  0  0  0  0
  -48.3206   57.6920   59.6940 C   0  0  0  0  0  0  0  0  0  0  0  0
  -48.3743   57.9540   58.1862 C   0  0  0  0  0  0  0  0  0  0  0  0
  -47.0458   57.9425   57.4511 C   0  0  0  0  0  0  0  0  0  0  0  0
  -40.1571   60.5593   65.4880 C   0  0  0  0  0  0  0  0  0  0  0  0
  -39.4430   61.2900   64.4586 O   0  0  0  0  0  0  0  0  0  0  0  0
  -37.6467   61.5595   62.2501 O   0  0  0  0  0  0  0  0  0  0  0  0
  -35.9845   64.5459   64.6412 O   0  0  0  0  0  0  0  0  0  0  0  0
  -37.6526   62.2829   65.7602 O   0  0  0  0  0  0  0  0  0  0  0  0
  -37.9916   61.5396   64.5643 C   0  0  0  0  0  0  0  0  0  0  0  0
  -37.3497   62.2990   63.3942 C   0  0  0  0  0  0  0  0  0  0  0  0
  -35.8145   62.4258   63.5047 C   0  0  0  0  0  0  0  0  0  0  0  0
  -35.5461   63.1955   64.7685 C   0  0  0  0  0  0  0  0  0  0  0  0
  -36.2293   62.5137   65.9401 C   0  0  0  0  0  0  0  0  0  0  0  0
  -38.6087   61.4693   62.1641 H   0  0  0  0  0  0  0  0  0  0  0  0
  -35.5364   64.9617   63.8881 H   0  0  0  0  0  0  0  0  0  0  0  0
  -36.2200   62.8593   68.3052 O   0  0  0  0  0  0  0  0  0  0  0  0
  -35.8475   63.4407   67.0919 C   0  0  0  0  0  0  0  0  0  0  0  0
  -35.9765   63.4500   69.0351 H   0  0  0  0  0  0  0  0  0  0  0  0
  -35.1603   63.1566   62.4427 O   0  0  0  0  0  0  0  0  0  0  0  0
  -32.8327   62.1077   62.8896 O   0  0  0  0  0  0  0  0  0  0  0  0
  -33.1362   64.5017   63.1461 O   0  0  0  0  0  0  0  0  0  0  0  0
  -33.0182   63.5177   60.9342 O   0  0  0  0  0  0  0  0  0  0  0  0
  -33.5069   63.3154   62.3277 S   0  0  0  0  0  0  0  0  0  0  0  0
  -33.1391   61.9597   63.7980 H   0  0  0  0  0  0  0  0  0  0  0  0
  -33.2558   62.7484   60.3933 H   0  0  0  0  0  0  0  0  0  0  0  0
  2  1  1  0  0  0
  2  4  1  0  0  0
  2  5  1  0  0  0
 41 42  1  0  0  0
 41  1  1  0  0  0
 42 46  1  0  0  0
  1 24  1  0  0  0
 23 24  1  0  0  0
 23 25  1  0  0  0
 24 26  1  0  0  0
  3  4  2  0  0  0
 26 27  2  0  0  0
 27 28  1  0  0  0
 43 47  1  0  0  0
 43 51  1  0  0  0
 28 29  1  0  0  0
 56 48  1  0  0  0
 56 60  1  0  0  0
 29 30  1  0  0  0
 57 60  1  0  0  0
 57 61  1  0  0  0
 30 31  1  0  0  0
 44 49  1  0  0  0
 44 52  1  0  0  0
 31 32  1  0  0  0
 45 46  1  0  0  0
 45 50  1  0  0  0
 32 33  1  0  0  0
 53 54  1  0  0  0
 53 55  1  0  0  0
 33 34  1  0  0  0
 34 35  1  0  0  0
 35 36  1  0  0  0
 58 60  1  0  0  0
 36 37  1  0  0  0
 59 60  1  0  0  0
 59 62  1  0  0  0
 37 38  1  0  0  0
 38 39  1  0  0  0
 39 40  1  0  0  0
  4  6  1  0  0  0
  6  7  1  0  0  0
  7  8  1  0  0  0
  8  9  1  0  0  0
  9 10  1  0  0  0
 10 11  1  0  0  0
 11 12  1  0  0  0
 12 13  1  0  0  0
 13 14  1  0  0  0
 14 15  1  0  0  0
 15 16  1  0  0  0
 16 17  1  0  0  0
 17 18  1  0  0  0
 18 19  1  0  0  0
 19 20  1  0  0  0
 20 21  1  0  0  0
 21 22  1  0  0  0
 46 47  1  0  0  0
 47 48  1  0  0  0
 48 49  1  0  0  0
 49 50  1  0  0  0
 50 54  1  0  0  0
M  CHG 1  58  -1
M  END
> <minimizedAffinity>
-9.95289

> <CNNscore>
0.3736551404

> <CNNaffinity>
7.2296996117

> <CNN_VS>
2.7014143467

> <CNNaffinity_variance>
2.2503366470

$$$$
/media/chris/experiments/cd1a-new-docking/inputs/ligands/1onq_ligand.pdb


 62 62  0  0  0  0  0  0  0  0999 V2000
  -39.6439   60.4504   63.5371 C   0  0  0  0  0  0  0  0  0  0  0  0
  -40.9963   60.9524   63.3946 N   0  0  0  0  0  0  0  0  0  0  0  0
  -41.1913   61.1586   61.1436 O   0  0  0  0  0  0  0  0  0  0  0  0
  -41.6494   61.2585   62.2652 C   0  0  0  0  0  0  0  0  0  0  0  0
  -41.4973   61.0849   64.2317 H   0  0  0  0  0  0  0  0  0  0  0  0
  -43.0538   61.7502   62.4541 C   0  0  0  0  0  0  0  0  0  0  0  0
  -43.3289   61.7089   63.9573 C   0  0  0  0  0  0  0  0  0  0  0  0
  -44.7448   61.1989   64.2146 C   0  0  0  0  0  0  0  0  0  0  0  0
  -44.9607   60.4704   65.5189 C   0  0  0  0  0  0  0  0  0  0  0  0
  -45.6869   59.1667   65.2037 C   0  0  0  0  0  0  0  0  0  0  0  0
  -46.8563   58.8935   66.1590 C   0  0  0  0  0  0  0  0  0  0  0  0
  -48.0294   59.8812   66.0209 C   0  0  0  0  0  0  0  0  0  0  0  0
  -48.8280   59.6857   64.7134 C   0  0  0  0  0  0  0  0  0  0  0  0
  -50.3040   60.0344   64.9250 C   0  0  0  0  0  0  0  0  0  0  0  0
  -51.1761   59.9319   63.6796 C   0  0  0  0  0  0  0  0  0  0  0  0
  -50.3982   59.4366   62.4694 C   0  0  0  0  0  0  0  0  0  0  0  0
  -50.8426   58.0915   61.8904 C   0  0  0  0  0  0  0  0  0  0  0  0
  -50.4605   58.0583   60.4167 C   0  0  0  0  0  0  0  0  0  0  0  0
  -49.4233   59.0493   59.9096 C   0  0  0  0  0  0  0  0  0  0  0  0
  -48.4666   58.3807   58.9097 C   0  0  0  0  0  0  0  0  0  0  0  0
  -47.7932   57.0976   59.4304 C   0  0  0  0  0  0  0  0  0  0  0  0
  -47.0754   56.3066   58.3392 C   0  0  0  0  0  0  0  0  0  0  0  0
  -38.1307   60.1142   65.2671 O   0  0  0  0  0  0  0  0  0  0  0  0
  -39.5206   60.2531   65.0382 C   0  0  0  0  0  0  0  0  0  0  0  0
  -37.6752   60.9256   64.9930 H   0  0  0  0  0  0  0  0  0  0  0  0
  -40.3008   59.0027   65.4510 C   0  0  0  0  0  0  0  0  0  0  0  0
  -41.6436   58.9475   65.4594 C   0  0  0  0  0  0  0  0  0  0  0  0
  -42.3490   57.6614   65.8856 C   0  0  0  0  0  0  0  0  0  0  0  0
  -42.5661   56.6624   64.7397 C   0  0  0  0  0  0  0  0  0  0  0  0
  -42.1980   57.1708   63.3336 C   0  0  0  0  0  0  0  0  0  0  0  0
  -41.5565   56.0416   62.4917 C   0  0  0  0  0  0  0  0  0  0  0  0
  -41.2347   56.4132   61.0220 C   0  0  0  0  0  0  0  0  0  0  0  0
  -41.3844   57.9192   60.7021 C   0  0  0  0  0  0  0  0  0  0  0  0
  -40.9968   58.2841   59.2527 C   0  0  0  0  0  0  0  0  0  0  0  0
  -39.4834   58.3207   59.0085 C   0  0  0  0  0  0  0  0  0  0  0  0
  -38.6676   59.1747   59.9768 C   0  0  0  0  0  0  0  0  0  0  0  0
  -37.5521   58.4008   60.7067 C   0  0  0  0  0  0  0  0  0  0  0  0
  -37.9980   57.6397   61.9643 C   0  0  0  0  0  0  0  0  0  0  0  0
  -36.9108   57.6741   63.0423 C   0  0  0  0  0  0  0  0  0  0  0  0
  -35.6316   58.4113   62.6877 C   0  0  0  0  0  0  0  0  0  0  0  0
  -38.5455   61.2918   62.8484 C   0  0  0  0  0  0  0  0  0  0  0  0
  -37.8814   62.2868   63.6684 O   0  0  0  0  0  0  0  0  0  0  0  0
  -36.1777   63.4754   61.7033 O   0  0  0  0  0  0  0  0  0  0  0  0
  -34.0997   64.8042   65.0670 O   0  0  0  0  0  0  0  0  0  0  0  0
  -35.9360   62.3998   65.1134 O   0  0  0  0  0  0  0  0  0  0  0  0
  -36.4085   62.3561   63.7451 C   0  0  0  0  0  0  0  0  0  0  0  0
  -35.7498   63.5437   63.0286 C   0  0  0  0  0  0  0  0  0  0  0  0
  -34.2061   63.4981   63.0428 C   0  0  0  0  0  0  0  0  0  0  0  0
  -33.7977   63.5364   64.4895 C   0  0  0  0  0  0  0  0  0  0  0  0
  -34.4893   62.4184   65.2484 C   0  0  0  0  0  0  0  0  0  0  0  0
  -37.1469   63.5028   61.6747 H   0  0  0  0  0  0  0  0  0  0  0  0
  -33.6485   65.5028   64.5676 H   0  0  0  0  0  0  0  0  0  0  0  0
  -34.9071   63.3307   67.4178 O   0  0  0  0  0  0  0  0  0  0  0  0
  -33.9573   62.6407   66.6625 C   0  0  0  0  0  0  0  0  0  0  0  0
  -34.5669   63.4707   68.3154 H   0  0  0  0  0  0  0  0  0  0  0  0
  -33.5329   64.6075   62.4057 O   0  0  0  0  0  0  0  0  0  0  0  0
  -31.9808   63.0450   61.0391 O   0  0  0  0  0  0  0  0  0  0  0  0
  -31.0071   64.7268   62.4927 O   0  0  0  0  0  0  0  0  0  0  0  0
  -32.0104   65.3719   60.3828 O   0  0  0  0  0  0  0  0  0  0  0  0
  -32.1178   64.4434   61.5437 S   0  0  0  0  0  0  0  0  0  0  0  0
  -32.0485   62.4252   61.7822 H   0  0  0  0  0  0  0  0  0  0  0  0
  -32.7312   65.1940   59.7585 H   0  0  0  0  0  0  0  0  0  0  0  0
  2  1  1  0  0  0
  2  4  1  0  0  0
  2  5  1  0  0  0
 41 42  1  0  0  0
 41  1  1  0  0  0
 42 46  1  0  0  0
  1 24  1  0  0  0
 23 24  1  0  0  0
 23 25  1  0  0  0
 24 26  1  0  0  0
  3  4  2  0  0  0
 26 27  2  0  0  0
 27 28  1  0  0  0
 43 47  1  0  0  0
 43 51  1  0  0  0
 28 29  1  0  0  0
 56 48  1  0  0  0
 56 60  1  0  0  0
 29 30  1  0  0  0
 57 60  1  0  0  0
 57 61  1  0  0  0
 30 31  1  0  0  0
 44 49  1  0  0  0
 44 52  1  0  0  0
 31 32  1  0  0  0
 45 46  1  0  0  0
 45 50  1  0  0  0
 32 33  1  0  0  0
 53 54  1  0  0  0
 53 55  1  0  0  0
 33 34  1  0  0  0
 34 35  1  0  0  0
 35 36  1  0  0  0
 58 60  1  0  0  0
 36 37  1  0  0  0
 59 60  1  0  0  0
 59 62  1  0  0  0
 37 38  1  0  0  0
 38 39  1  0  0  0
 39 40  1  0  0  0
  4  6  1  0  0  0
  6  7  1  0  0  0
  7  8  1  0  0  0
  8  9  1  0  0  0
  9 10  1  0  0  0
 10 11  1  0  0  0
 11 12  1  0  0  0
 12 13  1  0  0  0
 13 14  1  0  0  0
 14 15  1  0  0  0
 15 16  1  0  0  0
 16 17  1  0  0  0
 17 18  1  0  0  0
 18 19  1  0  0  0
 19 20  1  0  0  0
 20 21  1  0  0  0
 21 22  1  0  0  0
 46 47  1  0  0  0
 47 48  1  0  0  0
 48 49  1  0  0  0
 49 50  1  0  0  0
 50 54  1  0  0  0
M  CHG 1  58  -1
M  END
> <minimizedAffinity>
-9.41387

> <CNNscore>
0.2045590878

> <CNNaffinity>
7.1789116859

> <CNN_VS>
1.4685115814

> <CNNaffinity_variance>
1.1994330883

$$$$
/media/chris/experiments/cd1a-new-docking/inputs/ligands/1onq_ligand.pdb


 62 62  0  0  0  0  0  0  0  0999 V2000
  -41.5870   60.0240   65.8675 C   0  0  0  0  0  0  0  0  0  0  0  0
  -41.7330   59.0319   64.8208 N   0  0  0  0  0  0  0  0  0  0  0  0
  -42.6223   57.2770   65.9508 O   0  0  0  0  0  0  0  0  0  0  0  0
  -42.2163   57.7864   64.9244 C   0  0  0  0  0  0  0  0  0  0  0  0
  -41.4408   59.3075   63.9219 H   0  0  0  0  0  0  0  0  0  0  0  0
  -42.2445   57.0049   63.6444 C   0  0  0  0  0  0  0  0  0  0  0  0
  -40.8341   57.0802   63.0596 C   0  0  0  0  0  0  0  0  0  0  0  0
  -39.8023   57.0836   64.1850 C   0  0  0  0  0  0  0  0  0  0  0  0
  -38.6112   57.9902   63.9904 C   0  0  0  0  0  0  0  0  0  0  0  0
  -37.7312   57.8673   65.2299 C   0  0  0  0  0  0  0  0  0  0  0  0
  -36.2614   57.5883   64.8883 C   0  0  0  0  0  0  0  0  0  0  0  0
  -35.4621   58.8358   64.4691 C   0  0  0  0  0  0  0  0  0  0  0  0
  -34.8847   58.7269   63.0407 C   0  0  0  0  0  0  0  0  0  0  0  0
  -35.8707   58.0115   62.1129 C   0  0  0  0  0  0  0  0  0  0  0  0
  -37.0583   58.8529   61.6616 C   0  0  0  0  0  0  0  0  0  0  0  0
  -37.6606   58.3492   60.3584 C   0  0  0  0  0  0  0  0  0  0  0  0
  -38.4846   59.3645   59.5631 C   0  0  0  0  0  0  0  0  0  0  0  0
  -39.7969   58.7036   59.1634 C   0  0  0  0  0  0  0  0  0  0  0  0
  -41.0117   58.8929   60.0598 C   0  0  0  0  0  0  0  0  0  0  0  0
  -40.8221   60.0971   60.9957 C   0  0  0  0  0  0  0  0  0  0  0  0
  -41.7588   61.2845   60.7064 C   0  0  0  0  0  0  0  0  0  0  0  0
  -42.5567   61.7359   61.9276 C   0  0  0  0  0  0  0  0  0  0  0  0
  -42.3156   62.2099   66.1625 O   0  0  0  0  0  0  0  0  0  0  0  0
  -42.7197   60.9907   65.5676 C   0  0  0  0  0  0  0  0  0  0  0  0
  -41.4920   62.5137   65.7498 H   0  0  0  0  0  0  0  0  0  0  0  0
  -44.0180   60.4548   66.1757 C   0  0  0  0  0  0  0  0  0  0  0  0
  -45.1112   60.1817   65.4431 C   0  0  0  0  0  0  0  0  0  0  0  0
  -46.3701   59.6498   66.1253 C   0  0  0  0  0  0  0  0  0  0  0  0
  -47.5659   59.4788   65.1771 C   0  0  0  0  0  0  0  0  0  0  0  0
  -48.3778   58.1826   65.3553 C   0  0  0  0  0  0  0  0  0  0  0  0
  -49.8318   58.3727   64.8603 C   0  0  0  0  0  0  0  0  0  0  0  0
  -50.3765   59.8210   64.9475 C   0  0  0  0  0  0  0  0  0  0  0  0
  -51.1774   60.2725   63.7036 C   0  0  0  0  0  0  0  0  0  0  0  0
  -50.8134   59.4960   62.4196 C   0  0  0  0  0  0  0  0  0  0  0  0
  -49.7188   60.1671   61.5813 C   0  0  0  0  0  0  0  0  0  0  0  0
  -49.3292   59.4520   60.2894 C   0  0  0  0  0  0  0  0  0  0  0  0
  -48.9687   57.9656   60.4810 C   0  0  0  0  0  0  0  0  0  0  0  0
  -47.9867   57.3915   59.4485 C   0  0  0  0  0  0  0  0  0  0  0  0
  -47.9384   58.2643   58.1911 C   0  0  0  0  0  0  0  0  0  0  0  0
  -46.7941   57.9992   57.2287 C   0  0  0  0  0  0  0  0  0  0  0  0
  -40.1724   60.6278   66.0198 C   0  0  0  0  0  0  0  0  0  0  0  0
  -39.5462   61.1252   64.8099 O   0  0  0  0  0  0  0  0  0  0  0  0
  -38.0307   61.6331   62.4388 O   0  0  0  0  0  0  0  0  0  0  0  0
  -36.2454   64.5457   64.8322 O   0  0  0  0  0  0  0  0  0  0  0  0
  -37.6662   62.1284   65.9695 O   0  0  0  0  0  0  0  0  0  0  0  0
  -38.1056   61.4461   64.7700 C   0  0  0  0  0  0  0  0  0  0  0  0
  -37.6388   62.3126   63.5915 C   0  0  0  0  0  0  0  0  0  0  0  0
  -36.1086   62.5153   63.5384 C   0  0  0  0  0  0  0  0  0  0  0  0
  -35.7328   63.2157   64.8150 C   0  0  0  0  0  0  0  0  0  0  0  0
  -36.2439   62.4240   66.0050 C   0  0  0  0  0  0  0  0  0  0  0  0
  -38.9909   61.4965   62.4547 H   0  0  0  0  0  0  0  0  0  0  0  0
  -35.9069   65.0328   64.0646 H   0  0  0  0  0  0  0  0  0  0  0  0
  -36.2593   62.7720   68.3697 O   0  0  0  0  0  0  0  0  0  0  0  0
  -35.7757   63.2946   67.1690 C   0  0  0  0  0  0  0  0  0  0  0  0
  -35.9606   63.3267   69.1074 H   0  0  0  0  0  0  0  0  0  0  0  0
  -35.6158   63.3472   62.4636 O   0  0  0  0  0  0  0  0  0  0  0  0
  -33.8811   65.2489   62.7665 O   0  0  0  0  0  0  0  0  0  0  0  0
  -33.6646   63.7176   60.8963 O   0  0  0  0  0  0  0  0  0  0  0  0
  -33.0821   62.9969   63.1358 O   0  0  0  0  0  0  0  0  0  0  0  0
  -34.0266   63.8269   62.3355 S   0  0  0  0  0  0  0  0  0  0  0  0
  -34.4895   65.8054   62.2555 H   0  0  0  0  0  0  0  0  0  0  0  0
  -33.3110   63.0624   64.0762 H   0  0  0  0  0  0  0  0  0  0  0  0
  2  1  1  0  0  0
  2  4  1  0  0  0
  2  5  1  0  0  0
 41 42  1  0  0  0
 41  1  1  0  0  0
 42 46  1  0  0  0
  1 24  1  0  0  0
 23 24  1  0  0  0
 23 25  1  0  0  0
 24 26  1  0  0  0
  3  4  2  0  0  0
 26 27  2  0  0  0
 27 28  1  0  0  0
 43 47  1  0  0  0
 43 51  1  0  0  0
 28 29  1  0  0  0
 56 48  1  0  0  0
 56 60  1  0  0  0
 29 30  1  0  0  0
 57 60  1  0  0  0
 57 61  1  0  0  0
 30 31  1  0  0  0
 44 49  1  0  0  0
 44 52  1  0  0  0
 31 32  1  0  0  0
 45 46  1  0  0  0
 45 50  1  0  0  0
 32 33  1  0  0  0
 53 54  1  0  0  0
 53 55  1  0  0  0
 33 34  1  0  0  0
 34 35  1  0  0  0
 35 36  1  0  0  0
 58 60  1  0  0  0
 36 37  1  0  0  0
 59 60  1  0  0  0
 59 62  1  0  0  0
 37 38  1  0  0  0
 38 39  1  0  0  0
 39 40  1  0  0  0
  4  6  1  0  0  0
  6  7  1  0  0  0
  7  8  1  0  0  0
  8  9  1  0  0  0
  9 10  1  0  0  0
 10 11  1  0  0  0
 11 12  1  0  0  0
 12 13  1  0  0  0
 13 14  1  0  0  0
 14 15  1  0  0  0
 15 16  1  0  0  0
 16 17  1  0  0  0
 17 18  1  0  0  0
 18 19  1  0  0  0
 19 20  1  0  0  0
 20 21  1  0  0  0
 21 22  1  0  0  0
 46 47  1  0  0  0
 47 48  1  0  0  0
 48 49  1  0  0  0
 49 50  1  0  0  0
 50 54  1  0  0  0
M  CHG 1  58  -1
M  END
> <minimizedAffinity>
-9.18114

> <CNNscore>
0.1801282465

> <CNNaffinity>
7.1413450241

> <CNN_VS>
1.2863579988

> <CNNaffinity_variance>
1.8572957516

$$$$
/media/chris/experiments/cd1a-new-docking/inputs/ligands/1onq_ligand.pdb


 62 62  0  0  0  0  0  0  0  0999 V2000
  -41.7239   57.5428   63.6374 C   0  0  0  0  0  0  0  0  0  0  0  0
  -43.0865   57.5983   64.1288 N   0  0  0  0  0  0  0  0  0  0  0  0
  -42.7977   57.3187   66.3617 O   0  0  0  0  0  0  0  0  0  0  0  0
  -43.5138   57.4883   65.3942 C   0  0  0  0  0  0  0  0  0  0  0  0
  -43.7850   57.7337   63.4483 H   0  0  0  0  0  0  0  0  0  0  0  0
  -44.9984   57.5981   65.5777 C   0  0  0  0  0  0  0  0  0  0  0  0
  -45.2309   57.8986   67.0584 C   0  0  0  0  0  0  0  0  0  0  0  0
  -46.4929   58.7413   67.2277 C   0  0  0  0  0  0  0  0  0  0  0  0
  -47.2012   59.1381   65.9551 C   0  0  0  0  0  0  0  0  0  0  0  0
  -48.2680   60.1643   66.3225 C   0  0  0  0  0  0  0  0  0  0  0  0
  -49.6850   59.7039   65.9550 C   0  0  0  0  0  0  0  0  0  0  0  0
  -49.7302   58.4732   65.0309 C   0  0  0  0  0  0  0  0  0  0  0  0
  -50.3848   58.7722   63.6643 C   0  0  0  0  0  0  0  0  0  0  0  0
  -49.4136   59.5302   62.7547 C   0  0  0  0  0  0  0  0  0  0  0  0
  -50.0282   60.0868   61.4763 C   0  0  0  0  0  0  0  0  0  0  0  0
  -49.3868   59.5037   60.2260 C   0  0  0  0  0  0  0  0  0  0  0  0
  -50.0973   58.2977   59.6071 C   0  0  0  0  0  0  0  0  0  0  0  0
  -49.6074   57.0418   60.3153 C   0  0  0  0  0  0  0  0  0  0  0  0
  -48.5930   56.1548   59.6088 C   0  0  0  0  0  0  0  0  0  0  0  0
  -47.3770   56.9719   59.1445 C   0  0  0  0  0  0  0  0  0  0  0  0
  -47.2089   57.0544   57.6162 C   0  0  0  0  0  0  0  0  0  0  0  0
  -46.9302   58.4696   57.1147 C   0  0  0  0  0  0  0  0  0  0  0  0
  -41.2802   55.2859   63.3127 O   0  0  0  0  0  0  0  0  0  0  0  0
  -41.7839   56.4143   62.6223 C   0  0  0  0  0  0  0  0  0  0  0  0
  -41.8513   55.0900   64.0720 H   0  0  0  0  0  0  0  0  0  0  0  0
  -40.9256   56.7782   61.4085 C   0  0  0  0  0  0  0  0  0  0  0  0
  -41.4292   57.3480   60.3004 C   0  0  0  0  0  0  0  0  0  0  0  0
  -40.5061   57.6803   59.1297 C   0  0  0  0  0  0  0  0  0  0  0  0
  -39.1308   58.2152   59.5549 C   0  0  0  0  0  0  0  0  0  0  0  0
  -38.9718   59.7464   59.5212 C   0  0  0  0  0  0  0  0  0  0  0  0
  -38.4964   60.2796   60.8942 C   0  0  0  0  0  0  0  0  0  0  0  0
  -39.5774   61.0103   61.7306 C   0  0  0  0  0  0  0  0  0  0  0  0
  -41.0243   60.5484   61.4378 C   0  0  0  0  0  0  0  0  0  0  0  0
  -41.9568   61.6911   60.9810 C   0  0  0  0  0  0  0  0  0  0  0  0
  -43.0041   62.0895   62.0278 C   0  0  0  0  0  0  0  0  0  0  0  0
  -43.3883   61.0103   63.0377 C   0  0  0  0  0  0  0  0  0  0  0  0
  -44.4529   61.4585   64.0583 C   0  0  0  0  0  0  0  0  0  0  0  0
  -44.1407   61.1170   65.5232 C   0  0  0  0  0  0  0  0  0  0  0  0
  -42.6972   61.4856   65.8780 C   0  0  0  0  0  0  0  0  0  0  0  0
  -42.0700   60.7235   67.0319 C   0  0  0  0  0  0  0  0  0  0  0  0
  -40.6279   57.4510   64.7233 C   0  0  0  0  0  0  0  0  0  0  0  0
  -40.0296   58.7020   65.1478 O   0  0  0  0  0  0  0  0  0  0  0  0
  -38.8670   61.2593   65.6828 O   0  0  0  0  0  0  0  0  0  0  0  0
  -35.3079   59.2122   64.9476 O   0  0  0  0  0  0  0  0  0  0  0  0
  -37.9894   58.2722   63.9077 O   0  0  0  0  0  0  0  0  0  0  0  0
  -38.8843   59.2875   64.4230 C   0  0  0  0  0  0  0  0  0  0  0  0
  -38.0074   60.2635   65.2206 C   0  0  0  0  0  0  0  0  0  0  0  0
  -36.8991   60.9323   64.3782 C   0  0  0  0  0  0  0  0  0  0  0  0
  -36.0240   59.8180   63.8742 C   0  0  0  0  0  0  0  0  0  0  0  0
  -36.8694   58.7920   63.1415 C   0  0  0  0  0  0  0  0  0  0  0  0
  -39.5711   60.8570   66.2152 H   0  0  0  0  0  0  0  0  0  0  0  0
  -34.7753   59.8843   65.4011 H   0  0  0  0  0  0  0  0  0  0  0  0
  -34.6951   58.4278   62.2181 O   0  0  0  0  0  0  0  0  0  0  0  0
  -35.8127   57.7683   62.7325 C   0  0  0  0  0  0  0  0  0  0  0  0
  -34.0255   57.7755   61.9590 H   0  0  0  0  0  0  0  0  0  0  0  0
  -36.0252   61.8407   65.0860 O   0  0  0  0  0  0  0  0  0  0  0  0
  -34.8292   64.1385   65.1706 O   0  0  0  0  0  0  0  0  0  0  0  0
  -37.0488   63.9083   66.1245 O   0  0  0  0  0  0  0  0  0  0  0  0
  -36.7571   63.9836   63.7196 O   0  0  0  0  0  0  0  0  0  0  0  0
  -36.1665   63.4974   64.9988 S   0  0  0  0  0  0  0  0  0  0  0  0
  -34.4286   63.8333   65.9997 H   0  0  0  0  0  0  0  0  0  0  0  0
  -36.1878   63.7199   62.9797 H   0  0  0  0  0  0  0  0  0  0  0  0
  2  1  1  0  0  0
  2  4  1  0  0  0
  2  5  1  0  0  0
 41 42  1  0  0  0
 41  1  1  0  0  0
 42 46  1  0  0  0
  1 24  1  0  0  0
 23 24  1  0  0  0
 23 25  1  0  0  0
 24 26  1  0  0  0
  3  4  2  0  0  0
 26 27  2  0  0  0
 27 28  1  0  0  0
 43 47  1  0  0  0
 43 51  1  0  0  0
 28 29  1  0  0  0
 56 48  1  0  0  0
 56 60  1  0  0  0
 29 30  1  0  0  0
 57 60  1  0  0  0
 57 61  1  0  0  0
 30 31  1  0  0  0
 44 49  1  0  0  0
 44 52  1  0  0  0
 31 32  1  0  0  0
 45 46  1  0  0  0
 45 50  1  0  0  0
 32 33  1  0  0  0
 53 54  1  0  0  0
 53 55  1  0  0  0
 33 34  1  0  0  0
 34 35  1  0  0  0
 35 36  1  0  0  0
 58 60  1  0  0  0
 36 37  1  0  0  0
 59 60  1  0  0  0
 59 62  1  0  0  0
 37 38  1  0  0  0
 38 39  1  0  0  0
 39 40  1  0  0  0
  4  6  1  0  0  0
  6  7  1  0  0  0
  7  8  1  0  0  0
  8  9  1  0  0  0
  9 10  1  0  0  0
 10 11  1  0  0  0
 11 12  1  0  0  0
 12 13  1  0  0  0
 13 14  1  0  0  0
 14 15  1  0  0  0
 15 16  1  0  0  0
 16 17  1  0  0  0
 17 18  1  0  0  0
 18 19  1  0  0  0
 19 20  1  0  0  0
 20 21  1  0  0  0
 21 22  1  0  0  0
 46 47  1  0  0  0
 47 48  1  0  0  0
 48 49  1  0  0  0
 49 50  1  0  0  0
 50 54  1  0  0  0
M  CHG 1  58  -1
M  END
> <minimizedAffinity>
-9.23991

> <CNNscore>
0.1616984159

> <CNNaffinity>
7.1629142761

> <CNN_VS>
1.1582318544

> <CNNaffinity_variance>
3.2649827003

$$$$
/media/chris/experiments/cd1a-new-docking/inputs/ligands/1onq_ligand.pdb


 62 62  0  0  0  0  0  0  0  0999 V2000
  -39.0590   59.9228   64.5213 C   0  0  0  0  0  0  0  0  0  0  0  0
  -40.4981   59.8870   64.3514 N   0  0  0  0  0  0  0  0  0  0  0  0
  -40.8481   61.5999   62.9054 O   0  0  0  0  0  0  0  0  0  0  0  0
  -41.2609   60.6866   63.5934 C   0  0  0  0  0  0  0  0  0  0  0  0
  -40.9744   59.1882   64.8555 H   0  0  0  0  0  0  0  0  0  0  0  0
  -42.7296   60.3843   63.6253 C   0  0  0  0  0  0  0  0  0  0  0  0
  -43.3494   61.3521   64.6334 C   0  0  0  0  0  0  0  0  0  0  0  0
  -44.6848   60.8032   65.1303 C   0  0  0  0  0  0  0  0  0  0  0  0
  -45.9017   61.1895   64.3251 C   0  0  0  0  0  0  0  0  0  0  0  0
  -46.8696   60.0113   64.3589 C   0  0  0  0  0  0  0  0  0  0  0  0
  -48.0559   60.2455   65.3037 C   0  0  0  0  0  0  0  0  0  0  0  0
  -48.9624   59.0160   65.4971 C   0  0  0  0  0  0  0  0  0  0  0  0
  -50.4610   59.3396   65.3098 C   0  0  0  0  0  0  0  0  0  0  0  0
  -50.6473   60.4581   64.2807 C   0  0  0  0  0  0  0  0  0  0  0  0
  -50.9247   59.9866   62.8584 C   0  0  0  0  0  0  0  0  0  0  0  0
  -49.6456   59.7361   62.0736 C   0  0  0  0  0  0  0  0  0  0  0  0
  -49.7255   59.9790   60.5647 C   0  0  0  0  0  0  0  0  0  0  0  0
  -49.9026   58.6331   59.8748 C   0  0  0  0  0  0  0  0  0  0  0  0
  -49.0360   57.4650   60.3214 C   0  0  0  0  0  0  0  0  0  0  0  0
  -47.8050   57.3149   59.4137 C   0  0  0  0  0  0  0  0  0  0  0  0
  -47.7828   58.2685   58.2049 C   0  0  0  0  0  0  0  0  0  0  0  0
  -46.7282   57.8997   57.1640 C   0  0  0  0  0  0  0  0  0  0  0  0
  -37.5715   58.3657   65.3923 O   0  0  0  0  0  0  0  0  0  0  0  0
  -38.6898   58.4493   64.5286 C   0  0  0  0  0  0  0  0  0  0  0  0
  -37.8276   58.6558   66.2819 H   0  0  0  0  0  0  0  0  0  0  0  0
  -38.3524   58.0042   63.1036 C   0  0  0  0  0  0  0  0  0  0  0  0
  -37.9943   58.8631   62.1340 C   0  0  0  0  0  0  0  0  0  0  0  0
  -37.6736   58.3399   60.7352 C   0  0  0  0  0  0  0  0  0  0  0  0
  -38.4693   59.0283   59.6165 C   0  0  0  0  0  0  0  0  0  0  0  0
  -39.5568   60.0141   60.0817 C   0  0  0  0  0  0  0  0  0  0  0  0
  -40.9524   59.3455   60.0545 C   0  0  0  0  0  0  0  0  0  0  0  0
  -40.9948   57.9278   59.4299 C   0  0  0  0  0  0  0  0  0  0  0  0
  -41.1804   56.7877   60.4587 C   0  0  0  0  0  0  0  0  0  0  0  0
  -41.5455   57.2862   61.8737 C   0  0  0  0  0  0  0  0  0  0  0  0
  -41.7423   56.1587   62.8942 C   0  0  0  0  0  0  0  0  0  0  0  0
  -41.7529   56.5768   64.3630 C   0  0  0  0  0  0  0  0  0  0  0  0
  -43.1535   56.9242   64.9049 C   0  0  0  0  0  0  0  0  0  0  0  0
  -43.1699   57.6637   66.2513 C   0  0  0  0  0  0  0  0  0  0  0  0
  -44.5791   57.6839   66.8503 C   0  0  0  0  0  0  0  0  0  0  0  0
  -45.7093   57.2537   65.9321 C   0  0  0  0  0  0  0  0  0  0  0  0
  -38.5494   60.7787   65.7031 C   0  0  0  0  0  0  0  0  0  0  0  0
  -37.8200   61.9851   65.3625 O   0  0  0  0  0  0  0  0  0  0  0  0
  -35.9377   60.4781   63.8254 O   0  0  0  0  0  0  0  0  0  0  0  0
  -33.7974   64.0574   63.9067 O   0  0  0  0  0  0  0  0  0  0  0  0
  -35.9111   63.3596   65.9562 O   0  0  0  0  0  0  0  0  0  0  0  0
  -36.3519   62.0570   65.5019 C   0  0  0  0  0  0  0  0  0  0  0  0
  -35.5373   61.7485   64.2374 C   0  0  0  0  0  0  0  0  0  0  0  0
  -34.0112   61.7232   64.4734 C   0  0  0  0  0  0  0  0  0  0  0  0
  -33.6366   63.0995   64.9500 C   0  0  0  0  0  0  0  0  0  0  0  0
  -34.4765   63.4708   66.1587 C   0  0  0  0  0  0  0  0  0  0  0  0
  -36.8955   60.4749   63.6720 H   0  0  0  0  0  0  0  0  0  0  0  0
  -33.2530   63.8011   63.1457 H   0  0  0  0  0  0  0  0  0  0  0  0
  -33.2376   64.8541   67.6636 O   0  0  0  0  0  0  0  0  0  0  0  0
  -33.9564   64.8731   66.4671 C   0  0  0  0  0  0  0  0  0  0  0  0
  -32.9083   65.7458   67.8573 H   0  0  0  0  0  0  0  0  0  0  0  0
  -33.1935   61.4647   63.3096 O   0  0  0  0  0  0  0  0  0  0  0  0
  -32.0940   59.1826   63.8579 O   0  0  0  0  0  0  0  0  0  0  0  0
  -31.9025   60.0963   61.6178 O   0  0  0  0  0  0  0  0  0  0  0  0
  -33.9951   59.1282   62.3649 O   0  0  0  0  0  0  0  0  0  0  0  0
  -32.8118   59.9316   62.7842 S   0  0  0  0  0  0  0  0  0  0  0  0
  -31.3192   59.6912   64.1442 H   0  0  0  0  0  0  0  0  0  0  0  0
  -34.5937   59.0158   63.1199 H   0  0  0  0  0  0  0  0  0  0  0  0
  2  1  1  0  0  0
  2  4  1  0  0  0
  2  5  1  0  0  0
 41 42  1  0  0  0
 41  1  1  0  0  0
 42 46  1  0  0  0
  1 24  1  0  0  0
 23 24  1  0  0  0
 23 25  1  0  0  0
 24 26  1  0  0  0
  3  4  2  0  0  0
 26 27  2  0  0  0
 27 28  1  0  0  0
 43 47  1  0  0  0
 43 51  1  0  0  0
 28 29  1  0  0  0
 56 48  1  0  0  0
 56 60  1  0  0  0
 29 30  1  0  0  0
 57 60  1  0  0  0
 57 61  1  0  0  0
 30 31  1  0  0  0
 44 49  1  0  0  0
 44 52  1  0  0  0
 31 32  1  0  0  0
 45 46  1  0  0  0
 45 50  1  0  0  0
 32 33  1  0  0  0
 53 54  1  0  0  0
 53 55  1  0  0  0
 33 34  1  0  0  0
 34 35  1  0  0  0
 35 36  1  0  0  0
 58 60  1  0  0  0
 36 37  1  0  0  0
 59 60  1  0  0  0
 59 62  1  0  0  0
 37 38  1  0  0  0
 38 39  1  0  0  0
 39 40  1  0  0  0
  4  6  1  0  0  0
  6  7  1  0  0  0
  7  8  1  0  0  0
  8  9  1  0  0  0
  9 10  1  0  0  0
 10 11  1  0  0  0
 11 12  1  0  0  0
 12 13  1  0  0  0
 13 14  1  0  0  0
 14 15  1  0  0  0
 15 16  1  0  0  0
 16 17  1  0  0  0
 17 18  1  0  0  0
 18 19  1  0  0  0
 19 20  1  0  0  0
 20 21  1  0  0  0
 21 22  1  0  0  0
 46 47  1  0  0  0
 47 48  1  0  0  0
 48 49  1  0  0  0
 49 50  1  0  0  0
 50 54  1  0  0  0
M  CHG 1  58  -1
M  END
> <minimizedAffinity>
-9.22976

> <CNNscore>
0.1572964191

> <CNNaffinity>
7.1070442200

> <CNN_VS>
1.1179126501

> <CNNaffinity_variance>
1.6053497791

$$$$
/media/chris/experiments/cd1a-new-docking/inputs/ligands/1onq_ligand.pdb


 62 62  0  0  0  0  0  0  0  0999 V2000
  -40.3216   59.9220   63.9304 C   0  0  0  0  0  0  0  0  0  0  0  0
  -41.7300   60.2058   64.1232 N   0  0  0  0  0  0  0  0  0  0  0  0
  -42.2279   61.4180   62.2712 O   0  0  0  0  0  0  0  0  0  0  0  0
  -42.5503   60.8998   63.3225 C   0  0  0  0  0  0  0  0  0  0  0  0
  -42.1341   59.8435   64.9446 H   0  0  0  0  0  0  0  0  0  0  0  0
  -43.9672   61.0094   63.8021 C   0  0  0  0  0  0  0  0  0  0  0  0
  -44.3244   59.6539   64.4121 C   0  0  0  0  0  0  0  0  0  0  0  0
  -45.5990   59.7757   65.2437 C   0  0  0  0  0  0  0  0  0  0  0  0
  -46.8289   60.2487   64.5075 C   0  0  0  0  0  0  0  0  0  0  0  0
  -47.9980   60.2020   65.4857 C   0  0  0  0  0  0  0  0  0  0  0  0
  -48.6479   58.8142   65.5670 C   0  0  0  0  0  0  0  0  0  0  0  0
  -50.1864   58.8322   65.5081 C   0  0  0  0  0  0  0  0  0  0  0  0
  -50.7515   60.1703   64.9829 C   0  0  0  0  0  0  0  0  0  0  0  0
  -51.1766   60.0389   63.5177 C   0  0  0  0  0  0  0  0  0  0  0  0
  -50.9030   58.6794   62.8861 C   0  0  0  0  0  0  0  0  0  0  0  0
  -49.6508   58.6858   62.0219 C   0  0  0  0  0  0  0  0  0  0  0  0
  -49.5379   59.8306   61.0124 C   0  0  0  0  0  0  0  0  0  0  0  0
  -49.3144   59.2275   59.6321 C   0  0  0  0  0  0  0  0  0  0  0  0
  -49.6840   57.7692   59.4048 C   0  0  0  0  0  0  0  0  0  0  0  0
  -48.4263   56.9059   59.2178 C   0  0  0  0  0  0  0  0  0  0  0  0
  -47.4877   57.3801   58.0930 C   0  0  0  0  0  0  0  0  0  0  0  0
  -47.0765   56.2619   57.1378 C   0  0  0  0  0  0  0  0  0  0  0  0
  -38.9090   58.6093   65.2254 O   0  0  0  0  0  0  0  0  0  0  0  0
  -40.1672   58.5571   64.5789 C   0  0  0  0  0  0  0  0  0  0  0  0
  -38.9208   59.3061   65.9001 H   0  0  0  0  0  0  0  0  0  0  0  0
  -40.2160   57.4741   63.4986 C   0  0  0  0  0  0  0  0  0  0  0  0
  -41.3606   56.9038   63.0851 C   0  0  0  0  0  0  0  0  0  0  0  0
  -41.3257   55.8278   62.0015 C   0  0  0  0  0  0  0  0  0  0  0  0
  -41.0801   56.3765   60.5883 C   0  0  0  0  0  0  0  0  0  0  0  0
  -41.6212   57.7929   60.3199 C   0  0  0  0  0  0  0  0  0  0  0  0
  -40.7068   58.5514   59.3279 C   0  0  0  0  0  0  0  0  0  0  0  0
  -40.1965   59.9296   59.8198 C   0  0  0  0  0  0  0  0  0  0  0  0
  -38.8200   59.8810   60.5237 C   0  0  0  0  0  0  0  0  0  0  0  0
  -38.0057   58.6096   60.2004 C   0  0  0  0  0  0  0  0  0  0  0  0
  -37.5159   57.8571   61.4434 C   0  0  0  0  0  0  0  0  0  0  0  0
  -36.5880   58.6329   62.3758 C   0  0  0  0  0  0  0  0  0  0  0  0
  -35.4193   57.7969   62.9336 C   0  0  0  0  0  0  0  0  0  0  0  0
  -35.1970   57.9115   64.4493 C   0  0  0  0  0  0  0  0  0  0  0  0
  -33.8356   58.5404   64.7594 C   0  0  0  0  0  0  0  0  0  0  0  0
  -32.8009   58.4920   63.6492 C   0  0  0  0  0  0  0  0  0  0  0  0
  -39.3497   61.0314   64.3925 C   0  0  0  0  0  0  0  0  0  0  0  0
  -38.0941   61.1337   63.6739 O   0  0  0  0  0  0  0  0  0  0  0  0
  -36.0559   61.4943   65.6469 O   0  0  0  0  0  0  0  0  0  0  0  0
  -34.0000   63.2176   62.4529 O   0  0  0  0  0  0  0  0  0  0  0  0
  -37.0156   62.9818   62.5308 O   0  0  0  0  0  0  0  0  0  0  0  0
  -37.2330   62.3261   63.8037 C   0  0  0  0  0  0  0  0  0  0  0  0
  -35.8400   62.0912   64.4055 C   0  0  0  0  0  0  0  0  0  0  0  0
  -35.0323   63.3891   64.6254 C   0  0  0  0  0  0  0  0  0  0  0  0
  -34.8591   64.0116   63.2674 C   0  0  0  0  0  0  0  0  0  0  0  0
  -36.2145   64.1917   62.6081 C   0  0  0  0  0  0  0  0  0  0  0  0
  -36.5628   60.6758   65.5284 H   0  0  0  0  0  0  0  0  0  0  0  0
  -33.1412   63.1154   62.8922 H   0  0  0  0  0  0  0  0  0  0  0  0
  -35.5792   63.8016   60.3371 O   0  0  0  0  0  0  0  0  0  0  0  0
  -35.8181   64.8120   61.2702 C   0  0  0  0  0  0  0  0  0  0  0  0
  -35.3276   64.1980   59.4883 H   0  0  0  0  0  0  0  0  0  0  0  0
  -33.7012   63.2243   65.1646 O   0  0  0  0  0  0  0  0  0  0  0  0
  -33.2360   63.1240   67.7124 O   0  0  0  0  0  0  0  0  0  0  0  0
  -34.0764   65.1772   66.7288 O   0  0  0  0  0  0  0  0  0  0  0  0
  -31.7637   64.5281   66.4058 O   0  0  0  0  0  0  0  0  0  0  0  0
  -33.1609   64.0224   66.5223 S   0  0  0  0  0  0  0  0  0  0  0  0
  -34.1399   62.7844   67.8044 H   0  0  0  0  0  0  0  0  0  0  0  0
  -31.1596   63.7812   66.2710 H   0  0  0  0  0  0  0  0  0  0  0  0
  2  1  1  0  0  0
  2  4  1  0  0  0
  2  5  1  0  0  0
 41 42  1  0  0  0
 41  1  1  0  0  0
 42 46  1  0  0  0
  1 24  1  0  0  0
 23 24  1  0  0  0
 23 25  1  0  0  0
 24 26  1  0  0  0
  3  4  2  0  0  0
 26 27  2  0  0  0
 27 28  1  0  0  0
 43 47  1  0  0  0
 43 51  1  0  0  0
 28 29  1  0  0  0
 56 48  1  0  0  0
 56 60  1  0  0  0
 29 30  1  0  0  0
 57 60  1  0  0  0
 57 61  1  0  0  0
 30 31  1  0  0  0
 44 49  1  0  0  0
 44 52  1  0  0  0
 31 32  1  0  0  0
 45 46  1  0  0  0
 45 50  1  0  0  0
 32 33  1  0  0  0
 53 54  1  0  0  0
 53 55  1  0  0  0
 33 34  1  0  0  0
 34 35  1  0  0  0
 35 36  1  0  0  0
 58 60  1  0  0  0
 36 37  1  0  0  0
 59 60  1  0  0  0
 59 62  1  0  0  0
 37 38  1  0  0  0
 38 39  1  0  0  0
 39 40  1  0  0  0
  4  6  1  0  0  0
  6  7  1  0  0  0
  7  8  1  0  0  0
  8  9  1  0  0  0
  9 10  1  0  0  0
 10 11  1  0  0  0
 11 12  1  0  0  0
 12 13  1  0  0  0
 13 14  1  0  0  0
 14 15  1  0  0  0
 15 16  1  0  0  0
 16 17  1  0  0  0
 17 18  1  0  0  0
 18 19  1  0  0  0
 19 20  1  0  0  0
 20 21  1  0  0  0
 21 22  1  0  0  0
 46 47  1  0  0  0
 47 48  1  0  0  0
 48 49  1  0  0  0
 49 50  1  0  0  0
 50 54  1  0  0  0
M  CHG 1  58  -1
M  END
> <minimizedAffinity>
-9.64504

> <CNNscore>
0.1376943290

> <CNNaffinity>
6.9740839005

> <CNN_VS>
0.9602918029

> <CNNaffinity_variance>
1.1204113960

$$$$
/media/chris/experiments/cd1a-new-docking/inputs/ligands/1onq_ligand.pdb


 62 62  0  0  0  0  0  0  0  0999 V2000
  -41.0492   59.8811   64.0997 C   0  0  0  0  0  0  0  0  0  0  0  0
  -42.3924   60.3523   64.3732 N   0  0  0  0  0  0  0  0  0  0  0  0
  -42.8908   61.4931   62.4765 O   0  0  0  0  0  0  0  0  0  0  0  0
  -43.1860   61.0900   63.5847 C   0  0  0  0  0  0  0  0  0  0  0  0
  -42.7686   60.0988   65.2470 H   0  0  0  0  0  0  0  0  0  0  0  0
  -44.5352   61.4088   64.1571 C   0  0  0  0  0  0  0  0  0  0  0  0
  -44.9980   60.1552   64.8998 C   0  0  0  0  0  0  0  0  0  0  0  0
  -46.4789   60.2746   65.2520 C   0  0  0  0  0  0  0  0  0  0  0  0
  -47.4046   60.6324   64.1147 C   0  0  0  0  0  0  0  0  0  0  0  0
  -48.7594   60.9882   64.7180 C   0  0  0  0  0  0  0  0  0  0  0  0
  -49.3126   59.8824   65.6269 C   0  0  0  0  0  0  0  0  0  0  0  0
  -50.4332   59.0411   64.9887 C   0  0  0  0  0  0  0  0  0  0  0  0
  -51.1614   59.7802   63.8446 C   0  0  0  0  0  0  0  0  0  0  0  0
  -50.9742   59.0389   62.5178 C   0  0  0  0  0  0  0  0  0  0  0  0
  -50.0594   59.7318   61.5152 C   0  0  0  0  0  0  0  0  0  0  0  0
  -49.1610   58.7493   60.7787 C   0  0  0  0  0  0  0  0  0  0  0  0
  -49.8744   57.6839   59.9431 C   0  0  0  0  0  0  0  0  0  0  0  0
  -49.0832   56.3872   60.0495 C   0  0  0  0  0  0  0  0  0  0  0  0
  -47.7435   56.2894   59.3348 C   0  0  0  0  0  0  0  0  0  0  0  0
  -47.9390   56.1544   57.8164 C   0  0  0  0  0  0  0  0  0  0  0  0
  -47.0190   57.0549   56.9715 C   0  0  0  0  0  0  0  0  0  0  0  0
  -47.1121   58.5328   57.3445 C   0  0  0  0  0  0  0  0  0  0  0  0
  -40.1641   57.9856   65.1095 O   0  0  0  0  0  0  0  0  0  0  0  0
  -41.1958   58.3741   64.2216 C   0  0  0  0  0  0  0  0  0  0  0  0
  -40.3016   58.4107   65.9706 H   0  0  0  0  0  0  0  0  0  0  0  0
  -41.0378   57.7360   62.8394 C   0  0  0  0  0  0  0  0  0  0  0  0
  -41.8654   57.9981   61.8134 C   0  0  0  0  0  0  0  0  0  0  0  0
  -41.6413   57.3193   60.4635 C   0  0  0  0  0  0  0  0  0  0  0  0
  -41.0443   58.2452   59.3936 C   0  0  0  0  0  0  0  0  0  0  0  0
  -40.7806   59.6954   59.8391 C   0  0  0  0  0  0  0  0  0  0  0  0
  -39.2610   59.9757   59.9259 C   0  0  0  0  0  0  0  0  0  0  0  0
  -38.3457   58.7676   59.6026 C   0  0  0  0  0  0  0  0  0  0  0  0
  -37.2286   58.5226   60.6441 C   0  0  0  0  0  0  0  0  0  0  0  0
  -37.7105   57.7643   61.8998 C   0  0  0  0  0  0  0  0  0  0  0  0
  -37.3918   58.4836   63.2160 C   0  0  0  0  0  0  0  0  0  0  0  0
  -36.8126   57.6165   64.3318 C   0  0  0  0  0  0  0  0  0  0  0  0
  -35.2830   57.7311   64.4835 C   0  0  0  0  0  0  0  0  0  0  0  0
  -34.6449   58.9434   63.7884 C   0  0  0  0  0  0  0  0  0  0  0  0
  -33.5661   58.5027   62.7949 C   0  0  0  0  0  0  0  0  0  0  0  0
  -32.6080   59.5794   62.3170 C   0  0  0  0  0  0  0  0  0  0  0  0
  -39.9284   60.5456   64.9312 C   0  0  0  0  0  0  0  0  0  0  0  0
  -39.1396   61.5615   64.2610 O   0  0  0  0  0  0  0  0  0  0  0  0
  -37.1529   61.8549   62.2254 O   0  0  0  0  0  0  0  0  0  0  0  0
  -35.4711   64.4975   64.9799 O   0  0  0  0  0  0  0  0  0  0  0  0
  -37.3920   62.2986   65.7737 O   0  0  0  0  0  0  0  0  0  0  0  0
  -37.6871   61.6819   64.4969 C   0  0  0  0  0  0  0  0  0  0  0  0
  -36.8956   62.4754   63.4473 C   0  0  0  0  0  0  0  0  0  0  0  0
  -35.3695   62.4665   63.6839 C   0  0  0  0  0  0  0  0  0  0  0  0
  -35.1482   63.1098   65.0250 C   0  0  0  0  0  0  0  0  0  0  0  0
  -35.9749   62.3966   66.0796 C   0  0  0  0  0  0  0  0  0  0  0  0
  -38.1086   61.8512   62.0596 H   0  0  0  0  0  0  0  0  0  0  0  0
  -34.9324   64.9330   64.3008 H   0  0  0  0  0  0  0  0  0  0  0  0
  -36.3670   62.7285   68.4140 O   0  0  0  0  0  0  0  0  0  0  0  0
  -35.6198   63.1958   67.3315 C   0  0  0  0  0  0  0  0  0  0  0  0
  -36.1397   63.2376   69.2077 H   0  0  0  0  0  0  0  0  0  0  0  0
  -34.5768   63.2221   62.7401 O   0  0  0  0  0  0  0  0  0  0  0  0
  -34.2232   65.4371   61.4417 O   0  0  0  0  0  0  0  0  0  0  0  0
  -36.3935   64.9524   62.4134 O   0  0  0  0  0  0  0  0  0  0  0  0
  -35.6730   63.8035   60.4046 O   0  0  0  0  0  0  0  0  0  0  0  0
  -35.2223   64.3610   61.7113 S   0  0  0  0  0  0  0  0  0  0  0  0
  -33.9177   65.8126   62.2823 H   0  0  0  0  0  0  0  0  0  0  0  0
  -34.9151   63.4156   59.9398 H   0  0  0  0  0  0  0  0  0  0  0  0
  2  1  1  0  0  0
  2  4  1  0  0  0
  2  5  1  0  0  0
 41 42  1  0  0  0
 41  1  1  0  0  0
 42 46  1  0  0  0
  1 24  1  0  0  0
 23 24  1  0  0  0
 23 25  1  0  0  0
 24 26  1  0  0  0
  3  4  2  0  0  0
 26 27  2  0  0  0
 27 28  1  0  0  0
 43 47  1  0  0  0
 43 51  1  0  0  0
 28 29  1  0  0  0
 56 48  1  0  0  0
 56 60  1  0  0  0
 29 30  1  0  0  0
 57 60  1  0  0  0
 57 61  1  0  0  0
 30 31  1  0  0  0
 44 49  1  0  0  0
 44 52  1  0  0  0
 31 32  1  0  0  0
 45 46  1  0  0  0
 45 50  1  0  0  0
 32 33  1  0  0  0
 53 54  1  0  0  0
 53 55  1  0  0  0
 33 34  1  0  0  0
 34 35  1  0  0  0
 35 36  1  0  0  0
 58 60  1  0  0  0
 36 37  1  0  0  0
 59 60  1  0  0  0
 59 62  1  0  0  0
 37 38  1  0  0  0
 38 39  1  0  0  0
 39 40  1  0  0  0
  4  6  1  0  0  0
  6  7  1  0  0  0
  7  8  1  0  0  0
  8  9  1  0  0  0
  9 10  1  0  0  0
 10 11  1  0  0  0
 11 12  1  0  0  0
 12 13  1  0  0  0
 13 14  1  0  0  0
 14 15  1  0  0  0
 15 16  1  0  0  0
 16 17  1  0  0  0
 17 18  1  0  0  0
 18 19  1  0  0  0
 19 20  1  0  0  0
 20 21  1  0  0  0
 21 22  1  0  0  0
 46 47  1  0  0  0
 47 48  1  0  0  0
 48 49  1  0  0  0
 49 50  1  0  0  0
 50 54  1  0  0  0
M  CHG 1  58  -1
M  END
> <minimizedAffinity>
-9.57656

> <CNNscore>
0.1314620227

> <CNNaffinity>
6.8979082108

> <CNN_VS>
0.9068129659

> <CNNaffinity_variance>
1.8648868799

$$$$
/media/chris/experiments/cd1a-new-docking/inputs/ligands/1onq_ligand.pdb


 62 62  0  0  0  0  0  0  0  0999 V2000
  -39.9021   60.8580   61.2585 C   0  0  0  0  0  0  0  0  0  0  0  0
  -40.8830   60.6471   62.3047 N   0  0  0  0  0  0  0  0  0  0  0  0
  -42.4279   62.2409   61.8351 O   0  0  0  0  0  0  0  0  0  0  0  0
  -42.0240   61.3177   62.5150 C   0  0  0  0  0  0  0  0  0  0  0  0
  -40.6865   59.9210   62.9398 H   0  0  0  0  0  0  0  0  0  0  0  0
  -42.8327   60.8480   63.6877 C   0  0  0  0  0  0  0  0  0  0  0  0
  -43.3840   59.4728   63.3110 C   0  0  0  0  0  0  0  0  0  0  0  0
  -44.4470   59.0430   64.3193 C   0  0  0  0  0  0  0  0  0  0  0  0
  -45.4878   60.0790   64.6682 C   0  0  0  0  0  0  0  0  0  0  0  0
  -46.8582   59.4352   64.4851 C   0  0  0  0  0  0  0  0  0  0  0  0
  -47.9154   60.0101   65.4373 C   0  0  0  0  0  0  0  0  0  0  0  0
  -49.0894   59.0573   65.7279 C   0  0  0  0  0  0  0  0  0  0  0  0
  -50.4680   59.7215   65.5178 C   0  0  0  0  0  0  0  0  0  0  0  0
  -50.5799   60.2972   64.1033 C   0  0  0  0  0  0  0  0  0  0  0  0
  -51.1773   59.3523   63.0677 C   0  0  0  0  0  0  0  0  0  0  0  0
  -50.1603   58.9284   62.0185 C   0  0  0  0  0  0  0  0  0  0  0  0
  -50.5329   57.7046   61.1785 C   0  0  0  0  0  0  0  0  0  0  0  0
  -50.3075   58.0475   59.7120 C   0  0  0  0  0  0  0  0  0  0  0  0
  -48.9517   58.5947   59.2910 C   0  0  0  0  0  0  0  0  0  0  0  0
  -47.8546   57.5309   59.4540 C   0  0  0  0  0  0  0  0  0  0  0  0
  -47.2161   57.0644   58.1328 C   0  0  0  0  0  0  0  0  0  0  0  0
  -46.9293   58.2088   57.1633 C   0  0  0  0  0  0  0  0  0  0  0  0
  -41.4260   60.9040   59.5059 O   0  0  0  0  0  0  0  0  0  0  0  0
  -40.4698   60.0492   60.1047 C   0  0  0  0  0  0  0  0  0  0  0  0
  -40.9844   61.7022   59.1759 H   0  0  0  0  0  0  0  0  0  0  0  0
  -41.1033   58.7663   60.6483 C   0  0  0  0  0  0  0  0  0  0  0  0
  -40.7411   57.5395   60.2359 C   0  0  0  0  0  0  0  0  0  0  0  0
  -41.4226   56.3068   60.8269 C   0  0  0  0  0  0  0  0  0  0  0  0
  -40.9047   55.9178   62.2193 C   0  0  0  0  0  0  0  0  0  0  0  0
  -41.7475   56.4171   63.4073 C   0  0  0  0  0  0  0  0  0  0  0  0
  -40.8716   57.2092   64.4077 C   0  0  0  0  0  0  0  0  0  0  0  0
  -39.5404   57.7562   63.8328 C   0  0  0  0  0  0  0  0  0  0  0  0
  -38.6551   58.4864   64.8701 C   0  0  0  0  0  0  0  0  0  0  0  0
  -37.1717   58.0605   64.8246 C   0  0  0  0  0  0  0  0  0  0  0  0
  -36.6797   57.6844   63.4218 C   0  0  0  0  0  0  0  0  0  0  0  0
  -35.5649   58.5546   62.8455 C   0  0  0  0  0  0  0  0  0  0  0  0
  -34.2031   57.8398   62.7419 C   0  0  0  0  0  0  0  0  0  0  0  0
  -33.0611   58.4873   63.5397 C   0  0  0  0  0  0  0  0  0  0  0  0
  -32.8401   59.9387   63.1041 C   0  0  0  0  0  0  0  0  0  0  0  0
  -31.7468   60.1765   62.0776 C   0  0  0  0  0  0  0  0  0  0  0  0
  -38.4348   60.5780   61.6554 C   0  0  0  0  0  0  0  0  0  0  0  0
  -38.0240   61.0216   62.9736 O   0  0  0  0  0  0  0  0  0  0  0  0
  -37.6546   62.2492   65.5297 O   0  0  0  0  0  0  0  0  0  0  0  0
  -34.2224   63.7767   63.7171 O   0  0  0  0  0  0  0  0  0  0  0  0
  -36.6252   62.8222   62.1451 O   0  0  0  0  0  0  0  0  0  0  0  0
  -37.5215   62.3917   63.1980 C   0  0  0  0  0  0  0  0  0  0  0  0
  -36.7739   62.6295   64.5179 C   0  0  0  0  0  0  0  0  0  0  0  0
  -36.3771   64.1041   64.7492 C   0  0  0  0  0  0  0  0  0  0  0  0
  -35.4608   64.4755   63.6161 C   0  0  0  0  0  0  0  0  0  0  0  0
  -36.1393   64.1840   62.2899 C   0  0  0  0  0  0  0  0  0  0  0  0
  -37.9152   61.3238   65.4006 H   0  0  0  0  0  0  0  0  0  0  0  0
  -33.8067   63.9770   64.5703 H   0  0  0  0  0  0  0  0  0  0  0  0
  -34.2124   63.5351   61.0332 O   0  0  0  0  0  0  0  0  0  0  0  0
  -35.0594   64.6125   61.2989 C   0  0  0  0  0  0  0  0  0  0  0  0
  -33.5275   63.8097   60.4037 H   0  0  0  0  0  0  0  0  0  0  0  0
  -35.6455   64.3809   65.9649 O   0  0  0  0  0  0  0  0  0  0  0  0
  -33.8265   63.6766   67.6716 O   0  0  0  0  0  0  0  0  0  0  0  0
  -34.6702   62.0493   66.0812 O   0  0  0  0  0  0  0  0  0  0  0  0
  -36.0216   62.7113   67.9812 O   0  0  0  0  0  0  0  0  0  0  0  0
  -35.0457   63.1892   66.9610 S   0  0  0  0  0  0  0  0  0  0  0  0
  -33.1786   63.9925   67.0224 H   0  0  0  0  0  0  0  0  0  0  0  0
  -36.2720   63.4487   68.5596 H   0  0  0  0  0  0  0  0  0  0  0  0
  2  1  1  0  0  0
  2  4  1  0  0  0
  2  5  1  0  0  0
 41 42  1  0  0  0
 41  1  1  0  0  0
 42 46  1  0  0  0
  1 24  1  0  0  0
 23 24  1  0  0  0
 23 25  1  0  0  0
 24 26  1  0  0  0
  3  4  2  0  0  0
 26 27  2  0  0  0
 27 28  1  0  0  0
 43 47  1  0  0  0
 43 51  1  0  0  0
 28 29  1  0  0  0
 56 48  1  0  0  0
 56 60  1  0  0  0
 29 30  1  0  0  0
 57 60  1  0  0  0
 57 61  1  0  0  0
 30 31  1  0  0  0
 44 49  1  0  0  0
 44 52  1  0  0  0
 31 32  1  0  0  0
 45 46  1  0  0  0
 45 50  1  0  0  0
 32 33  1  0  0  0
 53 54  1  0  0  0
 53 55  1  0  0  0
 33 34  1  0  0  0
 34 35  1  0  0  0
 35 36  1  0  0  0
 58 60  1  0  0  0
 36 37  1  0  0  0
 59 60  1  0  0  0
 59 62  1  0  0  0
 37 38  1  0  0  0
 38 39  1  0  0  0
 39 40  1  0  0  0
  4  6  1  0  0  0
  6  7  1  0  0  0
  7  8  1  0  0  0
  8  9  1  0  0  0
  9 10  1  0  0  0
 10 11  1  0  0  0
 11 12  1  0  0  0
 12 13  1  0  0  0
 13 14  1  0  0  0
 14 15  1  0  0  0
 15 16  1  0  0  0
 16 17  1  0  0  0
 17 18  1  0  0  0
 18 19  1  0  0  0
 19 20  1  0  0  0
 20 21  1  0  0  0
 21 22  1  0  0  0
 46 47  1  0  0  0
 47 48  1  0  0  0
 48 49  1  0  0  0
 49 50  1  0  0  0
 50 54  1  0  0  0
M  CHG 1  58  -1
M  END
> <minimizedAffinity>
-9.66650

> <CNNscore>
0.1270122081

> <CNNaffinity>
6.8800058365

> <CNN_VS>
0.8738447428

> <CNNaffinity_variance>
1.3973419666

$$$$
/media/chris/experiments/cd1a-new-docking/inputs/ligands/1onq_ligand.pdb


 62 62  0  0  0  0  0  0  0  0999 V2000
  -42.5816   59.9438   65.0389 C   0  0  0  0  0  0  0  0  0  0  0  0
  -43.7078   59.3643   65.7440 N   0  0  0  0  0  0  0  0  0  0  0  0
  -43.0823   57.1916   65.9331 O   0  0  0  0  0  0  0  0  0  0  0  0
  -43.8771   58.0911   66.1260 C   0  0  0  0  0  0  0  0  0  0  0  0
  -44.4393   59.9831   65.9703 H   0  0  0  0  0  0  0  0  0  0  0  0
  -45.1592   57.8080   66.8512 C   0  0  0  0  0  0  0  0  0  0  0  0
  -46.2876   58.2982   65.9437 C   0  0  0  0  0  0  0  0  0  0  0  0
  -47.1277   59.3431   66.6741 C   0  0  0  0  0  0  0  0  0  0  0  0
  -48.4518   59.6919   66.0388 C   0  0  0  0  0  0  0  0  0  0  0  0
  -48.8756   58.5073   65.1768 C   0  0  0  0  0  0  0  0  0  0  0  0
  -50.3622   58.5508   64.7988 C   0  0  0  0  0  0  0  0  0  0  0  0
  -50.8802   59.9533   64.4310 C   0  0  0  0  0  0  0  0  0  0  0  0
  -51.1154   60.1278   62.9144 C   0  0  0  0  0  0  0  0  0  0  0  0
  -49.7826   60.2742   62.1747 C   0  0  0  0  0  0  0  0  0  0  0  0
  -49.6947   59.5267   60.8497 C   0  0  0  0  0  0  0  0  0  0  0  0
  -50.4964   58.2336   60.8622 C   0  0  0  0  0  0  0  0  0  0  0  0
  -49.6813   56.9384   60.8499 C   0  0  0  0  0  0  0  0  0  0  0  0
  -48.4553   57.1560   59.9733 C   0  0  0  0  0  0  0  0  0  0  0  0
  -47.8449   55.9573   59.2623 C   0  0  0  0  0  0  0  0  0  0  0  0
  -47.0973   56.3933   57.9924 C   0  0  0  0  0  0  0  0  0  0  0  0
  -47.7966   57.5058   57.1898 C   0  0  0  0  0  0  0  0  0  0  0  0
  -46.9559   58.7736   57.0558 C   0  0  0  0  0  0  0  0  0  0  0  0
  -41.6908   61.6649   66.3196 O   0  0  0  0  0  0  0  0  0  0  0  0
  -41.6130   60.2599   66.1655 C   0  0  0  0  0  0  0  0  0  0  0  0
  -42.5946   61.9131   66.5695 H   0  0  0  0  0  0  0  0  0  0  0  0
  -40.2078   59.8001   65.7698 C   0  0  0  0  0  0  0  0  0  0  0  0
  -39.1154   60.5672   65.9268 C   0  0  0  0  0  0  0  0  0  0  0  0
  -37.7465   60.0360   65.5059 C   0  0  0  0  0  0  0  0  0  0  0  0
  -37.8125   58.8272   64.5611 C   0  0  0  0  0  0  0  0  0  0  0  0
  -36.8252   57.6862   64.8685 C   0  0  0  0  0  0  0  0  0  0  0  0
  -35.5381   57.8303   64.0214 C   0  0  0  0  0  0  0  0  0  0  0  0
  -34.2503   58.1476   64.8231 C   0  0  0  0  0  0  0  0  0  0  0  0
  -33.4450   59.3506   64.2779 C   0  0  0  0  0  0  0  0  0  0  0  0
  -34.0941   60.7177   64.5837 C   0  0  0  0  0  0  0  0  0  0  0  0
  -33.6360   61.8423   63.6474 C   0  0  0  0  0  0  0  0  0  0  0  0
  -33.8082   63.2657   64.1731 C   0  0  0  0  0  0  0  0  0  0  0  0
  -35.1230   63.9402   63.7345 C   0  0  0  0  0  0  0  0  0  0  0  0
  -36.3482   63.6122   64.6013 C   0  0  0  0  0  0  0  0  0  0  0  0
  -36.1113   64.0098   66.0611 C   0  0  0  0  0  0  0  0  0  0  0  0
  -35.6769   62.8994   67.0012 C   0  0  0  0  0  0  0  0  0  0  0  0
  -42.9258   61.0952   64.0669 C   0  0  0  0  0  0  0  0  0  0  0  0
  -42.2797   61.0627   62.7689 O   0  0  0  0  0  0  0  0  0  0  0  0
  -41.0312   60.7958   60.2102 O   0  0  0  0  0  0  0  0  0  0  0  0
  -39.4729   57.3226   61.9153 O   0  0  0  0  0  0  0  0  0  0  0  0
  -41.9950   58.6583   62.9206 O   0  0  0  0  0  0  0  0  0  0  0  0
  -42.1079   59.7955   62.0310 C   0  0  0  0  0  0  0  0  0  0  0  0
  -40.8979   59.7212   61.0885 C   0  0  0  0  0  0  0  0  0  0  0  0
  -40.8376   58.4205   60.2579 C   0  0  0  0  0  0  0  0  0  0  0  0
  -40.7323   57.2937   61.2482 C   0  0  0  0  0  0  0  0  0  0  0  0
  -41.8740   57.3775   62.2450 C   0  0  0  0  0  0  0  0  0  0  0  0
  -41.0708   61.6231   60.7152 H   0  0  0  0  0  0  0  0  0  0  0  0
  -38.7589   57.2681   61.2609 H   0  0  0  0  0  0  0  0  0  0  0  0
  -41.3634   55.0451   62.3571 O   0  0  0  0  0  0  0  0  0  0  0  0
  -41.5776   56.1786   63.1433 C   0  0  0  0  0  0  0  0  0  0  0  0
  -41.1754   54.2851   62.9298 H   0  0  0  0  0  0  0  0  0  0  0  0
  -39.7025   58.2851   59.3729 O   0  0  0  0  0  0  0  0  0  0  0  0
  -38.4229   60.3984   60.1566 O   0  0  0  0  0  0  0  0  0  0  0  0
  -37.5137   59.0466   58.3579 O   0  0  0  0  0  0  0  0  0  0  0  0
  -37.3868   58.2702   60.6503 O   0  0  0  0  0  0  0  0  0  0  0  0
  -38.2284   59.0031   59.6623 S   0  0  0  0  0  0  0  0  0  0  0  0
  -38.9696   60.8917   59.5252 H   0  0  0  0  0  0  0  0  0  0  0  0
  -37.8455   58.2371   61.5044 H   0  0  0  0  0  0  0  0  0  0  0  0
  2  1  1  0  0  0
  2  4  1  0  0  0
  2  5  1  0  0  0
 41 42  1  0  0  0
 41  1  1  0  0  0
 42 46  1  0  0  0
  1 24  1  0  0  0
 23 24  1  0  0  0
 23 25  1  0  0  0
 24 26  1  0  0  0
  3  4  2  0  0  0
 26 27  2  0  0  0
 27 28  1  0  0  0
 43 47  1  0  0  0
 43 51  1  0  0  0
 28 29  1  0  0  0
 56 48  1  0  0  0
 56 60  1  0  0  0
 29 30  1  0  0  0
 57 60  1  0  0  0
 57 61  1  0  0  0
 30 31  1  0  0  0
 44 49  1  0  0  0
 44 52  1  0  0  0
 31 32  1  0  0  0
 45 46  1  0  0  0
 45 50  1  0  0  0
 32 33  1  0  0  0
 53 54  1  0  0  0
 53 55  1  0  0  0
 33 34  1  0  0  0
 34 35  1  0  0  0
 35 36  1  0  0  0
 58 60  1  0  0  0
 36 37  1  0  0  0
 59 60  1  0  0  0
 59 62  1  0  0  0
 37 38  1  0  0  0
 38 39  1  0  0  0
 39 40  1  0  0  0
  4  6  1  0  0  0
  6  7  1  0  0  0
  7  8  1  0  0  0
  8  9  1  0  0  0
  9 10  1  0  0  0
 10 11  1  0  0  0
 11 12  1  0  0  0
 12 13  1  0  0  0
 13 14  1  0  0  0
 14 15  1  0  0  0
 15 16  1  0  0  0
 16 17  1  0  0  0
 17 18  1  0  0  0
 18 19  1  0  0  0
 19 20  1  0  0  0
 20 21  1  0  0  0
 21 22  1  0  0  0
 46 47  1  0  0  0
 47 48  1  0  0  0
 48 49  1  0  0  0
 49 50  1  0  0  0
 50 54  1  0  0  0
M  CHG 1  58  -1
M  END
> <minimizedAffinity>
-9.03784

> <CNNscore>
0.1218654737

> <CNNaffinity>
6.9969024658

> <CNN_VS>
0.8526808619

> <CNNaffinity_variance>
1.9531116486

$$$$
