/media/chris/experiments/cd1a-new-docking/inputs/ligands/1onq_ligand.pdb


 62 62  0  0  0  0  0  0  0  0999 V2000
  -40.8984   59.5927   64.4557 C   0  0  0  0  0  0  0  0  0  0  0  0
  -42.3186   59.8748   64.5220 N   0  0  0  0  0  0  0  0  0  0  0  0
  -42.4454   61.9096   63.5266 O   0  0  0  0  0  0  0  0  0  0  0  0
  -42.9674   60.9592   64.0762 C   0  0  0  0  0  0  0  0  0  0  0  0
  -42.8759   59.1837   64.9476 H   0  0  0  0  0  0  0  0  0  0  0  0
  -44.4521   60.9464   64.2891 C   0  0  0  0  0  0  0  0  0  0  0  0
  -44.7313   59.8622   65.3301 C   0  0  0  0  0  0  0  0  0  0  0  0
  -46.2373   59.6730   65.4950 C   0  0  0  0  0  0  0  0  0  0  0  0
  -47.1060   60.3145   64.4403 C   0  0  0  0  0  0  0  0  0  0  0  0
  -48.3839   60.7907   65.1230 C   0  0  0  0  0  0  0  0  0  0  0  0
  -49.0638   59.6873   65.9448 C   0  0  0  0  0  0  0  0  0  0  0  0
  -50.4933   59.3467   65.4855 C   0  0  0  0  0  0  0  0  0  0  0  0
  -51.0936   60.4170   64.5475 C   0  0  0  0  0  0  0  0  0  0  0  0
  -51.3651   59.8282   63.1603 C   0  0  0  0  0  0  0  0  0  0  0  0
  -50.6565   58.5109   62.8687 C   0  0  0  0  0  0  0  0  0  0  0  0
  -49.3978   58.7046   62.0361 C   0  0  0  0  0  0  0  0  0  0  0  0
  -49.5626   59.5170   60.7496 C   0  0  0  0  0  0  0  0  0  0  0  0
  -49.6487   58.5448   59.5808 C   0  0  0  0  0  0  0  0  0  0  0  0
  -48.3925   57.7959   59.1610 C   0  0  0  0  0  0  0  0  0  0  0  0
  -47.6504   58.5488   58.0455 C   0  0  0  0  0  0  0  0  0  0  0  0
  -46.9762   57.6403   57.0009 C   0  0  0  0  0  0  0  0  0  0  0  0
  -47.2827   56.1580   57.2019 C   0  0  0  0  0  0  0  0  0  0  0  0
  -39.4404   57.9421   65.1947 O   0  0  0  0  0  0  0  0  0  0  0  0
  -40.8201   58.1654   64.9699 C   0  0  0  0  0  0  0  0  0  0  0  0
  -39.1177   58.5629   65.8664 H   0  0  0  0  0  0  0  0  0  0  0  0
  -41.3941   57.2149   63.9165 C   0  0  0  0  0  0  0  0  0  0  0  0
  -40.6931   56.7962   62.8491 C   0  0  0  0  0  0  0  0  0  0  0  0
  -41.3379   55.8470   61.8407 C   0  0  0  0  0  0  0  0  0  0  0  0
  -41.3056   56.3614   60.3941 C   0  0  0  0  0  0  0  0  0  0  0  0
  -41.5495   57.8716   60.2181 C   0  0  0  0  0  0  0  0  0  0  0  0
  -40.5936   58.4619   59.1535 C   0  0  0  0  0  0  0  0  0  0  0  0
  -39.6979   59.6282   59.6424 C   0  0  0  0  0  0  0  0  0  0  0  0
  -38.2337   59.2231   59.9338 C   0  0  0  0  0  0  0  0  0  0  0  0
  -38.0957   58.1692   61.0537 C   0  0  0  0  0  0  0  0  0  0  0  0
  -36.7157   58.1547   61.7218 C   0  0  0  0  0  0  0  0  0  0  0  0
  -36.6994   57.8749   63.2230 C   0  0  0  0  0  0  0  0  0  0  0  0
  -35.2843   57.7581   63.8227 C   0  0  0  0  0  0  0  0  0  0  0  0
  -34.1429   58.2149   62.9016 C   0  0  0  0  0  0  0  0  0  0  0  0
  -32.8799   58.5326   63.7072 C   0  0  0  0  0  0  0  0  0  0  0  0
  -33.0242   58.5279   65.2188 C   0  0  0  0  0  0  0  0  0  0  0  0
  -39.9803   60.6338   65.1355 C   0  0  0  0  0  0  0  0  0  0  0  0
  -39.1807   61.4650   64.2564 O   0  0  0  0  0  0  0  0  0  0  0  0
  -37.2597   61.7874   62.1629 O   0  0  0  0  0  0  0  0  0  0  0  0
  -35.5269   64.4423   64.8736 O   0  0  0  0  0  0  0  0  0  0  0  0
  -37.3972   62.2187   65.7181 O   0  0  0  0  0  0  0  0  0  0  0  0
  -37.7232   61.6020   64.4488 C   0  0  0  0  0  0  0  0  0  0  0  0
  -36.9730   62.4075   63.3784 C   0  0  0  0  0  0  0  0  0  0  0  0
  -35.4404   62.4161   63.5691 C   0  0  0  0  0  0  0  0  0  0  0  0
  -35.1866   63.0584   64.9048 C   0  0  0  0  0  0  0  0  0  0  0  0
  -35.9727   62.3327   65.9816 C   0  0  0  0  0  0  0  0  0  0  0  0
  -38.2198   61.7728   62.0259 H   0  0  0  0  0  0  0  0  0  0  0  0
  -35.0141   64.8859   64.1799 H   0  0  0  0  0  0  0  0  0  0  0  0
  -34.1999   63.2432   67.3013 O   0  0  0  0  0  0  0  0  0  0  0  0
  -35.5895   63.1326   67.2247 C   0  0  0  0  0  0  0  0  0  0  0  0
  -33.9591   63.7516   68.0915 H   0  0  0  0  0  0  0  0  0  0  0  0
  -34.6855   63.1835   62.6042 O   0  0  0  0  0  0  0  0  0  0  0  0
  -32.6096   64.5385   63.3605 O   0  0  0  0  0  0  0  0  0  0  0  0
  -32.5838   63.4072   61.2138 O   0  0  0  0  0  0  0  0  0  0  0  0
  -32.3482   62.1368   63.2643 O   0  0  0  0  0  0  0  0  0  0  0  0
  -33.0251   63.3039   62.6312 S   0  0  0  0  0  0  0  0  0  0  0  0
  -33.0411   65.3103   62.9618 H   0  0  0  0  0  0  0  0  0  0  0  0
  -32.6304   62.0619   64.1893 H   0  0  0  0  0  0  0  0  0  0  0  0
  2  1  1  0  0  0
  2  4  1  0  0  0
  2  5  1  0  0  0
 41 42  1  0  0  0
 41  1  1  0  0  0
 42 46  1  0  0  0
  1 24  1  0  0  0
 23 24  1  0  0  0
 23 25  1  0  0  0
 24 26  1  0  0  0
  3  4  2  0  0  0
 26 27  2  0  0  0
 27 28  1  0  0  0
 43 47  1  0  0  0
 43 51  1  0  0  0
 28 29  1  0  0  0
 56 48  1  0  0  0
 56 60  1  0  0  0
 29 30  1  0  0  0
 57 60  1  0  0  0
 57 61  1  0  0  0
 30 31  1  0  0  0
 44 49  1  0  0  0
 44 52  1  0  0  0
 31 32  1  0  0  0
 45 46  1  0  0  0
 45 50  1  0  0  0
 32 33  1  0  0  0
 53 54  1  0  0  0
 53 55  1  0  0  0
 33 34  1  0  0  0
 34 35  1  0  0  0
 35 36  1  0  0  0
 58 60  1  0  0  0
 36 37  1  0  0  0
 59 60  1  0  0  0
 59 62  1  0  0  0
 37 38  1  0  0  0
 38 39  1  0  0  0
 39 40  1  0  0  0
  4  6  1  0  0  0
  6  7  1  0  0  0
  7  8  1  0  0  0
  8  9  1  0  0  0
  9 10  1  0  0  0
 10 11  1  0  0  0
 11 12  1  0  0  0
 12 13  1  0  0  0
 13 14  1  0  0  0
 14 15  1  0  0  0
 15 16  1  0  0  0
 16 17  1  0  0  0
 17 18  1  0  0  0
 18 19  1  0  0  0
 19 20  1  0  0  0
 20 21  1  0  0  0
 21 22  1  0  0  0
 46 47  1  0  0  0
 47 48  1  0  0  0
 48 49  1  0  0  0
 49 50  1  0  0  0
 50 54  1  0  0  0
M  CHG 1  58  -1
M  END
> <minimizedAffinity>
-9.72175

> <CNNscore>
0.3239755929

> <CNNaffinity>
7.1629791260

> <CNN_VS>
2.3206303120

> <CNNaffinity_variance>
1.6079982519

$$$$
/media/chris/experiments/cd1a-new-docking/inputs/ligands/1onq_ligand.pdb


 62 62  0  0  0  0  0  0  0  0999 V2000
  -41.4952   60.0389   65.7390 C   0  0  0  0  0  0  0  0  0  0  0  0
  -41.7501   58.9040   64.8741 N   0  0  0  0  0  0  0  0  0  0  0  0
  -42.6107   57.3859   66.3241 O   0  0  0  0  0  0  0  0  0  0  0  0
  -42.2650   57.7119   65.2052 C   0  0  0  0  0  0  0  0  0  0  0  0
  -41.5160   59.0239   63.9254 H   0  0  0  0  0  0  0  0  0  0  0  0
  -42.4127   56.7435   64.0694 C   0  0  0  0  0  0  0  0  0  0  0  0
  -41.2897   57.0597   63.0814 C   0  0  0  0  0  0  0  0  0  0  0  0
  -41.8778   57.3896   61.7116 C   0  0  0  0  0  0  0  0  0  0  0  0
  -41.4150   58.6825   61.0849 C   0  0  0  0  0  0  0  0  0  0  0  0
  -41.2738   58.4431   59.5853 C   0  0  0  0  0  0  0  0  0  0  0  0
  -39.8315   58.1250   59.1688 C   0  0  0  0  0  0  0  0  0  0  0  0
  -38.8030   59.1922   59.5861 C   0  0  0  0  0  0  0  0  0  0  0  0
  -37.6074   58.6015   60.3653 C   0  0  0  0  0  0  0  0  0  0  0  0
  -38.0747   57.9900   61.6891 C   0  0  0  0  0  0  0  0  0  0  0  0
  -36.9602   57.4656   62.5864 C   0  0  0  0  0  0  0  0  0  0  0  0
  -36.0178   58.5700   63.0417 C   0  0  0  0  0  0  0  0  0  0  0  0
  -35.6167   58.5434   64.5184 C   0  0  0  0  0  0  0  0  0  0  0  0
  -34.3372   59.3535   64.6783 C   0  0  0  0  0  0  0  0  0  0  0  0
  -33.0148   58.6112   64.8025 C   0  0  0  0  0  0  0  0  0  0  0  0
  -32.3355   58.4649   63.4316 C   0  0  0  0  0  0  0  0  0  0  0  0
  -32.4581   59.7020   62.5230 C   0  0  0  0  0  0  0  0  0  0  0  0
  -31.1084   60.2716   62.0927 C   0  0  0  0  0  0  0  0  0  0  0  0
  -42.3919   62.1437   66.1411 O   0  0  0  0  0  0  0  0  0  0  0  0
  -42.4552   61.0865   65.2019 C   0  0  0  0  0  0  0  0  0  0  0  0
  -41.4884   62.4953   66.1717 H   0  0  0  0  0  0  0  0  0  0  0  0
  -43.8592   60.4850   65.1044 C   0  0  0  0  0  0  0  0  0  0  0  0
  -44.8785   61.1028   64.4836 C   0  0  0  0  0  0  0  0  0  0  0  0
  -46.2521   60.4365   64.4300 C   0  0  0  0  0  0  0  0  0  0  0  0
  -46.2832   59.0265   65.0375 C   0  0  0  0  0  0  0  0  0  0  0  0
  -47.2613   58.8274   66.2101 C   0  0  0  0  0  0  0  0  0  0  0  0
  -48.2384   60.0227   66.3193 C   0  0  0  0  0  0  0  0  0  0  0  0
  -49.7415   59.6603   66.2160 C   0  0  0  0  0  0  0  0  0  0  0  0
  -50.1593   59.0752   64.8464 C   0  0  0  0  0  0  0  0  0  0  0  0
  -51.0505   60.0236   64.0156 C   0  0  0  0  0  0  0  0  0  0  0  0
  -51.2309   59.5831   62.5580 C   0  0  0  0  0  0  0  0  0  0  0  0
  -49.9569   59.1913   61.8125 C   0  0  0  0  0  0  0  0  0  0  0  0
  -49.9267   57.7197   61.3551 C   0  0  0  0  0  0  0  0  0  0  0  0
  -49.7251   57.5065   59.8472 C   0  0  0  0  0  0  0  0  0  0  0  0
  -48.8479   58.6098   59.2484 C   0  0  0  0  0  0  0  0  0  0  0  0
  -47.7840   58.1650   58.2605 C   0  0  0  0  0  0  0  0  0  0  0  0
  -40.0121   60.4519   65.8756 C   0  0  0  0  0  0  0  0  0  0  0  0
  -39.3675   60.9587   64.6794 O   0  0  0  0  0  0  0  0  0  0  0  0
  -37.7976   61.5124   62.3543 O   0  0  0  0  0  0  0  0  0  0  0  0
  -36.2381   64.5356   64.7684 O   0  0  0  0  0  0  0  0  0  0  0  0
  -37.5791   62.0652   65.8886 O   0  0  0  0  0  0  0  0  0  0  0  0
  -37.9435   61.3487   64.6839 C   0  0  0  0  0  0  0  0  0  0  0  0
  -37.4787   62.2233   63.5106 C   0  0  0  0  0  0  0  0  0  0  0  0
  -35.9592   62.4996   63.5067 C   0  0  0  0  0  0  0  0  0  0  0  0
  -35.6617   63.2319   64.7859 C   0  0  0  0  0  0  0  0  0  0  0  0
  -36.1747   62.4300   65.9683 C   0  0  0  0  0  0  0  0  0  0  0  0
  -38.7500   61.3295   62.3396 H   0  0  0  0  0  0  0  0  0  0  0  0
  -35.8972   65.0296   64.0063 H   0  0  0  0  0  0  0  0  0  0  0  0
  -36.2703   62.7930   68.3289 O   0  0  0  0  0  0  0  0  0  0  0  0
  -35.7892   63.3355   67.1359 C   0  0  0  0  0  0  0  0  0  0  0  0
  -36.0242   63.3699   69.0689 H   0  0  0  0  0  0  0  0  0  0  0  0
  -35.4704   63.3420   62.4384 O   0  0  0  0  0  0  0  0  0  0  0  0
  -33.8122   65.3090   62.7530 O   0  0  0  0  0  0  0  0  0  0  0  0
  -33.4916   63.7548   60.9170 O   0  0  0  0  0  0  0  0  0  0  0  0
  -32.9450   63.0934   63.1837 O   0  0  0  0  0  0  0  0  0  0  0  0
  -33.8961   63.8756   62.3440 S   0  0  0  0  0  0  0  0  0  0  0  0
  -34.4256   65.8348   62.2162 H   0  0  0  0  0  0  0  0  0  0  0  0
  -33.2015   63.1667   64.1163 H   0  0  0  0  0  0  0  0  0  0  0  0
  2  1  1  0  0  0
  2  4  1  0  0  0
  2  5  1  0  0  0
 41 42  1  0  0  0
 41  1  1  0  0  0
 42 46  1  0  0  0
  1 24  1  0  0  0
 23 24  1  0  0  0
 23 25  1  0  0  0
 24 26  1  0  0  0
  3  4  2  0  0  0
 26 27  2  0  0  0
 27 28  1  0  0  0
 43 47  1  0  0  0
 43 51  1  0  0  0
 28 29  1  0  0  0
 56 48  1  0  0  0
 56 60  1  0  0  0
 29 30  1  0  0  0
 57 60  1  0  0  0
 57 61  1  0  0  0
 30 31  1  0  0  0
 44 49  1  0  0  0
 44 52  1  0  0  0
 31 32  1  0  0  0
 45 46  1  0  0  0
 45 50  1  0  0  0
 32 33  1  0  0  0
 53 54  1  0  0  0
 53 55  1  0  0  0
 33 34  1  0  0  0
 34 35  1  0  0  0
 35 36  1  0  0  0
 58 60  1  0  0  0
 36 37  1  0  0  0
 59 60  1  0  0  0
 59 62  1  0  0  0
 37 38  1  0  0  0
 38 39  1  0  0  0
 39 40  1  0  0  0
  4  6  1  0  0  0
  6  7  1  0  0  0
  7  8  1  0  0  0
  8  9  1  0  0  0
  9 10  1  0  0  0
 10 11  1  0  0  0
 11 12  1  0  0  0
 12 13  1  0  0  0
 13 14  1  0  0  0
 14 15  1  0  0  0
 15 16  1  0  0  0
 16 17  1  0  0  0
 17 18  1  0  0  0
 18 19  1  0  0  0
 19 20  1  0  0  0
 20 21  1  0  0  0
 21 22  1  0  0  0
 46 47  1  0  0  0
 47 48  1  0  0  0
 48 49  1  0  0  0
 49 50  1  0  0  0
 50 54  1  0  0  0
M  CHG 1  58  -1
M  END
> <minimizedAffinity>
-9.60737

> <CNNscore>
0.3032679856

> <CNNaffinity>
7.0869345665

> <CNN_VS>
2.1492402554

> <CNNaffinity_variance>
2.2529275417

$$$$
/media/chris/experiments/cd1a-new-docking/inputs/ligands/1onq_ligand.pdb


 62 62  0  0  0  0  0  0  0  0999 V2000
  -41.7084   60.5413   64.5701 C   0  0  0  0  0  0  0  0  0  0  0  0
  -42.5149   59.3387   64.6378 N   0  0  0  0  0  0  0  0  0  0  0  0
  -42.0521   58.5735   66.7229 O   0  0  0  0  0  0  0  0  0  0  0  0
  -42.6290   58.4766   65.6573 C   0  0  0  0  0  0  0  0  0  0  0  0
  -43.0447   59.1293   63.8348 H   0  0  0  0  0  0  0  0  0  0  0  0
  -43.5589   57.3245   65.4170 C   0  0  0  0  0  0  0  0  0  0  0  0
  -44.7578   57.5350   66.3420 C   0  0  0  0  0  0  0  0  0  0  0  0
  -45.9368   58.0935   65.5489 C   0  0  0  0  0  0  0  0  0  0  0  0
  -46.2215   59.5647   65.7310 C   0  0  0  0  0  0  0  0  0  0  0  0
  -47.0196   60.0330   64.5187 C   0  0  0  0  0  0  0  0  0  0  0  0
  -48.3294   60.7329   64.9055 C   0  0  0  0  0  0  0  0  0  0  0  0
  -49.1860   59.9548   65.9211 C   0  0  0  0  0  0  0  0  0  0  0  0
  -50.3486   59.1829   65.2593 C   0  0  0  0  0  0  0  0  0  0  0  0
  -51.1896   60.1180   64.3857 C   0  0  0  0  0  0  0  0  0  0  0  0
  -51.3636   59.6673   62.9403 C   0  0  0  0  0  0  0  0  0  0  0  0
  -50.2733   58.7009   62.5018 C   0  0  0  0  0  0  0  0  0  0  0  0
  -49.6303   58.9866   61.1426 C   0  0  0  0  0  0  0  0  0  0  0  0
  -50.2333   58.0318   60.1210 C   0  0  0  0  0  0  0  0  0  0  0  0
  -49.3394   57.4838   59.0185 C   0  0  0  0  0  0  0  0  0  0  0  0
  -48.2353   58.4893   58.6551 C   0  0  0  0  0  0  0  0  0  0  0  0
  -47.2138   57.9717   57.6257 C   0  0  0  0  0  0  0  0  0  0  0  0
  -47.4399   56.5142   57.2307 C   0  0  0  0  0  0  0  0  0  0  0  0
  -43.7117   61.3746   63.7406 O   0  0  0  0  0  0  0  0  0  0  0  0
  -42.3371   61.2966   63.4118 C   0  0  0  0  0  0  0  0  0  0  0  0
  -43.8188   61.8707   64.5672 H   0  0  0  0  0  0  0  0  0  0  0  0
  -42.0978   60.5234   62.1128 C   0  0  0  0  0  0  0  0  0  0  0  0
  -41.3374   60.9950   61.1100 C   0  0  0  0  0  0  0  0  0  0  0  0
  -41.1477   60.1623   59.8434 C   0  0  0  0  0  0  0  0  0  0  0  0
  -41.1728   58.6462   60.0866 C   0  0  0  0  0  0  0  0  0  0  0  0
  -40.0391   57.8453   59.4199 C   0  0  0  0  0  0  0  0  0  0  0  0
  -38.7518   58.6983   59.3157 C   0  0  0  0  0  0  0  0  0  0  0  0
  -37.7321   58.5008   60.4658 C   0  0  0  0  0  0  0  0  0  0  0  0
  -38.3676   58.0683   61.8082 C   0  0  0  0  0  0  0  0  0  0  0  0
  -37.3532   57.9690   62.9680 C   0  0  0  0  0  0  0  0  0  0  0  0
  -35.9002   57.8069   62.5058 C   0  0  0  0  0  0  0  0  0  0  0  0
  -34.8562   58.6097   63.2791 C   0  0  0  0  0  0  0  0  0  0  0  0
  -33.4013   58.2017   62.9746 C   0  0  0  0  0  0  0  0  0  0  0  0
  -32.3271   59.1656   63.5007 C   0  0  0  0  0  0  0  0  0  0  0  0
  -32.3098   60.4650   62.6904 C   0  0  0  0  0  0  0  0  0  0  0  0
  -31.3166   60.5325   61.5439 C   0  0  0  0  0  0  0  0  0  0  0  0
  -40.1804   60.3157   64.5126 C   0  0  0  0  0  0  0  0  0  0  0  0
  -39.3799   61.4214   64.0227 O   0  0  0  0  0  0  0  0  0  0  0  0
  -37.2949   61.8046   62.1037 O   0  0  0  0  0  0  0  0  0  0  0  0
  -35.7411   64.2965   65.0661 O   0  0  0  0  0  0  0  0  0  0  0  0
  -37.7061   62.0718   65.6539 O   0  0  0  0  0  0  0  0  0  0  0  0
  -37.9403   61.5215   64.3349 C   0  0  0  0  0  0  0  0  0  0  0  0
  -37.0957   62.3616   63.3663 C   0  0  0  0  0  0  0  0  0  0  0  0
  -35.5830   62.3321   63.6764 C   0  0  0  0  0  0  0  0  0  0  0  0
  -35.4256   62.9064   65.0572 C   0  0  0  0  0  0  0  0  0  0  0  0
  -36.3053   62.1462   66.0331 C   0  0  0  0  0  0  0  0  0  0  0  0
  -38.2413   61.8147   61.8915 H   0  0  0  0  0  0  0  0  0  0  0  0
  -35.1684   64.7621   64.4367 H   0  0  0  0  0  0  0  0  0  0  0  0
  -34.6343   63.0905   67.4576 O   0  0  0  0  0  0  0  0  0  0  0  0
  -36.0092   62.8797   67.3393 C   0  0  0  0  0  0  0  0  0  0  0  0
  -34.4488   63.5565   68.2879 H   0  0  0  0  0  0  0  0  0  0  0  0
  -34.7425   63.1293   62.8115 O   0  0  0  0  0  0  0  0  0  0  0  0
  -35.6785   63.8190   60.4951 O   0  0  0  0  0  0  0  0  0  0  0  0
  -34.2263   65.3435   61.7018 O   0  0  0  0  0  0  0  0  0  0  0  0
  -36.5262   65.0387   62.4029 O   0  0  0  0  0  0  0  0  0  0  0  0
  -35.3269   64.3522   61.8446 S   0  0  0  0  0  0  0  0  0  0  0  0
  -34.9085   63.3677   60.1151 H   0  0  0  0  0  0  0  0  0  0  0  0
  -37.2492   64.3992   62.4994 H   0  0  0  0  0  0  0  0  0  0  0  0
  2  1  1  0  0  0
  2  4  1  0  0  0
  2  5  1  0  0  0
 41 42  1  0  0  0
 41  1  1  0  0  0
 42 46  1  0  0  0
  1 24  1  0  0  0
 23 24  1  0  0  0
 23 25  1  0  0  0
 24 26  1  0  0  0
  3  4  2  0  0  0
 26 27  2  0  0  0
 27 28  1  0  0  0
 43 47  1  0  0  0
 43 51  1  0  0  0
 28 29  1  0  0  0
 56 48  1  0  0  0
 56 60  1  0  0  0
 29 30  1  0  0  0
 57 60  1  0  0  0
 57 61  1  0  0  0
 30 31  1  0  0  0
 44 49  1  0  0  0
 44 52  1  0  0  0
 31 32  1  0  0  0
 45 46  1  0  0  0
 45 50  1  0  0  0
 32 33  1  0  0  0
 53 54  1  0  0  0
 53 55  1  0  0  0
 33 34  1  0  0  0
 34 35  1  0  0  0
 35 36  1  0  0  0
 58 60  1  0  0  0
 36 37  1  0  0  0
 59 60  1  0  0  0
 59 62  1  0  0  0
 37 38  1  0  0  0
 38 39  1  0  0  0
 39 40  1  0  0  0
  4  6  1  0  0  0
  6  7  1  0  0  0
  7  8  1  0  0  0
  8  9  1  0  0  0
  9 10  1  0  0  0
 10 11  1  0  0  0
 11 12  1  0  0  0
 12 13  1  0  0  0
 13 14  1  0  0  0
 14 15  1  0  0  0
 15 16  1  0  0  0
 16 17  1  0  0  0
 17 18  1  0  0  0
 18 19  1  0  0  0
 19 20  1  0  0  0
 20 21  1  0  0  0
 21 22  1  0  0  0
 46 47  1  0  0  0
 47 48  1  0  0  0
 48 49  1  0  0  0
 49 50  1  0  0  0
 50 54  1  0  0  0
M  CHG 1  58  -1
M  END
> <minimizedAffinity>
-9.76230

> <CNNscore>
0.2801036537

> <CNNaffinity>
7.1996321678

> <CNN_VS>
2.0166432858

> <CNNaffinity_variance>
1.1575253010

$$$$
/media/chris/experiments/cd1a-new-docking/inputs/ligands/1onq_ligand.pdb


 62 62  0  0  0  0  0  0  0  0999 V2000
  -39.9474   60.7449   64.9930 C   0  0  0  0  0  0  0  0  0  0  0  0
  -40.6549   59.5818   65.4909 N   0  0  0  0  0  0  0  0  0  0  0  0
  -42.4587   60.5188   66.4986 O   0  0  0  0  0  0  0  0  0  0  0  0
  -41.8057   59.5454   66.1763 C   0  0  0  0  0  0  0  0  0  0  0  0
  -40.2380   58.7102   65.3020 H   0  0  0  0  0  0  0  0  0  0  0  0
  -42.2862   58.1728   66.5434 C   0  0  0  0  0  0  0  0  0  0  0  0
  -43.0928   57.6623   65.3493 C   0  0  0  0  0  0  0  0  0  0  0  0
  -44.5713   57.9930   65.5389 C   0  0  0  0  0  0  0  0  0  0  0  0
  -45.1550   58.9981   64.5758 C   0  0  0  0  0  0  0  0  0  0  0  0
  -45.9722   59.9957   65.3901 C   0  0  0  0  0  0  0  0  0  0  0  0
  -47.1007   59.3274   66.1870 C   0  0  0  0  0  0  0  0  0  0  0  0
  -48.4132   60.1317   66.2203 C   0  0  0  0  0  0  0  0  0  0  0  0
  -49.0576   60.2874   64.8253 C   0  0  0  0  0  0  0  0  0  0  0  0
  -50.5434   59.9200   64.8729 C   0  0  0  0  0  0  0  0  0  0  0  0
  -51.2749   60.0174   63.5395 C   0  0  0  0  0  0  0  0  0  0  0  0
  -50.9527   58.8505   62.6178 C   0  0  0  0  0  0  0  0  0  0  0  0
  -49.9261   59.1282   61.5172 C   0  0  0  0  0  0  0  0  0  0  0  0
  -50.1155   58.0919   60.4176 C   0  0  0  0  0  0  0  0  0  0  0  0
  -49.1901   56.8845   60.3862 C   0  0  0  0  0  0  0  0  0  0  0  0
  -47.9352   57.1751   59.5480 C   0  0  0  0  0  0  0  0  0  0  0  0
  -48.1294   58.2446   58.4573 C   0  0  0  0  0  0  0  0  0  0  0  0
  -47.0711   58.1855   57.3582 C   0  0  0  0  0  0  0  0  0  0  0  0
  -41.6176   61.6954   63.6880 O   0  0  0  0  0  0  0  0  0  0  0  0
  -40.4735   60.8697   63.5734 C   0  0  0  0  0  0  0  0  0  0  0  0
  -41.3561   62.5643   64.0305 H   0  0  0  0  0  0  0  0  0  0  0  0
  -40.8178   59.4785   63.0363 C   0  0  0  0  0  0  0  0  0  0  0  0
  -41.9244   59.2249   62.3171 C   0  0  0  0  0  0  0  0  0  0  0  0
  -42.1980   57.8076   61.8170 C   0  0  0  0  0  0  0  0  0  0  0  0
  -40.9494   57.0797   61.2979 C   0  0  0  0  0  0  0  0  0  0  0  0
  -40.7166   57.1571   59.7777 C   0  0  0  0  0  0  0  0  0  0  0  0
  -40.2683   58.5790   59.3624 C   0  0  0  0  0  0  0  0  0  0  0  0
  -38.7370   58.7786   59.2324 C   0  0  0  0  0  0  0  0  0  0  0  0
  -38.0416   59.2145   60.5436 C   0  0  0  0  0  0  0  0  0  0  0  0
  -37.3252   58.0596   61.2763 C   0  0  0  0  0  0  0  0  0  0  0  0
  -37.6616   57.9723   62.7697 C   0  0  0  0  0  0  0  0  0  0  0  0
  -36.4778   57.7757   63.7142 C   0  0  0  0  0  0  0  0  0  0  0  0
  -35.1035   57.8579   63.0210 C   0  0  0  0  0  0  0  0  0  0  0  0
  -34.2974   59.1323   63.3140 C   0  0  0  0  0  0  0  0  0  0  0  0
  -32.8610   58.7927   63.7221 C   0  0  0  0  0  0  0  0  0  0  0  0
  -31.7562   59.4683   62.9292 C   0  0  0  0  0  0  0  0  0  0  0  0
  -38.4124   60.7172   65.1715 C   0  0  0  0  0  0  0  0  0  0  0  0
  -37.8443   61.7182   66.0539 O   0  0  0  0  0  0  0  0  0  0  0  0
  -35.4744   62.7020   67.3160 O   0  0  0  0  0  0  0  0  0  0  0  0
  -34.0729   62.8479   63.3899 O   0  0  0  0  0  0  0  0  0  0  0  0
  -37.0176   62.8709   64.0858 O   0  0  0  0  0  0  0  0  0  0  0  0
  -36.9852   62.7997   65.5319 C   0  0  0  0  0  0  0  0  0  0  0  0
  -35.5018   62.7322   65.9223 C   0  0  0  0  0  0  0  0  0  0  0  0
  -34.6792   63.9500   65.4472 C   0  0  0  0  0  0  0  0  0  0  0  0
  -34.7706   63.9595   63.9463 C   0  0  0  0  0  0  0  0  0  0  0  0
  -36.2275   63.9515   63.5202 C   0  0  0  0  0  0  0  0  0  0  0  0
  -35.9869   61.9420   67.6330 H   0  0  0  0  0  0  0  0  0  0  0  0
  -33.1459   62.8726   63.6745 H   0  0  0  0  0  0  0  0  0  0  0  0
  -34.9942   64.7225   61.6235 O   0  0  0  0  0  0  0  0  0  0  0  0
  -36.0960   63.9518   61.9988 C   0  0  0  0  0  0  0  0  0  0  0  0
  -34.9128   64.7211   60.6568 H   0  0  0  0  0  0  0  0  0  0  0  0
  -33.2689   63.9254   65.7638 O   0  0  0  0  0  0  0  0  0  0  0  0
  -32.9934   66.4829   65.4461 O   0  0  0  0  0  0  0  0  0  0  0  0
  -31.6843   64.9594   64.0843 O   0  0  0  0  0  0  0  0  0  0  0  0
  -31.1121   65.3115   66.4129 O   0  0  0  0  0  0  0  0  0  0  0  0
  -32.2393   65.1944   65.4449 S   0  0  0  0  0  0  0  0  0  0  0  0
  -33.7325   66.4255   64.8206 H   0  0  0  0  0  0  0  0  0  0  0  0
  -31.4651   65.4649   67.3033 H   0  0  0  0  0  0  0  0  0  0  0  0
  2  1  1  0  0  0
  2  4  1  0  0  0
  2  5  1  0  0  0
 41 42  1  0  0  0
 41  1  1  0  0  0
 42 46  1  0  0  0
  1 24  1  0  0  0
 23 24  1  0  0  0
 23 25  1  0  0  0
 24 26  1  0  0  0
  3  4  2  0  0  0
 26 27  2  0  0  0
 27 28  1  0  0  0
 43 47  1  0  0  0
 43 51  1  0  0  0
 28 29  1  0  0  0
 56 48  1  0  0  0
 56 60  1  0  0  0
 29 30  1  0  0  0
 57 60  1  0  0  0
 57 61  1  0  0  0
 30 31  1  0  0  0
 44 49  1  0  0  0
 44 52  1  0  0  0
 31 32  1  0  0  0
 45 46  1  0  0  0
 45 50  1  0  0  0
 32 33  1  0  0  0
 53 54  1  0  0  0
 53 55  1  0  0  0
 33 34  1  0  0  0
 34 35  1  0  0  0
 35 36  1  0  0  0
 58 60  1  0  0  0
 36 37  1  0  0  0
 59 60  1  0  0  0
 59 62  1  0  0  0
 37 38  1  0  0  0
 38 39  1  0  0  0
 39 40  1  0  0  0
  4  6  1  0  0  0
  6  7  1  0  0  0
  7  8  1  0  0  0
  8  9  1  0  0  0
  9 10  1  0  0  0
 10 11  1  0  0  0
 11 12  1  0  0  0
 12 13  1  0  0  0
 13 14  1  0  0  0
 14 15  1  0  0  0
 15 16  1  0  0  0
 16 17  1  0  0  0
 17 18  1  0  0  0
 18 19  1  0  0  0
 19 20  1  0  0  0
 20 21  1  0  0  0
 21 22  1  0  0  0
 46 47  1  0  0  0
 47 48  1  0  0  0
 48 49  1  0  0  0
 49 50  1  0  0  0
 50 54  1  0  0  0
M  CHG 1  58  -1
M  END
> <minimizedAffinity>
-9.18661

> <CNNscore>
0.2793639600

> <CNNaffinity>
7.0883994102

> <CNN_VS>
1.9802433252

> <CNNaffinity_variance>
1.6509330273

$$$$
/media/chris/experiments/cd1a-new-docking/inputs/ligands/1onq_ligand.pdb


 62 62  0  0  0  0  0  0  0  0999 V2000
  -41.4230   59.4500   65.0499 C   0  0  0  0  0  0  0  0  0  0  0  0
  -42.2222   60.0629   64.0074 N   0  0  0  0  0  0  0  0  0  0  0  0
  -42.4797   62.1776   64.7880 O   0  0  0  0  0  0  0  0  0  0  0  0
  -42.6758   61.3223   63.9466 C   0  0  0  0  0  0  0  0  0  0  0  0
  -42.4615   59.4815   63.2498 H   0  0  0  0  0  0  0  0  0  0  0  0
  -43.4752   61.6537   62.7215 C   0  0  0  0  0  0  0  0  0  0  0  0
  -42.4896   62.2253   61.7023 C   0  0  0  0  0  0  0  0  0  0  0  0
  -41.9505   61.1067   60.8139 C   0  0  0  0  0  0  0  0  0  0  0  0
  -40.5074   60.7222   61.0335 C   0  0  0  0  0  0  0  0  0  0  0  0
  -40.0590   59.9064   59.8254 C   0  0  0  0  0  0  0  0  0  0  0  0
  -41.0283   58.7657   59.4874 C   0  0  0  0  0  0  0  0  0  0  0  0
  -40.6209   57.3978   60.0649 C   0  0  0  0  0  0  0  0  0  0  0  0
  -41.0473   57.2171   61.5383 C   0  0  0  0  0  0  0  0  0  0  0  0
  -39.8254   57.2426   62.4610 C   0  0  0  0  0  0  0  0  0  0  0  0
  -38.4804   57.1308   61.7534 C   0  0  0  0  0  0  0  0  0  0  0  0
  -37.3634   57.8181   62.5248 C   0  0  0  0  0  0  0  0  0  0  0  0
  -37.5352   57.8774   64.0444 C   0  0  0  0  0  0  0  0  0  0  0  0
  -36.1577   57.7641   64.6837 C   0  0  0  0  0  0  0  0  0  0  0  0
  -35.1755   58.9128   64.5079 C   0  0  0  0  0  0  0  0  0  0  0  0
  -33.7558   58.4897   64.9171 C   0  0  0  0  0  0  0  0  0  0  0  0
  -32.7261   58.5180   63.7726 C   0  0  0  0  0  0  0  0  0  0  0  0
  -33.3561   58.3706   62.3895 C   0  0  0  0  0  0  0  0  0  0  0  0
  -41.9940   57.9495   66.7286 O   0  0  0  0  0  0  0  0  0  0  0  0
  -42.4556   59.1415   66.1204 C   0  0  0  0  0  0  0  0  0  0  0  0
  -41.1254   58.1071   67.1305 H   0  0  0  0  0  0  0  0  0  0  0  0
  -43.8268   58.9609   65.4649 C   0  0  0  0  0  0  0  0  0  0  0  0
  -44.9817   59.0575   66.1455 C   0  0  0  0  0  0  0  0  0  0  0  0
  -46.3111   58.8629   65.4185 C   0  0  0  0  0  0  0  0  0  0  0  0
  -46.6777   60.0168   64.4738 C   0  0  0  0  0  0  0  0  0  0  0  0
  -48.0788   60.6232   64.6746 C   0  0  0  0  0  0  0  0  0  0  0  0
  -48.8265   59.9089   65.8262 C   0  0  0  0  0  0  0  0  0  0  0  0
  -50.2453   59.3939   65.4748 C   0  0  0  0  0  0  0  0  0  0  0  0
  -51.0238   60.3020   64.4940 C   0  0  0  0  0  0  0  0  0  0  0  0
  -51.3652   59.6144   63.1544 C   0  0  0  0  0  0  0  0  0  0  0  0
  -50.4824   58.4007   62.8403 C   0  0  0  0  0  0  0  0  0  0  0  0
  -49.3499   58.6344   61.8427 C   0  0  0  0  0  0  0  0  0  0  0  0
  -49.5107   57.8591   60.5202 C   0  0  0  0  0  0  0  0  0  0  0  0
  -49.2720   58.6823   59.2454 C   0  0  0  0  0  0  0  0  0  0  0  0
  -48.1298   58.0905   58.4145 C   0  0  0  0  0  0  0  0  0  0  0  0
  -47.3434   56.9609   59.0558 C   0  0  0  0  0  0  0  0  0  0  0  0
  -40.1756   60.2498   65.4894 C   0  0  0  0  0  0  0  0  0  0  0  0
  -39.4604   60.9600   64.4466 O   0  0  0  0  0  0  0  0  0  0  0  0
  -37.6650   61.4855   62.2838 O   0  0  0  0  0  0  0  0  0  0  0  0
  -36.2009   64.3909   64.8944 O   0  0  0  0  0  0  0  0  0  0  0  0
  -37.7422   61.9629   65.8350 O   0  0  0  0  0  0  0  0  0  0  0  0
  -38.0271   61.2857   64.5868 C   0  0  0  0  0  0  0  0  0  0  0  0
  -37.4213   62.1600   63.4796 C   0  0  0  0  0  0  0  0  0  0  0  0
  -35.8972   62.3680   63.6174 C   0  0  0  0  0  0  0  0  0  0  0  0
  -35.6849   63.0626   64.9341 C   0  0  0  0  0  0  0  0  0  0  0  0
  -36.3364   62.2628   66.0478 C   0  0  0  0  0  0  0  0  0  0  0  0
  -38.6192   61.3458   62.1801 H   0  0  0  0  0  0  0  0  0  0  0  0
  -35.7718   64.8831   64.1770 H   0  0  0  0  0  0  0  0  0  0  0  0
  -34.6409   63.3348   67.3476 O   0  0  0  0  0  0  0  0  0  0  0  0
  -36.0192   63.1285   67.2651 C   0  0  0  0  0  0  0  0  0  0  0  0
  -34.4420   63.8849   68.1215 H   0  0  0  0  0  0  0  0  0  0  0  0
  -35.2783   63.2072   62.6161 O   0  0  0  0  0  0  0  0  0  0  0  0
  -33.3559   63.7170   60.9542 O   0  0  0  0  0  0  0  0  0  0  0  0
  -33.1533   61.8410   62.4803 O   0  0  0  0  0  0  0  0  0  0  0  0
  -32.8860   64.1085   63.2935 O   0  0  0  0  0  0  0  0  0  0  0  0
  -33.6366   63.2416   62.3413 S   0  0  0  0  0  0  0  0  0  0  0  0
  -33.8370   63.1636   60.3192 H   0  0  0  0  0  0  0  0  0  0  0  0
  -33.1950   65.0241   63.2095 H   0  0  0  0  0  0  0  0  0  0  0  0
  2  1  1  0  0  0
  2  4  1  0  0  0
  2  5  1  0  0  0
 41 42  1  0  0  0
 41  1  1  0  0  0
 42 46  1  0  0  0
  1 24  1  0  0  0
 23 24  1  0  0  0
 23 25  1  0  0  0
 24 26  1  0  0  0
  3  4  2  0  0  0
 26 27  2  0  0  0
 27 28  1  0  0  0
 43 47  1  0  0  0
 43 51  1  0  0  0
 28 29  1  0  0  0
 56 48  1  0  0  0
 56 60  1  0  0  0
 29 30  1  0  0  0
 57 60  1  0  0  0
 57 61  1  0  0  0
 30 31  1  0  0  0
 44 49  1  0  0  0
 44 52  1  0  0  0
 31 32  1  0  0  0
 45 46  1  0  0  0
 45 50  1  0  0  0
 32 33  1  0  0  0
 53 54  1  0  0  0
 53 55  1  0  0  0
 33 34  1  0  0  0
 34 35  1  0  0  0
 35 36  1  0  0  0
 58 60  1  0  0  0
 36 37  1  0  0  0
 59 60  1  0  0  0
 59 62  1  0  0  0
 37 38  1  0  0  0
 38 39  1  0  0  0
 39 40  1  0  0  0
  4  6  1  0  0  0
  6  7  1  0  0  0
  7  8  1  0  0  0
  8  9  1  0  0  0
  9 10  1  0  0  0
 10 11  1  0  0  0
 11 12  1  0  0  0
 12 13  1  0  0  0
 13 14  1  0  0  0
 14 15  1  0  0  0
 15 16  1  0  0  0
 16 17  1  0  0  0
 17 18  1  0  0  0
 18 19  1  0  0  0
 19 20  1  0  0  0
 20 21  1  0  0  0
 21 22  1  0  0  0
 46 47  1  0  0  0
 47 48  1  0  0  0
 48 49  1  0  0  0
 49 50  1  0  0  0
 50 54  1  0  0  0
M  CHG 1  58  -1
M  END
> <minimizedAffinity>
-9.47152

> <CNNscore>
0.2171592414

> <CNNaffinity>
7.2272849083

> <CNN_VS>
1.5694717169

> <CNNaffinity_variance>
1.9533332586

$$$$
/media/chris/experiments/cd1a-new-docking/inputs/ligands/1onq_ligand.pdb


 62 62  0  0  0  0  0  0  0  0999 V2000
  -41.4747   60.4882   64.3884 C   0  0  0  0  0  0  0  0  0  0  0  0
  -42.1848   59.2335   64.5383 N   0  0  0  0  0  0  0  0  0  0  0  0
  -41.7034   58.6688   66.6824 O   0  0  0  0  0  0  0  0  0  0  0  0
  -42.2502   58.4451   65.6199 C   0  0  0  0  0  0  0  0  0  0  0  0
  -42.6808   58.9217   63.7471 H   0  0  0  0  0  0  0  0  0  0  0  0
  -43.0812   57.2071   65.4573 C   0  0  0  0  0  0  0  0  0  0  0  0
  -44.4775   57.6735   65.0449 C   0  0  0  0  0  0  0  0  0  0  0  0
  -45.3925   57.7239   66.2662 C   0  0  0  0  0  0  0  0  0  0  0  0
  -46.8748   57.6643   65.9875 C   0  0  0  0  0  0  0  0  0  0  0  0
  -47.1912   58.7331   64.9464 C   0  0  0  0  0  0  0  0  0  0  0  0
  -47.7121   60.0341   65.5717 C   0  0  0  0  0  0  0  0  0  0  0  0
  -49.0803   59.8989   66.2648 C   0  0  0  0  0  0  0  0  0  0  0  0
  -50.1177   59.1454   65.4036 C   0  0  0  0  0  0  0  0  0  0  0  0
  -50.9955   60.1325   64.6290 C   0  0  0  0  0  0  0  0  0  0  0  0
  -51.3422   59.7087   63.2068 C   0  0  0  0  0  0  0  0  0  0  0  0
  -50.6097   58.4429   62.7869 C   0  0  0  0  0  0  0  0  0  0  0  0
  -49.3085   58.6477   62.0076 C   0  0  0  0  0  0  0  0  0  0  0  0
  -49.6338   59.4118   60.7312 C   0  0  0  0  0  0  0  0  0  0  0  0
  -49.8864   58.6244   59.4541 C   0  0  0  0  0  0  0  0  0  0  0  0
  -48.5625   58.2158   58.7890 C   0  0  0  0  0  0  0  0  0  0  0  0
  -48.1576   56.7483   59.0208 C   0  0  0  0  0  0  0  0  0  0  0  0
  -46.9933   56.2970   58.1422 C   0  0  0  0  0  0  0  0  0  0  0  0
  -43.4602   60.9424   63.2715 O   0  0  0  0  0  0  0  0  0  0  0  0
  -42.0587   61.0473   63.1024 C   0  0  0  0  0  0  0  0  0  0  0  0
  -43.7353   61.4796   64.0307 H   0  0  0  0  0  0  0  0  0  0  0  0
  -41.5573   60.2201   61.9163 C   0  0  0  0  0  0  0  0  0  0  0  0
  -40.6870   60.6947   61.0088 C   0  0  0  0  0  0  0  0  0  0  0  0
  -40.2350   59.8059   59.8515 C   0  0  0  0  0  0  0  0  0  0  0  0
  -41.2566   58.7285   59.4594 C   0  0  0  0  0  0  0  0  0  0  0  0
  -40.7952   57.2718   59.6497 C   0  0  0  0  0  0  0  0  0  0  0  0
  -41.5401   56.6100   60.8340 C   0  0  0  0  0  0  0  0  0  0  0  0
  -40.6377   56.1341   62.0005 C   0  0  0  0  0  0  0  0  0  0  0  0
  -39.7505   57.2456   62.6090 C   0  0  0  0  0  0  0  0  0  0  0  0
  -38.3347   57.3104   61.9965 C   0  0  0  0  0  0  0  0  0  0  0  0
  -37.4233   58.3522   62.6561 C   0  0  0  0  0  0  0  0  0  0  0  0
  -36.8863   57.9943   64.0402 C   0  0  0  0  0  0  0  0  0  0  0  0
  -35.3949   57.6052   64.0517 C   0  0  0  0  0  0  0  0  0  0  0  0
  -34.6293   57.9072   62.7546 C   0  0  0  0  0  0  0  0  0  0  0  0
  -33.1334   58.0874   63.0284 C   0  0  0  0  0  0  0  0  0  0  0  0
  -32.7635   58.7822   64.3269 C   0  0  0  0  0  0  0  0  0  0  0  0
  -39.9344   60.3961   64.4766 C   0  0  0  0  0  0  0  0  0  0  0  0
  -39.1922   61.5905   64.1217 O   0  0  0  0  0  0  0  0  0  0  0  0
  -37.2858   61.9124   62.0148 O   0  0  0  0  0  0  0  0  0  0  0  0
  -35.4152   64.3972   64.7944 O   0  0  0  0  0  0  0  0  0  0  0  0
  -37.3622   62.2199   65.5847 O   0  0  0  0  0  0  0  0  0  0  0  0
  -37.7282   61.6629   64.2989 C   0  0  0  0  0  0  0  0  0  0  0  0
  -36.9597   62.4763   63.2476 C   0  0  0  0  0  0  0  0  0  0  0  0
  -35.4258   62.4176   63.4174 C   0  0  0  0  0  0  0  0  0  0  0  0
  -35.1300   63.0007   64.7716 C   0  0  0  0  0  0  0  0  0  0  0  0
  -35.9312   62.2680   65.8326 C   0  0  0  0  0  0  0  0  0  0  0  0
  -38.2473   61.9406   61.8906 H   0  0  0  0  0  0  0  0  0  0  0  0
  -34.8937   64.8450   64.1100 H   0  0  0  0  0  0  0  0  0  0  0  0
  -36.3766   64.0661   67.3431 O   0  0  0  0  0  0  0  0  0  0  0  0
  -35.5010   63.0067   67.0979 C   0  0  0  0  0  0  0  0  0  0  0  0
  -36.1013   64.5336   68.1473 H   0  0  0  0  0  0  0  0  0  0  0  0
  -34.6527   63.1891   62.4702 O   0  0  0  0  0  0  0  0  0  0  0  0
  -32.6502   61.5633   62.2164 O   0  0  0  0  0  0  0  0  0  0  0  0
  -32.3696   63.6218   63.4706 O   0  0  0  0  0  0  0  0  0  0  0  0
  -32.4751   63.6739   61.0498 O   0  0  0  0  0  0  0  0  0  0  0  0
  -33.0090   63.0114   62.2735 S   0  0  0  0  0  0  0  0  0  0  0  0
  -32.9902   61.1146   63.0064 H   0  0  0  0  0  0  0  0  0  0  0  0
  -32.8870   63.2817   60.2640 H   0  0  0  0  0  0  0  0  0  0  0  0
  2  1  1  0  0  0
  2  4  1  0  0  0
  2  5  1  0  0  0
 41 42  1  0  0  0
 41  1  1  0  0  0
 42 46  1  0  0  0
  1 24  1  0  0  0
 23 24  1  0  0  0
 23 25  1  0  0  0
 24 26  1  0  0  0
  3  4  2  0  0  0
 26 27  2  0  0  0
 27 28  1  0  0  0
 43 47  1  0  0  0
 43 51  1  0  0  0
 28 29  1  0  0  0
 56 48  1  0  0  0
 56 60  1  0  0  0
 29 30  1  0  0  0
 57 60  1  0  0  0
 57 61  1  0  0  0
 30 31  1  0  0  0
 44 49  1  0  0  0
 44 52  1  0  0  0
 31 32  1  0  0  0
 45 46  1  0  0  0
 45 50  1  0  0  0
 32 33  1  0  0  0
 53 54  1  0  0  0
 53 55  1  0  0  0
 33 34  1  0  0  0
 34 35  1  0  0  0
 35 36  1  0  0  0
 58 60  1  0  0  0
 36 37  1  0  0  0
 59 60  1  0  0  0
 59 62  1  0  0  0
 37 38  1  0  0  0
 38 39  1  0  0  0
 39 40  1  0  0  0
  4  6  1  0  0  0
  6  7  1  0  0  0
  7  8  1  0  0  0
  8  9  1  0  0  0
  9 10  1  0  0  0
 10 11  1  0  0  0
 11 12  1  0  0  0
 12 13  1  0  0  0
 13 14  1  0  0  0
 14 15  1  0  0  0
 15 16  1  0  0  0
 16 17  1  0  0  0
 17 18  1  0  0  0
 18 19  1  0  0  0
 19 20  1  0  0  0
 20 21  1  0  0  0
 21 22  1  0  0  0
 46 47  1  0  0  0
 47 48  1  0  0  0
 48 49  1  0  0  0
 49 50  1  0  0  0
 50 54  1  0  0  0
M  CHG 1  58  -1
M  END
> <minimizedAffinity>
-9.55722

> <CNNscore>
0.1744756401

> <CNNaffinity>
7.1358261108

> <CNN_VS>
1.2450277805

> <CNNaffinity_variance>
1.6557285786

$$$$
/media/chris/experiments/cd1a-new-docking/inputs/ligands/1onq_ligand.pdb


 62 62  0  0  0  0  0  0  0  0999 V2000
  -41.4403   60.5061   64.4568 C   0  0  0  0  0  0  0  0  0  0  0  0
  -42.0535   59.2401   64.8066 N   0  0  0  0  0  0  0  0  0  0  0  0
  -41.7192   59.1543   67.0490 O   0  0  0  0  0  0  0  0  0  0  0  0
  -42.1487   58.6747   66.0178 C   0  0  0  0  0  0  0  0  0  0  0  0
  -42.4494   58.7325   64.0617 H   0  0  0  0  0  0  0  0  0  0  0  0
  -42.8556   57.3523   66.0504 C   0  0  0  0  0  0  0  0  0  0  0  0
  -43.0224   56.9140   64.5953 C   0  0  0  0  0  0  0  0  0  0  0  0
  -41.9190   55.9286   64.2177 C   0  0  0  0  0  0  0  0  0  0  0  0
  -40.9270   56.4070   63.1855 C   0  0  0  0  0  0  0  0  0  0  0  0
  -41.1735   55.6132   61.9068 C   0  0  0  0  0  0  0  0  0  0  0  0
  -41.3897   56.5130   60.6826 C   0  0  0  0  0  0  0  0  0  0  0  0
  -41.6838   57.9852   61.0241 C   0  0  0  0  0  0  0  0  0  0  0  0
  -41.0047   58.9744   60.0515 C   0  0  0  0  0  0  0  0  0  0  0  0
  -39.9883   58.2486   59.1656 C   0  0  0  0  0  0  0  0  0  0  0  0
  -38.5423   58.6959   59.3433 C   0  0  0  0  0  0  0  0  0  0  0  0
  -38.1718   58.8832   60.8071 C   0  0  0  0  0  0  0  0  0  0  0  0
  -37.9065   57.6022   61.6014 C   0  0  0  0  0  0  0  0  0  0  0  0
  -37.2728   57.9894   62.9308 C   0  0  0  0  0  0  0  0  0  0  0  0
  -35.8443   58.5132   62.9327 C   0  0  0  0  0  0  0  0  0  0  0  0
  -35.3514   58.7610   64.3671 C   0  0  0  0  0  0  0  0  0  0  0  0
  -33.8674   59.1583   64.4728 C   0  0  0  0  0  0  0  0  0  0  0  0
  -33.0743   58.2803   65.4379 C   0  0  0  0  0  0  0  0  0  0  0  0
  -42.3623   62.4884   63.6718 O   0  0  0  0  0  0  0  0  0  0  0  0
  -42.4301   61.0899   63.4633 C   0  0  0  0  0  0  0  0  0  0  0  0
  -41.4644   62.8008   63.4795 H   0  0  0  0  0  0  0  0  0  0  0  0
  -43.8257   60.5310   63.7503 C   0  0  0  0  0  0  0  0  0  0  0  0
  -44.8205   61.2747   64.2636 C   0  0  0  0  0  0  0  0  0  0  0  0
  -46.1867   60.6423   64.5226 C   0  0  0  0  0  0  0  0  0  0  0  0
  -46.1373   59.1230   64.7405 C   0  0  0  0  0  0  0  0  0  0  0  0
  -47.4215   58.4885   65.3056 C   0  0  0  0  0  0  0  0  0  0  0  0
  -48.4217   59.5806   65.7553 C   0  0  0  0  0  0  0  0  0  0  0  0
  -49.9184   59.1977   65.6337 C   0  0  0  0  0  0  0  0  0  0  0  0
  -50.7732   60.2237   64.8530 C   0  0  0  0  0  0  0  0  0  0  0  0
  -51.1992   59.7339   63.4521 C   0  0  0  0  0  0  0  0  0  0  0  0
  -50.0365   59.6133   62.4597 C   0  0  0  0  0  0  0  0  0  0  0  0
  -49.6482   58.1943   62.0498 C   0  0  0  0  0  0  0  0  0  0  0  0
  -50.4879   57.6263   60.8887 C   0  0  0  0  0  0  0  0  0  0  0  0
  -50.0355   58.0522   59.4838 C   0  0  0  0  0  0  0  0  0  0  0  0
  -48.6085   57.5757   59.1976 C   0  0  0  0  0  0  0  0  0  0  0  0
  -47.8115   58.3936   58.1968 C   0  0  0  0  0  0  0  0  0  0  0  0
  -39.9625   60.4292   64.0107 C   0  0  0  0  0  0  0  0  0  0  0  0
  -39.2325   61.6816   63.9671 O   0  0  0  0  0  0  0  0  0  0  0  0
  -37.2525   62.0798   61.9427 O   0  0  0  0  0  0  0  0  0  0  0  0
  -35.4485   64.4030   64.9004 O   0  0  0  0  0  0  0  0  0  0  0  0
  -37.4458   62.2158   65.5188 O   0  0  0  0  0  0  0  0  0  0  0  0
  -37.7745   61.7262   64.1960 C   0  0  0  0  0  0  0  0  0  0  0  0
  -36.9618   62.5793   63.2116 C   0  0  0  0  0  0  0  0  0  0  0  0
  -35.4352   62.4925   63.4291 C   0  0  0  0  0  0  0  0  0  0  0  0
  -35.1787   63.0056   64.8191 C   0  0  0  0  0  0  0  0  0  0  0  0
  -36.0235   62.2332   65.8160 C   0  0  0  0  0  0  0  0  0  0  0  0
  -38.2089   62.1266   61.7882 H   0  0  0  0  0  0  0  0  0  0  0  0
  -34.8991   64.8764   64.2561 H   0  0  0  0  0  0  0  0  0  0  0  0
  -36.4671   63.9934   67.3709 O   0  0  0  0  0  0  0  0  0  0  0  0
  -35.6279   62.9043   67.1294 C   0  0  0  0  0  0  0  0  0  0  0  0
  -36.2139   64.4180   68.2056 H   0  0  0  0  0  0  0  0  0  0  0  0
  -34.6218   63.2985   62.5467 O   0  0  0  0  0  0  0  0  0  0  0  0
  -32.5635   63.6522   61.0119 O   0  0  0  0  0  0  0  0  0  0  0  0
  -32.8324   61.5465   62.1879 O   0  0  0  0  0  0  0  0  0  0  0  0
  -32.1248   63.5306   63.3865 O   0  0  0  0  0  0  0  0  0  0  0  0
  -32.9999   63.0214   62.2928 S   0  0  0  0  0  0  0  0  0  0  0  0
  -33.1228   63.3321   60.2869 H   0  0  0  0  0  0  0  0  0  0  0  0
  -32.2278   64.4922   63.4619 H   0  0  0  0  0  0  0  0  0  0  0  0
  2  1  1  0  0  0
  2  4  1  0  0  0
  2  5  1  0  0  0
 41 42  1  0  0  0
 41  1  1  0  0  0
 42 46  1  0  0  0
  1 24  1  0  0  0
 23 24  1  0  0  0
 23 25  1  0  0  0
 24 26  1  0  0  0
  3  4  2  0  0  0
 26 27  2  0  0  0
 27 28  1  0  0  0
 43 47  1  0  0  0
 43 51  1  0  0  0
 28 29  1  0  0  0
 56 48  1  0  0  0
 56 60  1  0  0  0
 29 30  1  0  0  0
 57 60  1  0  0  0
 57 61  1  0  0  0
 30 31  1  0  0  0
 44 49  1  0  0  0
 44 52  1  0  0  0
 31 32  1  0  0  0
 45 46  1  0  0  0
 45 50  1  0  0  0
 32 33  1  0  0  0
 53 54  1  0  0  0
 53 55  1  0  0  0
 33 34  1  0  0  0
 34 35  1  0  0  0
 35 36  1  0  0  0
 58 60  1  0  0  0
 36 37  1  0  0  0
 59 60  1  0  0  0
 59 62  1  0  0  0
 37 38  1  0  0  0
 38 39  1  0  0  0
 39 40  1  0  0  0
  4  6  1  0  0  0
  6  7  1  0  0  0
  7  8  1  0  0  0
  8  9  1  0  0  0
  9 10  1  0  0  0
 10 11  1  0  0  0
 11 12  1  0  0  0
 12 13  1  0  0  0
 13 14  1  0  0  0
 14 15  1  0  0  0
 15 16  1  0  0  0
 16 17  1  0  0  0
 17 18  1  0  0  0
 18 19  1  0  0  0
 19 20  1  0  0  0
 20 21  1  0  0  0
 21 22  1  0  0  0
 46 47  1  0  0  0
 47 48  1  0  0  0
 48 49  1  0  0  0
 49 50  1  0  0  0
 50 54  1  0  0  0
M  CHG 1  58  -1
M  END
> <minimizedAffinity>
-9.56804

> <CNNscore>
0.1640849113

> <CNNaffinity>
7.1284346581

> <CNN_VS>
1.1696685553

> <CNNaffinity_variance>
1.8219244480

$$$$
/media/chris/experiments/cd1a-new-docking/inputs/ligands/1onq_ligand.pdb


 62 62  0  0  0  0  0  0  0  0999 V2000
  -39.9966   60.5550   65.2495 C   0  0  0  0  0  0  0  0  0  0  0  0
  -40.7391   59.3689   65.6279 N   0  0  0  0  0  0  0  0  0  0  0  0
  -42.5570   60.2548   66.6563 O   0  0  0  0  0  0  0  0  0  0  0  0
  -41.9111   59.2987   66.2736 C   0  0  0  0  0  0  0  0  0  0  0  0
  -40.3316   58.5078   65.3794 H   0  0  0  0  0  0  0  0  0  0  0  0
  -42.4262   57.9101   66.5108 C   0  0  0  0  0  0  0  0  0  0  0  0
  -43.9506   57.9938   66.4309 C   0  0  0  0  0  0  0  0  0  0  0  0
  -44.4043   57.8700   64.9783 C   0  0  0  0  0  0  0  0  0  0  0  0
  -45.4172   58.8867   64.5107 C   0  0  0  0  0  0  0  0  0  0  0  0
  -45.6646   59.8544   65.6633 C   0  0  0  0  0  0  0  0  0  0  0  0
  -47.1484   59.9604   66.0404 C   0  0  0  0  0  0  0  0  0  0  0  0
  -48.0173   58.8004   65.5208 C   0  0  0  0  0  0  0  0  0  0  0  0
  -49.3643   59.2757   64.9333 C   0  0  0  0  0  0  0  0  0  0  0  0
  -49.1376   60.3323   63.8485 C   0  0  0  0  0  0  0  0  0  0  0  0
  -49.8569   60.0689   62.5311 C   0  0  0  0  0  0  0  0  0  0  0  0
  -51.0570   59.1493   62.7025 C   0  0  0  0  0  0  0  0  0  0  0  0
  -51.0985   57.9227   61.7882 C   0  0  0  0  0  0  0  0  0  0  0  0
  -49.8007   57.8783   60.9927 C   0  0  0  0  0  0  0  0  0  0  0  0
  -49.8575   58.1159   59.4909 C   0  0  0  0  0  0  0  0  0  0  0  0
  -48.5371   58.7124   58.9784 C   0  0  0  0  0  0  0  0  0  0  0  0
  -47.5694   57.6857   58.3613 C   0  0  0  0  0  0  0  0  0  0  0  0
  -46.8731   58.1936   57.1010 C   0  0  0  0  0  0  0  0  0  0  0  0
  -41.2493   61.7001   63.6636 O   0  0  0  0  0  0  0  0  0  0  0  0
  -40.2868   60.6669   63.7627 C   0  0  0  0  0  0  0  0  0  0  0  0
  -40.8706   62.5279   63.9985 H   0  0  0  0  0  0  0  0  0  0  0  0
  -40.8225   59.3285   63.2486 C   0  0  0  0  0  0  0  0  0  0  0  0
  -41.9357   59.2235   62.5032 C   0  0  0  0  0  0  0  0  0  0  0  0
  -42.4064   57.8498   62.0288 C   0  0  0  0  0  0  0  0  0  0  0  0
  -41.2622   56.8881   61.6763 C   0  0  0  0  0  0  0  0  0  0  0  0
  -41.1066   56.5573   60.1805 C   0  0  0  0  0  0  0  0  0  0  0  0
  -41.1494   57.8466   59.3254 C   0  0  0  0  0  0  0  0  0  0  0  0
  -39.7713   58.4912   59.0305 C   0  0  0  0  0  0  0  0  0  0  0  0
  -39.5330   59.8363   59.7562 C   0  0  0  0  0  0  0  0  0  0  0  0
  -38.2316   59.8680   60.5865 C   0  0  0  0  0  0  0  0  0  0  0  0
  -37.6011   58.4866   60.7999 C   0  0  0  0  0  0  0  0  0  0  0  0
  -37.8671   57.8290   62.1524 C   0  0  0  0  0  0  0  0  0  0  0  0
  -36.5916   57.3759   62.8897 C   0  0  0  0  0  0  0  0  0  0  0  0
  -36.1710   58.2593   64.0740 C   0  0  0  0  0  0  0  0  0  0  0  0
  -34.6497   58.4287   64.1207 C   0  0  0  0  0  0  0  0  0  0  0  0
  -33.9282   58.4205   62.7847 C   0  0  0  0  0  0  0  0  0  0  0  0
  -38.5115   60.5753   65.6771 C   0  0  0  0  0  0  0  0  0  0  0  0
  -37.8074   61.8328   65.5151 O   0  0  0  0  0  0  0  0  0  0  0  0
  -36.4569   61.5289   63.0130 O   0  0  0  0  0  0  0  0  0  0  0  0
  -34.0035   64.5220   64.5694 O   0  0  0  0  0  0  0  0  0  0  0  0
  -35.6887   62.7082   66.3090 O   0  0  0  0  0  0  0  0  0  0  0  0
  -36.3437   61.8716   65.3249 C   0  0  0  0  0  0  0  0  0  0  0  0
  -35.8532   62.3612   63.9548 C   0  0  0  0  0  0  0  0  0  0  0  0
  -34.3222   62.2678   63.7743 C   0  0  0  0  0  0  0  0  0  0  0  0
  -33.7195   63.1500   64.8324 C   0  0  0  0  0  0  0  0  0  0  0  0
  -34.2402   62.7426   66.1989 C   0  0  0  0  0  0  0  0  0  0  0  0
  -37.4207   61.5748   63.1116 H   0  0  0  0  0  0  0  0  0  0  0  0
  -33.6628   64.7605   63.6930 H   0  0  0  0  0  0  0  0  0  0  0  0
  -34.3895   64.8072   67.3940 O   0  0  0  0  0  0  0  0  0  0  0  0
  -33.5293   63.7468   67.1033 C   0  0  0  0  0  0  0  0  0  0  0  0
  -33.9357   65.4436   67.9686 H   0  0  0  0  0  0  0  0  0  0  0  0
  -33.8022   62.7422   62.5116 O   0  0  0  0  0  0  0  0  0  0  0  0
  -31.9579   63.2935   60.7761 O   0  0  0  0  0  0  0  0  0  0  0  0
  -31.9850   61.1139   61.8429 O   0  0  0  0  0  0  0  0  0  0  0  0
  -31.2379   63.0641   63.0729 O   0  0  0  0  0  0  0  0  0  0  0  0
  -32.2099   62.5693   62.0571 S   0  0  0  0  0  0  0  0  0  0  0  0
  -32.5824   62.9841   60.1015 H   0  0  0  0  0  0  0  0  0  0  0  0
  -31.3776   64.0128   63.2188 H   0  0  0  0  0  0  0  0  0  0  0  0
  2  1  1  0  0  0
  2  4  1  0  0  0
  2  5  1  0  0  0
 41 42  1  0  0  0
 41  1  1  0  0  0
 42 46  1  0  0  0
  1 24  1  0  0  0
 23 24  1  0  0  0
 23 25  1  0  0  0
 24 26  1  0  0  0
  3  4  2  0  0  0
 26 27  2  0  0  0
 27 28  1  0  0  0
 43 47  1  0  0  0
 43 51  1  0  0  0
 28 29  1  0  0  0
 56 48  1  0  0  0
 56 60  1  0  0  0
 29 30  1  0  0  0
 57 60  1  0  0  0
 57 61  1  0  0  0
 30 31  1  0  0  0
 44 49  1  0  0  0
 44 52  1  0  0  0
 31 32  1  0  0  0
 45 46  1  0  0  0
 45 50  1  0  0  0
 32 33  1  0  0  0
 53 54  1  0  0  0
 53 55  1  0  0  0
 33 34  1  0  0  0
 34 35  1  0  0  0
 35 36  1  0  0  0
 58 60  1  0  0  0
 36 37  1  0  0  0
 59 60  1  0  0  0
 59 62  1  0  0  0
 37 38  1  0  0  0
 38 39  1  0  0  0
 39 40  1  0  0  0
  4  6  1  0  0  0
  6  7  1  0  0  0
  7  8  1  0  0  0
  8  9  1  0  0  0
  9 10  1  0  0  0
 10 11  1  0  0  0
 11 12  1  0  0  0
 12 13  1  0  0  0
 13 14  1  0  0  0
 14 15  1  0  0  0
 15 16  1  0  0  0
 16 17  1  0  0  0
 17 18  1  0  0  0
 18 19  1  0  0  0
 19 20  1  0  0  0
 20 21  1  0  0  0
 21 22  1  0  0  0
 46 47  1  0  0  0
 47 48  1  0  0  0
 48 49  1  0  0  0
 49 50  1  0  0  0
 50 54  1  0  0  0
M  CHG 1  58  -1
M  END
> <minimizedAffinity>
-9.11701

> <CNNscore>
0.1360181421

> <CNNaffinity>
7.0579557419

> <CNN_VS>
0.9600100517

> <CNNaffinity_variance>
1.3513034582

$$$$
/media/chris/experiments/cd1a-new-docking/inputs/ligands/1onq_ligand.pdb


 62 62  0  0  0  0  0  0  0  0999 V2000
  -37.8217   61.0837   64.2187 C   0  0  0  0  0  0  0  0  0  0  0  0
  -38.9014   60.1600   64.5051 N   0  0  0  0  0  0  0  0  0  0  0  0
  -39.9922   61.2133   66.1926 O   0  0  0  0  0  0  0  0  0  0  0  0
  -39.8675   60.2781   65.4261 C   0  0  0  0  0  0  0  0  0  0  0  0
  -38.9284   59.3444   63.9543 H   0  0  0  0  0  0  0  0  0  0  0  0
  -40.8502   59.1457   65.4683 C   0  0  0  0  0  0  0  0  0  0  0  0
  -42.0406   59.6354   66.2930 C   0  0  0  0  0  0  0  0  0  0  0  0
  -43.2986   59.6621   65.4282 C   0  0  0  0  0  0  0  0  0  0  0  0
  -43.8771   61.0263   65.1407 C   0  0  0  0  0  0  0  0  0  0  0  0
  -45.1951   60.8214   64.4011 C   0  0  0  0  0  0  0  0  0  0  0  0
  -46.2244   60.0402   65.2290 C   0  0  0  0  0  0  0  0  0  0  0  0
  -47.6771   60.1982   64.7440 C   0  0  0  0  0  0  0  0  0  0  0  0
  -48.7061   60.1140   65.8927 C   0  0  0  0  0  0  0  0  0  0  0  0
  -49.9868   59.4198   65.4206 C   0  0  0  0  0  0  0  0  0  0  0  0
  -50.9287   60.2926   64.6000 C   0  0  0  0  0  0  0  0  0  0  0  0
  -51.3033   59.6488   63.2733 C   0  0  0  0  0  0  0  0  0  0  0  0
  -50.3714   58.5403   62.7784 C   0  0  0  0  0  0  0  0  0  0  0  0
  -51.0413   57.8464   61.6000 C   0  0  0  0  0  0  0  0  0  0  0  0
  -50.3636   57.9031   60.2389 C   0  0  0  0  0  0  0  0  0  0  0  0
  -48.9508   57.3016   60.3027 C   0  0  0  0  0  0  0  0  0  0  0  0
  -48.2993   57.0545   58.9296 C   0  0  0  0  0  0  0  0  0  0  0  0
  -47.7803   58.3296   58.2690 C   0  0  0  0  0  0  0  0  0  0  0  0
  -37.2916   62.4124   62.3885 O   0  0  0  0  0  0  0  0  0  0  0  0
  -37.8285   61.1404   62.7007 C   0  0  0  0  0  0  0  0  0  0  0  0
  -36.3843   62.4721   62.7262 H   0  0  0  0  0  0  0  0  0  0  0  0
  -39.2637   60.9799   62.1939 C   0  0  0  0  0  0  0  0  0  0  0  0
  -39.5614   60.4542   60.9934 C   0  0  0  0  0  0  0  0  0  0  0  0
  -41.0206   60.3286   60.5591 C   0  0  0  0  0  0  0  0  0  0  0  0
  -41.9973   60.0969   61.7213 C   0  0  0  0  0  0  0  0  0  0  0  0
  -42.1415   58.6371   62.1898 C   0  0  0  0  0  0  0  0  0  0  0  0
  -41.9878   57.6604   60.9991 C   0  0  0  0  0  0  0  0  0  0  0  0
  -40.9013   56.5693   61.1742 C   0  0  0  0  0  0  0  0  0  0  0  0
  -39.8361   56.9024   62.2453 C   0  0  0  0  0  0  0  0  0  0  0  0
  -38.4728   57.3186   61.6520 C   0  0  0  0  0  0  0  0  0  0  0  0
  -37.3630   57.4686   62.6994 C   0  0  0  0  0  0  0  0  0  0  0  0
  -36.0699   58.1233   62.2183 C   0  0  0  0  0  0  0  0  0  0  0  0
  -34.8138   57.6666   62.9861 C   0  0  0  0  0  0  0  0  0  0  0  0
  -33.5089   58.3710   62.5850 C   0  0  0  0  0  0  0  0  0  0  0  0
  -32.5477   58.4661   63.7734 C   0  0  0  0  0  0  0  0  0  0  0  0
  -33.1760   58.4232   65.1551 C   0  0  0  0  0  0  0  0  0  0  0  0
  -36.4728   60.7634   64.9019 C   0  0  0  0  0  0  0  0  0  0  0  0
  -35.2771   60.9860   64.1119 O   0  0  0  0  0  0  0  0  0  0  0  0
  -33.0227   61.8196   62.5628 O   0  0  0  0  0  0  0  0  0  0  0  0
  -33.7541   65.4776   64.4291 O   0  0  0  0  0  0  0  0  0  0  0  0
  -34.6901   62.8353   65.5682 O   0  0  0  0  0  0  0  0  0  0  0  0
  -34.2101   61.8941   64.5776 C   0  0  0  0  0  0  0  0  0  0  0  0
  -33.5157   62.7322   63.4945 C   0  0  0  0  0  0  0  0  0  0  0  0
  -32.3327   63.5723   64.0236 C   0  0  0  0  0  0  0  0  0  0  0  0
  -32.9084   64.5111   65.0476 C   0  0  0  0  0  0  0  0  0  0  0  0
  -33.6681   63.7218   66.0985 C   0  0  0  0  0  0  0  0  0  0  0  0
  -33.7532   61.2821   62.2189 H   0  0  0  0  0  0  0  0  0  0  0  0
  -33.2494   65.9694   63.7624 H   0  0  0  0  0  0  0  0  0  0  0  0
  -33.0808   65.5696   67.4964 O   0  0  0  0  0  0  0  0  0  0  0  0
  -34.1674   64.8395   67.0114 C   0  0  0  0  0  0  0  0  0  0  0  0
  -33.4005   66.2788   68.0759 H   0  0  0  0  0  0  0  0  0  0  0  0
  -31.6593   64.4029   63.0507 O   0  0  0  0  0  0  0  0  0  0  0  0
  -31.5001   65.6709   60.7959 O   0  0  0  0  0  0  0  0  0  0  0  0
  -33.5797   64.5833   61.4137 O   0  0  0  0  0  0  0  0  0  0  0  0
  -31.6898   63.2641   60.6640 O   0  0  0  0  0  0  0  0  0  0  0  0
  -32.0965   64.4662   61.4455 S   0  0  0  0  0  0  0  0  0  0  0  0
  -31.7545   66.4649   61.2917 H   0  0  0  0  0  0  0  0  0  0  0  0
  -30.7236   63.1800   60.6795 H   0  0  0  0  0  0  0  0  0  0  0  0
  2  1  1  0  0  0
  2  4  1  0  0  0
  2  5  1  0  0  0
 41 42  1  0  0  0
 41  1  1  0  0  0
 42 46  1  0  0  0
  1 24  1  0  0  0
 23 24  1  0  0  0
 23 25  1  0  0  0
 24 26  1  0  0  0
  3  4  2  0  0  0
 26 27  2  0  0  0
 27 28  1  0  0  0
 43 47  1  0  0  0
 43 51  1  0  0  0
 28 29  1  0  0  0
 56 48  1  0  0  0
 56 60  1  0  0  0
 29 30  1  0  0  0
 57 60  1  0  0  0
 57 61  1  0  0  0
 30 31  1  0  0  0
 44 49  1  0  0  0
 44 52  1  0  0  0
 31 32  1  0  0  0
 45 46  1  0  0  0
 45 50  1  0  0  0
 32 33  1  0  0  0
 53 54  1  0  0  0
 53 55  1  0  0  0
 33 34  1  0  0  0
 34 35  1  0  0  0
 35 36  1  0  0  0
 58 60  1  0  0  0
 36 37  1  0  0  0
 59 60  1  0  0  0
 59 62  1  0  0  0
 37 38  1  0  0  0
 38 39  1  0  0  0
 39 40  1  0  0  0
  4  6  1  0  0  0
  6  7  1  0  0  0
  7  8  1  0  0  0
  8  9  1  0  0  0
  9 10  1  0  0  0
 10 11  1  0  0  0
 11 12  1  0  0  0
 12 13  1  0  0  0
 13 14  1  0  0  0
 14 15  1  0  0  0
 15 16  1  0  0  0
 16 17  1  0  0  0
 17 18  1  0  0  0
 18 19  1  0  0  0
 19 20  1  0  0  0
 20 21  1  0  0  0
 21 22  1  0  0  0
 46 47  1  0  0  0
 47 48  1  0  0  0
 48 49  1  0  0  0
 49 50  1  0  0  0
 50 54  1  0  0  0
M  CHG 1  58  -1
M  END
> <minimizedAffinity>
-9.18898

> <CNNscore>
0.1182610840

> <CNNaffinity>
6.8274116516

> <CNN_VS>
0.8074170947

> <CNNaffinity_variance>
1.1299663782

$$$$
