/media/chris/experiments/cd1a-new-docking/inputs/ligands/1onq_ligand.pdb


 62 62  0  0  0  0  0  0  0  0999 V2000
  -37.5581   59.2599   63.3965 C   0  0  0  0  0  0  0  0  0  0  0  0
  -38.9833   59.4174   63.6090 N   0  0  0  0  0  0  0  0  0  0  0  0
  -39.2378   61.6678   63.4724 O   0  0  0  0  0  0  0  0  0  0  0  0
  -39.6949   60.5528   63.6321 C   0  0  0  0  0  0  0  0  0  0  0  0
  -39.4918   58.5870   63.7546 H   0  0  0  0  0  0  0  0  0  0  0  0
  -41.1657   60.3787   63.8690 C   0  0  0  0  0  0  0  0  0  0  0  0
  -41.8761   61.0459   62.6912 C   0  0  0  0  0  0  0  0  0  0  0  0
  -43.3003   61.4262   63.0887 C   0  0  0  0  0  0  0  0  0  0  0  0
  -43.8400   60.7664   64.3345 C   0  0  0  0  0  0  0  0  0  0  0  0
  -45.2689   61.2603   64.5354 C   0  0  0  0  0  0  0  0  0  0  0  0
  -46.3187   60.1995   64.1784 C   0  0  0  0  0  0  0  0  0  0  0  0
  -47.7089   60.4555   64.7885 C   0  0  0  0  0  0  0  0  0  0  0  0
  -48.7721   60.8189   63.7288 C   0  0  0  0  0  0  0  0  0  0  0  0
  -50.1792   60.5077   64.2468 C   0  0  0  0  0  0  0  0  0  0  0  0
  -51.1740   60.0604   63.1826 C   0  0  0  0  0  0  0  0  0  0  0  0
  -50.8864   58.6539   62.6785 C   0  0  0  0  0  0  0  0  0  0  0  0
  -50.2174   58.5567   61.3054 C   0  0  0  0  0  0  0  0  0  0  0  0
  -49.7069   57.1335   61.1247 C   0  0  0  0  0  0  0  0  0  0  0  0
  -48.9899   56.7746   59.8316 C   0  0  0  0  0  0  0  0  0  0  0  0
  -48.2929   58.0049   59.2295 C   0  0  0  0  0  0  0  0  0  0  0  0
  -48.1349   57.9640   57.6984 C   0  0  0  0  0  0  0  0  0  0  0  0
  -46.6811   57.8578   57.2438 C   0  0  0  0  0  0  0  0  0  0  0  0
  -36.0741   57.5916   62.7561 O   0  0  0  0  0  0  0  0  0  0  0  0
  -37.4628   57.8591   62.8167 C   0  0  0  0  0  0  0  0  0  0  0  0
  -35.7010   57.6144   63.6512 H   0  0  0  0  0  0  0  0  0  0  0  0
  -38.1152   57.8380   61.4324 C   0  0  0  0  0  0  0  0  0  0  0  0
  -37.8792   58.7744   60.4978 C   0  0  0  0  0  0  0  0  0  0  0  0
  -38.5709   58.6836   59.1388 C   0  0  0  0  0  0  0  0  0  0  0  0
  -39.9453   58.0001   59.1853 C   0  0  0  0  0  0  0  0  0  0  0  0
  -41.0576   58.7882   59.9017 C   0  0  0  0  0  0  0  0  0  0  0  0
  -41.8812   57.8591   60.8257 C   0  0  0  0  0  0  0  0  0  0  0  0
  -41.4746   56.3640   60.7930 C   0  0  0  0  0  0  0  0  0  0  0  0
  -41.1394   55.7683   62.1807 C   0  0  0  0  0  0  0  0  0  0  0  0
  -41.2004   56.8009   63.3271 C   0  0  0  0  0  0  0  0  0  0  0  0
  -42.3400   56.5523   64.3224 C   0  0  0  0  0  0  0  0  0  0  0  0
  -42.2288   57.2734   65.6640 C   0  0  0  0  0  0  0  0  0  0  0  0
  -43.5674   57.8292   66.1887 C   0  0  0  0  0  0  0  0  0  0  0  0
  -44.8225   57.2728   65.4996 C   0  0  0  0  0  0  0  0  0  0  0  0
  -46.0458   57.3810   66.4145 C   0  0  0  0  0  0  0  0  0  0  0  0
  -46.0034   58.4693   67.4724 C   0  0  0  0  0  0  0  0  0  0  0  0
  -36.6642   59.5754   64.6172 C   0  0  0  0  0  0  0  0  0  0  0  0
  -35.2635   59.8352   64.3451 O   0  0  0  0  0  0  0  0  0  0  0  0
  -33.1087   61.1313   62.9835 O   0  0  0  0  0  0  0  0  0  0  0  0
  -35.2334   64.5756   63.9943 O   0  0  0  0  0  0  0  0  0  0  0  0
  -35.5392   61.9595   65.4838 O   0  0  0  0  0  0  0  0  0  0  0  0
  -34.6230   61.0968   64.7671 C   0  0  0  0  0  0  0  0  0  0  0  0
  -34.0175   61.9548   63.6468 C   0  0  0  0  0  0  0  0  0  0  0  0
  -33.2601   63.1994   64.1591 C   0  0  0  0  0  0  0  0  0  0  0  0
  -34.2715   64.0335   64.8959 C   0  0  0  0  0  0  0  0  0  0  0  0
  -34.9464   63.1953   65.9666 C   0  0  0  0  0  0  0  0  0  0  0  0
  -33.5675   60.3427   62.6541 H   0  0  0  0  0  0  0  0  0  0  0  0
  -34.7812   65.1063   63.3199 H   0  0  0  0  0  0  0  0  0  0  0  0
  -36.2103   63.8461   67.8882 O   0  0  0  0  0  0  0  0  0  0  0  0
  -35.9186   64.2059   66.5712 C   0  0  0  0  0  0  0  0  0  0  0  0
  -36.8278   64.4895   68.2699 H   0  0  0  0  0  0  0  0  0  0  0  0
  -32.6929   64.0590   63.1445 O   0  0  0  0  0  0  0  0  0  0  0  0
  -32.4616   62.7925   60.8952 O   0  0  0  0  0  0  0  0  0  0  0  0
  -32.6012   65.2152   60.8961 O   0  0  0  0  0  0  0  0  0  0  0  0
  -34.5824   63.8797   61.3027 O   0  0  0  0  0  0  0  0  0  0  0  0
  -33.1133   63.9730   61.5358 S   0  0  0  0  0  0  0  0  0  0  0  0
  -31.5030   62.8360   61.0367 H   0  0  0  0  0  0  0  0  0  0  0  0
  -34.9249   63.0721   61.7168 H   0  0  0  0  0  0  0  0  0  0  0  0
  2  1  1  0  0  0
  2  4  1  0  0  0
  2  5  1  0  0  0
 41 42  1  0  0  0
 41  1  1  0  0  0
 42 46  1  0  0  0
  1 24  1  0  0  0
 23 24  1  0  0  0
 23 25  1  0  0  0
 24 26  1  0  0  0
  3  4  2  0  0  0
 26 27  2  0  0  0
 27 28  1  0  0  0
 43 47  1  0  0  0
 43 51  1  0  0  0
 28 29  1  0  0  0
 56 48  1  0  0  0
 56 60  1  0  0  0
 29 30  1  0  0  0
 57 60  1  0  0  0
 57 61  1  0  0  0
 30 31  1  0  0  0
 44 49  1  0  0  0
 44 52  1  0  0  0
 31 32  1  0  0  0
 45 46  1  0  0  0
 45 50  1  0  0  0
 32 33  1  0  0  0
 53 54  1  0  0  0
 53 55  1  0  0  0
 33 34  1  0  0  0
 34 35  1  0  0  0
 35 36  1  0  0  0
 58 60  1  0  0  0
 36 37  1  0  0  0
 59 60  1  0  0  0
 59 62  1  0  0  0
 37 38  1  0  0  0
 38 39  1  0  0  0
 39 40  1  0  0  0
  4  6  1  0  0  0
  6  7  1  0  0  0
  7  8  1  0  0  0
  8  9  1  0  0  0
  9 10  1  0  0  0
 10 11  1  0  0  0
 11 12  1  0  0  0
 12 13  1  0  0  0
 13 14  1  0  0  0
 14 15  1  0  0  0
 15 16  1  0  0  0
 16 17  1  0  0  0
 17 18  1  0  0  0
 18 19  1  0  0  0
 19 20  1  0  0  0
 20 21  1  0  0  0
 21 22  1  0  0  0
 46 47  1  0  0  0
 47 48  1  0  0  0
 48 49  1  0  0  0
 49 50  1  0  0  0
 50 54  1  0  0  0
M  CHG 1  58  -1
M  END
> <minimizedAffinity>
-9.49825

> <CNNscore>
0.2527922094

> <CNNaffinity>
7.3092527390

> <CNN_VS>
1.8477221727

> <CNNaffinity_variance>
1.1491572857

$$$$
/media/chris/experiments/cd1a-new-docking/inputs/ligands/1onq_ligand.pdb


 62 62  0  0  0  0  0  0  0  0999 V2000
  -41.6484   60.1496   65.0709 C   0  0  0  0  0  0  0  0  0  0  0  0
  -41.5730   58.7851   64.5875 N   0  0  0  0  0  0  0  0  0  0  0  0
  -42.3583   57.6090   66.3617 O   0  0  0  0  0  0  0  0  0  0  0  0
  -41.9152   57.6605   65.2309 C   0  0  0  0  0  0  0  0  0  0  0  0
  -41.2274   58.6703   63.6729 H   0  0  0  0  0  0  0  0  0  0  0  0
  -41.7250   56.3952   64.4481 C   0  0  0  0  0  0  0  0  0  0  0  0
  -41.9642   56.7531   62.9812 C   0  0  0  0  0  0  0  0  0  0  0  0
  -41.2422   55.7571   62.0769 C   0  0  0  0  0  0  0  0  0  0  0  0
  -41.0131   56.1999   60.6522 C   0  0  0  0  0  0  0  0  0  0  0  0
  -41.6205   57.5903   60.4984 C   0  0  0  0  0  0  0  0  0  0  0  0
  -41.0410   58.3620   59.3053 C   0  0  0  0  0  0  0  0  0  0  0  0
  -39.9591   59.3903   59.6827 C   0  0  0  0  0  0  0  0  0  0  0  0
  -38.5366   58.9388   59.2846 C   0  0  0  0  0  0  0  0  0  0  0  0
  -37.7482   58.4883   60.5177 C   0  0  0  0  0  0  0  0  0  0  0  0
  -38.4659   58.6811   61.8480 C   0  0  0  0  0  0  0  0  0  0  0  0
  -38.1080   57.6016   62.8587 C   0  0  0  0  0  0  0  0  0  0  0  0
  -38.1295   58.0253   64.3292 C   0  0  0  0  0  0  0  0  0  0  0  0
  -36.7892   57.6555   64.9504 C   0  0  0  0  0  0  0  0  0  0  0  0
  -35.5368   57.7485   64.0914 C   0  0  0  0  0  0  0  0  0  0  0  0
  -34.3253   58.1840   64.9309 C   0  0  0  0  0  0  0  0  0  0  0  0
  -33.0980   58.6133   64.1061 C   0  0  0  0  0  0  0  0  0  0  0  0
  -33.1712   58.1795   62.6439 C   0  0  0  0  0  0  0  0  0  0  0  0
  -42.4442   62.2088   64.3482 O   0  0  0  0  0  0  0  0  0  0  0  0
  -42.4605   60.8398   63.9885 C   0  0  0  0  0  0  0  0  0  0  0  0
  -41.5300   62.5330   64.3451 H   0  0  0  0  0  0  0  0  0  0  0  0
  -43.8786   60.2642   63.9741 C   0  0  0  0  0  0  0  0  0  0  0  0
  -44.8493   60.6891   64.8006 C   0  0  0  0  0  0  0  0  0  0  0  0
  -46.2405   60.0627   64.7251 C   0  0  0  0  0  0  0  0  0  0  0  0
  -46.8839   59.8103   66.0965 C   0  0  0  0  0  0  0  0  0  0  0  0
  -48.3643   60.2152   66.2227 C   0  0  0  0  0  0  0  0  0  0  0  0
  -49.0004   60.4138   64.8257 C   0  0  0  0  0  0  0  0  0  0  0  0
  -50.5489   60.4707   64.8057 C   0  0  0  0  0  0  0  0  0  0  0  0
  -51.1777   60.1259   63.4351 C   0  0  0  0  0  0  0  0  0  0  0  0
  -50.8035   58.7190   62.9205 C   0  0  0  0  0  0  0  0  0  0  0  0
  -49.9998   58.7325   61.6147 C   0  0  0  0  0  0  0  0  0  0  0  0
  -50.5010   57.8067   60.5084 C   0  0  0  0  0  0  0  0  0  0  0  0
  -49.8619   58.0738   59.1313 C   0  0  0  0  0  0  0  0  0  0  0  0
  -48.3745   58.4566   59.1630 C   0  0  0  0  0  0  0  0  0  0  0  0
  -47.5677   57.6106   58.1739 C   0  0  0  0  0  0  0  0  0  0  0  0
  -46.9190   58.3555   57.0207 C   0  0  0  0  0  0  0  0  0  0  0  0
  -40.2974   60.7961   65.4528 C   0  0  0  0  0  0  0  0  0  0  0  0
  -39.4750   61.2741   64.3581 O   0  0  0  0  0  0  0  0  0  0  0  0
  -37.6279   61.8186   62.2441 O   0  0  0  0  0  0  0  0  0  0  0  0
  -35.9776   64.4158   65.0602 O   0  0  0  0  0  0  0  0  0  0  0  0
  -37.7000   62.0469   65.8201 O   0  0  0  0  0  0  0  0  0  0  0  0
  -38.0230   61.4828   64.5259 C   0  0  0  0  0  0  0  0  0  0  0  0
  -37.3457   62.3868   63.4858 C   0  0  0  0  0  0  0  0  0  0  0  0
  -35.8117   62.4719   63.6429 C   0  0  0  0  0  0  0  0  0  0  0  0
  -35.5603   63.0538   65.0066 C   0  0  0  0  0  0  0  0  0  0  0  0
  -36.2778   62.2269   66.0581 C   0  0  0  0  0  0  0  0  0  0  0  0
  -38.5889   61.7570   62.1276 H   0  0  0  0  0  0  0  0  0  0  0  0
  -35.5077   64.9249   64.3812 H   0  0  0  0  0  0  0  0  0  0  0  0
  -34.5322   63.2112   67.3611 O   0  0  0  0  0  0  0  0  0  0  0  0
  -35.9085   62.9784   67.3352 C   0  0  0  0  0  0  0  0  0  0  0  0
  -34.3003   63.6886   68.1731 H   0  0  0  0  0  0  0  0  0  0  0  0
  -35.1248   63.3324   62.7060 O   0  0  0  0  0  0  0  0  0  0  0  0
  -33.0668   61.7636   62.5633 O   0  0  0  0  0  0  0  0  0  0  0  0
  -32.7679   64.0705   63.2544 O   0  0  0  0  0  0  0  0  0  0  0  0
  -33.1798   63.5389   60.9258 O   0  0  0  0  0  0  0  0  0  0  0  0
  -33.5107   63.1700   62.3315 S   0  0  0  0  0  0  0  0  0  0  0  0
  -33.2743   61.5051   63.4750 H   0  0  0  0  0  0  0  0  0  0  0  0
  -33.6601   62.9563   60.3170 H   0  0  0  0  0  0  0  0  0  0  0  0
  2  1  1  0  0  0
  2  4  1  0  0  0
  2  5  1  0  0  0
 41 42  1  0  0  0
 41  1  1  0  0  0
 42 46  1  0  0  0
  1 24  1  0  0  0
 23 24  1  0  0  0
 23 25  1  0  0  0
 24 26  1  0  0  0
  3  4  2  0  0  0
 26 27  2  0  0  0
 27 28  1  0  0  0
 43 47  1  0  0  0
 43 51  1  0  0  0
 28 29  1  0  0  0
 56 48  1  0  0  0
 56 60  1  0  0  0
 29 30  1  0  0  0
 57 60  1  0  0  0
 57 61  1  0  0  0
 30 31  1  0  0  0
 44 49  1  0  0  0
 44 52  1  0  0  0
 31 32  1  0  0  0
 45 46  1  0  0  0
 45 50  1  0  0  0
 32 33  1  0  0  0
 53 54  1  0  0  0
 53 55  1  0  0  0
 33 34  1  0  0  0
 34 35  1  0  0  0
 35 36  1  0  0  0
 58 60  1  0  0  0
 36 37  1  0  0  0
 59 60  1  0  0  0
 59 62  1  0  0  0
 37 38  1  0  0  0
 38 39  1  0  0  0
 39 40  1  0  0  0
  4  6  1  0  0  0
  6  7  1  0  0  0
  7  8  1  0  0  0
  8  9  1  0  0  0
  9 10  1  0  0  0
 10 11  1  0  0  0
 11 12  1  0  0  0
 12 13  1  0  0  0
 13 14  1  0  0  0
 14 15  1  0  0  0
 15 16  1  0  0  0
 16 17  1  0  0  0
 17 18  1  0  0  0
 18 19  1  0  0  0
 19 20  1  0  0  0
 20 21  1  0  0  0
 21 22  1  0  0  0
 46 47  1  0  0  0
 47 48  1  0  0  0
 48 49  1  0  0  0
 49 50  1  0  0  0
 50 54  1  0  0  0
M  CHG 1  58  -1
M  END
> <minimizedAffinity>
-9.80107

> <CNNscore>
0.2467698455

> <CNNaffinity>
7.1237792969

> <CNN_VS>
1.7579339743

> <CNNaffinity_variance>
1.9752525091

$$$$
/media/chris/experiments/cd1a-new-docking/inputs/ligands/1onq_ligand.pdb


 62 62  0  0  0  0  0  0  0  0999 V2000
  -41.3075   60.6484   63.5596 C   0  0  0  0  0  0  0  0  0  0  0  0
  -41.5819   59.2481   63.8146 N   0  0  0  0  0  0  0  0  0  0  0  0
  -39.7907   58.6333   65.0642 O   0  0  0  0  0  0  0  0  0  0  0  0
  -40.8439   58.3756   64.5145 C   0  0  0  0  0  0  0  0  0  0  0  0
  -42.4139   58.8940   63.4252 H   0  0  0  0  0  0  0  0  0  0  0  0
  -41.4092   56.9891   64.6028 C   0  0  0  0  0  0  0  0  0  0  0  0
  -42.1476   56.7378   63.2880 C   0  0  0  0  0  0  0  0  0  0  0  0
  -41.3179   55.8226   62.3906 C   0  0  0  0  0  0  0  0  0  0  0  0
  -41.1926   56.2451   60.9469 C   0  0  0  0  0  0  0  0  0  0  0  0
  -41.9053   57.5849   60.7953 C   0  0  0  0  0  0  0  0  0  0  0  0
  -41.2512   58.4887   59.7417 C   0  0  0  0  0  0  0  0  0  0  0  0
  -39.8656   58.0103   59.2708 C   0  0  0  0  0  0  0  0  0  0  0  0
  -38.7573   59.0612   59.5010 C   0  0  0  0  0  0  0  0  0  0  0  0
  -37.6314   58.4791   60.3603 C   0  0  0  0  0  0  0  0  0  0  0  0
  -38.0907   57.5859   61.5063 C   0  0  0  0  0  0  0  0  0  0  0  0
  -37.3327   57.8657   62.7956 C   0  0  0  0  0  0  0  0  0  0  0  0
  -35.8093   57.9474   62.6744 C   0  0  0  0  0  0  0  0  0  0  0  0
  -35.2098   57.7324   64.0576 C   0  0  0  0  0  0  0  0  0  0  0  0
  -34.4714   58.8863   64.7197 C   0  0  0  0  0  0  0  0  0  0  0  0
  -32.9575   58.6234   64.7533 C   0  0  0  0  0  0  0  0  0  0  0  0
  -32.2986   58.5075   63.3664 C   0  0  0  0  0  0  0  0  0  0  0  0
  -32.1816   59.8453   62.6397 C   0  0  0  0  0  0  0  0  0  0  0  0
  -42.5727   62.5022   64.1585 O   0  0  0  0  0  0  0  0  0  0  0  0
  -42.6997   61.2536   63.5038 C   0  0  0  0  0  0  0  0  0  0  0  0
  -41.9415   63.0580   63.6751 H   0  0  0  0  0  0  0  0  0  0  0  0
  -43.6849   60.3255   64.2182 C   0  0  0  0  0  0  0  0  0  0  0  0
  -44.8865   60.7343   64.6600 C   0  0  0  0  0  0  0  0  0  0  0  0
  -45.8137   59.7462   65.3654 C   0  0  0  0  0  0  0  0  0  0  0  0
  -47.0407   59.3434   64.5344 C   0  0  0  0  0  0  0  0  0  0  0  0
  -48.3026   58.9837   65.3404 C   0  0  0  0  0  0  0  0  0  0  0  0
  -49.3594   60.1098   65.2376 C   0  0  0  0  0  0  0  0  0  0  0  0
  -49.6891   60.5784   63.7977 C   0  0  0  0  0  0  0  0  0  0  0  0
  -51.0404   60.0561   63.2554 C   0  0  0  0  0  0  0  0  0  0  0  0
  -50.9648   58.6229   62.6859 C   0  0  0  0  0  0  0  0  0  0  0  0
  -49.6595   58.3228   61.9392 C   0  0  0  0  0  0  0  0  0  0  0  0
  -49.5962   58.7856   60.4853 C   0  0  0  0  0  0  0  0  0  0  0  0
  -48.5769   58.0119   59.6260 C   0  0  0  0  0  0  0  0  0  0  0  0
  -49.0483   57.6633   58.2061 C   0  0  0  0  0  0  0  0  0  0  0  0
  -47.8652   57.2798   57.3125 C   0  0  0  0  0  0  0  0  0  0  0  0
  -46.8180   58.3546   57.0807 C   0  0  0  0  0  0  0  0  0  0  0  0
  -40.3699   60.9363   62.3651 C   0  0  0  0  0  0  0  0  0  0  0  0
  -38.9504   60.7489   62.5954 O   0  0  0  0  0  0  0  0  0  0  0  0
  -37.8427   60.8855   65.2282 O   0  0  0  0  0  0  0  0  0  0  0  0
  -34.5371   62.4108   63.1921 O   0  0  0  0  0  0  0  0  0  0  0  0
  -37.3421   62.4846   62.0600 O   0  0  0  0  0  0  0  0  0  0  0  0
  -38.1072   61.8459   63.1109 C   0  0  0  0  0  0  0  0  0  0  0  0
  -37.0968   61.4656   64.2029 C   0  0  0  0  0  0  0  0  0  0  0  0
  -36.3287   62.6725   64.7847 C   0  0  0  0  0  0  0  0  0  0  0  0
  -35.5730   63.2831   63.6369 C   0  0  0  0  0  0  0  0  0  0  0  0
  -36.5313   63.6056   62.5046 C   0  0  0  0  0  0  0  0  0  0  0  0
  -38.3329   60.1241   64.8806 H   0  0  0  0  0  0  0  0  0  0  0  0
  -33.9375   62.2182   63.9300 H   0  0  0  0  0  0  0  0  0  0  0  0
  -35.8625   65.5458   61.2791 O   0  0  0  0  0  0  0  0  0  0  0  0
  -35.5802   64.1910   61.4631 C   0  0  0  0  0  0  0  0  0  0  0  0
  -35.2571   65.9152   60.6173 H   0  0  0  0  0  0  0  0  0  0  0  0
  -35.3434   62.3685   65.7981 O   0  0  0  0  0  0  0  0  0  0  0  0
  -36.0589   62.8527   68.2416 O   0  0  0  0  0  0  0  0  0  0  0  0
  -35.4496   64.6956   66.7852 O   0  0  0  0  0  0  0  0  0  0  0  0
  -33.7352   63.2495   67.7040 O   0  0  0  0  0  0  0  0  0  0  0  0
  -35.1239   63.2940   67.1647 S   0  0  0  0  0  0  0  0  0  0  0  0
  -36.9696   62.8751   67.9085 H   0  0  0  0  0  0  0  0  0  0  0  0
  -33.5145   62.3387   67.9541 H   0  0  0  0  0  0  0  0  0  0  0  0
  2  1  1  0  0  0
  2  4  1  0  0  0
  2  5  1  0  0  0
 41 42  1  0  0  0
 41  1  1  0  0  0
 42 46  1  0  0  0
  1 24  1  0  0  0
 23 24  1  0  0  0
 23 25  1  0  0  0
 24 26  1  0  0  0
  3  4  2  0  0  0
 26 27  2  0  0  0
 27 28  1  0  0  0
 43 47  1  0  0  0
 43 51  1  0  0  0
 28 29  1  0  0  0
 56 48  1  0  0  0
 56 60  1  0  0  0
 29 30  1  0  0  0
 57 60  1  0  0  0
 57 61  1  0  0  0
 30 31  1  0  0  0
 44 49  1  0  0  0
 44 52  1  0  0  0
 31 32  1  0  0  0
 45 46  1  0  0  0
 45 50  1  0  0  0
 32 33  1  0  0  0
 53 54  1  0  0  0
 53 55  1  0  0  0
 33 34  1  0  0  0
 34 35  1  0  0  0
 35 36  1  0  0  0
 58 60  1  0  0  0
 36 37  1  0  0  0
 59 60  1  0  0  0
 59 62  1  0  0  0
 37 38  1  0  0  0
 38 39  1  0  0  0
 39 40  1  0  0  0
  4  6  1  0  0  0
  6  7  1  0  0  0
  7  8  1  0  0  0
  8  9  1  0  0  0
  9 10  1  0  0  0
 10 11  1  0  0  0
 11 12  1  0  0  0
 12 13  1  0  0  0
 13 14  1  0  0  0
 14 15  1  0  0  0
 15 16  1  0  0  0
 16 17  1  0  0  0
 17 18  1  0  0  0
 18 19  1  0  0  0
 19 20  1  0  0  0
 20 21  1  0  0  0
 21 22  1  0  0  0
 46 47  1  0  0  0
 47 48  1  0  0  0
 48 49  1  0  0  0
 49 50  1  0  0  0
 50 54  1  0  0  0
M  CHG 1  58  -1
M  END
> <minimizedAffinity>
-9.67735

> <CNNscore>
0.2250524610

> <CNNaffinity>
7.1043410301

> <CNN_VS>
1.5988494158

> <CNNaffinity_variance>
1.4963216782

$$$$
/media/chris/experiments/cd1a-new-docking/inputs/ligands/1onq_ligand.pdb


 62 62  0  0  0  0  0  0  0  0999 V2000
  -40.7336   59.7879   63.9286 C   0  0  0  0  0  0  0  0  0  0  0  0
  -42.1747   59.7850   64.0848 N   0  0  0  0  0  0  0  0  0  0  0  0
  -42.6531   62.0025   64.1191 O   0  0  0  0  0  0  0  0  0  0  0  0
  -42.9993   60.8382   64.1658 C   0  0  0  0  0  0  0  0  0  0  0  0
  -42.6006   58.8989   64.1380 H   0  0  0  0  0  0  0  0  0  0  0  0
  -44.4527   60.4998   64.3170 C   0  0  0  0  0  0  0  0  0  0  0  0
  -44.5216   58.9972   64.5897 C   0  0  0  0  0  0  0  0  0  0  0  0
  -44.8834   58.7485   66.0520 C   0  0  0  0  0  0  0  0  0  0  0  0
  -46.2929   58.2772   66.3158 C   0  0  0  0  0  0  0  0  0  0  0  0
  -47.1478   59.5106   66.5879 C   0  0  0  0  0  0  0  0  0  0  0  0
  -48.1703   59.7805   65.4760 C   0  0  0  0  0  0  0  0  0  0  0  0
  -49.6376   59.7218   65.9387 C   0  0  0  0  0  0  0  0  0  0  0  0
  -50.5956   59.2209   64.8356 C   0  0  0  0  0  0  0  0  0  0  0  0
  -50.6643   60.2263   63.6826 C   0  0  0  0  0  0  0  0  0  0  0  0
  -50.3890   59.6439   62.3017 C   0  0  0  0  0  0  0  0  0  0  0  0
  -50.7379   58.1653   62.2188 C   0  0  0  0  0  0  0  0  0  0  0  0
  -50.3192   57.4480   60.9333 C   0  0  0  0  0  0  0  0  0  0  0  0
  -50.1257   58.4957   59.8453 C   0  0  0  0  0  0  0  0  0  0  0  0
  -48.7517   58.6401   59.2079 C   0  0  0  0  0  0  0  0  0  0  0  0
  -47.9905   57.3052   59.2338 C   0  0  0  0  0  0  0  0  0  0  0  0
  -46.9704   57.1296   58.0939 C   0  0  0  0  0  0  0  0  0  0  0  0
  -46.9471   58.3037   57.1180 C   0  0  0  0  0  0  0  0  0  0  0  0
  -41.2225   58.2879   65.6336 O   0  0  0  0  0  0  0  0  0  0  0  0
  -40.3309   58.4605   64.5478 C   0  0  0  0  0  0  0  0  0  0  0  0
  -42.1327   58.2449   65.3008 H   0  0  0  0  0  0  0  0  0  0  0  0
  -38.8725   58.5365   65.0058 C   0  0  0  0  0  0  0  0  0  0  0  0
  -38.0160   57.5069   64.8948 C   0  0  0  0  0  0  0  0  0  0  0  0
  -36.5747   57.6614   65.3767 C   0  0  0  0  0  0  0  0  0  0  0  0
  -35.9687   59.0434   65.0914 C   0  0  0  0  0  0  0  0  0  0  0  0
  -34.4304   59.1007   65.0490 C   0  0  0  0  0  0  0  0  0  0  0  0
  -33.9427   59.8177   63.7669 C   0  0  0  0  0  0  0  0  0  0  0  0
  -33.4675   58.8828   62.6260 C   0  0  0  0  0  0  0  0  0  0  0  0
  -34.5111   57.8242   62.1983 C   0  0  0  0  0  0  0  0  0  0  0  0
  -35.8877   58.4243   61.8388 C   0  0  0  0  0  0  0  0  0  0  0  0
  -37.0420   57.4188   61.9269 C   0  0  0  0  0  0  0  0  0  0  0  0
  -38.3452   57.8315   61.2460 C   0  0  0  0  0  0  0  0  0  0  0  0
  -38.3533   59.2876   60.7403 C   0  0  0  0  0  0  0  0  0  0  0  0
  -39.3621   59.5864   59.6210 C   0  0  0  0  0  0  0  0  0  0  0  0
  -40.0316   58.3009   59.1265 C   0  0  0  0  0  0  0  0  0  0  0  0
  -41.4306   58.0247   59.6479 C   0  0  0  0  0  0  0  0  0  0  0  0
  -40.0104   61.0514   64.4477 C   0  0  0  0  0  0  0  0  0  0  0  0
  -39.0399   61.6555   63.5552 O   0  0  0  0  0  0  0  0  0  0  0  0
  -36.9612   62.7332   61.9136 O   0  0  0  0  0  0  0  0  0  0  0  0
  -35.9778   64.7816   65.4116 O   0  0  0  0  0  0  0  0  0  0  0  0
  -37.5730   62.2104   65.4060 O   0  0  0  0  0  0  0  0  0  0  0  0
  -37.6524   61.9091   63.9917 C   0  0  0  0  0  0  0  0  0  0  0  0
  -36.9148   63.0470   63.2714 C   0  0  0  0  0  0  0  0  0  0  0  0
  -35.4338   63.1869   63.6865 C   0  0  0  0  0  0  0  0  0  0  0  0
  -35.4367   63.4870   65.1601 C   0  0  0  0  0  0  0  0  0  0  0  0
  -36.2225   62.4196   65.9001 C   0  0  0  0  0  0  0  0  0  0  0  0
  -37.8856   62.6412   61.6344 H   0  0  0  0  0  0  0  0  0  0  0  0
  -35.4617   65.4469   64.9300 H   0  0  0  0  0  0  0  0  0  0  0  0
  -34.7809   63.2154   67.6328 O   0  0  0  0  0  0  0  0  0  0  0  0
  -36.1118   62.9102   67.3420 C   0  0  0  0  0  0  0  0  0  0  0  0
  -34.7133   63.5267   68.5490 H   0  0  0  0  0  0  0  0  0  0  0  0
  -34.6979   64.2615   63.0590 O   0  0  0  0  0  0  0  0  0  0  0  0
  -34.9693   63.9066   60.5061 O   0  0  0  0  0  0  0  0  0  0  0  0
  -33.0817   62.9088   61.6595 O   0  0  0  0  0  0  0  0  0  0  0  0
  -33.1141   65.2897   61.2072 O   0  0  0  0  0  0  0  0  0  0  0  0
  -33.9513   64.1137   61.5782 S   0  0  0  0  0  0  0  0  0  0  0  0
  -35.5247   63.1437   60.7306 H   0  0  0  0  0  0  0  0  0  0  0  0
  -33.6735   66.0802   61.1519 H   0  0  0  0  0  0  0  0  0  0  0  0
  2  1  1  0  0  0
  2  4  1  0  0  0
  2  5  1  0  0  0
 41 42  1  0  0  0
 41  1  1  0  0  0
 42 46  1  0  0  0
  1 24  1  0  0  0
 23 24  1  0  0  0
 23 25  1  0  0  0
 24 26  1  0  0  0
  3  4  2  0  0  0
 26 27  2  0  0  0
 27 28  1  0  0  0
 43 47  1  0  0  0
 43 51  1  0  0  0
 28 29  1  0  0  0
 56 48  1  0  0  0
 56 60  1  0  0  0
 29 30  1  0  0  0
 57 60  1  0  0  0
 57 61  1  0  0  0
 30 31  1  0  0  0
 44 49  1  0  0  0
 44 52  1  0  0  0
 31 32  1  0  0  0
 45 46  1  0  0  0
 45 50  1  0  0  0
 32 33  1  0  0  0
 53 54  1  0  0  0
 53 55  1  0  0  0
 33 34  1  0  0  0
 34 35  1  0  0  0
 35 36  1  0  0  0
 58 60  1  0  0  0
 36 37  1  0  0  0
 59 60  1  0  0  0
 59 62  1  0  0  0
 37 38  1  0  0  0
 38 39  1  0  0  0
 39 40  1  0  0  0
  4  6  1  0  0  0
  6  7  1  0  0  0
  7  8  1  0  0  0
  8  9  1  0  0  0
  9 10  1  0  0  0
 10 11  1  0  0  0
 11 12  1  0  0  0
 12 13  1  0  0  0
 13 14  1  0  0  0
 14 15  1  0  0  0
 15 16  1  0  0  0
 16 17  1  0  0  0
 17 18  1  0  0  0
 18 19  1  0  0  0
 19 20  1  0  0  0
 20 21  1  0  0  0
 21 22  1  0  0  0
 46 47  1  0  0  0
 47 48  1  0  0  0
 48 49  1  0  0  0
 49 50  1  0  0  0
 50 54  1  0  0  0
M  CHG 1  58  -1
M  END
> <minimizedAffinity>
-8.54708

> <CNNscore>
0.2176964581

> <CNNaffinity>
7.0744543076

> <CNN_VS>
1.5400836468

> <CNNaffinity_variance>
1.0937170982

$$$$
/media/chris/experiments/cd1a-new-docking/inputs/ligands/1onq_ligand.pdb


 62 62  0  0  0  0  0  0  0  0999 V2000
  -41.5389   60.5182   64.5645 C   0  0  0  0  0  0  0  0  0  0  0  0
  -42.2435   59.2517   64.5914 N   0  0  0  0  0  0  0  0  0  0  0  0
  -41.9258   58.5772   66.7343 O   0  0  0  0  0  0  0  0  0  0  0  0
  -42.3844   58.4062   65.6216 C   0  0  0  0  0  0  0  0  0  0  0  0
  -42.6718   58.9787   63.7480 H   0  0  0  0  0  0  0  0  0  0  0  0
  -43.1854   57.1723   65.3287 C   0  0  0  0  0  0  0  0  0  0  0  0
  -44.6384   57.6239   65.1810 C   0  0  0  0  0  0  0  0  0  0  0  0
  -45.3035   57.6980   66.5533 C   0  0  0  0  0  0  0  0  0  0  0  0
  -46.0714   58.9631   66.8509 C   0  0  0  0  0  0  0  0  0  0  0  0
  -46.1809   59.7523   65.5505 C   0  0  0  0  0  0  0  0  0  0  0  0
  -47.6346   59.9761   65.1132 C   0  0  0  0  0  0  0  0  0  0  0  0
  -48.6150   60.2147   66.2761 C   0  0  0  0  0  0  0  0  0  0  0  0
  -49.9726   59.5070   66.0719 C   0  0  0  0  0  0  0  0  0  0  0  0
  -50.1452   59.0813   64.6111 C   0  0  0  0  0  0  0  0  0  0  0  0
  -51.1776   59.8797   63.8244 C   0  0  0  0  0  0  0  0  0  0  0  0
  -50.8012   60.0224   62.3571 C   0  0  0  0  0  0  0  0  0  0  0  0
  -49.9677   58.8839   61.7642 C   0  0  0  0  0  0  0  0  0  0  0  0
  -49.3239   59.3853   60.4786 C   0  0  0  0  0  0  0  0  0  0  0  0
  -49.2544   58.4463   59.2833 C   0  0  0  0  0  0  0  0  0  0  0  0
  -48.0149   57.5415   59.3662 C   0  0  0  0  0  0  0  0  0  0  0  0
  -47.4082   57.1630   58.0026 C   0  0  0  0  0  0  0  0  0  0  0  0
  -46.9676   58.3722   57.1809 C   0  0  0  0  0  0  0  0  0  0  0  0
  -43.5511   61.2111   63.6336 O   0  0  0  0  0  0  0  0  0  0  0  0
  -42.1608   61.2174   63.3679 C   0  0  0  0  0  0  0  0  0  0  0  0
  -43.7271   61.7094   64.4470 H   0  0  0  0  0  0  0  0  0  0  0  0
  -41.8138   60.4454   62.0928 C   0  0  0  0  0  0  0  0  0  0  0  0
  -41.4159   61.0466   60.9587 C   0  0  0  0  0  0  0  0  0  0  0  0
  -41.0883   60.2051   59.7265 C   0  0  0  0  0  0  0  0  0  0  0  0
  -41.2574   58.6941   59.9428 C   0  0  0  0  0  0  0  0  0  0  0  0
  -40.1161   57.8119   59.4039 C   0  0  0  0  0  0  0  0  0  0  0  0
  -38.8864   58.6735   59.0286 C   0  0  0  0  0  0  0  0  0  0  0  0
  -37.7383   58.6768   60.0695 C   0  0  0  0  0  0  0  0  0  0  0  0
  -38.1444   58.1402   61.4623 C   0  0  0  0  0  0  0  0  0  0  0  0
  -36.9425   57.8544   62.3885 C   0  0  0  0  0  0  0  0  0  0  0  0
  -37.2710   57.9738   63.8815 C   0  0  0  0  0  0  0  0  0  0  0  0
  -36.0856   57.8765   64.8395 C   0  0  0  0  0  0  0  0  0  0  0  0
  -35.0288   58.9810   64.6417 C   0  0  0  0  0  0  0  0  0  0  0  0
  -33.5980   58.5989   65.0502 C   0  0  0  0  0  0  0  0  0  0  0  0
  -32.6676   58.5719   63.8342 C   0  0  0  0  0  0  0  0  0  0  0  0
  -33.2530   58.0151   62.5485 C   0  0  0  0  0  0  0  0  0  0  0  0
  -39.9966   60.4227   64.5967 C   0  0  0  0  0  0  0  0  0  0  0  0
  -39.2659   61.5442   64.0384 O   0  0  0  0  0  0  0  0  0  0  0  0
  -37.3329   61.8625   61.9553 O   0  0  0  0  0  0  0  0  0  0  0  0
  -35.6232   64.5328   64.6656 O   0  0  0  0  0  0  0  0  0  0  0  0
  -37.4932   62.3082   65.5078 O   0  0  0  0  0  0  0  0  0  0  0  0
  -37.8100   61.6854   64.2392 C   0  0  0  0  0  0  0  0  0  0  0  0
  -37.0552   62.4884   63.1700 C   0  0  0  0  0  0  0  0  0  0  0  0
  -35.5239   62.5015   63.3700 C   0  0  0  0  0  0  0  0  0  0  0  0
  -35.2796   63.1499   64.7046 C   0  0  0  0  0  0  0  0  0  0  0  0
  -36.0706   62.4266   65.7795 C   0  0  0  0  0  0  0  0  0  0  0  0
  -38.2922   61.8450   61.8124 H   0  0  0  0  0  0  0  0  0  0  0  0
  -35.1072   64.9747   63.9732 H   0  0  0  0  0  0  0  0  0  0  0  0
  -36.5950   64.2894   67.1826 O   0  0  0  0  0  0  0  0  0  0  0  0
  -35.6970   63.2327   67.0216 C   0  0  0  0  0  0  0  0  0  0  0  0
  -36.3557   64.7997   67.9720 H   0  0  0  0  0  0  0  0  0  0  0  0
  -34.7648   63.2668   62.4065 O   0  0  0  0  0  0  0  0  0  0  0  0
  -32.7234   63.6196   60.8492 O   0  0  0  0  0  0  0  0  0  0  0  0
  -32.8512   61.6223   62.2215 O   0  0  0  0  0  0  0  0  0  0  0  0
  -32.2985   63.7580   63.2254 O   0  0  0  0  0  0  0  0  0  0  0  0
  -33.1249   63.0845   62.1838 S   0  0  0  0  0  0  0  0  0  0  0  0
  -33.2517   63.1921   60.1571 H   0  0  0  0  0  0  0  0  0  0  0  0
  -32.4708   64.7123   63.2078 H   0  0  0  0  0  0  0  0  0  0  0  0
  2  1  1  0  0  0
  2  4  1  0  0  0
  2  5  1  0  0  0
 41 42  1  0  0  0
 41  1  1  0  0  0
 42 46  1  0  0  0
  1 24  1  0  0  0
 23 24  1  0  0  0
 23 25  1  0  0  0
 24 26  1  0  0  0
  3  4  2  0  0  0
 26 27  2  0  0  0
 27 28  1  0  0  0
 43 47  1  0  0  0
 43 51  1  0  0  0
 28 29  1  0  0  0
 56 48  1  0  0  0
 56 60  1  0  0  0
 29 30  1  0  0  0
 57 60  1  0  0  0
 57 61  1  0  0  0
 30 31  1  0  0  0
 44 49  1  0  0  0
 44 52  1  0  0  0
 31 32  1  0  0  0
 45 46  1  0  0  0
 45 50  1  0  0  0
 32 33  1  0  0  0
 53 54  1  0  0  0
 53 55  1  0  0  0
 33 34  1  0  0  0
 34 35  1  0  0  0
 35 36  1  0  0  0
 58 60  1  0  0  0
 36 37  1  0  0  0
 59 60  1  0  0  0
 59 62  1  0  0  0
 37 38  1  0  0  0
 38 39  1  0  0  0
 39 40  1  0  0  0
  4  6  1  0  0  0
  6  7  1  0  0  0
  7  8  1  0  0  0
  8  9  1  0  0  0
  9 10  1  0  0  0
 10 11  1  0  0  0
 11 12  1  0  0  0
 12 13  1  0  0  0
 13 14  1  0  0  0
 14 15  1  0  0  0
 15 16  1  0  0  0
 16 17  1  0  0  0
 17 18  1  0  0  0
 18 19  1  0  0  0
 19 20  1  0  0  0
 20 21  1  0  0  0
 21 22  1  0  0  0
 46 47  1  0  0  0
 47 48  1  0  0  0
 48 49  1  0  0  0
 49 50  1  0  0  0
 50 54  1  0  0  0
M  CHG 1  58  -1
M  END
> <minimizedAffinity>
-9.70232

> <CNNscore>
0.2036048919

> <CNNaffinity>
7.0645074844

> <CNN_VS>
1.4383683205

> <CNNaffinity_variance>
1.6844257116

$$$$
/media/chris/experiments/cd1a-new-docking/inputs/ligands/1onq_ligand.pdb


 62 62  0  0  0  0  0  0  0  0999 V2000
  -39.0558   60.7792   63.7678 C   0  0  0  0  0  0  0  0  0  0  0  0
  -40.4800   61.0288   63.6658 N   0  0  0  0  0  0  0  0  0  0  0  0
  -40.8329   60.8589   61.4310 O   0  0  0  0  0  0  0  0  0  0  0  0
  -41.2379   61.0514   62.5609 C   0  0  0  0  0  0  0  0  0  0  0  0
  -40.9488   61.2035   64.5137 H   0  0  0  0  0  0  0  0  0  0  0  0
  -42.6931   61.3327   62.7916 C   0  0  0  0  0  0  0  0  0  0  0  0
  -42.9992   60.8864   64.2213 C   0  0  0  0  0  0  0  0  0  0  0  0
  -44.4841   61.0773   64.5207 C   0  0  0  0  0  0  0  0  0  0  0  0
  -45.3083   59.8167   64.6203 C   0  0  0  0  0  0  0  0  0  0  0  0
  -46.4368   60.0811   65.6115 C   0  0  0  0  0  0  0  0  0  0  0  0
  -47.8275   59.9421   64.9778 C   0  0  0  0  0  0  0  0  0  0  0  0
  -48.9754   59.8091   65.9953 C   0  0  0  0  0  0  0  0  0  0  0  0
  -50.2785   59.2719   65.3636 C   0  0  0  0  0  0  0  0  0  0  0  0
  -50.8951   60.3156   64.4278 C   0  0  0  0  0  0  0  0  0  0  0  0
  -51.1231   59.8441   62.9968 C   0  0  0  0  0  0  0  0  0  0  0  0
  -50.6158   58.4281   62.7678 C   0  0  0  0  0  0  0  0  0  0  0  0
  -49.2940   58.3035   62.0066 C   0  0  0  0  0  0  0  0  0  0  0  0
  -49.6103   58.1643   60.5236 C   0  0  0  0  0  0  0  0  0  0  0  0
  -48.5675   57.5356   59.6113 C   0  0  0  0  0  0  0  0  0  0  0  0
  -48.0813   58.5420   58.5564 C   0  0  0  0  0  0  0  0  0  0  0  0
  -47.2212   57.9280   57.4366 C   0  0  0  0  0  0  0  0  0  0  0  0
  -47.1985   56.4014   57.4606 C   0  0  0  0  0  0  0  0  0  0  0  0
  -38.7583   61.4956   65.9573 O   0  0  0  0  0  0  0  0  0  0  0  0
  -38.9046   60.3065   65.2035 C   0  0  0  0  0  0  0  0  0  0  0  0
  -39.5558   62.0394   65.8613 H   0  0  0  0  0  0  0  0  0  0  0  0
  -37.6762   59.4000   65.3121 C   0  0  0  0  0  0  0  0  0  0  0  0
  -37.7357   58.0658   65.1620 C   0  0  0  0  0  0  0  0  0  0  0  0
  -36.4636   57.2292   65.2863 C   0  0  0  0  0  0  0  0  0  0  0  0
  -35.2491   57.8342   64.5670 C   0  0  0  0  0  0  0  0  0  0  0  0
  -35.0843   57.4370   63.0883 C   0  0  0  0  0  0  0  0  0  0  0  0
  -35.8329   58.4295   62.1664 C   0  0  0  0  0  0  0  0  0  0  0  0
  -37.2077   57.9401   61.6450 C   0  0  0  0  0  0  0  0  0  0  0  0
  -38.0139   59.0153   60.8789 C   0  0  0  0  0  0  0  0  0  0  0  0
  -38.3522   58.6151   59.4264 C   0  0  0  0  0  0  0  0  0  0  0  0
  -39.8569   58.5415   59.1404 C   0  0  0  0  0  0  0  0  0  0  0  0
  -40.5799   57.3023   59.6637 C   0  0  0  0  0  0  0  0  0  0  0  0
  -41.6339   57.6036   60.7474 C   0  0  0  0  0  0  0  0  0  0  0  0
  -41.5247   56.7526   62.0216 C   0  0  0  0  0  0  0  0  0  0  0  0
  -40.7014   57.4716   63.0942 C   0  0  0  0  0  0  0  0  0  0  0  0
  -41.2921   57.4996   64.4927 C   0  0  0  0  0  0  0  0  0  0  0  0
  -38.1422   61.9397   63.3123 C   0  0  0  0  0  0  0  0  0  0  0  0
  -36.7501   61.6124   63.0708 O   0  0  0  0  0  0  0  0  0  0  0  0
  -33.9598   61.9137   62.5227 O   0  0  0  0  0  0  0  0  0  0  0  0
  -34.2693   64.9684   65.3462 O   0  0  0  0  0  0  0  0  0  0  0  0
  -36.2293   62.6684   65.1918 O   0  0  0  0  0  0  0  0  0  0  0  0
  -35.7094   61.9049   64.0764 C   0  0  0  0  0  0  0  0  0  0  0  0
  -34.4786   62.6718   63.5716 C   0  0  0  0  0  0  0  0  0  0  0  0
  -33.3747   62.8441   64.6379 C   0  0  0  0  0  0  0  0  0  0  0  0
  -33.9928   63.6325   65.7594 C   0  0  0  0  0  0  0  0  0  0  0  0
  -35.2573   62.9417   66.2369 C   0  0  0  0  0  0  0  0  0  0  0  0
  -34.6406   61.7949   61.8419 H   0  0  0  0  0  0  0  0  0  0  0  0
  -33.4491   65.3902   65.0455 H   0  0  0  0  0  0  0  0  0  0  0  0
  -36.2282   63.1512   68.4111 O   0  0  0  0  0  0  0  0  0  0  0  0
  -35.7192   63.8898   67.3414 C   0  0  0  0  0  0  0  0  0  0  0  0
  -36.5208   63.7556   69.1112 H   0  0  0  0  0  0  0  0  0  0  0  0
  -32.2034   63.5838   64.2245 O   0  0  0  0  0  0  0  0  0  0  0  0
  -31.0023   65.4022   62.8217 O   0  0  0  0  0  0  0  0  0  0  0  0
  -33.3970   65.0921   62.5810 O   0  0  0  0  0  0  0  0  0  0  0  0
  -31.8567   63.4961   61.6040 O   0  0  0  0  0  0  0  0  0  0  0  0
  -32.0987   64.3902   62.7716 S   0  0  0  0  0  0  0  0  0  0  0  0
  -31.1430   65.9944   63.5769 H   0  0  0  0  0  0  0  0  0  0  0  0
  -31.0116   63.0342   61.7201 H   0  0  0  0  0  0  0  0  0  0  0  0
  2  1  1  0  0  0
  2  4  1  0  0  0
  2  5  1  0  0  0
 41 42  1  0  0  0
 41  1  1  0  0  0
 42 46  1  0  0  0
  1 24  1  0  0  0
 23 24  1  0  0  0
 23 25  1  0  0  0
 24 26  1  0  0  0
  3  4  2  0  0  0
 26 27  2  0  0  0
 27 28  1  0  0  0
 43 47  1  0  0  0
 43 51  1  0  0  0
 28 29  1  0  0  0
 56 48  1  0  0  0
 56 60  1  0  0  0
 29 30  1  0  0  0
 57 60  1  0  0  0
 57 61  1  0  0  0
 30 31  1  0  0  0
 44 49  1  0  0  0
 44 52  1  0  0  0
 31 32  1  0  0  0
 45 46  1  0  0  0
 45 50  1  0  0  0
 32 33  1  0  0  0
 53 54  1  0  0  0
 53 55  1  0  0  0
 33 34  1  0  0  0
 34 35  1  0  0  0
 35 36  1  0  0  0
 58 60  1  0  0  0
 36 37  1  0  0  0
 59 60  1  0  0  0
 59 62  1  0  0  0
 37 38  1  0  0  0
 38 39  1  0  0  0
 39 40  1  0  0  0
  4  6  1  0  0  0
  6  7  1  0  0  0
  7  8  1  0  0  0
  8  9  1  0  0  0
  9 10  1  0  0  0
 10 11  1  0  0  0
 11 12  1  0  0  0
 12 13  1  0  0  0
 13 14  1  0  0  0
 14 15  1  0  0  0
 15 16  1  0  0  0
 16 17  1  0  0  0
 17 18  1  0  0  0
 18 19  1  0  0  0
 19 20  1  0  0  0
 20 21  1  0  0  0
 21 22  1  0  0  0
 46 47  1  0  0  0
 47 48  1  0  0  0
 48 49  1  0  0  0
 49 50  1  0  0  0
 50 54  1  0  0  0
M  CHG 1  58  -1
M  END
> <minimizedAffinity>
-9.34130

> <CNNscore>
0.1800517142

> <CNNaffinity>
6.9902343750

> <CNN_VS>
1.2586036921

> <CNNaffinity_variance>
1.2993482351

$$$$
/media/chris/experiments/cd1a-new-docking/inputs/ligands/1onq_ligand.pdb


 62 62  0  0  0  0  0  0  0  0999 V2000
  -41.0417   61.4378   63.2303 C   0  0  0  0  0  0  0  0  0  0  0  0
  -41.8721   60.5896   64.0623 N   0  0  0  0  0  0  0  0  0  0  0  0
  -41.5132   61.4541   66.1290 O   0  0  0  0  0  0  0  0  0  0  0  0
  -42.0455   60.6493   65.3897 C   0  0  0  0  0  0  0  0  0  0  0  0
  -42.3706   59.8816   63.5938 H   0  0  0  0  0  0  0  0  0  0  0  0
  -42.9851   59.6267   65.9565 C   0  0  0  0  0  0  0  0  0  0  0  0
  -43.8824   59.1767   64.8035 C   0  0  0  0  0  0  0  0  0  0  0  0
  -44.7547   58.0051   65.2481 C   0  0  0  0  0  0  0  0  0  0  0  0
  -45.3847   58.1281   66.6143 C   0  0  0  0  0  0  0  0  0  0  0  0
  -46.6413   58.9799   66.4672 C   0  0  0  0  0  0  0  0  0  0  0  0
  -47.3209   58.8037   65.1027 C   0  0  0  0  0  0  0  0  0  0  0  0
  -47.9074   60.1009   64.5164 C   0  0  0  0  0  0  0  0  0  0  0  0
  -49.2253   60.5267   65.2002 C   0  0  0  0  0  0  0  0  0  0  0  0
  -50.3873   60.4896   64.2035 C   0  0  0  0  0  0  0  0  0  0  0  0
  -50.7939   59.0966   63.7384 C   0  0  0  0  0  0  0  0  0  0  0  0
  -50.6827   58.9365   62.2295 C   0  0  0  0  0  0  0  0  0  0  0  0
  -49.8686   60.0070   61.4991 C   0  0  0  0  0  0  0  0  0  0  0  0
  -49.3482   59.4053   60.2006 C   0  0  0  0  0  0  0  0  0  0  0  0
  -50.0994   58.2328   59.5875 C   0  0  0  0  0  0  0  0  0  0  0  0
  -49.3310   57.6535   58.3892 C   0  0  0  0  0  0  0  0  0  0  0  0
  -47.7997   57.7786   58.4917 C   0  0  0  0  0  0  0  0  0  0  0  0
  -47.0816   56.4311   58.4820 C   0  0  0  0  0  0  0  0  0  0  0  0
  -43.1443   61.6604   62.2684 O   0  0  0  0  0  0  0  0  0  0  0  0
  -41.7924   61.4431   61.9097 C   0  0  0  0  0  0  0  0  0  0  0  0
  -43.2275   62.5204   62.7095 H   0  0  0  0  0  0  0  0  0  0  0  0
  -41.5913   60.0984   61.2069 C   0  0  0  0  0  0  0  0  0  0  0  0
  -40.9979   59.9815   60.0068 C   0  0  0  0  0  0  0  0  0  0  0  0
  -40.8354   58.6025   59.3701 C   0  0  0  0  0  0  0  0  0  0  0  0
  -39.3912   58.2702   58.9670 C   0  0  0  0  0  0  0  0  0  0  0  0
  -38.2931   59.0165   59.7472 C   0  0  0  0  0  0  0  0  0  0  0  0
  -37.8062   58.1745   60.9512 C   0  0  0  0  0  0  0  0  0  0  0  0
  -36.8706   58.9141   61.9407 C   0  0  0  0  0  0  0  0  0  0  0  0
  -35.8662   57.9924   62.6718 C   0  0  0  0  0  0  0  0  0  0  0  0
  -36.3235   57.5812   64.0881 C   0  0  0  0  0  0  0  0  0  0  0  0
  -37.3672   58.5244   64.6985 C   0  0  0  0  0  0  0  0  0  0  0  0
  -38.6926   57.8849   65.1068 C   0  0  0  0  0  0  0  0  0  0  0  0
  -39.7057   57.7530   63.9526 C   0  0  0  0  0  0  0  0  0  0  0  0
  -41.0545   57.1243   64.3339 C   0  0  0  0  0  0  0  0  0  0  0  0
  -41.6197   56.2927   63.1789 C   0  0  0  0  0  0  0  0  0  0  0  0
  -40.6959   56.0653   61.9955 C   0  0  0  0  0  0  0  0  0  0  0  0
  -39.5432   61.0621   63.1830 C   0  0  0  0  0  0  0  0  0  0  0  0
  -38.7479   61.4216   64.3413 O   0  0  0  0  0  0  0  0  0  0  0  0
  -36.6473   61.7981   66.2448 O   0  0  0  0  0  0  0  0  0  0  0  0
  -34.3764   62.4993   62.8169 O   0  0  0  0  0  0  0  0  0  0  0  0
  -37.3861   62.8037   62.8850 O   0  0  0  0  0  0  0  0  0  0  0  0
  -37.6928   62.4509   64.2558 C   0  0  0  0  0  0  0  0  0  0  0  0
  -36.3516   62.1003   64.9161 C   0  0  0  0  0  0  0  0  0  0  0  0
  -35.3297   63.2581   64.8978 C   0  0  0  0  0  0  0  0  0  0  0  0
  -35.0734   63.5699   63.4492 C   0  0  0  0  0  0  0  0  0  0  0  0
  -36.3880   63.8504   62.7438 C   0  0  0  0  0  0  0  0  0  0  0  0
  -37.2892   61.0714   66.2760 H   0  0  0  0  0  0  0  0  0  0  0  0
  -33.5412   62.3373   63.2829 H   0  0  0  0  0  0  0  0  0  0  0  0
  -35.7180   65.4973   61.1462 O   0  0  0  0  0  0  0  0  0  0  0  0
  -35.9120   64.1256   61.3191 C   0  0  0  0  0  0  0  0  0  0  0  0
  -35.4157   65.6695   60.2407 H   0  0  0  0  0  0  0  0  0  0  0  0
  -34.0383   62.9736   65.4822 O   0  0  0  0  0  0  0  0  0  0  0  0
  -33.3061   63.3219   67.9438 O   0  0  0  0  0  0  0  0  0  0  0  0
  -34.1124   65.2137   66.6557 O   0  0  0  0  0  0  0  0  0  0  0  0
  -31.8960   64.3199   66.2522 O   0  0  0  0  0  0  0  0  0  0  0  0
  -33.3022   63.9669   66.5975 S   0  0  0  0  0  0  0  0  0  0  0  0
  -34.2148   63.0845   68.1861 H   0  0  0  0  0  0  0  0  0  0  0  0
  -31.3604   63.5122   66.2121 H   0  0  0  0  0  0  0  0  0  0  0  0
  2  1  1  0  0  0
  2  4  1  0  0  0
  2  5  1  0  0  0
 41 42  1  0  0  0
 41  1  1  0  0  0
 42 46  1  0  0  0
  1 24  1  0  0  0
 23 24  1  0  0  0
 23 25  1  0  0  0
 24 26  1  0  0  0
  3  4  2  0  0  0
 26 27  2  0  0  0
 27 28  1  0  0  0
 43 47  1  0  0  0
 43 51  1  0  0  0
 28 29  1  0  0  0
 56 48  1  0  0  0
 56 60  1  0  0  0
 29 30  1  0  0  0
 57 60  1  0  0  0
 57 61  1  0  0  0
 30 31  1  0  0  0
 44 49  1  0  0  0
 44 52  1  0  0  0
 31 32  1  0  0  0
 45 46  1  0  0  0
 45 50  1  0  0  0
 32 33  1  0  0  0
 53 54  1  0  0  0
 53 55  1  0  0  0
 33 34  1  0  0  0
 34 35  1  0  0  0
 35 36  1  0  0  0
 58 60  1  0  0  0
 36 37  1  0  0  0
 59 60  1  0  0  0
 59 62  1  0  0  0
 37 38  1  0  0  0
 38 39  1  0  0  0
 39 40  1  0  0  0
  4  6  1  0  0  0
  6  7  1  0  0  0
  7  8  1  0  0  0
  8  9  1  0  0  0
  9 10  1  0  0  0
 10 11  1  0  0  0
 11 12  1  0  0  0
 12 13  1  0  0  0
 13 14  1  0  0  0
 14 15  1  0  0  0
 15 16  1  0  0  0
 16 17  1  0  0  0
 17 18  1  0  0  0
 18 19  1  0  0  0
 19 20  1  0  0  0
 20 21  1  0  0  0
 21 22  1  0  0  0
 46 47  1  0  0  0
 47 48  1  0  0  0
 48 49  1  0  0  0
 49 50  1  0  0  0
 50 54  1  0  0  0
M  CHG 1  58  -1
M  END
> <minimizedAffinity>
-8.79158

> <CNNscore>
0.1484754384

> <CNNaffinity>
7.3194646835

> <CNN_VS>
1.0867607594

> <CNNaffinity_variance>
1.0254523754

$$$$
/media/chris/experiments/cd1a-new-docking/inputs/ligands/1onq_ligand.pdb


 62 62  0  0  0  0  0  0  0  0999 V2000
  -42.8344   59.7881   64.9835 C   0  0  0  0  0  0  0  0  0  0  0  0
  -44.0024   59.4603   65.7768 N   0  0  0  0  0  0  0  0  0  0  0  0
  -44.0156   57.1933   65.6880 O   0  0  0  0  0  0  0  0  0  0  0  0
  -44.4926   58.2465   66.0633 C   0  0  0  0  0  0  0  0  0  0  0  0
  -44.4972   60.2245   66.1517 H   0  0  0  0  0  0  0  0  0  0  0  0
  -45.7215   58.2419   66.9234 C   0  0  0  0  0  0  0  0  0  0  0  0
  -46.7425   57.3513   66.2153 C   0  0  0  0  0  0  0  0  0  0  0  0
  -47.6052   58.1914   65.2765 C   0  0  0  0  0  0  0  0  0  0  0  0
  -48.3344   59.3529   65.9071 C   0  0  0  0  0  0  0  0  0  0  0  0
  -48.2439   60.5317   64.9436 C   0  0  0  0  0  0  0  0  0  0  0  0
  -49.6212   61.0353   64.4918 C   0  0  0  0  0  0  0  0  0  0  0  0
  -50.7514   59.9997   64.6355 C   0  0  0  0  0  0  0  0  0  0  0  0
  -51.1746   59.3813   63.2849 C   0  0  0  0  0  0  0  0  0  0  0  0
  -50.4082   60.0316   62.1295 C   0  0  0  0  0  0  0  0  0  0  0  0
  -49.2802   59.1881   61.5481 C   0  0  0  0  0  0  0  0  0  0  0  0
  -49.3395   59.1126   60.0297 C   0  0  0  0  0  0  0  0  0  0  0  0
  -49.9718   57.8476   59.4447 C   0  0  0  0  0  0  0  0  0  0  0  0
  -49.0727   56.6661   59.7834 C   0  0  0  0  0  0  0  0  0  0  0  0
  -47.6243   56.6949   59.3180 C   0  0  0  0  0  0  0  0  0  0  0  0
  -47.5074   56.2368   57.8557 C   0  0  0  0  0  0  0  0  0  0  0  0
  -47.7336   57.3511   56.8173 C   0  0  0  0  0  0  0  0  0  0  0  0
  -46.8382   58.5689   57.0336 C   0  0  0  0  0  0  0  0  0  0  0  0
  -41.7467   61.3738   66.2868 O   0  0  0  0  0  0  0  0  0  0  0  0
  -41.7599   59.9800   66.0400 C   0  0  0  0  0  0  0  0  0  0  0  0
  -42.6116   61.6499   66.6283 H   0  0  0  0  0  0  0  0  0  0  0  0
  -40.4199   59.4777   65.4973 C   0  0  0  0  0  0  0  0  0  0  0  0
  -39.3629   60.2833   65.2979 C   0  0  0  0  0  0  0  0  0  0  0  0
  -38.0587   59.7052   64.7516 C   0  0  0  0  0  0  0  0  0  0  0  0
  -37.7098   58.3191   65.3133 C   0  0  0  0  0  0  0  0  0  0  0  0
  -36.4657   57.6469   64.7036 C   0  0  0  0  0  0  0  0  0  0  0  0
  -36.0218   58.3795   63.4145 C   0  0  0  0  0  0  0  0  0  0  0  0
  -34.5617   58.1110   62.9702 C   0  0  0  0  0  0  0  0  0  0  0  0
  -33.4988   58.4753   64.0335 C   0  0  0  0  0  0  0  0  0  0  0  0
  -32.1864   59.0232   63.4323 C   0  0  0  0  0  0  0  0  0  0  0  0
  -32.3938   59.8969   62.1894 C   0  0  0  0  0  0  0  0  0  0  0  0
  -31.6643   61.2386   62.1827 C   0  0  0  0  0  0  0  0  0  0  0  0
  -32.6022   62.4612   62.2244 C   0  0  0  0  0  0  0  0  0  0  0  0
  -32.8104   63.0795   63.6152 C   0  0  0  0  0  0  0  0  0  0  0  0
  -33.7394   62.2118   64.4693 C   0  0  0  0  0  0  0  0  0  0  0  0
  -35.1234   61.9461   63.9043 C   0  0  0  0  0  0  0  0  0  0  0  0
  -43.0237   60.9315   63.9609 C   0  0  0  0  0  0  0  0  0  0  0  0
  -42.2345   60.8526   62.7468 O   0  0  0  0  0  0  0  0  0  0  0  0
  -41.1213   60.5726   60.1276 O   0  0  0  0  0  0  0  0  0  0  0  0
  -39.3974   57.1595   61.7944 O   0  0  0  0  0  0  0  0  0  0  0  0
  -41.8896   58.4573   62.9169 O   0  0  0  0  0  0  0  0  0  0  0  0
  -42.0754   59.5781   62.0187 C   0  0  0  0  0  0  0  0  0  0  0  0
  -40.9172   59.5146   61.0126 C   0  0  0  0  0  0  0  0  0  0  0  0
  -40.8737   58.2029   60.1986 C   0  0  0  0  0  0  0  0  0  0  0  0
  -40.6902   57.0939   61.1975 C   0  0  0  0  0  0  0  0  0  0  0  0
  -41.7777   57.1690   62.2539 C   0  0  0  0  0  0  0  0  0  0  0  0
  -41.1515   61.4066   60.6222 H   0  0  0  0  0  0  0  0  0  0  0  0
  -38.7190   57.1100   61.1027 H   0  0  0  0  0  0  0  0  0  0  0  0
  -41.2625   54.8382   62.3770 O   0  0  0  0  0  0  0  0  0  0  0  0
  -41.4068   55.9906   63.1516 C   0  0  0  0  0  0  0  0  0  0  0  0
  -41.0269   54.0913   62.9494 H   0  0  0  0  0  0  0  0  0  0  0  0
  -39.7857   58.0777   59.2548 O   0  0  0  0  0  0  0  0  0  0  0  0
  -37.6905   58.9840   58.0277 O   0  0  0  0  0  0  0  0  0  0  0  0
  -37.5187   58.3120   60.3531 O   0  0  0  0  0  0  0  0  0  0  0  0
  -38.6124   60.3929   59.7630 O   0  0  0  0  0  0  0  0  0  0  0  0
  -38.3889   58.9792   59.3471 S   0  0  0  0  0  0  0  0  0  0  0  0
  -37.5362   58.0705   57.7401 H   0  0  0  0  0  0  0  0  0  0  0  0
  -39.1792   60.8356   59.1121 H   0  0  0  0  0  0  0  0  0  0  0  0
  2  1  1  0  0  0
  2  4  1  0  0  0
  2  5  1  0  0  0
 41 42  1  0  0  0
 41  1  1  0  0  0
 42 46  1  0  0  0
  1 24  1  0  0  0
 23 24  1  0  0  0
 23 25  1  0  0  0
 24 26  1  0  0  0
  3  4  2  0  0  0
 26 27  2  0  0  0
 27 28  1  0  0  0
 43 47  1  0  0  0
 43 51  1  0  0  0
 28 29  1  0  0  0
 56 48  1  0  0  0
 56 60  1  0  0  0
 29 30  1  0  0  0
 57 60  1  0  0  0
 57 61  1  0  0  0
 30 31  1  0  0  0
 44 49  1  0  0  0
 44 52  1  0  0  0
 31 32  1  0  0  0
 45 46  1  0  0  0
 45 50  1  0  0  0
 32 33  1  0  0  0
 53 54  1  0  0  0
 53 55  1  0  0  0
 33 34  1  0  0  0
 34 35  1  0  0  0
 35 36  1  0  0  0
 58 60  1  0  0  0
 36 37  1  0  0  0
 59 60  1  0  0  0
 59 62  1  0  0  0
 37 38  1  0  0  0
 38 39  1  0  0  0
 39 40  1  0  0  0
  4  6  1  0  0  0
  6  7  1  0  0  0
  7  8  1  0  0  0
  8  9  1  0  0  0
  9 10  1  0  0  0
 10 11  1  0  0  0
 11 12  1  0  0  0
 12 13  1  0  0  0
 13 14  1  0  0  0
 14 15  1  0  0  0
 15 16  1  0  0  0
 16 17  1  0  0  0
 17 18  1  0  0  0
 18 19  1  0  0  0
 19 20  1  0  0  0
 20 21  1  0  0  0
 21 22  1  0  0  0
 46 47  1  0  0  0
 47 48  1  0  0  0
 48 49  1  0  0  0
 49 50  1  0  0  0
 50 54  1  0  0  0
M  CHG 1  58  -1
M  END
> <minimizedAffinity>
-9.21473

> <CNNscore>
0.1258010864

> <CNNaffinity>
6.8118925095

> <CNN_VS>
0.8569434881

> <CNNaffinity_variance>
2.1253802776

$$$$
/media/chris/experiments/cd1a-new-docking/inputs/ligands/1onq_ligand.pdb


 62 62  0  0  0  0  0  0  0  0999 V2000
  -38.7221   60.0444   65.3721 C   0  0  0  0  0  0  0  0  0  0  0  0
  -40.1028   59.6112   65.4574 N   0  0  0  0  0  0  0  0  0  0  0  0
  -41.0637   61.3120   66.6112 O   0  0  0  0  0  0  0  0  0  0  0  0
  -41.1317   60.2404   66.0413 C   0  0  0  0  0  0  0  0  0  0  0  0
  -40.3103   58.7471   65.0335 H   0  0  0  0  0  0  0  0  0  0  0  0
  -42.4491   59.5291   65.9496 C   0  0  0  0  0  0  0  0  0  0  0  0
  -43.4147   60.4929   65.2597 C   0  0  0  0  0  0  0  0  0  0  0  0
  -44.8559   60.0562   65.5112 C   0  0  0  0  0  0  0  0  0  0  0  0
  -45.1030   58.5673   65.5375 C   0  0  0  0  0  0  0  0  0  0  0  0
  -46.2761   58.3115   66.4779 C   0  0  0  0  0  0  0  0  0  0  0  0
  -47.3499   59.4048   66.3977 C   0  0  0  0  0  0  0  0  0  0  0  0
  -48.5733   59.0278   65.5423 C   0  0  0  0  0  0  0  0  0  0  0  0
  -49.3718   60.2591   65.0608 C   0  0  0  0  0  0  0  0  0  0  0  0
  -50.8098   59.8666   64.7098 C   0  0  0  0  0  0  0  0  0  0  0  0
  -51.1769   60.0117   63.2380 C   0  0  0  0  0  0  0  0  0  0  0  0
  -51.0922   58.6901   62.4889 C   0  0  0  0  0  0  0  0  0  0  0  0
  -49.7109   58.3117   61.9493 C   0  0  0  0  0  0  0  0  0  0  0  0
  -49.9043   57.4093   60.7381 C   0  0  0  0  0  0  0  0  0  0  0  0
  -49.9941   58.0476   59.3599 C   0  0  0  0  0  0  0  0  0  0  0  0
  -48.7115   58.8276   59.0304 C   0  0  0  0  0  0  0  0  0  0  0  0
  -47.7167   58.0704   58.1316 C   0  0  0  0  0  0  0  0  0  0  0  0
  -48.3964   57.1549   57.1159 C   0  0  0  0  0  0  0  0  0  0  0  0
  -38.4161   62.0620   64.2625 O   0  0  0  0  0  0  0  0  0  0  0  0
  -38.6629   60.6932   63.9998 C   0  0  0  0  0  0  0  0  0  0  0  0
  -37.5652   62.1554   64.7189 H   0  0  0  0  0  0  0  0  0  0  0  0
  -39.9950   60.4755   63.2783 C   0  0  0  0  0  0  0  0  0  0  0  0
  -40.6039   61.4348   62.5606 C   0  0  0  0  0  0  0  0  0  0  0  0
  -41.9340   61.1391   61.8701 C   0  0  0  0  0  0  0  0  0  0  0  0
  -41.9876   61.5930   60.4039 C   0  0  0  0  0  0  0  0  0  0  0  0
  -41.1003   60.7988   59.4276 C   0  0  0  0  0  0  0  0  0  0  0  0
  -41.0303   59.3081   59.8377 C   0  0  0  0  0  0  0  0  0  0  0  0
  -40.0849   58.4295   58.9799 C   0  0  0  0  0  0  0  0  0  0  0  0
  -38.5818   58.6334   59.2833 C   0  0  0  0  0  0  0  0  0  0  0  0
  -38.2917   58.9846   60.7587 C   0  0  0  0  0  0  0  0  0  0  0  0
  -37.8600   57.7821   61.6066 C   0  0  0  0  0  0  0  0  0  0  0  0
  -38.9280   57.1888   62.5228 C   0  0  0  0  0  0  0  0  0  0  0  0
  -40.0663   56.4691   61.7730 C   0  0  0  0  0  0  0  0  0  0  0  0
  -41.0971   55.7646   62.6681 C   0  0  0  0  0  0  0  0  0  0  0  0
  -41.8619   56.7758   63.5271 C   0  0  0  0  0  0  0  0  0  0  0  0
  -42.6459   57.8400   62.7798 C   0  0  0  0  0  0  0  0  0  0  0  0
  -37.6641   58.9609   65.6811 C   0  0  0  0  0  0  0  0  0  0  0  0
  -36.4548   58.9889   64.8811 O   0  0  0  0  0  0  0  0  0  0  0  0
  -34.6858   59.8219   62.7945 O   0  0  0  0  0  0  0  0  0  0  0  0
  -35.7420   63.6287   64.1331 O   0  0  0  0  0  0  0  0  0  0  0  0
  -35.9750   61.1557   65.8610 O   0  0  0  0  0  0  0  0  0  0  0  0
  -35.5073   60.1182   64.9654 C   0  0  0  0  0  0  0  0  0  0  0  0
  -35.1709   60.8182   63.6407 C   0  0  0  0  0  0  0  0  0  0  0  0
  -34.0880   61.9111   63.7742 C   0  0  0  0  0  0  0  0  0  0  0  0
  -34.6422   62.9389   64.7218 C   0  0  0  0  0  0  0  0  0  0  0  0
  -35.0560   62.2701   66.0202 C   0  0  0  0  0  0  0  0  0  0  0  0
  -35.3541   59.1253   62.6986 H   0  0  0  0  0  0  0  0  0  0  0  0
  -35.4558   64.0476   63.3063 H   0  0  0  0  0  0  0  0  0  0  0  0
  -34.5862   64.4246   66.9427 O   0  0  0  0  0  0  0  0  0  0  0  0
  -35.5879   63.4605   66.8153 C   0  0  0  0  0  0  0  0  0  0  0  0
  -34.9265   65.1796   67.4479 H   0  0  0  0  0  0  0  0  0  0  0  0
  -33.7519   62.6225   62.5613 O   0  0  0  0  0  0  0  0  0  0  0  0
  -31.2162   62.6151   63.0970 O   0  0  0  0  0  0  0  0  0  0  0  0
  -32.3595   64.7267   62.7466 O   0  0  0  0  0  0  0  0  0  0  0  0
  -31.8400   63.2942   60.8619 O   0  0  0  0  0  0  0  0  0  0  0  0
  -32.2612   63.3133   62.2914 S   0  0  0  0  0  0  0  0  0  0  0  0
  -31.4735   62.6175   64.0322 H   0  0  0  0  0  0  0  0  0  0  0  0
  -31.7733   62.3759   60.5567 H   0  0  0  0  0  0  0  0  0  0  0  0
  2  1  1  0  0  0
  2  4  1  0  0  0
  2  5  1  0  0  0
 41 42  1  0  0  0
 41  1  1  0  0  0
 42 46  1  0  0  0
  1 24  1  0  0  0
 23 24  1  0  0  0
 23 25  1  0  0  0
 24 26  1  0  0  0
  3  4  2  0  0  0
 26 27  2  0  0  0
 27 28  1  0  0  0
 43 47  1  0  0  0
 43 51  1  0  0  0
 28 29  1  0  0  0
 56 48  1  0  0  0
 56 60  1  0  0  0
 29 30  1  0  0  0
 57 60  1  0  0  0
 57 61  1  0  0  0
 30 31  1  0  0  0
 44 49  1  0  0  0
 44 52  1  0  0  0
 31 32  1  0  0  0
 45 46  1  0  0  0
 45 50  1  0  0  0
 32 33  1  0  0  0
 53 54  1  0  0  0
 53 55  1  0  0  0
 33 34  1  0  0  0
 34 35  1  0  0  0
 35 36  1  0  0  0
 58 60  1  0  0  0
 36 37  1  0  0  0
 59 60  1  0  0  0
 59 62  1  0  0  0
 37 38  1  0  0  0
 38 39  1  0  0  0
 39 40  1  0  0  0
  4  6  1  0  0  0
  6  7  1  0  0  0
  7  8  1  0  0  0
  8  9  1  0  0  0
  9 10  1  0  0  0
 10 11  1  0  0  0
 11 12  1  0  0  0
 12 13  1  0  0  0
 13 14  1  0  0  0
 14 15  1  0  0  0
 15 16  1  0  0  0
 16 17  1  0  0  0
 17 18  1  0  0  0
 18 19  1  0  0  0
 19 20  1  0  0  0
 20 21  1  0  0  0
 21 22  1  0  0  0
 46 47  1  0  0  0
 47 48  1  0  0  0
 48 49  1  0  0  0
 49 50  1  0  0  0
 50 54  1  0  0  0
M  CHG 1  58  -1
M  END
> <minimizedAffinity>
-8.65747

> <CNNscore>
0.1195413545

> <CNNaffinity>
7.0584487915

> <CNN_VS>
0.8437765241

> <CNNaffinity_variance>
1.4645805359

$$$$
