/media/chris/experiments/cd1a-new-docking/inputs/ligands/1onq_ligand.pdb


 62 62  0  0  0  0  0  0  0  0999 V2000
  -41.5905   60.0013   64.8344 C   0  0  0  0  0  0  0  0  0  0  0  0
  -41.8373   58.6769   64.2995 N   0  0  0  0  0  0  0  0  0  0  0  0
  -42.7268   56.5903   64.3472 O   0  0  0  0  0  0  0  0  0  0  0  0
  -42.5650   57.6898   64.8398 C   0  0  0  0  0  0  0  0  0  0  0  0
  -41.4183   58.4779   63.4311 H   0  0  0  0  0  0  0  0  0  0  0  0
  -43.2015   58.0152   66.1584 C   0  0  0  0  0  0  0  0  0  0  0  0
  -44.6572   57.5584   66.0612 C   0  0  0  0  0  0  0  0  0  0  0  0
  -45.5839   58.7716   66.0354 C   0  0  0  0  0  0  0  0  0  0  0  0
  -46.2477   59.0714   64.7133 C   0  0  0  0  0  0  0  0  0  0  0  0
  -47.7128   58.6647   64.8306 C   0  0  0  0  0  0  0  0  0  0  0  0
  -48.4133   59.3110   66.0333 C   0  0  0  0  0  0  0  0  0  0  0  0
  -49.7668   59.9650   65.7004 C   0  0  0  0  0  0  0  0  0  0  0  0
  -49.7836   60.6357   64.3092 C   0  0  0  0  0  0  0  0  0  0  0  0
  -50.9421   60.0978   63.4644 C   0  0  0  0  0  0  0  0  0  0  0  0
  -50.9128   58.5953   63.2118 C   0  0  0  0  0  0  0  0  0  0  0  0
  -50.8797   58.2600   61.7280 C   0  0  0  0  0  0  0  0  0  0  0  0
  -49.8434   59.0150   60.8924 C   0  0  0  0  0  0  0  0  0  0  0  0
  -49.8454   58.4273   59.4877 C   0  0  0  0  0  0  0  0  0  0  0  0
  -48.6223   57.6527   59.0194 C   0  0  0  0  0  0  0  0  0  0  0  0
  -47.7027   58.5406   58.1661 C   0  0  0  0  0  0  0  0  0  0  0  0
  -46.9372   57.7904   57.0605 C   0  0  0  0  0  0  0  0  0  0  0  0
  -47.1429   56.2779   57.1030 C   0  0  0  0  0  0  0  0  0  0  0  0
  -43.5862   60.9336   64.0967 O   0  0  0  0  0  0  0  0  0  0  0  0
  -42.2069   60.9044   63.7799 C   0  0  0  0  0  0  0  0  0  0  0  0
  -43.7068   61.3133   64.9812 H   0  0  0  0  0  0  0  0  0  0  0  0
  -41.9464   60.3142   62.3920 C   0  0  0  0  0  0  0  0  0  0  0  0
  -41.4298   61.0290   61.3779 C   0  0  0  0  0  0  0  0  0  0  0  0
  -41.2003   60.3670   60.0205 C   0  0  0  0  0  0  0  0  0  0  0  0
  -39.7345   59.9989   59.7483 C   0  0  0  0  0  0  0  0  0  0  0  0
  -39.4909   58.5672   59.2364 C   0  0  0  0  0  0  0  0  0  0  0  0
  -40.6013   57.6101   59.7326 C   0  0  0  0  0  0  0  0  0  0  0  0
  -40.3949   57.0403   61.1589 C   0  0  0  0  0  0  0  0  0  0  0  0
  -38.9390   57.1324   61.6733 C   0  0  0  0  0  0  0  0  0  0  0  0
  -38.8259   57.6811   63.1121 C   0  0  0  0  0  0  0  0  0  0  0  0
  -37.3894   58.0071   63.5378 C   0  0  0  0  0  0  0  0  0  0  0  0
  -36.3124   57.8090   62.4731 C   0  0  0  0  0  0  0  0  0  0  0  0
  -34.9038   57.5585   63.0469 C   0  0  0  0  0  0  0  0  0  0  0  0
  -33.7860   58.4179   62.4371 C   0  0  0  0  0  0  0  0  0  0  0  0
  -32.5711   58.4805   63.3672 C   0  0  0  0  0  0  0  0  0  0  0  0
  -32.8633   58.5665   64.8548 C   0  0  0  0  0  0  0  0  0  0  0  0
  -40.1278   60.2938   65.2393 C   0  0  0  0  0  0  0  0  0  0  0  0
  -39.4147   61.2670   64.4346 O   0  0  0  0  0  0  0  0  0  0  0  0
  -37.5741   61.5264   62.2615 O   0  0  0  0  0  0  0  0  0  0  0  0
  -35.8218   64.3612   64.7700 O   0  0  0  0  0  0  0  0  0  0  0  0
  -37.6035   62.1396   65.7925 O   0  0  0  0  0  0  0  0  0  0  0  0
  -37.9557   61.4495   64.5688 C   0  0  0  0  0  0  0  0  0  0  0  0
  -37.2633   62.2160   63.4328 C   0  0  0  0  0  0  0  0  0  0  0  0
  -35.7259   62.2722   63.5691 C   0  0  0  0  0  0  0  0  0  0  0  0
  -35.4443   62.9895   64.8605 C   0  0  0  0  0  0  0  0  0  0  0  0
  -36.1745   62.3020   65.9999 C   0  0  0  0  0  0  0  0  0  0  0  0
  -38.5376   61.4811   62.1590 H   0  0  0  0  0  0  0  0  0  0  0  0
  -35.3443   64.7802   64.0369 H   0  0  0  0  0  0  0  0  0  0  0  0
  -34.3800   63.1927   67.3037 O   0  0  0  0  0  0  0  0  0  0  0  0
  -35.7710   63.1751   67.1861 C   0  0  0  0  0  0  0  0  0  0  0  0
  -34.1263   63.7478   68.0576 H   0  0  0  0  0  0  0  0  0  0  0  0
  -35.0242   63.0064   62.5403 O   0  0  0  0  0  0  0  0  0  0  0  0
  -32.7453   61.9097   63.1069 O   0  0  0  0  0  0  0  0  0  0  0  0
  -32.9727   64.3232   63.2175 O   0  0  0  0  0  0  0  0  0  0  0  0
  -32.8355   63.2087   61.0696 O   0  0  0  0  0  0  0  0  0  0  0  0
  -33.3641   63.1040   62.4593 S   0  0  0  0  0  0  0  0  0  0  0  0
  -33.0781   61.8250   64.0141 H   0  0  0  0  0  0  0  0  0  0  0  0
  -33.0862   62.4173   60.5678 H   0  0  0  0  0  0  0  0  0  0  0  0
  2  1  1  0  0  0
  2  4  1  0  0  0
  2  5  1  0  0  0
 41 42  1  0  0  0
 41  1  1  0  0  0
 42 46  1  0  0  0
  1 24  1  0  0  0
 23 24  1  0  0  0
 23 25  1  0  0  0
 24 26  1  0  0  0
  3  4  2  0  0  0
 26 27  2  0  0  0
 27 28  1  0  0  0
 43 47  1  0  0  0
 43 51  1  0  0  0
 28 29  1  0  0  0
 56 48  1  0  0  0
 56 60  1  0  0  0
 29 30  1  0  0  0
 57 60  1  0  0  0
 57 61  1  0  0  0
 30 31  1  0  0  0
 44 49  1  0  0  0
 44 52  1  0  0  0
 31 32  1  0  0  0
 45 46  1  0  0  0
 45 50  1  0  0  0
 32 33  1  0  0  0
 53 54  1  0  0  0
 53 55  1  0  0  0
 33 34  1  0  0  0
 34 35  1  0  0  0
 35 36  1  0  0  0
 58 60  1  0  0  0
 36 37  1  0  0  0
 59 60  1  0  0  0
 59 62  1  0  0  0
 37 38  1  0  0  0
 38 39  1  0  0  0
 39 40  1  0  0  0
  4  6  1  0  0  0
  6  7  1  0  0  0
  7  8  1  0  0  0
  8  9  1  0  0  0
  9 10  1  0  0  0
 10 11  1  0  0  0
 11 12  1  0  0  0
 12 13  1  0  0  0
 13 14  1  0  0  0
 14 15  1  0  0  0
 15 16  1  0  0  0
 16 17  1  0  0  0
 17 18  1  0  0  0
 18 19  1  0  0  0
 19 20  1  0  0  0
 20 21  1  0  0  0
 21 22  1  0  0  0
 46 47  1  0  0  0
 47 48  1  0  0  0
 48 49  1  0  0  0
 49 50  1  0  0  0
 50 54  1  0  0  0
M  CHG 1  58  -1
M  END
> <minimizedAffinity>
-9.67072

> <CNNscore>
0.2515135109

> <CNNaffinity>
7.1859464645

> <CNN_VS>
1.8073626757

> <CNNaffinity_variance>
1.6587154865

$$$$
/media/chris/experiments/cd1a-new-docking/inputs/ligands/1onq_ligand.pdb


 62 62  0  0  0  0  0  0  0  0999 V2000
  -41.5653   60.1700   64.8354 C   0  0  0  0  0  0  0  0  0  0  0  0
  -42.3810   59.5971   63.7830 N   0  0  0  0  0  0  0  0  0  0  0  0
  -43.5329   57.9204   62.7783 O   0  0  0  0  0  0  0  0  0  0  0  0
  -42.8608   58.3489   63.6962 C   0  0  0  0  0  0  0  0  0  0  0  0
  -42.6111   60.2000   63.0395 H   0  0  0  0  0  0  0  0  0  0  0  0
  -42.5060   57.4483   64.8420 C   0  0  0  0  0  0  0  0  0  0  0  0
  -41.2716   56.6586   64.4061 C   0  0  0  0  0  0  0  0  0  0  0  0
  -41.5869   55.8491   63.1506 C   0  0  0  0  0  0  0  0  0  0  0  0
  -40.5884   55.9568   62.0236 C   0  0  0  0  0  0  0  0  0  0  0  0
  -41.3726   56.1497   60.7300 C   0  0  0  0  0  0  0  0  0  0  0  0
  -41.4381   57.6182   60.2895 C   0  0  0  0  0  0  0  0  0  0  0  0
  -40.3908   58.0079   59.2303 C   0  0  0  0  0  0  0  0  0  0  0  0
  -39.6658   59.3309   59.5611 C   0  0  0  0  0  0  0  0  0  0  0  0
  -38.1498   59.1652   59.4220 C   0  0  0  0  0  0  0  0  0  0  0  0
  -37.4803   58.3858   60.5474 C   0  0  0  0  0  0  0  0  0  0  0  0
  -38.1750   58.5922   61.8852 C   0  0  0  0  0  0  0  0  0  0  0  0
  -37.6174   57.7883   63.0621 C   0  0  0  0  0  0  0  0  0  0  0  0
  -36.0971   57.8354   62.9926 C   0  0  0  0  0  0  0  0  0  0  0  0
  -35.3615   58.8849   63.8126 C   0  0  0  0  0  0  0  0  0  0  0  0
  -34.4092   58.2255   64.8227 C   0  0  0  0  0  0  0  0  0  0  0  0
  -32.9270   58.6022   64.6427 C   0  0  0  0  0  0  0  0  0  0  0  0
  -32.4367   58.4547   63.2041 C   0  0  0  0  0  0  0  0  0  0  0  0
  -42.1446   61.7303   66.4558 O   0  0  0  0  0  0  0  0  0  0  0  0
  -42.2149   61.5251   65.0570 C   0  0  0  0  0  0  0  0  0  0  0  0
  -41.2153   61.7500   66.7334 H   0  0  0  0  0  0  0  0  0  0  0  0
  -43.6592   61.4836   64.5522 C   0  0  0  0  0  0  0  0  0  0  0  0
  -44.6371   60.8144   65.1861 C   0  0  0  0  0  0  0  0  0  0  0  0
  -46.0548   60.8205   64.6174 C   0  0  0  0  0  0  0  0  0  0  0  0
  -46.7182   59.4359   64.5865 C   0  0  0  0  0  0  0  0  0  0  0  0
  -47.4860   59.0362   65.8601 C   0  0  0  0  0  0  0  0  0  0  0  0
  -48.6929   59.9768   66.0918 C   0  0  0  0  0  0  0  0  0  0  0  0
  -50.0849   59.3367   65.8590 C   0  0  0  0  0  0  0  0  0  0  0  0
  -50.8557   59.9187   64.6507 C   0  0  0  0  0  0  0  0  0  0  0  0
  -49.9392   60.5411   63.5753 C   0  0  0  0  0  0  0  0  0  0  0  0
  -50.3189   60.1543   62.1409 C   0  0  0  0  0  0  0  0  0  0  0  0
  -49.4226   59.1186   61.4653 C   0  0  0  0  0  0  0  0  0  0  0  0
  -49.3665   59.2456   59.9301 C   0  0  0  0  0  0  0  0  0  0  0  0
  -49.2154   57.9201   59.1684 C   0  0  0  0  0  0  0  0  0  0  0  0
  -47.7439   57.6262   58.8630 C   0  0  0  0  0  0  0  0  0  0  0  0
  -47.2422   58.0444   57.4923 C   0  0  0  0  0  0  0  0  0  0  0  0
  -40.0413   60.1572   64.5780 C   0  0  0  0  0  0  0  0  0  0  0  0
  -39.3981   61.4485   64.4299 O   0  0  0  0  0  0  0  0  0  0  0  0
  -37.6407   61.8677   62.2133 O   0  0  0  0  0  0  0  0  0  0  0  0
  -35.7193   64.4232   64.8924 O   0  0  0  0  0  0  0  0  0  0  0  0
  -37.5126   62.1549   65.7835 O   0  0  0  0  0  0  0  0  0  0  0  0
  -37.9307   61.5874   64.5182 C   0  0  0  0  0  0  0  0  0  0  0  0
  -37.2660   62.4403   63.4282 C   0  0  0  0  0  0  0  0  0  0  0  0
  -35.7234   62.4516   63.5038 C   0  0  0  0  0  0  0  0  0  0  0  0
  -35.3724   63.0414   64.8419 C   0  0  0  0  0  0  0  0  0  0  0  0
  -36.0729   62.2676   65.9441 C   0  0  0  0  0  0  0  0  0  0  0  0
  -38.6083   61.8521   62.1480 H   0  0  0  0  0  0  0  0  0  0  0  0
  -35.2615   64.8976   64.1808 H   0  0  0  0  0  0  0  0  0  0  0  0
  -36.4770   64.0712   67.4599 O   0  0  0  0  0  0  0  0  0  0  0  0
  -35.6005   63.0196   67.1865 C   0  0  0  0  0  0  0  0  0  0  0  0
  -36.1748   64.5471   68.2492 H   0  0  0  0  0  0  0  0  0  0  0  0
  -35.0458   63.2623   62.5172 O   0  0  0  0  0  0  0  0  0  0  0  0
  -33.0874   63.5840   60.8504 O   0  0  0  0  0  0  0  0  0  0  0  0
  -32.9884   61.7904   62.4820 O   0  0  0  0  0  0  0  0  0  0  0  0
  -32.6183   64.0850   63.1689 O   0  0  0  0  0  0  0  0  0  0  0  0
  -33.4022   63.2023   62.2589 S   0  0  0  0  0  0  0  0  0  0  0  0
  -33.5894   63.0190   60.2424 H   0  0  0  0  0  0  0  0  0  0  0  0
  -32.8819   65.0082   63.0300 H   0  0  0  0  0  0  0  0  0  0  0  0
  2  1  1  0  0  0
  2  4  1  0  0  0
  2  5  1  0  0  0
 41 42  1  0  0  0
 41  1  1  0  0  0
 42 46  1  0  0  0
  1 24  1  0  0  0
 23 24  1  0  0  0
 23 25  1  0  0  0
 24 26  1  0  0  0
  3  4  2  0  0  0
 26 27  2  0  0  0
 27 28  1  0  0  0
 43 47  1  0  0  0
 43 51  1  0  0  0
 28 29  1  0  0  0
 56 48  1  0  0  0
 56 60  1  0  0  0
 29 30  1  0  0  0
 57 60  1  0  0  0
 57 61  1  0  0  0
 30 31  1  0  0  0
 44 49  1  0  0  0
 44 52  1  0  0  0
 31 32  1  0  0  0
 45 46  1  0  0  0
 45 50  1  0  0  0
 32 33  1  0  0  0
 53 54  1  0  0  0
 53 55  1  0  0  0
 33 34  1  0  0  0
 34 35  1  0  0  0
 35 36  1  0  0  0
 58 60  1  0  0  0
 36 37  1  0  0  0
 59 60  1  0  0  0
 59 62  1  0  0  0
 37 38  1  0  0  0
 38 39  1  0  0  0
 39 40  1  0  0  0
  4  6  1  0  0  0
  6  7  1  0  0  0
  7  8  1  0  0  0
  8  9  1  0  0  0
  9 10  1  0  0  0
 10 11  1  0  0  0
 11 12  1  0  0  0
 12 13  1  0  0  0
 13 14  1  0  0  0
 14 15  1  0  0  0
 15 16  1  0  0  0
 16 17  1  0  0  0
 17 18  1  0  0  0
 18 19  1  0  0  0
 19 20  1  0  0  0
 20 21  1  0  0  0
 21 22  1  0  0  0
 46 47  1  0  0  0
 47 48  1  0  0  0
 48 49  1  0  0  0
 49 50  1  0  0  0
 50 54  1  0  0  0
M  CHG 1  58  -1
M  END
> <minimizedAffinity>
-9.36519

> <CNNscore>
0.2253941745

> <CNNaffinity>
7.1719770432

> <CNN_VS>
1.6165218353

> <CNNaffinity_variance>
1.7174537182

$$$$
/media/chris/experiments/cd1a-new-docking/inputs/ligands/1onq_ligand.pdb


 62 62  0  0  0  0  0  0  0  0999 V2000
  -40.7898   59.9825   64.0414 C   0  0  0  0  0  0  0  0  0  0  0  0
  -41.8850   60.7604   64.5860 N   0  0  0  0  0  0  0  0  0  0  0  0
  -44.0754   61.2078   64.9726 O   0  0  0  0  0  0  0  0  0  0  0  0
  -43.1986   60.5085   64.5036 C   0  0  0  0  0  0  0  0  0  0  0  0
  -41.6324   61.5751   65.0775 H   0  0  0  0  0  0  0  0  0  0  0  0
  -43.5628   59.2591   63.7579 C   0  0  0  0  0  0  0  0  0  0  0  0
  -44.9818   58.8928   64.1932 C   0  0  0  0  0  0  0  0  0  0  0  0
  -44.9360   58.0527   65.4672 C   0  0  0  0  0  0  0  0  0  0  0  0
  -46.2476   57.8770   66.1935 C   0  0  0  0  0  0  0  0  0  0  0  0
  -46.6133   59.2204   66.8158 C   0  0  0  0  0  0  0  0  0  0  0  0
  -47.9254   59.7927   66.2627 C   0  0  0  0  0  0  0  0  0  0  0  0
  -48.8035   58.7639   65.5271 C   0  0  0  0  0  0  0  0  0  0  0  0
  -50.2635   59.2365   65.3522 C   0  0  0  0  0  0  0  0  0  0  0  0
  -50.3888   60.1656   64.1414 C   0  0  0  0  0  0  0  0  0  0  0  0
  -51.1772   59.5944   62.9690 C   0  0  0  0  0  0  0  0  0  0  0  0
  -50.6463   58.2407   62.5213 C   0  0  0  0  0  0  0  0  0  0  0  0
  -50.7951   57.9205   61.0321 C   0  0  0  0  0  0  0  0  0  0  0  0
  -49.5450   58.4091   60.3132 C   0  0  0  0  0  0  0  0  0  0  0  0
  -49.3005   57.9518   58.8828 C   0  0  0  0  0  0  0  0  0  0  0  0
  -47.9115   58.3925   58.3943 C   0  0  0  0  0  0  0  0  0  0  0  0
  -47.4688   57.7517   57.0660 C   0  0  0  0  0  0  0  0  0  0  0  0
  -47.1673   56.2596   57.1861 C   0  0  0  0  0  0  0  0  0  0  0  0
  -39.7372   60.4678   66.0544 O   0  0  0  0  0  0  0  0  0  0  0  0
  -40.1736   59.3633   65.2842 C   0  0  0  0  0  0  0  0  0  0  0  0
  -40.5001   61.0179   66.2920 H   0  0  0  0  0  0  0  0  0  0  0  0
  -39.0144   58.4517   64.8748 C   0  0  0  0  0  0  0  0  0  0  0  0
  -37.7763   58.5686   65.3844 C   0  0  0  0  0  0  0  0  0  0  0  0
  -36.6716   57.6196   64.9233 C   0  0  0  0  0  0  0  0  0  0  0  0
  -35.4642   58.3301   64.2944 C   0  0  0  0  0  0  0  0  0  0  0  0
  -35.3274   58.1864   62.7674 C   0  0  0  0  0  0  0  0  0  0  0  0
  -36.6641   57.7266   62.1370 C   0  0  0  0  0  0  0  0  0  0  0  0
  -37.4928   58.8442   61.4545 C   0  0  0  0  0  0  0  0  0  0  0  0
  -37.9979   58.4829   60.0378 C   0  0  0  0  0  0  0  0  0  0  0  0
  -39.1341   59.3994   59.5349 C   0  0  0  0  0  0  0  0  0  0  0  0
  -40.4276   58.6497   59.1943 C   0  0  0  0  0  0  0  0  0  0  0  0
  -41.2958   58.2358   60.3806 C   0  0  0  0  0  0  0  0  0  0  0  0
  -41.1910   56.7409   60.7416 C   0  0  0  0  0  0  0  0  0  0  0  0
  -40.5371   56.4391   62.0985 C   0  0  0  0  0  0  0  0  0  0  0  0
  -41.4489   55.5669   62.9663 C   0  0  0  0  0  0  0  0  0  0  0  0
  -41.8962   56.1646   64.2885 C   0  0  0  0  0  0  0  0  0  0  0  0
  -39.8377   60.7462   63.0933 C   0  0  0  0  0  0  0  0  0  0  0  0
  -39.1752   61.9136   63.6424 O   0  0  0  0  0  0  0  0  0  0  0  0
  -37.0806   62.2947   61.7332 O   0  0  0  0  0  0  0  0  0  0  0  0
  -35.3561   64.4772   64.8416 O   0  0  0  0  0  0  0  0  0  0  0  0
  -37.4545   62.3454   65.2972 O   0  0  0  0  0  0  0  0  0  0  0  0
  -37.7303   61.9017   63.9464 C   0  0  0  0  0  0  0  0  0  0  0  0
  -36.8397   62.7511   63.0285 C   0  0  0  0  0  0  0  0  0  0  0  0
  -35.3301   62.6058   63.3210 C   0  0  0  0  0  0  0  0  0  0  0  0
  -35.1291   63.0738   64.7358 C   0  0  0  0  0  0  0  0  0  0  0  0
  -36.0498   62.3057   65.6668 C   0  0  0  0  0  0  0  0  0  0  0  0
  -38.0257   62.3786   61.5314 H   0  0  0  0  0  0  0  0  0  0  0  0
  -34.7584   64.9476   64.2395 H   0  0  0  0  0  0  0  0  0  0  0  0
  -36.5065   64.0468   67.2396 O   0  0  0  0  0  0  0  0  0  0  0  0
  -35.7007   62.9288   67.0166 C   0  0  0  0  0  0  0  0  0  0  0  0
  -36.2829   64.4406   68.0974 H   0  0  0  0  0  0  0  0  0  0  0  0
  -34.4457   63.4056   62.5037 O   0  0  0  0  0  0  0  0  0  0  0  0
  -32.3796   63.6085   60.9521 O   0  0  0  0  0  0  0  0  0  0  0  0
  -32.7760   61.5374   62.1531 O   0  0  0  0  0  0  0  0  0  0  0  0
  -31.9331   63.4842   63.3252 O   0  0  0  0  0  0  0  0  0  0  0  0
  -32.8470   63.0211   62.2426 S   0  0  0  0  0  0  0  0  0  0  0  0
  -32.9635   63.3177   60.2342 H   0  0  0  0  0  0  0  0  0  0  0  0
  -31.9730   64.4512   63.3905 H   0  0  0  0  0  0  0  0  0  0  0  0
  2  1  1  0  0  0
  2  4  1  0  0  0
  2  5  1  0  0  0
 41 42  1  0  0  0
 41  1  1  0  0  0
 42 46  1  0  0  0
  1 24  1  0  0  0
 23 24  1  0  0  0
 23 25  1  0  0  0
 24 26  1  0  0  0
  3  4  2  0  0  0
 26 27  2  0  0  0
 27 28  1  0  0  0
 43 47  1  0  0  0
 43 51  1  0  0  0
 28 29  1  0  0  0
 56 48  1  0  0  0
 56 60  1  0  0  0
 29 30  1  0  0  0
 57 60  1  0  0  0
 57 61  1  0  0  0
 30 31  1  0  0  0
 44 49  1  0  0  0
 44 52  1  0  0  0
 31 32  1  0  0  0
 45 46  1  0  0  0
 45 50  1  0  0  0
 32 33  1  0  0  0
 53 54  1  0  0  0
 53 55  1  0  0  0
 33 34  1  0  0  0
 34 35  1  0  0  0
 35 36  1  0  0  0
 58 60  1  0  0  0
 36 37  1  0  0  0
 59 60  1  0  0  0
 59 62  1  0  0  0
 37 38  1  0  0  0
 38 39  1  0  0  0
 39 40  1  0  0  0
  4  6  1  0  0  0
  6  7  1  0  0  0
  7  8  1  0  0  0
  8  9  1  0  0  0
  9 10  1  0  0  0
 10 11  1  0  0  0
 11 12  1  0  0  0
 12 13  1  0  0  0
 13 14  1  0  0  0
 14 15  1  0  0  0
 15 16  1  0  0  0
 16 17  1  0  0  0
 17 18  1  0  0  0
 18 19  1  0  0  0
 19 20  1  0  0  0
 20 21  1  0  0  0
 21 22  1  0  0  0
 46 47  1  0  0  0
 47 48  1  0  0  0
 48 49  1  0  0  0
 49 50  1  0  0  0
 50 54  1  0  0  0
M  CHG 1  58  -1
M  END
> <minimizedAffinity>
-9.69303

> <CNNscore>
0.2245462090

> <CNNaffinity>
7.3047914505

> <CNN_VS>
1.6402631998

> <CNNaffinity_variance>
1.3312199116

$$$$
/media/chris/experiments/cd1a-new-docking/inputs/ligands/1onq_ligand.pdb


 62 62  0  0  0  0  0  0  0  0999 V2000
  -40.0896   60.3995   65.2477 C   0  0  0  0  0  0  0  0  0  0  0  0
  -40.7478   59.1412   65.5387 N   0  0  0  0  0  0  0  0  0  0  0  0
  -42.4406   57.8621   66.3423 O   0  0  0  0  0  0  0  0  0  0  0  0
  -41.9435   58.9472   66.1118 C   0  0  0  0  0  0  0  0  0  0  0  0
  -40.2552   58.3279   65.2834 H   0  0  0  0  0  0  0  0  0  0  0  0
  -42.6816   60.1982   66.4860 C   0  0  0  0  0  0  0  0  0  0  0  0
  -44.1578   59.9360   66.1868 C   0  0  0  0  0  0  0  0  0  0  0  0
  -44.5135   60.4765   64.8039 C   0  0  0  0  0  0  0  0  0  0  0  0
  -45.9863   60.5690   64.4864 C   0  0  0  0  0  0  0  0  0  0  0  0
  -46.6333   59.2558   64.9138 C   0  0  0  0  0  0  0  0  0  0  0  0
  -47.8347   59.4623   65.8460 C   0  0  0  0  0  0  0  0  0  0  0  0
  -48.9244   60.3893   65.2771 C   0  0  0  0  0  0  0  0  0  0  0  0
  -50.3125   59.7153   65.2124 C   0  0  0  0  0  0  0  0  0  0  0  0
  -51.1751   60.3590   64.1230 C   0  0  0  0  0  0  0  0  0  0  0  0
  -50.8552   59.9152   62.7008 C   0  0  0  0  0  0  0  0  0  0  0  0
  -50.5772   58.4220   62.6108 C   0  0  0  0  0  0  0  0  0  0  0  0
  -50.9528   57.7478   61.2892 C   0  0  0  0  0  0  0  0  0  0  0  0
  -49.6838   57.5753   60.4656 C   0  0  0  0  0  0  0  0  0  0  0  0
  -49.5817   58.2881   59.1252 C   0  0  0  0  0  0  0  0  0  0  0  0
  -48.1339   58.2850   58.6096 C   0  0  0  0  0  0  0  0  0  0  0  0
  -47.9389   57.5732   57.2582 C   0  0  0  0  0  0  0  0  0  0  0  0
  -47.2270   56.2280   57.3812 C   0  0  0  0  0  0  0  0  0  0  0  0
  -41.2752   61.5582   63.6207 O   0  0  0  0  0  0  0  0  0  0  0  0
  -40.2973   60.5430   63.7498 C   0  0  0  0  0  0  0  0  0  0  0  0
  -40.9347   62.3850   63.9968 H   0  0  0  0  0  0  0  0  0  0  0  0
  -40.7730   59.2073   63.1736 C   0  0  0  0  0  0  0  0  0  0  0  0
  -41.9052   59.0794   62.4609 C   0  0  0  0  0  0  0  0  0  0  0  0
  -42.3125   57.7101   61.9201 C   0  0  0  0  0  0  0  0  0  0  0  0
  -41.1342   56.8671   61.4111 C   0  0  0  0  0  0  0  0  0  0  0  0
  -40.7991   57.0240   59.9163 C   0  0  0  0  0  0  0  0  0  0  0  0
  -40.9813   58.4928   59.4638 C   0  0  0  0  0  0  0  0  0  0  0  0
  -39.6801   59.3322   59.4017 C   0  0  0  0  0  0  0  0  0  0  0  0
  -38.3960   58.5357   59.7330 C   0  0  0  0  0  0  0  0  0  0  0  0
  -37.8126   58.8564   61.1261 C   0  0  0  0  0  0  0  0  0  0  0  0
  -37.5668   57.6159   61.9933 C   0  0  0  0  0  0  0  0  0  0  0  0
  -37.3945   57.8665   63.4899 C   0  0  0  0  0  0  0  0  0  0  0  0
  -35.9398   58.1500   63.9136 C   0  0  0  0  0  0  0  0  0  0  0  0
  -34.8622   57.5485   62.9988 C   0  0  0  0  0  0  0  0  0  0  0  0
  -33.8672   58.6197   62.5432 C   0  0  0  0  0  0  0  0  0  0  0  0
  -32.5532   58.6868   63.3010 C   0  0  0  0  0  0  0  0  0  0  0  0
  -38.6406   60.5291   65.7699 C   0  0  0  0  0  0  0  0  0  0  0  0
  -38.0862   61.8683   65.8177 O   0  0  0  0  0  0  0  0  0  0  0  0
  -37.2974   62.9394   63.2863 O   0  0  0  0  0  0  0  0  0  0  0  0
  -34.5488   65.0373   65.6193 O   0  0  0  0  0  0  0  0  0  0  0  0
  -35.8412   62.4558   66.5251 O   0  0  0  0  0  0  0  0  0  0  0  0
  -36.6956   62.1365   65.4001 C   0  0  0  0  0  0  0  0  0  0  0  0
  -36.5023   63.2702   64.3829 C   0  0  0  0  0  0  0  0  0  0  0  0
  -35.0447   63.4251   63.8960 C   0  0  0  0  0  0  0  0  0  0  0  0
  -34.2255   63.7433   65.1162 C   0  0  0  0  0  0  0  0  0  0  0  0
  -34.4485   62.6800   66.1764 C   0  0  0  0  0  0  0  0  0  0  0  0
  -38.2183   62.8379   63.5735 H   0  0  0  0  0  0  0  0  0  0  0  0
  -34.3992   65.7000   64.9269 H   0  0  0  0  0  0  0  0  0  0  0  0
  -32.4447   63.8415   66.7672 O   0  0  0  0  0  0  0  0  0  0  0  0
  -33.5552   63.1890   67.3056 C   0  0  0  0  0  0  0  0  0  0  0  0
  -31.8790   64.1638   67.4862 H   0  0  0  0  0  0  0  0  0  0  0  0
  -34.8000   64.4967   62.9571 O   0  0  0  0  0  0  0  0  0  0  0  0
  -35.2647   63.8936   60.4797 O   0  0  0  0  0  0  0  0  0  0  0  0
  -33.2305   63.1051   61.5425 O   0  0  0  0  0  0  0  0  0  0  0  0
  -33.4421   65.4291   60.8880 O   0  0  0  0  0  0  0  0  0  0  0  0
  -34.1738   64.2510   61.4341 S   0  0  0  0  0  0  0  0  0  0  0  0
  -35.7530   63.1273   60.8190 H   0  0  0  0  0  0  0  0  0  0  0  0
  -34.0500   66.1814   60.8139 H   0  0  0  0  0  0  0  0  0  0  0  0
  2  1  1  0  0  0
  2  4  1  0  0  0
  2  5  1  0  0  0
 41 42  1  0  0  0
 41  1  1  0  0  0
 42 46  1  0  0  0
  1 24  1  0  0  0
 23 24  1  0  0  0
 23 25  1  0  0  0
 24 26  1  0  0  0
  3  4  2  0  0  0
 26 27  2  0  0  0
 27 28  1  0  0  0
 43 47  1  0  0  0
 43 51  1  0  0  0
 28 29  1  0  0  0
 56 48  1  0  0  0
 56 60  1  0  0  0
 29 30  1  0  0  0
 57 60  1  0  0  0
 57 61  1  0  0  0
 30 31  1  0  0  0
 44 49  1  0  0  0
 44 52  1  0  0  0
 31 32  1  0  0  0
 45 46  1  0  0  0
 45 50  1  0  0  0
 32 33  1  0  0  0
 53 54  1  0  0  0
 53 55  1  0  0  0
 33 34  1  0  0  0
 34 35  1  0  0  0
 35 36  1  0  0  0
 58 60  1  0  0  0
 36 37  1  0  0  0
 59 60  1  0  0  0
 59 62  1  0  0  0
 37 38  1  0  0  0
 38 39  1  0  0  0
 39 40  1  0  0  0
  4  6  1  0  0  0
  6  7  1  0  0  0
  7  8  1  0  0  0
  8  9  1  0  0  0
  9 10  1  0  0  0
 10 11  1  0  0  0
 11 12  1  0  0  0
 12 13  1  0  0  0
 13 14  1  0  0  0
 14 15  1  0  0  0
 15 16  1  0  0  0
 16 17  1  0  0  0
 17 18  1  0  0  0
 18 19  1  0  0  0
 19 20  1  0  0  0
 20 21  1  0  0  0
 21 22  1  0  0  0
 46 47  1  0  0  0
 47 48  1  0  0  0
 48 49  1  0  0  0
 49 50  1  0  0  0
 50 54  1  0  0  0
M  CHG 1  58  -1
M  END
> <minimizedAffinity>
-9.53188

> <CNNscore>
0.2237503380

> <CNNaffinity>
7.0428771973

> <CNN_VS>
1.5758461952

> <CNNaffinity_variance>
1.7029606104

$$$$
/media/chris/experiments/cd1a-new-docking/inputs/ligands/1onq_ligand.pdb


 62 62  0  0  0  0  0  0  0  0999 V2000
  -41.1987   59.4036   65.2930 C   0  0  0  0  0  0  0  0  0  0  0  0
  -41.8512   60.0855   66.3932 N   0  0  0  0  0  0  0  0  0  0  0  0
  -42.9877   61.8048   67.3418 O   0  0  0  0  0  0  0  0  0  0  0  0
  -42.4663   61.2759   66.3794 C   0  0  0  0  0  0  0  0  0  0  0  0
  -41.8412   59.6155   67.2583 H   0  0  0  0  0  0  0  0  0  0  0  0
  -42.4778   61.9723   65.0509 C   0  0  0  0  0  0  0  0  0  0  0  0
  -43.7811   61.5684   64.3614 C   0  0  0  0  0  0  0  0  0  0  0  0
  -43.4824   60.9848   62.9825 C   0  0  0  0  0  0  0  0  0  0  0  0
  -42.7897   61.9063   62.0080 C   0  0  0  0  0  0  0  0  0  0  0  0
  -41.7635   61.0788   61.2412 C   0  0  0  0  0  0  0  0  0  0  0  0
  -41.5047   59.7101   61.8851 C   0  0  0  0  0  0  0  0  0  0  0  0
  -41.6037   58.5234   60.9091 C   0  0  0  0  0  0  0  0  0  0  0  0
  -41.0292   58.8454   59.5121 C   0  0  0  0  0  0  0  0  0  0  0  0
  -39.7004   58.1161   59.2935 C   0  0  0  0  0  0  0  0  0  0  0  0
  -38.4563   58.9823   59.4484 C   0  0  0  0  0  0  0  0  0  0  0  0
  -37.5884   58.5421   60.6181 C   0  0  0  0  0  0  0  0  0  0  0  0
  -38.2266   57.5469   61.5900 C   0  0  0  0  0  0  0  0  0  0  0  0
  -37.5030   57.6554   62.9253 C   0  0  0  0  0  0  0  0  0  0  0  0
  -36.0529   58.1161   62.9338 C   0  0  0  0  0  0  0  0  0  0  0  0
  -35.4631   58.0499   64.3515 C   0  0  0  0  0  0  0  0  0  0  0  0
  -34.3823   59.1071   64.6434 C   0  0  0  0  0  0  0  0  0  0  0  0
  -32.9615   58.5993   64.4081 C   0  0  0  0  0  0  0  0  0  0  0  0
  -40.9692   57.2386   64.4832 O   0  0  0  0  0  0  0  0  0  0  0  0
  -41.7033   57.9785   65.4410 C   0  0  0  0  0  0  0  0  0  0  0  0
  -40.0233   57.2871   64.6929 H   0  0  0  0  0  0  0  0  0  0  0  0
  -43.2087   57.9427   65.1671 C   0  0  0  0  0  0  0  0  0  0  0  0
  -44.1228   57.7327   66.1296 C   0  0  0  0  0  0  0  0  0  0  0  0
  -45.6086   57.7103   65.7751 C   0  0  0  0  0  0  0  0  0  0  0  0
  -46.0263   58.8011   64.7781 C   0  0  0  0  0  0  0  0  0  0  0  0
  -47.0524   59.8237   65.3003 C   0  0  0  0  0  0  0  0  0  0  0  0
  -48.1405   60.1025   64.2356 C   0  0  0  0  0  0  0  0  0  0  0  0
  -49.5920   60.1685   64.7745 C   0  0  0  0  0  0  0  0  0  0  0  0
  -50.6678   59.7325   63.7521 C   0  0  0  0  0  0  0  0  0  0  0  0
  -50.4023   58.3443   63.1305 C   0  0  0  0  0  0  0  0  0  0  0  0
  -50.9531   58.1890   61.7079 C   0  0  0  0  0  0  0  0  0  0  0  0
  -50.0700   57.4216   60.7262 C   0  0  0  0  0  0  0  0  0  0  0  0
  -50.0001   58.0531   59.3218 C   0  0  0  0  0  0  0  0  0  0  0  0
  -48.5919   58.1460   58.7150 C   0  0  0  0  0  0  0  0  0  0  0  0
  -48.4864   57.3056   57.4392 C   0  0  0  0  0  0  0  0  0  0  0  0
  -47.1685   56.5868   57.2112 C   0  0  0  0  0  0  0  0  0  0  0  0
  -39.6682   59.5992   65.2024 C   0  0  0  0  0  0  0  0  0  0  0  0
  -39.2072   60.8413   64.6126 O   0  0  0  0  0  0  0  0  0  0  0  0
  -37.4547   61.3641   62.4143 O   0  0  0  0  0  0  0  0  0  0  0  0
  -36.1767   64.4953   64.8558 O   0  0  0  0  0  0  0  0  0  0  0  0
  -37.5547   62.0272   65.9349 O   0  0  0  0  0  0  0  0  0  0  0  0
  -37.7978   61.2662   64.7267 C   0  0  0  0  0  0  0  0  0  0  0  0
  -37.2527   62.1167   63.5705 C   0  0  0  0  0  0  0  0  0  0  0  0
  -35.7449   62.4302   63.6880 C   0  0  0  0  0  0  0  0  0  0  0  0
  -35.5754   63.2074   64.9641 C   0  0  0  0  0  0  0  0  0  0  0  0
  -36.1709   62.4286   66.1230 C   0  0  0  0  0  0  0  0  0  0  0  0
  -38.3980   61.1574   62.3237 H   0  0  0  0  0  0  0  0  0  0  0  0
  -35.7821   64.9747   64.1105 H   0  0  0  0  0  0  0  0  0  0  0  0
  -36.2638   62.7571   68.4889 O   0  0  0  0  0  0  0  0  0  0  0  0
  -35.9079   63.3778   67.2901 C   0  0  0  0  0  0  0  0  0  0  0  0
  -36.0959   63.3620   69.2284 H   0  0  0  0  0  0  0  0  0  0  0  0
  -35.1844   63.2523   62.6393 O   0  0  0  0  0  0  0  0  0  0  0  0
  -33.3645   63.6738   60.8427 O   0  0  0  0  0  0  0  0  0  0  0  0
  -33.0597   61.8904   62.4600 O   0  0  0  0  0  0  0  0  0  0  0  0
  -32.7643   64.2023   63.1245 O   0  0  0  0  0  0  0  0  0  0  0  0
  -33.5614   63.2783   62.2687 S   0  0  0  0  0  0  0  0  0  0  0  0
  -33.8768   63.0823   60.2694 H   0  0  0  0  0  0  0  0  0  0  0  0
  -33.0849   65.1102   63.0059 H   0  0  0  0  0  0  0  0  0  0  0  0
  2  1  1  0  0  0
  2  4  1  0  0  0
  2  5  1  0  0  0
 41 42  1  0  0  0
 41  1  1  0  0  0
 42 46  1  0  0  0
  1 24  1  0  0  0
 23 24  1  0  0  0
 23 25  1  0  0  0
 24 26  1  0  0  0
  3  4  2  0  0  0
 26 27  2  0  0  0
 27 28  1  0  0  0
 43 47  1  0  0  0
 43 51  1  0  0  0
 28 29  1  0  0  0
 56 48  1  0  0  0
 56 60  1  0  0  0
 29 30  1  0  0  0
 57 60  1  0  0  0
 57 61  1  0  0  0
 30 31  1  0  0  0
 44 49  1  0  0  0
 44 52  1  0  0  0
 31 32  1  0  0  0
 45 46  1  0  0  0
 45 50  1  0  0  0
 32 33  1  0  0  0
 53 54  1  0  0  0
 53 55  1  0  0  0
 33 34  1  0  0  0
 34 35  1  0  0  0
 35 36  1  0  0  0
 58 60  1  0  0  0
 36 37  1  0  0  0
 59 60  1  0  0  0
 59 62  1  0  0  0
 37 38  1  0  0  0
 38 39  1  0  0  0
 39 40  1  0  0  0
  4  6  1  0  0  0
  6  7  1  0  0  0
  7  8  1  0  0  0
  8  9  1  0  0  0
  9 10  1  0  0  0
 10 11  1  0  0  0
 11 12  1  0  0  0
 12 13  1  0  0  0
 13 14  1  0  0  0
 14 15  1  0  0  0
 15 16  1  0  0  0
 16 17  1  0  0  0
 17 18  1  0  0  0
 18 19  1  0  0  0
 19 20  1  0  0  0
 20 21  1  0  0  0
 21 22  1  0  0  0
 46 47  1  0  0  0
 47 48  1  0  0  0
 48 49  1  0  0  0
 49 50  1  0  0  0
 50 54  1  0  0  0
M  CHG 1  58  -1
M  END
> <minimizedAffinity>
-9.39860

> <CNNscore>
0.2062681764

> <CNNaffinity>
7.1390609741

> <CNN_VS>
1.4725611210

> <CNNaffinity_variance>
2.1895375252

$$$$
/media/chris/experiments/cd1a-new-docking/inputs/ligands/1onq_ligand.pdb


 62 62  0  0  0  0  0  0  0  0999 V2000
  -40.8580   59.6862   64.3416 C   0  0  0  0  0  0  0  0  0  0  0  0
  -41.2577   60.4364   65.5158 N   0  0  0  0  0  0  0  0  0  0  0  0
  -42.5789   61.8820   66.6613 O   0  0  0  0  0  0  0  0  0  0  0  0
  -42.2996   61.2685   65.6497 C   0  0  0  0  0  0  0  0  0  0  0  0
  -40.6935   60.3202   66.3142 H   0  0  0  0  0  0  0  0  0  0  0  0
  -43.1513   61.4260   64.4251 C   0  0  0  0  0  0  0  0  0  0  0  0
  -44.5418   60.9095   64.7952 C   0  0  0  0  0  0  0  0  0  0  0  0
  -44.5496   59.3828   64.7896 C   0  0  0  0  0  0  0  0  0  0  0  0
  -45.8272   58.7275   64.3237 C   0  0  0  0  0  0  0  0  0  0  0  0
  -46.9799   59.6606   64.6792 C   0  0  0  0  0  0  0  0  0  0  0  0
  -48.0967   58.9533   65.4586 C   0  0  0  0  0  0  0  0  0  0  0  0
  -49.0765   59.9076   66.1655 C   0  0  0  0  0  0  0  0  0  0  0  0
  -50.5253   59.7723   65.6479 C   0  0  0  0  0  0  0  0  0  0  0  0
  -50.5472   59.0930   64.2756 C   0  0  0  0  0  0  0  0  0  0  0  0
  -50.9429   59.9972   63.1146 C   0  0  0  0  0  0  0  0  0  0  0  0
  -49.9893   59.8734   61.9355 C   0  0  0  0  0  0  0  0  0  0  0  0
  -49.2492   58.5398   61.8081 C   0  0  0  0  0  0  0  0  0  0  0  0
  -49.9456   57.7097   60.7383 C   0  0  0  0  0  0  0  0  0  0  0  0
  -50.0682   58.2837   59.3345 C   0  0  0  0  0  0  0  0  0  0  0  0
  -49.1384   57.5481   58.3565 C   0  0  0  0  0  0  0  0  0  0  0  0
  -47.6542   57.9432   58.4670 C   0  0  0  0  0  0  0  0  0  0  0  0
  -47.0373   58.3532   57.1316 C   0  0  0  0  0  0  0  0  0  0  0  0
  -39.0798   58.6820   65.4485 O   0  0  0  0  0  0  0  0  0  0  0  0
  -40.3642   58.3787   64.9366 C   0  0  0  0  0  0  0  0  0  0  0  0
  -39.1583   59.3601   66.1377 H   0  0  0  0  0  0  0  0  0  0  0  0
  -40.3110   57.3113   63.8409 C   0  0  0  0  0  0  0  0  0  0  0  0
  -41.3994   56.8945   63.1718 C   0  0  0  0  0  0  0  0  0  0  0  0
  -41.2636   55.8231   62.0915 C   0  0  0  0  0  0  0  0  0  0  0  0
  -41.2738   56.3789   60.6600 C   0  0  0  0  0  0  0  0  0  0  0  0
  -41.7680   57.8298   60.5119 C   0  0  0  0  0  0  0  0  0  0  0  0
  -41.0863   58.5219   59.3070 C   0  0  0  0  0  0  0  0  0  0  0  0
  -39.5829   58.1957   59.1203 C   0  0  0  0  0  0  0  0  0  0  0  0
  -38.6529   58.8846   60.1466 C   0  0  0  0  0  0  0  0  0  0  0  0
  -38.0571   57.9139   61.1891 C   0  0  0  0  0  0  0  0  0  0  0  0
  -36.7336   58.3951   61.7956 C   0  0  0  0  0  0  0  0  0  0  0  0
  -36.5904   58.2344   63.3076 C   0  0  0  0  0  0  0  0  0  0  0  0
  -35.2664   57.5769   63.7445 C   0  0  0  0  0  0  0  0  0  0  0  0
  -34.0368   57.9616   62.9079 C   0  0  0  0  0  0  0  0  0  0  0  0
  -32.9449   58.5785   63.7867 C   0  0  0  0  0  0  0  0  0  0  0  0
  -33.4030   59.2084   65.0901 C   0  0  0  0  0  0  0  0  0  0  0  0
  -39.9019   60.4218   63.3753 C   0  0  0  0  0  0  0  0  0  0  0  0
  -39.2879   61.6381   63.8720 O   0  0  0  0  0  0  0  0  0  0  0  0
  -37.3159   61.9528   61.8250 O   0  0  0  0  0  0  0  0  0  0  0  0
  -35.5562   64.4814   64.6373 O   0  0  0  0  0  0  0  0  0  0  0  0
  -37.5114   62.2974   65.3870 O   0  0  0  0  0  0  0  0  0  0  0  0
  -37.8310   61.7238   64.0960 C   0  0  0  0  0  0  0  0  0  0  0  0
  -37.0347   62.5322   63.0617 C   0  0  0  0  0  0  0  0  0  0  0  0
  -35.5066   62.4875   63.2820 C   0  0  0  0  0  0  0  0  0  0  0  0
  -35.2598   63.0871   64.6388 C   0  0  0  0  0  0  0  0  0  0  0  0
  -36.0897   62.3592   65.6809 C   0  0  0  0  0  0  0  0  0  0  0  0
  -38.2731   61.9721   61.6691 H   0  0  0  0  0  0  0  0  0  0  0  0
  -35.0159   64.9260   63.9654 H   0  0  0  0  0  0  0  0  0  0  0  0
  -36.5813   64.1862   67.1418 O   0  0  0  0  0  0  0  0  0  0  0  0
  -35.7068   63.1147   66.9516 C   0  0  0  0  0  0  0  0  0  0  0  0
  -36.3360   64.6643   67.9494 H   0  0  0  0  0  0  0  0  0  0  0  0
  -34.7089   63.2550   62.3523 O   0  0  0  0  0  0  0  0  0  0  0  0
  -32.5266   61.9990   62.9662 O   0  0  0  0  0  0  0  0  0  0  0  0
  -32.6364   64.4085   63.2326 O   0  0  0  0  0  0  0  0  0  0  0  0
  -32.4297   63.4345   61.0229 O   0  0  0  0  0  0  0  0  0  0  0  0
  -33.0441   63.2662   62.3704 S   0  0  0  0  0  0  0  0  0  0  0  0
  -32.9162   61.8722   63.8453 H   0  0  0  0  0  0  0  0  0  0  0  0
  -32.6905   62.6935   60.4538 H   0  0  0  0  0  0  0  0  0  0  0  0
  2  1  1  0  0  0
  2  4  1  0  0  0
  2  5  1  0  0  0
 41 42  1  0  0  0
 41  1  1  0  0  0
 42 46  1  0  0  0
  1 24  1  0  0  0
 23 24  1  0  0  0
 23 25  1  0  0  0
 24 26  1  0  0  0
  3  4  2  0  0  0
 26 27  2  0  0  0
 27 28  1  0  0  0
 43 47  1  0  0  0
 43 51  1  0  0  0
 28 29  1  0  0  0
 56 48  1  0  0  0
 56 60  1  0  0  0
 29 30  1  0  0  0
 57 60  1  0  0  0
 57 61  1  0  0  0
 30 31  1  0  0  0
 44 49  1  0  0  0
 44 52  1  0  0  0
 31 32  1  0  0  0
 45 46  1  0  0  0
 45 50  1  0  0  0
 32 33  1  0  0  0
 53 54  1  0  0  0
 53 55  1  0  0  0
 33 34  1  0  0  0
 34 35  1  0  0  0
 35 36  1  0  0  0
 58 60  1  0  0  0
 36 37  1  0  0  0
 59 60  1  0  0  0
 59 62  1  0  0  0
 37 38  1  0  0  0
 38 39  1  0  0  0
 39 40  1  0  0  0
  4  6  1  0  0  0
  6  7  1  0  0  0
  7  8  1  0  0  0
  8  9  1  0  0  0
  9 10  1  0  0  0
 10 11  1  0  0  0
 11 12  1  0  0  0
 12 13  1  0  0  0
 13 14  1  0  0  0
 14 15  1  0  0  0
 15 16  1  0  0  0
 16 17  1  0  0  0
 17 18  1  0  0  0
 18 19  1  0  0  0
 19 20  1  0  0  0
 20 21  1  0  0  0
 21 22  1  0  0  0
 46 47  1  0  0  0
 47 48  1  0  0  0
 48 49  1  0  0  0
 49 50  1  0  0  0
 50 54  1  0  0  0
M  CHG 1  58  -1
M  END
> <minimizedAffinity>
-9.53761

> <CNNscore>
0.2024204284

> <CNNaffinity>
7.1081366539

> <CNN_VS>
1.4388320446

> <CNNaffinity_variance>
1.7556946278

$$$$
/media/chris/experiments/cd1a-new-docking/inputs/ligands/1onq_ligand.pdb


 62 62  0  0  0  0  0  0  0  0999 V2000
  -41.4224   60.0480   65.0500 C   0  0  0  0  0  0  0  0  0  0  0  0
  -42.2572   61.0580   64.4304 N   0  0  0  0  0  0  0  0  0  0  0  0
  -43.2469   62.0861   62.6665 O   0  0  0  0  0  0  0  0  0  0  0  0
  -42.5463   61.2076   63.1304 C   0  0  0  0  0  0  0  0  0  0  0  0
  -42.6623   61.7160   65.0405 H   0  0  0  0  0  0  0  0  0  0  0  0
  -41.9263   60.1910   62.2183 C   0  0  0  0  0  0  0  0  0  0  0  0
  -40.8693   60.9316   61.3989 C   0  0  0  0  0  0  0  0  0  0  0  0
  -40.8004   60.3499   59.9890 C   0  0  0  0  0  0  0  0  0  0  0  0
  -39.5244   59.6271   59.6312 C   0  0  0  0  0  0  0  0  0  0  0  0
  -39.8876   58.1801   59.3148 C   0  0  0  0  0  0  0  0  0  0  0  0
  -41.3172   57.8206   59.7413 C   0  0  0  0  0  0  0  0  0  0  0  0
  -41.4129   56.5832   60.6524 C   0  0  0  0  0  0  0  0  0  0  0  0
  -40.1554   56.3823   61.5264 C   0  0  0  0  0  0  0  0  0  0  0  0
  -40.2001   57.2957   62.7548 C   0  0  0  0  0  0  0  0  0  0  0  0
  -38.8981   58.0246   63.0642 C   0  0  0  0  0  0  0  0  0  0  0  0
  -37.7573   57.5762   62.1629 C   0  0  0  0  0  0  0  0  0  0  0  0
  -36.3711   58.1225   62.5126 C   0  0  0  0  0  0  0  0  0  0  0  0
  -36.2221   58.1071   64.0279 C   0  0  0  0  0  0  0  0  0  0  0  0
  -34.8749   57.7275   64.6244 C   0  0  0  0  0  0  0  0  0  0  0  0
  -33.9940   58.9703   64.8285 C   0  0  0  0  0  0  0  0  0  0  0  0
  -32.6600   58.9406   64.0599 C   0  0  0  0  0  0  0  0  0  0  0  0
  -32.8314   59.0620   62.5474 C   0  0  0  0  0  0  0  0  0  0  0  0
  -41.9519   58.1029   66.2042 O   0  0  0  0  0  0  0  0  0  0  0  0
  -42.3428   59.4599   66.1057 C   0  0  0  0  0  0  0  0  0  0  0  0
  -41.0275   58.0530   66.4940 H   0  0  0  0  0  0  0  0  0  0  0  0
  -43.7965   59.6097   65.6511 C   0  0  0  0  0  0  0  0  0  0  0  0
  -44.5902   58.5598   65.3793 C   0  0  0  0  0  0  0  0  0  0  0  0
  -46.0314   58.7925   64.9294 C   0  0  0  0  0  0  0  0  0  0  0  0
  -46.7093   59.9906   65.6100 C   0  0  0  0  0  0  0  0  0  0  0  0
  -48.1128   60.3480   65.0867 C   0  0  0  0  0  0  0  0  0  0  0  0
  -49.2059   59.8531   66.0642 C   0  0  0  0  0  0  0  0  0  0  0  0
  -50.6039   59.6281   65.4344 C   0  0  0  0  0  0  0  0  0  0  0  0
  -50.8509   60.4324   64.1364 C   0  0  0  0  0  0  0  0  0  0  0  0
  -51.1755   59.5471   62.9137 C   0  0  0  0  0  0  0  0  0  0  0  0
  -49.9610   59.2509   62.0257 C   0  0  0  0  0  0  0  0  0  0  0  0
  -49.8770   57.8376   61.4530 C   0  0  0  0  0  0  0  0  0  0  0  0
  -48.7194   57.6343   60.4556 C   0  0  0  0  0  0  0  0  0  0  0  0
  -48.7868   58.5006   59.1887 C   0  0  0  0  0  0  0  0  0  0  0  0
  -48.2290   57.7477   57.9775 C   0  0  0  0  0  0  0  0  0  0  0  0
  -47.0214   58.3660   57.2957 C   0  0  0  0  0  0  0  0  0  0  0  0
  -40.0326   60.5315   65.5228 C   0  0  0  0  0  0  0  0  0  0  0  0
  -39.2590   61.3084   64.5735 O   0  0  0  0  0  0  0  0  0  0  0  0
  -37.3854   61.4727   62.4194 O   0  0  0  0  0  0  0  0  0  0  0  0
  -35.6083   64.3377   64.8757 O   0  0  0  0  0  0  0  0  0  0  0  0
  -37.4481   62.1804   65.9322 O   0  0  0  0  0  0  0  0  0  0  0  0
  -37.7984   61.4651   64.7225 C   0  0  0  0  0  0  0  0  0  0  0  0
  -37.0758   62.1870   63.5762 C   0  0  0  0  0  0  0  0  0  0  0  0
  -35.5394   62.2160   63.7318 C   0  0  0  0  0  0  0  0  0  0  0  0
  -35.2601   62.9617   65.0074 C   0  0  0  0  0  0  0  0  0  0  0  0
  -36.0190   62.3195   66.1546 C   0  0  0  0  0  0  0  0  0  0  0  0
  -38.3482   61.4440   62.3051 H   0  0  0  0  0  0  0  0  0  0  0  0
  -35.1129   64.7274   64.1383 H   0  0  0  0  0  0  0  0  0  0  0  0
  -36.2810   62.8098   68.4794 O   0  0  0  0  0  0  0  0  0  0  0  0
  -35.6131   63.2157   67.3227 C   0  0  0  0  0  0  0  0  0  0  0  0
  -36.0216   63.3805   69.2197 H   0  0  0  0  0  0  0  0  0  0  0  0
  -34.8096   62.9082   62.6936 O   0  0  0  0  0  0  0  0  0  0  0  0
  -35.5292   63.9044   60.4116 O   0  0  0  0  0  0  0  0  0  0  0  0
  -34.4455   65.3281   62.0511 O   0  0  0  0  0  0  0  0  0  0  0  0
  -36.7572   64.6644   62.3509 O   0  0  0  0  0  0  0  0  0  0  0  0
  -35.4198   64.2184   61.8670 S   0  0  0  0  0  0  0  0  0  0  0  0
  -34.6666   63.6117   60.0783 H   0  0  0  0  0  0  0  0  0  0  0  0
  -37.3991   63.9465   62.2345 H   0  0  0  0  0  0  0  0  0  0  0  0
  2  1  1  0  0  0
  2  4  1  0  0  0
  2  5  1  0  0  0
 41 42  1  0  0  0
 41  1  1  0  0  0
 42 46  1  0  0  0
  1 24  1  0  0  0
 23 24  1  0  0  0
 23 25  1  0  0  0
 24 26  1  0  0  0
  3  4  2  0  0  0
 26 27  2  0  0  0
 27 28  1  0  0  0
 43 47  1  0  0  0
 43 51  1  0  0  0
 28 29  1  0  0  0
 56 48  1  0  0  0
 56 60  1  0  0  0
 29 30  1  0  0  0
 57 60  1  0  0  0
 57 61  1  0  0  0
 30 31  1  0  0  0
 44 49  1  0  0  0
 44 52  1  0  0  0
 31 32  1  0  0  0
 45 46  1  0  0  0
 45 50  1  0  0  0
 32 33  1  0  0  0
 53 54  1  0  0  0
 53 55  1  0  0  0
 33 34  1  0  0  0
 34 35  1  0  0  0
 35 36  1  0  0  0
 58 60  1  0  0  0
 36 37  1  0  0  0
 59 60  1  0  0  0
 59 62  1  0  0  0
 37 38  1  0  0  0
 38 39  1  0  0  0
 39 40  1  0  0  0
  4  6  1  0  0  0
  6  7  1  0  0  0
  7  8  1  0  0  0
  8  9  1  0  0  0
  9 10  1  0  0  0
 10 11  1  0  0  0
 11 12  1  0  0  0
 12 13  1  0  0  0
 13 14  1  0  0  0
 14 15  1  0  0  0
 15 16  1  0  0  0
 16 17  1  0  0  0
 17 18  1  0  0  0
 18 19  1  0  0  0
 19 20  1  0  0  0
 20 21  1  0  0  0
 21 22  1  0  0  0
 46 47  1  0  0  0
 47 48  1  0  0  0
 48 49  1  0  0  0
 49 50  1  0  0  0
 50 54  1  0  0  0
M  CHG 1  58  -1
M  END
> <minimizedAffinity>
-9.54473

> <CNNscore>
0.1647515297

> <CNNaffinity>
7.0671029091

> <CNN_VS>
1.1643160582

> <CNNaffinity_variance>
1.9647480249

$$$$
/media/chris/experiments/cd1a-new-docking/inputs/ligands/1onq_ligand.pdb


 62 62  0  0  0  0  0  0  0  0999 V2000
  -41.2908   59.9577   64.2169 C   0  0  0  0  0  0  0  0  0  0  0  0
  -41.4282   60.5603   65.5280 N   0  0  0  0  0  0  0  0  0  0  0  0
  -42.5539   61.6694   67.1560 O   0  0  0  0  0  0  0  0  0  0  0  0
  -42.5019   61.1699   66.0489 C   0  0  0  0  0  0  0  0  0  0  0  0
  -40.6340   60.5161   66.1081 H   0  0  0  0  0  0  0  0  0  0  0  0
  -43.7039   61.2199   65.1531 C   0  0  0  0  0  0  0  0  0  0  0  0
  -44.6448   60.1126   65.6284 C   0  0  0  0  0  0  0  0  0  0  0  0
  -45.3165   59.4484   64.4290 C   0  0  0  0  0  0  0  0  0  0  0  0
  -46.7906   59.7239   64.2574 C   0  0  0  0  0  0  0  0  0  0  0  0
  -47.2743   60.4427   65.5125 C   0  0  0  0  0  0  0  0  0  0  0  0
  -48.4779   59.7503   66.1659 C   0  0  0  0  0  0  0  0  0  0  0  0
  -48.9458   58.4763   65.4388 C   0  0  0  0  0  0  0  0  0  0  0  0
  -50.4278   58.5405   65.0087 C   0  0  0  0  0  0  0  0  0  0  0  0
  -50.8042   59.9611   64.5783 C   0  0  0  0  0  0  0  0  0  0  0  0
  -51.1600   60.1156   63.1046 C   0  0  0  0  0  0  0  0  0  0  0  0
  -49.9781   59.8241   62.1918 C   0  0  0  0  0  0  0  0  0  0  0  0
  -50.1620   58.6703   61.2033 C   0  0  0  0  0  0  0  0  0  0  0  0
  -49.4589   59.0400   59.9043 C   0  0  0  0  0  0  0  0  0  0  0  0
  -49.2158   57.9501   58.8708 C   0  0  0  0  0  0  0  0  0  0  0  0
  -47.9254   57.1753   59.1818 C   0  0  0  0  0  0  0  0  0  0  0  0
  -46.9056   57.1443   58.0284 C   0  0  0  0  0  0  0  0  0  0  0  0
  -46.9387   58.3992   57.1589 C   0  0  0  0  0  0  0  0  0  0  0  0
  -40.3101   58.0891   65.1878 O   0  0  0  0  0  0  0  0  0  0  0  0
  -41.4892   58.4803   64.5092 C   0  0  0  0  0  0  0  0  0  0  0  0
  -40.2311   58.5910   66.0142 H   0  0  0  0  0  0  0  0  0  0  0  0
  -41.6745   57.7233   63.1919 C   0  0  0  0  0  0  0  0  0  0  0  0
  -40.9847   56.6121   62.8831 C   0  0  0  0  0  0  0  0  0  0  0  0
  -41.2265   55.9140   61.5461 C   0  0  0  0  0  0  0  0  0  0  0  0
  -41.7895   56.8372   60.4557 C   0  0  0  0  0  0  0  0  0  0  0  0
  -40.7526   57.4304   59.4839 C   0  0  0  0  0  0  0  0  0  0  0  0
  -40.8132   58.9769   59.4930 C   0  0  0  0  0  0  0  0  0  0  0  0
  -39.4868   59.6888   59.8609 C   0  0  0  0  0  0  0  0  0  0  0  0
  -38.2167   58.8630   59.5483 C   0  0  0  0  0  0  0  0  0  0  0  0
  -37.3117   58.6328   60.7778 C   0  0  0  0  0  0  0  0  0  0  0  0
  -37.8760   57.6175   61.7788 C   0  0  0  0  0  0  0  0  0  0  0  0
  -37.3385   57.7113   63.2053 C   0  0  0  0  0  0  0  0  0  0  0  0
  -36.0490   58.5459   63.3347 C   0  0  0  0  0  0  0  0  0  0  0  0
  -34.7401   57.7579   63.1746 C   0  0  0  0  0  0  0  0  0  0  0  0
  -33.6644   58.6107   62.4958 C   0  0  0  0  0  0  0  0  0  0  0  0
  -32.3480   58.7540   63.2388 C   0  0  0  0  0  0  0  0  0  0  0  0
  -40.0186   60.3522   63.4329 C   0  0  0  0  0  0  0  0  0  0  0  0
  -39.3752   61.5920   63.8231 O   0  0  0  0  0  0  0  0  0  0  0  0
  -37.2328   61.9979   61.9730 O   0  0  0  0  0  0  0  0  0  0  0  0
  -35.6794   64.3030   65.0831 O   0  0  0  0  0  0  0  0  0  0  0  0
  -37.7235   62.1155   65.5212 O   0  0  0  0  0  0  0  0  0  0  0  0
  -37.9413   61.6332   64.1730 C   0  0  0  0  0  0  0  0  0  0  0  0
  -37.0485   62.4903   63.2644 C   0  0  0  0  0  0  0  0  0  0  0  0
  -35.5453   62.4001   63.6078 C   0  0  0  0  0  0  0  0  0  0  0  0
  -35.4051   62.9056   65.0172 C   0  0  0  0  0  0  0  0  0  0  0  0
  -36.3310   62.1291   65.9360 C   0  0  0  0  0  0  0  0  0  0  0  0
  -38.1730   62.0468   61.7395 H   0  0  0  0  0  0  0  0  0  0  0  0
  -35.0776   64.7789   64.4895 H   0  0  0  0  0  0  0  0  0  0  0  0
  -34.6879   63.1054   67.3716 O   0  0  0  0  0  0  0  0  0  0  0  0
  -36.0456   62.7929   67.2814 C   0  0  0  0  0  0  0  0  0  0  0  0
  -34.5093   63.5268   68.2269 H   0  0  0  0  0  0  0  0  0  0  0  0
  -34.6605   63.2097   62.8007 O   0  0  0  0  0  0  0  0  0  0  0  0
  -35.5536   63.8566   60.4553 O   0  0  0  0  0  0  0  0  0  0  0  0
  -34.0644   65.3712   61.6288 O   0  0  0  0  0  0  0  0  0  0  0  0
  -36.3789   65.1609   62.3165 O   0  0  0  0  0  0  0  0  0  0  0  0
  -35.1971   64.4199   61.7910 S   0  0  0  0  0  0  0  0  0  0  0  0
  -34.7951   63.3698   60.0968 H   0  0  0  0  0  0  0  0  0  0  0  0
  -37.1227   64.5478   62.4254 H   0  0  0  0  0  0  0  0  0  0  0  0
  2  1  1  0  0  0
  2  4  1  0  0  0
  2  5  1  0  0  0
 41 42  1  0  0  0
 41  1  1  0  0  0
 42 46  1  0  0  0
  1 24  1  0  0  0
 23 24  1  0  0  0
 23 25  1  0  0  0
 24 26  1  0  0  0
  3  4  2  0  0  0
 26 27  2  0  0  0
 27 28  1  0  0  0
 43 47  1  0  0  0
 43 51  1  0  0  0
 28 29  1  0  0  0
 56 48  1  0  0  0
 56 60  1  0  0  0
 29 30  1  0  0  0
 57 60  1  0  0  0
 57 61  1  0  0  0
 30 31  1  0  0  0
 44 49  1  0  0  0
 44 52  1  0  0  0
 31 32  1  0  0  0
 45 46  1  0  0  0
 45 50  1  0  0  0
 32 33  1  0  0  0
 53 54  1  0  0  0
 53 55  1  0  0  0
 33 34  1  0  0  0
 34 35  1  0  0  0
 35 36  1  0  0  0
 58 60  1  0  0  0
 36 37  1  0  0  0
 59 60  1  0  0  0
 59 62  1  0  0  0
 37 38  1  0  0  0
 38 39  1  0  0  0
 39 40  1  0  0  0
  4  6  1  0  0  0
  6  7  1  0  0  0
  7  8  1  0  0  0
  8  9  1  0  0  0
  9 10  1  0  0  0
 10 11  1  0  0  0
 11 12  1  0  0  0
 12 13  1  0  0  0
 13 14  1  0  0  0
 14 15  1  0  0  0
 15 16  1  0  0  0
 16 17  1  0  0  0
 17 18  1  0  0  0
 18 19  1  0  0  0
 19 20  1  0  0  0
 20 21  1  0  0  0
 21 22  1  0  0  0
 46 47  1  0  0  0
 47 48  1  0  0  0
 48 49  1  0  0  0
 49 50  1  0  0  0
 50 54  1  0  0  0
M  CHG 1  58  -1
M  END
> <minimizedAffinity>
-9.50289

> <CNNscore>
0.1623092145

> <CNNaffinity>
7.1130685806

> <CNN_VS>
1.1545165777

> <CNNaffinity_variance>
1.4685449600

$$$$
/media/chris/experiments/cd1a-new-docking/inputs/ligands/1onq_ligand.pdb


 62 62  0  0  0  0  0  0  0  0999 V2000
  -41.4020   57.5987   64.2507 C   0  0  0  0  0  0  0  0  0  0  0  0
  -41.9910   57.3789   65.5568 N   0  0  0  0  0  0  0  0  0  0  0  0
  -43.6852   57.4260   67.0652 O   0  0  0  0  0  0  0  0  0  0  0  0
  -43.2501   57.6205   65.9468 C   0  0  0  0  0  0  0  0  0  0  0  0
  -41.3914   57.0056   66.2428 H   0  0  0  0  0  0  0  0  0  0  0  0
  -44.1497   58.1814   64.8858 C   0  0  0  0  0  0  0  0  0  0  0  0
  -45.5725   58.1071   65.4405 C   0  0  0  0  0  0  0  0  0  0  0  0
  -46.0930   59.5128   65.7307 C   0  0  0  0  0  0  0  0  0  0  0  0
  -47.5933   59.6634   65.8004 C   0  0  0  0  0  0  0  0  0  0  0  0
  -48.2111   58.3793   65.2570 C   0  0  0  0  0  0  0  0  0  0  0  0
  -49.7284   58.3118   65.4772 C   0  0  0  0  0  0  0  0  0  0  0  0
  -50.3937   59.6791   65.7187 C   0  0  0  0  0  0  0  0  0  0  0  0
  -51.1482   60.2070   64.4788 C   0  0  0  0  0  0  0  0  0  0  0  0
  -50.1637   60.5902   63.3703 C   0  0  0  0  0  0  0  0  0  0  0  0
  -50.4344   59.9458   62.0161 C   0  0  0  0  0  0  0  0  0  0  0  0
  -50.9501   58.5205   62.1480 C   0  0  0  0  0  0  0  0  0  0  0  0
  -50.2707   57.4761   61.2592 C   0  0  0  0  0  0  0  0  0  0  0  0
  -50.1741   58.0419   59.8489 C   0  0  0  0  0  0  0  0  0  0  0  0
  -48.8149   58.4942   59.3359 C   0  0  0  0  0  0  0  0  0  0  0  0
  -47.8477   57.3054   59.2198 C   0  0  0  0  0  0  0  0  0  0  0  0
  -46.9877   57.3045   57.9424 C   0  0  0  0  0  0  0  0  0  0  0  0
  -47.7629   57.7137   56.6921 C   0  0  0  0  0  0  0  0  0  0  0  0
  -41.7728   55.3057   64.2228 O   0  0  0  0  0  0  0  0  0  0  0  0
  -41.9823   56.4596   63.4301 C   0  0  0  0  0  0  0  0  0  0  0  0
  -42.2518   55.3982   65.0612 H   0  0  0  0  0  0  0  0  0  0  0  0
  -41.2510   56.3779   62.0881 C   0  0  0  0  0  0  0  0  0  0  0  0
  -41.6193   57.0899   61.0094 C   0  0  0  0  0  0  0  0  0  0  0  0
  -40.8378   56.9519   59.7042 C   0  0  0  0  0  0  0  0  0  0  0  0
  -40.3826   58.2916   59.1074 C   0  0  0  0  0  0  0  0  0  0  0  0
  -38.8658   58.5553   59.1414 C   0  0  0  0  0  0  0  0  0  0  0  0
  -38.4187   59.0091   60.5519 C   0  0  0  0  0  0  0  0  0  0  0  0
  -38.8434   60.4453   60.9504 C   0  0  0  0  0  0  0  0  0  0  0  0
  -40.2232   60.5283   61.6445 C   0  0  0  0  0  0  0  0  0  0  0  0
  -41.3216   61.1594   60.7618 C   0  0  0  0  0  0  0  0  0  0  0  0
  -42.5067   61.7202   61.5569 C   0  0  0  0  0  0  0  0  0  0  0  0
  -42.9189   60.9280   62.7959 C   0  0  0  0  0  0  0  0  0  0  0  0
  -43.8512   61.6997   63.7506 C   0  0  0  0  0  0  0  0  0  0  0  0
  -43.3580   61.8086   65.2014 C   0  0  0  0  0  0  0  0  0  0  0  0
  -42.0202   61.0858   65.3831 C   0  0  0  0  0  0  0  0  0  0  0  0
  -41.6220   60.7508   66.8096 C   0  0  0  0  0  0  0  0  0  0  0  0
  -39.8653   57.7633   64.2326 C   0  0  0  0  0  0  0  0  0  0  0  0
  -39.3227   58.8681   64.9996 O   0  0  0  0  0  0  0  0  0  0  0  0
  -38.1684   61.1290   66.3162 O   0  0  0  0  0  0  0  0  0  0  0  0
  -34.5926   59.2949   65.1983 O   0  0  0  0  0  0  0  0  0  0  0  0
  -37.2200   58.7661   63.7939 O   0  0  0  0  0  0  0  0  0  0  0  0
  -38.1331   59.6101   64.5367 C   0  0  0  0  0  0  0  0  0  0  0  0
  -37.2934   60.2893   65.6280 C   0  0  0  0  0  0  0  0  0  0  0  0
  -36.1333   61.1460   65.0751 C   0  0  0  0  0  0  0  0  0  0  0  0
  -35.2417   60.2047   64.3133 C   0  0  0  0  0  0  0  0  0  0  0  0
  -36.0541   59.4580   63.2709 C   0  0  0  0  0  0  0  0  0  0  0  0
  -38.9050   60.6073   66.6713 H   0  0  0  0  0  0  0  0  0  0  0  0
  -34.0803   59.7925   65.8548 H   0  0  0  0  0  0  0  0  0  0  0  0
  -33.8160   59.3090   62.4450 O   0  0  0  0  0  0  0  0  0  0  0  0
  -34.9856   58.5710   62.6354 C   0  0  0  0  0  0  0  0  0  0  0  0
  -33.1390   58.7436   62.0413 H   0  0  0  0  0  0  0  0  0  0  0  0
  -35.2922   61.7868   66.0609 O   0  0  0  0  0  0  0  0  0  0  0  0
  -36.2397   62.8572   68.2228 O   0  0  0  0  0  0  0  0  0  0  0  0
  -36.8146   63.8076   66.0651 O   0  0  0  0  0  0  0  0  0  0  0  0
  -34.6084   64.1611   67.0042 O   0  0  0  0  0  0  0  0  0  0  0  0
  -35.7232   63.1823   66.8603 S   0  0  0  0  0  0  0  0  0  0  0  0
  -36.9674   62.2201   68.1492 H   0  0  0  0  0  0  0  0  0  0  0  0
  -33.8919   63.7614   67.5218 H   0  0  0  0  0  0  0  0  0  0  0  0
  2  1  1  0  0  0
  2  4  1  0  0  0
  2  5  1  0  0  0
 41 42  1  0  0  0
 41  1  1  0  0  0
 42 46  1  0  0  0
  1 24  1  0  0  0
 23 24  1  0  0  0
 23 25  1  0  0  0
 24 26  1  0  0  0
  3  4  2  0  0  0
 26 27  2  0  0  0
 27 28  1  0  0  0
 43 47  1  0  0  0
 43 51  1  0  0  0
 28 29  1  0  0  0
 56 48  1  0  0  0
 56 60  1  0  0  0
 29 30  1  0  0  0
 57 60  1  0  0  0
 57 61  1  0  0  0
 30 31  1  0  0  0
 44 49  1  0  0  0
 44 52  1  0  0  0
 31 32  1  0  0  0
 45 46  1  0  0  0
 45 50  1  0  0  0
 32 33  1  0  0  0
 53 54  1  0  0  0
 53 55  1  0  0  0
 33 34  1  0  0  0
 34 35  1  0  0  0
 35 36  1  0  0  0
 58 60  1  0  0  0
 36 37  1  0  0  0
 59 60  1  0  0  0
 59 62  1  0  0  0
 37 38  1  0  0  0
 38 39  1  0  0  0
 39 40  1  0  0  0
  4  6  1  0  0  0
  6  7  1  0  0  0
  7  8  1  0  0  0
  8  9  1  0  0  0
  9 10  1  0  0  0
 10 11  1  0  0  0
 11 12  1  0  0  0
 12 13  1  0  0  0
 13 14  1  0  0  0
 14 15  1  0  0  0
 15 16  1  0  0  0
 16 17  1  0  0  0
 17 18  1  0  0  0
 18 19  1  0  0  0
 19 20  1  0  0  0
 20 21  1  0  0  0
 21 22  1  0  0  0
 46 47  1  0  0  0
 47 48  1  0  0  0
 48 49  1  0  0  0
 49 50  1  0  0  0
 50 54  1  0  0  0
M  CHG 1  58  -1
M  END
> <minimizedAffinity>
-9.57223

> <CNNscore>
0.1099369377

> <CNNaffinity>
7.1498451233

> <CNN_VS>
0.7860320807

> <CNNaffinity_variance>
2.4576964378

$$$$
