/media/chris/experiments/cd1a-new-docking/inputs/ligands/1onq_ligand.pdb


 62 62  0  0  0  0  0  0  0  0999 V2000
  -40.7648   59.8807   64.8746 C   0  0  0  0  0  0  0  0  0  0  0  0
  -40.8127   58.5800   64.2365 N   0  0  0  0  0  0  0  0  0  0  0  0
  -41.5314   56.4391   64.0195 O   0  0  0  0  0  0  0  0  0  0  0  0
  -41.5422   57.5128   64.5894 C   0  0  0  0  0  0  0  0  0  0  0  0
  -40.2377   58.4666   63.4455 H   0  0  0  0  0  0  0  0  0  0  0  0
  -42.4174   57.7080   65.7918 C   0  0  0  0  0  0  0  0  0  0  0  0
  -43.8609   57.6300   65.2942 C   0  0  0  0  0  0  0  0  0  0  0  0
  -44.6933   58.7390   65.9332 C   0  0  0  0  0  0  0  0  0  0  0  0
  -45.9409   59.1458   65.1871 C   0  0  0  0  0  0  0  0  0  0  0  0
  -46.8723   59.8275   66.1838 C   0  0  0  0  0  0  0  0  0  0  0  0
  -48.1840   60.2998   65.5425 C   0  0  0  0  0  0  0  0  0  0  0  0
  -49.1909   59.1705   65.2575 C   0  0  0  0  0  0  0  0  0  0  0  0
  -50.6600   59.6277   65.3922 C   0  0  0  0  0  0  0  0  0  0  0  0
  -51.1195   60.3493   64.1220 C   0  0  0  0  0  0  0  0  0  0  0  0
  -50.8456   59.6036   62.8216 C   0  0  0  0  0  0  0  0  0  0  0  0
  -49.7131   60.2322   62.0233 C   0  0  0  0  0  0  0  0  0  0  0  0
  -49.6611   59.8742   60.5363 C   0  0  0  0  0  0  0  0  0  0  0  0
  -50.0142   58.4003   60.3892 C   0  0  0  0  0  0  0  0  0  0  0  0
  -49.4282   57.6232   59.2196 C   0  0  0  0  0  0  0  0  0  0  0  0
  -48.0626   57.0219   59.5877 C   0  0  0  0  0  0  0  0  0  0  0  0
  -47.0461   56.9906   58.4316 C   0  0  0  0  0  0  0  0  0  0  0  0
  -47.2162   58.1446   57.4463 C   0  0  0  0  0  0  0  0  0  0  0  0
  -42.6886   60.8261   63.9799 O   0  0  0  0  0  0  0  0  0  0  0  0
  -41.2866   60.8028   63.7861 C   0  0  0  0  0  0  0  0  0  0  0  0
  -42.8878   61.1896   64.8568 H   0  0  0  0  0  0  0  0  0  0  0  0
  -40.9030   60.2380   62.4164 C   0  0  0  0  0  0  0  0  0  0  0  0
  -41.3771   60.7348   61.2611 C   0  0  0  0  0  0  0  0  0  0  0  0
  -40.9467   60.1143   59.9332 C   0  0  0  0  0  0  0  0  0  0  0  0
  -39.4256   59.9721   59.7774 C   0  0  0  0  0  0  0  0  0  0  0  0
  -38.9114   58.5412   59.5342 C   0  0  0  0  0  0  0  0  0  0  0  0
  -38.6435   57.8182   60.8762 C   0  0  0  0  0  0  0  0  0  0  0  0
  -37.4209   58.3370   61.6747 C   0  0  0  0  0  0  0  0  0  0  0  0
  -36.9345   57.3752   62.7842 C   0  0  0  0  0  0  0  0  0  0  0  0
  -35.6614   57.8623   63.5094 C   0  0  0  0  0  0  0  0  0  0  0  0
  -34.6024   58.4514   62.5698 C   0  0  0  0  0  0  0  0  0  0  0  0
  -33.1595   58.0264   62.8339 C   0  0  0  0  0  0  0  0  0  0  0  0
  -32.3067   59.1054   63.5300 C   0  0  0  0  0  0  0  0  0  0  0  0
  -31.2659   59.7955   62.6352 C   0  0  0  0  0  0  0  0  0  0  0  0
  -31.8384   61.0700   62.0083 C   0  0  0  0  0  0  0  0  0  0  0  0
  -32.8046   61.8687   62.8651 C   0  0  0  0  0  0  0  0  0  0  0  0
  -39.4119   60.2554   65.5214 C   0  0  0  0  0  0  0  0  0  0  0  0
  -38.2205   59.9611   64.7488 O   0  0  0  0  0  0  0  0  0  0  0  0
  -37.8801   61.7865   62.5740 O   0  0  0  0  0  0  0  0  0  0  0  0
  -36.7627   64.3995   65.6273 O   0  0  0  0  0  0  0  0  0  0  0  0
  -36.6437   61.3897   65.9144 O   0  0  0  0  0  0  0  0  0  0  0  0
  -37.1269   60.9452   64.6234 C   0  0  0  0  0  0  0  0  0  0  0  0
  -37.4513   62.2182   63.8285 C   0  0  0  0  0  0  0  0  0  0  0  0
  -36.2375   63.1526   63.6311 C   0  0  0  0  0  0  0  0  0  0  0  0
  -35.7915   63.5592   65.0086 C   0  0  0  0  0  0  0  0  0  0  0  0
  -35.5316   62.3228   65.8501 C   0  0  0  0  0  0  0  0  0  0  0  0
  -38.6436   61.1973   62.6784 H   0  0  0  0  0  0  0  0  0  0  0  0
  -36.9131   65.1817   65.0738 H   0  0  0  0  0  0  0  0  0  0  0  0
  -36.1751   62.8913   68.0809 O   0  0  0  0  0  0  0  0  0  0  0  0
  -35.1110   62.9466   67.1791 C   0  0  0  0  0  0  0  0  0  0  0  0
  -35.9054   63.2880   68.9240 H   0  0  0  0  0  0  0  0  0  0  0  0
  -36.4926   64.3808   62.9126 O   0  0  0  0  0  0  0  0  0  0  0  0
  -34.2336   65.2236   61.9621 O   0  0  0  0  0  0  0  0  0  0  0  0
  -36.3116   66.0511   61.0210 O   0  0  0  0  0  0  0  0  0  0  0  0
  -35.5493   63.8081   60.5090 O   0  0  0  0  0  0  0  0  0  0  0  0
  -35.6253   64.8509   61.5713 S   0  0  0  0  0  0  0  0  0  0  0  0
  -34.2628   65.9026   62.6541 H   0  0  0  0  0  0  0  0  0  0  0  0
  -35.1030   63.0215   60.8595 H   0  0  0  0  0  0  0  0  0  0  0  0
  2  1  1  0  0  0
  2  4  1  0  0  0
  2  5  1  0  0  0
 41 42  1  0  0  0
 41  1  1  0  0  0
 42 46  1  0  0  0
  1 24  1  0  0  0
 23 24  1  0  0  0
 23 25  1  0  0  0
 24 26  1  0  0  0
  3  4  2  0  0  0
 26 27  2  0  0  0
 27 28  1  0  0  0
 43 47  1  0  0  0
 43 51  1  0  0  0
 28 29  1  0  0  0
 56 48  1  0  0  0
 56 60  1  0  0  0
 29 30  1  0  0  0
 57 60  1  0  0  0
 57 61  1  0  0  0
 30 31  1  0  0  0
 44 49  1  0  0  0
 44 52  1  0  0  0
 31 32  1  0  0  0
 45 46  1  0  0  0
 45 50  1  0  0  0
 32 33  1  0  0  0
 53 54  1  0  0  0
 53 55  1  0  0  0
 33 34  1  0  0  0
 34 35  1  0  0  0
 35 36  1  0  0  0
 58 60  1  0  0  0
 36 37  1  0  0  0
 59 60  1  0  0  0
 59 62  1  0  0  0
 37 38  1  0  0  0
 38 39  1  0  0  0
 39 40  1  0  0  0
  4  6  1  0  0  0
  6  7  1  0  0  0
  7  8  1  0  0  0
  8  9  1  0  0  0
  9 10  1  0  0  0
 10 11  1  0  0  0
 11 12  1  0  0  0
 12 13  1  0  0  0
 13 14  1  0  0  0
 14 15  1  0  0  0
 15 16  1  0  0  0
 16 17  1  0  0  0
 17 18  1  0  0  0
 18 19  1  0  0  0
 19 20  1  0  0  0
 20 21  1  0  0  0
 21 22  1  0  0  0
 46 47  1  0  0  0
 47 48  1  0  0  0
 48 49  1  0  0  0
 49 50  1  0  0  0
 50 54  1  0  0  0
M  CHG 1  58  -1
M  END
> <minimizedAffinity>
-9.31621

> <CNNscore>
0.2808103561

> <CNNaffinity>
7.0911054611

> <CNN_VS>
1.9912558794

> <CNNaffinity_variance>
1.2943540812

$$$$
/media/chris/experiments/cd1a-new-docking/inputs/ligands/1onq_ligand.pdb


 62 62  0  0  0  0  0  0  0  0999 V2000
  -40.6298   59.7792   64.2664 C   0  0  0  0  0  0  0  0  0  0  0  0
  -41.1701   60.5212   65.3883 N   0  0  0  0  0  0  0  0  0  0  0  0
  -42.8499   61.4081   66.6290 O   0  0  0  0  0  0  0  0  0  0  0  0
  -42.4561   60.7658   65.6749 C   0  0  0  0  0  0  0  0  0  0  0  0
  -40.5102   60.8915   66.0181 H   0  0  0  0  0  0  0  0  0  0  0  0
  -43.4461   60.1868   64.7083 C   0  0  0  0  0  0  0  0  0  0  0  0
  -44.7374   60.9873   64.8791 C   0  0  0  0  0  0  0  0  0  0  0  0
  -45.8393   60.0875   65.4334 C   0  0  0  0  0  0  0  0  0  0  0  0
  -46.5169   59.1779   64.4374 C   0  0  0  0  0  0  0  0  0  0  0  0
  -47.7716   58.6207   65.1014 C   0  0  0  0  0  0  0  0  0  0  0  0
  -48.4056   59.6060   66.0924 C   0  0  0  0  0  0  0  0  0  0  0  0
  -49.9346   59.7342   65.9658 C   0  0  0  0  0  0  0  0  0  0  0  0
  -50.4968   59.0116   64.7219 C   0  0  0  0  0  0  0  0  0  0  0  0
  -51.0842   60.0206   63.7309 C   0  0  0  0  0  0  0  0  0  0  0  0
  -50.5155   59.9440   62.3192 C   0  0  0  0  0  0  0  0  0  0  0  0
  -49.9142   58.5804   62.0124 C   0  0  0  0  0  0  0  0  0  0  0  0
  -50.6360   57.7533   60.9460 C   0  0  0  0  0  0  0  0  0  0  0  0
  -50.2248   58.2789   59.5773 C   0  0  0  0  0  0  0  0  0  0  0  0
  -49.1749   57.5119   58.7869 C   0  0  0  0  0  0  0  0  0  0  0  0
  -47.9931   58.4214   58.4153 C   0  0  0  0  0  0  0  0  0  0  0  0
  -47.0855   57.8665   57.3022 C   0  0  0  0  0  0  0  0  0  0  0  0
  -47.1327   56.3446   57.1870 C   0  0  0  0  0  0  0  0  0  0  0  0
  -38.7560   58.8478   65.2748 O   0  0  0  0  0  0  0  0  0  0  0  0
  -40.0898   58.5236   64.9292 C   0  0  0  0  0  0  0  0  0  0  0  0
  -38.7551   59.5890   65.9005 H   0  0  0  0  0  0  0  0  0  0  0  0
  -40.1623   57.3574   63.9408 C   0  0  0  0  0  0  0  0  0  0  0  0
  -41.2487   57.0979   63.1934 C   0  0  0  0  0  0  0  0  0  0  0  0
  -41.2432   55.9129   62.2295 C   0  0  0  0  0  0  0  0  0  0  0  0
  -41.3294   56.3146   60.7499 C   0  0  0  0  0  0  0  0  0  0  0  0
  -41.5047   57.8199   60.4771 C   0  0  0  0  0  0  0  0  0  0  0  0
  -40.5044   58.3030   59.3995 C   0  0  0  0  0  0  0  0  0  0  0  0
  -39.8587   59.6859   59.6685 C   0  0  0  0  0  0  0  0  0  0  0  0
  -38.3671   59.6205   60.0729 C   0  0  0  0  0  0  0  0  0  0  0  0
  -37.9843   58.3206   60.8131 C   0  0  0  0  0  0  0  0  0  0  0  0
  -36.8899   58.5110   61.8702 C   0  0  0  0  0  0  0  0  0  0  0  0
  -36.6682   57.3401   62.8253 C   0  0  0  0  0  0  0  0  0  0  0  0
  -35.6865   57.6464   63.9735 C   0  0  0  0  0  0  0  0  0  0  0  0
  -35.4024   59.1372   64.2120 C   0  0  0  0  0  0  0  0  0  0  0  0
  -33.9012   59.3916   64.3752 C   0  0  0  0  0  0  0  0  0  0  0  0
  -33.1353   58.3922   65.2239 C   0  0  0  0  0  0  0  0  0  0  0  0
  -39.6586   60.5637   63.3553 C   0  0  0  0  0  0  0  0  0  0  0  0
  -39.0841   61.7741   63.9102 O   0  0  0  0  0  0  0  0  0  0  0  0
  -37.0800   62.1744   61.9100 O   0  0  0  0  0  0  0  0  0  0  0  0
  -35.4309   64.6798   64.8087 O   0  0  0  0  0  0  0  0  0  0  0  0
  -37.3523   62.4389   65.4737 O   0  0  0  0  0  0  0  0  0  0  0  0
  -37.6341   61.8862   64.1650 C   0  0  0  0  0  0  0  0  0  0  0  0
  -36.8356   62.7333   63.1637 C   0  0  0  0  0  0  0  0  0  0  0  0
  -35.3116   62.7165   63.4135 C   0  0  0  0  0  0  0  0  0  0  0  0
  -35.1043   63.2924   64.7872 C   0  0  0  0  0  0  0  0  0  0  0  0
  -35.9382   62.5249   65.7971 C   0  0  0  0  0  0  0  0  0  0  0  0
  -38.0342   62.1766   61.7355 H   0  0  0  0  0  0  0  0  0  0  0  0
  -34.8875   65.1501   64.1572 H   0  0  0  0  0  0  0  0  0  0  0  0
  -36.3193   62.7090   68.1497 O   0  0  0  0  0  0  0  0  0  0  0  0
  -35.5967   63.2613   67.0906 C   0  0  0  0  0  0  0  0  0  0  0  0
  -36.1006   63.1783   68.9699 H   0  0  0  0  0  0  0  0  0  0  0  0
  -34.5128   63.5205   62.5161 O   0  0  0  0  0  0  0  0  0  0  0  0
  -32.7374   61.6972   62.0261 O   0  0  0  0  0  0  0  0  0  0  0  0
  -32.1057   63.6769   63.2793 O   0  0  0  0  0  0  0  0  0  0  0  0
  -32.4516   63.8091   60.8840 O   0  0  0  0  0  0  0  0  0  0  0  0
  -32.9272   63.1731   62.1454 S   0  0  0  0  0  0  0  0  0  0  0  0
  -33.0419   61.2652   62.8393 H   0  0  0  0  0  0  0  0  0  0  0  0
  -32.9822   63.4861   60.1391 H   0  0  0  0  0  0  0  0  0  0  0  0
  2  1  1  0  0  0
  2  4  1  0  0  0
  2  5  1  0  0  0
 41 42  1  0  0  0
 41  1  1  0  0  0
 42 46  1  0  0  0
  1 24  1  0  0  0
 23 24  1  0  0  0
 23 25  1  0  0  0
 24 26  1  0  0  0
  3  4  2  0  0  0
 26 27  2  0  0  0
 27 28  1  0  0  0
 43 47  1  0  0  0
 43 51  1  0  0  0
 28 29  1  0  0  0
 56 48  1  0  0  0
 56 60  1  0  0  0
 29 30  1  0  0  0
 57 60  1  0  0  0
 57 61  1  0  0  0
 30 31  1  0  0  0
 44 49  1  0  0  0
 44 52  1  0  0  0
 31 32  1  0  0  0
 45 46  1  0  0  0
 45 50  1  0  0  0
 32 33  1  0  0  0
 53 54  1  0  0  0
 53 55  1  0  0  0
 33 34  1  0  0  0
 34 35  1  0  0  0
 35 36  1  0  0  0
 58 60  1  0  0  0
 36 37  1  0  0  0
 59 60  1  0  0  0
 59 62  1  0  0  0
 37 38  1  0  0  0
 38 39  1  0  0  0
 39 40  1  0  0  0
  4  6  1  0  0  0
  6  7  1  0  0  0
  7  8  1  0  0  0
  8  9  1  0  0  0
  9 10  1  0  0  0
 10 11  1  0  0  0
 11 12  1  0  0  0
 12 13  1  0  0  0
 13 14  1  0  0  0
 14 15  1  0  0  0
 15 16  1  0  0  0
 16 17  1  0  0  0
 17 18  1  0  0  0
 18 19  1  0  0  0
 19 20  1  0  0  0
 20 21  1  0  0  0
 21 22  1  0  0  0
 46 47  1  0  0  0
 47 48  1  0  0  0
 48 49  1  0  0  0
 49 50  1  0  0  0
 50 54  1  0  0  0
M  CHG 1  58  -1
M  END
> <minimizedAffinity>
-9.70023

> <CNNscore>
0.2372736335

> <CNNaffinity>
7.1997108459

> <CNN_VS>
1.7083015442

> <CNNaffinity_variance>
1.3665006161

$$$$
/media/chris/experiments/cd1a-new-docking/inputs/ligands/1onq_ligand.pdb


 62 62  0  0  0  0  0  0  0  0999 V2000
  -41.3256   59.8578   64.6173 C   0  0  0  0  0  0  0  0  0  0  0  0
  -41.4339   58.5314   64.0429 N   0  0  0  0  0  0  0  0  0  0  0  0
  -42.1436   56.3768   64.0033 O   0  0  0  0  0  0  0  0  0  0  0  0
  -42.0988   57.4732   64.5265 C   0  0  0  0  0  0  0  0  0  0  0  0
  -40.9600   58.3904   63.1915 H   0  0  0  0  0  0  0  0  0  0  0  0
  -42.8205   57.7103   65.8198 C   0  0  0  0  0  0  0  0  0  0  0  0
  -44.2897   57.3736   65.5640 C   0  0  0  0  0  0  0  0  0  0  0  0
  -45.1570   58.6068   65.8048 C   0  0  0  0  0  0  0  0  0  0  0  0
  -46.3793   58.7396   64.9292 C   0  0  0  0  0  0  0  0  0  0  0  0
  -46.7025   60.2253   64.8110 C   0  0  0  0  0  0  0  0  0  0  0  0
  -48.2096   60.5103   64.8610 C   0  0  0  0  0  0  0  0  0  0  0  0
  -48.9768   59.6749   65.9022 C   0  0  0  0  0  0  0  0  0  0  0  0
  -50.3961   59.2867   65.4328 C   0  0  0  0  0  0  0  0  0  0  0  0
  -50.9450   60.3288   64.4540 C   0  0  0  0  0  0  0  0  0  0  0  0
  -51.3913   59.7755   63.1061 C   0  0  0  0  0  0  0  0  0  0  0  0
  -50.7349   58.4413   62.7839 C   0  0  0  0  0  0  0  0  0  0  0  0
  -49.4059   58.5124   62.0282 C   0  0  0  0  0  0  0  0  0  0  0  0
  -49.5954   59.4150   60.8166 C   0  0  0  0  0  0  0  0  0  0  0  0
  -49.2605   58.8650   59.4380 C   0  0  0  0  0  0  0  0  0  0  0  0
  -48.1569   57.7989   59.5244 C   0  0  0  0  0  0  0  0  0  0  0  0
  -47.7650   57.1744   58.1726 C   0  0  0  0  0  0  0  0  0  0  0  0
  -47.0109   58.1373   57.2584 C   0  0  0  0  0  0  0  0  0  0  0  0
  -43.3418   60.6742   63.8025 O   0  0  0  0  0  0  0  0  0  0  0  0
  -41.9511   60.7345   63.5460 C   0  0  0  0  0  0  0  0  0  0  0  0
  -43.5239   61.0344   64.6845 H   0  0  0  0  0  0  0  0  0  0  0  0
  -41.5948   60.1794   62.1649 C   0  0  0  0  0  0  0  0  0  0  0  0
  -41.2093   60.9587   61.1401 C   0  0  0  0  0  0  0  0  0  0  0  0
  -40.8712   60.3279   59.7906 C   0  0  0  0  0  0  0  0  0  0  0  0
  -41.1978   58.8299   59.7052 C   0  0  0  0  0  0  0  0  0  0  0  0
  -40.0327   57.9167   59.2813 C   0  0  0  0  0  0  0  0  0  0  0  0
  -38.6961   58.6970   59.2786 C   0  0  0  0  0  0  0  0  0  0  0  0
  -37.7995   58.4779   60.5235 C   0  0  0  0  0  0  0  0  0  0  0  0
  -38.4010   57.5173   61.5761 C   0  0  0  0  0  0  0  0  0  0  0  0
  -37.7566   57.6501   62.9730 C   0  0  0  0  0  0  0  0  0  0  0  0
  -36.4574   58.4647   62.9790 C   0  0  0  0  0  0  0  0  0  0  0  0
  -35.1670   57.6720   62.7818 C   0  0  0  0  0  0  0  0  0  0  0  0
  -33.9358   58.5469   62.4742 C   0  0  0  0  0  0  0  0  0  0  0  0
  -32.6833   58.2301   63.3053 C   0  0  0  0  0  0  0  0  0  0  0  0
  -32.9346   58.4786   64.7953 C   0  0  0  0  0  0  0  0  0  0  0  0
  -33.6867   59.7490   65.1503 C   0  0  0  0  0  0  0  0  0  0  0  0
  -39.9169   60.2553   65.1136 C   0  0  0  0  0  0  0  0  0  0  0  0
  -39.2692   61.3501   64.4171 O   0  0  0  0  0  0  0  0  0  0  0  0
  -37.5293   61.8167   62.1961 O   0  0  0  0  0  0  0  0  0  0  0  0
  -35.7291   64.4940   64.8400 O   0  0  0  0  0  0  0  0  0  0  0  0
  -37.4196   62.1600   65.7618 O   0  0  0  0  0  0  0  0  0  0  0  0
  -37.8098   61.5563   64.5045 C   0  0  0  0  0  0  0  0  0  0  0  0
  -37.1827   62.4228   63.4029 C   0  0  0  0  0  0  0  0  0  0  0  0
  -35.6423   62.5047   63.4797 C   0  0  0  0  0  0  0  0  0  0  0  0
  -35.3201   63.1288   64.8095 C   0  0  0  0  0  0  0  0  0  0  0  0
  -35.9865   62.3398   65.9220 C   0  0  0  0  0  0  0  0  0  0  0  0
  -38.4953   61.7565   62.1303 H   0  0  0  0  0  0  0  0  0  0  0  0
  -35.2922   64.9785   64.1221 H   0  0  0  0  0  0  0  0  0  0  0  0
  -36.4877   64.1276   67.4275 O   0  0  0  0  0  0  0  0  0  0  0  0
  -35.5503   63.1300   67.1539 C   0  0  0  0  0  0  0  0  0  0  0  0
  -36.2083   64.6279   68.2102 H   0  0  0  0  0  0  0  0  0  0  0  0
  -35.0005   63.3311   62.4821 O   0  0  0  0  0  0  0  0  0  0  0  0
  -33.0749   63.8090   60.8146 O   0  0  0  0  0  0  0  0  0  0  0  0
  -32.9399   61.8775   62.2773 O   0  0  0  0  0  0  0  0  0  0  0  0
  -32.5632   64.1034   63.1593 O   0  0  0  0  0  0  0  0  0  0  0  0
  -33.3617   63.3018   62.1890 S   0  0  0  0  0  0  0  0  0  0  0  0
  -33.5867   63.2983   60.1680 H   0  0  0  0  0  0  0  0  0  0  0  0
  -32.8321   65.0339   63.1083 H   0  0  0  0  0  0  0  0  0  0  0  0
  2  1  1  0  0  0
  2  4  1  0  0  0
  2  5  1  0  0  0
 41 42  1  0  0  0
 41  1  1  0  0  0
 42 46  1  0  0  0
  1 24  1  0  0  0
 23 24  1  0  0  0
 23 25  1  0  0  0
 24 26  1  0  0  0
  3  4  2  0  0  0
 26 27  2  0  0  0
 27 28  1  0  0  0
 43 47  1  0  0  0
 43 51  1  0  0  0
 28 29  1  0  0  0
 56 48  1  0  0  0
 56 60  1  0  0  0
 29 30  1  0  0  0
 57 60  1  0  0  0
 57 61  1  0  0  0
 30 31  1  0  0  0
 44 49  1  0  0  0
 44 52  1  0  0  0
 31 32  1  0  0  0
 45 46  1  0  0  0
 45 50  1  0  0  0
 32 33  1  0  0  0
 53 54  1  0  0  0
 53 55  1  0  0  0
 33 34  1  0  0  0
 34 35  1  0  0  0
 35 36  1  0  0  0
 58 60  1  0  0  0
 36 37  1  0  0  0
 59 60  1  0  0  0
 59 62  1  0  0  0
 37 38  1  0  0  0
 38 39  1  0  0  0
 39 40  1  0  0  0
  4  6  1  0  0  0
  6  7  1  0  0  0
  7  8  1  0  0  0
  8  9  1  0  0  0
  9 10  1  0  0  0
 10 11  1  0  0  0
 11 12  1  0  0  0
 12 13  1  0  0  0
 13 14  1  0  0  0
 14 15  1  0  0  0
 15 16  1  0  0  0
 16 17  1  0  0  0
 17 18  1  0  0  0
 18 19  1  0  0  0
 19 20  1  0  0  0
 20 21  1  0  0  0
 21 22  1  0  0  0
 46 47  1  0  0  0
 47 48  1  0  0  0
 48 49  1  0  0  0
 49 50  1  0  0  0
 50 54  1  0  0  0
M  CHG 1  58  -1
M  END
> <minimizedAffinity>
-9.85172

> <CNNscore>
0.2253102213

> <CNNaffinity>
7.0378799438

> <CNN_VS>
1.5857062340

> <CNNaffinity_variance>
1.7853615284

$$$$
/media/chris/experiments/cd1a-new-docking/inputs/ligands/1onq_ligand.pdb


 62 62  0  0  0  0  0  0  0  0999 V2000
  -41.6923   60.4513   64.2282 C   0  0  0  0  0  0  0  0  0  0  0  0
  -42.0794   61.3936   63.1970 N   0  0  0  0  0  0  0  0  0  0  0  0
  -42.3728   62.0602   61.0482 O   0  0  0  0  0  0  0  0  0  0  0  0
  -42.0448   61.2247   61.8681 C   0  0  0  0  0  0  0  0  0  0  0  0
  -42.4087   62.2662   63.5121 H   0  0  0  0  0  0  0  0  0  0  0  0
  -41.5478   59.8863   61.4082 C   0  0  0  0  0  0  0  0  0  0  0  0
  -40.8828   60.1142   60.0506 C   0  0  0  0  0  0  0  0  0  0  0  0
  -40.4308   58.7805   59.4608 C   0  0  0  0  0  0  0  0  0  0  0  0
  -38.9970   58.7134   58.9937 C   0  0  0  0  0  0  0  0  0  0  0  0
  -38.1139   58.5991   60.2318 C   0  0  0  0  0  0  0  0  0  0  0  0
  -38.6135   57.5373   61.2207 C   0  0  0  0  0  0  0  0  0  0  0  0
  -38.1607   57.7645   62.6746 C   0  0  0  0  0  0  0  0  0  0  0  0
  -36.6241   57.7933   62.8274 C   0  0  0  0  0  0  0  0  0  0  0  0
  -36.2277   57.7538   64.3061 C   0  0  0  0  0  0  0  0  0  0  0  0
  -34.7737   58.1077   64.5937 C   0  0  0  0  0  0  0  0  0  0  0  0
  -34.1405   58.9086   63.4656 C   0  0  0  0  0  0  0  0  0  0  0  0
  -32.6348   58.7173   63.2698 C   0  0  0  0  0  0  0  0  0  0  0  0
  -32.0321   60.0591   62.8759 C   0  0  0  0  0  0  0  0  0  0  0  0
  -30.5674   60.1085   62.4662 C   0  0  0  0  0  0  0  0  0  0  0  0
  -30.3699   61.0122   61.2390 C   0  0  0  0  0  0  0  0  0  0  0  0
  -30.1060   62.4923   61.5716 C   0  0  0  0  0  0  0  0  0  0  0  0
  -31.2953   63.4008   61.2686 C   0  0  0  0  0  0  0  0  0  0  0  0
  -42.2627   59.9289   66.4185 O   0  0  0  0  0  0  0  0  0  0  0  0
  -42.6129   60.8224   65.3781 C   0  0  0  0  0  0  0  0  0  0  0  0
  -41.3357   60.0695   66.6671 H   0  0  0  0  0  0  0  0  0  0  0  0
  -44.0686   60.6521   64.9373 C   0  0  0  0  0  0  0  0  0  0  0  0
  -44.9746   59.9648   65.6536 C   0  0  0  0  0  0  0  0  0  0  0  0
  -46.4094   59.8391   65.1448 C   0  0  0  0  0  0  0  0  0  0  0  0
  -47.4194   59.4310   66.2273 C   0  0  0  0  0  0  0  0  0  0  0  0
  -48.7787   60.1525   66.1766 C   0  0  0  0  0  0  0  0  0  0  0  0
  -49.8268   59.2976   65.4243 C   0  0  0  0  0  0  0  0  0  0  0  0
  -50.9890   60.0932   64.7780 C   0  0  0  0  0  0  0  0  0  0  0  0
  -51.3046   59.6820   63.3205 C   0  0  0  0  0  0  0  0  0  0  0  0
  -50.4164   58.5325   62.7971 C   0  0  0  0  0  0  0  0  0  0  0  0
  -49.2375   59.0049   61.9378 C   0  0  0  0  0  0  0  0  0  0  0  0
  -49.5955   59.6180   60.5856 C   0  0  0  0  0  0  0  0  0  0  0  0
  -49.7561   58.5850   59.4529 C   0  0  0  0  0  0  0  0  0  0  0  0
  -48.5224   57.7097   59.1852 C   0  0  0  0  0  0  0  0  0  0  0  0
  -47.6060   58.3553   58.1418 C   0  0  0  0  0  0  0  0  0  0  0  0
  -47.5175   57.6568   56.7965 C   0  0  0  0  0  0  0  0  0  0  0  0
  -40.1790   60.3852   64.5355 C   0  0  0  0  0  0  0  0  0  0  0  0
  -39.3660   61.4727   64.0259 O   0  0  0  0  0  0  0  0  0  0  0  0
  -37.2772   61.8382   62.1074 O   0  0  0  0  0  0  0  0  0  0  0  0
  -35.7083   64.3248   65.0661 O   0  0  0  0  0  0  0  0  0  0  0  0
  -37.6887   62.1148   65.6568 O   0  0  0  0  0  0  0  0  0  0  0  0
  -37.9259   61.5635   64.3387 C   0  0  0  0  0  0  0  0  0  0  0  0
  -37.0750   62.3961   63.3690 C   0  0  0  0  0  0  0  0  0  0  0  0
  -35.5627   62.3568   63.6801 C   0  0  0  0  0  0  0  0  0  0  0  0
  -35.4021   62.9326   65.0600 C   0  0  0  0  0  0  0  0  0  0  0  0
  -36.2876   62.1801   66.0368 C   0  0  0  0  0  0  0  0  0  0  0  0
  -38.2235   61.8544   61.8946 H   0  0  0  0  0  0  0  0  0  0  0  0
  -35.1320   64.7854   64.4362 H   0  0  0  0  0  0  0  0  0  0  0  0
  -34.6091   63.0927   67.4733 O   0  0  0  0  0  0  0  0  0  0  0  0
  -35.9873   62.9142   67.3418 C   0  0  0  0  0  0  0  0  0  0  0  0
  -34.4211   63.5591   68.3027 H   0  0  0  0  0  0  0  0  0  0  0  0
  -34.7162   63.1467   62.8142 O   0  0  0  0  0  0  0  0  0  0  0  0
  -35.6046   63.8246   60.4759 O   0  0  0  0  0  0  0  0  0  0  0  0
  -34.2044   65.3688   61.7183 O   0  0  0  0  0  0  0  0  0  0  0  0
  -36.5164   65.0310   62.3626 O   0  0  0  0  0  0  0  0  0  0  0  0
  -35.2940   64.3619   61.8336 S   0  0  0  0  0  0  0  0  0  0  0  0
  -34.8193   63.3846   60.1147 H   0  0  0  0  0  0  0  0  0  0  0  0
  -37.2323   64.3813   62.4410 H   0  0  0  0  0  0  0  0  0  0  0  0
  2  1  1  0  0  0
  2  4  1  0  0  0
  2  5  1  0  0  0
 41 42  1  0  0  0
 41  1  1  0  0  0
 42 46  1  0  0  0
  1 24  1  0  0  0
 23 24  1  0  0  0
 23 25  1  0  0  0
 24 26  1  0  0  0
  3  4  2  0  0  0
 26 27  2  0  0  0
 27 28  1  0  0  0
 43 47  1  0  0  0
 43 51  1  0  0  0
 28 29  1  0  0  0
 56 48  1  0  0  0
 56 60  1  0  0  0
 29 30  1  0  0  0
 57 60  1  0  0  0
 57 61  1  0  0  0
 30 31  1  0  0  0
 44 49  1  0  0  0
 44 52  1  0  0  0
 31 32  1  0  0  0
 45 46  1  0  0  0
 45 50  1  0  0  0
 32 33  1  0  0  0
 53 54  1  0  0  0
 53 55  1  0  0  0
 33 34  1  0  0  0
 34 35  1  0  0  0
 35 36  1  0  0  0
 58 60  1  0  0  0
 36 37  1  0  0  0
 59 60  1  0  0  0
 59 62  1  0  0  0
 37 38  1  0  0  0
 38 39  1  0  0  0
 39 40  1  0  0  0
  4  6  1  0  0  0
  6  7  1  0  0  0
  7  8  1  0  0  0
  8  9  1  0  0  0
  9 10  1  0  0  0
 10 11  1  0  0  0
 11 12  1  0  0  0
 12 13  1  0  0  0
 13 14  1  0  0  0
 14 15  1  0  0  0
 15 16  1  0  0  0
 16 17  1  0  0  0
 17 18  1  0  0  0
 18 19  1  0  0  0
 19 20  1  0  0  0
 20 21  1  0  0  0
 21 22  1  0  0  0
 46 47  1  0  0  0
 47 48  1  0  0  0
 48 49  1  0  0  0
 49 50  1  0  0  0
 50 54  1  0  0  0
M  CHG 1  58  -1
M  END
> <minimizedAffinity>
-9.90119

> <CNNscore>
0.2158095539

> <CNNaffinity>
6.7623529434

> <CNN_VS>
1.4593803883

> <CNNaffinity_variance>
1.2628612518

$$$$
/media/chris/experiments/cd1a-new-docking/inputs/ligands/1onq_ligand.pdb


 62 62  0  0  0  0  0  0  0  0999 V2000
  -41.4610   59.7591   64.4770 C   0  0  0  0  0  0  0  0  0  0  0  0
  -41.4737   60.3255   63.1428 N   0  0  0  0  0  0  0  0  0  0  0  0
  -41.4715   60.2098   60.8769 O   0  0  0  0  0  0  0  0  0  0  0  0
  -41.4726   59.6775   61.9698 C   0  0  0  0  0  0  0  0  0  0  0  0
  -41.4845   61.3087   63.0920 H   0  0  0  0  0  0  0  0  0  0  0  0
  -41.4641   58.1808   62.0683 C   0  0  0  0  0  0  0  0  0  0  0  0
  -40.8280   57.6654   60.7772 C   0  0  0  0  0  0  0  0  0  0  0  0
  -39.3102   57.8156   60.8475 C   0  0  0  0  0  0  0  0  0  0  0  0
  -38.6471   57.2763   62.0917 C   0  0  0  0  0  0  0  0  0  0  0  0
  -37.2204   57.8141   62.1236 C   0  0  0  0  0  0  0  0  0  0  0  0
  -36.7771   58.2365   63.5307 C   0  0  0  0  0  0  0  0  0  0  0  0
  -35.3841   57.7211   63.9361 C   0  0  0  0  0  0  0  0  0  0  0  0
  -34.4101   57.6203   62.7416 C   0  0  0  0  0  0  0  0  0  0  0  0
  -33.0239   58.1428   63.1297 C   0  0  0  0  0  0  0  0  0  0  0  0
  -32.8678   59.6578   63.0773 C   0  0  0  0  0  0  0  0  0  0  0  0
  -31.8542   60.0978   62.0314 C   0  0  0  0  0  0  0  0  0  0  0  0
  -30.4679   60.4760   62.5578 C   0  0  0  0  0  0  0  0  0  0  0  0
  -30.2858   61.9776   62.3823 C   0  0  0  0  0  0  0  0  0  0  0  0
  -30.5430   62.5882   61.0125 C   0  0  0  0  0  0  0  0  0  0  0  0
  -30.1243   64.0666   60.9821 C   0  0  0  0  0  0  0  0  0  0  0  0
  -31.2916   65.0636   61.1018 C   0  0  0  0  0  0  0  0  0  0  0  0
  -31.0221   66.3957   60.4057 C   0  0  0  0  0  0  0  0  0  0  0  0
  -41.9967   60.5805   66.5827 O   0  0  0  0  0  0  0  0  0  0  0  0
  -42.4125   60.6708   65.2327 C   0  0  0  0  0  0  0  0  0  0  0  0
  -41.0847   60.9011   66.6622 H   0  0  0  0  0  0  0  0  0  0  0  0
  -43.8485   60.1786   65.0374 C   0  0  0  0  0  0  0  0  0  0  0  0
  -44.8601   60.9922   64.6895 C   0  0  0  0  0  0  0  0  0  0  0  0
  -46.2672   60.4239   64.5149 C   0  0  0  0  0  0  0  0  0  0  0  0
  -46.8849   59.8834   65.8128 C   0  0  0  0  0  0  0  0  0  0  0  0
  -48.3900   60.1515   65.9968 C   0  0  0  0  0  0  0  0  0  0  0  0
  -49.0204   60.6701   64.6819 C   0  0  0  0  0  0  0  0  0  0  0  0
  -50.4426   60.1370   64.3747 C   0  0  0  0  0  0  0  0  0  0  0  0
  -50.4654   58.7448   63.7009 C   0  0  0  0  0  0  0  0  0  0  0  0
  -50.6840   58.8015   62.1734 C   0  0  0  0  0  0  0  0  0  0  0  0
  -50.0825   57.6100   61.4186 C   0  0  0  0  0  0  0  0  0  0  0  0
  -49.9587   57.7676   59.9045 C   0  0  0  0  0  0  0  0  0  0  0  0
  -48.5497   57.4662   59.3570 C   0  0  0  0  0  0  0  0  0  0  0  0
  -47.9732   58.5305   58.4112 C   0  0  0  0  0  0  0  0  0  0  0  0
  -47.0890   57.8907   57.3370 C   0  0  0  0  0  0  0  0  0  0  0  0
  -47.1368   56.3763   57.2373 C   0  0  0  0  0  0  0  0  0  0  0  0
  -40.0610   59.5410   65.0943 C   0  0  0  0  0  0  0  0  0  0  0  0
  -39.4353   60.6972   65.7066 O   0  0  0  0  0  0  0  0  0  0  0  0
  -38.5793   61.3080   63.0473 O   0  0  0  0  0  0  0  0  0  0  0  0
  -36.4832   64.3517   64.9815 O   0  0  0  0  0  0  0  0  0  0  0  0
  -37.4081   61.8398   66.3924 O   0  0  0  0  0  0  0  0  0  0  0  0
  -38.0742   61.1232   65.3245 C   0  0  0  0  0  0  0  0  0  0  0  0
  -37.9703   62.0181   64.0812 C   0  0  0  0  0  0  0  0  0  0  0  0
  -36.5172   62.3328   63.6631 C   0  0  0  0  0  0  0  0  0  0  0  0
  -35.8952   63.0630   64.8213 C   0  0  0  0  0  0  0  0  0  0  0  0
  -36.0446   62.2394   66.0877 C   0  0  0  0  0  0  0  0  0  0  0  0
  -39.4947   61.1011   63.2927 H   0  0  0  0  0  0  0  0  0  0  0  0
  -36.3765   64.8599   64.1622 H   0  0  0  0  0  0  0  0  0  0  0  0
  -36.3462   63.8469   67.8309 O   0  0  0  0  0  0  0  0  0  0  0  0
  -35.3728   63.1458   67.1168 C   0  0  0  0  0  0  0  0  0  0  0  0
  -35.9170   64.4217   68.4838 H   0  0  0  0  0  0  0  0  0  0  0  0
  -36.3606   63.1954   62.5135 O   0  0  0  0  0  0  0  0  0  0  0  0
  -34.6949   65.1771   62.6369 O   0  0  0  0  0  0  0  0  0  0  0  0
  -34.9494   63.9550   60.5559 O   0  0  0  0  0  0  0  0  0  0  0  0
  -33.7273   62.9734   62.4046 O   0  0  0  0  0  0  0  0  0  0  0  0
  -34.8945   63.8246   62.0373 S   0  0  0  0  0  0  0  0  0  0  0  0
  -35.4462   65.7463   62.4081 H   0  0  0  0  0  0  0  0  0  0  0  0
  -33.6840   62.8831   63.3694 H   0  0  0  0  0  0  0  0  0  0  0  0
  2  1  1  0  0  0
  2  4  1  0  0  0
  2  5  1  0  0  0
 41 42  1  0  0  0
 41  1  1  0  0  0
 42 46  1  0  0  0
  1 24  1  0  0  0
 23 24  1  0  0  0
 23 25  1  0  0  0
 24 26  1  0  0  0
  3  4  2  0  0  0
 26 27  2  0  0  0
 27 28  1  0  0  0
 43 47  1  0  0  0
 43 51  1  0  0  0
 28 29  1  0  0  0
 56 48  1  0  0  0
 56 60  1  0  0  0
 29 30  1  0  0  0
 57 60  1  0  0  0
 57 61  1  0  0  0
 30 31  1  0  0  0
 44 49  1  0  0  0
 44 52  1  0  0  0
 31 32  1  0  0  0
 45 46  1  0  0  0
 45 50  1  0  0  0
 32 33  1  0  0  0
 53 54  1  0  0  0
 53 55  1  0  0  0
 33 34  1  0  0  0
 34 35  1  0  0  0
 35 36  1  0  0  0
 58 60  1  0  0  0
 36 37  1  0  0  0
 59 60  1  0  0  0
 59 62  1  0  0  0
 37 38  1  0  0  0
 38 39  1  0  0  0
 39 40  1  0  0  0
  4  6  1  0  0  0
  6  7  1  0  0  0
  7  8  1  0  0  0
  8  9  1  0  0  0
  9 10  1  0  0  0
 10 11  1  0  0  0
 11 12  1  0  0  0
 12 13  1  0  0  0
 13 14  1  0  0  0
 14 15  1  0  0  0
 15 16  1  0  0  0
 16 17  1  0  0  0
 17 18  1  0  0  0
 18 19  1  0  0  0
 19 20  1  0  0  0
 20 21  1  0  0  0
 21 22  1  0  0  0
 46 47  1  0  0  0
 47 48  1  0  0  0
 48 49  1  0  0  0
 49 50  1  0  0  0
 50 54  1  0  0  0
M  CHG 1  58  -1
M  END
> <minimizedAffinity>
-9.11284

> <CNNscore>
0.1782884598

> <CNNaffinity>
6.6093750000

> <CNN_VS>
1.1783752441

> <CNNaffinity_variance>
1.2740867138

$$$$
/media/chris/experiments/cd1a-new-docking/inputs/ligands/1onq_ligand.pdb


 62 62  0  0  0  0  0  0  0  0999 V2000
  -41.2470   59.3600   65.1496 C   0  0  0  0  0  0  0  0  0  0  0  0
  -41.8599   59.9252   66.3354 N   0  0  0  0  0  0  0  0  0  0  0  0
  -42.9878   61.5233   67.4849 O   0  0  0  0  0  0  0  0  0  0  0  0
  -42.5025   61.0949   66.4560 C   0  0  0  0  0  0  0  0  0  0  0  0
  -41.7962   59.3821   67.1541 H   0  0  0  0  0  0  0  0  0  0  0  0
  -42.5959   61.9038   65.1963 C   0  0  0  0  0  0  0  0  0  0  0  0
  -43.9023   61.4956   64.5152 C   0  0  0  0  0  0  0  0  0  0  0  0
  -43.6074   60.8685   63.1548 C   0  0  0  0  0  0  0  0  0  0  0  0
  -42.7852   61.7037   62.2035 C   0  0  0  0  0  0  0  0  0  0  0  0
  -41.5896   60.8633   61.7677 C   0  0  0  0  0  0  0  0  0  0  0  0
  -41.3427   60.9230   60.2542 C   0  0  0  0  0  0  0  0  0  0  0  0
  -40.7033   59.6513   59.6673 C   0  0  0  0  0  0  0  0  0  0  0  0
  -41.3226   58.3532   60.2301 C   0  0  0  0  0  0  0  0  0  0  0  0
  -40.2347   57.4401   60.8027 C   0  0  0  0  0  0  0  0  0  0  0  0
  -39.1397   58.1541   61.5859 C   0  0  0  0  0  0  0  0  0  0  0  0
  -38.0058   57.2181   61.9770 C   0  0  0  0  0  0  0  0  0  0  0  0
  -36.7038   57.8896   62.4198 C   0  0  0  0  0  0  0  0  0  0  0  0
  -36.6273   57.8237   63.9391 C   0  0  0  0  0  0  0  0  0  0  0  0
  -35.2642   57.6546   64.5940 C   0  0  0  0  0  0  0  0  0  0  0  0
  -34.5055   58.9903   64.6376 C   0  0  0  0  0  0  0  0  0  0  0  0
  -33.0936   58.9431   64.0252 C   0  0  0  0  0  0  0  0  0  0  0  0
  -33.0902   59.0754   62.5040 C   0  0  0  0  0  0  0  0  0  0  0  0
  -41.8250   57.5477   63.8166 O   0  0  0  0  0  0  0  0  0  0  0  0
  -41.7343   57.9215   65.1788 C   0  0  0  0  0  0  0  0  0  0  0  0
  -40.9470   57.6002   63.4077 H   0  0  0  0  0  0  0  0  0  0  0  0
  -43.0906   57.8600   65.8852 C   0  0  0  0  0  0  0  0  0  0  0  0
  -44.2583   57.7930   65.2231 C   0  0  0  0  0  0  0  0  0  0  0  0
  -45.5714   57.7356   66.0014 C   0  0  0  0  0  0  0  0  0  0  0  0
  -46.0516   59.1018   66.5124 C   0  0  0  0  0  0  0  0  0  0  0  0
  -47.2642   59.7003   65.7758 C   0  0  0  0  0  0  0  0  0  0  0  0
  -47.9951   58.6152   64.9490 C   0  0  0  0  0  0  0  0  0  0  0  0
  -49.5307   58.5541   65.1480 C   0  0  0  0  0  0  0  0  0  0  0  0
  -50.2863   59.8016   64.6327 C   0  0  0  0  0  0  0  0  0  0  0  0
  -51.1638   59.5237   63.3930 C   0  0  0  0  0  0  0  0  0  0  0  0
  -50.5165   58.5733   62.3785 C   0  0  0  0  0  0  0  0  0  0  0  0
  -49.7032   59.2316   61.2659 C   0  0  0  0  0  0  0  0  0  0  0  0
  -49.7385   58.4664   59.9283 C   0  0  0  0  0  0  0  0  0  0  0  0
  -48.5397   58.7143   59.0003 C   0  0  0  0  0  0  0  0  0  0  0  0
  -47.7301   57.4311   58.7930 C   0  0  0  0  0  0  0  0  0  0  0  0
  -48.1999   56.2057   59.5568 C   0  0  0  0  0  0  0  0  0  0  0  0
  -39.7229   59.5810   65.0183 C   0  0  0  0  0  0  0  0  0  0  0  0
  -39.2968   60.8655   64.4970 O   0  0  0  0  0  0  0  0  0  0  0  0
  -37.5086   61.2701   62.3024 O   0  0  0  0  0  0  0  0  0  0  0  0
  -36.3021   64.5563   64.5705 O   0  0  0  0  0  0  0  0  0  0  0  0
  -37.6789   62.1454   65.7735 O   0  0  0  0  0  0  0  0  0  0  0  0
  -37.8934   61.3100   64.6101 C   0  0  0  0  0  0  0  0  0  0  0  0
  -37.3343   62.0936   63.4139 C   0  0  0  0  0  0  0  0  0  0  0  0
  -35.8316   62.4280   63.5389 C   0  0  0  0  0  0  0  0  0  0  0  0
  -35.6920   63.2832   64.7680 C   0  0  0  0  0  0  0  0  0  0  0  0
  -36.3021   62.5706   65.9615 C   0  0  0  0  0  0  0  0  0  0  0  0
  -38.4484   61.0493   62.2079 H   0  0  0  0  0  0  0  0  0  0  0  0
  -35.8980   64.9932   63.8045 H   0  0  0  0  0  0  0  0  0  0  0  0
  -36.1409   62.9582   68.3147 O   0  0  0  0  0  0  0  0  0  0  0  0
  -36.0687   63.5917   67.0728 C   0  0  0  0  0  0  0  0  0  0  0  0
  -35.9922   63.6088   69.0187 H   0  0  0  0  0  0  0  0  0  0  0  0
  -35.2587   63.1900   62.4521 O   0  0  0  0  0  0  0  0  0  0  0  0
  -32.8408   62.5030   63.0834 O   0  0  0  0  0  0  0  0  0  0  0  0
  -33.4179   64.8556   62.9397 O   0  0  0  0  0  0  0  0  0  0  0  0
  -33.1316   63.5452   60.9210 O   0  0  0  0  0  0  0  0  0  0  0  0
  -33.6312   63.5173   62.3251 S   0  0  0  0  0  0  0  0  0  0  0  0
  -33.1523   62.4706   64.0013 H   0  0  0  0  0  0  0  0  0  0  0  0
  -33.2669   62.6759   60.5125 H   0  0  0  0  0  0  0  0  0  0  0  0
  2  1  1  0  0  0
  2  4  1  0  0  0
  2  5  1  0  0  0
 41 42  1  0  0  0
 41  1  1  0  0  0
 42 46  1  0  0  0
  1 24  1  0  0  0
 23 24  1  0  0  0
 23 25  1  0  0  0
 24 26  1  0  0  0
  3  4  2  0  0  0
 26 27  2  0  0  0
 27 28  1  0  0  0
 43 47  1  0  0  0
 43 51  1  0  0  0
 28 29  1  0  0  0
 56 48  1  0  0  0
 56 60  1  0  0  0
 29 30  1  0  0  0
 57 60  1  0  0  0
 57 61  1  0  0  0
 30 31  1  0  0  0
 44 49  1  0  0  0
 44 52  1  0  0  0
 31 32  1  0  0  0
 45 46  1  0  0  0
 45 50  1  0  0  0
 32 33  1  0  0  0
 53 54  1  0  0  0
 53 55  1  0  0  0
 33 34  1  0  0  0
 34 35  1  0  0  0
 35 36  1  0  0  0
 58 60  1  0  0  0
 36 37  1  0  0  0
 59 60  1  0  0  0
 59 62  1  0  0  0
 37 38  1  0  0  0
 38 39  1  0  0  0
 39 40  1  0  0  0
  4  6  1  0  0  0
  6  7  1  0  0  0
  7  8  1  0  0  0
  8  9  1  0  0  0
  9 10  1  0  0  0
 10 11  1  0  0  0
 11 12  1  0  0  0
 12 13  1  0  0  0
 13 14  1  0  0  0
 14 15  1  0  0  0
 15 16  1  0  0  0
 16 17  1  0  0  0
 17 18  1  0  0  0
 18 19  1  0  0  0
 19 20  1  0  0  0
 20 21  1  0  0  0
 21 22  1  0  0  0
 46 47  1  0  0  0
 47 48  1  0  0  0
 48 49  1  0  0  0
 49 50  1  0  0  0
 50 54  1  0  0  0
M  CHG 1  58  -1
M  END
> <minimizedAffinity>
-9.21477

> <CNNscore>
0.1714147031

> <CNNaffinity>
7.0893874168

> <CNN_VS>
1.2152252197

> <CNNaffinity_variance>
2.3082995415

$$$$
/media/chris/experiments/cd1a-new-docking/inputs/ligands/1onq_ligand.pdb


 62 62  0  0  0  0  0  0  0  0999 V2000
  -41.6316   59.8022   64.7422 C   0  0  0  0  0  0  0  0  0  0  0  0
  -41.6167   58.4228   64.2972 N   0  0  0  0  0  0  0  0  0  0  0  0
  -42.2272   56.2399   64.3971 O   0  0  0  0  0  0  0  0  0  0  0  0
  -42.2896   57.3824   64.8077 C   0  0  0  0  0  0  0  0  0  0  0  0
  -41.0406   58.2257   63.5236 H   0  0  0  0  0  0  0  0  0  0  0  0
  -43.1676   57.7045   65.9804 C   0  0  0  0  0  0  0  0  0  0  0  0
  -44.6047   57.4398   65.5312 C   0  0  0  0  0  0  0  0  0  0  0  0
  -45.5822   57.9134   66.6042 C   0  0  0  0  0  0  0  0  0  0  0  0
  -45.6732   59.4066   66.8061 C   0  0  0  0  0  0  0  0  0  0  0  0
  -46.6470   59.9535   65.7677 C   0  0  0  0  0  0  0  0  0  0  0  0
  -48.1150   59.7467   66.1643 C   0  0  0  0  0  0  0  0  0  0  0  0
  -48.8914   58.7921   65.2389 C   0  0  0  0  0  0  0  0  0  0  0  0
  -50.4207   58.9947   65.3141 C   0  0  0  0  0  0  0  0  0  0  0  0
  -50.8297   60.2876   64.6025 C   0  0  0  0  0  0  0  0  0  0  0  0
  -51.2718   60.1147   63.1544 C   0  0  0  0  0  0  0  0  0  0  0  0
  -51.1260   58.6784   62.6740 C   0  0  0  0  0  0  0  0  0  0  0  0
  -49.9251   58.3920   61.7695 C   0  0  0  0  0  0  0  0  0  0  0  0
  -50.4350   57.7268   60.4982 C   0  0  0  0  0  0  0  0  0  0  0  0
  -50.0051   58.2963   59.1543 C   0  0  0  0  0  0  0  0  0  0  0  0
  -48.5016   58.6147   59.1476 C   0  0  0  0  0  0  0  0  0  0  0  0
  -47.6513   57.6634   58.2856 C   0  0  0  0  0  0  0  0  0  0  0  0
  -46.9470   58.3654   57.1268 C   0  0  0  0  0  0  0  0  0  0  0  0
  -43.6695   60.4167   63.8121 O   0  0  0  0  0  0  0  0  0  0  0  0
  -42.2786   60.5209   63.5707 C   0  0  0  0  0  0  0  0  0  0  0  0
  -43.8873   60.8623   64.6457 H   0  0  0  0  0  0  0  0  0  0  0  0
  -41.8669   59.8358   62.2656 C   0  0  0  0  0  0  0  0  0  0  0  0
  -41.4010   60.5100   61.2004 C   0  0  0  0  0  0  0  0  0  0  0  0
  -41.0116   59.7528   59.9322 C   0  0  0  0  0  0  0  0  0  0  0  0
  -39.5294   59.8920   59.5554 C   0  0  0  0  0  0  0  0  0  0  0  0
  -38.7141   58.5857   59.5638 C   0  0  0  0  0  0  0  0  0  0  0  0
  -37.7754   58.5319   60.7932 C   0  0  0  0  0  0  0  0  0  0  0  0
  -38.1889   57.5269   61.8979 C   0  0  0  0  0  0  0  0  0  0  0  0
  -37.5282   57.7887   63.2719 C   0  0  0  0  0  0  0  0  0  0  0  0
  -36.2025   58.5750   63.1798 C   0  0  0  0  0  0  0  0  0  0  0  0
  -34.9551   57.6832   63.1652 C   0  0  0  0  0  0  0  0  0  0  0  0
  -33.6423   58.3588   63.5559 C   0  0  0  0  0  0  0  0  0  0  0  0
  -32.8835   58.9852   62.3694 C   0  0  0  0  0  0  0  0  0  0  0  0
  -31.7525   59.9517   62.7523 C   0  0  0  0  0  0  0  0  0  0  0  0
  -31.1035   60.5601   61.5058 C   0  0  0  0  0  0  0  0  0  0  0  0
  -29.7238   61.1664   61.6907 C   0  0  0  0  0  0  0  0  0  0  0  0
  -40.2776   60.3551   65.2422 C   0  0  0  0  0  0  0  0  0  0  0  0
  -39.2333   60.5088   64.2478 O   0  0  0  0  0  0  0  0  0  0  0  0
  -37.4564   60.9985   66.4342 O   0  0  0  0  0  0  0  0  0  0  0  0
  -34.7878   61.9459   63.3715 O   0  0  0  0  0  0  0  0  0  0  0  0
  -37.7916   62.0219   63.0159 O   0  0  0  0  0  0  0  0  0  0  0  0
  -38.2597   61.6161   64.3251 C   0  0  0  0  0  0  0  0  0  0  0  0
  -37.0014   61.3521   65.1646 C   0  0  0  0  0  0  0  0  0  0  0  0
  -36.0799   62.5836   65.3051 C   0  0  0  0  0  0  0  0  0  0  0  0
  -35.6476   62.9466   63.9113 C   0  0  0  0  0  0  0  0  0  0  0  0
  -36.8678   63.1435   63.0300 C   0  0  0  0  0  0  0  0  0  0  0  0
  -38.0379   60.2252   66.3654 H   0  0  0  0  0  0  0  0  0  0  0  0
  -34.0163   61.8366   63.9493 H   0  0  0  0  0  0  0  0  0  0  0  0
  -35.9480   64.8544   61.6369 O   0  0  0  0  0  0  0  0  0  0  0  0
  -36.2192   63.4860   61.6905 C   0  0  0  0  0  0  0  0  0  0  0  0
  -35.5361   65.0692   60.7853 H   0  0  0  0  0  0  0  0  0  0  0  0
  -34.8653   62.3837   66.0632 O   0  0  0  0  0  0  0  0  0  0  0  0
  -33.3044   63.2999   67.9182 O   0  0  0  0  0  0  0  0  0  0  0  0
  -34.7920   64.8183   66.7477 O   0  0  0  0  0  0  0  0  0  0  0  0
  -32.7974   63.9813   65.6543 O   0  0  0  0  0  0  0  0  0  0  0  0
  -33.9029   63.6352   66.5924 S   0  0  0  0  0  0  0  0  0  0  0  0
  -34.0101   63.0715   68.5432 H   0  0  0  0  0  0  0  0  0  0  0  0
  -32.2126   63.2149   65.5472 H   0  0  0  0  0  0  0  0  0  0  0  0
  2  1  1  0  0  0
  2  4  1  0  0  0
  2  5  1  0  0  0
 41 42  1  0  0  0
 41  1  1  0  0  0
 42 46  1  0  0  0
  1 24  1  0  0  0
 23 24  1  0  0  0
 23 25  1  0  0  0
 24 26  1  0  0  0
  3  4  2  0  0  0
 26 27  2  0  0  0
 27 28  1  0  0  0
 43 47  1  0  0  0
 43 51  1  0  0  0
 28 29  1  0  0  0
 56 48  1  0  0  0
 56 60  1  0  0  0
 29 30  1  0  0  0
 57 60  1  0  0  0
 57 61  1  0  0  0
 30 31  1  0  0  0
 44 49  1  0  0  0
 44 52  1  0  0  0
 31 32  1  0  0  0
 45 46  1  0  0  0
 45 50  1  0  0  0
 32 33  1  0  0  0
 53 54  1  0  0  0
 53 55  1  0  0  0
 33 34  1  0  0  0
 34 35  1  0  0  0
 35 36  1  0  0  0
 58 60  1  0  0  0
 36 37  1  0  0  0
 59 60  1  0  0  0
 59 62  1  0  0  0
 37 38  1  0  0  0
 38 39  1  0  0  0
 39 40  1  0  0  0
  4  6  1  0  0  0
  6  7  1  0  0  0
  7  8  1  0  0  0
  8  9  1  0  0  0
  9 10  1  0  0  0
 10 11  1  0  0  0
 11 12  1  0  0  0
 12 13  1  0  0  0
 13 14  1  0  0  0
 14 15  1  0  0  0
 15 16  1  0  0  0
 16 17  1  0  0  0
 17 18  1  0  0  0
 18 19  1  0  0  0
 19 20  1  0  0  0
 20 21  1  0  0  0
 21 22  1  0  0  0
 46 47  1  0  0  0
 47 48  1  0  0  0
 48 49  1  0  0  0
 49 50  1  0  0  0
 50 54  1  0  0  0
M  CHG 1  58  -1
M  END
> <minimizedAffinity>
-9.51861

> <CNNscore>
0.1681417674

> <CNNaffinity>
6.9376816750

> <CNN_VS>
1.1665140390

> <CNNaffinity_variance>
1.1799951792

$$$$
/media/chris/experiments/cd1a-new-docking/inputs/ligands/1onq_ligand.pdb


 62 62  0  0  0  0  0  0  0  0999 V2000
  -40.9944   59.8412   64.1373 C   0  0  0  0  0  0  0  0  0  0  0  0
  -41.1977   60.6963   65.2900 N   0  0  0  0  0  0  0  0  0  0  0  0
  -42.4188   61.5761   66.9878 O   0  0  0  0  0  0  0  0  0  0  0  0
  -42.3035   60.8300   66.0349 C   0  0  0  0  0  0  0  0  0  0  0  0
  -40.4275   61.2473   65.5591 H   0  0  0  0  0  0  0  0  0  0  0  0
  -43.4629   59.9765   65.6140 C   0  0  0  0  0  0  0  0  0  0  0  0
  -44.4147   60.8896   64.8408 C   0  0  0  0  0  0  0  0  0  0  0  0
  -45.8615   60.4838   65.1114 C   0  0  0  0  0  0  0  0  0  0  0  0
  -46.4315   59.4173   64.2080 C   0  0  0  0  0  0  0  0  0  0  0  0
  -47.5357   58.7019   64.9791 C   0  0  0  0  0  0  0  0  0  0  0  0
  -47.9053   59.4167   66.2858 C   0  0  0  0  0  0  0  0  0  0  0  0
  -49.2750   60.1192   66.2566 C   0  0  0  0  0  0  0  0  0  0  0  0
  -50.3370   59.3314   65.4584 C   0  0  0  0  0  0  0  0  0  0  0  0
  -51.0544   60.2482   64.4634 C   0  0  0  0  0  0  0  0  0  0  0  0
  -51.4515   59.5878   63.1487 C   0  0  0  0  0  0  0  0  0  0  0  0
  -50.5058   58.4610   62.7600 C   0  0  0  0  0  0  0  0  0  0  0  0
  -50.8244   57.7399   61.4483 C   0  0  0  0  0  0  0  0  0  0  0  0
  -49.5200   57.5317   60.6908 C   0  0  0  0  0  0  0  0  0  0  0  0
  -48.9918   58.6645   59.8231 C   0  0  0  0  0  0  0  0  0  0  0  0
  -48.6831   58.1700   58.4011 C   0  0  0  0  0  0  0  0  0  0  0  0
  -47.3055   57.5005   58.2428 C   0  0  0  0  0  0  0  0  0  0  0  0
  -47.3682   56.1506   57.5317 C   0  0  0  0  0  0  0  0  0  0  0  0
  -39.2400   58.8800   65.3178 O   0  0  0  0  0  0  0  0  0  0  0  0
  -40.5010   58.5495   64.7662 C   0  0  0  0  0  0  0  0  0  0  0  0
  -39.3528   59.5655   65.9947 H   0  0  0  0  0  0  0  0  0  0  0  0
  -40.3934   57.4693   63.6875 C   0  0  0  0  0  0  0  0  0  0  0  0
  -41.4555   57.0076   63.0055 C   0  0  0  0  0  0  0  0  0  0  0  0
  -41.2656   55.9262   61.9435 C   0  0  0  0  0  0  0  0  0  0  0  0
  -41.5370   56.4074   60.5107 C   0  0  0  0  0  0  0  0  0  0  0  0
  -41.2996   57.9072   60.2551 C   0  0  0  0  0  0  0  0  0  0  0  0
  -40.1370   58.1167   59.2552 C   0  0  0  0  0  0  0  0  0  0  0  0
  -39.1265   59.2274   59.6386 C   0  0  0  0  0  0  0  0  0  0  0  0
  -37.8115   58.7004   60.2596 C   0  0  0  0  0  0  0  0  0  0  0  0
  -38.0181   57.5210   61.2345 C   0  0  0  0  0  0  0  0  0  0  0  0
  -37.1482   57.6017   62.4948 C   0  0  0  0  0  0  0  0  0  0  0  0
  -35.8308   58.3613   62.3538 C   0  0  0  0  0  0  0  0  0  0  0  0
  -34.6534   57.7185   63.1131 C   0  0  0  0  0  0  0  0  0  0  0  0
  -34.1756   58.4889   64.3534 C   0  0  0  0  0  0  0  0  0  0  0  0
  -32.6504   58.6259   64.3617 C   0  0  0  0  0  0  0  0  0  0  0  0
  -32.0335   59.3752   63.1939 C   0  0  0  0  0  0  0  0  0  0  0  0
  -40.1314   60.4438   63.0054 C   0  0  0  0  0  0  0  0  0  0  0  0
  -38.6939   60.3964   63.1911 O   0  0  0  0  0  0  0  0  0  0  0  0
  -37.2286   60.8567   65.6033 O   0  0  0  0  0  0  0  0  0  0  0  0
  -34.4740   62.5747   62.9842 O   0  0  0  0  0  0  0  0  0  0  0  0
  -37.4052   62.2519   62.3068 O   0  0  0  0  0  0  0  0  0  0  0  0
  -37.9215   61.6159   63.5012 C   0  0  0  0  0  0  0  0  0  0  0  0
  -36.7205   61.4345   64.4405 C   0  0  0  0  0  0  0  0  0  0  0  0
  -36.0251   62.7599   64.8214 C   0  0  0  0  0  0  0  0  0  0  0  0
  -35.5292   63.3595   63.5345 C   0  0  0  0  0  0  0  0  0  0  0  0
  -36.6782   63.4862   62.5506 C   0  0  0  0  0  0  0  0  0  0  0  0
  -37.6700   60.0215   65.3830 H   0  0  0  0  0  0  0  0  0  0  0  0
  -33.7518   62.5068   63.6283 H   0  0  0  0  0  0  0  0  0  0  0  0
  -36.1241   65.4782   61.3510 O   0  0  0  0  0  0  0  0  0  0  0  0
  -35.9715   64.0906   61.3392 C   0  0  0  0  0  0  0  0  0  0  0  0
  -35.6744   65.8595   60.5808 H   0  0  0  0  0  0  0  0  0  0  0  0
  -34.8696   62.6453   65.6826 O   0  0  0  0  0  0  0  0  0  0  0  0
  -33.4205   63.3416   67.7154 O   0  0  0  0  0  0  0  0  0  0  0  0
  -35.5486   64.4419   67.3295 O   0  0  0  0  0  0  0  0  0  0  0  0
  -33.6339   64.9695   65.9403 O   0  0  0  0  0  0  0  0  0  0  0  0
  -34.3403   63.8778   66.6690 S   0  0  0  0  0  0  0  0  0  0  0  0
  -33.8638   62.6286   68.2011 H   0  0  0  0  0  0  0  0  0  0  0  0
  -32.8443   64.6102   65.5064 H   0  0  0  0  0  0  0  0  0  0  0  0
  2  1  1  0  0  0
  2  4  1  0  0  0
  2  5  1  0  0  0
 41 42  1  0  0  0
 41  1  1  0  0  0
 42 46  1  0  0  0
  1 24  1  0  0  0
 23 24  1  0  0  0
 23 25  1  0  0  0
 24 26  1  0  0  0
  3  4  2  0  0  0
 26 27  2  0  0  0
 27 28  1  0  0  0
 43 47  1  0  0  0
 43 51  1  0  0  0
 28 29  1  0  0  0
 56 48  1  0  0  0
 56 60  1  0  0  0
 29 30  1  0  0  0
 57 60  1  0  0  0
 57 61  1  0  0  0
 30 31  1  0  0  0
 44 49  1  0  0  0
 44 52  1  0  0  0
 31 32  1  0  0  0
 45 46  1  0  0  0
 45 50  1  0  0  0
 32 33  1  0  0  0
 53 54  1  0  0  0
 53 55  1  0  0  0
 33 34  1  0  0  0
 34 35  1  0  0  0
 35 36  1  0  0  0
 58 60  1  0  0  0
 36 37  1  0  0  0
 59 60  1  0  0  0
 59 62  1  0  0  0
 37 38  1  0  0  0
 38 39  1  0  0  0
 39 40  1  0  0  0
  4  6  1  0  0  0
  6  7  1  0  0  0
  7  8  1  0  0  0
  8  9  1  0  0  0
  9 10  1  0  0  0
 10 11  1  0  0  0
 11 12  1  0  0  0
 12 13  1  0  0  0
 13 14  1  0  0  0
 14 15  1  0  0  0
 15 16  1  0  0  0
 16 17  1  0  0  0
 17 18  1  0  0  0
 18 19  1  0  0  0
 19 20  1  0  0  0
 20 21  1  0  0  0
 21 22  1  0  0  0
 46 47  1  0  0  0
 47 48  1  0  0  0
 48 49  1  0  0  0
 49 50  1  0  0  0
 50 54  1  0  0  0
M  CHG 1  58  -1
M  END
> <minimizedAffinity>
-9.57105

> <CNNscore>
0.1662009805

> <CNNaffinity>
6.9062051773

> <CNN_VS>
1.1478180885

> <CNNaffinity_variance>
1.2674925327

$$$$
/media/chris/experiments/cd1a-new-docking/inputs/ligands/1onq_ligand.pdb


 62 62  0  0  0  0  0  0  0  0999 V2000
  -39.2856   60.2246   64.4343 C   0  0  0  0  0  0  0  0  0  0  0  0
  -40.0381   60.4279   65.6564 N   0  0  0  0  0  0  0  0  0  0  0  0
  -41.9274   60.8319   66.8459 O   0  0  0  0  0  0  0  0  0  0  0  0
  -41.3518   60.6563   65.7896 C   0  0  0  0  0  0  0  0  0  0  0  0
  -39.5195   60.3940   66.4926 H   0  0  0  0  0  0  0  0  0  0  0  0
  -42.1255   60.6965   64.5053 C   0  0  0  0  0  0  0  0  0  0  0  0
  -43.2470   61.7157   64.7068 C   0  0  0  0  0  0  0  0  0  0  0  0
  -44.5386   61.2016   64.0755 C   0  0  0  0  0  0  0  0  0  0  0  0
  -45.5489   60.6040   65.0247 C   0  0  0  0  0  0  0  0  0  0  0  0
  -46.8770   60.5051   64.2816 C   0  0  0  0  0  0  0  0  0  0  0  0
  -47.7744   59.3818   64.8181 C   0  0  0  0  0  0  0  0  0  0  0  0
  -48.9958   59.8747   65.6155 C   0  0  0  0  0  0  0  0  0  0  0  0
  -50.3385   59.4827   64.9606 C   0  0  0  0  0  0  0  0  0  0  0  0
  -50.6703   60.4273   63.8019 C   0  0  0  0  0  0  0  0  0  0  0  0
  -50.5168   59.8218   62.4119 C   0  0  0  0  0  0  0  0  0  0  0  0
  -50.8605   58.3398   62.3868 C   0  0  0  0  0  0  0  0  0  0  0  0
  -50.5639   57.6043   61.0779 C   0  0  0  0  0  0  0  0  0  0  0  0
  -49.6602   58.4887   60.2295 C   0  0  0  0  0  0  0  0  0  0  0  0
  -49.2598   58.0054   58.8433 C   0  0  0  0  0  0  0  0  0  0  0  0
  -47.8801   58.5542   58.4468 C   0  0  0  0  0  0  0  0  0  0  0  0
  -47.2850   57.9263   57.1731 C   0  0  0  0  0  0  0  0  0  0  0  0
  -47.2145   56.4019   57.2274 C   0  0  0  0  0  0  0  0  0  0  0  0
  -37.3698   59.2985   65.3659 O   0  0  0  0  0  0  0  0  0  0  0  0
  -38.5618   58.9168   64.7050 C   0  0  0  0  0  0  0  0  0  0  0  0
  -37.5903   59.7431   66.1993 H   0  0  0  0  0  0  0  0  0  0  0  0
  -38.2835   58.2074   63.3777 C   0  0  0  0  0  0  0  0  0  0  0  0
  -38.0196   58.8667   62.2367 C   0  0  0  0  0  0  0  0  0  0  0  0
  -37.7530   58.0855   60.9514 C   0  0  0  0  0  0  0  0  0  0  0  0
  -38.2987   58.7645   59.6867 C   0  0  0  0  0  0  0  0  0  0  0  0
  -39.2512   59.9507   59.9251 C   0  0  0  0  0  0  0  0  0  0  0  0
  -40.7037   59.4565   60.1283 C   0  0  0  0  0  0  0  0  0  0  0  0
  -41.0217   58.0679   59.5182 C   0  0  0  0  0  0  0  0  0  0  0  0
  -41.4693   57.0088   60.5530 C   0  0  0  0  0  0  0  0  0  0  0  0
  -41.7648   57.5967   61.9499 C   0  0  0  0  0  0  0  0  0  0  0  0
  -41.4784   56.6260   63.1018 C   0  0  0  0  0  0  0  0  0  0  0  0
  -41.8561   57.1125   64.4994 C   0  0  0  0  0  0  0  0  0  0  0  0
  -43.3743   57.1371   64.7644 C   0  0  0  0  0  0  0  0  0  0  0  0
  -43.7844   57.5544   66.1848 C   0  0  0  0  0  0  0  0  0  0  0  0
  -45.2935   57.3949   66.3907 C   0  0  0  0  0  0  0  0  0  0  0  0
  -45.8731   58.0195   67.6475 C   0  0  0  0  0  0  0  0  0  0  0  0
  -38.4216   61.4221   63.9775 C   0  0  0  0  0  0  0  0  0  0  0  0
  -37.6428   62.0883   65.0037 O   0  0  0  0  0  0  0  0  0  0  0  0
  -35.2668   62.8088   66.4224 O   0  0  0  0  0  0  0  0  0  0  0  0
  -33.8464   63.6143   62.5841 O   0  0  0  0  0  0  0  0  0  0  0  0
  -36.7936   63.5536   63.2667 O   0  0  0  0  0  0  0  0  0  0  0  0
  -36.7685   63.2328   64.6789 C   0  0  0  0  0  0  0  0  0  0  0  0
  -35.2877   63.0801   65.0550 C   0  0  0  0  0  0  0  0  0  0  0  0
  -34.4485   64.3513   64.7998 C   0  0  0  0  0  0  0  0  0  0  0  0
  -34.5331   64.6216   63.3229 C   0  0  0  0  0  0  0  0  0  0  0  0
  -35.9882   64.7058   62.8987 C   0  0  0  0  0  0  0  0  0  0  0  0
  -35.7899   62.0118   66.6019 H   0  0  0  0  0  0  0  0  0  0  0  0
  -32.9204   63.5777   62.8708 H   0  0  0  0  0  0  0  0  0  0  0  0
  -35.7894   63.7528   60.7155 O   0  0  0  0  0  0  0  0  0  0  0  0
  -35.8499   64.9677   61.4005 C   0  0  0  0  0  0  0  0  0  0  0  0
  -35.7017   63.9219   59.7644 H   0  0  0  0  0  0  0  0  0  0  0  0
  -33.0400   64.2545   65.1105 O   0  0  0  0  0  0  0  0  0  0  0  0
  -32.3571   66.7489   65.2802 O   0  0  0  0  0  0  0  0  0  0  0  0
  -30.7746   65.0277   65.9297 O   0  0  0  0  0  0  0  0  0  0  0  0
  -32.6462   65.5697   67.3712 O   0  0  0  0  0  0  0  0  0  0  0  0
  -32.2085   65.4250   65.9537 S   0  0  0  0  0  0  0  0  0  0  0  0
  -32.0764   66.6742   64.3547 H   0  0  0  0  0  0  0  0  0  0  0  0
  -33.5806   65.8287   67.3961 H   0  0  0  0  0  0  0  0  0  0  0  0
  2  1  1  0  0  0
  2  4  1  0  0  0
  2  5  1  0  0  0
 41 42  1  0  0  0
 41  1  1  0  0  0
 42 46  1  0  0  0
  1 24  1  0  0  0
 23 24  1  0  0  0
 23 25  1  0  0  0
 24 26  1  0  0  0
  3  4  2  0  0  0
 26 27  2  0  0  0
 27 28  1  0  0  0
 43 47  1  0  0  0
 43 51  1  0  0  0
 28 29  1  0  0  0
 56 48  1  0  0  0
 56 60  1  0  0  0
 29 30  1  0  0  0
 57 60  1  0  0  0
 57 61  1  0  0  0
 30 31  1  0  0  0
 44 49  1  0  0  0
 44 52  1  0  0  0
 31 32  1  0  0  0
 45 46  1  0  0  0
 45 50  1  0  0  0
 32 33  1  0  0  0
 53 54  1  0  0  0
 53 55  1  0  0  0
 33 34  1  0  0  0
 34 35  1  0  0  0
 35 36  1  0  0  0
 58 60  1  0  0  0
 36 37  1  0  0  0
 59 60  1  0  0  0
 59 62  1  0  0  0
 37 38  1  0  0  0
 38 39  1  0  0  0
 39 40  1  0  0  0
  4  6  1  0  0  0
  6  7  1  0  0  0
  7  8  1  0  0  0
  8  9  1  0  0  0
  9 10  1  0  0  0
 10 11  1  0  0  0
 11 12  1  0  0  0
 12 13  1  0  0  0
 13 14  1  0  0  0
 14 15  1  0  0  0
 15 16  1  0  0  0
 16 17  1  0  0  0
 17 18  1  0  0  0
 18 19  1  0  0  0
 19 20  1  0  0  0
 20 21  1  0  0  0
 21 22  1  0  0  0
 46 47  1  0  0  0
 47 48  1  0  0  0
 48 49  1  0  0  0
 49 50  1  0  0  0
 50 54  1  0  0  0
M  CHG 1  58  -1
M  END
> <minimizedAffinity>
-9.46293

> <CNNscore>
0.1654861122

> <CNNaffinity>
7.1365547180

> <CNN_VS>
1.1810007095

> <CNNaffinity_variance>
0.9849081039

$$$$
