/media/chris/experiments/cd1a-new-docking/inputs/ligands/1onq_ligand.pdb


 62 62  0  0  0  0  0  0  0  0999 V2000
  -41.5711   59.9146   65.1266 C   0  0  0  0  0  0  0  0  0  0  0  0
  -41.5687   58.5484   64.6420 N   0  0  0  0  0  0  0  0  0  0  0  0
  -42.8787   57.5006   66.1695 O   0  0  0  0  0  0  0  0  0  0  0  0
  -42.1907   57.4841   65.1675 C   0  0  0  0  0  0  0  0  0  0  0  0
  -41.0451   58.3818   63.8251 H   0  0  0  0  0  0  0  0  0  0  0  0
  -41.9972   56.1988   64.4190 C   0  0  0  0  0  0  0  0  0  0  0  0
  -41.1163   56.5275   63.2136 C   0  0  0  0  0  0  0  0  0  0  0  0
  -41.3318   55.4922   62.1124 C   0  0  0  0  0  0  0  0  0  0  0  0
  -41.2734   56.0091   60.6954 C   0  0  0  0  0  0  0  0  0  0  0  0
  -41.7567   57.4555   60.7122 C   0  0  0  0  0  0  0  0  0  0  0  0
  -41.1698   58.2902   59.5660 C   0  0  0  0  0  0  0  0  0  0  0  0
  -40.7712   59.7223   59.9665 C   0  0  0  0  0  0  0  0  0  0  0  0
  -39.2696   60.0108   59.7488 C   0  0  0  0  0  0  0  0  0  0  0  0
  -38.4877   58.7049   59.5804 C   0  0  0  0  0  0  0  0  0  0  0  0
  -37.4985   58.3968   60.6978 C   0  0  0  0  0  0  0  0  0  0  0  0
  -38.1090   57.5251   61.7853 C   0  0  0  0  0  0  0  0  0  0  0  0
  -37.7824   57.9229   63.2265 C   0  0  0  0  0  0  0  0  0  0  0  0
  -36.2745   58.1010   63.3409 C   0  0  0  0  0  0  0  0  0  0  0  0
  -35.7087   58.7353   64.6029 C   0  0  0  0  0  0  0  0  0  0  0  0
  -34.1948   58.9655   64.4714 C   0  0  0  0  0  0  0  0  0  0  0  0
  -33.6013   58.5502   63.1126 C   0  0  0  0  0  0  0  0  0  0  0  0
  -32.1374   58.9503   62.9455 C   0  0  0  0  0  0  0  0  0  0  0  0
  -42.2127   62.0180   64.3786 O   0  0  0  0  0  0  0  0  0  0  0  0
  -42.3410   60.6490   64.0425 C   0  0  0  0  0  0  0  0  0  0  0  0
  -41.2759   62.2693   64.3591 H   0  0  0  0  0  0  0  0  0  0  0  0
  -43.7999   60.1864   64.0548 C   0  0  0  0  0  0  0  0  0  0  0  0
  -44.7952   60.9181   64.5839 C   0  0  0  0  0  0  0  0  0  0  0  0
  -46.2268   60.3859   64.5581 C   0  0  0  0  0  0  0  0  0  0  0  0
  -46.4762   59.2253   65.5323 C   0  0  0  0  0  0  0  0  0  0  0  0
  -47.8972   58.6326   65.5131 C   0  0  0  0  0  0  0  0  0  0  0  0
  -48.9256   59.6539   66.0560 C   0  0  0  0  0  0  0  0  0  0  0  0
  -50.3755   59.4709   65.5404 C   0  0  0  0  0  0  0  0  0  0  0  0
  -50.7551   60.4096   64.3710 C   0  0  0  0  0  0  0  0  0  0  0  0
  -51.1777   59.6594   63.0892 C   0  0  0  0  0  0  0  0  0  0  0  0
  -50.3984   58.3611   62.8480 C   0  0  0  0  0  0  0  0  0  0  0  0
  -50.3743   57.8500   61.4090 C   0  0  0  0  0  0  0  0  0  0  0  0
  -49.1212   58.2708   60.6162 C   0  0  0  0  0  0  0  0  0  0  0  0
  -49.2856   58.2816   59.0888 C   0  0  0  0  0  0  0  0  0  0  0  0
  -47.9253   58.2131   58.3889 C   0  0  0  0  0  0  0  0  0  0  0  0
  -47.1429   56.9229   58.5585 C   0  0  0  0  0  0  0  0  0  0  0  0
  -40.1882   60.4861   65.5136 C   0  0  0  0  0  0  0  0  0  0  0  0
  -39.4773   61.2172   64.4823 O   0  0  0  0  0  0  0  0  0  0  0  0
  -37.6873   61.4911   62.2692 O   0  0  0  0  0  0  0  0  0  0  0  0
  -36.0216   64.4764   64.6594 O   0  0  0  0  0  0  0  0  0  0  0  0
  -37.6844   62.2104   65.7802 O   0  0  0  0  0  0  0  0  0  0  0  0
  -38.0259   61.4682   64.5843 C   0  0  0  0  0  0  0  0  0  0  0  0
  -37.3879   62.2294   63.4134 C   0  0  0  0  0  0  0  0  0  0  0  0
  -35.8525   62.3578   63.5200 C   0  0  0  0  0  0  0  0  0  0  0  0
  -35.5815   63.1262   64.7839 C   0  0  0  0  0  0  0  0  0  0  0  0
  -36.2608   62.4423   65.9566 C   0  0  0  0  0  0  0  0  0  0  0  0
  -38.6493   61.4000   62.1857 H   0  0  0  0  0  0  0  0  0  0  0  0
  -35.5759   64.8935   63.9054 H   0  0  0  0  0  0  0  0  0  0  0  0
  -36.2225   62.7739   68.3234 O   0  0  0  0  0  0  0  0  0  0  0  0
  -35.8768   63.3684   67.1084 C   0  0  0  0  0  0  0  0  0  0  0  0
  -35.9776   63.3640   69.0534 H   0  0  0  0  0  0  0  0  0  0  0  0
  -35.2019   63.0905   62.4570 O   0  0  0  0  0  0  0  0  0  0  0  0
  -33.0776   63.4430   61.0146 O   0  0  0  0  0  0  0  0  0  0  0  0
  -32.9096   62.2520   63.1223 O   0  0  0  0  0  0  0  0  0  0  0  0
  -33.1739   64.6611   63.1010 O   0  0  0  0  0  0  0  0  0  0  0  0
  -33.5648   63.3917   62.4249 S   0  0  0  0  0  0  0  0  0  0  0  0
  -33.3233   62.6234   60.5577 H   0  0  0  0  0  0  0  0  0  0  0  0
  -33.5970   65.4099   62.6524 H   0  0  0  0  0  0  0  0  0  0  0  0
  2  1  1  0  0  0
  2  4  1  0  0  0
  2  5  1  0  0  0
 41 42  1  0  0  0
 41  1  1  0  0  0
 42 46  1  0  0  0
  1 24  1  0  0  0
 23 24  1  0  0  0
 23 25  1  0  0  0
 24 26  1  0  0  0
  3  4  2  0  0  0
 26 27  2  0  0  0
 27 28  1  0  0  0
 43 47  1  0  0  0
 43 51  1  0  0  0
 28 29  1  0  0  0
 56 48  1  0  0  0
 56 60  1  0  0  0
 29 30  1  0  0  0
 57 60  1  0  0  0
 57 61  1  0  0  0
 30 31  1  0  0  0
 44 49  1  0  0  0
 44 52  1  0  0  0
 31 32  1  0  0  0
 45 46  1  0  0  0
 45 50  1  0  0  0
 32 33  1  0  0  0
 53 54  1  0  0  0
 53 55  1  0  0  0
 33 34  1  0  0  0
 34 35  1  0  0  0
 35 36  1  0  0  0
 58 60  1  0  0  0
 36 37  1  0  0  0
 59 60  1  0  0  0
 59 62  1  0  0  0
 37 38  1  0  0  0
 38 39  1  0  0  0
 39 40  1  0  0  0
  4  6  1  0  0  0
  6  7  1  0  0  0
  7  8  1  0  0  0
  8  9  1  0  0  0
  9 10  1  0  0  0
 10 11  1  0  0  0
 11 12  1  0  0  0
 12 13  1  0  0  0
 13 14  1  0  0  0
 14 15  1  0  0  0
 15 16  1  0  0  0
 16 17  1  0  0  0
 17 18  1  0  0  0
 18 19  1  0  0  0
 19 20  1  0  0  0
 20 21  1  0  0  0
 21 22  1  0  0  0
 46 47  1  0  0  0
 47 48  1  0  0  0
 48 49  1  0  0  0
 49 50  1  0  0  0
 50 54  1  0  0  0
M  CHG 1  58  -1
M  END
> <minimizedAffinity>
-9.90026

> <CNNscore>
0.4008041918

> <CNNaffinity>
7.3316183090

> <CNN_VS>
2.9385433197

> <CNNaffinity_variance>
2.0437271595

$$$$
/media/chris/experiments/cd1a-new-docking/inputs/ligands/1onq_ligand.pdb


 62 62  0  0  0  0  0  0  0  0999 V2000
  -41.6253   60.2568   65.4450 C   0  0  0  0  0  0  0  0  0  0  0  0
  -41.7033   60.4317   64.0081 N   0  0  0  0  0  0  0  0  0  0  0  0
  -42.5179   62.5417   63.8302 O   0  0  0  0  0  0  0  0  0  0  0  0
  -42.1229   61.5074   63.3282 C   0  0  0  0  0  0  0  0  0  0  0  0
  -41.4115   59.6647   63.4642 H   0  0  0  0  0  0  0  0  0  0  0  0
  -42.0741   61.3767   61.8348 C   0  0  0  0  0  0  0  0  0  0  0  0
  -41.6807   59.9294   61.5390 C   0  0  0  0  0  0  0  0  0  0  0  0
  -40.8532   59.8653   60.2575 C   0  0  0  0  0  0  0  0  0  0  0  0
  -41.2052   58.7568   59.2953 C   0  0  0  0  0  0  0  0  0  0  0  0
  -40.4360   57.5120   59.7251 C   0  0  0  0  0  0  0  0  0  0  0  0
  -41.3154   56.4999   60.4717 C   0  0  0  0  0  0  0  0  0  0  0  0
  -40.7219   56.0089   61.8048 C   0  0  0  0  0  0  0  0  0  0  0  0
  -41.0076   56.9701   62.9795 C   0  0  0  0  0  0  0  0  0  0  0  0
  -39.6999   57.5077   63.5677 C   0  0  0  0  0  0  0  0  0  0  0  0
  -38.5450   57.6166   62.5795 C   0  0  0  0  0  0  0  0  0  0  0  0
  -37.1942   57.6897   63.2761 C   0  0  0  0  0  0  0  0  0  0  0  0
  -36.0499   58.2944   62.4596 C   0  0  0  0  0  0  0  0  0  0  0  0
  -34.7401   57.7095   62.9703 C   0  0  0  0  0  0  0  0  0  0  0  0
  -34.0377   58.3976   64.1316 C   0  0  0  0  0  0  0  0  0  0  0  0
  -32.6484   58.9034   63.7120 C   0  0  0  0  0  0  0  0  0  0  0  0
  -32.6516   60.2794   63.0209 C   0  0  0  0  0  0  0  0  0  0  0  0
  -31.7430   60.3418   61.7954 C   0  0  0  0  0  0  0  0  0  0  0  0
  -42.5395   61.4070   67.2442 O   0  0  0  0  0  0  0  0  0  0  0  0
  -42.8672   60.9818   65.9345 C   0  0  0  0  0  0  0  0  0  0  0  0
  -41.7842   62.0146   67.2074 H   0  0  0  0  0  0  0  0  0  0  0  0
  -44.0555   60.0173   65.9217 C   0  0  0  0  0  0  0  0  0  0  0  0
  -45.2073   60.2833   65.2825 C   0  0  0  0  0  0  0  0  0  0  0  0
  -46.3484   59.2685   65.3177 C   0  0  0  0  0  0  0  0  0  0  0  0
  -47.6363   59.8031   65.9610 C   0  0  0  0  0  0  0  0  0  0  0  0
  -48.6511   60.4383   64.9927 C   0  0  0  0  0  0  0  0  0  0  0  0
  -50.0735   59.8831   65.2459 C   0  0  0  0  0  0  0  0  0  0  0  0
  -51.1736   60.4242   64.2979 C   0  0  0  0  0  0  0  0  0  0  0  0
  -51.0116   59.9847   62.8237 C   0  0  0  0  0  0  0  0  0  0  0  0
  -50.8112   58.4635   62.6512 C   0  0  0  0  0  0  0  0  0  0  0  0
  -49.6413   58.0948   61.7312 C   0  0  0  0  0  0  0  0  0  0  0  0
  -49.3353   59.0812   60.6060 C   0  0  0  0  0  0  0  0  0  0  0  0
  -48.9222   58.4107   59.2810 C   0  0  0  0  0  0  0  0  0  0  0  0
  -47.8878   57.2826   59.4126 C   0  0  0  0  0  0  0  0  0  0  0  0
  -47.0642   57.1393   58.1296 C   0  0  0  0  0  0  0  0  0  0  0  0
  -47.0309   58.3472   57.2102 C   0  0  0  0  0  0  0  0  0  0  0  0
  -40.2799   60.6564   66.0922 C   0  0  0  0  0  0  0  0  0  0  0  0
  -39.0996   59.9612   65.6158 O   0  0  0  0  0  0  0  0  0  0  0  0
  -38.6219   61.1241   63.0475 O   0  0  0  0  0  0  0  0  0  0  0  0
  -36.9504   64.1912   65.3276 O   0  0  0  0  0  0  0  0  0  0  0  0
  -37.2622   61.3622   66.3549 O   0  0  0  0  0  0  0  0  0  0  0  0
  -37.8816   60.6992   65.2261 C   0  0  0  0  0  0  0  0  0  0  0  0
  -38.0602   61.7749   64.1452 C   0  0  0  0  0  0  0  0  0  0  0  0
  -36.7351   62.4288   63.6958 C   0  0  0  0  0  0  0  0  0  0  0  0
  -36.1530   63.0826   64.9185 C   0  0  0  0  0  0  0  0  0  0  0  0
  -36.0299   62.0635   66.0367 C   0  0  0  0  0  0  0  0  0  0  0  0
  -39.4566   60.7067   63.3115 H   0  0  0  0  0  0  0  0  0  0  0  0
  -37.0157   64.8287   64.5993 H   0  0  0  0  0  0  0  0  0  0  0  0
  -36.3310   62.9509   68.2356 O   0  0  0  0  0  0  0  0  0  0  0  0
  -35.4433   62.9174   67.1587 C   0  0  0  0  0  0  0  0  0  0  0  0
  -35.9562   63.4938   68.9468 H   0  0  0  0  0  0  0  0  0  0  0  0
  -36.8475   63.4694   62.6986 O   0  0  0  0  0  0  0  0  0  0  0  0
  -34.2833   63.4221   62.3242 O   0  0  0  0  0  0  0  0  0  0  0  0
  -35.4791   65.5271   62.1563 O   0  0  0  0  0  0  0  0  0  0  0  0
  -35.6445   63.8860   60.3805 O   0  0  0  0  0  0  0  0  0  0  0  0
  -35.5437   64.0710   61.8559 S   0  0  0  0  0  0  0  0  0  0  0  0
  -34.2002   63.5324   63.2843 H   0  0  0  0  0  0  0  0  0  0  0  0
  -35.6871   62.9388   60.1756 H   0  0  0  0  0  0  0  0  0  0  0  0
  2  1  1  0  0  0
  2  4  1  0  0  0
  2  5  1  0  0  0
 41 42  1  0  0  0
 41  1  1  0  0  0
 42 46  1  0  0  0
  1 24  1  0  0  0
 23 24  1  0  0  0
 23 25  1  0  0  0
 24 26  1  0  0  0
  3  4  2  0  0  0
 26 27  2  0  0  0
 27 28  1  0  0  0
 43 47  1  0  0  0
 43 51  1  0  0  0
 28 29  1  0  0  0
 56 48  1  0  0  0
 56 60  1  0  0  0
 29 30  1  0  0  0
 57 60  1  0  0  0
 57 61  1  0  0  0
 30 31  1  0  0  0
 44 49  1  0  0  0
 44 52  1  0  0  0
 31 32  1  0  0  0
 45 46  1  0  0  0
 45 50  1  0  0  0
 32 33  1  0  0  0
 53 54  1  0  0  0
 53 55  1  0  0  0
 33 34  1  0  0  0
 34 35  1  0  0  0
 35 36  1  0  0  0
 58 60  1  0  0  0
 36 37  1  0  0  0
 59 60  1  0  0  0
 59 62  1  0  0  0
 37 38  1  0  0  0
 38 39  1  0  0  0
 39 40  1  0  0  0
  4  6  1  0  0  0
  6  7  1  0  0  0
  7  8  1  0  0  0
  8  9  1  0  0  0
  9 10  1  0  0  0
 10 11  1  0  0  0
 11 12  1  0  0  0
 12 13  1  0  0  0
 13 14  1  0  0  0
 14 15  1  0  0  0
 15 16  1  0  0  0
 16 17  1  0  0  0
 17 18  1  0  0  0
 18 19  1  0  0  0
 19 20  1  0  0  0
 20 21  1  0  0  0
 21 22  1  0  0  0
 46 47  1  0  0  0
 47 48  1  0  0  0
 48 49  1  0  0  0
 49 50  1  0  0  0
 50 54  1  0  0  0
M  CHG 1  58  -1
M  END
> <minimizedAffinity>
-9.57314

> <CNNscore>
0.2544883192

> <CNNaffinity>
7.1888794899

> <CNN_VS>
1.8294858932

> <CNNaffinity_variance>
1.7553306818

$$$$
/media/chris/experiments/cd1a-new-docking/inputs/ligands/1onq_ligand.pdb


 62 62  0  0  0  0  0  0  0  0999 V2000
  -41.1378   61.2704   63.7124 C   0  0  0  0  0  0  0  0  0  0  0  0
  -42.2879   60.7611   64.4328 N   0  0  0  0  0  0  0  0  0  0  0  0
  -42.0126   61.6899   66.4844 O   0  0  0  0  0  0  0  0  0  0  0  0
  -42.6336   60.9917   65.7067 C   0  0  0  0  0  0  0  0  0  0  0  0
  -42.8901   60.1726   63.9225 H   0  0  0  0  0  0  0  0  0  0  0  0
  -43.8968   60.3194   66.1564 C   0  0  0  0  0  0  0  0  0  0  0  0
  -44.8567   60.3608   64.9673 C   0  0  0  0  0  0  0  0  0  0  0  0
  -45.7655   59.1341   64.9878 C   0  0  0  0  0  0  0  0  0  0  0  0
  -47.0529   59.2492   64.2082 C   0  0  0  0  0  0  0  0  0  0  0  0
  -47.8107   60.4585   64.7461 C   0  0  0  0  0  0  0  0  0  0  0  0
  -48.7463   60.1027   65.9093 C   0  0  0  0  0  0  0  0  0  0  0  0
  -50.0836   59.4749   65.4757 C   0  0  0  0  0  0  0  0  0  0  0  0
  -50.9610   60.4413   64.6502 C   0  0  0  0  0  0  0  0  0  0  0  0
  -51.1773   59.8988   63.2346 C   0  0  0  0  0  0  0  0  0  0  0  0
  -50.7539   58.4497   63.0277 C   0  0  0  0  0  0  0  0  0  0  0  0
  -49.7004   58.3059   61.9393 C   0  0  0  0  0  0  0  0  0  0  0  0
  -49.5985   59.4660   60.9464 C   0  0  0  0  0  0  0  0  0  0  0  0
  -49.2005   58.8984   59.5907 C   0  0  0  0  0  0  0  0  0  0  0  0
  -48.9943   57.3964   59.4610 C   0  0  0  0  0  0  0  0  0  0  0  0
  -47.5442   57.0723   59.0682 C   0  0  0  0  0  0  0  0  0  0  0  0
  -47.2762   57.0809   57.5519 C   0  0  0  0  0  0  0  0  0  0  0  0
  -46.8166   58.4393   57.0276 C   0  0  0  0  0  0  0  0  0  0  0  0
  -42.9566   61.7125   62.3368 O   0  0  0  0  0  0  0  0  0  0  0  0
  -41.6177   61.2578   62.2712 C   0  0  0  0  0  0  0  0  0  0  0  0
  -42.9746   62.6148   62.6925 H   0  0  0  0  0  0  0  0  0  0  0  0
  -41.5185   59.8349   61.7163 C   0  0  0  0  0  0  0  0  0  0  0  0
  -41.2760   59.5695   60.4214 C   0  0  0  0  0  0  0  0  0  0  0  0
  -41.1926   58.1206   59.9448 C   0  0  0  0  0  0  0  0  0  0  0  0
  -39.9292   57.8058   59.1306 C   0  0  0  0  0  0  0  0  0  0  0  0
  -38.8768   58.9283   59.0723 C   0  0  0  0  0  0  0  0  0  0  0  0
  -37.5934   58.5179   59.8339 C   0  0  0  0  0  0  0  0  0  0  0  0
  -37.5929   58.8376   61.3503 C   0  0  0  0  0  0  0  0  0  0  0  0
  -37.7188   57.5929   62.2601 C   0  0  0  0  0  0  0  0  0  0  0  0
  -36.8958   57.6943   63.5626 C   0  0  0  0  0  0  0  0  0  0  0  0
  -35.3975   57.9233   63.3304 C   0  0  0  0  0  0  0  0  0  0  0  0
  -34.6781   58.7726   64.3763 C   0  0  0  0  0  0  0  0  0  0  0  0
  -33.1766   58.4538   64.5163 C   0  0  0  0  0  0  0  0  0  0  0  0
  -32.3488   58.6231   63.2333 C   0  0  0  0  0  0  0  0  0  0  0  0
  -31.9789   60.0918   63.0074 C   0  0  0  0  0  0  0  0  0  0  0  0
  -31.5914   60.4805   61.5917 C   0  0  0  0  0  0  0  0  0  0  0  0
  -39.7976   60.5608   64.0109 C   0  0  0  0  0  0  0  0  0  0  0  0
  -38.6633   60.9478   63.1943 O   0  0  0  0  0  0  0  0  0  0  0  0
  -37.0397   61.1036   65.5432 O   0  0  0  0  0  0  0  0  0  0  0  0
  -34.3466   62.9201   62.9265 O   0  0  0  0  0  0  0  0  0  0  0  0
  -37.3251   62.8111   62.4051 O   0  0  0  0  0  0  0  0  0  0  0  0
  -37.8073   62.0920   63.5661 C   0  0  0  0  0  0  0  0  0  0  0  0
  -36.5670   61.7623   64.4088 C   0  0  0  0  0  0  0  0  0  0  0  0
  -35.7778   63.0089   64.8653 C   0  0  0  0  0  0  0  0  0  0  0  0
  -35.3232   63.7015   63.6103 C   0  0  0  0  0  0  0  0  0  0  0  0
  -36.5173   63.9785   62.7150 C   0  0  0  0  0  0  0  0  0  0  0  0
  -37.5389   60.3163   65.2753 H   0  0  0  0  0  0  0  0  0  0  0  0
  -33.5939   62.7552   63.5158 H   0  0  0  0  0  0  0  0  0  0  0  0
  -35.5845   63.7121   60.5305 O   0  0  0  0  0  0  0  0  0  0  0  0
  -35.8480   64.6583   61.5226 C   0  0  0  0  0  0  0  0  0  0  0  0
  -35.1595   64.1463   59.7743 H   0  0  0  0  0  0  0  0  0  0  0  0
  -34.5835   62.7552   65.6394 O   0  0  0  0  0  0  0  0  0  0  0  0
  -35.0193   64.7084   67.2864 O   0  0  0  0  0  0  0  0  0  0  0  0
  -33.0093   64.7149   65.9265 O   0  0  0  0  0  0  0  0  0  0  0  0
  -33.1859   63.2300   67.8339 O   0  0  0  0  0  0  0  0  0  0  0  0
  -33.9382   63.8554   66.7095 S   0  0  0  0  0  0  0  0  0  0  0  0
  -35.5208   65.1246   66.5680 H   0  0  0  0  0  0  0  0  0  0  0  0
  -33.7844   62.6675   68.3500 H   0  0  0  0  0  0  0  0  0  0  0  0
  2  1  1  0  0  0
  2  4  1  0  0  0
  2  5  1  0  0  0
 41 42  1  0  0  0
 41  1  1  0  0  0
 42 46  1  0  0  0
  1 24  1  0  0  0
 23 24  1  0  0  0
 23 25  1  0  0  0
 24 26  1  0  0  0
  3  4  2  0  0  0
 26 27  2  0  0  0
 27 28  1  0  0  0
 43 47  1  0  0  0
 43 51  1  0  0  0
 28 29  1  0  0  0
 56 48  1  0  0  0
 56 60  1  0  0  0
 29 30  1  0  0  0
 57 60  1  0  0  0
 57 61  1  0  0  0
 30 31  1  0  0  0
 44 49  1  0  0  0
 44 52  1  0  0  0
 31 32  1  0  0  0
 45 46  1  0  0  0
 45 50  1  0  0  0
 32 33  1  0  0  0
 53 54  1  0  0  0
 53 55  1  0  0  0
 33 34  1  0  0  0
 34 35  1  0  0  0
 35 36  1  0  0  0
 58 60  1  0  0  0
 36 37  1  0  0  0
 59 60  1  0  0  0
 59 62  1  0  0  0
 37 38  1  0  0  0
 38 39  1  0  0  0
 39 40  1  0  0  0
  4  6  1  0  0  0
  6  7  1  0  0  0
  7  8  1  0  0  0
  8  9  1  0  0  0
  9 10  1  0  0  0
 10 11  1  0  0  0
 11 12  1  0  0  0
 12 13  1  0  0  0
 13 14  1  0  0  0
 14 15  1  0  0  0
 15 16  1  0  0  0
 16 17  1  0  0  0
 17 18  1  0  0  0
 18 19  1  0  0  0
 19 20  1  0  0  0
 20 21  1  0  0  0
 21 22  1  0  0  0
 46 47  1  0  0  0
 47 48  1  0  0  0
 48 49  1  0  0  0
 49 50  1  0  0  0
 50 54  1  0  0  0
M  CHG 1  58  -1
M  END
> <minimizedAffinity>
-9.64201

> <CNNscore>
0.1345232725

> <CNNaffinity>
6.7633080482

> <CNN_VS>
0.9098223448

> <CNNaffinity_variance>
1.1906011105

$$$$
/media/chris/experiments/cd1a-new-docking/inputs/ligands/1onq_ligand.pdb


 62 62  0  0  0  0  0  0  0  0999 V2000
  -41.3027   59.8026   64.3572 C   0  0  0  0  0  0  0  0  0  0  0  0
  -42.5903   60.4598   64.4634 N   0  0  0  0  0  0  0  0  0  0  0  0
  -42.7819   61.4591   62.4355 O   0  0  0  0  0  0  0  0  0  0  0  0
  -43.2150   61.2073   63.5432 C   0  0  0  0  0  0  0  0  0  0  0  0
  -43.0649   60.3424   65.3179 H   0  0  0  0  0  0  0  0  0  0  0  0
  -44.5522   61.7445   63.9588 C   0  0  0  0  0  0  0  0  0  0  0  0
  -45.1432   60.7278   64.9357 C   0  0  0  0  0  0  0  0  0  0  0  0
  -46.5163   60.2726   64.4474 C   0  0  0  0  0  0  0  0  0  0  0  0
  -46.9681   58.9100   64.9140 C   0  0  0  0  0  0  0  0  0  0  0  0
  -47.8588   59.1131   66.1351 C   0  0  0  0  0  0  0  0  0  0  0  0
  -48.9325   60.1870   65.9139 C   0  0  0  0  0  0  0  0  0  0  0  0
  -50.3660   59.6354   65.8075 C   0  0  0  0  0  0  0  0  0  0  0  0
  -51.0797   60.0650   64.5069 C   0  0  0  0  0  0  0  0  0  0  0  0
  -50.0593   60.4759   63.4416 C   0  0  0  0  0  0  0  0  0  0  0  0
  -50.1237   59.6778   62.1450 C   0  0  0  0  0  0  0  0  0  0  0  0
  -50.3261   58.1902   62.3924 C   0  0  0  0  0  0  0  0  0  0  0  0
  -50.1174   57.2744   61.1841 C   0  0  0  0  0  0  0  0  0  0  0  0
  -50.3600   58.0901   59.9214 C   0  0  0  0  0  0  0  0  0  0  0  0
  -49.2518   58.1720   58.8819 C   0  0  0  0  0  0  0  0  0  0  0  0
  -48.0163   57.3762   59.3316 C   0  0  0  0  0  0  0  0  0  0  0  0
  -46.9659   57.1502   58.2286 C   0  0  0  0  0  0  0  0  0  0  0  0
  -46.9738   58.2365   57.1556 C   0  0  0  0  0  0  0  0  0  0  0  0
  -40.9266   58.3944   66.1658 O   0  0  0  0  0  0  0  0  0  0  0  0
  -41.5900   58.4195   64.9157 C   0  0  0  0  0  0  0  0  0  0  0  0
  -41.3000   59.0780   66.7438 H   0  0  0  0  0  0  0  0  0  0  0  0
  -41.0465   57.3610   63.9530 C   0  0  0  0  0  0  0  0  0  0  0  0
  -41.8277   56.6787   63.0985 C   0  0  0  0  0  0  0  0  0  0  0  0
  -41.2088   55.6363   62.1691 C   0  0  0  0  0  0  0  0  0  0  0  0
  -41.1256   56.0827   60.7021 C   0  0  0  0  0  0  0  0  0  0  0  0
  -41.6573   57.4968   60.4044 C   0  0  0  0  0  0  0  0  0  0  0  0
  -40.8397   58.1638   59.2721 C   0  0  0  0  0  0  0  0  0  0  0  0
  -40.2918   59.5768   59.5956 C   0  0  0  0  0  0  0  0  0  0  0  0
  -38.7500   59.6501   59.6985 C   0  0  0  0  0  0  0  0  0  0  0  0
  -38.1177   58.4193   60.3836 C   0  0  0  0  0  0  0  0  0  0  0  0
  -38.2070   58.4504   61.9141 C   0  0  0  0  0  0  0  0  0  0  0  0
  -37.4090   57.3795   62.6551 C   0  0  0  0  0  0  0  0  0  0  0  0
  -36.8491   57.8443   64.0138 C   0  0  0  0  0  0  0  0  0  0  0  0
  -35.5119   58.5976   63.9479 C   0  0  0  0  0  0  0  0  0  0  0  0
  -34.5726   57.9616   62.9193 C   0  0  0  0  0  0  0  0  0  0  0  0
  -33.1030   58.3268   63.0302 C   0  0  0  0  0  0  0  0  0  0  0  0
  -40.1101   60.5717   64.9696 C   0  0  0  0  0  0  0  0  0  0  0  0
  -39.3254   61.3829   64.0588 O   0  0  0  0  0  0  0  0  0  0  0  0
  -37.3451   61.7451   62.0280 O   0  0  0  0  0  0  0  0  0  0  0  0
  -35.9226   64.6458   64.6665 O   0  0  0  0  0  0  0  0  0  0  0  0
  -37.6638   62.3339   65.5488 O   0  0  0  0  0  0  0  0  0  0  0  0
  -37.8909   61.6353   64.3006 C   0  0  0  0  0  0  0  0  0  0  0  0
  -37.1553   62.4417   63.2208 C   0  0  0  0  0  0  0  0  0  0  0  0
  -35.6367   62.5716   63.4703 C   0  0  0  0  0  0  0  0  0  0  0  0
  -35.4861   63.2936   64.7808 C   0  0  0  0  0  0  0  0  0  0  0  0
  -36.2636   62.5643   65.8615 C   0  0  0  0  0  0  0  0  0  0  0  0
  -38.2951   61.6538   61.8547 H   0  0  0  0  0  0  0  0  0  0  0  0
  -35.4136   65.0923   63.9717 H   0  0  0  0  0  0  0  0  0  0  0  0
  -36.2001   62.7153   68.2461 O   0  0  0  0  0  0  0  0  0  0  0  0
  -35.9914   63.4483   67.0765 C   0  0  0  0  0  0  0  0  0  0  0  0
  -36.0266   63.2790   69.0163 H   0  0  0  0  0  0  0  0  0  0  0  0
  -34.8980   63.3455   62.4980 O   0  0  0  0  0  0  0  0  0  0  0  0
  -32.8851   63.6859   60.9011 O   0  0  0  0  0  0  0  0  0  0  0  0
  -32.9612   61.7264   62.3309 O   0  0  0  0  0  0  0  0  0  0  0  0
  -32.4283   63.8980   63.2660 O   0  0  0  0  0  0  0  0  0  0  0  0
  -33.2588   63.1826   62.2561 S   0  0  0  0  0  0  0  0  0  0  0  0
  -33.4165   63.2307   60.2293 H   0  0  0  0  0  0  0  0  0  0  0  0
  -32.6162   64.8487   63.2242 H   0  0  0  0  0  0  0  0  0  0  0  0
  2  1  1  0  0  0
  2  4  1  0  0  0
  2  5  1  0  0  0
 41 42  1  0  0  0
 41  1  1  0  0  0
 42 46  1  0  0  0
  1 24  1  0  0  0
 23 24  1  0  0  0
 23 25  1  0  0  0
 24 26  1  0  0  0
  3  4  2  0  0  0
 26 27  2  0  0  0
 27 28  1  0  0  0
 43 47  1  0  0  0
 43 51  1  0  0  0
 28 29  1  0  0  0
 56 48  1  0  0  0
 56 60  1  0  0  0
 29 30  1  0  0  0
 57 60  1  0  0  0
 57 61  1  0  0  0
 30 31  1  0  0  0
 44 49  1  0  0  0
 44 52  1  0  0  0
 31 32  1  0  0  0
 45 46  1  0  0  0
 45 50  1  0  0  0
 32 33  1  0  0  0
 53 54  1  0  0  0
 53 55  1  0  0  0
 33 34  1  0  0  0
 34 35  1  0  0  0
 35 36  1  0  0  0
 58 60  1  0  0  0
 36 37  1  0  0  0
 59 60  1  0  0  0
 59 62  1  0  0  0
 37 38  1  0  0  0
 38 39  1  0  0  0
 39 40  1  0  0  0
  4  6  1  0  0  0
  6  7  1  0  0  0
  7  8  1  0  0  0
  8  9  1  0  0  0
  9 10  1  0  0  0
 10 11  1  0  0  0
 11 12  1  0  0  0
 12 13  1  0  0  0
 13 14  1  0  0  0
 14 15  1  0  0  0
 15 16  1  0  0  0
 16 17  1  0  0  0
 17 18  1  0  0  0
 18 19  1  0  0  0
 19 20  1  0  0  0
 20 21  1  0  0  0
 21 22  1  0  0  0
 46 47  1  0  0  0
 47 48  1  0  0  0
 48 49  1  0  0  0
 49 50  1  0  0  0
 50 54  1  0  0  0
M  CHG 1  58  -1
M  END
> <minimizedAffinity>
-9.64903

> <CNNscore>
0.1344547421

> <CNNaffinity>
7.0797090530

> <CNN_VS>
0.9519004822

> <CNNaffinity_variance>
1.6994705200

$$$$
/media/chris/experiments/cd1a-new-docking/inputs/ligands/1onq_ligand.pdb


 62 62  0  0  0  0  0  0  0  0999 V2000
  -41.6810   60.5832   64.5795 C   0  0  0  0  0  0  0  0  0  0  0  0
  -42.4512   59.3559   64.6204 N   0  0  0  0  0  0  0  0  0  0  0  0
  -41.9058   58.5209   66.6582 O   0  0  0  0  0  0  0  0  0  0  0  0
  -42.5110   58.4504   65.6063 C   0  0  0  0  0  0  0  0  0  0  0  0
  -42.9984   59.1638   63.8248 H   0  0  0  0  0  0  0  0  0  0  0  0
  -43.4150   57.2823   65.3452 C   0  0  0  0  0  0  0  0  0  0  0  0
  -44.6556   57.4918   66.2137 C   0  0  0  0  0  0  0  0  0  0  0  0
  -45.7715   58.1237   65.3852 C   0  0  0  0  0  0  0  0  0  0  0  0
  -46.0520   59.5825   65.6532 C   0  0  0  0  0  0  0  0  0  0  0  0
  -47.0250   60.0686   64.5842 C   0  0  0  0  0  0  0  0  0  0  0  0
  -48.2910   60.7008   65.1780 C   0  0  0  0  0  0  0  0  0  0  0  0
  -49.1046   59.7569   66.0822 C   0  0  0  0  0  0  0  0  0  0  0  0
  -50.4316   59.3022   65.4360 C   0  0  0  0  0  0  0  0  0  0  0  0
  -50.9142   60.3328   64.4113 C   0  0  0  0  0  0  0  0  0  0  0  0
  -51.1759   59.7807   63.0153 C   0  0  0  0  0  0  0  0  0  0  0  0
  -50.4757   58.4505   62.7801 C   0  0  0  0  0  0  0  0  0  0  0  0
  -49.1911   58.5058   61.9501 C   0  0  0  0  0  0  0  0  0  0  0  0
  -49.5413   59.0357   60.5662 C   0  0  0  0  0  0  0  0  0  0  0  0
  -48.5763   58.7735   59.4193 C   0  0  0  0  0  0  0  0  0  0  0  0
  -49.1276   57.6960   58.4722 C   0  0  0  0  0  0  0  0  0  0  0  0
  -48.1940   57.3361   57.3018 C   0  0  0  0  0  0  0  0  0  0  0  0
  -47.0230   58.3031   57.1440 C   0  0  0  0  0  0  0  0  0  0  0  0
  -43.6874   61.1542   63.5576 O   0  0  0  0  0  0  0  0  0  0  0  0
  -42.2904   61.3171   63.3973 C   0  0  0  0  0  0  0  0  0  0  0  0
  -43.9670   61.5631   64.3916 H   0  0  0  0  0  0  0  0  0  0  0  0
  -41.7825   60.6920   62.0959 C   0  0  0  0  0  0  0  0  0  0  0  0
  -41.5711   61.4037   60.9757 C   0  0  0  0  0  0  0  0  0  0  0  0
  -41.0635   60.7054   59.7156 C   0  0  0  0  0  0  0  0  0  0  0  0
  -39.6410   60.1421   59.8471 C   0  0  0  0  0  0  0  0  0  0  0  0
  -39.4382   58.7124   59.3124 C   0  0  0  0  0  0  0  0  0  0  0  0
  -40.7998   58.0111   59.0895 C   0  0  0  0  0  0  0  0  0  0  0  0
  -41.0645   56.7781   59.9903 C   0  0  0  0  0  0  0  0  0  0  0  0
  -41.6051   57.1259   61.3972 C   0  0  0  0  0  0  0  0  0  0  0  0
  -40.7023   56.6273   62.5463 C   0  0  0  0  0  0  0  0  0  0  0  0
  -39.5770   57.6015   62.9150 C   0  0  0  0  0  0  0  0  0  0  0  0
  -38.2047   57.2995   62.3167 C   0  0  0  0  0  0  0  0  0  0  0  0
  -37.1081   58.3014   62.7284 C   0  0  0  0  0  0  0  0  0  0  0  0
  -36.5895   58.1502   64.1665 C   0  0  0  0  0  0  0  0  0  0  0  0
  -35.0650   58.0076   64.1891 C   0  0  0  0  0  0  0  0  0  0  0  0
  -34.3840   57.8238   62.8445 C   0  0  0  0  0  0  0  0  0  0  0  0
  -40.1456   60.4059   64.5783 C   0  0  0  0  0  0  0  0  0  0  0  0
  -39.3642   61.5250   64.0879 O   0  0  0  0  0  0  0  0  0  0  0  0
  -37.3494   61.7830   62.0753 O   0  0  0  0  0  0  0  0  0  0  0  0
  -35.6421   64.3795   64.8578 O   0  0  0  0  0  0  0  0  0  0  0  0
  -37.6182   62.2194   65.6223 O   0  0  0  0  0  0  0  0  0  0  0  0
  -37.9121   61.6136   64.3401 C   0  0  0  0  0  0  0  0  0  0  0  0
  -37.0924   62.3935   63.3022 C   0  0  0  0  0  0  0  0  0  0  0  0
  -35.5695   62.3513   63.5556 C   0  0  0  0  0  0  0  0  0  0  0  0
  -35.3494   62.9851   64.9013 C   0  0  0  0  0  0  0  0  0  0  0  0
  -36.2027   62.2860   65.9442 C   0  0  0  0  0  0  0  0  0  0  0  0
  -38.3030   61.8003   61.8990 H   0  0  0  0  0  0  0  0  0  0  0  0
  -35.0868   64.8057   64.1862 H   0  0  0  0  0  0  0  0  0  0  0  0
  -34.4562   63.1425   67.3333 O   0  0  0  0  0  0  0  0  0  0  0  0
  -35.8444   63.0731   67.2028 C   0  0  0  0  0  0  0  0  0  0  0  0
  -34.2312   63.6428   68.1333 H   0  0  0  0  0  0  0  0  0  0  0  0
  -34.7505   63.0931   62.6233 O   0  0  0  0  0  0  0  0  0  0  0  0
  -32.7308   63.1491   61.0001 O   0  0  0  0  0  0  0  0  0  0  0  0
  -32.9331   61.3333   62.5974 O   0  0  0  0  0  0  0  0  0  0  0  0
  -32.2426   63.5358   63.3364 O   0  0  0  0  0  0  0  0  0  0  0  0
  -33.1287   62.7945   62.3947 S   0  0  0  0  0  0  0  0  0  0  0  0
  -33.2977   62.6751   60.3718 H   0  0  0  0  0  0  0  0  0  0  0  0
  -32.3637   64.4900   63.2110 H   0  0  0  0  0  0  0  0  0  0  0  0
  2  1  1  0  0  0
  2  4  1  0  0  0
  2  5  1  0  0  0
 41 42  1  0  0  0
 41  1  1  0  0  0
 42 46  1  0  0  0
  1 24  1  0  0  0
 23 24  1  0  0  0
 23 25  1  0  0  0
 24 26  1  0  0  0
  3  4  2  0  0  0
 26 27  2  0  0  0
 27 28  1  0  0  0
 43 47  1  0  0  0
 43 51  1  0  0  0
 28 29  1  0  0  0
 56 48  1  0  0  0
 56 60  1  0  0  0
 29 30  1  0  0  0
 57 60  1  0  0  0
 57 61  1  0  0  0
 30 31  1  0  0  0
 44 49  1  0  0  0
 44 52  1  0  0  0
 31 32  1  0  0  0
 45 46  1  0  0  0
 45 50  1  0  0  0
 32 33  1  0  0  0
 53 54  1  0  0  0
 53 55  1  0  0  0
 33 34  1  0  0  0
 34 35  1  0  0  0
 35 36  1  0  0  0
 58 60  1  0  0  0
 36 37  1  0  0  0
 59 60  1  0  0  0
 59 62  1  0  0  0
 37 38  1  0  0  0
 38 39  1  0  0  0
 39 40  1  0  0  0
  4  6  1  0  0  0
  6  7  1  0  0  0
  7  8  1  0  0  0
  8  9  1  0  0  0
  9 10  1  0  0  0
 10 11  1  0  0  0
 11 12  1  0  0  0
 12 13  1  0  0  0
 13 14  1  0  0  0
 14 15  1  0  0  0
 15 16  1  0  0  0
 16 17  1  0  0  0
 17 18  1  0  0  0
 18 19  1  0  0  0
 19 20  1  0  0  0
 20 21  1  0  0  0
 21 22  1  0  0  0
 46 47  1  0  0  0
 47 48  1  0  0  0
 48 49  1  0  0  0
 49 50  1  0  0  0
 50 54  1  0  0  0
M  CHG 1  58  -1
M  END
> <minimizedAffinity>
-9.57080

> <CNNscore>
0.1227437556

> <CNNaffinity>
7.0780625343

> <CNN_VS>
0.8687880039

> <CNNaffinity_variance>
1.8122806549

$$$$
/media/chris/experiments/cd1a-new-docking/inputs/ligands/1onq_ligand.pdb


 62 62  0  0  0  0  0  0  0  0999 V2000
  -41.7790   61.2642   63.6695 C   0  0  0  0  0  0  0  0  0  0  0  0
  -42.6073   60.0985   63.9066 N   0  0  0  0  0  0  0  0  0  0  0  0
  -44.5117   61.0265   64.7186 O   0  0  0  0  0  0  0  0  0  0  0  0
  -43.8560   60.0567   64.3909 C   0  0  0  0  0  0  0  0  0  0  0  0
  -42.2020   59.2293   63.6840 H   0  0  0  0  0  0  0  0  0  0  0  0
  -44.4478   58.6837   64.5109 C   0  0  0  0  0  0  0  0  0  0  0  0
  -44.4502   58.3416   66.0009 C   0  0  0  0  0  0  0  0  0  0  0  0
  -45.7388   57.6083   66.3655 C   0  0  0  0  0  0  0  0  0  0  0  0
  -47.0140   58.1886   65.8037 C   0  0  0  0  0  0  0  0  0  0  0  0
  -47.3407   59.4447   66.6046 C   0  0  0  0  0  0  0  0  0  0  0  0
  -48.5546   60.2025   66.0502 C   0  0  0  0  0  0  0  0  0  0  0  0
  -49.4902   59.3458   65.1778 C   0  0  0  0  0  0  0  0  0  0  0  0
  -50.8585   60.0168   64.9267 C   0  0  0  0  0  0  0  0  0  0  0  0
  -51.1772   60.0495   63.4293 C   0  0  0  0  0  0  0  0  0  0  0  0
  -50.2887   59.1667   62.5613 C   0  0  0  0  0  0  0  0  0  0  0  0
  -49.6345   59.9429   61.4279 C   0  0  0  0  0  0  0  0  0  0  0  0
  -49.6402   59.2620   60.0574 C   0  0  0  0  0  0  0  0  0  0  0  0
  -49.1491   57.8316   60.2347 C   0  0  0  0  0  0  0  0  0  0  0  0
  -47.8851   57.3990   59.5066 C   0  0  0  0  0  0  0  0  0  0  0  0
  -47.6437   58.2665   58.2611 C   0  0  0  0  0  0  0  0  0  0  0  0
  -47.6612   57.4922   56.9302 C   0  0  0  0  0  0  0  0  0  0  0  0
  -47.6376   55.9765   57.1132 C   0  0  0  0  0  0  0  0  0  0  0  0
  -43.2060   62.0608   62.0188 O   0  0  0  0  0  0  0  0  0  0  0  0
  -41.9262   61.4759   62.1725 C   0  0  0  0  0  0  0  0  0  0  0  0
  -43.2312   62.9107   62.4857 H   0  0  0  0  0  0  0  0  0  0  0  0
  -41.8188   60.1272   61.4568 C   0  0  0  0  0  0  0  0  0  0  0  0
  -41.1155   59.9532   60.3249 C   0  0  0  0  0  0  0  0  0  0  0  0
  -41.0578   58.5745   59.6699 C   0  0  0  0  0  0  0  0  0  0  0  0
  -39.6989   58.2440   59.0357 C   0  0  0  0  0  0  0  0  0  0  0  0
  -38.4714   58.8637   59.7288 C   0  0  0  0  0  0  0  0  0  0  0  0
  -38.0698   58.0388   60.9753 C   0  0  0  0  0  0  0  0  0  0  0  0
  -37.0287   58.7105   61.9060 C   0  0  0  0  0  0  0  0  0  0  0  0
  -36.2807   57.7253   62.8349 C   0  0  0  0  0  0  0  0  0  0  0  0
  -36.1945   58.2031   64.3006 C   0  0  0  0  0  0  0  0  0  0  0  0
  -37.5597   58.4831   64.9403 C   0  0  0  0  0  0  0  0  0  0  0  0
  -38.6256   57.4067   64.7461 C   0  0  0  0  0  0  0  0  0  0  0  0
  -39.9682   57.9444   64.2131 C   0  0  0  0  0  0  0  0  0  0  0  0
  -41.1407   56.9535   64.2732 C   0  0  0  0  0  0  0  0  0  0  0  0
  -41.7087   56.6884   62.8761 C   0  0  0  0  0  0  0  0  0  0  0  0
  -41.0528   55.5734   62.0810 C   0  0  0  0  0  0  0  0  0  0  0  0
  -40.3400   61.1829   64.2276 C   0  0  0  0  0  0  0  0  0  0  0  0
  -39.2786   61.6433   63.3530 O   0  0  0  0  0  0  0  0  0  0  0  0
  -37.0346   62.3896   61.7453 O   0  0  0  0  0  0  0  0  0  0  0  0
  -35.8863   64.4064   65.2113 O   0  0  0  0  0  0  0  0  0  0  0  0
  -37.8016   62.0640   65.2310 O   0  0  0  0  0  0  0  0  0  0  0  0
  -37.8819   61.7297   63.8241 C   0  0  0  0  0  0  0  0  0  0  0  0
  -36.9838   62.7387   63.0943 C   0  0  0  0  0  0  0  0  0  0  0  0
  -35.5087   62.6996   63.5503 C   0  0  0  0  0  0  0  0  0  0  0  0
  -35.5118   63.0453   65.0137 C   0  0  0  0  0  0  0  0  0  0  0  0
  -36.4490   62.1130   65.7599 C   0  0  0  0  0  0  0  0  0  0  0  0
  -37.9553   62.4088   61.4409 H   0  0  0  0  0  0  0  0  0  0  0  0
  -35.2754   64.9835   64.7267 H   0  0  0  0  0  0  0  0  0  0  0  0
  -34.9889   62.9994   67.4319 O   0  0  0  0  0  0  0  0  0  0  0  0
  -36.3137   62.6316   67.1898 C   0  0  0  0  0  0  0  0  0  0  0  0
  -34.9056   63.3285   68.3407 H   0  0  0  0  0  0  0  0  0  0  0  0
  -34.6230   63.6492   62.9149 O   0  0  0  0  0  0  0  0  0  0  0  0
  -32.8538   63.8936   61.0367 O   0  0  0  0  0  0  0  0  0  0  0  0
  -33.0863   61.7732   62.1939 O   0  0  0  0  0  0  0  0  0  0  0  0
  -32.0046   63.6464   63.2870 O   0  0  0  0  0  0  0  0  0  0  0  0
  -33.1040   63.2518   62.3613 S   0  0  0  0  0  0  0  0  0  0  0  0
  -33.5607   63.6477   60.4197 H   0  0  0  0  0  0  0  0  0  0  0  0
  -32.0088   64.6096   63.4019 H   0  0  0  0  0  0  0  0  0  0  0  0
  2  1  1  0  0  0
  2  4  1  0  0  0
  2  5  1  0  0  0
 41 42  1  0  0  0
 41  1  1  0  0  0
 42 46  1  0  0  0
  1 24  1  0  0  0
 23 24  1  0  0  0
 23 25  1  0  0  0
 24 26  1  0  0  0
  3  4  2  0  0  0
 26 27  2  0  0  0
 27 28  1  0  0  0
 43 47  1  0  0  0
 43 51  1  0  0  0
 28 29  1  0  0  0
 56 48  1  0  0  0
 56 60  1  0  0  0
 29 30  1  0  0  0
 57 60  1  0  0  0
 57 61  1  0  0  0
 30 31  1  0  0  0
 44 49  1  0  0  0
 44 52  1  0  0  0
 31 32  1  0  0  0
 45 46  1  0  0  0
 45 50  1  0  0  0
 32 33  1  0  0  0
 53 54  1  0  0  0
 53 55  1  0  0  0
 33 34  1  0  0  0
 34 35  1  0  0  0
 35 36  1  0  0  0
 58 60  1  0  0  0
 36 37  1  0  0  0
 59 60  1  0  0  0
 59 62  1  0  0  0
 37 38  1  0  0  0
 38 39  1  0  0  0
 39 40  1  0  0  0
  4  6  1  0  0  0
  6  7  1  0  0  0
  7  8  1  0  0  0
  8  9  1  0  0  0
  9 10  1  0  0  0
 10 11  1  0  0  0
 11 12  1  0  0  0
 12 13  1  0  0  0
 13 14  1  0  0  0
 14 15  1  0  0  0
 15 16  1  0  0  0
 16 17  1  0  0  0
 17 18  1  0  0  0
 18 19  1  0  0  0
 19 20  1  0  0  0
 20 21  1  0  0  0
 21 22  1  0  0  0
 46 47  1  0  0  0
 47 48  1  0  0  0
 48 49  1  0  0  0
 49 50  1  0  0  0
 50 54  1  0  0  0
M  CHG 1  58  -1
M  END
> <minimizedAffinity>
-9.06653

> <CNNscore>
0.1106032506

> <CNNaffinity>
7.2541542053

> <CNN_VS>
0.8023330569

> <CNNaffinity_variance>
1.0033917427

$$$$
/media/chris/experiments/cd1a-new-docking/inputs/ligands/1onq_ligand.pdb


 62 62  0  0  0  0  0  0  0  0999 V2000
  -45.5635   58.8750   65.5579 C   0  0  0  0  0  0  0  0  0  0  0  0
  -44.5665   59.8686   65.2117 N   0  0  0  0  0  0  0  0  0  0  0  0
  -45.7688   61.3324   63.9630 O   0  0  0  0  0  0  0  0  0  0  0  0
  -44.7251   60.9764   64.4745 C   0  0  0  0  0  0  0  0  0  0  0  0
  -43.6601   59.7099   65.5617 H   0  0  0  0  0  0  0  0  0  0  0  0
  -43.4906   61.8110   64.3041 C   0  0  0  0  0  0  0  0  0  0  0  0
  -43.2178   61.8796   62.8015 C   0  0  0  0  0  0  0  0  0  0  0  0
  -41.8088   61.3726   62.5035 C   0  0  0  0  0  0  0  0  0  0  0  0
  -41.5987   60.7605   61.1398 C   0  0  0  0  0  0  0  0  0  0  0  0
  -40.0954   60.6917   60.8923 C   0  0  0  0  0  0  0  0  0  0  0  0
  -39.6987   59.5310   59.9701 C   0  0  0  0  0  0  0  0  0  0  0  0
  -38.1934   59.2072   59.9731 C   0  0  0  0  0  0  0  0  0  0  0  0
  -37.8168   58.1124   60.9953 C   0  0  0  0  0  0  0  0  0  0  0  0
  -37.0581   58.7176   62.1798 C   0  0  0  0  0  0  0  0  0  0  0  0
  -35.7895   57.9746   62.5806 C   0  0  0  0  0  0  0  0  0  0  0  0
  -35.5216   58.0548   64.0763 C   0  0  0  0  0  0  0  0  0  0  0  0
  -34.0680   58.3029   64.4854 C   0  0  0  0  0  0  0  0  0  0  0  0
  -33.9580   59.7282   65.0099 C   0  0  0  0  0  0  0  0  0  0  0  0
  -33.8756   60.8699   64.0073 C   0  0  0  0  0  0  0  0  0  0  0  0
  -34.7992   62.0284   64.4162 C   0  0  0  0  0  0  0  0  0  0  0  0
  -34.9221   62.2412   65.9363 C   0  0  0  0  0  0  0  0  0  0  0  0
  -33.8096   63.1115   66.5161 C   0  0  0  0  0  0  0  0  0  0  0  0
  -46.4222   59.4210   67.6460 O   0  0  0  0  0  0  0  0  0  0  0  0
  -46.6195   59.7006   66.2725 C   0  0  0  0  0  0  0  0  0  0  0  0
  -45.5331   59.7058   67.9094 H   0  0  0  0  0  0  0  0  0  0  0  0
  -48.0082   59.2741   65.7908 C   0  0  0  0  0  0  0  0  0  0  0  0
  -49.1304   59.9411   66.1099 C   0  0  0  0  0  0  0  0  0  0  0  0
  -50.4804   59.4507   65.5899 C   0  0  0  0  0  0  0  0  0  0  0  0
  -51.0879   60.3441   64.4986 C   0  0  0  0  0  0  0  0  0  0  0  0
  -51.0552   59.7682   63.0709 C   0  0  0  0  0  0  0  0  0  0  0  0
  -49.6976   60.0657   62.3897 C   0  0  0  0  0  0  0  0  0  0  0  0
  -49.7821   60.4805   60.8990 C   0  0  0  0  0  0  0  0  0  0  0  0
  -49.2537   59.4119   59.9132 C   0  0  0  0  0  0  0  0  0  0  0  0
  -50.1791   58.1831   59.7802 C   0  0  0  0  0  0  0  0  0  0  0  0
  -49.7564   56.9942   60.6514 C   0  0  0  0  0  0  0  0  0  0  0  0
  -48.8794   55.9435   59.9736 C   0  0  0  0  0  0  0  0  0  0  0  0
  -47.5764   56.5079   59.3741 C   0  0  0  0  0  0  0  0  0  0  0  0
  -47.3529   56.1997   57.8858 C   0  0  0  0  0  0  0  0  0  0  0  0
  -47.7829   57.3794   57.0093 C   0  0  0  0  0  0  0  0  0  0  0  0
  -46.8578   58.5833   56.9963 C   0  0  0  0  0  0  0  0  0  0  0  0
  -45.0306   57.6270   66.2978 C   0  0  0  0  0  0  0  0  0  0  0  0
  -43.9867   56.8738   65.6297 O   0  0  0  0  0  0  0  0  0  0  0  0
  -42.0032   58.7588   66.4602 O   0  0  0  0  0  0  0  0  0  0  0  0
  -39.6555   56.7238   63.6769 O   0  0  0  0  0  0  0  0  0  0  0  0
  -42.6801   56.7200   63.5914 O   0  0  0  0  0  0  0  0  0  0  0  0
  -43.0142   57.5379   64.7390 C   0  0  0  0  0  0  0  0  0  0  0  0
  -41.6779   57.9411   65.3787 C   0  0  0  0  0  0  0  0  0  0  0  0
  -40.7513   58.7349   64.4318 C   0  0  0  0  0  0  0  0  0  0  0  0
  -40.4610   57.8268   63.2688 C   0  0  0  0  0  0  0  0  0  0  0  0
  -41.7633   57.3468   62.6542 C   0  0  0  0  0  0  0  0  0  0  0  0
  -42.5859   58.2758   67.0668 H   0  0  0  0  0  0  0  0  0  0  0  0
  -38.8300   57.0527   64.0661 H   0  0  0  0  0  0  0  0  0  0  0  0
  -41.2904   55.1176   61.9331 O   0  0  0  0  0  0  0  0  0  0  0  0
  -41.2523   56.4527   61.5268 C   0  0  0  0  0  0  0  0  0  0  0  0
  -40.9654   54.5517   61.2153 H   0  0  0  0  0  0  0  0  0  0  0  0
  -39.4667   59.1165   64.9741 O   0  0  0  0  0  0  0  0  0  0  0  0
  -38.0183   60.6529   66.4772 O   0  0  0  0  0  0  0  0  0  0  0  0
  -40.3383   61.2293   66.0589 O   0  0  0  0  0  0  0  0  0  0  0  0
  -38.6705   61.5550   64.3308 O   0  0  0  0  0  0  0  0  0  0  0  0
  -39.1013   60.6696   65.4496 S   0  0  0  0  0  0  0  0  0  0  0  0
  -38.2814   60.0804   67.2147 H   0  0  0  0  0  0  0  0  0  0  0  0
  -37.8640   61.1973   63.9275 H   0  0  0  0  0  0  0  0  0  0  0  0
  2  1  1  0  0  0
  2  4  1  0  0  0
  2  5  1  0  0  0
 41 42  1  0  0  0
 41  1  1  0  0  0
 42 46  1  0  0  0
  1 24  1  0  0  0
 23 24  1  0  0  0
 23 25  1  0  0  0
 24 26  1  0  0  0
  3  4  2  0  0  0
 26 27  2  0  0  0
 27 28  1  0  0  0
 43 47  1  0  0  0
 43 51  1  0  0  0
 28 29  1  0  0  0
 56 48  1  0  0  0
 56 60  1  0  0  0
 29 30  1  0  0  0
 57 60  1  0  0  0
 57 61  1  0  0  0
 30 31  1  0  0  0
 44 49  1  0  0  0
 44 52  1  0  0  0
 31 32  1  0  0  0
 45 46  1  0  0  0
 45 50  1  0  0  0
 32 33  1  0  0  0
 53 54  1  0  0  0
 53 55  1  0  0  0
 33 34  1  0  0  0
 34 35  1  0  0  0
 35 36  1  0  0  0
 58 60  1  0  0  0
 36 37  1  0  0  0
 59 60  1  0  0  0
 59 62  1  0  0  0
 37 38  1  0  0  0
 38 39  1  0  0  0
 39 40  1  0  0  0
  4  6  1  0  0  0
  6  7  1  0  0  0
  7  8  1  0  0  0
  8  9  1  0  0  0
  9 10  1  0  0  0
 10 11  1  0  0  0
 11 12  1  0  0  0
 12 13  1  0  0  0
 13 14  1  0  0  0
 14 15  1  0  0  0
 15 16  1  0  0  0
 16 17  1  0  0  0
 17 18  1  0  0  0
 18 19  1  0  0  0
 19 20  1  0  0  0
 20 21  1  0  0  0
 21 22  1  0  0  0
 46 47  1  0  0  0
 47 48  1  0  0  0
 48 49  1  0  0  0
 49 50  1  0  0  0
 50 54  1  0  0  0
M  CHG 1  58  -1
M  END
> <minimizedAffinity>
-9.32994

> <CNNscore>
0.1081648245

> <CNNaffinity>
6.9328613281

> <CNN_VS>
0.7498917580

> <CNNaffinity_variance>
2.6130089760

$$$$
/media/chris/experiments/cd1a-new-docking/inputs/ligands/1onq_ligand.pdb


 62 62  0  0  0  0  0  0  0  0999 V2000
  -41.2837   61.5702   63.3659 C   0  0  0  0  0  0  0  0  0  0  0  0
  -42.4245   61.0003   64.0550 N   0  0  0  0  0  0  0  0  0  0  0  0
  -42.4011   62.1269   66.0242 O   0  0  0  0  0  0  0  0  0  0  0  0
  -42.8861   61.2999   65.2768 C   0  0  0  0  0  0  0  0  0  0  0  0
  -42.9222   60.3069   63.5643 H   0  0  0  0  0  0  0  0  0  0  0  0
  -44.1018   60.5328   65.7050 C   0  0  0  0  0  0  0  0  0  0  0  0
  -45.2246   60.9298   64.7464 C   0  0  0  0  0  0  0  0  0  0  0  0
  -45.8105   59.6845   64.0852 C   0  0  0  0  0  0  0  0  0  0  0  0
  -47.2927   59.4693   64.2722 C   0  0  0  0  0  0  0  0  0  0  0  0
  -47.7754   60.4696   65.3174 C   0  0  0  0  0  0  0  0  0  0  0  0
  -48.8664   59.8937   66.2301 C   0  0  0  0  0  0  0  0  0  0  0  0
  -50.1999   59.6047   65.5168 C   0  0  0  0  0  0  0  0  0  0  0  0
  -50.5568   60.6695   64.4566 C   0  0  0  0  0  0  0  0  0  0  0  0
  -51.1713   60.0128   63.2173 C   0  0  0  0  0  0  0  0  0  0  0  0
  -50.8646   58.5290   63.0546 C   0  0  0  0  0  0  0  0  0  0  0  0
  -49.8325   58.2687   61.9673 C   0  0  0  0  0  0  0  0  0  0  0  0
  -50.3059   57.4266   60.7803 C   0  0  0  0  0  0  0  0  0  0  0  0
  -49.1607   56.5175   60.3552 C   0  0  0  0  0  0  0  0  0  0  0  0
  -47.9647   57.1345   59.6453 C   0  0  0  0  0  0  0  0  0  0  0  0
  -48.4171   58.1782   58.6118 C   0  0  0  0  0  0  0  0  0  0  0  0
  -47.9578   57.8906   57.1705 C   0  0  0  0  0  0  0  0  0  0  0  0
  -46.4517   58.0469   56.9741 C   0  0  0  0  0  0  0  0  0  0  0  0
  -43.1320   61.9825   62.0206 O   0  0  0  0  0  0  0  0  0  0  0  0
  -41.7638   61.6320   61.9260 C   0  0  0  0  0  0  0  0  0  0  0  0
  -43.2146   62.8517   62.4435 H   0  0  0  0  0  0  0  0  0  0  0  0
  -41.5628   60.2660   61.2656 C   0  0  0  0  0  0  0  0  0  0  0  0
  -41.0994   60.1199   60.0126 C   0  0  0  0  0  0  0  0  0  0  0  0
  -40.9274   58.7210   59.4237 C   0  0  0  0  0  0  0  0  0  0  0  0
  -39.4829   58.3888   59.0223 C   0  0  0  0  0  0  0  0  0  0  0  0
  -38.3861   58.9966   59.9160 C   0  0  0  0  0  0  0  0  0  0  0  0
  -37.9209   57.9778   60.9841 C   0  0  0  0  0  0  0  0  0  0  0  0
  -38.9559   57.6632   62.0938 C   0  0  0  0  0  0  0  0  0  0  0  0
  -39.7171   56.3319   61.8910 C   0  0  0  0  0  0  0  0  0  0  0  0
  -41.2051   56.4032   62.2970 C   0  0  0  0  0  0  0  0  0  0  0  0
  -41.4285   56.8319   63.7521 C   0  0  0  0  0  0  0  0  0  0  0  0
  -42.7519   57.5338   64.0496 C   0  0  0  0  0  0  0  0  0  0  0  0
  -43.6586   56.7690   65.0339 C   0  0  0  0  0  0  0  0  0  0  0  0
  -44.0029   57.5224   66.3277 C   0  0  0  0  0  0  0  0  0  0  0  0
  -45.5079   57.4772   66.6064 C   0  0  0  0  0  0  0  0  0  0  0  0
  -45.9410   57.7891   68.0279 C   0  0  0  0  0  0  0  0  0  0  0  0
  -39.9312   60.8681   63.6241 C   0  0  0  0  0  0  0  0  0  0  0  0
  -38.7429   61.6935   63.5237 O   0  0  0  0  0  0  0  0  0  0  0  0
  -36.4441   60.1476   62.8146 O   0  0  0  0  0  0  0  0  0  0  0  0
  -34.4260   63.1813   64.8453 O   0  0  0  0  0  0  0  0  0  0  0  0
  -37.3484   62.5521   65.3135 O   0  0  0  0  0  0  0  0  0  0  0  0
  -37.5717   61.4579   64.3914 C   0  0  0  0  0  0  0  0  0  0  0  0
  -36.2345   61.2258   63.6735 C   0  0  0  0  0  0  0  0  0  0  0  0
  -35.0727   60.8685   64.6262 C   0  0  0  0  0  0  0  0  0  0  0  0
  -34.9119   62.0426   65.5519 C   0  0  0  0  0  0  0  0  0  0  0  0
  -36.2364   62.3499   66.2268 C   0  0  0  0  0  0  0  0  0  0  0  0
  -37.1718   60.3544   62.2076 H   0  0  0  0  0  0  0  0  0  0  0  0
  -33.5806   62.9631   64.4226 H   0  0  0  0  0  0  0  0  0  0  0  0
  -34.6327   63.3166   67.7123 O   0  0  0  0  0  0  0  0  0  0  0  0
  -35.8615   63.5507   67.0924 C   0  0  0  0  0  0  0  0  0  0  0  0
  -34.3968   64.0807   68.2615 H   0  0  0  0  0  0  0  0  0  0  0  0
  -33.7827   60.6665   64.0056 O   0  0  0  0  0  0  0  0  0  0  0  0
  -34.0395   58.3994   62.7761 O   0  0  0  0  0  0  0  0  0  0  0  0
  -33.0776   58.4512   65.0035 O   0  0  0  0  0  0  0  0  0  0  0  0
  -31.7798   59.1974   63.0975 O   0  0  0  0  0  0  0  0  0  0  0  0
  -33.1439   59.1604   63.6969 S   0  0  0  0  0  0  0  0  0  0  0  0
  -34.9337   58.3646   63.1503 H   0  0  0  0  0  0  0  0  0  0  0  0
  -31.8138   59.6584   62.2446 H   0  0  0  0  0  0  0  0  0  0  0  0
  2  1  1  0  0  0
  2  4  1  0  0  0
  2  5  1  0  0  0
 41 42  1  0  0  0
 41  1  1  0  0  0
 42 46  1  0  0  0
  1 24  1  0  0  0
 23 24  1  0  0  0
 23 25  1  0  0  0
 24 26  1  0  0  0
  3  4  2  0  0  0
 26 27  2  0  0  0
 27 28  1  0  0  0
 43 47  1  0  0  0
 43 51  1  0  0  0
 28 29  1  0  0  0
 56 48  1  0  0  0
 56 60  1  0  0  0
 29 30  1  0  0  0
 57 60  1  0  0  0
 57 61  1  0  0  0
 30 31  1  0  0  0
 44 49  1  0  0  0
 44 52  1  0  0  0
 31 32  1  0  0  0
 45 46  1  0  0  0
 45 50  1  0  0  0
 32 33  1  0  0  0
 53 54  1  0  0  0
 53 55  1  0  0  0
 33 34  1  0  0  0
 34 35  1  0  0  0
 35 36  1  0  0  0
 58 60  1  0  0  0
 36 37  1  0  0  0
 59 60  1  0  0  0
 59 62  1  0  0  0
 37 38  1  0  0  0
 38 39  1  0  0  0
 39 40  1  0  0  0
  4  6  1  0  0  0
  6  7  1  0  0  0
  7  8  1  0  0  0
  8  9  1  0  0  0
  9 10  1  0  0  0
 10 11  1  0  0  0
 11 12  1  0  0  0
 12 13  1  0  0  0
 13 14  1  0  0  0
 14 15  1  0  0  0
 15 16  1  0  0  0
 16 17  1  0  0  0
 17 18  1  0  0  0
 18 19  1  0  0  0
 19 20  1  0  0  0
 20 21  1  0  0  0
 21 22  1  0  0  0
 46 47  1  0  0  0
 47 48  1  0  0  0
 48 49  1  0  0  0
 49 50  1  0  0  0
 50 54  1  0  0  0
M  CHG 1  58  -1
M  END
> <minimizedAffinity>
-9.15216

> <CNNscore>
0.0960325599

> <CNNaffinity>
7.2426633835

> <CNN_VS>
0.6955314875

> <CNNaffinity_variance>
1.2916837931

$$$$
/media/chris/experiments/cd1a-new-docking/inputs/ligands/1onq_ligand.pdb


 62 62  0  0  0  0  0  0  0  0999 V2000
  -40.5085   61.4677   63.2755 C   0  0  0  0  0  0  0  0  0  0  0  0
  -41.3043   60.6838   64.1993 N   0  0  0  0  0  0  0  0  0  0  0  0
  -40.4215   61.2728   66.2046 O   0  0  0  0  0  0  0  0  0  0  0  0
  -41.2144   60.6391   65.5355 C   0  0  0  0  0  0  0  0  0  0  0  0
  -41.9972   60.1134   63.7946 H   0  0  0  0  0  0  0  0  0  0  0  0
  -42.1955   59.7272   66.2105 C   0  0  0  0  0  0  0  0  0  0  0  0
  -43.5214   60.4859   66.2711 C   0  0  0  0  0  0  0  0  0  0  0  0
  -44.5613   59.7893   65.3967 C   0  0  0  0  0  0  0  0  0  0  0  0
  -45.4946   60.6932   64.6283 C   0  0  0  0  0  0  0  0  0  0  0  0
  -46.7759   59.9110   64.3594 C   0  0  0  0  0  0  0  0  0  0  0  0
  -47.3601   59.2755   65.6282 C   0  0  0  0  0  0  0  0  0  0  0  0
  -48.4521   60.1183   66.3121 C   0  0  0  0  0  0  0  0  0  0  0  0
  -49.8736   59.7787   65.8127 C   0  0  0  0  0  0  0  0  0  0  0  0
  -49.8737   58.4545   65.0435 C   0  0  0  0  0  0  0  0  0  0  0  0
  -50.3581   58.5463   63.6016 C   0  0  0  0  0  0  0  0  0  0  0  0
  -50.3725   59.9783   63.0876 C   0  0  0  0  0  0  0  0  0  0  0  0
  -49.6902   60.2139   61.7381 C   0  0  0  0  0  0  0  0  0  0  0  0
  -49.7404   58.9142   60.9464 C   0  0  0  0  0  0  0  0  0  0  0  0
  -49.1051   58.8772   59.5642 C   0  0  0  0  0  0  0  0  0  0  0  0
  -48.6615   57.4512   59.2009 C   0  0  0  0  0  0  0  0  0  0  0  0
  -47.2526   57.3576   58.5867 C   0  0  0  0  0  0  0  0  0  0  0  0
  -47.0908   58.1901   57.3170 C   0  0  0  0  0  0  0  0  0  0  0  0
  -42.6581   61.3202   62.4077 O   0  0  0  0  0  0  0  0  0  0  0  0
  -41.3075   61.3727   61.9871 C   0  0  0  0  0  0  0  0  0  0  0  0
  -42.8799   62.1349   62.8852 H   0  0  0  0  0  0  0  0  0  0  0  0
  -40.8917   60.1125   61.2245 C   0  0  0  0  0  0  0  0  0  0  0  0
  -40.6999   60.0917   59.8945 C   0  0  0  0  0  0  0  0  0  0  0  0
  -40.2859   58.7925   59.2061 C   0  0  0  0  0  0  0  0  0  0  0  0
  -38.7754   58.6757   58.9554 C   0  0  0  0  0  0  0  0  0  0  0  0
  -37.8860   58.7186   60.2116 C   0  0  0  0  0  0  0  0  0  0  0  0
  -38.2387   57.5590   61.1741 C   0  0  0  0  0  0  0  0  0  0  0  0
  -37.1227   57.1676   62.1756 C   0  0  0  0  0  0  0  0  0  0  0  0
  -36.9143   58.1857   63.3215 C   0  0  0  0  0  0  0  0  0  0  0  0
  -37.4436   57.6957   64.6867 C   0  0  0  0  0  0  0  0  0  0  0  0
  -38.9062   58.0710   64.9531 C   0  0  0  0  0  0  0  0  0  0  0  0
  -39.9187   57.6113   63.9062 C   0  0  0  0  0  0  0  0  0  0  0  0
  -41.2085   57.0141   64.5027 C   0  0  0  0  0  0  0  0  0  0  0  0
  -41.9655   56.0422   63.5849 C   0  0  0  0  0  0  0  0  0  0  0  0
  -41.0886   55.5992   62.4104 C   0  0  0  0  0  0  0  0  0  0  0  0
  -41.5675   55.9925   61.0242 C   0  0  0  0  0  0  0  0  0  0  0  0
  -39.0114   61.0910   63.2010 C   0  0  0  0  0  0  0  0  0  0  0  0
  -38.1160   62.0964   62.6618 O   0  0  0  0  0  0  0  0  0  0  0  0
  -37.0184   64.4647   63.8295 O   0  0  0  0  0  0  0  0  0  0  0  0
  -35.1972   61.7262   66.3953 O   0  0  0  0  0  0  0  0  0  0  0  0
  -36.1944   60.9821   63.6371 O   0  0  0  0  0  0  0  0  0  0  0  0
  -36.7348   62.2396   63.1636 C   0  0  0  0  0  0  0  0  0  0  0  0
  -36.5312   63.2474   64.3039 C   0  0  0  0  0  0  0  0  0  0  0  0
  -35.0523   63.4400   64.7051 C   0  0  0  0  0  0  0  0  0  0  0  0
  -34.5650   62.0963   65.1724 C   0  0  0  0  0  0  0  0  0  0  0  0
  -34.8178   61.0555   64.0967 C   0  0  0  0  0  0  0  0  0  0  0  0
  -37.9480   64.3627   63.5723 H   0  0  0  0  0  0  0  0  0  0  0  0
  -35.0231   62.4038   67.0673 H   0  0  0  0  0  0  0  0  0  0  0  0
  -33.5493   59.0469   63.8331 O   0  0  0  0  0  0  0  0  0  0  0  0
  -34.2725   59.7948   64.7639 C   0  0  0  0  0  0  0  0  0  0  0  0
  -33.2040   58.2468   64.2593 H   0  0  0  0  0  0  0  0  0  0  0  0
  -34.8047   64.3582   65.7939 O   0  0  0  0  0  0  0  0  0  0  0  0
  -33.2253   63.5016   67.6618 O   0  0  0  0  0  0  0  0  0  0  0  0
  -33.2755   65.8685   67.1284 O   0  0  0  0  0  0  0  0  0  0  0  0
  -32.1648   64.3075   65.6440 O   0  0  0  0  0  0  0  0  0  0  0  0
  -33.3299   64.4968   66.5539 S   0  0  0  0  0  0  0  0  0  0  0  0
  -33.9768   63.6098   68.2656 H   0  0  0  0  0  0  0  0  0  0  0  0
  -32.1924   63.4151   65.2647 H   0  0  0  0  0  0  0  0  0  0  0  0
  2  1  1  0  0  0
  2  4  1  0  0  0
  2  5  1  0  0  0
 41 42  1  0  0  0
 41  1  1  0  0  0
 42 46  1  0  0  0
  1 24  1  0  0  0
 23 24  1  0  0  0
 23 25  1  0  0  0
 24 26  1  0  0  0
  3  4  2  0  0  0
 26 27  2  0  0  0
 27 28  1  0  0  0
 43 47  1  0  0  0
 43 51  1  0  0  0
 28 29  1  0  0  0
 56 48  1  0  0  0
 56 60  1  0  0  0
 29 30  1  0  0  0
 57 60  1  0  0  0
 57 61  1  0  0  0
 30 31  1  0  0  0
 44 49  1  0  0  0
 44 52  1  0  0  0
 31 32  1  0  0  0
 45 46  1  0  0  0
 45 50  1  0  0  0
 32 33  1  0  0  0
 53 54  1  0  0  0
 53 55  1  0  0  0
 33 34  1  0  0  0
 34 35  1  0  0  0
 35 36  1  0  0  0
 58 60  1  0  0  0
 36 37  1  0  0  0
 59 60  1  0  0  0
 59 62  1  0  0  0
 37 38  1  0  0  0
 38 39  1  0  0  0
 39 40  1  0  0  0
  4  6  1  0  0  0
  6  7  1  0  0  0
  7  8  1  0  0  0
  8  9  1  0  0  0
  9 10  1  0  0  0
 10 11  1  0  0  0
 11 12  1  0  0  0
 12 13  1  0  0  0
 13 14  1  0  0  0
 14 15  1  0  0  0
 15 16  1  0  0  0
 16 17  1  0  0  0
 17 18  1  0  0  0
 18 19  1  0  0  0
 19 20  1  0  0  0
 20 21  1  0  0  0
 21 22  1  0  0  0
 46 47  1  0  0  0
 47 48  1  0  0  0
 48 49  1  0  0  0
 49 50  1  0  0  0
 50 54  1  0  0  0
M  CHG 1  58  -1
M  END
> <minimizedAffinity>
-8.82221

> <CNNscore>
0.0951891020

> <CNNaffinity>
6.9584054947

> <CNN_VS>
0.6623643637

> <CNNaffinity_variance>
1.2592078447

$$$$
