/media/chris/experiments/cd1a-new-docking/inputs/ligands/1onq_ligand.pdb


 62 62  0  0  0  0  0  0  0  0999 V2000
  -41.6046   60.0127   65.3398 C   0  0  0  0  0  0  0  0  0  0  0  0
  -41.6279   58.6684   64.7979 N   0  0  0  0  0  0  0  0  0  0  0  0
  -42.5353   57.4834   66.5067 O   0  0  0  0  0  0  0  0  0  0  0  0
  -42.0690   57.5480   65.3858 C   0  0  0  0  0  0  0  0  0  0  0  0
  -41.2758   58.5659   63.8842 H   0  0  0  0  0  0  0  0  0  0  0  0
  -41.9646   56.3062   64.5510 C   0  0  0  0  0  0  0  0  0  0  0  0
  -41.9180   56.7664   63.0939 C   0  0  0  0  0  0  0  0  0  0  0  0
  -41.3139   55.6701   62.2197 C   0  0  0  0  0  0  0  0  0  0  0  0
  -41.2472   55.9626   60.7404 C   0  0  0  0  0  0  0  0  0  0  0  0
  -41.7131   57.3999   60.5334 C   0  0  0  0  0  0  0  0  0  0  0  0
  -40.9336   58.1223   59.4263 C   0  0  0  0  0  0  0  0  0  0  0  0
  -40.5960   59.5902   59.7456 C   0  0  0  0  0  0  0  0  0  0  0  0
  -39.0764   59.8656   59.7683 C   0  0  0  0  0  0  0  0  0  0  0  0
  -38.2899   58.5518   59.7880 C   0  0  0  0  0  0  0  0  0  0  0  0
  -37.5025   58.2906   61.0663 C   0  0  0  0  0  0  0  0  0  0  0  0
  -38.3382   57.5875   62.1257 C   0  0  0  0  0  0  0  0  0  0  0  0
  -38.1246   58.0540   63.5676 C   0  0  0  0  0  0  0  0  0  0  0  0
  -36.7309   57.6237   64.0051 C   0  0  0  0  0  0  0  0  0  0  0  0
  -35.7393   58.6939   64.4371 C   0  0  0  0  0  0  0  0  0  0  0  0
  -34.7623   59.0297   63.2992 C   0  0  0  0  0  0  0  0  0  0  0  0
  -33.3337   58.4929   63.5049 C   0  0  0  0  0  0  0  0  0  0  0  0
  -32.9086   58.4536   64.9710 C   0  0  0  0  0  0  0  0  0  0  0  0
  -42.3674   62.1314   64.7697 O   0  0  0  0  0  0  0  0  0  0  0  0
  -42.4669   60.7820   64.3539 C   0  0  0  0  0  0  0  0  0  0  0  0
  -41.4434   62.4207   64.7101 H   0  0  0  0  0  0  0  0  0  0  0  0
  -43.9045   60.2614   64.4240 C   0  0  0  0  0  0  0  0  0  0  0  0
  -44.9766   61.0719   64.4360 C   0  0  0  0  0  0  0  0  0  0  0  0
  -46.3805   60.4745   64.5084 C   0  0  0  0  0  0  0  0  0  0  0  0
  -46.4372   59.1011   65.1930 C   0  0  0  0  0  0  0  0  0  0  0  0
  -47.8404   58.4819   65.3298 C   0  0  0  0  0  0  0  0  0  0  0  0
  -48.8597   59.5356   65.8261 C   0  0  0  0  0  0  0  0  0  0  0  0
  -50.3368   59.2560   65.4501 C   0  0  0  0  0  0  0  0  0  0  0  0
  -50.9370   60.2675   64.4455 C   0  0  0  0  0  0  0  0  0  0  0  0
  -51.3044   59.6407   63.0831 C   0  0  0  0  0  0  0  0  0  0  0  0
  -50.4469   58.4250   62.7111 C   0  0  0  0  0  0  0  0  0  0  0  0
  -50.9126   57.6204   61.4995 C   0  0  0  0  0  0  0  0  0  0  0  0
  -50.5650   58.2701   60.1455 C   0  0  0  0  0  0  0  0  0  0  0  0
  -49.1250   58.7901   60.0193 C   0  0  0  0  0  0  0  0  0  0  0  0
  -48.4485   58.2360   58.7622 C   0  0  0  0  0  0  0  0  0  0  0  0
  -47.5103   57.0592   58.9633 C   0  0  0  0  0  0  0  0  0  0  0  0
  -40.2006   60.5857   65.6385 C   0  0  0  0  0  0  0  0  0  0  0  0
  -39.4694   61.1305   64.5107 O   0  0  0  0  0  0  0  0  0  0  0  0
  -37.7016   61.5748   62.3074 O   0  0  0  0  0  0  0  0  0  0  0  0
  -36.2372   64.6063   64.7700 O   0  0  0  0  0  0  0  0  0  0  0  0
  -37.7461   62.2093   65.8344 O   0  0  0  0  0  0  0  0  0  0  0  0
  -38.0378   61.4746   64.6209 C   0  0  0  0  0  0  0  0  0  0  0  0
  -37.4517   62.3041   63.4692 C   0  0  0  0  0  0  0  0  0  0  0  0
  -35.9282   62.5312   63.5810 C   0  0  0  0  0  0  0  0  0  0  0  0
  -35.7086   63.2857   64.8632 C   0  0  0  0  0  0  0  0  0  0  0  0
  -36.3410   62.5307   66.0183 C   0  0  0  0  0  0  0  0  0  0  0  0
  -38.6556   61.4222   62.2203 H   0  0  0  0  0  0  0  0  0  0  0  0
  -35.8201   65.0698   64.0269 H   0  0  0  0  0  0  0  0  0  0  0  0
  -36.2131   62.7678   68.3934 O   0  0  0  0  0  0  0  0  0  0  0  0
  -36.0191   63.4526   67.1924 C   0  0  0  0  0  0  0  0  0  0  0  0
  -36.0080   63.3554   69.1373 H   0  0  0  0  0  0  0  0  0  0  0  0
  -35.3276   63.3303   62.5367 O   0  0  0  0  0  0  0  0  0  0  0  0
  -33.4042   63.7018   60.8397 O   0  0  0  0  0  0  0  0  0  0  0  0
  -33.1388   62.0636   62.6103 O   0  0  0  0  0  0  0  0  0  0  0  0
  -32.9917   64.4311   63.1078 O   0  0  0  0  0  0  0  0  0  0  0  0
  -33.6850   63.4068   62.2760 S   0  0  0  0  0  0  0  0  0  0  0  0
  -33.8483   63.0442   60.2818 H   0  0  0  0  0  0  0  0  0  0  0  0
  -33.3419   65.3106   62.8961 H   0  0  0  0  0  0  0  0  0  0  0  0
  2  1  1  0  0  0
  2  4  1  0  0  0
  2  5  1  0  0  0
 41 42  1  0  0  0
 41  1  1  0  0  0
 42 46  1  0  0  0
  1 24  1  0  0  0
 23 24  1  0  0  0
 23 25  1  0  0  0
 24 26  1  0  0  0
  3  4  2  0  0  0
 26 27  2  0  0  0
 27 28  1  0  0  0
 43 47  1  0  0  0
 43 51  1  0  0  0
 28 29  1  0  0  0
 56 48  1  0  0  0
 56 60  1  0  0  0
 29 30  1  0  0  0
 57 60  1  0  0  0
 57 61  1  0  0  0
 30 31  1  0  0  0
 44 49  1  0  0  0
 44 52  1  0  0  0
 31 32  1  0  0  0
 45 46  1  0  0  0
 45 50  1  0  0  0
 32 33  1  0  0  0
 53 54  1  0  0  0
 53 55  1  0  0  0
 33 34  1  0  0  0
 34 35  1  0  0  0
 35 36  1  0  0  0
 58 60  1  0  0  0
 36 37  1  0  0  0
 59 60  1  0  0  0
 59 62  1  0  0  0
 37 38  1  0  0  0
 38 39  1  0  0  0
 39 40  1  0  0  0
  4  6  1  0  0  0
  6  7  1  0  0  0
  7  8  1  0  0  0
  8  9  1  0  0  0
  9 10  1  0  0  0
 10 11  1  0  0  0
 11 12  1  0  0  0
 12 13  1  0  0  0
 13 14  1  0  0  0
 14 15  1  0  0  0
 15 16  1  0  0  0
 16 17  1  0  0  0
 17 18  1  0  0  0
 18 19  1  0  0  0
 19 20  1  0  0  0
 20 21  1  0  0  0
 21 22  1  0  0  0
 46 47  1  0  0  0
 47 48  1  0  0  0
 48 49  1  0  0  0
 49 50  1  0  0  0
 50 54  1  0  0  0
M  CHG 1  58  -1
M  END
> <minimizedAffinity>
-9.89567

> <CNNscore>
0.2953248024

> <CNNaffinity>
7.1748685837

> <CNN_VS>
2.1189167500

> <CNNaffinity_variance>
2.1860003471

$$$$
/media/chris/experiments/cd1a-new-docking/inputs/ligands/1onq_ligand.pdb


 62 62  0  0  0  0  0  0  0  0999 V2000
  -37.8754   59.7843   64.3094 C   0  0  0  0  0  0  0  0  0  0  0  0
  -39.1875   59.9907   64.8897 N   0  0  0  0  0  0  0  0  0  0  0  0
  -40.3565   60.8280   63.1348 O   0  0  0  0  0  0  0  0  0  0  0  0
  -40.2870   60.4743   64.2958 C   0  0  0  0  0  0  0  0  0  0  0  0
  -39.2828   59.7449   65.8383 H   0  0  0  0  0  0  0  0  0  0  0  0
  -41.5011   60.5580   65.1726 C   0  0  0  0  0  0  0  0  0  0  0  0
  -42.5955   61.2201   64.3353 C   0  0  0  0  0  0  0  0  0  0  0  0
  -43.9353   61.1284   65.0616 C   0  0  0  0  0  0  0  0  0  0  0  0
  -45.1666   61.1648   64.1893 C   0  0  0  0  0  0  0  0  0  0  0  0
  -46.2927   60.4755   64.9527 C   0  0  0  0  0  0  0  0  0  0  0  0
  -47.3564   59.8736   64.0247 C   0  0  0  0  0  0  0  0  0  0  0  0
  -48.5834   60.7763   63.8002 C   0  0  0  0  0  0  0  0  0  0  0  0
  -49.6535   60.6201   64.9029 C   0  0  0  0  0  0  0  0  0  0  0  0
  -50.8238   59.7684   64.4029 C   0  0  0  0  0  0  0  0  0  0  0  0
  -50.9390   59.6569   62.8874 C   0  0  0  0  0  0  0  0  0  0  0  0
  -50.6629   58.2458   62.3897 C   0  0  0  0  0  0  0  0  0  0  0  0
  -50.6417   58.0623   60.8705 C   0  0  0  0  0  0  0  0  0  0  0  0
  -49.2222   58.3152   60.3806 C   0  0  0  0  0  0  0  0  0  0  0  0
  -48.7407   57.5881   59.1337 C   0  0  0  0  0  0  0  0  0  0  0  0
  -47.8550   58.5019   58.2720 C   0  0  0  0  0  0  0  0  0  0  0  0
  -46.9542   57.7573   57.2693 C   0  0  0  0  0  0  0  0  0  0  0  0
  -47.1840   56.2477   57.2564 C   0  0  0  0  0  0  0  0  0  0  0  0
  -36.5570   57.9304   64.7792 O   0  0  0  0  0  0  0  0  0  0  0  0
  -37.7993   58.2716   64.1927 C   0  0  0  0  0  0  0  0  0  0  0  0
  -36.5547   58.1994   65.7112 H   0  0  0  0  0  0  0  0  0  0  0  0
  -37.8691   57.8729   62.7167 C   0  0  0  0  0  0  0  0  0  0  0  0
  -37.8397   58.7680   61.7146 C   0  0  0  0  0  0  0  0  0  0  0  0
  -37.9148   58.2900   60.2658 C   0  0  0  0  0  0  0  0  0  0  0  0
  -38.6367   59.2663   59.3256 C   0  0  0  0  0  0  0  0  0  0  0  0
  -40.0928   59.5989   59.7004 C   0  0  0  0  0  0  0  0  0  0  0  0
  -40.9679   58.3223   59.6904 C   0  0  0  0  0  0  0  0  0  0  0  0
  -41.5236   57.8900   61.0708 C   0  0  0  0  0  0  0  0  0  0  0  0
  -41.3043   56.3950   61.4020 C   0  0  0  0  0  0  0  0  0  0  0  0
  -40.9323   56.1377   62.8784 C   0  0  0  0  0  0  0  0  0  0  0  0
  -42.1421   56.0769   63.8187 C   0  0  0  0  0  0  0  0  0  0  0  0
  -42.5388   57.3910   64.4881 C   0  0  0  0  0  0  0  0  0  0  0  0
  -43.9795   57.4044   65.0360 C   0  0  0  0  0  0  0  0  0  0  0  0
  -44.1118   57.7732   66.5214 C   0  0  0  0  0  0  0  0  0  0  0  0
  -45.5511   57.5843   67.0088 C   0  0  0  0  0  0  0  0  0  0  0  0
  -46.5245   56.9708   66.0180 C   0  0  0  0  0  0  0  0  0  0  0  0
  -36.7079   60.4907   65.0351 C   0  0  0  0  0  0  0  0  0  0  0  0
  -35.4312   60.5057   64.3473 O   0  0  0  0  0  0  0  0  0  0  0  0
  -33.3529   61.3848   62.5908 O   0  0  0  0  0  0  0  0  0  0  0  0
  -34.1723   65.0893   64.3240 O   0  0  0  0  0  0  0  0  0  0  0  0
  -34.8555   62.4623   65.6609 O   0  0  0  0  0  0  0  0  0  0  0  0
  -34.3917   61.4985   64.6844 C   0  0  0  0  0  0  0  0  0  0  0  0
  -33.8323   62.3160   63.5111 C   0  0  0  0  0  0  0  0  0  0  0  0
  -32.6684   63.2512   63.9059 C   0  0  0  0  0  0  0  0  0  0  0  0
  -33.2248   64.2087   64.9232 C   0  0  0  0  0  0  0  0  0  0  0  0
  -33.8547   63.4345   66.0668 C   0  0  0  0  0  0  0  0  0  0  0  0
  -34.0717   60.7876   62.3309 H   0  0  0  0  0  0  0  0  0  0  0  0
  -33.7495   65.5731   63.5972 H   0  0  0  0  0  0  0  0  0  0  0  0
  -35.7392   64.4725   67.1084 O   0  0  0  0  0  0  0  0  0  0  0  0
  -34.3545   64.5687   66.9588 C   0  0  0  0  0  0  0  0  0  0  0  0
  -36.0540   65.1938   67.6752 H   0  0  0  0  0  0  0  0  0  0  0  0
  -32.1213   64.0660   62.8443 O   0  0  0  0  0  0  0  0  0  0  0  0
  -30.4798   62.1810   62.1588 O   0  0  0  0  0  0  0  0  0  0  0  0
  -29.6473   64.4394   62.4685 O   0  0  0  0  0  0  0  0  0  0  0  0
  -30.9296   63.8732   60.4913 O   0  0  0  0  0  0  0  0  0  0  0  0
  -30.7840   63.6283   61.9543 S   0  0  0  0  0  0  0  0  0  0  0  0
  -30.3815   62.0023   63.1071 H   0  0  0  0  0  0  0  0  0  0  0  0
  -31.6689   63.3478   60.1474 H   0  0  0  0  0  0  0  0  0  0  0  0
  2  1  1  0  0  0
  2  4  1  0  0  0
  2  5  1  0  0  0
 41 42  1  0  0  0
 41  1  1  0  0  0
 42 46  1  0  0  0
  1 24  1  0  0  0
 23 24  1  0  0  0
 23 25  1  0  0  0
 24 26  1  0  0  0
  3  4  2  0  0  0
 26 27  2  0  0  0
 27 28  1  0  0  0
 43 47  1  0  0  0
 43 51  1  0  0  0
 28 29  1  0  0  0
 56 48  1  0  0  0
 56 60  1  0  0  0
 29 30  1  0  0  0
 57 60  1  0  0  0
 57 61  1  0  0  0
 30 31  1  0  0  0
 44 49  1  0  0  0
 44 52  1  0  0  0
 31 32  1  0  0  0
 45 46  1  0  0  0
 45 50  1  0  0  0
 32 33  1  0  0  0
 53 54  1  0  0  0
 53 55  1  0  0  0
 33 34  1  0  0  0
 34 35  1  0  0  0
 35 36  1  0  0  0
 58 60  1  0  0  0
 36 37  1  0  0  0
 59 60  1  0  0  0
 59 62  1  0  0  0
 37 38  1  0  0  0
 38 39  1  0  0  0
 39 40  1  0  0  0
  4  6  1  0  0  0
  6  7  1  0  0  0
  7  8  1  0  0  0
  8  9  1  0  0  0
  9 10  1  0  0  0
 10 11  1  0  0  0
 11 12  1  0  0  0
 12 13  1  0  0  0
 13 14  1  0  0  0
 14 15  1  0  0  0
 15 16  1  0  0  0
 16 17  1  0  0  0
 17 18  1  0  0  0
 18 19  1  0  0  0
 19 20  1  0  0  0
 20 21  1  0  0  0
 21 22  1  0  0  0
 46 47  1  0  0  0
 47 48  1  0  0  0
 48 49  1  0  0  0
 49 50  1  0  0  0
 50 54  1  0  0  0
M  CHG 1  58  -1
M  END
> <minimizedAffinity>
-8.98980

> <CNNscore>
0.2530870140

> <CNNaffinity>
7.2042455673

> <CNN_VS>
1.8233009577

> <CNNaffinity_variance>
0.6534055471

$$$$
/media/chris/experiments/cd1a-new-docking/inputs/ligands/1onq_ligand.pdb


 62 62  0  0  0  0  0  0  0  0999 V2000
  -38.5832   60.6797   61.5025 C   0  0  0  0  0  0  0  0  0  0  0  0
  -40.0057   60.4697   61.6850 N   0  0  0  0  0  0  0  0  0  0  0  0
  -40.3742   61.4415   63.7018 O   0  0  0  0  0  0  0  0  0  0  0  0
  -40.7704   60.8447   62.7195 C   0  0  0  0  0  0  0  0  0  0  0  0
  -40.4676   59.9921   60.9585 H   0  0  0  0  0  0  0  0  0  0  0  0
  -42.2216   60.4834   62.6039 C   0  0  0  0  0  0  0  0  0  0  0  0
  -43.0054   61.7886   62.7428 C   0  0  0  0  0  0  0  0  0  0  0  0
  -43.7772   61.7958   64.0601 C   0  0  0  0  0  0  0  0  0  0  0  0
  -44.2692   60.4549   64.5480 C   0  0  0  0  0  0  0  0  0  0  0  0
  -45.7935   60.5014   64.5644 C   0  0  0  0  0  0  0  0  0  0  0  0
  -46.3954   59.7900   65.7837 C   0  0  0  0  0  0  0  0  0  0  0  0
  -47.7572   59.1226   65.5176 C   0  0  0  0  0  0  0  0  0  0  0  0
  -48.9523   60.0346   65.8722 C   0  0  0  0  0  0  0  0  0  0  0  0
  -50.2709   59.3920   65.4325 C   0  0  0  0  0  0  0  0  0  0  0  0
  -51.1772   60.2871   64.5960 C   0  0  0  0  0  0  0  0  0  0  0  0
  -51.2427   59.8445   63.1417 C   0  0  0  0  0  0  0  0  0  0  0  0
  -50.7147   58.4394   62.8435 C   0  0  0  0  0  0  0  0  0  0  0  0
  -50.1469   58.4346   61.4305 C   0  0  0  0  0  0  0  0  0  0  0  0
  -49.8013   57.0993   60.7880 C   0  0  0  0  0  0  0  0  0  0  0  0
  -49.3965   57.2853   59.3170 C   0  0  0  0  0  0  0  0  0  0  0  0
  -47.8843   57.4645   59.0886 C   0  0  0  0  0  0  0  0  0  0  0  0
  -47.5552   58.4434   57.9638 C   0  0  0  0  0  0  0  0  0  0  0  0
  -38.0864   59.7691   59.4240 O   0  0  0  0  0  0  0  0  0  0  0  0
  -38.1496   59.4092   60.7916 C   0  0  0  0  0  0  0  0  0  0  0  0
  -37.4244   60.4680   59.3039 H   0  0  0  0  0  0  0  0  0  0  0  0
  -39.1791   58.3067   61.0507 C   0  0  0  0  0  0  0  0  0  0  0  0
  -40.0716   57.9074   60.1286 C   0  0  0  0  0  0  0  0  0  0  0  0
  -41.0684   56.7999   60.4650 C   0  0  0  0  0  0  0  0  0  0  0  0
  -40.9367   56.2584   61.8959 C   0  0  0  0  0  0  0  0  0  0  0  0
  -41.9390   56.8257   62.9181 C   0  0  0  0  0  0  0  0  0  0  0  0
  -41.2027   57.3669   64.1672 C   0  0  0  0  0  0  0  0  0  0  0  0
  -39.6749   57.5656   64.0006 C   0  0  0  0  0  0  0  0  0  0  0  0
  -39.0340   58.4774   65.0732 C   0  0  0  0  0  0  0  0  0  0  0  0
  -37.4968   58.3541   65.1500 C   0  0  0  0  0  0  0  0  0  0  0  0
  -36.8719   57.6537   63.9374 C   0  0  0  0  0  0  0  0  0  0  0  0
  -35.4523   58.0824   63.5722 C   0  0  0  0  0  0  0  0  0  0  0  0
  -34.8173   59.0644   64.5764 C   0  0  0  0  0  0  0  0  0  0  0  0
  -33.3439   58.7922   64.9159 C   0  0  0  0  0  0  0  0  0  0  0  0
  -32.4687   58.8617   63.6613 C   0  0  0  0  0  0  0  0  0  0  0  0
  -32.4918   60.1715   62.8935 C   0  0  0  0  0  0  0  0  0  0  0  0
  -37.7995   61.0726   62.7755 C   0  0  0  0  0  0  0  0  0  0  0  0
  -37.0987   62.3418   62.7393 O   0  0  0  0  0  0  0  0  0  0  0  0
  -34.8298   63.5595   61.4959 O   0  0  0  0  0  0  0  0  0  0  0  0
  -34.2304   65.1208   65.3171 O   0  0  0  0  0  0  0  0  0  0  0  0
  -35.8485   62.6168   64.8001 O   0  0  0  0  0  0  0  0  0  0  0  0
  -35.7678   62.4991   63.3589 C   0  0  0  0  0  0  0  0  0  0  0  0
  -34.9366   63.6978   62.8792 C   0  0  0  0  0  0  0  0  0  0  0  0
  -33.5118   63.7423   63.4736 C   0  0  0  0  0  0  0  0  0  0  0  0
  -33.6813   63.8537   64.9637 C   0  0  0  0  0  0  0  0  0  0  0  0
  -34.5616   62.7239   65.4665 C   0  0  0  0  0  0  0  0  0  0  0  0
  -35.7168   63.5297   61.1045 H   0  0  0  0  0  0  0  0  0  0  0  0
  -33.6531   65.8269   64.9868 H   0  0  0  0  0  0  0  0  0  0  0  0
  -33.3221   63.2748   67.4346 O   0  0  0  0  0  0  0  0  0  0  0  0
  -34.6120   63.0249   66.9628 C   0  0  0  0  0  0  0  0  0  0  0  0
  -33.3568   63.4657   68.3850 H   0  0  0  0  0  0  0  0  0  0  0  0
  -32.6940   64.8665   63.0771 O   0  0  0  0  0  0  0  0  0  0  0  0
  -31.8543   63.6301   60.9596 O   0  0  0  0  0  0  0  0  0  0  0  0
  -30.2453   64.5762   62.5106 O   0  0  0  0  0  0  0  0  0  0  0  0
  -31.4972   66.0207   61.0204 O   0  0  0  0  0  0  0  0  0  0  0  0
  -31.5648   64.7884   61.8560 S   0  0  0  0  0  0  0  0  0  0  0  0
  -31.9022   62.8174   61.4869 H   0  0  0  0  0  0  0  0  0  0  0  0
  -32.3539   66.1667   60.5896 H   0  0  0  0  0  0  0  0  0  0  0  0
  2  1  1  0  0  0
  2  4  1  0  0  0
  2  5  1  0  0  0
 41 42  1  0  0  0
 41  1  1  0  0  0
 42 46  1  0  0  0
  1 24  1  0  0  0
 23 24  1  0  0  0
 23 25  1  0  0  0
 24 26  1  0  0  0
  3  4  2  0  0  0
 26 27  2  0  0  0
 27 28  1  0  0  0
 43 47  1  0  0  0
 43 51  1  0  0  0
 28 29  1  0  0  0
 56 48  1  0  0  0
 56 60  1  0  0  0
 29 30  1  0  0  0
 57 60  1  0  0  0
 57 61  1  0  0  0
 30 31  1  0  0  0
 44 49  1  0  0  0
 44 52  1  0  0  0
 31 32  1  0  0  0
 45 46  1  0  0  0
 45 50  1  0  0  0
 32 33  1  0  0  0
 53 54  1  0  0  0
 53 55  1  0  0  0
 33 34  1  0  0  0
 34 35  1  0  0  0
 35 36  1  0  0  0
 58 60  1  0  0  0
 36 37  1  0  0  0
 59 60  1  0  0  0
 59 62  1  0  0  0
 37 38  1  0  0  0
 38 39  1  0  0  0
 39 40  1  0  0  0
  4  6  1  0  0  0
  6  7  1  0  0  0
  7  8  1  0  0  0
  8  9  1  0  0  0
  9 10  1  0  0  0
 10 11  1  0  0  0
 11 12  1  0  0  0
 12 13  1  0  0  0
 13 14  1  0  0  0
 14 15  1  0  0  0
 15 16  1  0  0  0
 16 17  1  0  0  0
 17 18  1  0  0  0
 18 19  1  0  0  0
 19 20  1  0  0  0
 20 21  1  0  0  0
 21 22  1  0  0  0
 46 47  1  0  0  0
 47 48  1  0  0  0
 48 49  1  0  0  0
 49 50  1  0  0  0
 50 54  1  0  0  0
M  CHG 1  58  -1
M  END
> <minimizedAffinity>
-9.26821

> <CNNscore>
0.2223213464

> <CNNaffinity>
7.0262908936

> <CNN_VS>
1.5620944500

> <CNNaffinity_variance>
1.1694453955

$$$$
/media/chris/experiments/cd1a-new-docking/inputs/ligands/1onq_ligand.pdb


 62 62  0  0  0  0  0  0  0  0999 V2000
  -41.3324   60.2453   65.0711 C   0  0  0  0  0  0  0  0  0  0  0  0
  -41.4878   59.8593   63.6826 N   0  0  0  0  0  0  0  0  0  0  0  0
  -41.5942   57.5976   63.8275 O   0  0  0  0  0  0  0  0  0  0  0  0
  -41.6027   58.6240   63.1762 C   0  0  0  0  0  0  0  0  0  0  0  0
  -41.5118   60.5965   63.0304 H   0  0  0  0  0  0  0  0  0  0  0  0
  -41.7598   58.5578   61.6859 C   0  0  0  0  0  0  0  0  0  0  0  0
  -41.3751   59.9362   61.1481 C   0  0  0  0  0  0  0  0  0  0  0  0
  -40.8082   59.8056   59.7365 C   0  0  0  0  0  0  0  0  0  0  0  0
  -40.1977   58.4699   59.3877 C   0  0  0  0  0  0  0  0  0  0  0  0
  -38.7136   58.6974   59.1199 C   0  0  0  0  0  0  0  0  0  0  0  0
  -37.8485   58.5027   60.3724 C   0  0  0  0  0  0  0  0  0  0  0  0
  -38.4291   57.5070   61.3932 C   0  0  0  0  0  0  0  0  0  0  0  0
  -37.8561   57.7013   62.8143 C   0  0  0  0  0  0  0  0  0  0  0  0
  -36.3664   58.0507   62.7526 C   0  0  0  0  0  0  0  0  0  0  0  0
  -35.6298   57.9716   64.0843 C   0  0  0  0  0  0  0  0  0  0  0  0
  -34.3242   58.7530   64.0691 C   0  0  0  0  0  0  0  0  0  0  0  0
  -33.2371   58.2249   63.1302 C   0  0  0  0  0  0  0  0  0  0  0  0
  -32.0030   59.1026   63.2903 C   0  0  0  0  0  0  0  0  0  0  0  0
  -31.8453   60.3121   62.3806 C   0  0  0  0  0  0  0  0  0  0  0  0
  -30.3631   60.5823   62.0772 C   0  0  0  0  0  0  0  0  0  0  0  0
  -30.0595   62.0153   61.6020 C   0  0  0  0  0  0  0  0  0  0  0  0
  -31.3154   62.8375   61.3221 C   0  0  0  0  0  0  0  0  0  0  0  0
  -42.1563   61.8828   66.4978 O   0  0  0  0  0  0  0  0  0  0  0  0
  -42.4443   61.2633   65.2580 C   0  0  0  0  0  0  0  0  0  0  0  0
  -41.2953   62.3266   66.4452 H   0  0  0  0  0  0  0  0  0  0  0  0
  -43.7943   60.5424   65.2734 C   0  0  0  0  0  0  0  0  0  0  0  0
  -44.8686   60.9860   64.5985 C   0  0  0  0  0  0  0  0  0  0  0  0
  -46.1823   60.2096   64.6652 C   0  0  0  0  0  0  0  0  0  0  0  0
  -46.4617   59.5772   66.0364 C   0  0  0  0  0  0  0  0  0  0  0  0
  -47.8657   58.9710   66.2172 C   0  0  0  0  0  0  0  0  0  0  0  0
  -48.9603   60.0357   65.9646 C   0  0  0  0  0  0  0  0  0  0  0  0
  -50.3439   59.4763   65.5472 C   0  0  0  0  0  0  0  0  0  0  0  0
  -51.1636   60.4250   64.6411 C   0  0  0  0  0  0  0  0  0  0  0  0
  -51.2394   59.9615   63.1702 C   0  0  0  0  0  0  0  0  0  0  0  0
  -50.6821   58.5520   62.9371 C   0  0  0  0  0  0  0  0  0  0  0  0
  -49.7566   58.3866   61.7337 C   0  0  0  0  0  0  0  0  0  0  0  0
  -50.4229   57.7086   60.5202 C   0  0  0  0  0  0  0  0  0  0  0  0
  -49.8635   58.1218   59.1505 C   0  0  0  0  0  0  0  0  0  0  0  0
  -48.4431   57.5851   58.9520 C   0  0  0  0  0  0  0  0  0  0  0  0
  -47.5451   58.3798   58.0205 C   0  0  0  0  0  0  0  0  0  0  0  0
  -39.9081   60.6791   65.4861 C   0  0  0  0  0  0  0  0  0  0  0  0
  -39.0926   61.2952   64.4572 O   0  0  0  0  0  0  0  0  0  0  0  0
  -37.2070   61.6730   62.3408 O   0  0  0  0  0  0  0  0  0  0  0  0
  -35.4889   64.3375   65.0515 O   0  0  0  0  0  0  0  0  0  0  0  0
  -37.3041   62.0707   65.9013 O   0  0  0  0  0  0  0  0  0  0  0  0
  -37.6356   61.4588   64.6312 C   0  0  0  0  0  0  0  0  0  0  0  0
  -36.9158   62.2881   63.5578 C   0  0  0  0  0  0  0  0  0  0  0  0
  -35.3812   62.3247   63.7278 C   0  0  0  0  0  0  0  0  0  0  0  0
  -35.1215   62.9602   65.0657 C   0  0  0  0  0  0  0  0  0  0  0  0
  -35.8787   62.2101   66.1465 C   0  0  0  0  0  0  0  0  0  0  0  0
  -38.1685   61.6410   62.2167 H   0  0  0  0  0  0  0  0  0  0  0  0
  -34.9942   64.7970   64.3549 H   0  0  0  0  0  0  0  0  0  0  0  0
  -36.4314   64.0178   67.6094 O   0  0  0  0  0  0  0  0  0  0  0  0
  -35.4940   63.0065   67.3913 C   0  0  0  0  0  0  0  0  0  0  0  0
  -36.1848   64.5220   68.4005 H   0  0  0  0  0  0  0  0  0  0  0  0
  -34.6545   63.1150   62.7597 O   0  0  0  0  0  0  0  0  0  0  0  0
  -35.7411   63.7817   60.5031 O   0  0  0  0  0  0  0  0  0  0  0  0
  -34.3330   65.3761   61.6711 O   0  0  0  0  0  0  0  0  0  0  0  0
  -36.5731   64.9123   62.4717 O   0  0  0  0  0  0  0  0  0  0  0  0
  -35.3604   64.3138   61.8450 S   0  0  0  0  0  0  0  0  0  0  0  0
  -34.9628   63.3873   60.0791 H   0  0  0  0  0  0  0  0  0  0  0  0
  -37.2487   64.2262   62.5889 H   0  0  0  0  0  0  0  0  0  0  0  0
  2  1  1  0  0  0
  2  4  1  0  0  0
  2  5  1  0  0  0
 41 42  1  0  0  0
 41  1  1  0  0  0
 42 46  1  0  0  0
  1 24  1  0  0  0
 23 24  1  0  0  0
 23 25  1  0  0  0
 24 26  1  0  0  0
  3  4  2  0  0  0
 26 27  2  0  0  0
 27 28  1  0  0  0
 43 47  1  0  0  0
 43 51  1  0  0  0
 28 29  1  0  0  0
 56 48  1  0  0  0
 56 60  1  0  0  0
 29 30  1  0  0  0
 57 60  1  0  0  0
 57 61  1  0  0  0
 30 31  1  0  0  0
 44 49  1  0  0  0
 44 52  1  0  0  0
 31 32  1  0  0  0
 45 46  1  0  0  0
 45 50  1  0  0  0
 32 33  1  0  0  0
 53 54  1  0  0  0
 53 55  1  0  0  0
 33 34  1  0  0  0
 34 35  1  0  0  0
 35 36  1  0  0  0
 58 60  1  0  0  0
 36 37  1  0  0  0
 59 60  1  0  0  0
 59 62  1  0  0  0
 37 38  1  0  0  0
 38 39  1  0  0  0
 39 40  1  0  0  0
  4  6  1  0  0  0
  6  7  1  0  0  0
  7  8  1  0  0  0
  8  9  1  0  0  0
  9 10  1  0  0  0
 10 11  1  0  0  0
 11 12  1  0  0  0
 12 13  1  0  0  0
 13 14  1  0  0  0
 14 15  1  0  0  0
 15 16  1  0  0  0
 16 17  1  0  0  0
 17 18  1  0  0  0
 18 19  1  0  0  0
 19 20  1  0  0  0
 20 21  1  0  0  0
 21 22  1  0  0  0
 46 47  1  0  0  0
 47 48  1  0  0  0
 48 49  1  0  0  0
 49 50  1  0  0  0
 50 54  1  0  0  0
M  CHG 1  58  -1
M  END
> <minimizedAffinity>
-9.77056

> <CNNscore>
0.2092302442

> <CNNaffinity>
6.8678154945

> <CNN_VS>
1.4369547367

> <CNNaffinity_variance>
1.5807236433

$$$$
/media/chris/experiments/cd1a-new-docking/inputs/ligands/1onq_ligand.pdb


 62 62  0  0  0  0  0  0  0  0999 V2000
  -41.0789   59.5685   64.0703 C   0  0  0  0  0  0  0  0  0  0  0  0
  -42.3162   60.3031   64.2455 N   0  0  0  0  0  0  0  0  0  0  0  0
  -42.5896   61.2650   62.2089 O   0  0  0  0  0  0  0  0  0  0  0  0
  -42.9588   61.0649   63.3497 C   0  0  0  0  0  0  0  0  0  0  0  0
  -42.7367   60.2337   65.1329 H   0  0  0  0  0  0  0  0  0  0  0  0
  -44.2312   61.6897   63.8400 C   0  0  0  0  0  0  0  0  0  0  0  0
  -44.7856   60.7563   64.9164 C   0  0  0  0  0  0  0  0  0  0  0  0
  -46.2637   60.4779   64.6545 C   0  0  0  0  0  0  0  0  0  0  0  0
  -46.7205   59.0564   64.8766 C   0  0  0  0  0  0  0  0  0  0  0  0
  -47.5326   59.0297   66.1672 C   0  0  0  0  0  0  0  0  0  0  0  0
  -48.6882   60.0394   66.1616 C   0  0  0  0  0  0  0  0  0  0  0  0
  -50.0679   59.4196   65.8733 C   0  0  0  0  0  0  0  0  0  0  0  0
  -50.8121   60.1225   64.7167 C   0  0  0  0  0  0  0  0  0  0  0  0
  -49.8182   60.7887   63.7611 C   0  0  0  0  0  0  0  0  0  0  0  0
  -49.7138   60.1419   62.3852 C   0  0  0  0  0  0  0  0  0  0  0  0
  -49.5153   58.6356   62.4689 C   0  0  0  0  0  0  0  0  0  0  0  0
  -50.6319   57.7773   61.8701 C   0  0  0  0  0  0  0  0  0  0  0  0
  -50.6234   57.9719   60.3598 C   0  0  0  0  0  0  0  0  0  0  0  0
  -49.5525   57.2676   59.5398 C   0  0  0  0  0  0  0  0  0  0  0  0
  -48.6110   58.2846   58.8755 C   0  0  0  0  0  0  0  0  0  0  0  0
  -47.3465   57.6692   58.2483 C   0  0  0  0  0  0  0  0  0  0  0  0
  -46.8388   58.4407   57.0323 C   0  0  0  0  0  0  0  0  0  0  0  0
  -40.7653   57.6662   65.3660 O   0  0  0  0  0  0  0  0  0  0  0  0
  -41.5199   58.1274   64.2607 C   0  0  0  0  0  0  0  0  0  0  0  0
  -40.9840   58.1943   66.1497 H   0  0  0  0  0  0  0  0  0  0  0  0
  -41.2211   57.3333   62.9868 C   0  0  0  0  0  0  0  0  0  0  0  0
  -41.7787   57.6200   61.7980 C   0  0  0  0  0  0  0  0  0  0  0  0
  -41.4297   56.7786   60.5719 C   0  0  0  0  0  0  0  0  0  0  0  0
  -40.8462   57.5905   59.4063 C   0  0  0  0  0  0  0  0  0  0  0  0
  -40.9459   59.1209   59.5444 C   0  0  0  0  0  0  0  0  0  0  0  0
  -39.5508   59.7416   59.7977 C   0  0  0  0  0  0  0  0  0  0  0  0
  -38.3474   58.8360   59.4331 C   0  0  0  0  0  0  0  0  0  0  0  0
  -37.3797   58.5645   60.6090 C   0  0  0  0  0  0  0  0  0  0  0  0
  -37.9349   57.5661   61.6477 C   0  0  0  0  0  0  0  0  0  0  0  0
  -37.5099   57.8735   63.0887 C   0  0  0  0  0  0  0  0  0  0  0  0
  -36.1677   58.5824   63.2559 C   0  0  0  0  0  0  0  0  0  0  0  0
  -34.9552   57.6308   63.2747 C   0  0  0  0  0  0  0  0  0  0  0  0
  -33.6643   58.2031   62.6696 C   0  0  0  0  0  0  0  0  0  0  0  0
  -32.6649   58.5837   63.7657 C   0  0  0  0  0  0  0  0  0  0  0  0
  -33.1507   58.4508   65.1981 C   0  0  0  0  0  0  0  0  0  0  0  0
  -39.8884   60.0560   64.9269 C   0  0  0  0  0  0  0  0  0  0  0  0
  -39.2831   61.3154   64.5385 O   0  0  0  0  0  0  0  0  0  0  0  0
  -37.5598   61.7449   62.2972 O   0  0  0  0  0  0  0  0  0  0  0  0
  -35.7277   64.4509   64.8895 O   0  0  0  0  0  0  0  0  0  0  0  0
  -37.4194   62.1362   65.8569 O   0  0  0  0  0  0  0  0  0  0  0  0
  -37.8222   61.5171   64.6112 C   0  0  0  0  0  0  0  0  0  0  0  0
  -37.2009   62.3661   63.4928 C   0  0  0  0  0  0  0  0  0  0  0  0
  -35.6597   62.4430   63.5557 C   0  0  0  0  0  0  0  0  0  0  0  0
  -35.3242   63.0838   64.8742 C   0  0  0  0  0  0  0  0  0  0  0  0
  -35.9845   62.3128   66.0029 C   0  0  0  0  0  0  0  0  0  0  0  0
  -38.5265   61.6877   62.2401 H   0  0  0  0  0  0  0  0  0  0  0  0
  -35.2949   64.9240   64.1616 H   0  0  0  0  0  0  0  0  0  0  0  0
  -36.4618   64.1285   67.4823 O   0  0  0  0  0  0  0  0  0  0  0  0
  -35.5351   63.1178   67.2202 C   0  0  0  0  0  0  0  0  0  0  0  0
  -36.1741   64.6382   68.2558 H   0  0  0  0  0  0  0  0  0  0  0  0
  -35.0230   63.2532   62.5417 O   0  0  0  0  0  0  0  0  0  0  0  0
  -33.1349   63.6662   60.8149 O   0  0  0  0  0  0  0  0  0  0  0  0
  -33.0096   61.7422   62.2887 O   0  0  0  0  0  0  0  0  0  0  0  0
  -32.5470   63.9633   63.1414 O   0  0  0  0  0  0  0  0  0  0  0  0
  -33.3950   63.1768   62.2012 S   0  0  0  0  0  0  0  0  0  0  0  0
  -33.6793   63.1650   60.1878 H   0  0  0  0  0  0  0  0  0  0  0  0
  -32.7917   64.9006   63.0908 H   0  0  0  0  0  0  0  0  0  0  0  0
  2  1  1  0  0  0
  2  4  1  0  0  0
  2  5  1  0  0  0
 41 42  1  0  0  0
 41  1  1  0  0  0
 42 46  1  0  0  0
  1 24  1  0  0  0
 23 24  1  0  0  0
 23 25  1  0  0  0
 24 26  1  0  0  0
  3  4  2  0  0  0
 26 27  2  0  0  0
 27 28  1  0  0  0
 43 47  1  0  0  0
 43 51  1  0  0  0
 28 29  1  0  0  0
 56 48  1  0  0  0
 56 60  1  0  0  0
 29 30  1  0  0  0
 57 60  1  0  0  0
 57 61  1  0  0  0
 30 31  1  0  0  0
 44 49  1  0  0  0
 44 52  1  0  0  0
 31 32  1  0  0  0
 45 46  1  0  0  0
 45 50  1  0  0  0
 32 33  1  0  0  0
 53 54  1  0  0  0
 53 55  1  0  0  0
 33 34  1  0  0  0
 34 35  1  0  0  0
 35 36  1  0  0  0
 58 60  1  0  0  0
 36 37  1  0  0  0
 59 60  1  0  0  0
 59 62  1  0  0  0
 37 38  1  0  0  0
 38 39  1  0  0  0
 39 40  1  0  0  0
  4  6  1  0  0  0
  6  7  1  0  0  0
  7  8  1  0  0  0
  8  9  1  0  0  0
  9 10  1  0  0  0
 10 11  1  0  0  0
 11 12  1  0  0  0
 12 13  1  0  0  0
 13 14  1  0  0  0
 14 15  1  0  0  0
 15 16  1  0  0  0
 16 17  1  0  0  0
 17 18  1  0  0  0
 18 19  1  0  0  0
 19 20  1  0  0  0
 20 21  1  0  0  0
 21 22  1  0  0  0
 46 47  1  0  0  0
 47 48  1  0  0  0
 48 49  1  0  0  0
 49 50  1  0  0  0
 50 54  1  0  0  0
M  CHG 1  58  -1
M  END
> <minimizedAffinity>
-9.80188

> <CNNscore>
0.2051033080

> <CNNaffinity>
6.9838752747

> <CNN_VS>
1.4324159622

> <CNNaffinity_variance>
1.9437820911

$$$$
/media/chris/experiments/cd1a-new-docking/inputs/ligands/1onq_ligand.pdb


 62 62  0  0  0  0  0  0  0  0999 V2000
  -40.5769   59.8625   63.8322 C   0  0  0  0  0  0  0  0  0  0  0  0
  -41.8325   60.4777   64.2144 N   0  0  0  0  0  0  0  0  0  0  0  0
  -42.7358   61.0039   62.2008 O   0  0  0  0  0  0  0  0  0  0  0  0
  -42.7822   60.9829   63.4154 C   0  0  0  0  0  0  0  0  0  0  0  0
  -42.0095   60.5312   65.1814 H   0  0  0  0  0  0  0  0  0  0  0  0
  -43.9782   61.5465   64.1238 C   0  0  0  0  0  0  0  0  0  0  0  0
  -43.9806   60.9339   65.5245 C   0  0  0  0  0  0  0  0  0  0  0  0
  -45.0421   59.8402   65.6137 C   0  0  0  0  0  0  0  0  0  0  0  0
  -46.3688   60.1489   64.9631 C   0  0  0  0  0  0  0  0  0  0  0  0
  -47.4272   59.2867   65.6431 C   0  0  0  0  0  0  0  0  0  0  0  0
  -48.6549   60.0941   66.0857 C   0  0  0  0  0  0  0  0  0  0  0  0
  -50.0007   59.3948   65.8200 C   0  0  0  0  0  0  0  0  0  0  0  0
  -50.8055   60.0552   64.6790 C   0  0  0  0  0  0  0  0  0  0  0  0
  -49.8649   60.6049   63.6029 C   0  0  0  0  0  0  0  0  0  0  0  0
  -49.8922   59.8535   62.2774 C   0  0  0  0  0  0  0  0  0  0  0  0
  -50.8426   58.6656   62.3066 C   0  0  0  0  0  0  0  0  0  0  0  0
  -50.8810   57.8057   61.0412 C   0  0  0  0  0  0  0  0  0  0  0  0
  -49.6360   56.9291   61.0239 C   0  0  0  0  0  0  0  0  0  0  0  0
  -48.9024   56.7301   59.7057 C   0  0  0  0  0  0  0  0  0  0  0  0
  -49.1397   57.9179   58.7597 C   0  0  0  0  0  0  0  0  0  0  0  0
  -47.8597   58.6602   58.3333 C   0  0  0  0  0  0  0  0  0  0  0  0
  -47.1132   57.9709   57.1935 C   0  0  0  0  0  0  0  0  0  0  0  0
  -39.8410   60.1920   66.0107 O   0  0  0  0  0  0  0  0  0  0  0  0
  -40.1562   59.1499   65.1060 C   0  0  0  0  0  0  0  0  0  0  0  0
  -40.6308   60.7324   66.1692 H   0  0  0  0  0  0  0  0  0  0  0  0
  -38.9487   58.2566   64.8120 C   0  0  0  0  0  0  0  0  0  0  0  0
  -37.7528   58.4250   65.4019 C   0  0  0  0  0  0  0  0  0  0  0  0
  -36.5952   57.4912   65.0540 C   0  0  0  0  0  0  0  0  0  0  0  0
  -35.5255   58.1337   64.1590 C   0  0  0  0  0  0  0  0  0  0  0  0
  -35.6805   57.8802   62.6481 C   0  0  0  0  0  0  0  0  0  0  0  0
  -36.7622   58.8076   62.0437 C   0  0  0  0  0  0  0  0  0  0  0  0
  -37.8508   58.0942   61.2026 C   0  0  0  0  0  0  0  0  0  0  0  0
  -38.0262   58.6673   59.7766 C   0  0  0  0  0  0  0  0  0  0  0  0
  -39.1277   59.7447   59.6752 C   0  0  0  0  0  0  0  0  0  0  0  0
  -40.5192   59.2458   60.0830 C   0  0  0  0  0  0  0  0  0  0  0  0
  -40.9999   57.9663   59.4017 C   0  0  0  0  0  0  0  0  0  0  0  0
  -41.2520   56.7965   60.3735 C   0  0  0  0  0  0  0  0  0  0  0  0
  -41.5410   57.2031   61.8264 C   0  0  0  0  0  0  0  0  0  0  0  0
  -41.3864   56.0090   62.7726 C   0  0  0  0  0  0  0  0  0  0  0  0
  -42.0208   56.1486   64.1451 C   0  0  0  0  0  0  0  0  0  0  0  0
  -39.5414   60.8097   63.1845 C   0  0  0  0  0  0  0  0  0  0  0  0
  -38.9684   61.8283   64.0432 O   0  0  0  0  0  0  0  0  0  0  0  0
  -37.0096   62.3755   62.0331 O   0  0  0  0  0  0  0  0  0  0  0  0
  -35.2653   64.6204   65.0854 O   0  0  0  0  0  0  0  0  0  0  0  0
  -37.1926   62.3480   65.6122 O   0  0  0  0  0  0  0  0  0  0  0  0
  -37.5116   61.9073   64.2700 C   0  0  0  0  0  0  0  0  0  0  0  0
  -36.7292   62.8275   63.3219 C   0  0  0  0  0  0  0  0  0  0  0  0
  -35.1998   62.7778   63.5312 C   0  0  0  0  0  0  0  0  0  0  0  0
  -34.9534   63.2369   64.9419 C   0  0  0  0  0  0  0  0  0  0  0  0
  -35.7703   62.3959   65.9060 C   0  0  0  0  0  0  0  0  0  0  0  0
  -37.9677   62.3998   61.8833 H   0  0  0  0  0  0  0  0  0  0  0  0
  -34.7332   65.1384   64.4613 H   0  0  0  0  0  0  0  0  0  0  0  0
  -36.3540   63.9601   67.6166 O   0  0  0  0  0  0  0  0  0  0  0  0
  -35.3901   63.0204   67.2467 C   0  0  0  0  0  0  0  0  0  0  0  0
  -36.1102   64.3552   68.4682 H   0  0  0  0  0  0  0  0  0  0  0  0
  -34.4149   63.6464   62.6831 O   0  0  0  0  0  0  0  0  0  0  0  0
  -31.9001   63.6812   63.3093 O   0  0  0  0  0  0  0  0  0  0  0  0
  -32.5707   64.1368   61.0219 O   0  0  0  0  0  0  0  0  0  0  0  0
  -32.6267   61.8710   61.8805 O   0  0  0  0  0  0  0  0  0  0  0  0
  -32.8520   63.3040   62.2226 S   0  0  0  0  0  0  0  0  0  0  0  0
  -32.0323   64.6126   63.5459 H   0  0  0  0  0  0  0  0  0  0  0  0
  -32.8078   61.3204   62.6583 H   0  0  0  0  0  0  0  0  0  0  0  0
  2  1  1  0  0  0
  2  4  1  0  0  0
  2  5  1  0  0  0
 41 42  1  0  0  0
 41  1  1  0  0  0
 42 46  1  0  0  0
  1 24  1  0  0  0
 23 24  1  0  0  0
 23 25  1  0  0  0
 24 26  1  0  0  0
  3  4  2  0  0  0
 26 27  2  0  0  0
 27 28  1  0  0  0
 43 47  1  0  0  0
 43 51  1  0  0  0
 28 29  1  0  0  0
 56 48  1  0  0  0
 56 60  1  0  0  0
 29 30  1  0  0  0
 57 60  1  0  0  0
 57 61  1  0  0  0
 30 31  1  0  0  0
 44 49  1  0  0  0
 44 52  1  0  0  0
 31 32  1  0  0  0
 45 46  1  0  0  0
 45 50  1  0  0  0
 32 33  1  0  0  0
 53 54  1  0  0  0
 53 55  1  0  0  0
 33 34  1  0  0  0
 34 35  1  0  0  0
 35 36  1  0  0  0
 58 60  1  0  0  0
 36 37  1  0  0  0
 59 60  1  0  0  0
 59 62  1  0  0  0
 37 38  1  0  0  0
 38 39  1  0  0  0
 39 40  1  0  0  0
  4  6  1  0  0  0
  6  7  1  0  0  0
  7  8  1  0  0  0
  8  9  1  0  0  0
  9 10  1  0  0  0
 10 11  1  0  0  0
 11 12  1  0  0  0
 12 13  1  0  0  0
 13 14  1  0  0  0
 14 15  1  0  0  0
 15 16  1  0  0  0
 16 17  1  0  0  0
 17 18  1  0  0  0
 18 19  1  0  0  0
 19 20  1  0  0  0
 20 21  1  0  0  0
 21 22  1  0  0  0
 46 47  1  0  0  0
 47 48  1  0  0  0
 48 49  1  0  0  0
 49 50  1  0  0  0
 50 54  1  0  0  0
M  CHG 1  58  -1
M  END
> <minimizedAffinity>
-9.67905

> <CNNscore>
0.1843201816

> <CNNaffinity>
7.0915656090

> <CNN_VS>
1.3071186543

> <CNNaffinity_variance>
1.6365773678

$$$$
/media/chris/experiments/cd1a-new-docking/inputs/ligands/1onq_ligand.pdb


 62 62  0  0  0  0  0  0  0  0999 V2000
  -39.5178   60.5692   63.7392 C   0  0  0  0  0  0  0  0  0  0  0  0
  -40.8738   61.0780   63.6791 N   0  0  0  0  0  0  0  0  0  0  0  0
  -41.4808   60.5617   61.5548 O   0  0  0  0  0  0  0  0  0  0  0  0
  -41.7242   61.0433   62.6441 C   0  0  0  0  0  0  0  0  0  0  0  0
  -41.2120   61.5017   64.5008 H   0  0  0  0  0  0  0  0  0  0  0  0
  -43.0703   61.6518   62.9042 C   0  0  0  0  0  0  0  0  0  0  0  0
  -43.4593   61.2509   64.3273 C   0  0  0  0  0  0  0  0  0  0  0  0
  -44.9790   61.2564   64.4737 C   0  0  0  0  0  0  0  0  0  0  0  0
  -45.5603   60.2129   65.3966 C   0  0  0  0  0  0  0  0  0  0  0  0
  -46.6337   59.4574   64.6202 C   0  0  0  0  0  0  0  0  0  0  0  0
  -47.9757   60.2012   64.5871 C   0  0  0  0  0  0  0  0  0  0  0  0
  -48.8415   59.9991   65.8441 C   0  0  0  0  0  0  0  0  0  0  0  0
  -50.2977   59.6045   65.5131 C   0  0  0  0  0  0  0  0  0  0  0  0
  -50.8678   60.5124   64.4196 C   0  0  0  0  0  0  0  0  0  0  0  0
  -51.5954   59.7874   63.2939 C   0  0  0  0  0  0  0  0  0  0  0  0
  -50.6503   59.3444   62.1867 C   0  0  0  0  0  0  0  0  0  0  0  0
  -50.7953   57.8938   61.7211 C   0  0  0  0  0  0  0  0  0  0  0  0
  -49.9877   57.7219   60.4416 C   0  0  0  0  0  0  0  0  0  0  0  0
  -49.1463   58.8897   59.9480 C   0  0  0  0  0  0  0  0  0  0  0  0
  -48.2785   58.4742   58.7495 C   0  0  0  0  0  0  0  0  0  0  0  0
  -47.4769   57.1766   58.9609 C   0  0  0  0  0  0  0  0  0  0  0  0
  -47.6489   56.1688   57.8267 C   0  0  0  0  0  0  0  0  0  0  0  0
  -39.4501   61.3447   65.9278 O   0  0  0  0  0  0  0  0  0  0  0  0
  -39.3901   60.1381   65.1902 C   0  0  0  0  0  0  0  0  0  0  0  0
  -40.3064   61.7745   65.7756 H   0  0  0  0  0  0  0  0  0  0  0  0
  -38.0597   59.4076   65.3868 C   0  0  0  0  0  0  0  0  0  0  0  0
  -37.8854   58.1099   65.0832 C   0  0  0  0  0  0  0  0  0  0  0  0
  -36.5254   57.4522   65.3096 C   0  0  0  0  0  0  0  0  0  0  0  0
  -35.5233   57.6882   64.1702 C   0  0  0  0  0  0  0  0  0  0  0  0
  -36.0258   57.3379   62.7574 C   0  0  0  0  0  0  0  0  0  0  0  0
  -36.5391   58.6026   62.0277 C   0  0  0  0  0  0  0  0  0  0  0  0
  -37.6407   58.3532   60.9667 C   0  0  0  0  0  0  0  0  0  0  0  0
  -38.8588   57.5583   61.4931 C   0  0  0  0  0  0  0  0  0  0  0  0
  -40.0450   57.5203   60.5053 C   0  0  0  0  0  0  0  0  0  0  0  0
  -41.3420   56.9782   61.1180 C   0  0  0  0  0  0  0  0  0  0  0  0
  -41.1916   55.7895   62.0650 C   0  0  0  0  0  0  0  0  0  0  0  0
  -41.7600   56.0376   63.4761 C   0  0  0  0  0  0  0  0  0  0  0  0
  -41.4366   57.4128   64.0798 C   0  0  0  0  0  0  0  0  0  0  0  0
  -42.3484   57.7183   65.2715 C   0  0  0  0  0  0  0  0  0  0  0  0
  -43.7398   57.1117   65.2301 C   0  0  0  0  0  0  0  0  0  0  0  0
  -38.4264   61.5165   63.1911 C   0  0  0  0  0  0  0  0  0  0  0  0
  -37.5981   62.1884   64.1738 O   0  0  0  0  0  0  0  0  0  0  0  0
  -34.9577   61.2735   63.5667 O   0  0  0  0  0  0  0  0  0  0  0  0
  -35.2183   64.1484   60.5558 O   0  0  0  0  0  0  0  0  0  0  0  0
  -36.9154   64.2323   63.0594 O   0  0  0  0  0  0  0  0  0  0  0  0
  -36.4698   63.0483   63.7644 C   0  0  0  0  0  0  0  0  0  0  0  0
  -35.4106   62.3915   62.8674 C   0  0  0  0  0  0  0  0  0  0  0  0
  -34.1987   63.3015   62.5703 C   0  0  0  0  0  0  0  0  0  0  0  0
  -34.7429   64.5051   61.8515 C   0  0  0  0  0  0  0  0  0  0  0  0
  -35.8475   65.1403   62.6765 C   0  0  0  0  0  0  0  0  0  0  0  0
  -35.7068   60.6893   63.7625 H   0  0  0  0  0  0  0  0  0  0  0  0
  -34.4977   63.7452   60.0466 H   0  0  0  0  0  0  0  0  0  0  0  0
  -35.1184   66.9811   61.3373 O   0  0  0  0  0  0  0  0  0  0  0  0
  -36.2577   66.3078   61.7818 C   0  0  0  0  0  0  0  0  0  0  0  0
  -35.3816   67.7220   60.7693 H   0  0  0  0  0  0  0  0  0  0  0  0
  -33.1827   62.7431   61.7066 O   0  0  0  0  0  0  0  0  0  0  0  0
  -32.1748   60.7633   63.0415 O   0  0  0  0  0  0  0  0  0  0  0  0
  -31.1513   62.9580   63.1994 O   0  0  0  0  0  0  0  0  0  0  0  0
  -30.8454   61.6105   61.2082 O   0  0  0  0  0  0  0  0  0  0  0  0
  -31.8103   61.9932   62.2778 S   0  0  0  0  0  0  0  0  0  0  0  0
  -32.8036   60.9932   63.7434 H   0  0  0  0  0  0  0  0  0  0  0  0
  -31.2670   60.9811   60.6023 H   0  0  0  0  0  0  0  0  0  0  0  0
  2  1  1  0  0  0
  2  4  1  0  0  0
  2  5  1  0  0  0
 41 42  1  0  0  0
 41  1  1  0  0  0
 42 46  1  0  0  0
  1 24  1  0  0  0
 23 24  1  0  0  0
 23 25  1  0  0  0
 24 26  1  0  0  0
  3  4  2  0  0  0
 26 27  2  0  0  0
 27 28  1  0  0  0
 43 47  1  0  0  0
 43 51  1  0  0  0
 28 29  1  0  0  0
 56 48  1  0  0  0
 56 60  1  0  0  0
 29 30  1  0  0  0
 57 60  1  0  0  0
 57 61  1  0  0  0
 30 31  1  0  0  0
 44 49  1  0  0  0
 44 52  1  0  0  0
 31 32  1  0  0  0
 45 46  1  0  0  0
 45 50  1  0  0  0
 32 33  1  0  0  0
 53 54  1  0  0  0
 53 55  1  0  0  0
 33 34  1  0  0  0
 34 35  1  0  0  0
 35 36  1  0  0  0
 58 60  1  0  0  0
 36 37  1  0  0  0
 59 60  1  0  0  0
 59 62  1  0  0  0
 37 38  1  0  0  0
 38 39  1  0  0  0
 39 40  1  0  0  0
  4  6  1  0  0  0
  6  7  1  0  0  0
  7  8  1  0  0  0
  8  9  1  0  0  0
  9 10  1  0  0  0
 10 11  1  0  0  0
 11 12  1  0  0  0
 12 13  1  0  0  0
 13 14  1  0  0  0
 14 15  1  0  0  0
 15 16  1  0  0  0
 16 17  1  0  0  0
 17 18  1  0  0  0
 18 19  1  0  0  0
 19 20  1  0  0  0
 20 21  1  0  0  0
 21 22  1  0  0  0
 46 47  1  0  0  0
 47 48  1  0  0  0
 48 49  1  0  0  0
 49 50  1  0  0  0
 50 54  1  0  0  0
M  CHG 1  58  -1
M  END
> <minimizedAffinity>
-9.25235

> <CNNscore>
0.1745204329

> <CNNaffinity>
7.0777673721

> <CNN_VS>
1.2352150679

> <CNNaffinity_variance>
1.1739150286

$$$$
/media/chris/experiments/cd1a-new-docking/inputs/ligands/1onq_ligand.pdb


 62 62  0  0  0  0  0  0  0  0999 V2000
  -41.5727   59.3765   64.0882 C   0  0  0  0  0  0  0  0  0  0  0  0
  -41.2343   58.5836   62.9229 N   0  0  0  0  0  0  0  0  0  0  0  0
  -41.4463   56.4667   63.7111 O   0  0  0  0  0  0  0  0  0  0  0  0
  -41.1949   57.2485   62.8148 C   0  0  0  0  0  0  0  0  0  0  0  0
  -41.0049   59.0888   62.1096 H   0  0  0  0  0  0  0  0  0  0  0  0
  -40.8133   56.7294   61.4603 C   0  0  0  0  0  0  0  0  0  0  0  0
  -41.4395   57.6800   60.4398 C   0  0  0  0  0  0  0  0  0  0  0  0
  -40.3940   58.1025   59.4105 C   0  0  0  0  0  0  0  0  0  0  0  0
  -39.3691   59.1064   59.8797 C   0  0  0  0  0  0  0  0  0  0  0  0
  -38.0653   58.3539   60.1244 C   0  0  0  0  0  0  0  0  0  0  0  0
  -37.3418   58.8189   61.3954 C   0  0  0  0  0  0  0  0  0  0  0  0
  -37.4832   57.8586   62.5906 C   0  0  0  0  0  0  0  0  0  0  0  0
  -36.1217   57.4287   63.1797 C   0  0  0  0  0  0  0  0  0  0  0  0
  -35.1594   58.6184   63.2394 C   0  0  0  0  0  0  0  0  0  0  0  0
  -33.9116   58.4827   62.3752 C   0  0  0  0  0  0  0  0  0  0  0  0
  -32.6413   58.3832   63.2068 C   0  0  0  0  0  0  0  0  0  0  0  0
  -31.7124   59.5986   63.1611 C   0  0  0  0  0  0  0  0  0  0  0  0
  -31.6940   60.1297   61.7340 C   0  0  0  0  0  0  0  0  0  0  0  0
  -31.0583   61.4865   61.4691 C   0  0  0  0  0  0  0  0  0  0  0  0
  -29.5552   61.4613   61.7884 C   0  0  0  0  0  0  0  0  0  0  0  0
  -29.0530   62.6739   62.5938 C   0  0  0  0  0  0  0  0  0  0  0  0
  -30.1167   63.7521   62.7884 C   0  0  0  0  0  0  0  0  0  0  0  0
  -42.5743   61.4719   64.0451 O   0  0  0  0  0  0  0  0  0  0  0  0
  -42.8013   60.1397   63.6238 C   0  0  0  0  0  0  0  0  0  0  0  0
  -41.7773   61.8164   63.6126 H   0  0  0  0  0  0  0  0  0  0  0  0
  -44.0489   59.5346   64.2717 C   0  0  0  0  0  0  0  0  0  0  0  0
  -43.9939   58.5669   65.2028 C   0  0  0  0  0  0  0  0  0  0  0  0
  -45.2856   58.0137   65.8015 C   0  0  0  0  0  0  0  0  0  0  0  0
  -45.9173   58.9234   66.8653 C   0  0  0  0  0  0  0  0  0  0  0  0
  -47.3248   59.4550   66.5370 C   0  0  0  0  0  0  0  0  0  0  0  0
  -47.3787   60.0122   65.0941 C   0  0  0  0  0  0  0  0  0  0  0  0
  -48.7246   60.6629   64.6858 C   0  0  0  0  0  0  0  0  0  0  0  0
  -49.9732   59.8512   65.1040 C   0  0  0  0  0  0  0  0  0  0  0  0
  -51.2686   60.3016   64.3946 C   0  0  0  0  0  0  0  0  0  0  0  0
  -51.4728   59.6613   63.0163 C   0  0  0  0  0  0  0  0  0  0  0  0
  -50.6202   58.4307   62.7148 C   0  0  0  0  0  0  0  0  0  0  0  0
  -50.9129   57.7867   61.3452 C   0  0  0  0  0  0  0  0  0  0  0  0
  -50.1748   58.4166   60.1543 C   0  0  0  0  0  0  0  0  0  0  0  0
  -48.7234   57.9330   60.0887 C   0  0  0  0  0  0  0  0  0  0  0  0
  -48.1493   57.7062   58.7014 C   0  0  0  0  0  0  0  0  0  0  0  0
  -40.4155   60.2084   64.6862 C   0  0  0  0  0  0  0  0  0  0  0  0
  -39.2699   60.4370   63.8267 O   0  0  0  0  0  0  0  0  0  0  0  0
  -37.7316   60.8748   66.1972 O   0  0  0  0  0  0  0  0  0  0  0  0
  -34.8286   62.0910   63.4600 O   0  0  0  0  0  0  0  0  0  0  0  0
  -37.7856   62.0700   62.8189 O   0  0  0  0  0  0  0  0  0  0  0  0
  -38.3575   61.5753   64.0541 C   0  0  0  0  0  0  0  0  0  0  0  0
  -37.1741   61.3147   64.9973 C   0  0  0  0  0  0  0  0  0  0  0  0
  -36.3250   62.5714   65.2890 C   0  0  0  0  0  0  0  0  0  0  0  0
  -35.7788   63.0266   63.9639 C   0  0  0  0  0  0  0  0  0  0  0  0
  -36.9172   63.2239   62.9794 C   0  0  0  0  0  0  0  0  0  0  0  0
  -38.2696   60.0845   66.0332 H   0  0  0  0  0  0  0  0  0  0  0  0
  -34.1113   61.9802   64.1036 H   0  0  0  0  0  0  0  0  0  0  0  0
  -35.1750   64.5896   62.0776 O   0  0  0  0  0  0  0  0  0  0  0  0
  -36.1602   63.6641   61.7283 C   0  0  0  0  0  0  0  0  0  0  0  0
  -34.6958   64.8675   61.2814 H   0  0  0  0  0  0  0  0  0  0  0  0
  -35.1802   62.3775   66.1502 O   0  0  0  0  0  0  0  0  0  0  0  0
  -35.1128   64.6889   67.3208 O   0  0  0  0  0  0  0  0  0  0  0  0
  -33.5301   64.1983   65.5477 O   0  0  0  0  0  0  0  0  0  0  0  0
  -33.2434   63.2152   67.7445 O   0  0  0  0  0  0  0  0  0  0  0  0
  -34.2457   63.6309   66.7227 S   0  0  0  0  0  0  0  0  0  0  0  0
  -35.7728   64.9725   66.6690 H   0  0  0  0  0  0  0  0  0  0  0  0
  -33.7016   62.8438   68.5146 H   0  0  0  0  0  0  0  0  0  0  0  0
  2  1  1  0  0  0
  2  4  1  0  0  0
  2  5  1  0  0  0
 41 42  1  0  0  0
 41  1  1  0  0  0
 42 46  1  0  0  0
  1 24  1  0  0  0
 23 24  1  0  0  0
 23 25  1  0  0  0
 24 26  1  0  0  0
  3  4  2  0  0  0
 26 27  2  0  0  0
 27 28  1  0  0  0
 43 47  1  0  0  0
 43 51  1  0  0  0
 28 29  1  0  0  0
 56 48  1  0  0  0
 56 60  1  0  0  0
 29 30  1  0  0  0
 57 60  1  0  0  0
 57 61  1  0  0  0
 30 31  1  0  0  0
 44 49  1  0  0  0
 44 52  1  0  0  0
 31 32  1  0  0  0
 45 46  1  0  0  0
 45 50  1  0  0  0
 32 33  1  0  0  0
 53 54  1  0  0  0
 53 55  1  0  0  0
 33 34  1  0  0  0
 34 35  1  0  0  0
 35 36  1  0  0  0
 58 60  1  0  0  0
 36 37  1  0  0  0
 59 60  1  0  0  0
 59 62  1  0  0  0
 37 38  1  0  0  0
 38 39  1  0  0  0
 39 40  1  0  0  0
  4  6  1  0  0  0
  6  7  1  0  0  0
  7  8  1  0  0  0
  8  9  1  0  0  0
  9 10  1  0  0  0
 10 11  1  0  0  0
 11 12  1  0  0  0
 12 13  1  0  0  0
 13 14  1  0  0  0
 14 15  1  0  0  0
 15 16  1  0  0  0
 16 17  1  0  0  0
 17 18  1  0  0  0
 18 19  1  0  0  0
 19 20  1  0  0  0
 20 21  1  0  0  0
 21 22  1  0  0  0
 46 47  1  0  0  0
 47 48  1  0  0  0
 48 49  1  0  0  0
 49 50  1  0  0  0
 50 54  1  0  0  0
M  CHG 1  58  -1
M  END
> <minimizedAffinity>
-9.04547

> <CNNscore>
0.1709684581

> <CNNaffinity>
6.7021379471

> <CNN_VS>
1.1458542347

> <CNNaffinity_variance>
1.2478622198

$$$$
/media/chris/experiments/cd1a-new-docking/inputs/ligands/1onq_ligand.pdb


 62 62  0  0  0  0  0  0  0  0999 V2000
  -39.4154   60.4834   63.9441 C   0  0  0  0  0  0  0  0  0  0  0  0
  -40.7905   60.9412   63.9695 N   0  0  0  0  0  0  0  0  0  0  0  0
  -41.3036   61.0256   61.7611 O   0  0  0  0  0  0  0  0  0  0  0  0
  -41.6043   61.1710   62.9300 C   0  0  0  0  0  0  0  0  0  0  0  0
  -41.1744   61.1035   64.8615 H   0  0  0  0  0  0  0  0  0  0  0  0
  -42.9845   61.6343   63.2908 C   0  0  0  0  0  0  0  0  0  0  0  0
  -43.0432   61.6727   64.8180 C   0  0  0  0  0  0  0  0  0  0  0  0
  -44.1790   60.7839   65.3189 C   0  0  0  0  0  0  0  0  0  0  0  0
  -45.4413   60.7911   64.4912 C   0  0  0  0  0  0  0  0  0  0  0  0
  -46.4097   59.7940   65.1190 C   0  0  0  0  0  0  0  0  0  0  0  0
  -47.8662   60.0399   64.7031 C   0  0  0  0  0  0  0  0  0  0  0  0
  -48.8655   60.0467   65.8744 C   0  0  0  0  0  0  0  0  0  0  0  0
  -50.2763   59.5713   65.4629 C   0  0  0  0  0  0  0  0  0  0  0  0
  -50.8563   60.4798   64.3753 C   0  0  0  0  0  0  0  0  0  0  0  0
  -51.5777   59.7543   63.2458 C   0  0  0  0  0  0  0  0  0  0  0  0
  -50.6112   59.0951   62.2730 C   0  0  0  0  0  0  0  0  0  0  0  0
  -49.6289   60.0311   61.5651 C   0  0  0  0  0  0  0  0  0  0  0  0
  -49.5094   59.5858   60.1138 C   0  0  0  0  0  0  0  0  0  0  0  0
  -49.5649   58.0978   59.8007 C   0  0  0  0  0  0  0  0  0  0  0  0
  -48.1640   57.4692   59.8680 C   0  0  0  0  0  0  0  0  0  0  0  0
  -47.6081   57.0014   58.5103 C   0  0  0  0  0  0  0  0  0  0  0  0
  -47.2567   58.1538   57.5721 C   0  0  0  0  0  0  0  0  0  0  0  0
  -39.3241   61.0913   66.1842 O   0  0  0  0  0  0  0  0  0  0  0  0
  -39.2180   59.9506   65.3529 C   0  0  0  0  0  0  0  0  0  0  0  0
  -40.2080   61.4796   66.0891 H   0  0  0  0  0  0  0  0  0  0  0  0
  -37.8422   59.2879   65.4560 C   0  0  0  0  0  0  0  0  0  0  0  0
  -37.6487   57.9707   65.2718 C   0  0  0  0  0  0  0  0  0  0  0  0
  -36.2434   57.3845   65.3929 C   0  0  0  0  0  0  0  0  0  0  0  0
  -35.2378   57.9679   64.3896 C   0  0  0  0  0  0  0  0  0  0  0  0
  -35.3012   57.3838   62.9662 C   0  0  0  0  0  0  0  0  0  0  0  0
  -36.4446   58.0387   62.1542 C   0  0  0  0  0  0  0  0  0  0  0  0
  -37.6101   57.0921   61.7706 C   0  0  0  0  0  0  0  0  0  0  0  0
  -38.9580   57.4419   62.4440 C   0  0  0  0  0  0  0  0  0  0  0  0
  -40.1116   56.4966   62.0443 C   0  0  0  0  0  0  0  0  0  0  0  0
  -41.4266   57.2227   61.7361 C   0  0  0  0  0  0  0  0  0  0  0  0
  -41.7573   57.4140   60.2574 C   0  0  0  0  0  0  0  0  0  0  0  0
  -41.0096   58.5883   59.5956 C   0  0  0  0  0  0  0  0  0  0  0  0
  -39.8519   58.1881   58.6686 C   0  0  0  0  0  0  0  0  0  0  0  0
  -38.5577   58.9047   59.0642 C   0  0  0  0  0  0  0  0  0  0  0  0
  -38.7026   60.0945   59.9964 C   0  0  0  0  0  0  0  0  0  0  0  0
  -38.3809   61.5114   63.4324 C   0  0  0  0  0  0  0  0  0  0  0  0
  -37.7121   62.3137   64.4385 O   0  0  0  0  0  0  0  0  0  0  0  0
  -34.9623   61.5463   64.6022 O   0  0  0  0  0  0  0  0  0  0  0  0
  -34.6882   63.7120   61.0479 O   0  0  0  0  0  0  0  0  0  0  0  0
  -36.8984   64.1434   63.0689 O   0  0  0  0  0  0  0  0  0  0  0  0
  -36.5635   63.1744   64.0918 C   0  0  0  0  0  0  0  0  0  0  0  0
  -35.3023   62.4513   63.5975 C   0  0  0  0  0  0  0  0  0  0  0  0
  -34.0995   63.3916   63.3643 C   0  0  0  0  0  0  0  0  0  0  0  0
  -34.5282   64.3675   62.3036 C   0  0  0  0  0  0  0  0  0  0  0  0
  -35.8168   65.0506   62.7246 C   0  0  0  0  0  0  0  0  0  0  0  0
  -35.7074   60.9464   64.7627 H   0  0  0  0  0  0  0  0  0  0  0  0
  -33.8546   63.2831   60.7985 H   0  0  0  0  0  0  0  0  0  0  0  0
  -37.1046   66.8591   61.8388 O   0  0  0  0  0  0  0  0  0  0  0  0
  -36.0745   65.9683   61.5315 C   0  0  0  0  0  0  0  0  0  0  0  0
  -37.2662   67.4407   61.0795 H   0  0  0  0  0  0  0  0  0  0  0  0
  -32.8924   62.7671   62.8714 O   0  0  0  0  0  0  0  0  0  0  0  0
  -31.2767   64.5812   63.7747 O   0  0  0  0  0  0  0  0  0  0  0  0
  -31.5488   64.3060   61.3790 O   0  0  0  0  0  0  0  0  0  0  0  0
  -30.2578   62.6977   62.6521 O   0  0  0  0  0  0  0  0  0  0  0  0
  -31.4552   63.5848   62.6773 S   0  0  0  0  0  0  0  0  0  0  0  0
  -32.0480   65.1685   63.8066 H   0  0  0  0  0  0  0  0  0  0  0  0
  -30.1889   62.2233   63.4954 H   0  0  0  0  0  0  0  0  0  0  0  0
  2  1  1  0  0  0
  2  4  1  0  0  0
  2  5  1  0  0  0
 41 42  1  0  0  0
 41  1  1  0  0  0
 42 46  1  0  0  0
  1 24  1  0  0  0
 23 24  1  0  0  0
 23 25  1  0  0  0
 24 26  1  0  0  0
  3  4  2  0  0  0
 26 27  2  0  0  0
 27 28  1  0  0  0
 43 47  1  0  0  0
 43 51  1  0  0  0
 28 29  1  0  0  0
 56 48  1  0  0  0
 56 60  1  0  0  0
 29 30  1  0  0  0
 57 60  1  0  0  0
 57 61  1  0  0  0
 30 31  1  0  0  0
 44 49  1  0  0  0
 44 52  1  0  0  0
 31 32  1  0  0  0
 45 46  1  0  0  0
 45 50  1  0  0  0
 32 33  1  0  0  0
 53 54  1  0  0  0
 53 55  1  0  0  0
 33 34  1  0  0  0
 34 35  1  0  0  0
 35 36  1  0  0  0
 58 60  1  0  0  0
 36 37  1  0  0  0
 59 60  1  0  0  0
 59 62  1  0  0  0
 37 38  1  0  0  0
 38 39  1  0  0  0
 39 40  1  0  0  0
  4  6  1  0  0  0
  6  7  1  0  0  0
  7  8  1  0  0  0
  8  9  1  0  0  0
  9 10  1  0  0  0
 10 11  1  0  0  0
 11 12  1  0  0  0
 12 13  1  0  0  0
 13 14  1  0  0  0
 14 15  1  0  0  0
 15 16  1  0  0  0
 16 17  1  0  0  0
 17 18  1  0  0  0
 18 19  1  0  0  0
 19 20  1  0  0  0
 20 21  1  0  0  0
 21 22  1  0  0  0
 46 47  1  0  0  0
 47 48  1  0  0  0
 48 49  1  0  0  0
 49 50  1  0  0  0
 50 54  1  0  0  0
M  CHG 1  58  -1
M  END
> <minimizedAffinity>
-9.20097

> <CNNscore>
0.1601020545

> <CNNaffinity>
6.8474817276

> <CNN_VS>
1.0962958336

> <CNNaffinity_variance>
1.3396015167

$$$$
