/media/chris/experiments/cd1a-new-docking/inputs/ligands/1onq_ligand.pdb


 62 62  0  0  0  0  0  0  0  0999 V2000
  -41.5762   59.8047   65.5966 C   0  0  0  0  0  0  0  0  0  0  0  0
  -41.5140   58.5722   64.8361 N   0  0  0  0  0  0  0  0  0  0  0  0
  -42.8216   57.1873   66.0688 O   0  0  0  0  0  0  0  0  0  0  0  0
  -42.1100   57.4031   65.1071 C   0  0  0  0  0  0  0  0  0  0  0  0
  -40.9656   58.5972   64.0189 H   0  0  0  0  0  0  0  0  0  0  0  0
  -41.8536   56.3108   64.1116 C   0  0  0  0  0  0  0  0  0  0  0  0
  -41.0081   56.9292   62.9980 C   0  0  0  0  0  0  0  0  0  0  0  0
  -41.8679   57.1601   61.7576 C   0  0  0  0  0  0  0  0  0  0  0  0
  -41.2225   56.8329   60.4329 C   0  0  0  0  0  0  0  0  0  0  0  0
  -41.3783   58.0526   59.5307 C   0  0  0  0  0  0  0  0  0  0  0  0
  -40.2322   59.0602   59.6924 C   0  0  0  0  0  0  0  0  0  0  0  0
  -38.9096   58.6237   59.0361 C   0  0  0  0  0  0  0  0  0  0  0  0
  -37.7304   58.5807   60.0327 C   0  0  0  0  0  0  0  0  0  0  0  0
  -38.2373   58.3498   61.4592 C   0  0  0  0  0  0  0  0  0  0  0  0
  -37.4023   57.3847   62.2920 C   0  0  0  0  0  0  0  0  0  0  0  0
  -36.5715   58.1015   63.3462 C   0  0  0  0  0  0  0  0  0  0  0  0
  -35.0646   58.1618   63.0861 C   0  0  0  0  0  0  0  0  0  0  0  0
  -34.3956   58.7806   64.3060 C   0  0  0  0  0  0  0  0  0  0  0  0
  -32.8986   58.5841   64.4950 C   0  0  0  0  0  0  0  0  0  0  0  0
  -32.1525   58.7242   63.1587 C   0  0  0  0  0  0  0  0  0  0  0  0
  -31.4094   60.0609   62.9794 C   0  0  0  0  0  0  0  0  0  0  0  0
  -31.3549   60.5317   61.5279 C   0  0  0  0  0  0  0  0  0  0  0  0
  -42.2626   61.9063   64.8839 O   0  0  0  0  0  0  0  0  0  0  0  0
  -42.7010   60.5606   64.9103 C   0  0  0  0  0  0  0  0  0  0  0  0
  -41.4452   61.9699   64.3654 H   0  0  0  0  0  0  0  0  0  0  0  0
  -43.9914   60.3902   65.7154 C   0  0  0  0  0  0  0  0  0  0  0  0
  -45.1034   59.8329   65.2064 C   0  0  0  0  0  0  0  0  0  0  0  0
  -46.3528   59.6993   66.0749 C   0  0  0  0  0  0  0  0  0  0  0  0
  -47.6687   59.8650   65.3008 C   0  0  0  0  0  0  0  0  0  0  0  0
  -48.9448   59.9257   66.1607 C   0  0  0  0  0  0  0  0  0  0  0  0
  -50.1618   59.3781   65.3768 C   0  0  0  0  0  0  0  0  0  0  0  0
  -50.8865   60.4092   64.4752 C   0  0  0  0  0  0  0  0  0  0  0  0
  -51.1478   59.9160   63.0325 C   0  0  0  0  0  0  0  0  0  0  0  0
  -50.7602   58.4388   62.8052 C   0  0  0  0  0  0  0  0  0  0  0  0
  -49.7944   58.2267   61.6332 C   0  0  0  0  0  0  0  0  0  0  0  0
  -50.4342   57.8797   60.2905 C   0  0  0  0  0  0  0  0  0  0  0  0
  -49.4217   57.7057   59.1413 C   0  0  0  0  0  0  0  0  0  0  0  0
  -48.0079   57.2868   59.5722 C   0  0  0  0  0  0  0  0  0  0  0  0
  -47.0859   57.1341   58.3591 C   0  0  0  0  0  0  0  0  0  0  0  0
  -47.1252   58.2551   57.3358 C   0  0  0  0  0  0  0  0  0  0  0  0
  -40.2330   60.5501   65.7673 C   0  0  0  0  0  0  0  0  0  0  0  0
  -39.5087   60.8675   64.5515 O   0  0  0  0  0  0  0  0  0  0  0  0
  -37.8636   61.3671   62.2666 O   0  0  0  0  0  0  0  0  0  0  0  0
  -36.5453   64.5841   64.5714 O   0  0  0  0  0  0  0  0  0  0  0  0
  -37.8252   62.1185   65.7706 O   0  0  0  0  0  0  0  0  0  0  0  0
  -38.1047   61.3221   64.5936 C   0  0  0  0  0  0  0  0  0  0  0  0
  -37.6273   62.1529   63.3938 C   0  0  0  0  0  0  0  0  0  0  0  0
  -36.1226   62.4982   63.4376 C   0  0  0  0  0  0  0  0  0  0  0  0
  -35.9139   63.3112   64.6854 C   0  0  0  0  0  0  0  0  0  0  0  0
  -36.4429   62.5511   65.8881 C   0  0  0  0  0  0  0  0  0  0  0  0
  -38.8057   61.1400   62.2224 H   0  0  0  0  0  0  0  0  0  0  0  0
  -36.1931   65.0516   63.7979 H   0  0  0  0  0  0  0  0  0  0  0  0
  -35.1093   63.0434   67.8098 O   0  0  0  0  0  0  0  0  0  0  0  0
  -36.1492   63.5349   67.0186 C   0  0  0  0  0  0  0  0  0  0  0  0
  -34.9247   63.6699   68.5270 H   0  0  0  0  0  0  0  0  0  0  0  0
  -35.6244   63.3037   62.3453 O   0  0  0  0  0  0  0  0  0  0  0  0
  -34.0681   65.3473   62.6889 O   0  0  0  0  0  0  0  0  0  0  0  0
  -33.6247   63.7963   60.8758 O   0  0  0  0  0  0  0  0  0  0  0  0
  -33.1123   63.1774   63.1625 O   0  0  0  0  0  0  0  0  0  0  0  0
  -34.0743   63.9087   62.2900 S   0  0  0  0  0  0  0  0  0  0  0  0
  -34.6896   65.8403   62.1307 H   0  0  0  0  0  0  0  0  0  0  0  0
  -33.3980   63.2457   64.0869 H   0  0  0  0  0  0  0  0  0  0  0  0
  2  1  1  0  0  0
  2  4  1  0  0  0
  2  5  1  0  0  0
 41 42  1  0  0  0
 41  1  1  0  0  0
 42 46  1  0  0  0
  1 24  1  0  0  0
 23 24  1  0  0  0
 23 25  1  0  0  0
 24 26  1  0  0  0
  3  4  2  0  0  0
 26 27  2  0  0  0
 27 28  1  0  0  0
 43 47  1  0  0  0
 43 51  1  0  0  0
 28 29  1  0  0  0
 56 48  1  0  0  0
 56 60  1  0  0  0
 29 30  1  0  0  0
 57 60  1  0  0  0
 57 61  1  0  0  0
 30 31  1  0  0  0
 44 49  1  0  0  0
 44 52  1  0  0  0
 31 32  1  0  0  0
 45 46  1  0  0  0
 45 50  1  0  0  0
 32 33  1  0  0  0
 53 54  1  0  0  0
 53 55  1  0  0  0
 33 34  1  0  0  0
 34 35  1  0  0  0
 35 36  1  0  0  0
 58 60  1  0  0  0
 36 37  1  0  0  0
 59 60  1  0  0  0
 59 62  1  0  0  0
 37 38  1  0  0  0
 38 39  1  0  0  0
 39 40  1  0  0  0
  4  6  1  0  0  0
  6  7  1  0  0  0
  7  8  1  0  0  0
  8  9  1  0  0  0
  9 10  1  0  0  0
 10 11  1  0  0  0
 11 12  1  0  0  0
 12 13  1  0  0  0
 13 14  1  0  0  0
 14 15  1  0  0  0
 15 16  1  0  0  0
 16 17  1  0  0  0
 17 18  1  0  0  0
 18 19  1  0  0  0
 19 20  1  0  0  0
 20 21  1  0  0  0
 21 22  1  0  0  0
 46 47  1  0  0  0
 47 48  1  0  0  0
 48 49  1  0  0  0
 49 50  1  0  0  0
 50 54  1  0  0  0
M  CHG 1  58  -1
M  END
> <minimizedAffinity>
-9.79265

> <CNNscore>
0.5195379257

> <CNNaffinity>
7.2756757736

> <CNN_VS>
3.7799894810

> <CNNaffinity_variance>
1.9810911417

$$$$
/media/chris/experiments/cd1a-new-docking/inputs/ligands/1onq_ligand.pdb


 62 62  0  0  0  0  0  0  0  0999 V2000
  -41.5148   60.1110   65.0348 C   0  0  0  0  0  0  0  0  0  0  0  0
  -41.5264   58.7180   64.6344 N   0  0  0  0  0  0  0  0  0  0  0  0
  -42.4053   57.7053   66.4646 O   0  0  0  0  0  0  0  0  0  0  0  0
  -41.9492   57.6593   65.3387 C   0  0  0  0  0  0  0  0  0  0  0  0
  -41.1807   58.5257   63.7329 H   0  0  0  0  0  0  0  0  0  0  0  0
  -41.8368   56.3393   64.6352 C   0  0  0  0  0  0  0  0  0  0  0  0
  -42.1678   56.6019   63.1659 C   0  0  0  0  0  0  0  0  0  0  0  0
  -41.2272   55.8014   62.2684 C   0  0  0  0  0  0  0  0  0  0  0  0
  -41.1771   56.2200   60.8190 C   0  0  0  0  0  0  0  0  0  0  0  0
  -41.4404   57.7212   60.7637 C   0  0  0  0  0  0  0  0  0  0  0  0
  -41.1299   58.3274   59.3885 C   0  0  0  0  0  0  0  0  0  0  0  0
  -39.6410   58.2818   58.9991 C   0  0  0  0  0  0  0  0  0  0  0  0
  -38.8568   59.5229   59.4787 C   0  0  0  0  0  0  0  0  0  0  0  0
  -38.3755   59.3338   60.9202 C   0  0  0  0  0  0  0  0  0  0  0  0
  -37.4135   58.1710   61.1316 C   0  0  0  0  0  0  0  0  0  0  0  0
  -37.8337   57.2773   62.2891 C   0  0  0  0  0  0  0  0  0  0  0  0
  -38.3695   57.9944   63.5304 C   0  0  0  0  0  0  0  0  0  0  0  0
  -37.2819   57.9779   64.5960 C   0  0  0  0  0  0  0  0  0  0  0  0
  -35.8352   57.8011   64.1588 C   0  0  0  0  0  0  0  0  0  0  0  0
  -35.0017   59.0466   64.4995 C   0  0  0  0  0  0  0  0  0  0  0  0
  -33.5718   58.7448   64.9851 C   0  0  0  0  0  0  0  0  0  0  0  0
  -32.5428   58.7239   63.8571 C   0  0  0  0  0  0  0  0  0  0  0  0
  -42.1272   62.1743   64.1609 O   0  0  0  0  0  0  0  0  0  0  0  0
  -42.2504   60.7900   63.8923 C   0  0  0  0  0  0  0  0  0  0  0  0
  -41.1894   62.4224   64.1557 H   0  0  0  0  0  0  0  0  0  0  0  0
  -43.7106   60.3315   63.8860 C   0  0  0  0  0  0  0  0  0  0  0  0
  -44.6219   60.7786   64.7668 C   0  0  0  0  0  0  0  0  0  0  0  0
  -46.0610   60.2715   64.6954 C   0  0  0  0  0  0  0  0  0  0  0  0
  -46.6427   59.8580   66.0551 C   0  0  0  0  0  0  0  0  0  0  0  0
  -47.9194   58.9988   66.0005 C   0  0  0  0  0  0  0  0  0  0  0  0
  -49.1833   59.8863   66.1015 C   0  0  0  0  0  0  0  0  0  0  0  0
  -50.4390   59.3341   65.3804 C   0  0  0  0  0  0  0  0  0  0  0  0
  -51.1355   60.3552   64.4503 C   0  0  0  0  0  0  0  0  0  0  0  0
  -51.1675   59.9198   62.9693 C   0  0  0  0  0  0  0  0  0  0  0  0
  -50.8329   58.4391   62.7532 C   0  0  0  0  0  0  0  0  0  0  0  0
  -49.6109   58.1467   61.8849 C   0  0  0  0  0  0  0  0  0  0  0  0
  -49.9512   57.8001   60.4220 C   0  0  0  0  0  0  0  0  0  0  0  0
  -49.1597   58.5822   59.3628 C   0  0  0  0  0  0  0  0  0  0  0  0
  -47.9020   57.8175   58.9404 C   0  0  0  0  0  0  0  0  0  0  0  0
  -47.3940   58.0781   57.5336 C   0  0  0  0  0  0  0  0  0  0  0  0
  -40.1300   60.6829   65.4147 C   0  0  0  0  0  0  0  0  0  0  0  0
  -39.3305   61.2194   64.3301 O   0  0  0  0  0  0  0  0  0  0  0  0
  -37.4391   61.7136   62.2430 O   0  0  0  0  0  0  0  0  0  0  0  0
  -36.1717   64.7373   64.8218 O   0  0  0  0  0  0  0  0  0  0  0  0
  -37.7068   62.3073   65.7672 O   0  0  0  0  0  0  0  0  0  0  0  0
  -37.9135   61.5823   64.5306 C   0  0  0  0  0  0  0  0  0  0  0  0
  -37.2710   62.4330   63.4255 C   0  0  0  0  0  0  0  0  0  0  0  0
  -35.7606   62.6805   63.6321 C   0  0  0  0  0  0  0  0  0  0  0  0
  -35.6303   63.4234   64.9331 C   0  0  0  0  0  0  0  0  0  0  0  0
  -36.3203   62.6463   66.0396 C   0  0  0  0  0  0  0  0  0  0  0  0
  -38.3838   61.5485   62.0965 H   0  0  0  0  0  0  0  0  0  0  0  0
  -35.7173   65.2150   64.1103 H   0  0  0  0  0  0  0  0  0  0  0  0
  -36.1760   62.8170   68.4194 O   0  0  0  0  0  0  0  0  0  0  0  0
  -36.0838   63.5593   67.2407 C   0  0  0  0  0  0  0  0  0  0  0  0
  -36.0255   63.3990   69.1807 H   0  0  0  0  0  0  0  0  0  0  0  0
  -35.1097   63.4998   62.6346 O   0  0  0  0  0  0  0  0  0  0  0  0
  -33.2903   63.6695   60.7967 O   0  0  0  0  0  0  0  0  0  0  0  0
  -33.1327   61.9287   62.4801 O   0  0  0  0  0  0  0  0  0  0  0  0
  -32.5997   64.2243   63.0465 O   0  0  0  0  0  0  0  0  0  0  0  0
  -33.4990   63.3510   62.2402 S   0  0  0  0  0  0  0  0  0  0  0  0
  -33.8684   63.1097   60.2551 H   0  0  0  0  0  0  0  0  0  0  0  0
  -32.8317   65.1539   62.8959 H   0  0  0  0  0  0  0  0  0  0  0  0
  2  1  1  0  0  0
  2  4  1  0  0  0
  2  5  1  0  0  0
 41 42  1  0  0  0
 41  1  1  0  0  0
 42 46  1  0  0  0
  1 24  1  0  0  0
 23 24  1  0  0  0
 23 25  1  0  0  0
 24 26  1  0  0  0
  3  4  2  0  0  0
 26 27  2  0  0  0
 27 28  1  0  0  0
 43 47  1  0  0  0
 43 51  1  0  0  0
 28 29  1  0  0  0
 56 48  1  0  0  0
 56 60  1  0  0  0
 29 30  1  0  0  0
 57 60  1  0  0  0
 57 61  1  0  0  0
 30 31  1  0  0  0
 44 49  1  0  0  0
 44 52  1  0  0  0
 31 32  1  0  0  0
 45 46  1  0  0  0
 45 50  1  0  0  0
 32 33  1  0  0  0
 53 54  1  0  0  0
 53 55  1  0  0  0
 33 34  1  0  0  0
 34 35  1  0  0  0
 35 36  1  0  0  0
 58 60  1  0  0  0
 36 37  1  0  0  0
 59 60  1  0  0  0
 59 62  1  0  0  0
 37 38  1  0  0  0
 38 39  1  0  0  0
 39 40  1  0  0  0
  4  6  1  0  0  0
  6  7  1  0  0  0
  7  8  1  0  0  0
  8  9  1  0  0  0
  9 10  1  0  0  0
 10 11  1  0  0  0
 11 12  1  0  0  0
 12 13  1  0  0  0
 13 14  1  0  0  0
 14 15  1  0  0  0
 15 16  1  0  0  0
 16 17  1  0  0  0
 17 18  1  0  0  0
 18 19  1  0  0  0
 19 20  1  0  0  0
 20 21  1  0  0  0
 21 22  1  0  0  0
 46 47  1  0  0  0
 47 48  1  0  0  0
 48 49  1  0  0  0
 49 50  1  0  0  0
 50 54  1  0  0  0
M  CHG 1  58  -1
M  END
> <minimizedAffinity>
-9.91740

> <CNNscore>
0.3212974370

> <CNNaffinity>
7.2261099815

> <CNN_VS>
2.3217306137

> <CNNaffinity_variance>
2.0748732090

$$$$
/media/chris/experiments/cd1a-new-docking/inputs/ligands/1onq_ligand.pdb


 62 62  0  0  0  0  0  0  0  0999 V2000
  -40.5146   60.0813   64.1176 C   0  0  0  0  0  0  0  0  0  0  0  0
  -41.7770   60.7086   64.4553 N   0  0  0  0  0  0  0  0  0  0  0  0
  -42.8681   60.6806   62.4663 O   0  0  0  0  0  0  0  0  0  0  0  0
  -42.8189   60.9551   63.6495 C   0  0  0  0  0  0  0  0  0  0  0  0
  -41.8820   60.9883   65.3933 H   0  0  0  0  0  0  0  0  0  0  0  0
  -43.9931   61.6152   64.3093 C   0  0  0  0  0  0  0  0  0  0  0  0
  -44.7036   60.5287   65.1167 C   0  0  0  0  0  0  0  0  0  0  0  0
  -46.1942   60.5243   64.7863 C   0  0  0  0  0  0  0  0  0  0  0  0
  -46.7996   59.1781   64.4702 C   0  0  0  0  0  0  0  0  0  0  0  0
  -47.7024   58.7933   65.6376 C   0  0  0  0  0  0  0  0  0  0  0  0
  -48.6143   59.9431   66.0861 C   0  0  0  0  0  0  0  0  0  0  0  0
  -50.0743   59.8126   65.6150 C   0  0  0  0  0  0  0  0  0  0  0  0
  -50.3699   60.6347   64.3413 C   0  0  0  0  0  0  0  0  0  0  0  0
  -51.1387   59.7911   63.3204 C   0  0  0  0  0  0  0  0  0  0  0  0
  -50.5435   58.4165   63.0406 C   0  0  0  0  0  0  0  0  0  0  0  0
  -49.4190   58.4717   62.0170 C   0  0  0  0  0  0  0  0  0  0  0  0
  -49.5770   59.5080   60.9020 C   0  0  0  0  0  0  0  0  0  0  0  0
  -49.5828   58.7742   59.5678 C   0  0  0  0  0  0  0  0  0  0  0  0
  -49.1415   57.3184   59.5343 C   0  0  0  0  0  0  0  0  0  0  0  0
  -47.6944   57.1938   59.0317 C   0  0  0  0  0  0  0  0  0  0  0  0
  -47.5453   57.2293   57.4995 C   0  0  0  0  0  0  0  0  0  0  0  0
  -46.7746   58.4474   56.9958 C   0  0  0  0  0  0  0  0  0  0  0  0
  -40.0016   60.9991   66.1889 O   0  0  0  0  0  0  0  0  0  0  0  0
  -39.9216   59.7752   65.4822 C   0  0  0  0  0  0  0  0  0  0  0  0
  -40.9312   61.2630   66.2743 H   0  0  0  0  0  0  0  0  0  0  0  0
  -38.4764   59.3009   65.3121 C   0  0  0  0  0  0  0  0  0  0  0  0
  -38.1554   58.0458   64.9545 C   0  0  0  0  0  0  0  0  0  0  0  0
  -36.6877   57.6494   64.8065 C   0  0  0  0  0  0  0  0  0  0  0  0
  -36.1924   57.6299   63.3530 C   0  0  0  0  0  0  0  0  0  0  0  0
  -37.2784   57.4201   62.2815 C   0  0  0  0  0  0  0  0  0  0  0  0
  -37.3448   58.6328   61.3222 C   0  0  0  0  0  0  0  0  0  0  0  0
  -38.2108   58.4263   60.0537 C   0  0  0  0  0  0  0  0  0  0  0  0
  -39.0871   59.6450   59.6799 C   0  0  0  0  0  0  0  0  0  0  0  0
  -40.6031   59.3638   59.7614 C   0  0  0  0  0  0  0  0  0  0  0  0
  -40.9526   57.8718   59.8170 C   0  0  0  0  0  0  0  0  0  0  0  0
  -41.6673   57.3964   61.0803 C   0  0  0  0  0  0  0  0  0  0  0  0
  -40.8136   56.4740   61.9727 C   0  0  0  0  0  0  0  0  0  0  0  0
  -41.2212   56.4354   63.4534 C   0  0  0  0  0  0  0  0  0  0  0  0
  -42.5465   57.1690   63.6782 C   0  0  0  0  0  0  0  0  0  0  0  0
  -43.0528   57.2255   65.1085 C   0  0  0  0  0  0  0  0  0  0  0  0
  -39.6250   60.8665   63.1271 C   0  0  0  0  0  0  0  0  0  0  0  0
  -38.9902   62.0666   63.6371 O   0  0  0  0  0  0  0  0  0  0  0  0
  -36.9030   62.3258   61.6996 O   0  0  0  0  0  0  0  0  0  0  0  0
  -35.2072   64.7708   64.6228 O   0  0  0  0  0  0  0  0  0  0  0  0
  -37.2744   62.6519   65.2493 O   0  0  0  0  0  0  0  0  0  0  0  0
  -37.5451   62.0991   63.9383 C   0  0  0  0  0  0  0  0  0  0  0  0
  -36.6675   62.8862   62.9544 C   0  0  0  0  0  0  0  0  0  0  0  0
  -35.1558   62.7860   63.2545 C   0  0  0  0  0  0  0  0  0  0  0  0
  -34.9602   63.3670   64.6276 C   0  0  0  0  0  0  0  0  0  0  0  0
  -35.8689   62.6615   65.6180 C   0  0  0  0  0  0  0  0  0  0  0  0
  -37.8495   62.3801   61.4938 H   0  0  0  0  0  0  0  0  0  0  0  0
  -34.6170   65.2008   63.9843 H   0  0  0  0  0  0  0  0  0  0  0  0
  -36.2073   62.8024   67.9800 O   0  0  0  0  0  0  0  0  0  0  0  0
  -35.5276   63.3940   66.9138 C   0  0  0  0  0  0  0  0  0  0  0  0
  -35.9890   63.2694   68.8018 H   0  0  0  0  0  0  0  0  0  0  0  0
  -34.2837   63.5314   62.3748 O   0  0  0  0  0  0  0  0  0  0  0  0
  -32.4973   61.7295   61.8467 O   0  0  0  0  0  0  0  0  0  0  0  0
  -32.0065   63.4607   63.4750 O   0  0  0  0  0  0  0  0  0  0  0  0
  -32.0059   63.9785   61.1072 O   0  0  0  0  0  0  0  0  0  0  0  0
  -32.6696   63.1760   62.1735 S   0  0  0  0  0  0  0  0  0  0  0  0
  -32.9236   61.1903   62.5311 H   0  0  0  0  0  0  0  0  0  0  0  0
  -32.4323   63.7988   60.2547 H   0  0  0  0  0  0  0  0  0  0  0  0
  2  1  1  0  0  0
  2  4  1  0  0  0
  2  5  1  0  0  0
 41 42  1  0  0  0
 41  1  1  0  0  0
 42 46  1  0  0  0
  1 24  1  0  0  0
 23 24  1  0  0  0
 23 25  1  0  0  0
 24 26  1  0  0  0
  3  4  2  0  0  0
 26 27  2  0  0  0
 27 28  1  0  0  0
 43 47  1  0  0  0
 43 51  1  0  0  0
 28 29  1  0  0  0
 56 48  1  0  0  0
 56 60  1  0  0  0
 29 30  1  0  0  0
 57 60  1  0  0  0
 57 61  1  0  0  0
 30 31  1  0  0  0
 44 49  1  0  0  0
 44 52  1  0  0  0
 31 32  1  0  0  0
 45 46  1  0  0  0
 45 50  1  0  0  0
 32 33  1  0  0  0
 53 54  1  0  0  0
 53 55  1  0  0  0
 33 34  1  0  0  0
 34 35  1  0  0  0
 35 36  1  0  0  0
 58 60  1  0  0  0
 36 37  1  0  0  0
 59 60  1  0  0  0
 59 62  1  0  0  0
 37 38  1  0  0  0
 38 39  1  0  0  0
 39 40  1  0  0  0
  4  6  1  0  0  0
  6  7  1  0  0  0
  7  8  1  0  0  0
  8  9  1  0  0  0
  9 10  1  0  0  0
 10 11  1  0  0  0
 11 12  1  0  0  0
 12 13  1  0  0  0
 13 14  1  0  0  0
 14 15  1  0  0  0
 15 16  1  0  0  0
 16 17  1  0  0  0
 17 18  1  0  0  0
 18 19  1  0  0  0
 19 20  1  0  0  0
 20 21  1  0  0  0
 21 22  1  0  0  0
 46 47  1  0  0  0
 47 48  1  0  0  0
 48 49  1  0  0  0
 49 50  1  0  0  0
 50 54  1  0  0  0
M  CHG 1  58  -1
M  END
> <minimizedAffinity>
-9.54313

> <CNNscore>
0.2018763274

> <CNNaffinity>
7.1896848679

> <CNN_VS>
1.4514272213

> <CNNaffinity_variance>
1.7465450764

$$$$
/media/chris/experiments/cd1a-new-docking/inputs/ligands/1onq_ligand.pdb


 62 62  0  0  0  0  0  0  0  0999 V2000
  -40.6517   59.7928   64.3035 C   0  0  0  0  0  0  0  0  0  0  0  0
  -41.9403   60.2752   64.7596 N   0  0  0  0  0  0  0  0  0  0  0  0
  -42.4361   61.8493   63.2027 O   0  0  0  0  0  0  0  0  0  0  0  0
  -42.7099   61.2235   64.2082 C   0  0  0  0  0  0  0  0  0  0  0  0
  -42.2940   59.8538   65.5760 H   0  0  0  0  0  0  0  0  0  0  0  0
  -44.0024   61.4901   64.9212 C   0  0  0  0  0  0  0  0  0  0  0  0
  -45.0467   60.5748   64.2818 C   0  0  0  0  0  0  0  0  0  0  0  0
  -46.0337   60.0899   65.3409 C   0  0  0  0  0  0  0  0  0  0  0  0
  -47.0733   59.0997   64.8751 C   0  0  0  0  0  0  0  0  0  0  0  0
  -48.1382   59.0035   65.9626 C   0  0  0  0  0  0  0  0  0  0  0  0
  -49.1484   60.1573   65.9071 C   0  0  0  0  0  0  0  0  0  0  0  0
  -50.5622   59.7388   65.4637 C   0  0  0  0  0  0  0  0  0  0  0  0
  -51.0281   60.4627   64.1813 C   0  0  0  0  0  0  0  0  0  0  0  0
  -51.1750   59.4703   63.0242 C   0  0  0  0  0  0  0  0  0  0  0  0
  -50.3737   58.1827   63.1732 C   0  0  0  0  0  0  0  0  0  0  0  0
  -49.8113   57.6958   61.8459 C   0  0  0  0  0  0  0  0  0  0  0  0
  -50.5414   58.1783   60.5904 C   0  0  0  0  0  0  0  0  0  0  0  0
  -49.5183   58.8174   59.6611 C   0  0  0  0  0  0  0  0  0  0  0  0
  -48.2466   58.0475   59.3367 C   0  0  0  0  0  0  0  0  0  0  0  0
  -48.4898   57.0354   58.2059 C   0  0  0  0  0  0  0  0  0  0  0  0
  -47.8162   57.3973   56.8693 C   0  0  0  0  0  0  0  0  0  0  0  0
  -46.7975   58.5280   56.9930 C   0  0  0  0  0  0  0  0  0  0  0  0
  -39.5531   57.7870   64.7106 O   0  0  0  0  0  0  0  0  0  0  0  0
  -40.8280   58.2847   64.3490 C   0  0  0  0  0  0  0  0  0  0  0  0
  -39.3098   58.1268   65.5860 H   0  0  0  0  0  0  0  0  0  0  0  0
  -41.2731   57.7845   62.9727 C   0  0  0  0  0  0  0  0  0  0  0  0
  -40.7749   56.6750   62.4008 C   0  0  0  0  0  0  0  0  0  0  0  0
  -41.2707   56.2419   61.0225 C   0  0  0  0  0  0  0  0  0  0  0  0
  -41.6724   57.4105   60.1107 C   0  0  0  0  0  0  0  0  0  0  0  0
  -40.5305   58.0393   59.2910 C   0  0  0  0  0  0  0  0  0  0  0  0
  -40.3234   59.5216   59.6850 C   0  0  0  0  0  0  0  0  0  0  0  0
  -38.8891   59.8908   60.1412 C   0  0  0  0  0  0  0  0  0  0  0  0
  -37.8990   58.7022   60.1417 C   0  0  0  0  0  0  0  0  0  0  0  0
  -37.7308   58.0391   61.5258 C   0  0  0  0  0  0  0  0  0  0  0  0
  -36.3602   58.2868   62.1672 C   0  0  0  0  0  0  0  0  0  0  0  0
  -36.0848   57.5415   63.4715 C   0  0  0  0  0  0  0  0  0  0  0  0
  -35.9071   58.4639   64.6937 C   0  0  0  0  0  0  0  0  0  0  0  0
  -34.6882   59.3972   64.6378 C   0  0  0  0  0  0  0  0  0  0  0  0
  -33.3862   58.6131   64.8241 C   0  0  0  0  0  0  0  0  0  0  0  0
  -32.4587   58.5493   63.6237 C   0  0  0  0  0  0  0  0  0  0  0  0
  -39.4240   60.3773   65.0382 C   0  0  0  0  0  0  0  0  0  0  0  0
  -38.8728   61.6071   64.5025 O   0  0  0  0  0  0  0  0  0  0  0  0
  -36.9935   61.6182   62.3471 O   0  0  0  0  0  0  0  0  0  0  0  0
  -35.5192   64.9720   64.3414 O   0  0  0  0  0  0  0  0  0  0  0  0
  -37.1678   62.8374   65.7128 O   0  0  0  0  0  0  0  0  0  0  0  0
  -37.4349   61.9189   64.6253 C   0  0  0  0  0  0  0  0  0  0  0  0
  -36.7661   62.5239   63.3825 C   0  0  0  0  0  0  0  0  0  0  0  0
  -35.2412   62.7180   63.5311 C   0  0  0  0  0  0  0  0  0  0  0  0
  -35.0483   63.6697   64.6793 C   0  0  0  0  0  0  0  0  0  0  0  0
  -35.7604   63.1400   65.9107 C   0  0  0  0  0  0  0  0  0  0  0  0
  -37.9481   61.4837   62.2390 H   0  0  0  0  0  0  0  0  0  0  0  0
  -35.0518   65.2905   63.5534 H   0  0  0  0  0  0  0  0  0  0  0  0
  -36.3602   64.1576   67.9888 O   0  0  0  0  0  0  0  0  0  0  0  0
  -35.4540   64.2354   66.9298 C   0  0  0  0  0  0  0  0  0  0  0  0
  -36.1635   64.8542   68.6346 H   0  0  0  0  0  0  0  0  0  0  0  0
  -34.5639   63.3107   62.3997 O   0  0  0  0  0  0  0  0  0  0  0  0
  -32.5363   63.8968   60.8956 O   0  0  0  0  0  0  0  0  0  0  0  0
  -32.6481   61.7181   61.9589 O   0  0  0  0  0  0  0  0  0  0  0  0
  -32.0920   63.6841   63.2629 O   0  0  0  0  0  0  0  0  0  0  0  0
  -32.9255   63.1690   62.1397 S   0  0  0  0  0  0  0  0  0  0  0  0
  -33.0693   63.5742   60.1521 H   0  0  0  0  0  0  0  0  0  0  0  0
  -32.2668   64.6300   63.3877 H   0  0  0  0  0  0  0  0  0  0  0  0
  2  1  1  0  0  0
  2  4  1  0  0  0
  2  5  1  0  0  0
 41 42  1  0  0  0
 41  1  1  0  0  0
 42 46  1  0  0  0
  1 24  1  0  0  0
 23 24  1  0  0  0
 23 25  1  0  0  0
 24 26  1  0  0  0
  3  4  2  0  0  0
 26 27  2  0  0  0
 27 28  1  0  0  0
 43 47  1  0  0  0
 43 51  1  0  0  0
 28 29  1  0  0  0
 56 48  1  0  0  0
 56 60  1  0  0  0
 29 30  1  0  0  0
 57 60  1  0  0  0
 57 61  1  0  0  0
 30 31  1  0  0  0
 44 49  1  0  0  0
 44 52  1  0  0  0
 31 32  1  0  0  0
 45 46  1  0  0  0
 45 50  1  0  0  0
 32 33  1  0  0  0
 53 54  1  0  0  0
 53 55  1  0  0  0
 33 34  1  0  0  0
 34 35  1  0  0  0
 35 36  1  0  0  0
 58 60  1  0  0  0
 36 37  1  0  0  0
 59 60  1  0  0  0
 59 62  1  0  0  0
 37 38  1  0  0  0
 38 39  1  0  0  0
 39 40  1  0  0  0
  4  6  1  0  0  0
  6  7  1  0  0  0
  7  8  1  0  0  0
  8  9  1  0  0  0
  9 10  1  0  0  0
 10 11  1  0  0  0
 11 12  1  0  0  0
 12 13  1  0  0  0
 13 14  1  0  0  0
 14 15  1  0  0  0
 15 16  1  0  0  0
 16 17  1  0  0  0
 17 18  1  0  0  0
 18 19  1  0  0  0
 19 20  1  0  0  0
 20 21  1  0  0  0
 21 22  1  0  0  0
 46 47  1  0  0  0
 47 48  1  0  0  0
 48 49  1  0  0  0
 49 50  1  0  0  0
 50 54  1  0  0  0
M  CHG 1  58  -1
M  END
> <minimizedAffinity>
-9.68657

> <CNNscore>
0.1990445703

> <CNNaffinity>
7.0237951279

> <CNN_VS>
1.3980482817

> <CNNaffinity_variance>
1.5176843405

$$$$
/media/chris/experiments/cd1a-new-docking/inputs/ligands/1onq_ligand.pdb


 62 62  0  0  0  0  0  0  0  0999 V2000
  -42.1623   59.4813   66.0373 C   0  0  0  0  0  0  0  0  0  0  0  0
  -41.9018   58.2857   65.2602 N   0  0  0  0  0  0  0  0  0  0  0  0
  -42.7252   58.8544   63.2239 O   0  0  0  0  0  0  0  0  0  0  0  0
  -42.1854   58.0608   63.9700 C   0  0  0  0  0  0  0  0  0  0  0  0
  -41.4620   57.5471   65.7399 H   0  0  0  0  0  0  0  0  0  0  0  0
  -41.7776   56.7130   63.4531 C   0  0  0  0  0  0  0  0  0  0  0  0
  -40.3705   56.8770   62.8783 C   0  0  0  0  0  0  0  0  0  0  0  0
  -40.2916   56.2271   61.4990 C   0  0  0  0  0  0  0  0  0  0  0  0
  -41.3919   56.5891   60.5312 C   0  0  0  0  0  0  0  0  0  0  0  0
  -41.1791   58.0403   60.1132 C   0  0  0  0  0  0  0  0  0  0  0  0
  -39.9858   58.2151   59.1642 C   0  0  0  0  0  0  0  0  0  0  0  0
  -38.9636   59.2715   59.6221 C   0  0  0  0  0  0  0  0  0  0  0  0
  -37.6369   58.6505   60.1116 C   0  0  0  0  0  0  0  0  0  0  0  0
  -37.4779   58.8389   61.6231 C   0  0  0  0  0  0  0  0  0  0  0  0
  -36.5898   57.8095   62.3114 C   0  0  0  0  0  0  0  0  0  0  0  0
  -36.6682   57.9013   63.8282 C   0  0  0  0  0  0  0  0  0  0  0  0
  -35.4240   57.4445   64.5933 C   0  0  0  0  0  0  0  0  0  0  0  0
  -34.5353   58.6591   64.8249 C   0  0  0  0  0  0  0  0  0  0  0  0
  -33.0557   58.5555   64.4855 C   0  0  0  0  0  0  0  0  0  0  0  0
  -32.7967   58.9606   63.0258 C   0  0  0  0  0  0  0  0  0  0  0  0
  -32.0514   60.2974   62.8568 C   0  0  0  0  0  0  0  0  0  0  0  0
  -31.3726   60.4427   61.4967 C   0  0  0  0  0  0  0  0  0  0  0  0
  -43.0624   61.4398   65.1714 O   0  0  0  0  0  0  0  0  0  0  0  0
  -43.3773   60.0702   65.3415 C   0  0  0  0  0  0  0  0  0  0  0  0
  -42.2759   61.5233   64.6097 H   0  0  0  0  0  0  0  0  0  0  0  0
  -44.6132   59.8676   66.2212 C   0  0  0  0  0  0  0  0  0  0  0  0
  -45.8671   59.8890   65.7380 C   0  0  0  0  0  0  0  0  0  0  0  0
  -47.0494   59.6792   66.6821 C   0  0  0  0  0  0  0  0  0  0  0  0
  -48.3551   60.3254   66.1965 C   0  0  0  0  0  0  0  0  0  0  0  0
  -49.3358   59.3841   65.4729 C   0  0  0  0  0  0  0  0  0  0  0  0
  -50.2368   60.1762   64.4951 C   0  0  0  0  0  0  0  0  0  0  0  0
  -51.1758   59.3135   63.6144 C   0  0  0  0  0  0  0  0  0  0  0  0
  -50.5506   58.8652   62.2724 C   0  0  0  0  0  0  0  0  0  0  0  0
  -49.8021   59.9946   61.5320 C   0  0  0  0  0  0  0  0  0  0  0  0
  -49.5732   59.7110   60.0425 C   0  0  0  0  0  0  0  0  0  0  0  0
  -50.1349   58.3918   59.5163 C   0  0  0  0  0  0  0  0  0  0  0  0
  -49.0601   57.4176   58.9949 C   0  0  0  0  0  0  0  0  0  0  0  0
  -47.7068   58.0585   58.6518 C   0  0  0  0  0  0  0  0  0  0  0  0
  -47.0246   57.3181   57.4978 C   0  0  0  0  0  0  0  0  0  0  0  0
  -47.6770   56.0234   57.0469 C   0  0  0  0  0  0  0  0  0  0  0  0
  -40.9504   60.4181   66.2439 C   0  0  0  0  0  0  0  0  0  0  0  0
  -39.7901   60.1705   65.4097 O   0  0  0  0  0  0  0  0  0  0  0  0
  -37.6810   61.0005   67.1532 O   0  0  0  0  0  0  0  0  0  0  0  0
  -35.5414   61.2683   63.5826 O   0  0  0  0  0  0  0  0  0  0  0  0
  -38.5629   61.3774   63.7000 O   0  0  0  0  0  0  0  0  0  0  0  0
  -38.8138   61.2394   65.1198 C   0  0  0  0  0  0  0  0  0  0  0  0
  -37.4368   61.0951   65.7837 C   0  0  0  0  0  0  0  0  0  0  0  0
  -36.5011   62.2993   65.5398 C   0  0  0  0  0  0  0  0  0  0  0  0
  -36.2995   62.3805   64.0518 C   0  0  0  0  0  0  0  0  0  0  0  0
  -37.6458   62.4501   63.3541 C   0  0  0  0  0  0  0  0  0  0  0  0
  -38.2682   60.2480   67.3258 H   0  0  0  0  0  0  0  0  0  0  0  0
  -34.6868   61.2431   64.0408 H   0  0  0  0  0  0  0  0  0  0  0  0
  -36.2333   63.4866   61.7280 O   0  0  0  0  0  0  0  0  0  0  0  0
  -37.2219   62.5141   61.8883 C   0  0  0  0  0  0  0  0  0  0  0  0
  -35.9658   63.5253   60.7964 H   0  0  0  0  0  0  0  0  0  0  0  0
  -35.1802   62.2040   66.1197 O   0  0  0  0  0  0  0  0  0  0  0  0
  -35.2551   64.4839   67.3499 O   0  0  0  0  0  0  0  0  0  0  0  0
  -33.7334   64.1798   65.4842 O   0  0  0  0  0  0  0  0  0  0  0  0
  -33.2420   63.1752   67.6345 O   0  0  0  0  0  0  0  0  0  0  0  0
  -34.3311   63.5227   66.6782 S   0  0  0  0  0  0  0  0  0  0  0  0
  -35.9720   64.7222   66.7415 H   0  0  0  0  0  0  0  0  0  0  0  0
  -33.6231   62.7462   68.4165 H   0  0  0  0  0  0  0  0  0  0  0  0
  2  1  1  0  0  0
  2  4  1  0  0  0
  2  5  1  0  0  0
 41 42  1  0  0  0
 41  1  1  0  0  0
 42 46  1  0  0  0
  1 24  1  0  0  0
 23 24  1  0  0  0
 23 25  1  0  0  0
 24 26  1  0  0  0
  3  4  2  0  0  0
 26 27  2  0  0  0
 27 28  1  0  0  0
 43 47  1  0  0  0
 43 51  1  0  0  0
 28 29  1  0  0  0
 56 48  1  0  0  0
 56 60  1  0  0  0
 29 30  1  0  0  0
 57 60  1  0  0  0
 57 61  1  0  0  0
 30 31  1  0  0  0
 44 49  1  0  0  0
 44 52  1  0  0  0
 31 32  1  0  0  0
 45 46  1  0  0  0
 45 50  1  0  0  0
 32 33  1  0  0  0
 53 54  1  0  0  0
 53 55  1  0  0  0
 33 34  1  0  0  0
 34 35  1  0  0  0
 35 36  1  0  0  0
 58 60  1  0  0  0
 36 37  1  0  0  0
 59 60  1  0  0  0
 59 62  1  0  0  0
 37 38  1  0  0  0
 38 39  1  0  0  0
 39 40  1  0  0  0
  4  6  1  0  0  0
  6  7  1  0  0  0
  7  8  1  0  0  0
  8  9  1  0  0  0
  9 10  1  0  0  0
 10 11  1  0  0  0
 11 12  1  0  0  0
 12 13  1  0  0  0
 13 14  1  0  0  0
 14 15  1  0  0  0
 15 16  1  0  0  0
 16 17  1  0  0  0
 17 18  1  0  0  0
 18 19  1  0  0  0
 19 20  1  0  0  0
 20 21  1  0  0  0
 21 22  1  0  0  0
 46 47  1  0  0  0
 47 48  1  0  0  0
 48 49  1  0  0  0
 49 50  1  0  0  0
 50 54  1  0  0  0
M  CHG 1  58  -1
M  END
> <minimizedAffinity>
-8.95867

> <CNNscore>
0.1369501501

> <CNNaffinity>
6.8954772949

> <CNN_VS>
0.9443366528

> <CNNaffinity_variance>
1.1180789471

$$$$
/media/chris/experiments/cd1a-new-docking/inputs/ligands/1onq_ligand.pdb


 62 62  0  0  0  0  0  0  0  0999 V2000
  -40.1808   60.1676   64.2336 C   0  0  0  0  0  0  0  0  0  0  0  0
  -41.5049   60.6691   64.5440 N   0  0  0  0  0  0  0  0  0  0  0  0
  -41.6742   60.2215   66.7618 O   0  0  0  0  0  0  0  0  0  0  0  0
  -42.1340   60.6641   65.7271 C   0  0  0  0  0  0  0  0  0  0  0  0
  -42.0041   61.0623   63.7921 H   0  0  0  0  0  0  0  0  0  0  0  0
  -43.5060   61.2703   65.7223 C   0  0  0  0  0  0  0  0  0  0  0  0
  -44.1541   60.8648   64.3984 C   0  0  0  0  0  0  0  0  0  0  0  0
  -45.6429   60.5979   64.6068 C   0  0  0  0  0  0  0  0  0  0  0  0
  -45.9972   59.2752   65.2419 C   0  0  0  0  0  0  0  0  0  0  0  0
  -47.4831   59.0313   65.0002 C   0  0  0  0  0  0  0  0  0  0  0  0
  -48.3715   59.6680   66.0773 C   0  0  0  0  0  0  0  0  0  0  0  0
  -49.8743   59.3782   65.9097 C   0  0  0  0  0  0  0  0  0  0  0  0
  -50.6235   60.5050   65.1650 C   0  0  0  0  0  0  0  0  0  0  0  0
  -51.1775   59.9953   63.8313 C   0  0  0  0  0  0  0  0  0  0  0  0
  -50.2032   60.0601   62.6614 C   0  0  0  0  0  0  0  0  0  0  0  0
  -49.7753   58.6784   62.1891 C   0  0  0  0  0  0  0  0  0  0  0  0
  -50.8336   57.8691   61.4361 C   0  0  0  0  0  0  0  0  0  0  0  0
  -50.4556   57.8475   59.9612 C   0  0  0  0  0  0  0  0  0  0  0  0
  -49.1063   57.2681   59.5626 C   0  0  0  0  0  0  0  0  0  0  0  0
  -48.3197   58.2572   58.6880 C   0  0  0  0  0  0  0  0  0  0  0  0
  -47.6853   57.6336   57.4311 C   0  0  0  0  0  0  0  0  0  0  0  0
  -46.5015   58.4333   56.8920 C   0  0  0  0  0  0  0  0  0  0  0  0
  -39.0198   58.2373   64.8010 O   0  0  0  0  0  0  0  0  0  0  0  0
  -40.3264   58.6754   64.4777 C   0  0  0  0  0  0  0  0  0  0  0  0
  -38.7189   58.6852   65.6071 H   0  0  0  0  0  0  0  0  0  0  0  0
  -40.8627   58.0044   63.2109 C   0  0  0  0  0  0  0  0  0  0  0  0
  -40.2048   57.0254   62.5667 C   0  0  0  0  0  0  0  0  0  0  0  0
  -40.8067   56.4064   61.3067 C   0  0  0  0  0  0  0  0  0  0  0  0
  -41.7242   57.3572   60.5242 C   0  0  0  0  0  0  0  0  0  0  0  0
  -41.0589   58.1217   59.3648 C   0  0  0  0  0  0  0  0  0  0  0  0
  -40.4525   59.4556   59.8631 C   0  0  0  0  0  0  0  0  0  0  0  0
  -38.9207   59.5971   59.6753 C   0  0  0  0  0  0  0  0  0  0  0  0
  -38.1217   59.6406   60.9992 C   0  0  0  0  0  0  0  0  0  0  0  0
  -37.1952   58.4221   61.2017 C   0  0  0  0  0  0  0  0  0  0  0  0
  -36.6127   58.3173   62.6162 C   0  0  0  0  0  0  0  0  0  0  0  0
  -35.2617   57.6149   62.7355 C   0  0  0  0  0  0  0  0  0  0  0  0
  -34.0565   58.5152   62.3994 C   0  0  0  0  0  0  0  0  0  0  0  0
  -33.1833   58.9146   63.5985 C   0  0  0  0  0  0  0  0  0  0  0  0
  -33.6261   58.1834   64.8690 C   0  0  0  0  0  0  0  0  0  0  0  0
  -32.5970   58.0771   65.9804 C   0  0  0  0  0  0  0  0  0  0  0  0
  -39.0129   60.8839   64.9490 C   0  0  0  0  0  0  0  0  0  0  0  0
  -37.7609   60.9677   64.2219 O   0  0  0  0  0  0  0  0  0  0  0  0
  -35.7197   61.8265   66.0310 O   0  0  0  0  0  0  0  0  0  0  0  0
  -33.9151   63.1872   62.5252 O   0  0  0  0  0  0  0  0  0  0  0  0
  -36.8916   62.6956   62.7576 O   0  0  0  0  0  0  0  0  0  0  0  0
  -37.0148   62.2381   64.1262 C   0  0  0  0  0  0  0  0  0  0  0  0
  -35.5918   62.2311   64.7029 C   0  0  0  0  0  0  0  0  0  0  0  0
  -34.9067   63.6151   64.6812 C   0  0  0  0  0  0  0  0  0  0  0  0
  -34.8263   64.0219   63.2357 C   0  0  0  0  0  0  0  0  0  0  0  0
  -36.2082   63.9694   62.6097 C   0  0  0  0  0  0  0  0  0  0  0  0
  -36.1489   60.9572   66.0643 H   0  0  0  0  0  0  0  0  0  0  0  0
  -33.0402   63.2358   62.9414 H   0  0  0  0  0  0  0  0  0  0  0  0
  -35.4760   65.7258   61.1633 O   0  0  0  0  0  0  0  0  0  0  0  0
  -35.9051   64.3975   61.1755 C   0  0  0  0  0  0  0  0  0  0  0  0
  -35.2842   65.9954   60.2514 H   0  0  0  0  0  0  0  0  0  0  0  0
  -33.5533   63.6610   65.1874 O   0  0  0  0  0  0  0  0  0  0  0  0
  -31.4605   64.7604   66.2498 O   0  0  0  0  0  0  0  0  0  0  0  0
  -33.6614   65.2728   67.1345 O   0  0  0  0  0  0  0  0  0  0  0  0
  -32.9417   66.2291   65.0269 O   0  0  0  0  0  0  0  0  0  0  0  0
  -32.8869   65.0153   65.8902 S   0  0  0  0  0  0  0  0  0  0  0  0
  -31.4048   63.9725   66.8128 H   0  0  0  0  0  0  0  0  0  0  0  0
  -32.4389   66.0698   64.2129 H   0  0  0  0  0  0  0  0  0  0  0  0
  2  1  1  0  0  0
  2  4  1  0  0  0
  2  5  1  0  0  0
 41 42  1  0  0  0
 41  1  1  0  0  0
 42 46  1  0  0  0
  1 24  1  0  0  0
 23 24  1  0  0  0
 23 25  1  0  0  0
 24 26  1  0  0  0
  3  4  2  0  0  0
 26 27  2  0  0  0
 27 28  1  0  0  0
 43 47  1  0  0  0
 43 51  1  0  0  0
 28 29  1  0  0  0
 56 48  1  0  0  0
 56 60  1  0  0  0
 29 30  1  0  0  0
 57 60  1  0  0  0
 57 61  1  0  0  0
 30 31  1  0  0  0
 44 49  1  0  0  0
 44 52  1  0  0  0
 31 32  1  0  0  0
 45 46  1  0  0  0
 45 50  1  0  0  0
 32 33  1  0  0  0
 53 54  1  0  0  0
 53 55  1  0  0  0
 33 34  1  0  0  0
 34 35  1  0  0  0
 35 36  1  0  0  0
 58 60  1  0  0  0
 36 37  1  0  0  0
 59 60  1  0  0  0
 59 62  1  0  0  0
 37 38  1  0  0  0
 38 39  1  0  0  0
 39 40  1  0  0  0
  4  6  1  0  0  0
  6  7  1  0  0  0
  7  8  1  0  0  0
  8  9  1  0  0  0
  9 10  1  0  0  0
 10 11  1  0  0  0
 11 12  1  0  0  0
 12 13  1  0  0  0
 13 14  1  0  0  0
 14 15  1  0  0  0
 15 16  1  0  0  0
 16 17  1  0  0  0
 17 18  1  0  0  0
 18 19  1  0  0  0
 19 20  1  0  0  0
 20 21  1  0  0  0
 21 22  1  0  0  0
 46 47  1  0  0  0
 47 48  1  0  0  0
 48 49  1  0  0  0
 49 50  1  0  0  0
 50 54  1  0  0  0
M  CHG 1  58  -1
M  END
> <minimizedAffinity>
-8.81104

> <CNNscore>
0.1316362321

> <CNNaffinity>
6.8568906784

> <CNN_VS>
0.9026152492

> <CNNaffinity_variance>
0.9303796887

$$$$
/media/chris/experiments/cd1a-new-docking/inputs/ligands/1onq_ligand.pdb


 62 62  0  0  0  0  0  0  0  0999 V2000
  -42.6048   59.8671   65.0166 C   0  0  0  0  0  0  0  0  0  0  0  0
  -43.7325   59.2697   65.7041 N   0  0  0  0  0  0  0  0  0  0  0  0
  -43.0998   57.0960   65.8540 O   0  0  0  0  0  0  0  0  0  0  0  0
  -43.8988   57.9887   66.0603 C   0  0  0  0  0  0  0  0  0  0  0  0
  -44.4676   59.8812   65.9385 H   0  0  0  0  0  0  0  0  0  0  0  0
  -45.1838   57.6867   66.7727 C   0  0  0  0  0  0  0  0  0  0  0  0
  -46.3106   58.1488   65.8486 C   0  0  0  0  0  0  0  0  0  0  0  0
  -47.3005   59.0136   66.6252 C   0  0  0  0  0  0  0  0  0  0  0  0
  -47.5983   60.3717   66.0376 C   0  0  0  0  0  0  0  0  0  0  0  0
  -47.3330   60.2930   64.5378 C   0  0  0  0  0  0  0  0  0  0  0  0
  -48.5001   60.8327   63.7001 C   0  0  0  0  0  0  0  0  0  0  0  0
  -49.8519   60.8503   64.4368 C   0  0  0  0  0  0  0  0  0  0  0  0
  -50.6330   59.5260   64.2900 C   0  0  0  0  0  0  0  0  0  0  0  0
  -51.1775   59.3753   62.8666 C   0  0  0  0  0  0  0  0  0  0  0  0
  -50.8138   58.0686   62.1720 C   0  0  0  0  0  0  0  0  0  0  0  0
  -49.5776   58.2053   61.2955 C   0  0  0  0  0  0  0  0  0  0  0  0
  -49.8023   58.8119   59.9085 C   0  0  0  0  0  0  0  0  0  0  0  0
  -49.5163   57.7380   58.8675 C   0  0  0  0  0  0  0  0  0  0  0  0
  -48.6951   56.5246   59.2782 C   0  0  0  0  0  0  0  0  0  0  0  0
  -47.2524   56.6362   58.7605 C   0  0  0  0  0  0  0  0  0  0  0  0
  -47.1357   56.9827   57.2647 C   0  0  0  0  0  0  0  0  0  0  0  0
  -46.7928   58.4485   57.0092 C   0  0  0  0  0  0  0  0  0  0  0  0
  -42.2752   61.4886   66.6469 O   0  0  0  0  0  0  0  0  0  0  0  0
  -41.7026   60.2875   66.1641 C   0  0  0  0  0  0  0  0  0  0  0  0
  -43.1732   61.3123   66.9685 H   0  0  0  0  0  0  0  0  0  0  0  0
  -40.2799   60.4968   65.6399 C   0  0  0  0  0  0  0  0  0  0  0  0
  -39.5066   59.4897   65.1996 C   0  0  0  0  0  0  0  0  0  0  0  0
  -38.0955   59.7805   64.6922 C   0  0  0  0  0  0  0  0  0  0  0  0
  -37.0429   58.7685   65.1678 C   0  0  0  0  0  0  0  0  0  0  0  0
  -36.6722   57.6676   64.1569 C   0  0  0  0  0  0  0  0  0  0  0  0
  -35.1649   57.7254   63.8101 C   0  0  0  0  0  0  0  0  0  0  0  0
  -34.3708   58.8643   64.4986 C   0  0  0  0  0  0  0  0  0  0  0  0
  -32.8554   58.8568   64.1885 C   0  0  0  0  0  0  0  0  0  0  0  0
  -32.5132   59.3549   62.7677 C   0  0  0  0  0  0  0  0  0  0  0  0
  -32.0147   60.8043   62.7244 C   0  0  0  0  0  0  0  0  0  0  0  0
  -33.0924   61.8861   62.7565 C   0  0  0  0  0  0  0  0  0  0  0  0
  -33.3094   62.5121   64.1483 C   0  0  0  0  0  0  0  0  0  0  0  0
  -34.6859   63.1576   64.3684 C   0  0  0  0  0  0  0  0  0  0  0  0
  -35.8048   62.2667   63.8210 C   0  0  0  0  0  0  0  0  0  0  0  0
  -36.9123   62.9680   63.0548 C   0  0  0  0  0  0  0  0  0  0  0  0
  -42.9595   60.9491   63.9715 C   0  0  0  0  0  0  0  0  0  0  0  0
  -42.2525   60.8852   62.7068 O   0  0  0  0  0  0  0  0  0  0  0  0
  -41.0872   60.5888   60.1123 O   0  0  0  0  0  0  0  0  0  0  0  0
  -39.4143   57.1747   61.8282 O   0  0  0  0  0  0  0  0  0  0  0  0
  -41.9228   58.4890   62.8938 O   0  0  0  0  0  0  0  0  0  0  0  0
  -42.0848   59.6069   61.9874 C   0  0  0  0  0  0  0  0  0  0  0  0
  -40.9065   59.5336   61.0056 C   0  0  0  0  0  0  0  0  0  0  0  0
  -40.8526   58.2182   60.1981 C   0  0  0  0  0  0  0  0  0  0  0  0
  -40.6950   57.1127   61.2052 C   0  0  0  0  0  0  0  0  0  0  0  0
  -41.8035   57.1975   62.2387 C   0  0  0  0  0  0  0  0  0  0  0  0
  -41.1234   61.4250   60.6027 H   0  0  0  0  0  0  0  0  0  0  0  0
  -38.7223   57.1189   61.1508 H   0  0  0  0  0  0  0  0  0  0  0  0
  -41.2233   54.8827   62.3752 O   0  0  0  0  0  0  0  0  0  0  0  0
  -41.4570   56.0211   63.1487 C   0  0  0  0  0  0  0  0  0  0  0  0
  -41.0034   54.1370   62.9554 H   0  0  0  0  0  0  0  0  0  0  0  0
  -39.7460   58.0839   59.2775 O   0  0  0  0  0  0  0  0  0  0  0  0
  -37.6481   59.0258   58.0823 O   0  0  0  0  0  0  0  0  0  0  0  0
  -37.4726   58.2504   60.3752 O   0  0  0  0  0  0  0  0  0  0  0  0
  -38.5508   60.3644   59.8822 O   0  0  0  0  0  0  0  0  0  0  0  0
  -38.3412   58.9686   59.4033 S   0  0  0  0  0  0  0  0  0  0  0  0
  -37.5027   58.1246   57.7541 H   0  0  0  0  0  0  0  0  0  0  0  0
  -39.1164   60.8401   59.2540 H   0  0  0  0  0  0  0  0  0  0  0  0
  2  1  1  0  0  0
  2  4  1  0  0  0
  2  5  1  0  0  0
 41 42  1  0  0  0
 41  1  1  0  0  0
 42 46  1  0  0  0
  1 24  1  0  0  0
 23 24  1  0  0  0
 23 25  1  0  0  0
 24 26  1  0  0  0
  3  4  2  0  0  0
 26 27  2  0  0  0
 27 28  1  0  0  0
 43 47  1  0  0  0
 43 51  1  0  0  0
 28 29  1  0  0  0
 56 48  1  0  0  0
 56 60  1  0  0  0
 29 30  1  0  0  0
 57 60  1  0  0  0
 57 61  1  0  0  0
 30 31  1  0  0  0
 44 49  1  0  0  0
 44 52  1  0  0  0
 31 32  1  0  0  0
 45 46  1  0  0  0
 45 50  1  0  0  0
 32 33  1  0  0  0
 53 54  1  0  0  0
 53 55  1  0  0  0
 33 34  1  0  0  0
 34 35  1  0  0  0
 35 36  1  0  0  0
 58 60  1  0  0  0
 36 37  1  0  0  0
 59 60  1  0  0  0
 59 62  1  0  0  0
 37 38  1  0  0  0
 38 39  1  0  0  0
 39 40  1  0  0  0
  4  6  1  0  0  0
  6  7  1  0  0  0
  7  8  1  0  0  0
  8  9  1  0  0  0
  9 10  1  0  0  0
 10 11  1  0  0  0
 11 12  1  0  0  0
 12 13  1  0  0  0
 13 14  1  0  0  0
 14 15  1  0  0  0
 15 16  1  0  0  0
 16 17  1  0  0  0
 17 18  1  0  0  0
 18 19  1  0  0  0
 19 20  1  0  0  0
 20 21  1  0  0  0
 21 22  1  0  0  0
 46 47  1  0  0  0
 47 48  1  0  0  0
 48 49  1  0  0  0
 49 50  1  0  0  0
 50 54  1  0  0  0
M  CHG 1  58  -1
M  END
> <minimizedAffinity>
-9.02400

> <CNNscore>
0.1293079257

> <CNNaffinity>
6.9533615112

> <CNN_VS>
0.8991247416

> <CNNaffinity_variance>
2.2416353226

$$$$
/media/chris/experiments/cd1a-new-docking/inputs/ligands/1onq_ligand.pdb


 62 62  0  0  0  0  0  0  0  0999 V2000
  -41.2070   59.7825   64.3098 C   0  0  0  0  0  0  0  0  0  0  0  0
  -42.2649   58.9194   64.7968 N   0  0  0  0  0  0  0  0  0  0  0  0
  -41.4885   56.8599   64.2464 O   0  0  0  0  0  0  0  0  0  0  0  0
  -42.3340   57.5826   64.7370 C   0  0  0  0  0  0  0  0  0  0  0  0
  -43.0275   59.3717   65.2248 H   0  0  0  0  0  0  0  0  0  0  0  0
  -43.5666   56.9801   65.3432 C   0  0  0  0  0  0  0  0  0  0  0  0
  -44.4361   58.1483   65.8085 C   0  0  0  0  0  0  0  0  0  0  0  0
  -45.7195   57.6216   66.4462 C   0  0  0  0  0  0  0  0  0  0  0  0
  -47.0097   58.0422   65.7851 C   0  0  0  0  0  0  0  0  0  0  0  0
  -46.7889   59.4255   65.1822 C   0  0  0  0  0  0  0  0  0  0  0  0
  -48.0752   60.2605   65.1271 C   0  0  0  0  0  0  0  0  0  0  0  0
  -49.1264   59.8726   66.1830 C   0  0  0  0  0  0  0  0  0  0  0  0
  -50.4335   59.3353   65.5598 C   0  0  0  0  0  0  0  0  0  0  0  0
  -51.0495   60.3741   64.6182 C   0  0  0  0  0  0  0  0  0  0  0  0
  -51.1743   59.9333   63.1648 C   0  0  0  0  0  0  0  0  0  0  0  0
  -50.6881   58.5076   62.9501 C   0  0  0  0  0  0  0  0  0  0  0  0
  -49.3297   58.3585   62.2613 C   0  0  0  0  0  0  0  0  0  0  0  0
  -49.5652   58.2663   60.7597 C   0  0  0  0  0  0  0  0  0  0  0  0
  -48.5217   57.5692   59.8993 C   0  0  0  0  0  0  0  0  0  0  0  0
  -48.6245   58.0229   58.4345 C   0  0  0  0  0  0  0  0  0  0  0  0
  -47.2925   57.9954   57.6625 C   0  0  0  0  0  0  0  0  0  0  0  0
  -46.9523   56.6198   57.0937 C   0  0  0  0  0  0  0  0  0  0  0  0
  -41.3205   61.2926   66.0712 O   0  0  0  0  0  0  0  0  0  0  0  0
  -40.5240   60.2249   65.5925 C   0  0  0  0  0  0  0  0  0  0  0  0
  -42.2160   60.9696   66.2576 H   0  0  0  0  0  0  0  0  0  0  0  0
  -39.0934   60.6687   65.2780 C   0  0  0  0  0  0  0  0  0  0  0  0
  -38.1149   60.6915   66.1990 C   0  0  0  0  0  0  0  0  0  0  0  0
  -36.7115   61.1487   65.8062 C   0  0  0  0  0  0  0  0  0  0  0  0
  -36.5800   62.6682   65.6268 C   0  0  0  0  0  0  0  0  0  0  0  0
  -35.2752   63.1510   64.9668 C   0  0  0  0  0  0  0  0  0  0  0  0
  -35.5164   64.4481   64.1575 C   0  0  0  0  0  0  0  0  0  0  0  0
  -36.2031   64.2518   62.7822 C   0  0  0  0  0  0  0  0  0  0  0  0
  -35.3771   64.7716   61.5820 C   0  0  0  0  0  0  0  0  0  0  0  0
  -34.1406   63.9043   61.2614 C   0  0  0  0  0  0  0  0  0  0  0  0
  -32.8062   64.6324   61.4630 C   0  0  0  0  0  0  0  0  0  0  0  0
  -32.1185   64.4131   62.8090 C   0  0  0  0  0  0  0  0  0  0  0  0
  -31.7871   62.9379   63.1094 C   0  0  0  0  0  0  0  0  0  0  0  0
  -31.0314   62.1969   61.9959 C   0  0  0  0  0  0  0  0  0  0  0  0
  -31.6536   60.8234   61.7290 C   0  0  0  0  0  0  0  0  0  0  0  0
  -31.4329   59.7637   62.7938 C   0  0  0  0  0  0  0  0  0  0  0  0
  -41.6519   60.8948   63.3332 C   0  0  0  0  0  0  0  0  0  0  0  0
  -40.6716   61.3309   62.3575 O   0  0  0  0  0  0  0  0  0  0  0  0
  -37.8520   61.0339   61.9852 O   0  0  0  0  0  0  0  0  0  0  0  0
  -38.8293   56.9823   61.8180 O   0  0  0  0  0  0  0  0  0  0  0  0
  -40.8288   59.1802   61.2461 O   0  0  0  0  0  0  0  0  0  0  0  0
  -40.0284   60.3720   61.4374 C   0  0  0  0  0  0  0  0  0  0  0  0
  -38.6286   59.8852   61.8391 C   0  0  0  0  0  0  0  0  0  0  0  0
  -37.9600   58.9789   60.7823 C   0  0  0  0  0  0  0  0  0  0  0  0
  -38.8514   57.7768   60.6348 C   0  0  0  0  0  0  0  0  0  0  0  0
  -40.2654   58.2228   60.3093 C   0  0  0  0  0  0  0  0  0  0  0  0
  -38.2574   61.6164   62.6466 H   0  0  0  0  0  0  0  0  0  0  0  0
  -37.9180   56.7089   62.0069 H   0  0  0  0  0  0  0  0  0  0  0  0
  -41.5077   56.5393   61.4651 O   0  0  0  0  0  0  0  0  0  0  0  0
  -40.9895   56.8816   60.2149 C   0  0  0  0  0  0  0  0  0  0  0  0
  -41.9670   55.6872   61.4025 H   0  0  0  0  0  0  0  0  0  0  0  0
  -36.6504   58.4688   61.1213 O   0  0  0  0  0  0  0  0  0  0  0  0
  -37.1408   58.3183   63.6617 O   0  0  0  0  0  0  0  0  0  0  0  0
  -35.4065   59.8167   62.8639 O   0  0  0  0  0  0  0  0  0  0  0  0
  -35.0191   57.4248   62.9224 O   0  0  0  0  0  0  0  0  0  0  0  0
  -36.0377   58.4831   62.6693 S   0  0  0  0  0  0  0  0  0  0  0  0
  -37.8146   58.9999   63.5124 H   0  0  0  0  0  0  0  0  0  0  0  0
  -35.4225   56.5515   62.7976 H   0  0  0  0  0  0  0  0  0  0  0  0
  2  1  1  0  0  0
  2  4  1  0  0  0
  2  5  1  0  0  0
 41 42  1  0  0  0
 41  1  1  0  0  0
 42 46  1  0  0  0
  1 24  1  0  0  0
 23 24  1  0  0  0
 23 25  1  0  0  0
 24 26  1  0  0  0
  3  4  2  0  0  0
 26 27  2  0  0  0
 27 28  1  0  0  0
 43 47  1  0  0  0
 43 51  1  0  0  0
 28 29  1  0  0  0
 56 48  1  0  0  0
 56 60  1  0  0  0
 29 30  1  0  0  0
 57 60  1  0  0  0
 57 61  1  0  0  0
 30 31  1  0  0  0
 44 49  1  0  0  0
 44 52  1  0  0  0
 31 32  1  0  0  0
 45 46  1  0  0  0
 45 50  1  0  0  0
 32 33  1  0  0  0
 53 54  1  0  0  0
 53 55  1  0  0  0
 33 34  1  0  0  0
 34 35  1  0  0  0
 35 36  1  0  0  0
 58 60  1  0  0  0
 36 37  1  0  0  0
 59 60  1  0  0  0
 59 62  1  0  0  0
 37 38  1  0  0  0
 38 39  1  0  0  0
 39 40  1  0  0  0
  4  6  1  0  0  0
  6  7  1  0  0  0
  7  8  1  0  0  0
  8  9  1  0  0  0
  9 10  1  0  0  0
 10 11  1  0  0  0
 11 12  1  0  0  0
 12 13  1  0  0  0
 13 14  1  0  0  0
 14 15  1  0  0  0
 15 16  1  0  0  0
 16 17  1  0  0  0
 17 18  1  0  0  0
 18 19  1  0  0  0
 19 20  1  0  0  0
 20 21  1  0  0  0
 21 22  1  0  0  0
 46 47  1  0  0  0
 47 48  1  0  0  0
 48 49  1  0  0  0
 49 50  1  0  0  0
 50 54  1  0  0  0
M  CHG 1  58  -1
M  END
> <minimizedAffinity>
-8.55671

> <CNNscore>
0.1285367161

> <CNNaffinity>
6.7089896202

> <CNN_VS>
0.8623514771

> <CNNaffinity_variance>
1.2719030380

$$$$
/media/chris/experiments/cd1a-new-docking/inputs/ligands/1onq_ligand.pdb


 62 62  0  0  0  0  0  0  0  0999 V2000
  -41.9646   59.9703   66.3532 C   0  0  0  0  0  0  0  0  0  0  0  0
  -42.2071   58.6044   65.9331 N   0  0  0  0  0  0  0  0  0  0  0  0
  -42.8897   58.8818   63.7873 O   0  0  0  0  0  0  0  0  0  0  0  0
  -42.6320   58.1704   64.7387 C   0  0  0  0  0  0  0  0  0  0  0  0
  -42.0386   57.9091   66.6093 H   0  0  0  0  0  0  0  0  0  0  0  0
  -42.7772   56.6825   64.6157 C   0  0  0  0  0  0  0  0  0  0  0  0
  -41.3624   56.1187   64.4830 C   0  0  0  0  0  0  0  0  0  0  0  0
  -40.5376   56.9951   63.5435 C   0  0  0  0  0  0  0  0  0  0  0  0
  -40.3491   56.4700   62.1410 C   0  0  0  0  0  0  0  0  0  0  0  0
  -41.5140   56.9785   61.2981 C   0  0  0  0  0  0  0  0  0  0  0  0
  -41.2061   56.9706   59.7948 C   0  0  0  0  0  0  0  0  0  0  0  0
  -40.8003   58.3424   59.2254 C   0  0  0  0  0  0  0  0  0  0  0  0
  -39.5097   58.2831   58.3790 C   0  0  0  0  0  0  0  0  0  0  0  0
  -38.3856   59.0759   59.0521 C   0  0  0  0  0  0  0  0  0  0  0  0
  -37.7741   58.4121   60.2799 C   0  0  0  0  0  0  0  0  0  0  0  0
  -37.9129   59.2694   61.5293 C   0  0  0  0  0  0  0  0  0  0  0  0
  -38.5377   60.6519   61.3282 C   0  0  0  0  0  0  0  0  0  0  0  0
  -39.5216   60.8991   62.4638 C   0  0  0  0  0  0  0  0  0  0  0  0
  -40.9835   60.5323   62.2550 C   0  0  0  0  0  0  0  0  0  0  0  0
  -41.5488   61.2181   61.0011 C   0  0  0  0  0  0  0  0  0  0  0  0
  -42.6747   62.2309   61.2800 C   0  0  0  0  0  0  0  0  0  0  0  0
  -43.3239   62.0501   62.6502 C   0  0  0  0  0  0  0  0  0  0  0  0
  -42.9036   62.0733   66.0501 O   0  0  0  0  0  0  0  0  0  0  0  0
  -43.1727   60.7063   65.7998 C   0  0  0  0  0  0  0  0  0  0  0  0
  -42.0993   62.3365   65.5759 H   0  0  0  0  0  0  0  0  0  0  0  0
  -44.4338   60.2252   66.5215 C   0  0  0  0  0  0  0  0  0  0  0  0
  -45.5515   59.8548   65.8736 C   0  0  0  0  0  0  0  0  0  0  0  0
  -46.7701   59.3867   66.6667 C   0  0  0  0  0  0  0  0  0  0  0  0
  -48.0077   60.2784   66.4888 C   0  0  0  0  0  0  0  0  0  0  0  0
  -48.6785   60.2191   65.1039 C   0  0  0  0  0  0  0  0  0  0  0  0
  -50.0993   59.6142   65.2074 C   0  0  0  0  0  0  0  0  0  0  0  0
  -51.1776   60.3047   64.3346 C   0  0  0  0  0  0  0  0  0  0  0  0
  -51.1547   59.8815   62.8469 C   0  0  0  0  0  0  0  0  0  0  0  0
  -50.7958   58.3951   62.6332 C   0  0  0  0  0  0  0  0  0  0  0  0
  -50.6619   57.9977   61.1582 C   0  0  0  0  0  0  0  0  0  0  0  0
  -49.7266   56.8276   60.8605 C   0  0  0  0  0  0  0  0  0  0  0  0
  -48.8548   57.0271   59.6050 C   0  0  0  0  0  0  0  0  0  0  0  0
  -48.5358   58.4885   59.2550 C   0  0  0  0  0  0  0  0  0  0  0  0
  -47.7873   58.5839   57.9224 C   0  0  0  0  0  0  0  0  0  0  0  0
  -46.8179   57.4578   57.6104 C   0  0  0  0  0  0  0  0  0  0  0  0
  -40.5729   60.5397   65.9956 C   0  0  0  0  0  0  0  0  0  0  0  0
  -39.4605   59.6104   66.0436 O   0  0  0  0  0  0  0  0  0  0  0  0
  -37.3531   58.1322   64.7982 O   0  0  0  0  0  0  0  0  0  0  0  0
  -36.3232   61.8814   63.2875 O   0  0  0  0  0  0  0  0  0  0  0  0
  -37.9825   61.5176   65.7915 O   0  0  0  0  0  0  0  0  0  0  0  0
  -38.0676   60.0751   65.8888 C   0  0  0  0  0  0  0  0  0  0  0  0
  -37.3006   59.5205   64.6798 C   0  0  0  0  0  0  0  0  0  0  0  0
  -35.8172   59.9480   64.6369 C   0  0  0  0  0  0  0  0  0  0  0  0
  -35.8146   61.4490   64.5470 C   0  0  0  0  0  0  0  0  0  0  0  0
  -36.6279   62.0333   65.6878 C   0  0  0  0  0  0  0  0  0  0  0  0
  -38.2792   57.8448   64.8267 H   0  0  0  0  0  0  0  0  0  0  0  0
  -35.7898   61.4970   62.5743 H   0  0  0  0  0  0  0  0  0  0  0  0
  -36.6021   64.2401   66.6059 O   0  0  0  0  0  0  0  0  0  0  0  0
  -36.5069   63.5297   65.4079 C   0  0  0  0  0  0  0  0  0  0  0  0
  -36.5250   65.1901   66.4255 H   0  0  0  0  0  0  0  0  0  0  0  0
  -35.0536   59.4763   63.5035 O   0  0  0  0  0  0  0  0  0  0  0  0
  -32.8706   59.4235   64.8994 O   0  0  0  0  0  0  0  0  0  0  0  0
  -32.8938   60.5613   62.7560 O   0  0  0  0  0  0  0  0  0  0  0  0
  -32.8669   58.1395   62.8505 O   0  0  0  0  0  0  0  0  0  0  0  0
  -33.3919   59.3734   63.5013 S   0  0  0  0  0  0  0  0  0  0  0  0
  -33.2023   60.2215   65.3398 H   0  0  0  0  0  0  0  0  0  0  0  0
  -33.1870   57.3598   63.3304 H   0  0  0  0  0  0  0  0  0  0  0  0
  2  1  1  0  0  0
  2  4  1  0  0  0
  2  5  1  0  0  0
 41 42  1  0  0  0
 41  1  1  0  0  0
 42 46  1  0  0  0
  1 24  1  0  0  0
 23 24  1  0  0  0
 23 25  1  0  0  0
 24 26  1  0  0  0
  3  4  2  0  0  0
 26 27  2  0  0  0
 27 28  1  0  0  0
 43 47  1  0  0  0
 43 51  1  0  0  0
 28 29  1  0  0  0
 56 48  1  0  0  0
 56 60  1  0  0  0
 29 30  1  0  0  0
 57 60  1  0  0  0
 57 61  1  0  0  0
 30 31  1  0  0  0
 44 49  1  0  0  0
 44 52  1  0  0  0
 31 32  1  0  0  0
 45 46  1  0  0  0
 45 50  1  0  0  0
 32 33  1  0  0  0
 53 54  1  0  0  0
 53 55  1  0  0  0
 33 34  1  0  0  0
 34 35  1  0  0  0
 35 36  1  0  0  0
 58 60  1  0  0  0
 36 37  1  0  0  0
 59 60  1  0  0  0
 59 62  1  0  0  0
 37 38  1  0  0  0
 38 39  1  0  0  0
 39 40  1  0  0  0
  4  6  1  0  0  0
  6  7  1  0  0  0
  7  8  1  0  0  0
  8  9  1  0  0  0
  9 10  1  0  0  0
 10 11  1  0  0  0
 11 12  1  0  0  0
 12 13  1  0  0  0
 13 14  1  0  0  0
 14 15  1  0  0  0
 15 16  1  0  0  0
 16 17  1  0  0  0
 17 18  1  0  0  0
 18 19  1  0  0  0
 19 20  1  0  0  0
 20 21  1  0  0  0
 21 22  1  0  0  0
 46 47  1  0  0  0
 47 48  1  0  0  0
 48 49  1  0  0  0
 49 50  1  0  0  0
 50 54  1  0  0  0
M  CHG 1  58  -1
M  END
> <minimizedAffinity>
-8.98355

> <CNNscore>
0.1189356744

> <CNNaffinity>
7.1222510338

> <CNN_VS>
0.8470897079

> <CNNaffinity_variance>
1.4989973307

$$$$
