/media/chris/experiments/cd1a-new-docking/inputs/ligands/1onq_ligand.pdb


 62 62  0  0  0  0  0  0  0  0999 V2000
  -41.5455   60.0741   64.6753 C   0  0  0  0  0  0  0  0  0  0  0  0
  -41.8417   58.7462   64.1752 N   0  0  0  0  0  0  0  0  0  0  0  0
  -42.7199   56.6595   64.3223 O   0  0  0  0  0  0  0  0  0  0  0  0
  -42.5121   57.7622   64.7899 C   0  0  0  0  0  0  0  0  0  0  0  0
  -41.5090   58.5418   63.2715 H   0  0  0  0  0  0  0  0  0  0  0  0
  -43.0175   58.0955   66.1621 C   0  0  0  0  0  0  0  0  0  0  0  0
  -44.4837   57.6641   66.2006 C   0  0  0  0  0  0  0  0  0  0  0  0
  -45.3819   58.8332   65.8039 C   0  0  0  0  0  0  0  0  0  0  0  0
  -46.5375   59.1260   66.7298 C   0  0  0  0  0  0  0  0  0  0  0  0
  -47.6800   59.6748   65.8816 C   0  0  0  0  0  0  0  0  0  0  0  0
  -48.5687   58.5687   65.2970 C   0  0  0  0  0  0  0  0  0  0  0  0
  -50.0690   58.9135   65.2662 C   0  0  0  0  0  0  0  0  0  0  0  0
  -50.3634   60.2504   64.5511 C   0  0  0  0  0  0  0  0  0  0  0  0
  -51.3656   60.0442   63.4117 C   0  0  0  0  0  0  0  0  0  0  0  0
  -51.2043   58.7408   62.6389 C   0  0  0  0  0  0  0  0  0  0  0  0
  -50.1806   58.8564   61.5191 C   0  0  0  0  0  0  0  0  0  0  0  0
  -50.4400   57.9949   60.2811 C   0  0  0  0  0  0  0  0  0  0  0  0
  -49.1898   58.0220   59.4122 C   0  0  0  0  0  0  0  0  0  0  0  0
  -48.0291   57.1076   59.7757 C   0  0  0  0  0  0  0  0  0  0  0  0
  -47.3678   56.5306   58.5141 C   0  0  0  0  0  0  0  0  0  0  0  0
  -47.6789   57.3040   57.2194 C   0  0  0  0  0  0  0  0  0  0  0  0
  -46.7030   58.4468   56.9493 C   0  0  0  0  0  0  0  0  0  0  0  0
  -43.5661   60.9913   63.9886 O   0  0  0  0  0  0  0  0  0  0  0  0
  -42.1953   60.9717   63.6362 C   0  0  0  0  0  0  0  0  0  0  0  0
  -43.6666   61.3710   64.8755 H   0  0  0  0  0  0  0  0  0  0  0  0
  -41.9664   60.3820   62.2426 C   0  0  0  0  0  0  0  0  0  0  0  0
  -41.2911   61.0277   61.2765 C   0  0  0  0  0  0  0  0  0  0  0  0
  -41.1058   60.3714   59.9097 C   0  0  0  0  0  0  0  0  0  0  0  0
  -39.7133   59.7599   59.6972 C   0  0  0  0  0  0  0  0  0  0  0  0
  -39.6936   58.2885   59.2438 C   0  0  0  0  0  0  0  0  0  0  0  0
  -40.9162   57.5241   59.8061 C   0  0  0  0  0  0  0  0  0  0  0  0
  -40.7730   57.0310   61.2683 C   0  0  0  0  0  0  0  0  0  0  0  0
  -39.3182   56.7197   61.6921 C   0  0  0  0  0  0  0  0  0  0  0  0
  -38.7042   57.7877   62.6229 C   0  0  0  0  0  0  0  0  0  0  0  0
  -37.2478   58.1336   62.2902 C   0  0  0  0  0  0  0  0  0  0  0  0
  -36.2217   57.8402   63.3826 C   0  0  0  0  0  0  0  0  0  0  0  0
  -34.7782   57.6937   62.8623 C   0  0  0  0  0  0  0  0  0  0  0  0
  -33.9028   58.9488   62.9973 C   0  0  0  0  0  0  0  0  0  0  0  0
  -33.7581   59.3630   64.4644 C   0  0  0  0  0  0  0  0  0  0  0  0
  -33.0760   58.3653   65.3836 C   0  0  0  0  0  0  0  0  0  0  0  0
  -40.0600   60.3453   65.0049 C   0  0  0  0  0  0  0  0  0  0  0  0
  -39.3711   61.2982   64.1561 O   0  0  0  0  0  0  0  0  0  0  0  0
  -37.4856   61.6069   62.0285 O   0  0  0  0  0  0  0  0  0  0  0  0
  -35.9813   64.6128   64.4984 O   0  0  0  0  0  0  0  0  0  0  0  0
  -37.6566   62.3172   65.5372 O   0  0  0  0  0  0  0  0  0  0  0  0
  -37.9303   61.5726   64.3255 C   0  0  0  0  0  0  0  0  0  0  0  0
  -37.2514   62.3471   63.1867 C   0  0  0  0  0  0  0  0  0  0  0  0
  -35.7249   62.5003   63.3643 C   0  0  0  0  0  0  0  0  0  0  0  0
  -35.5253   63.2697   64.6407 C   0  0  0  0  0  0  0  0  0  0  0  0
  -36.2466   62.5718   65.7795 C   0  0  0  0  0  0  0  0  0  0  0  0
  -38.4411   61.5004   61.9005 H   0  0  0  0  0  0  0  0  0  0  0  0
  -35.5080   65.0391   63.7667 H   0  0  0  0  0  0  0  0  0  0  0  0
  -36.1727   62.8376   68.1539 O   0  0  0  0  0  0  0  0  0  0  0  0
  -35.9314   63.5012   66.9496 C   0  0  0  0  0  0  0  0  0  0  0  0
  -35.9718   63.4299   68.8954 H   0  0  0  0  0  0  0  0  0  0  0  0
  -35.0380   63.2461   62.3338 O   0  0  0  0  0  0  0  0  0  0  0  0
  -32.7063   62.3279   62.9950 O   0  0  0  0  0  0  0  0  0  0  0  0
  -33.1180   64.7182   63.0735 O   0  0  0  0  0  0  0  0  0  0  0  0
  -32.8168   63.6023   60.9432 O   0  0  0  0  0  0  0  0  0  0  0  0
  -33.3880   63.4678   62.3132 S   0  0  0  0  0  0  0  0  0  0  0  0
  -33.0658   62.2249   63.8901 H   0  0  0  0  0  0  0  0  0  0  0  0
  -32.9885   62.7908   60.4403 H   0  0  0  0  0  0  0  0  0  0  0  0
  2  1  1  0  0  0
  2  4  1  0  0  0
  2  5  1  0  0  0
 41 42  1  0  0  0
 41  1  1  0  0  0
 42 46  1  0  0  0
  1 24  1  0  0  0
 23 24  1  0  0  0
 23 25  1  0  0  0
 24 26  1  0  0  0
  3  4  2  0  0  0
 26 27  2  0  0  0
 27 28  1  0  0  0
 43 47  1  0  0  0
 43 51  1  0  0  0
 28 29  1  0  0  0
 56 48  1  0  0  0
 56 60  1  0  0  0
 29 30  1  0  0  0
 57 60  1  0  0  0
 57 61  1  0  0  0
 30 31  1  0  0  0
 44 49  1  0  0  0
 44 52  1  0  0  0
 31 32  1  0  0  0
 45 46  1  0  0  0
 45 50  1  0  0  0
 32 33  1  0  0  0
 53 54  1  0  0  0
 53 55  1  0  0  0
 33 34  1  0  0  0
 34 35  1  0  0  0
 35 36  1  0  0  0
 58 60  1  0  0  0
 36 37  1  0  0  0
 59 60  1  0  0  0
 59 62  1  0  0  0
 37 38  1  0  0  0
 38 39  1  0  0  0
 39 40  1  0  0  0
  4  6  1  0  0  0
  6  7  1  0  0  0
  7  8  1  0  0  0
  8  9  1  0  0  0
  9 10  1  0  0  0
 10 11  1  0  0  0
 11 12  1  0  0  0
 12 13  1  0  0  0
 13 14  1  0  0  0
 14 15  1  0  0  0
 15 16  1  0  0  0
 16 17  1  0  0  0
 17 18  1  0  0  0
 18 19  1  0  0  0
 19 20  1  0  0  0
 20 21  1  0  0  0
 21 22  1  0  0  0
 46 47  1  0  0  0
 47 48  1  0  0  0
 48 49  1  0  0  0
 49 50  1  0  0  0
 50 54  1  0  0  0
M  CHG 1  58  -1
M  END
> <minimizedAffinity>
-9.76815

> <CNNscore>
0.3080517650

> <CNNaffinity>
7.2347383499

> <CNN_VS>
2.2286739349

> <CNNaffinity_variance>
1.7666517496

$$$$
/media/chris/experiments/cd1a-new-docking/inputs/ligands/1onq_ligand.pdb


 62 62  0  0  0  0  0  0  0  0999 V2000
  -40.6877   59.7294   64.3802 C   0  0  0  0  0  0  0  0  0  0  0  0
  -41.0961   60.4144   65.5906 N   0  0  0  0  0  0  0  0  0  0  0  0
  -42.5786   61.5081   66.9148 O   0  0  0  0  0  0  0  0  0  0  0  0
  -42.2975   60.9313   65.8823 C   0  0  0  0  0  0  0  0  0  0  0  0
  -40.4048   60.5122   66.2847 H   0  0  0  0  0  0  0  0  0  0  0  0
  -43.3391   60.7654   64.8159 C   0  0  0  0  0  0  0  0  0  0  0  0
  -44.5722   60.1773   65.5021 C   0  0  0  0  0  0  0  0  0  0  0  0
  -45.2193   59.1277   64.6019 C   0  0  0  0  0  0  0  0  0  0  0  0
  -46.7239   59.0295   64.6727 C   0  0  0  0  0  0  0  0  0  0  0  0
  -47.2960   60.3526   64.1745 C   0  0  0  0  0  0  0  0  0  0  0  0
  -48.4340   60.8775   65.0601 C   0  0  0  0  0  0  0  0  0  0  0  0
  -49.0419   59.8208   66.0005 C   0  0  0  0  0  0  0  0  0  0  0  0
  -50.4532   59.3697   65.5645 C   0  0  0  0  0  0  0  0  0  0  0  0
  -51.0171   60.3146   64.4995 C   0  0  0  0  0  0  0  0  0  0  0  0
  -51.4883   59.6356   63.2192 C   0  0  0  0  0  0  0  0  0  0  0  0
  -50.4916   58.6037   62.7124 C   0  0  0  0  0  0  0  0  0  0  0  0
  -50.8291   57.9461   61.3724 C   0  0  0  0  0  0  0  0  0  0  0  0
  -49.6249   57.1272   60.9276 C   0  0  0  0  0  0  0  0  0  0  0  0
  -49.2162   57.1680   59.4625 C   0  0  0  0  0  0  0  0  0  0  0  0
  -48.5959   58.5272   59.1023 C   0  0  0  0  0  0  0  0  0  0  0  0
  -47.5756   58.4783   57.9500 C   0  0  0  0  0  0  0  0  0  0  0  0
  -47.6554   57.1949   57.1267 C   0  0  0  0  0  0  0  0  0  0  0  0
  -38.8112   58.7495   65.3362 O   0  0  0  0  0  0  0  0  0  0  0  0
  -40.1222   58.4242   64.9133 C   0  0  0  0  0  0  0  0  0  0  0  0
  -38.8545   59.4138   66.0417 H   0  0  0  0  0  0  0  0  0  0  0  0
  -40.1250   57.3771   63.7972 C   0  0  0  0  0  0  0  0  0  0  0  0
  -41.2501   56.9421   63.2045 C   0  0  0  0  0  0  0  0  0  0  0  0
  -41.1694   55.8930   62.0971 C   0  0  0  0  0  0  0  0  0  0  0  0
  -41.2141   56.4810   60.6792 C   0  0  0  0  0  0  0  0  0  0  0  0
  -41.8726   57.8671   60.5529 C   0  0  0  0  0  0  0  0  0  0  0  0
  -40.9052   58.8764   59.8889 C   0  0  0  0  0  0  0  0  0  0  0  0
  -39.9203   58.2688   58.8582 C   0  0  0  0  0  0  0  0  0  0  0  0
  -38.4380   58.6350   59.1065 C   0  0  0  0  0  0  0  0  0  0  0  0
  -38.1593   59.1456   60.5367 C   0  0  0  0  0  0  0  0  0  0  0  0
  -37.4657   58.1156   61.4362 C   0  0  0  0  0  0  0  0  0  0  0  0
  -36.6449   58.6799   62.5939 C   0  0  0  0  0  0  0  0  0  0  0  0
  -35.6669   57.6663   63.2202 C   0  0  0  0  0  0  0  0  0  0  0  0
  -35.0332   58.1034   64.5496 C   0  0  0  0  0  0  0  0  0  0  0  0
  -33.8298   59.0196   64.3102 C   0  0  0  0  0  0  0  0  0  0  0  0
  -32.6848   58.4334   63.5034 C   0  0  0  0  0  0  0  0  0  0  0  0
  -39.7869   60.5451   63.4252 C   0  0  0  0  0  0  0  0  0  0  0  0
  -39.1660   61.7338   63.9772 O   0  0  0  0  0  0  0  0  0  0  0  0
  -37.1872   62.1898   61.9639 O   0  0  0  0  0  0  0  0  0  0  0  0
  -35.4282   64.5021   64.9569 O   0  0  0  0  0  0  0  0  0  0  0  0
  -37.3921   62.2757   65.5409 O   0  0  0  0  0  0  0  0  0  0  0  0
  -37.7096   61.7984   64.2109 C   0  0  0  0  0  0  0  0  0  0  0  0
  -36.9077   62.6772   63.2400 C   0  0  0  0  0  0  0  0  0  0  0  0
  -35.3806   62.6116   63.4607 C   0  0  0  0  0  0  0  0  0  0  0  0
  -35.1360   63.1104   64.8581 C   0  0  0  0  0  0  0  0  0  0  0  0
  -35.9710   62.3115   65.8423 C   0  0  0  0  0  0  0  0  0  0  0  0
  -38.1438   62.2235   61.8073 H   0  0  0  0  0  0  0  0  0  0  0  0
  -34.8845   64.9926   64.3206 H   0  0  0  0  0  0  0  0  0  0  0  0
  -36.4595   64.0312   67.4292 O   0  0  0  0  0  0  0  0  0  0  0  0
  -35.5896   62.9717   67.1656 C   0  0  0  0  0  0  0  0  0  0  0  0
  -36.2152   64.4487   68.2699 H   0  0  0  0  0  0  0  0  0  0  0  0
  -34.5778   63.4420   62.5913 O   0  0  0  0  0  0  0  0  0  0  0  0
  -32.7691   61.6425   62.1356 O   0  0  0  0  0  0  0  0  0  0  0  0
  -32.1778   63.6499   63.3644 O   0  0  0  0  0  0  0  0  0  0  0  0
  -32.5133   63.7430   60.9659 O   0  0  0  0  0  0  0  0  0  0  0  0
  -32.9846   63.1165   62.2334 S   0  0  0  0  0  0  0  0  0  0  0  0
  -33.0706   61.2167   62.9534 H   0  0  0  0  0  0  0  0  0  0  0  0
  -33.0345   63.4007   60.2227 H   0  0  0  0  0  0  0  0  0  0  0  0
  2  1  1  0  0  0
  2  4  1  0  0  0
  2  5  1  0  0  0
 41 42  1  0  0  0
 41  1  1  0  0  0
 42 46  1  0  0  0
  1 24  1  0  0  0
 23 24  1  0  0  0
 23 25  1  0  0  0
 24 26  1  0  0  0
  3  4  2  0  0  0
 26 27  2  0  0  0
 27 28  1  0  0  0
 43 47  1  0  0  0
 43 51  1  0  0  0
 28 29  1  0  0  0
 56 48  1  0  0  0
 56 60  1  0  0  0
 29 30  1  0  0  0
 57 60  1  0  0  0
 57 61  1  0  0  0
 30 31  1  0  0  0
 44 49  1  0  0  0
 44 52  1  0  0  0
 31 32  1  0  0  0
 45 46  1  0  0  0
 45 50  1  0  0  0
 32 33  1  0  0  0
 53 54  1  0  0  0
 53 55  1  0  0  0
 33 34  1  0  0  0
 34 35  1  0  0  0
 35 36  1  0  0  0
 58 60  1  0  0  0
 36 37  1  0  0  0
 59 60  1  0  0  0
 59 62  1  0  0  0
 37 38  1  0  0  0
 38 39  1  0  0  0
 39 40  1  0  0  0
  4  6  1  0  0  0
  6  7  1  0  0  0
  7  8  1  0  0  0
  8  9  1  0  0  0
  9 10  1  0  0  0
 10 11  1  0  0  0
 11 12  1  0  0  0
 12 13  1  0  0  0
 13 14  1  0  0  0
 14 15  1  0  0  0
 15 16  1  0  0  0
 16 17  1  0  0  0
 17 18  1  0  0  0
 18 19  1  0  0  0
 19 20  1  0  0  0
 20 21  1  0  0  0
 21 22  1  0  0  0
 46 47  1  0  0  0
 47 48  1  0  0  0
 48 49  1  0  0  0
 49 50  1  0  0  0
 50 54  1  0  0  0
M  CHG 1  58  -1
M  END
> <minimizedAffinity>
-9.73439

> <CNNscore>
0.2243024260

> <CNNaffinity>
7.1098647118

> <CNN_VS>
1.5947599411

> <CNNaffinity_variance>
1.6006835699

$$$$
/media/chris/experiments/cd1a-new-docking/inputs/ligands/1onq_ligand.pdb


 62 62  0  0  0  0  0  0  0  0999 V2000
  -40.8311   58.8735   64.5085 C   0  0  0  0  0  0  0  0  0  0  0  0
  -41.7408   59.9560   64.8274 N   0  0  0  0  0  0  0  0  0  0  0  0
  -42.7479   61.9535   64.4485 O   0  0  0  0  0  0  0  0  0  0  0  0
  -41.9782   61.0707   64.1226 C   0  0  0  0  0  0  0  0  0  0  0  0
  -42.2472   59.8605   65.6662 H   0  0  0  0  0  0  0  0  0  0  0  0
  -41.2032   61.1942   62.8444 C   0  0  0  0  0  0  0  0  0  0  0  0
  -42.2341   61.2671   61.7178 C   0  0  0  0  0  0  0  0  0  0  0  0
  -41.5380   61.1405   60.3649 C   0  0  0  0  0  0  0  0  0  0  0  0
  -41.1467   59.7434   59.9483 C   0  0  0  0  0  0  0  0  0  0  0  0
  -39.6343   59.7275   59.7527 C   0  0  0  0  0  0  0  0  0  0  0  0
  -39.0065   58.3694   60.0941 C   0  0  0  0  0  0  0  0  0  0  0  0
  -37.5374   58.4483   60.5480 C   0  0  0  0  0  0  0  0  0  0  0  0
  -37.3501   58.0959   62.0400 C   0  0  0  0  0  0  0  0  0  0  0  0
  -36.0598   58.7160   62.5836 C   0  0  0  0  0  0  0  0  0  0  0  0
  -35.6428   58.2292   63.9661 C   0  0  0  0  0  0  0  0  0  0  0  0
  -34.6085   59.1398   64.6111 C   0  0  0  0  0  0  0  0  0  0  0  0
  -33.3521   58.4523   65.1505 C   0  0  0  0  0  0  0  0  0  0  0  0
  -32.2858   58.4894   64.0641 C   0  0  0  0  0  0  0  0  0  0  0  0
  -32.3849   59.5535   62.9810 C   0  0  0  0  0  0  0  0  0  0  0  0
  -30.9935   60.0877   62.6061 C   0  0  0  0  0  0  0  0  0  0  0  0
  -30.9037   60.7020   61.1969 C   0  0  0  0  0  0  0  0  0  0  0  0
  -30.8604   62.2282   61.2049 C   0  0  0  0  0  0  0  0  0  0  0  0
  -42.0152   57.1003   63.5870 O   0  0  0  0  0  0  0  0  0  0  0  0
  -41.6530   57.6408   64.8440 C   0  0  0  0  0  0  0  0  0  0  0  0
  -41.2146   56.8518   63.0990 H   0  0  0  0  0  0  0  0  0  0  0  0
  -42.8748   58.0549   65.6674 C   0  0  0  0  0  0  0  0  0  0  0  0
  -44.1368   57.9067   65.2297 C   0  0  0  0  0  0  0  0  0  0  0  0
  -45.3040   58.3459   66.1118 C   0  0  0  0  0  0  0  0  0  0  0  0
  -46.5396   57.4405   66.0042 C   0  0  0  0  0  0  0  0  0  0  0  0
  -47.7980   58.0980   65.4082 C   0  0  0  0  0  0  0  0  0  0  0  0
  -47.4269   59.3716   64.6110 C   0  0  0  0  0  0  0  0  0  0  0  0
  -48.3871   60.5733   64.7994 C   0  0  0  0  0  0  0  0  0  0  0  0
  -49.3761   60.7835   63.6287 C   0  0  0  0  0  0  0  0  0  0  0  0
  -50.7821   60.2044   63.8965 C   0  0  0  0  0  0  0  0  0  0  0  0
  -51.1864   59.0894   62.9246 C   0  0  0  0  0  0  0  0  0  0  0  0
  -50.0589   58.4835   62.0915 C   0  0  0  0  0  0  0  0  0  0  0  0
  -50.5394   57.7719   60.8113 C   0  0  0  0  0  0  0  0  0  0  0  0
  -49.9662   58.3275   59.4988 C   0  0  0  0  0  0  0  0  0  0  0  0
  -48.6194   57.6778   59.1685 C   0  0  0  0  0  0  0  0  0  0  0  0
  -47.7767   58.3703   58.1122 C   0  0  0  0  0  0  0  0  0  0  0  0
  -39.4268   58.9743   65.1462 C   0  0  0  0  0  0  0  0  0  0  0  0
  -39.0595   60.2612   65.7049 O   0  0  0  0  0  0  0  0  0  0  0  0
  -38.4247   61.2619   63.1025 O   0  0  0  0  0  0  0  0  0  0  0  0
  -36.7160   64.3758   65.2894 O   0  0  0  0  0  0  0  0  0  0  0  0
  -37.1945   61.6225   66.4493 O   0  0  0  0  0  0  0  0  0  0  0  0
  -37.7951   60.9254   65.3309 C   0  0  0  0  0  0  0  0  0  0  0  0
  -37.8810   61.9474   64.1881 C   0  0  0  0  0  0  0  0  0  0  0  0
  -36.5109   62.5200   63.7635 C   0  0  0  0  0  0  0  0  0  0  0  0
  -35.9519   63.2144   64.9745 C   0  0  0  0  0  0  0  0  0  0  0  0
  -35.9203   62.2533   66.1490 C   0  0  0  0  0  0  0  0  0  0  0  0
  -39.2873   60.8947   63.3512 H   0  0  0  0  0  0  0  0  0  0  0  0
  -36.7228   64.9751   64.5266 H   0  0  0  0  0  0  0  0  0  0  0  0
  -36.3827   63.7807   67.9287 O   0  0  0  0  0  0  0  0  0  0  0  0
  -35.3439   63.1418   67.2493 C   0  0  0  0  0  0  0  0  0  0  0  0
  -36.0140   64.3443   68.6268 H   0  0  0  0  0  0  0  0  0  0  0  0
  -36.5358   63.5086   62.7090 O   0  0  0  0  0  0  0  0  0  0  0  0
  -34.0493   63.0358   62.1513 O   0  0  0  0  0  0  0  0  0  0  0  0
  -34.8301   65.3294   62.2887 O   0  0  0  0  0  0  0  0  0  0  0  0
  -35.3928   63.9629   60.3677 O   0  0  0  0  0  0  0  0  0  0  0  0
  -35.1851   63.9544   61.8435 S   0  0  0  0  0  0  0  0  0  0  0  0
  -33.8989   63.0173   63.1094 H   0  0  0  0  0  0  0  0  0  0  0  0
  -35.6249   63.0698   60.0687 H   0  0  0  0  0  0  0  0  0  0  0  0
  2  1  1  0  0  0
  2  4  1  0  0  0
  2  5  1  0  0  0
 41 42  1  0  0  0
 41  1  1  0  0  0
 42 46  1  0  0  0
  1 24  1  0  0  0
 23 24  1  0  0  0
 23 25  1  0  0  0
 24 26  1  0  0  0
  3  4  2  0  0  0
 26 27  2  0  0  0
 27 28  1  0  0  0
 43 47  1  0  0  0
 43 51  1  0  0  0
 28 29  1  0  0  0
 56 48  1  0  0  0
 56 60  1  0  0  0
 29 30  1  0  0  0
 57 60  1  0  0  0
 57 61  1  0  0  0
 30 31  1  0  0  0
 44 49  1  0  0  0
 44 52  1  0  0  0
 31 32  1  0  0  0
 45 46  1  0  0  0
 45 50  1  0  0  0
 32 33  1  0  0  0
 53 54  1  0  0  0
 53 55  1  0  0  0
 33 34  1  0  0  0
 34 35  1  0  0  0
 35 36  1  0  0  0
 58 60  1  0  0  0
 36 37  1  0  0  0
 59 60  1  0  0  0
 59 62  1  0  0  0
 37 38  1  0  0  0
 38 39  1  0  0  0
 39 40  1  0  0  0
  4  6  1  0  0  0
  6  7  1  0  0  0
  7  8  1  0  0  0
  8  9  1  0  0  0
  9 10  1  0  0  0
 10 11  1  0  0  0
 11 12  1  0  0  0
 12 13  1  0  0  0
 13 14  1  0  0  0
 14 15  1  0  0  0
 15 16  1  0  0  0
 16 17  1  0  0  0
 17 18  1  0  0  0
 18 19  1  0  0  0
 19 20  1  0  0  0
 20 21  1  0  0  0
 21 22  1  0  0  0
 46 47  1  0  0  0
 47 48  1  0  0  0
 48 49  1  0  0  0
 49 50  1  0  0  0
 50 54  1  0  0  0
M  CHG 1  58  -1
M  END
> <minimizedAffinity>
-9.06390

> <CNNscore>
0.1789884269

> <CNNaffinity>
6.8793730736

> <CNN_VS>
1.2313281298

> <CNNaffinity_variance>
1.7770513296

$$$$
/media/chris/experiments/cd1a-new-docking/inputs/ligands/1onq_ligand.pdb


 62 62  0  0  0  0  0  0  0  0999 V2000
  -41.4858   59.8102   64.8845 C   0  0  0  0  0  0  0  0  0  0  0  0
  -42.2721   60.8225   64.2076 N   0  0  0  0  0  0  0  0  0  0  0  0
  -43.1149   61.8658   62.3776 O   0  0  0  0  0  0  0  0  0  0  0  0
  -42.4501   60.9862   62.8896 C   0  0  0  0  0  0  0  0  0  0  0  0
  -42.7326   61.4704   64.7884 H   0  0  0  0  0  0  0  0  0  0  0  0
  -41.7471   59.9849   62.0219 C   0  0  0  0  0  0  0  0  0  0  0  0
  -41.1484   60.7683   60.8536 C   0  0  0  0  0  0  0  0  0  0  0  0
  -40.4250   59.8168   59.9037 C   0  0  0  0  0  0  0  0  0  0  0  0
  -41.2585   58.7027   59.3185 C   0  0  0  0  0  0  0  0  0  0  0  0
  -40.5572   57.3864   59.6367 C   0  0  0  0  0  0  0  0  0  0  0  0
  -41.1874   56.6515   60.8273 C   0  0  0  0  0  0  0  0  0  0  0  0
  -40.2942   56.5954   62.0802 C   0  0  0  0  0  0  0  0  0  0  0  0
  -38.8098   56.8916   61.7731 C   0  0  0  0  0  0  0  0  0  0  0  0
  -38.3380   58.1332   62.5353 C   0  0  0  0  0  0  0  0  0  0  0  0
  -36.9031   58.5591   62.2491 C   0  0  0  0  0  0  0  0  0  0  0  0
  -35.8858   57.5926   62.8373 C   0  0  0  0  0  0  0  0  0  0  0  0
  -35.6166   57.7324   64.3374 C   0  0  0  0  0  0  0  0  0  0  0  0
  -34.9577   59.0838   64.5786 C   0  0  0  0  0  0  0  0  0  0  0  0
  -33.5573   59.1167   65.1728 C   0  0  0  0  0  0  0  0  0  0  0  0
  -32.5226   58.5782   64.1721 C   0  0  0  0  0  0  0  0  0  0  0  0
  -32.4497   59.3588   62.8467 C   0  0  0  0  0  0  0  0  0  0  0  0
  -31.0481   59.8711   62.5238 C   0  0  0  0  0  0  0  0  0  0  0  0
  -42.2265   57.9617   66.0803 O   0  0  0  0  0  0  0  0  0  0  0  0
  -42.4132   59.3626   66.0011 C   0  0  0  0  0  0  0  0  0  0  0  0
  -41.3034   57.7709   66.3089 H   0  0  0  0  0  0  0  0  0  0  0  0
  -43.8542   59.7330   65.6424 C   0  0  0  0  0  0  0  0  0  0  0  0
  -44.7713   58.8253   65.2664 C   0  0  0  0  0  0  0  0  0  0  0  0
  -46.1901   59.2751   64.9232 C   0  0  0  0  0  0  0  0  0  0  0  0
  -47.2587   58.7604   65.8986 C   0  0  0  0  0  0  0  0  0  0  0  0
  -48.1538   59.8387   66.5364 C   0  0  0  0  0  0  0  0  0  0  0  0
  -49.0874   60.4740   65.4780 C   0  0  0  0  0  0  0  0  0  0  0  0
  -50.4665   59.7862   65.3141 C   0  0  0  0  0  0  0  0  0  0  0  0
  -51.3343   60.3706   64.1747 C   0  0  0  0  0  0  0  0  0  0  0  0
  -51.3488   59.4989   62.9004 C   0  0  0  0  0  0  0  0  0  0  0  0
  -50.3973   58.2980   62.9625 C   0  0  0  0  0  0  0  0  0  0  0  0
  -49.5107   58.0799   61.7383 C   0  0  0  0  0  0  0  0  0  0  0  0
  -50.2399   57.4315   60.5450 C   0  0  0  0  0  0  0  0  0  0  0  0
  -50.1497   58.2076   59.2223 C   0  0  0  0  0  0  0  0  0  0  0  0
  -49.0500   57.6356   58.3230 C   0  0  0  0  0  0  0  0  0  0  0  0
  -47.7068   58.3423   58.3663 C   0  0  0  0  0  0  0  0  0  0  0  0
  -40.0568   60.2378   65.2895 C   0  0  0  0  0  0  0  0  0  0  0  0
  -39.4295   61.2586   64.4724 O   0  0  0  0  0  0  0  0  0  0  0  0
  -37.7182   61.7427   62.2332 O   0  0  0  0  0  0  0  0  0  0  0  0
  -35.9917   64.5230   64.8192 O   0  0  0  0  0  0  0  0  0  0  0  0
  -37.5999   62.1516   65.7917 O   0  0  0  0  0  0  0  0  0  0  0  0
  -37.9772   61.5138   64.5474 C   0  0  0  0  0  0  0  0  0  0  0  0
  -37.3847   62.3808   63.4272 C   0  0  0  0  0  0  0  0  0  0  0  0
  -35.8475   62.5142   63.4930 C   0  0  0  0  0  0  0  0  0  0  0  0
  -35.5386   63.1715   64.8098 C   0  0  0  0  0  0  0  0  0  0  0  0
  -36.1726   62.3809   65.9399 C   0  0  0  0  0  0  0  0  0  0  0  0
  -38.6819   61.6500   62.1743 H   0  0  0  0  0  0  0  0  0  0  0  0
  -35.5748   65.0089   64.0905 H   0  0  0  0  0  0  0  0  0  0  0  0
  -34.3627   63.2527   67.2352 O   0  0  0  0  0  0  0  0  0  0  0  0
  -35.7556   63.2062   67.1553 C   0  0  0  0  0  0  0  0  0  0  0  0
  -34.1004   63.7773   68.0078 H   0  0  0  0  0  0  0  0  0  0  0  0
  -35.2386   63.3434   62.4774 O   0  0  0  0  0  0  0  0  0  0  0  0
  -32.8731   62.7282   63.3393 O   0  0  0  0  0  0  0  0  0  0  0  0
  -33.3809   65.0342   62.7795 O   0  0  0  0  0  0  0  0  0  0  0  0
  -33.0307   63.4018   61.0226 O   0  0  0  0  0  0  0  0  0  0  0  0
  -33.5988   63.6163   62.3837 S   0  0  0  0  0  0  0  0  0  0  0  0
  -33.2299   62.8542   64.2325 H   0  0  0  0  0  0  0  0  0  0  0  0
  -33.1686   62.4792   60.7564 H   0  0  0  0  0  0  0  0  0  0  0  0
  2  1  1  0  0  0
  2  4  1  0  0  0
  2  5  1  0  0  0
 41 42  1  0  0  0
 41  1  1  0  0  0
 42 46  1  0  0  0
  1 24  1  0  0  0
 23 24  1  0  0  0
 23 25  1  0  0  0
 24 26  1  0  0  0
  3  4  2  0  0  0
 26 27  2  0  0  0
 27 28  1  0  0  0
 43 47  1  0  0  0
 43 51  1  0  0  0
 28 29  1  0  0  0
 56 48  1  0  0  0
 56 60  1  0  0  0
 29 30  1  0  0  0
 57 60  1  0  0  0
 57 61  1  0  0  0
 30 31  1  0  0  0
 44 49  1  0  0  0
 44 52  1  0  0  0
 31 32  1  0  0  0
 45 46  1  0  0  0
 45 50  1  0  0  0
 32 33  1  0  0  0
 53 54  1  0  0  0
 53 55  1  0  0  0
 33 34  1  0  0  0
 34 35  1  0  0  0
 35 36  1  0  0  0
 58 60  1  0  0  0
 36 37  1  0  0  0
 59 60  1  0  0  0
 59 62  1  0  0  0
 37 38  1  0  0  0
 38 39  1  0  0  0
 39 40  1  0  0  0
  4  6  1  0  0  0
  6  7  1  0  0  0
  7  8  1  0  0  0
  8  9  1  0  0  0
  9 10  1  0  0  0
 10 11  1  0  0  0
 11 12  1  0  0  0
 12 13  1  0  0  0
 13 14  1  0  0  0
 14 15  1  0  0  0
 15 16  1  0  0  0
 16 17  1  0  0  0
 17 18  1  0  0  0
 18 19  1  0  0  0
 19 20  1  0  0  0
 20 21  1  0  0  0
 21 22  1  0  0  0
 46 47  1  0  0  0
 47 48  1  0  0  0
 48 49  1  0  0  0
 49 50  1  0  0  0
 50 54  1  0  0  0
M  CHG 1  58  -1
M  END
> <minimizedAffinity>
-9.52416

> <CNNscore>
0.1505561471

> <CNNaffinity>
6.9569373131

> <CNN_VS>
1.0474096537

> <CNNaffinity_variance>
1.7074520588

$$$$
/media/chris/experiments/cd1a-new-docking/inputs/ligands/1onq_ligand.pdb


 62 62  0  0  0  0  0  0  0  0999 V2000
  -40.1470   60.6310   65.1051 C   0  0  0  0  0  0  0  0  0  0  0  0
  -40.7109   59.3424   65.4553 N   0  0  0  0  0  0  0  0  0  0  0  0
  -42.3008   57.9808   66.3304 O   0  0  0  0  0  0  0  0  0  0  0  0
  -41.8846   59.0880   66.0497 C   0  0  0  0  0  0  0  0  0  0  0  0
  -40.1634   58.5563   65.2283 H   0  0  0  0  0  0  0  0  0  0  0  0
  -42.7073   60.2976   66.3804 C   0  0  0  0  0  0  0  0  0  0  0  0
  -44.1654   59.9116   66.1309 C   0  0  0  0  0  0  0  0  0  0  0  0
  -44.7198   60.7037   64.9492 C   0  0  0  0  0  0  0  0  0  0  0  0
  -46.1845   60.5029   64.6446 C   0  0  0  0  0  0  0  0  0  0  0  0
  -46.4337   59.0014   64.5488 C   0  0  0  0  0  0  0  0  0  0  0  0
  -47.7198   58.5669   65.2643 C   0  0  0  0  0  0  0  0  0  0  0  0
  -48.4473   59.7050   66.0034 C   0  0  0  0  0  0  0  0  0  0  0  0
  -49.9292   59.8389   65.5895 C   0  0  0  0  0  0  0  0  0  0  0  0
  -50.0464   60.4599   64.1947 C   0  0  0  0  0  0  0  0  0  0  0  0
  -51.3191   60.1051   63.4355 C   0  0  0  0  0  0  0  0  0  0  0  0
  -51.1883   58.7976   62.6684 C   0  0  0  0  0  0  0  0  0  0  0  0
  -49.7849   58.4524   62.1648 C   0  0  0  0  0  0  0  0  0  0  0  0
  -49.9085   57.9057   60.7491 C   0  0  0  0  0  0  0  0  0  0  0  0
  -49.2510   56.5730   60.4220 C   0  0  0  0  0  0  0  0  0  0  0  0
  -48.1582   56.7462   59.3553 C   0  0  0  0  0  0  0  0  0  0  0  0
  -48.3737   57.9415   58.4086 C   0  0  0  0  0  0  0  0  0  0  0  0
  -47.1679   58.2313   57.5177 C   0  0  0  0  0  0  0  0  0  0  0  0
  -41.5863   61.6070   63.5652 O   0  0  0  0  0  0  0  0  0  0  0  0
  -40.4679   60.7414   63.6245 C   0  0  0  0  0  0  0  0  0  0  0  0
  -41.3434   62.4743   63.9252 H   0  0  0  0  0  0  0  0  0  0  0  0
  -40.7850   59.3508   63.0695 C   0  0  0  0  0  0  0  0  0  0  0  0
  -41.9548   59.0465   62.4818 C   0  0  0  0  0  0  0  0  0  0  0  0
  -42.1954   57.6335   61.9535 C   0  0  0  0  0  0  0  0  0  0  0  0
  -40.9563   56.9892   61.3148 C   0  0  0  0  0  0  0  0  0  0  0  0
  -40.8688   57.0897   59.7808 C   0  0  0  0  0  0  0  0  0  0  0  0
  -40.2844   58.4573   59.3524 C   0  0  0  0  0  0  0  0  0  0  0  0
  -38.7369   58.5381   59.3308 C   0  0  0  0  0  0  0  0  0  0  0  0
  -38.1171   59.1551   60.6068 C   0  0  0  0  0  0  0  0  0  0  0  0
  -37.1103   58.2241   61.3165 C   0  0  0  0  0  0  0  0  0  0  0  0
  -37.4562   57.9440   62.7838 C   0  0  0  0  0  0  0  0  0  0  0  0
  -36.2713   57.7540   63.7284 C   0  0  0  0  0  0  0  0  0  0  0  0
  -35.1707   58.8221   63.5745 C   0  0  0  0  0  0  0  0  0  0  0  0
  -33.8681   58.3312   62.9247 C   0  0  0  0  0  0  0  0  0  0  0  0
  -32.6442   58.8838   63.6608 C   0  0  0  0  0  0  0  0  0  0  0  0
  -31.5764   59.5360   62.8005 C   0  0  0  0  0  0  0  0  0  0  0  0
  -38.6744   60.8484   65.5210 C   0  0  0  0  0  0  0  0  0  0  0  0
  -37.7198   61.0450   64.4471 O   0  0  0  0  0  0  0  0  0  0  0  0
  -35.4941   61.8577   66.0479 O   0  0  0  0  0  0  0  0  0  0  0  0
  -34.0661   63.2950   62.4019 O   0  0  0  0  0  0  0  0  0  0  0  0
  -37.0033   62.8043   62.9382 O   0  0  0  0  0  0  0  0  0  0  0  0
  -36.9823   62.3158   64.3014 C   0  0  0  0  0  0  0  0  0  0  0  0
  -35.5061   62.2925   64.7232 C   0  0  0  0  0  0  0  0  0  0  0  0
  -34.8210   63.6752   64.6603 C   0  0  0  0  0  0  0  0  0  0  0  0
  -34.8929   64.1150   63.2241 C   0  0  0  0  0  0  0  0  0  0  0  0
  -36.3337   64.0798   62.7475 C   0  0  0  0  0  0  0  0  0  0  0  0
  -35.9211   60.9888   66.1069 H   0  0  0  0  0  0  0  0  0  0  0  0
  -33.1517   63.3323   62.7237 H   0  0  0  0  0  0  0  0  0  0  0  0
  -35.4182   65.7075   61.2553 O   0  0  0  0  0  0  0  0  0  0  0  0
  -36.1827   64.5403   61.2992 C   0  0  0  0  0  0  0  0  0  0  0  0
  -35.3239   65.9978   60.3346 H   0  0  0  0  0  0  0  0  0  0  0  0
  -33.4214   63.7067   65.0206 O   0  0  0  0  0  0  0  0  0  0  0  0
  -33.1553   63.4015   67.5805 O   0  0  0  0  0  0  0  0  0  0  0  0
  -33.6042   65.6092   66.6785 O   0  0  0  0  0  0  0  0  0  0  0  0
  -31.3998   64.6265   66.4566 O   0  0  0  0  0  0  0  0  0  0  0  0
  -32.8621   64.3386   66.4560 S   0  0  0  0  0  0  0  0  0  0  0  0
  -34.1045   63.2021   67.5962 H   0  0  0  0  0  0  0  0  0  0  0  0
  -30.9080   63.8030   66.3120 H   0  0  0  0  0  0  0  0  0  0  0  0
  2  1  1  0  0  0
  2  4  1  0  0  0
  2  5  1  0  0  0
 41 42  1  0  0  0
 41  1  1  0  0  0
 42 46  1  0  0  0
  1 24  1  0  0  0
 23 24  1  0  0  0
 23 25  1  0  0  0
 24 26  1  0  0  0
  3  4  2  0  0  0
 26 27  2  0  0  0
 27 28  1  0  0  0
 43 47  1  0  0  0
 43 51  1  0  0  0
 28 29  1  0  0  0
 56 48  1  0  0  0
 56 60  1  0  0  0
 29 30  1  0  0  0
 57 60  1  0  0  0
 57 61  1  0  0  0
 30 31  1  0  0  0
 44 49  1  0  0  0
 44 52  1  0  0  0
 31 32  1  0  0  0
 45 46  1  0  0  0
 45 50  1  0  0  0
 32 33  1  0  0  0
 53 54  1  0  0  0
 53 55  1  0  0  0
 33 34  1  0  0  0
 34 35  1  0  0  0
 35 36  1  0  0  0
 58 60  1  0  0  0
 36 37  1  0  0  0
 59 60  1  0  0  0
 59 62  1  0  0  0
 37 38  1  0  0  0
 38 39  1  0  0  0
 39 40  1  0  0  0
  4  6  1  0  0  0
  6  7  1  0  0  0
  7  8  1  0  0  0
  8  9  1  0  0  0
  9 10  1  0  0  0
 10 11  1  0  0  0
 11 12  1  0  0  0
 12 13  1  0  0  0
 13 14  1  0  0  0
 14 15  1  0  0  0
 15 16  1  0  0  0
 16 17  1  0  0  0
 17 18  1  0  0  0
 18 19  1  0  0  0
 19 20  1  0  0  0
 20 21  1  0  0  0
 21 22  1  0  0  0
 46 47  1  0  0  0
 47 48  1  0  0  0
 48 49  1  0  0  0
 49 50  1  0  0  0
 50 54  1  0  0  0
M  CHG 1  58  -1
M  END
> <minimizedAffinity>
-9.21849

> <CNNscore>
0.1375184804

> <CNNaffinity>
6.8876676559

> <CNN_VS>
0.9471815825

> <CNNaffinity_variance>
1.5523124933

$$$$
/media/chris/experiments/cd1a-new-docking/inputs/ligands/1onq_ligand.pdb


 62 62  0  0  0  0  0  0  0  0999 V2000
  -39.4307   60.4682   65.3069 C   0  0  0  0  0  0  0  0  0  0  0  0
  -40.2225   59.3308   65.7317 N   0  0  0  0  0  0  0  0  0  0  0  0
  -42.0461   58.3441   66.6529 O   0  0  0  0  0  0  0  0  0  0  0  0
  -41.4333   59.3350   66.3059 C   0  0  0  0  0  0  0  0  0  0  0  0
  -39.8209   58.4450   65.5795 H   0  0  0  0  0  0  0  0  0  0  0  0
  -42.0317   60.6932   66.5221 C   0  0  0  0  0  0  0  0  0  0  0  0
  -43.5114   60.5783   66.1556 C   0  0  0  0  0  0  0  0  0  0  0  0
  -43.7983   61.3785   64.8873 C   0  0  0  0  0  0  0  0  0  0  0  0
  -45.1465   61.1488   64.2487 C   0  0  0  0  0  0  0  0  0  0  0  0
  -45.8105   59.9863   64.9792 C   0  0  0  0  0  0  0  0  0  0  0  0
  -47.0775   59.4874   64.2716 C   0  0  0  0  0  0  0  0  0  0  0  0
  -48.2546   60.4791   64.3092 C   0  0  0  0  0  0  0  0  0  0  0  0
  -49.5607   59.8412   64.8315 C   0  0  0  0  0  0  0  0  0  0  0  0
  -50.7822   60.5526   64.2427 C   0  0  0  0  0  0  0  0  0  0  0  0
  -51.5111   59.7831   63.1477 C   0  0  0  0  0  0  0  0  0  0  0  0
  -50.8332   58.4603   62.8227 C   0  0  0  0  0  0  0  0  0  0  0  0
  -50.5319   58.2060   61.3439 C   0  0  0  0  0  0  0  0  0  0  0  0
  -49.0201   58.1763   61.1646 C   0  0  0  0  0  0  0  0  0  0  0  0
  -48.4459   57.5085   59.9238 C   0  0  0  0  0  0  0  0  0  0  0  0
  -48.2682   58.5248   58.7848 C   0  0  0  0  0  0  0  0  0  0  0  0
  -47.3875   58.0326   57.6214 C   0  0  0  0  0  0  0  0  0  0  0  0
  -47.1234   56.5292   57.6580 C   0  0  0  0  0  0  0  0  0  0  0  0
  -39.9268   61.5921   63.3356 O   0  0  0  0  0  0  0  0  0  0  0  0
  -39.4522   60.3397   63.7934 C   0  0  0  0  0  0  0  0  0  0  0  0
  -39.3113   62.2905   63.6081 H   0  0  0  0  0  0  0  0  0  0  0  0
  -40.3811   59.1904   63.3954 C   0  0  0  0  0  0  0  0  0  0  0  0
  -41.5617   59.3822   62.7825 C   0  0  0  0  0  0  0  0  0  0  0  0
  -42.4331   58.1818   62.4180 C   0  0  0  0  0  0  0  0  0  0  0  0
  -41.6514   56.8684   62.2692 C   0  0  0  0  0  0  0  0  0  0  0  0
  -41.0899   56.5825   60.8642 C   0  0  0  0  0  0  0  0  0  0  0  0
  -41.5277   57.6795   59.8640 C   0  0  0  0  0  0  0  0  0  0  0  0
  -40.3731   58.3852   59.1088 C   0  0  0  0  0  0  0  0  0  0  0  0
  -39.9483   59.7394   59.7240 C   0  0  0  0  0  0  0  0  0  0  0  0
  -38.5064   59.7416   60.2761 C   0  0  0  0  0  0  0  0  0  0  0  0
  -37.8497   58.3561   60.2944 C   0  0  0  0  0  0  0  0  0  0  0  0
  -37.5550   57.7709   61.6739 C   0  0  0  0  0  0  0  0  0  0  0  0
  -36.4850   58.5466   62.4673 C   0  0  0  0  0  0  0  0  0  0  0  0
  -35.3355   57.6930   63.0240 C   0  0  0  0  0  0  0  0  0  0  0  0
  -33.9798   58.2094   62.5337 C   0  0  0  0  0  0  0  0  0  0  0  0
  -33.0914   58.8675   63.5745 C   0  0  0  0  0  0  0  0  0  0  0  0
  -38.0454   60.6032   65.9790 C   0  0  0  0  0  0  0  0  0  0  0  0
  -36.8938   60.2702   65.1630 O   0  0  0  0  0  0  0  0  0  0  0  0
  -36.9771   62.1238   62.9872 O   0  0  0  0  0  0  0  0  0  0  0  0
  -35.3720   64.7243   65.8262 O   0  0  0  0  0  0  0  0  0  0  0  0
  -35.1563   61.7143   66.0468 O   0  0  0  0  0  0  0  0  0  0  0  0
  -35.8559   61.2749   64.8573 C   0  0  0  0  0  0  0  0  0  0  0  0
  -36.3373   62.5501   64.1504 C   0  0  0  0  0  0  0  0  0  0  0  0
  -35.1934   63.5080   63.7517 C   0  0  0  0  0  0  0  0  0  0  0  0
  -34.5144   63.9080   65.0324 C   0  0  0  0  0  0  0  0  0  0  0  0
  -34.0885   62.6678   65.7972 C   0  0  0  0  0  0  0  0  0  0  0  0
  -37.7001   61.5201   63.2186 H   0  0  0  0  0  0  0  0  0  0  0  0
  -35.6313   65.5096   65.3191 H   0  0  0  0  0  0  0  0  0  0  0  0
  -32.4875   64.2235   66.6520 O   0  0  0  0  0  0  0  0  0  0  0  0
  -33.4465   63.2852   67.0378 C   0  0  0  0  0  0  0  0  0  0  0  0
  -32.0813   64.6140   67.4416 H   0  0  0  0  0  0  0  0  0  0  0  0
  -35.5923   64.7389   63.1070 O   0  0  0  0  0  0  0  0  0  0  0  0
  -35.6455   63.7826   60.6987 O   0  0  0  0  0  0  0  0  0  0  0  0
  -33.9599   65.4221   61.2988 O   0  0  0  0  0  0  0  0  0  0  0  0
  -36.2572   66.1088   60.9446 O   0  0  0  0  0  0  0  0  0  0  0  0
  -35.3832   65.0271   61.4805 S   0  0  0  0  0  0  0  0  0  0  0  0
  -35.0843   63.0659   61.0339 H   0  0  0  0  0  0  0  0  0  0  0  0
  -37.1876   65.8593   61.0592 H   0  0  0  0  0  0  0  0  0  0  0  0
  2  1  1  0  0  0
  2  4  1  0  0  0
  2  5  1  0  0  0
 41 42  1  0  0  0
 41  1  1  0  0  0
 42 46  1  0  0  0
  1 24  1  0  0  0
 23 24  1  0  0  0
 23 25  1  0  0  0
 24 26  1  0  0  0
  3  4  2  0  0  0
 26 27  2  0  0  0
 27 28  1  0  0  0
 43 47  1  0  0  0
 43 51  1  0  0  0
 28 29  1  0  0  0
 56 48  1  0  0  0
 56 60  1  0  0  0
 29 30  1  0  0  0
 57 60  1  0  0  0
 57 61  1  0  0  0
 30 31  1  0  0  0
 44 49  1  0  0  0
 44 52  1  0  0  0
 31 32  1  0  0  0
 45 46  1  0  0  0
 45 50  1  0  0  0
 32 33  1  0  0  0
 53 54  1  0  0  0
 53 55  1  0  0  0
 33 34  1  0  0  0
 34 35  1  0  0  0
 35 36  1  0  0  0
 58 60  1  0  0  0
 36 37  1  0  0  0
 59 60  1  0  0  0
 59 62  1  0  0  0
 37 38  1  0  0  0
 38 39  1  0  0  0
 39 40  1  0  0  0
  4  6  1  0  0  0
  6  7  1  0  0  0
  7  8  1  0  0  0
  8  9  1  0  0  0
  9 10  1  0  0  0
 10 11  1  0  0  0
 11 12  1  0  0  0
 12 13  1  0  0  0
 13 14  1  0  0  0
 14 15  1  0  0  0
 15 16  1  0  0  0
 16 17  1  0  0  0
 17 18  1  0  0  0
 18 19  1  0  0  0
 19 20  1  0  0  0
 20 21  1  0  0  0
 21 22  1  0  0  0
 46 47  1  0  0  0
 47 48  1  0  0  0
 48 49  1  0  0  0
 49 50  1  0  0  0
 50 54  1  0  0  0
M  CHG 1  58  -1
M  END
> <minimizedAffinity>
-9.16720

> <CNNscore>
0.1357212961

> <CNNaffinity>
6.9764008522

> <CNN_VS>
0.9468461871

> <CNNaffinity_variance>
1.5731656551

$$$$
/media/chris/experiments/cd1a-new-docking/inputs/ligands/1onq_ligand.pdb


 62 62  0  0  0  0  0  0  0  0999 V2000
  -41.8922   60.6599   64.3603 C   0  0  0  0  0  0  0  0  0  0  0  0
  -42.2985   61.5721   63.3096 N   0  0  0  0  0  0  0  0  0  0  0  0
  -42.5910   62.1932   61.1472 O   0  0  0  0  0  0  0  0  0  0  0  0
  -42.2449   61.3824   61.9842 C   0  0  0  0  0  0  0  0  0  0  0  0
  -42.6587   62.4388   63.6067 H   0  0  0  0  0  0  0  0  0  0  0  0
  -41.7008   60.0533   61.5517 C   0  0  0  0  0  0  0  0  0  0  0  0
  -40.9261   60.3024   60.2576 C   0  0  0  0  0  0  0  0  0  0  0  0
  -41.0103   59.0742   59.3545 C   0  0  0  0  0  0  0  0  0  0  0  0
  -39.8815   58.0800   59.4797 C   0  0  0  0  0  0  0  0  0  0  0  0
  -38.5717   58.8569   59.3963 C   0  0  0  0  0  0  0  0  0  0  0  0
  -37.6085   58.5202   60.5425 C   0  0  0  0  0  0  0  0  0  0  0  0
  -38.2088   57.6029   61.6237 C   0  0  0  0  0  0  0  0  0  0  0  0
  -38.8091   58.3874   62.8110 C   0  0  0  0  0  0  0  0  0  0  0  0
  -38.5975   57.6267   64.1231 C   0  0  0  0  0  0  0  0  0  0  0  0
  -37.5262   58.2061   65.0390 C   0  0  0  0  0  0  0  0  0  0  0  0
  -36.2052   57.4595   64.9265 C   0  0  0  0  0  0  0  0  0  0  0  0
  -35.0139   58.2757   64.4198 C   0  0  0  0  0  0  0  0  0  0  0  0
  -34.8389   57.9902   62.9344 C   0  0  0  0  0  0  0  0  0  0  0  0
  -33.5007   58.3079   62.2835 C   0  0  0  0  0  0  0  0  0  0  0  0
  -32.9240   59.6249   62.8265 C   0  0  0  0  0  0  0  0  0  0  0  0
  -31.3979   59.7641   62.6753 C   0  0  0  0  0  0  0  0  0  0  0  0
  -30.9865   60.7484   61.5828 C   0  0  0  0  0  0  0  0  0  0  0  0
  -42.5954   60.0308   66.4829 O   0  0  0  0  0  0  0  0  0  0  0  0
  -43.0215   60.7913   65.3677 C   0  0  0  0  0  0  0  0  0  0  0  0
  -41.7770   60.4103   66.8393 H   0  0  0  0  0  0  0  0  0  0  0  0
  -44.3129   60.2435   64.7557 C   0  0  0  0  0  0  0  0  0  0  0  0
  -45.4538   60.1089   65.4533 C   0  0  0  0  0  0  0  0  0  0  0  0
  -46.7016   59.5527   64.7700 C   0  0  0  0  0  0  0  0  0  0  0  0
  -47.9671   60.3886   65.0107 C   0  0  0  0  0  0  0  0  0  0  0  0
  -48.8893   59.8919   66.1394 C   0  0  0  0  0  0  0  0  0  0  0  0
  -50.2886   59.5298   65.5860 C   0  0  0  0  0  0  0  0  0  0  0  0
  -50.8315   60.4785   64.4875 C   0  0  0  0  0  0  0  0  0  0  0  0
  -51.3762   59.7515   63.2353 C   0  0  0  0  0  0  0  0  0  0  0  0
  -50.4059   58.6952   62.6637 C   0  0  0  0  0  0  0  0  0  0  0  0
  -51.0141   57.8376   61.5475 C   0  0  0  0  0  0  0  0  0  0  0  0
  -50.2393   57.8002   60.2319 C   0  0  0  0  0  0  0  0  0  0  0  0
  -48.7153   57.6500   60.4071 C   0  0  0  0  0  0  0  0  0  0  0  0
  -47.9449   57.2635   59.1355 C   0  0  0  0  0  0  0  0  0  0  0  0
  -47.7492   58.4762   58.2211 C   0  0  0  0  0  0  0  0  0  0  0  0
  -46.9204   58.2509   56.9690 C   0  0  0  0  0  0  0  0  0  0  0  0
  -40.4536   60.8543   64.8911 C   0  0  0  0  0  0  0  0  0  0  0  0
  -39.5083   61.4807   63.9871 O   0  0  0  0  0  0  0  0  0  0  0  0
  -37.4004   61.7464   62.0732 O   0  0  0  0  0  0  0  0  0  0  0  0
  -35.7808   64.2568   64.9842 O   0  0  0  0  0  0  0  0  0  0  0  0
  -37.8230   62.1145   65.6130 O   0  0  0  0  0  0  0  0  0  0  0  0
  -38.0680   61.5400   64.3063 C   0  0  0  0  0  0  0  0  0  0  0  0
  -37.1898   62.3273   63.3231 C   0  0  0  0  0  0  0  0  0  0  0  0
  -35.6808   62.2547   63.6438 C   0  0  0  0  0  0  0  0  0  0  0  0
  -35.5122   62.8571   65.0113 C   0  0  0  0  0  0  0  0  0  0  0  0
  -36.4227   62.1510   65.9996 C   0  0  0  0  0  0  0  0  0  0  0  0
  -38.3446   61.7831   61.8546 H   0  0  0  0  0  0  0  0  0  0  0  0
  -35.1889   64.6873   64.3476 H   0  0  0  0  0  0  0  0  0  0  0  0
  -34.7266   63.0113   67.4477 O   0  0  0  0  0  0  0  0  0  0  0  0
  -36.1097   62.9062   67.2895 C   0  0  0  0  0  0  0  0  0  0  0  0
  -34.5305   63.4912   68.2676 H   0  0  0  0  0  0  0  0  0  0  0  0
  -34.8089   63.0017   62.7654 O   0  0  0  0  0  0  0  0  0  0  0  0
  -35.5326   63.8780   60.4361 O   0  0  0  0  0  0  0  0  0  0  0  0
  -34.2342   65.3099   61.9034 O   0  0  0  0  0  0  0  0  0  0  0  0
  -36.5840   64.9176   62.3492 O   0  0  0  0  0  0  0  0  0  0  0  0
  -35.3229   64.2966   61.8537 S   0  0  0  0  0  0  0  0  0  0  0  0
  -34.7206   63.4708   60.0958 H   0  0  0  0  0  0  0  0  0  0  0  0
  -37.2996   64.2633   62.3203 H   0  0  0  0  0  0  0  0  0  0  0  0
  2  1  1  0  0  0
  2  4  1  0  0  0
  2  5  1  0  0  0
 41 42  1  0  0  0
 41  1  1  0  0  0
 42 46  1  0  0  0
  1 24  1  0  0  0
 23 24  1  0  0  0
 23 25  1  0  0  0
 24 26  1  0  0  0
  3  4  2  0  0  0
 26 27  2  0  0  0
 27 28  1  0  0  0
 43 47  1  0  0  0
 43 51  1  0  0  0
 28 29  1  0  0  0
 56 48  1  0  0  0
 56 60  1  0  0  0
 29 30  1  0  0  0
 57 60  1  0  0  0
 57 61  1  0  0  0
 30 31  1  0  0  0
 44 49  1  0  0  0
 44 52  1  0  0  0
 31 32  1  0  0  0
 45 46  1  0  0  0
 45 50  1  0  0  0
 32 33  1  0  0  0
 53 54  1  0  0  0
 53 55  1  0  0  0
 33 34  1  0  0  0
 34 35  1  0  0  0
 35 36  1  0  0  0
 58 60  1  0  0  0
 36 37  1  0  0  0
 59 60  1  0  0  0
 59 62  1  0  0  0
 37 38  1  0  0  0
 38 39  1  0  0  0
 39 40  1  0  0  0
  4  6  1  0  0  0
  6  7  1  0  0  0
  7  8  1  0  0  0
  8  9  1  0  0  0
  9 10  1  0  0  0
 10 11  1  0  0  0
 11 12  1  0  0  0
 12 13  1  0  0  0
 13 14  1  0  0  0
 14 15  1  0  0  0
 15 16  1  0  0  0
 16 17  1  0  0  0
 17 18  1  0  0  0
 18 19  1  0  0  0
 19 20  1  0  0  0
 20 21  1  0  0  0
 21 22  1  0  0  0
 46 47  1  0  0  0
 47 48  1  0  0  0
 48 49  1  0  0  0
 49 50  1  0  0  0
 50 54  1  0  0  0
M  CHG 1  58  -1
M  END
> <minimizedAffinity>
-9.93695

> <CNNscore>
0.1241903156

> <CNNaffinity>
6.7626013756

> <CNN_VS>
0.8398495913

> <CNNaffinity_variance>
1.5047390461

$$$$
/media/chris/experiments/cd1a-new-docking/inputs/ligands/1onq_ligand.pdb


 62 62  0  0  0  0  0  0  0  0999 V2000
  -39.5506   59.5850   61.6467 C   0  0  0  0  0  0  0  0  0  0  0  0
  -39.3393   58.1583   61.5012 N   0  0  0  0  0  0  0  0  0  0  0  0
  -39.8614   55.9746   61.8275 O   0  0  0  0  0  0  0  0  0  0  0  0
  -40.0971   57.1585   61.9719 C   0  0  0  0  0  0  0  0  0  0  0  0
  -38.5394   57.8906   60.9935 H   0  0  0  0  0  0  0  0  0  0  0  0
  -41.3149   57.5864   62.7357 C   0  0  0  0  0  0  0  0  0  0  0  0
  -41.4751   56.5941   63.8876 C   0  0  0  0  0  0  0  0  0  0  0  0
  -42.9407   56.5148   64.3078 C   0  0  0  0  0  0  0  0  0  0  0  0
  -43.3156   57.2782   65.5548 C   0  0  0  0  0  0  0  0  0  0  0  0
  -44.7987   57.6201   65.4576 C   0  0  0  0  0  0  0  0  0  0  0  0
  -45.3965   58.0544   66.8025 C   0  0  0  0  0  0  0  0  0  0  0  0
  -46.5112   59.1102   66.6874 C   0  0  0  0  0  0  0  0  0  0  0  0
  -46.6119   59.7255   65.2743 C   0  0  0  0  0  0  0  0  0  0  0  0
  -48.0381   60.2085   64.9960 C   0  0  0  0  0  0  0  0  0  0  0  0
  -49.0615   59.8482   66.0661 C   0  0  0  0  0  0  0  0  0  0  0  0
  -50.4441   59.5987   65.4819 C   0  0  0  0  0  0  0  0  0  0  0  0
  -50.8400   60.4794   64.2946 C   0  0  0  0  0  0  0  0  0  0  0  0
  -51.3661   59.5765   63.1870 C   0  0  0  0  0  0  0  0  0  0  0  0
  -50.5602   58.3430   62.8071 C   0  0  0  0  0  0  0  0  0  0  0  0
  -50.8036   57.9578   61.3394 C   0  0  0  0  0  0  0  0  0  0  0  0
  -49.8765   58.6625   60.3320 C   0  0  0  0  0  0  0  0  0  0  0  0
  -49.5205   57.7932   59.1282 C   0  0  0  0  0  0  0  0  0  0  0  0
  -39.4204   60.4823   59.5081 O   0  0  0  0  0  0  0  0  0  0  0  0
  -40.3612   59.9274   60.4084 C   0  0  0  0  0  0  0  0  0  0  0  0
  -38.7439   59.8197   59.2982 H   0  0  0  0  0  0  0  0  0  0  0  0
  -41.4601   60.9250   60.7818 C   0  0  0  0  0  0  0  0  0  0  0  0
  -41.9687   61.0234   62.0219 C   0  0  0  0  0  0  0  0  0  0  0  0
  -43.0658   62.0452   62.3149 C   0  0  0  0  0  0  0  0  0  0  0  0
  -43.6797   61.9136   63.7163 C   0  0  0  0  0  0  0  0  0  0  0  0
  -43.2131   60.6971   64.5369 C   0  0  0  0  0  0  0  0  0  0  0  0
  -42.9004   61.1063   65.9964 C   0  0  0  0  0  0  0  0  0  0  0  0
  -41.7499   60.3182   66.6724 C   0  0  0  0  0  0  0  0  0  0  0  0
  -40.3860   60.4474   65.9539 C   0  0  0  0  0  0  0  0  0  0  0  0
  -39.8463   59.1077   65.4081 C   0  0  0  0  0  0  0  0  0  0  0  0
  -38.3206   58.9777   65.4884 C   0  0  0  0  0  0  0  0  0  0  0  0
  -37.6917   57.8977   64.6106 C   0  0  0  0  0  0  0  0  0  0  0  0
  -36.2762   57.4774   65.0529 C   0  0  0  0  0  0  0  0  0  0  0  0
  -35.1529   57.8152   64.0609 C   0  0  0  0  0  0  0  0  0  0  0  0
  -34.0037   58.5472   64.7599 C   0  0  0  0  0  0  0  0  0  0  0  0
  -32.7223   58.7101   63.9619 C   0  0  0  0  0  0  0  0  0  0  0  0
  -38.2783   60.4235   61.9053 C   0  0  0  0  0  0  0  0  0  0  0  0
  -38.1639   61.0416   63.2122 O   0  0  0  0  0  0  0  0  0  0  0  0
  -37.6199   62.3185   65.7123 O   0  0  0  0  0  0  0  0  0  0  0  0
  -34.1910   63.6027   63.7142 O   0  0  0  0  0  0  0  0  0  0  0  0
  -36.7067   62.7383   62.2722 O   0  0  0  0  0  0  0  0  0  0  0  0
  -37.5791   62.3877   63.3738 C   0  0  0  0  0  0  0  0  0  0  0  0
  -36.7640   62.6211   64.6540 C   0  0  0  0  0  0  0  0  0  0  0  0
  -36.2787   64.0774   64.8237 C   0  0  0  0  0  0  0  0  0  0  0  0
  -35.3931   64.3656   63.6431 C   0  0  0  0  0  0  0  0  0  0  0  0
  -36.1425   64.0748   62.3554 C   0  0  0  0  0  0  0  0  0  0  0  0
  -37.9352   61.4057   65.6223 H   0  0  0  0  0  0  0  0  0  0  0  0
  -33.7290   63.8038   64.5432 H   0  0  0  0  0  0  0  0  0  0  0  0
  -35.4449   63.8594   60.0793 O   0  0  0  0  0  0  0  0  0  0  0  0
  -35.0843   64.4150   61.3082 C   0  0  0  0  0  0  0  0  0  0  0  0
  -34.7713   64.0768   59.4160 H   0  0  0  0  0  0  0  0  0  0  0  0
  -35.4820   64.3477   65.9993 O   0  0  0  0  0  0  0  0  0  0  0  0
  -33.7315   63.6153   67.7646 O   0  0  0  0  0  0  0  0  0  0  0  0
  -34.5998   61.9843   66.1914 O   0  0  0  0  0  0  0  0  0  0  0  0
  -35.9685   62.7411   68.0430 O   0  0  0  0  0  0  0  0  0  0  0  0
  -34.9516   63.1578   67.0361 S   0  0  0  0  0  0  0  0  0  0  0  0
  -33.0570   63.8911   67.1243 H   0  0  0  0  0  0  0  0  0  0  0  0
  -36.2038   63.5008   68.5984 H   0  0  0  0  0  0  0  0  0  0  0  0
  2  1  1  0  0  0
  2  4  1  0  0  0
  2  5  1  0  0  0
 41 42  1  0  0  0
 41  1  1  0  0  0
 42 46  1  0  0  0
  1 24  1  0  0  0
 23 24  1  0  0  0
 23 25  1  0  0  0
 24 26  1  0  0  0
  3  4  2  0  0  0
 26 27  2  0  0  0
 27 28  1  0  0  0
 43 47  1  0  0  0
 43 51  1  0  0  0
 28 29  1  0  0  0
 56 48  1  0  0  0
 56 60  1  0  0  0
 29 30  1  0  0  0
 57 60  1  0  0  0
 57 61  1  0  0  0
 30 31  1  0  0  0
 44 49  1  0  0  0
 44 52  1  0  0  0
 31 32  1  0  0  0
 45 46  1  0  0  0
 45 50  1  0  0  0
 32 33  1  0  0  0
 53 54  1  0  0  0
 53 55  1  0  0  0
 33 34  1  0  0  0
 34 35  1  0  0  0
 35 36  1  0  0  0
 58 60  1  0  0  0
 36 37  1  0  0  0
 59 60  1  0  0  0
 59 62  1  0  0  0
 37 38  1  0  0  0
 38 39  1  0  0  0
 39 40  1  0  0  0
  4  6  1  0  0  0
  6  7  1  0  0  0
  7  8  1  0  0  0
  8  9  1  0  0  0
  9 10  1  0  0  0
 10 11  1  0  0  0
 11 12  1  0  0  0
 12 13  1  0  0  0
 13 14  1  0  0  0
 14 15  1  0  0  0
 15 16  1  0  0  0
 16 17  1  0  0  0
 17 18  1  0  0  0
 18 19  1  0  0  0
 19 20  1  0  0  0
 20 21  1  0  0  0
 21 22  1  0  0  0
 46 47  1  0  0  0
 47 48  1  0  0  0
 48 49  1  0  0  0
 49 50  1  0  0  0
 50 54  1  0  0  0
M  CHG 1  58  -1
M  END
> <minimizedAffinity>
-9.38846

> <CNNscore>
0.1052273884

> <CNNaffinity>
6.7425675392

> <CNN_VS>
0.7095027566

> <CNNaffinity_variance>
2.3000502586

$$$$
/media/chris/experiments/cd1a-new-docking/inputs/ligands/1onq_ligand.pdb


 62 62  0  0  0  0  0  0  0  0999 V2000
  -41.9242   60.8607   64.2315 C   0  0  0  0  0  0  0  0  0  0  0  0
  -42.2566   61.7011   63.0981 N   0  0  0  0  0  0  0  0  0  0  0  0
  -42.3899   62.1831   60.8851 O   0  0  0  0  0  0  0  0  0  0  0  0
  -42.1022   61.4299   61.7949 C   0  0  0  0  0  0  0  0  0  0  0  0
  -42.6438   62.5804   63.3124 H   0  0  0  0  0  0  0  0  0  0  0  0
  -41.5182   60.0828   61.4887 C   0  0  0  0  0  0  0  0  0  0  0  0
  -40.7154   60.2417   60.1975 C   0  0  0  0  0  0  0  0  0  0  0  0
  -40.6667   58.9133   59.4466 C   0  0  0  0  0  0  0  0  0  0  0  0
  -39.3081   58.4805   58.9512 C   0  0  0  0  0  0  0  0  0  0  0  0
  -38.2646   59.0689   59.8950 C   0  0  0  0  0  0  0  0  0  0  0  0
  -37.9287   58.1340   61.0646 C   0  0  0  0  0  0  0  0  0  0  0  0
  -36.8696   58.6898   62.0342 C   0  0  0  0  0  0  0  0  0  0  0  0
  -35.7845   57.6524   62.3971 C   0  0  0  0  0  0  0  0  0  0  0  0
  -35.2828   57.8733   63.8270 C   0  0  0  0  0  0  0  0  0  0  0  0
  -36.2678   58.5738   64.7551 C   0  0  0  0  0  0  0  0  0  0  0  0
  -37.4432   57.6825   65.1282 C   0  0  0  0  0  0  0  0  0  0  0  0
  -38.8245   58.3398   65.0840 C   0  0  0  0  0  0  0  0  0  0  0  0
  -39.7161   57.5123   64.1680 C   0  0  0  0  0  0  0  0  0  0  0  0
  -41.1729   57.3090   64.5574 C   0  0  0  0  0  0  0  0  0  0  0  0
  -41.9807   56.7336   63.3833 C   0  0  0  0  0  0  0  0  0  0  0  0
  -41.2008   55.7475   62.4941 C   0  0  0  0  0  0  0  0  0  0  0  0
  -41.3184   56.0557   61.0033 C   0  0  0  0  0  0  0  0  0  0  0  0
  -42.7855   60.3298   66.3224 O   0  0  0  0  0  0  0  0  0  0  0  0
  -43.0514   61.1578   65.2055 C   0  0  0  0  0  0  0  0  0  0  0  0
  -41.9299   60.5734   66.7091 H   0  0  0  0  0  0  0  0  0  0  0  0
  -44.3919   60.8243   64.5465 C   0  0  0  0  0  0  0  0  0  0  0  0
  -45.4213   60.2790   65.2168 C   0  0  0  0  0  0  0  0  0  0  0  0
  -46.7280   59.9745   64.4866 C   0  0  0  0  0  0  0  0  0  0  0  0
  -47.7199   59.1393   65.3093 C   0  0  0  0  0  0  0  0  0  0  0  0
  -48.6488   59.9369   66.2431 C   0  0  0  0  0  0  0  0  0  0  0  0
  -50.1341   59.6402   65.9247 C   0  0  0  0  0  0  0  0  0  0  0  0
  -50.3814   58.7957   64.6491 C   0  0  0  0  0  0  0  0  0  0  0  0
  -51.0940   59.5624   63.5102 C   0  0  0  0  0  0  0  0  0  0  0  0
  -50.5372   59.2407   62.1065 C   0  0  0  0  0  0  0  0  0  0  0  0
  -50.9904   57.8821   61.5586 C   0  0  0  0  0  0  0  0  0  0  0  0
  -49.9702   57.1264   60.7097 C   0  0  0  0  0  0  0  0  0  0  0  0
  -48.7682   57.9832   60.2655 C   0  0  0  0  0  0  0  0  0  0  0  0
  -47.7198   57.2498   59.4153 C   0  0  0  0  0  0  0  0  0  0  0  0
  -47.5366   57.9340   58.0576 C   0  0  0  0  0  0  0  0  0  0  0  0
  -48.2432   57.2917   56.8770 C   0  0  0  0  0  0  0  0  0  0  0  0
  -40.4808   61.0035   64.7654 C   0  0  0  0  0  0  0  0  0  0  0  0
  -39.5079   61.5799   63.8575 O   0  0  0  0  0  0  0  0  0  0  0  0
  -37.3769   61.9908   61.9955 O   0  0  0  0  0  0  0  0  0  0  0  0
  -35.8032   64.2852   65.1032 O   0  0  0  0  0  0  0  0  0  0  0  0
  -37.8455   62.0971   65.5470 O   0  0  0  0  0  0  0  0  0  0  0  0
  -38.0719   61.6194   64.1987 C   0  0  0  0  0  0  0  0  0  0  0  0
  -37.1842   62.4790   63.2872 C   0  0  0  0  0  0  0  0  0  0  0  0
  -35.6791   62.3871   63.6211 C   0  0  0  0  0  0  0  0  0  0  0  0
  -35.5300   62.8880   65.0311 C   0  0  0  0  0  0  0  0  0  0  0  0
  -36.4503   62.1089   65.9532 C   0  0  0  0  0  0  0  0  0  0  0  0
  -38.3184   62.0409   61.7680 H   0  0  0  0  0  0  0  0  0  0  0  0
  -35.2049   64.7628   64.5075 H   0  0  0  0  0  0  0  0  0  0  0  0
  -34.7835   62.9895   67.4230 O   0  0  0  0  0  0  0  0  0  0  0  0
  -36.1563   62.7683   67.2990 C   0  0  0  0  0  0  0  0  0  0  0  0
  -34.5995   63.4083   68.2784 H   0  0  0  0  0  0  0  0  0  0  0  0
  -34.7989   63.1988   62.8111 O   0  0  0  0  0  0  0  0  0  0  0  0
  -35.6250   63.8909   60.4540 O   0  0  0  0  0  0  0  0  0  0  0  0
  -34.2363   65.4168   61.7316 O   0  0  0  0  0  0  0  0  0  0  0  0
  -36.5663   65.1044   62.3214 O   0  0  0  0  0  0  0  0  0  0  0  0
  -35.3398   64.4222   61.8197 S   0  0  0  0  0  0  0  0  0  0  0  0
  -34.8364   63.4426   60.1103 H   0  0  0  0  0  0  0  0  0  0  0  0
  -37.2913   64.4627   62.3820 H   0  0  0  0  0  0  0  0  0  0  0  0
  2  1  1  0  0  0
  2  4  1  0  0  0
  2  5  1  0  0  0
 41 42  1  0  0  0
 41  1  1  0  0  0
 42 46  1  0  0  0
  1 24  1  0  0  0
 23 24  1  0  0  0
 23 25  1  0  0  0
 24 26  1  0  0  0
  3  4  2  0  0  0
 26 27  2  0  0  0
 27 28  1  0  0  0
 43 47  1  0  0  0
 43 51  1  0  0  0
 28 29  1  0  0  0
 56 48  1  0  0  0
 56 60  1  0  0  0
 29 30  1  0  0  0
 57 60  1  0  0  0
 57 61  1  0  0  0
 30 31  1  0  0  0
 44 49  1  0  0  0
 44 52  1  0  0  0
 31 32  1  0  0  0
 45 46  1  0  0  0
 45 50  1  0  0  0
 32 33  1  0  0  0
 53 54  1  0  0  0
 53 55  1  0  0  0
 33 34  1  0  0  0
 34 35  1  0  0  0
 35 36  1  0  0  0
 58 60  1  0  0  0
 36 37  1  0  0  0
 59 60  1  0  0  0
 59 62  1  0  0  0
 37 38  1  0  0  0
 38 39  1  0  0  0
 39 40  1  0  0  0
  4  6  1  0  0  0
  6  7  1  0  0  0
  7  8  1  0  0  0
  8  9  1  0  0  0
  9 10  1  0  0  0
 10 11  1  0  0  0
 11 12  1  0  0  0
 12 13  1  0  0  0
 13 14  1  0  0  0
 14 15  1  0  0  0
 15 16  1  0  0  0
 16 17  1  0  0  0
 17 18  1  0  0  0
 18 19  1  0  0  0
 19 20  1  0  0  0
 20 21  1  0  0  0
 21 22  1  0  0  0
 46 47  1  0  0  0
 47 48  1  0  0  0
 48 49  1  0  0  0
 49 50  1  0  0  0
 50 54  1  0  0  0
M  CHG 1  58  -1
M  END
> <minimizedAffinity>
-9.49578

> <CNNscore>
0.0953328833

> <CNNaffinity>
7.0545907021

> <CNN_VS>
0.6725344658

> <CNNaffinity_variance>
1.1895869970

$$$$
