/media/chris/experiments/cd1a-new-docking/inputs/ligands/1onq_ligand.pdb


 62 62  0  0  0  0  0  0  0  0999 V2000
  -41.6385   60.0193   63.7558 C   0  0  0  0  0  0  0  0  0  0  0  0
  -41.3933   59.7346   62.3558 N   0  0  0  0  0  0  0  0  0  0  0  0
  -41.9521   61.6986   61.3670 O   0  0  0  0  0  0  0  0  0  0  0  0
  -41.5573   60.5505   61.3055 C   0  0  0  0  0  0  0  0  0  0  0  0
  -41.0654   58.8291   62.1511 H   0  0  0  0  0  0  0  0  0  0  0  0
  -41.2051   59.9552   59.9746 C   0  0  0  0  0  0  0  0  0  0  0  0
  -41.3151   58.4389   60.1354 C   0  0  0  0  0  0  0  0  0  0  0  0
  -40.0863   57.7603   59.5349 C   0  0  0  0  0  0  0  0  0  0  0  0
  -38.9212   58.6637   59.2113 C   0  0  0  0  0  0  0  0  0  0  0  0
  -37.8825   58.4891   60.3143 C   0  0  0  0  0  0  0  0  0  0  0  0
  -38.3751   57.5893   61.4557 C   0  0  0  0  0  0  0  0  0  0  0  0
  -37.5694   57.7254   62.7606 C   0  0  0  0  0  0  0  0  0  0  0  0
  -36.1836   58.3727   62.5460 C   0  0  0  0  0  0  0  0  0  0  0  0
  -35.1410   57.7348   63.4687 C   0  0  0  0  0  0  0  0  0  0  0  0
  -34.6961   58.6050   64.6379 C   0  0  0  0  0  0  0  0  0  0  0  0
  -33.2070   58.9146   64.5932 C   0  0  0  0  0  0  0  0  0  0  0  0
  -32.4653   58.4630   63.3331 C   0  0  0  0  0  0  0  0  0  0  0  0
  -31.4924   59.5640   62.9333 C   0  0  0  0  0  0  0  0  0  0  0  0
  -31.8734   60.4944   61.7911 C   0  0  0  0  0  0  0  0  0  0  0  0
  -30.6525   61.2863   61.2964 C   0  0  0  0  0  0  0  0  0  0  0  0
  -30.3096   62.5258   62.1432 C   0  0  0  0  0  0  0  0  0  0  0  0
  -29.2419   63.4141   61.5088 C   0  0  0  0  0  0  0  0  0  0  0  0
  -42.3415   62.1460   64.3709 O   0  0  0  0  0  0  0  0  0  0  0  0
  -42.8047   60.9909   63.6966 C   0  0  0  0  0  0  0  0  0  0  0  0
  -41.5738   62.5084   63.9016 H   0  0  0  0  0  0  0  0  0  0  0  0
  -44.0194   60.3676   64.3882 C   0  0  0  0  0  0  0  0  0  0  0  0
  -44.0640   60.1229   65.7090 C   0  0  0  0  0  0  0  0  0  0  0  0
  -45.3140   59.4968   66.3244 C   0  0  0  0  0  0  0  0  0  0  0  0
  -46.5634   59.6029   65.4379 C   0  0  0  0  0  0  0  0  0  0  0  0
  -47.8272   58.9115   65.9817 C   0  0  0  0  0  0  0  0  0  0  0  0
  -48.9482   59.9452   66.2463 C   0  0  0  0  0  0  0  0  0  0  0  0
  -50.0621   60.0033   65.1704 C   0  0  0  0  0  0  0  0  0  0  0  0
  -50.2410   58.6903   64.3723 C   0  0  0  0  0  0  0  0  0  0  0  0
  -49.9051   58.8292   62.8716 C   0  0  0  0  0  0  0  0  0  0  0  0
  -50.8966   58.1117   61.9476 C   0  0  0  0  0  0  0  0  0  0  0  0
  -50.2929   57.3981   60.7399 C   0  0  0  0  0  0  0  0  0  0  0  0
  -49.8173   58.3493   59.6241 C   0  0  0  0  0  0  0  0  0  0  0  0
  -48.3396   58.2081   59.2290 C   0  0  0  0  0  0  0  0  0  0  0  0
  -48.1940   57.9562   57.7255 C   0  0  0  0  0  0  0  0  0  0  0  0
  -46.8291   58.2380   57.1228 C   0  0  0  0  0  0  0  0  0  0  0  0
  -40.4018   60.4579   64.5725 C   0  0  0  0  0  0  0  0  0  0  0  0
  -39.5176   61.4201   63.9436 O   0  0  0  0  0  0  0  0  0  0  0  0
  -37.3831   61.7943   62.0779 O   0  0  0  0  0  0  0  0  0  0  0  0
  -35.8399   64.1909   65.1232 O   0  0  0  0  0  0  0  0  0  0  0  0
  -37.8659   61.9999   65.6232 O   0  0  0  0  0  0  0  0  0  0  0  0
  -38.0833   61.4814   64.2886 C   0  0  0  0  0  0  0  0  0  0  0  0
  -37.1992   62.3214   63.3556 C   0  0  0  0  0  0  0  0  0  0  0  0
  -35.6948   62.2517   63.6973 C   0  0  0  0  0  0  0  0  0  0  0  0
  -35.5550   62.7945   65.0927 C   0  0  0  0  0  0  0  0  0  0  0  0
  -36.4724   62.0350   66.0338 C   0  0  0  0  0  0  0  0  0  0  0  0
  -38.3241   61.8300   61.8458 H   0  0  0  0  0  0  0  0  0  0  0  0
  -35.2432   64.6560   64.5159 H   0  0  0  0  0  0  0  0  0  0  0  0
  -34.8343   63.0647   67.4374 O   0  0  0  0  0  0  0  0  0  0  0  0
  -36.1888   62.7356   67.3608 C   0  0  0  0  0  0  0  0  0  0  0  0
  -34.6569   63.5095   68.2809 H   0  0  0  0  0  0  0  0  0  0  0  0
  -34.8181   63.0467   62.8671 O   0  0  0  0  0  0  0  0  0  0  0  0
  -35.6478   63.8006   60.5304 O   0  0  0  0  0  0  0  0  0  0  0  0
  -34.2459   65.2868   61.8398 O   0  0  0  0  0  0  0  0  0  0  0  0
  -36.5758   64.9739   62.4299 O   0  0  0  0  0  0  0  0  0  0  0  0
  -35.3550   64.2969   61.9076 S   0  0  0  0  0  0  0  0  0  0  0  0
  -34.8631   63.3560   60.1732 H   0  0  0  0  0  0  0  0  0  0  0  0
  -37.3043   64.3353   62.4774 H   0  0  0  0  0  0  0  0  0  0  0  0
  2  1  1  0  0  0
  2  4  1  0  0  0
  2  5  1  0  0  0
 41 42  1  0  0  0
 41  1  1  0  0  0
 42 46  1  0  0  0
  1 24  1  0  0  0
 23 24  1  0  0  0
 23 25  1  0  0  0
 24 26  1  0  0  0
  3  4  2  0  0  0
 26 27  2  0  0  0
 27 28  1  0  0  0
 43 47  1  0  0  0
 43 51  1  0  0  0
 28 29  1  0  0  0
 56 48  1  0  0  0
 56 60  1  0  0  0
 29 30  1  0  0  0
 57 60  1  0  0  0
 57 61  1  0  0  0
 30 31  1  0  0  0
 44 49  1  0  0  0
 44 52  1  0  0  0
 31 32  1  0  0  0
 45 46  1  0  0  0
 45 50  1  0  0  0
 32 33  1  0  0  0
 53 54  1  0  0  0
 53 55  1  0  0  0
 33 34  1  0  0  0
 34 35  1  0  0  0
 35 36  1  0  0  0
 58 60  1  0  0  0
 36 37  1  0  0  0
 59 60  1  0  0  0
 59 62  1  0  0  0
 37 38  1  0  0  0
 38 39  1  0  0  0
 39 40  1  0  0  0
  4  6  1  0  0  0
  6  7  1  0  0  0
  7  8  1  0  0  0
  8  9  1  0  0  0
  9 10  1  0  0  0
 10 11  1  0  0  0
 11 12  1  0  0  0
 12 13  1  0  0  0
 13 14  1  0  0  0
 14 15  1  0  0  0
 15 16  1  0  0  0
 16 17  1  0  0  0
 17 18  1  0  0  0
 18 19  1  0  0  0
 19 20  1  0  0  0
 20 21  1  0  0  0
 21 22  1  0  0  0
 46 47  1  0  0  0
 47 48  1  0  0  0
 48 49  1  0  0  0
 49 50  1  0  0  0
 50 54  1  0  0  0
M  CHG 1  58  -1
M  END
> <minimizedAffinity>
-9.71858

> <CNNscore>
0.2949525416

> <CNNaffinity>
6.9765868187

> <CNN_VS>
2.0577619076

> <CNNaffinity_variance>
1.0943049192

$$$$
/media/chris/experiments/cd1a-new-docking/inputs/ligands/1onq_ligand.pdb


 62 62  0  0  0  0  0  0  0  0999 V2000
  -41.3195   60.4212   64.0032 C   0  0  0  0  0  0  0  0  0  0  0  0
  -42.0068   59.1528   64.1436 N   0  0  0  0  0  0  0  0  0  0  0  0
  -42.0162   58.8643   66.3940 O   0  0  0  0  0  0  0  0  0  0  0  0
  -42.2961   58.4900   65.2718 C   0  0  0  0  0  0  0  0  0  0  0  0
  -42.2972   58.7249   63.3058 H   0  0  0  0  0  0  0  0  0  0  0  0
  -43.0296   57.1957   65.0807 C   0  0  0  0  0  0  0  0  0  0  0  0
  -44.4677   57.4411   65.5379 C   0  0  0  0  0  0  0  0  0  0  0  0
  -45.1298   58.4831   64.6396 C   0  0  0  0  0  0  0  0  0  0  0  0
  -45.5021   59.7883   65.3004 C   0  0  0  0  0  0  0  0  0  0  0  0
  -46.4451   59.4675   66.4552 C   0  0  0  0  0  0  0  0  0  0  0  0
  -47.9067   59.3323   66.0075 C   0  0  0  0  0  0  0  0  0  0  0  0
  -48.5130   60.6243   65.4300 C   0  0  0  0  0  0  0  0  0  0  0  0
  -49.1333   60.4230   64.0299 C   0  0  0  0  0  0  0  0  0  0  0  0
  -50.6581   60.5507   64.0914 C   0  0  0  0  0  0  0  0  0  0  0  0
  -51.4241   59.5527   63.2315 C   0  0  0  0  0  0  0  0  0  0  0  0
  -50.5124   58.5006   62.6175 C   0  0  0  0  0  0  0  0  0  0  0  0
  -51.0314   57.8212   61.3482 C   0  0  0  0  0  0  0  0  0  0  0  0
  -49.8325   57.3474   60.5378 C   0  0  0  0  0  0  0  0  0  0  0  0
  -49.6676   57.8570   59.1136 C   0  0  0  0  0  0  0  0  0  0  0  0
  -48.1966   58.1876   58.8147 C   0  0  0  0  0  0  0  0  0  0  0  0
  -47.2714   56.9599   58.7270 C   0  0  0  0  0  0  0  0  0  0  0  0
  -47.2960   56.2815   57.3594 C   0  0  0  0  0  0  0  0  0  0  0  0
  -43.1857   61.2488   62.8951 O   0  0  0  0  0  0  0  0  0  0  0  0
  -41.8271   60.9262   62.6635 C   0  0  0  0  0  0  0  0  0  0  0  0
  -43.2424   61.9482   63.5648 H   0  0  0  0  0  0  0  0  0  0  0  0
  -41.6668   59.8249   61.6129 C   0  0  0  0  0  0  0  0  0  0  0  0
  -40.9447   59.9836   60.4906 C   0  0  0  0  0  0  0  0  0  0  0  0
  -40.8338   58.8355   59.4891 C   0  0  0  0  0  0  0  0  0  0  0  0
  -39.3993   58.3285   59.2809 C   0  0  0  0  0  0  0  0  0  0  0  0
  -38.3233   58.9932   60.1593 C   0  0  0  0  0  0  0  0  0  0  0  0
  -37.9737   58.0974   61.3719 C   0  0  0  0  0  0  0  0  0  0  0  0
  -36.5252   58.2399   61.9040 C   0  0  0  0  0  0  0  0  0  0  0  0
  -36.3622   57.8839   63.4005 C   0  0  0  0  0  0  0  0  0  0  0  0
  -35.5203   58.9090   64.1910 C   0  0  0  0  0  0  0  0  0  0  0  0
  -34.0870   58.4437   64.4747 C   0  0  0  0  0  0  0  0  0  0  0  0
  -33.2664   58.0181   63.2590 C   0  0  0  0  0  0  0  0  0  0  0  0
  -32.1045   58.9735   62.9226 C   0  0  0  0  0  0  0  0  0  0  0  0
  -32.4663   60.4664   62.9126 C   0  0  0  0  0  0  0  0  0  0  0  0
  -31.2725   61.3186   62.4727 C   0  0  0  0  0  0  0  0  0  0  0  0
  -30.6010   60.9191   61.1707 C   0  0  0  0  0  0  0  0  0  0  0  0
  -39.7871   60.3733   64.1991 C   0  0  0  0  0  0  0  0  0  0  0  0
  -39.0912   61.6455   64.1805 O   0  0  0  0  0  0  0  0  0  0  0  0
  -37.1050   62.0061   62.1552 O   0  0  0  0  0  0  0  0  0  0  0  0
  -35.3642   64.4689   65.0367 O   0  0  0  0  0  0  0  0  0  0  0  0
  -37.3252   62.2691   65.7226 O   0  0  0  0  0  0  0  0  0  0  0  0
  -37.6359   61.7254   64.4167 C   0  0  0  0  0  0  0  0  0  0  0  0
  -36.8321   62.5569   63.4067 C   0  0  0  0  0  0  0  0  0  0  0  0
  -35.3057   62.5065   63.6366 C   0  0  0  0  0  0  0  0  0  0  0  0
  -35.0682   63.0747   65.0084 C   0  0  0  0  0  0  0  0  0  0  0  0
  -35.9055   62.3236   66.0277 C   0  0  0  0  0  0  0  0  0  0  0  0
  -38.0609   62.0294   61.9931 H   0  0  0  0  0  0  0  0  0  0  0  0
  -34.8190   64.9285   64.3791 H   0  0  0  0  0  0  0  0  0  0  0  0
  -36.4108   64.1129   67.5299 O   0  0  0  0  0  0  0  0  0  0  0  0
  -35.5313   63.0497   67.3181 C   0  0  0  0  0  0  0  0  0  0  0  0
  -36.1712   64.5723   68.3499 H   0  0  0  0  0  0  0  0  0  0  0  0
  -34.5012   63.2947   62.7303 O   0  0  0  0  0  0  0  0  0  0  0  0
  -34.1268   65.5040   61.4282 O   0  0  0  0  0  0  0  0  0  0  0  0
  -36.2958   65.0503   62.4173 O   0  0  0  0  0  0  0  0  0  0  0  0
  -35.6076   63.8907   60.4032 O   0  0  0  0  0  0  0  0  0  0  0  0
  -35.1386   64.4422   61.7061 S   0  0  0  0  0  0  0  0  0  0  0  0
  -33.8093   65.8755   62.2661 H   0  0  0  0  0  0  0  0  0  0  0  0
  -34.8590   63.4920   59.9326 H   0  0  0  0  0  0  0  0  0  0  0  0
  2  1  1  0  0  0
  2  4  1  0  0  0
  2  5  1  0  0  0
 41 42  1  0  0  0
 41  1  1  0  0  0
 42 46  1  0  0  0
  1 24  1  0  0  0
 23 24  1  0  0  0
 23 25  1  0  0  0
 24 26  1  0  0  0
  3  4  2  0  0  0
 26 27  2  0  0  0
 27 28  1  0  0  0
 43 47  1  0  0  0
 43 51  1  0  0  0
 28 29  1  0  0  0
 56 48  1  0  0  0
 56 60  1  0  0  0
 29 30  1  0  0  0
 57 60  1  0  0  0
 57 61  1  0  0  0
 30 31  1  0  0  0
 44 49  1  0  0  0
 44 52  1  0  0  0
 31 32  1  0  0  0
 45 46  1  0  0  0
 45 50  1  0  0  0
 32 33  1  0  0  0
 53 54  1  0  0  0
 53 55  1  0  0  0
 33 34  1  0  0  0
 34 35  1  0  0  0
 35 36  1  0  0  0
 58 60  1  0  0  0
 36 37  1  0  0  0
 59 60  1  0  0  0
 59 62  1  0  0  0
 37 38  1  0  0  0
 38 39  1  0  0  0
 39 40  1  0  0  0
  4  6  1  0  0  0
  6  7  1  0  0  0
  7  8  1  0  0  0
  8  9  1  0  0  0
  9 10  1  0  0  0
 10 11  1  0  0  0
 11 12  1  0  0  0
 12 13  1  0  0  0
 13 14  1  0  0  0
 14 15  1  0  0  0
 15 16  1  0  0  0
 16 17  1  0  0  0
 17 18  1  0  0  0
 18 19  1  0  0  0
 19 20  1  0  0  0
 20 21  1  0  0  0
 21 22  1  0  0  0
 46 47  1  0  0  0
 47 48  1  0  0  0
 48 49  1  0  0  0
 49 50  1  0  0  0
 50 54  1  0  0  0
M  CHG 1  58  -1
M  END
> <minimizedAffinity>
-9.60155

> <CNNscore>
0.2608688772

> <CNNaffinity>
7.0993599892

> <CNN_VS>
1.8520020247

> <CNNaffinity_variance>
1.1744362116

$$$$
/media/chris/experiments/cd1a-new-docking/inputs/ligands/1onq_ligand.pdb


 62 62  0  0  0  0  0  0  0  0999 V2000
  -41.6663   59.9745   65.0633 C   0  0  0  0  0  0  0  0  0  0  0  0
  -41.7273   58.6329   64.5178 N   0  0  0  0  0  0  0  0  0  0  0  0
  -42.6514   57.4658   66.2300 O   0  0  0  0  0  0  0  0  0  0  0  0
  -42.1920   57.5221   65.1059 C   0  0  0  0  0  0  0  0  0  0  0  0
  -41.3846   58.5243   63.6013 H   0  0  0  0  0  0  0  0  0  0  0  0
  -42.1249   56.2806   64.2668 C   0  0  0  0  0  0  0  0  0  0  0  0
  -41.0558   56.5335   63.2037 C   0  0  0  0  0  0  0  0  0  0  0  0
  -41.2548   55.5812   62.0271 C   0  0  0  0  0  0  0  0  0  0  0  0
  -41.2921   56.2166   60.6583 C   0  0  0  0  0  0  0  0  0  0  0  0
  -41.8181   57.6384   60.8246 C   0  0  0  0  0  0  0  0  0  0  0  0
  -41.2026   58.6199   59.8183 C   0  0  0  0  0  0  0  0  0  0  0  0
  -40.0612   59.4799   60.3911 C   0  0  0  0  0  0  0  0  0  0  0  0
  -38.8139   59.5058   59.4806 C   0  0  0  0  0  0  0  0  0  0  0  0
  -37.6987   58.6358   60.0677 C   0  0  0  0  0  0  0  0  0  0  0  0
  -38.1036   57.7943   61.2719 C   0  0  0  0  0  0  0  0  0  0  0  0
  -37.1830   58.0116   62.4637 C   0  0  0  0  0  0  0  0  0  0  0  0
  -37.8310   57.8838   63.8442 C   0  0  0  0  0  0  0  0  0  0  0  0
  -36.7660   58.1593   64.8971 C   0  0  0  0  0  0  0  0  0  0  0  0
  -35.3289   57.7543   64.6040 C   0  0  0  0  0  0  0  0  0  0  0  0
  -34.3767   58.9498   64.7666 C   0  0  0  0  0  0  0  0  0  0  0  0
  -32.8920   58.6212   64.5241 C   0  0  0  0  0  0  0  0  0  0  0  0
  -32.5381   58.4815   63.0453 C   0  0  0  0  0  0  0  0  0  0  0  0
  -42.3552   62.1192   64.4965 O   0  0  0  0  0  0  0  0  0  0  0  0
  -42.4609   60.7802   64.0499 C   0  0  0  0  0  0  0  0  0  0  0  0
  -41.4237   62.3897   64.4898 H   0  0  0  0  0  0  0  0  0  0  0  0
  -43.9105   60.2895   64.0365 C   0  0  0  0  0  0  0  0  0  0  0  0
  -44.9402   61.0368   64.4697 C   0  0  0  0  0  0  0  0  0  0  0  0
  -46.3597   60.4743   64.4247 C   0  0  0  0  0  0  0  0  0  0  0  0
  -46.5238   59.1406   65.1679 C   0  0  0  0  0  0  0  0  0  0  0  0
  -47.9624   58.5982   65.2540 C   0  0  0  0  0  0  0  0  0  0  0  0
  -48.8688   59.5686   66.0490 C   0  0  0  0  0  0  0  0  0  0  0  0
  -50.3267   59.6826   65.5360 C   0  0  0  0  0  0  0  0  0  0  0  0
  -50.4836   60.5416   64.2591 C   0  0  0  0  0  0  0  0  0  0  0  0
  -51.3410   59.8700   63.1646 C   0  0  0  0  0  0  0  0  0  0  0  0
  -50.7500   58.5579   62.6352 C   0  0  0  0  0  0  0  0  0  0  0  0
  -49.4242   58.6729   61.8859 C   0  0  0  0  0  0  0  0  0  0  0  0
  -49.5646   59.1925   60.4415 C   0  0  0  0  0  0  0  0  0  0  0  0
  -50.1891   58.2021   59.4471 C   0  0  0  0  0  0  0  0  0  0  0  0
  -49.1294   57.6325   58.4995 C   0  0  0  0  0  0  0  0  0  0  0  0
  -47.8437   58.4294   58.3671 C   0  0  0  0  0  0  0  0  0  0  0  0
  -40.2507   60.4877   65.4117 C   0  0  0  0  0  0  0  0  0  0  0  0
  -39.5203   61.1482   64.3470 O   0  0  0  0  0  0  0  0  0  0  0  0
  -37.6923   61.5170   62.1792 O   0  0  0  0  0  0  0  0  0  0  0  0
  -36.2232   64.5610   64.6235 O   0  0  0  0  0  0  0  0  0  0  0  0
  -37.8065   62.2147   65.6927 O   0  0  0  0  0  0  0  0  0  0  0  0
  -38.0849   61.4648   64.4854 C   0  0  0  0  0  0  0  0  0  0  0  0
  -37.4546   62.2615   63.3340 C   0  0  0  0  0  0  0  0  0  0  0  0
  -35.9297   62.4594   63.4782 C   0  0  0  0  0  0  0  0  0  0  0  0
  -35.7247   63.2318   64.7521 C   0  0  0  0  0  0  0  0  0  0  0  0
  -36.3997   62.5104   65.9046 C   0  0  0  0  0  0  0  0  0  0  0  0
  -38.6468   61.3825   62.0721 H   0  0  0  0  0  0  0  0  0  0  0  0
  -35.7791   65.0027   63.8828 H   0  0  0  0  0  0  0  0  0  0  0  0
  -36.3039   62.7806   68.2776 O   0  0  0  0  0  0  0  0  0  0  0  0
  -36.0863   63.4463   67.0700 C   0  0  0  0  0  0  0  0  0  0  0  0
  -36.1042   63.3770   69.0161 H   0  0  0  0  0  0  0  0  0  0  0  0
  -35.2882   63.2274   62.4349 O   0  0  0  0  0  0  0  0  0  0  0  0
  -33.3041   63.6842   60.8313 O   0  0  0  0  0  0  0  0  0  0  0  0
  -33.1241   61.9177   62.4853 O   0  0  0  0  0  0  0  0  0  0  0  0
  -32.9545   64.2400   63.1583 O   0  0  0  0  0  0  0  0  0  0  0  0
  -33.6368   63.2917   62.2327 S   0  0  0  0  0  0  0  0  0  0  0  0
  -33.7403   63.0770   60.2132 H   0  0  0  0  0  0  0  0  0  0  0  0
  -33.2830   65.1388   63.0003 H   0  0  0  0  0  0  0  0  0  0  0  0
  2  1  1  0  0  0
  2  4  1  0  0  0
  2  5  1  0  0  0
 41 42  1  0  0  0
 41  1  1  0  0  0
 42 46  1  0  0  0
  1 24  1  0  0  0
 23 24  1  0  0  0
 23 25  1  0  0  0
 24 26  1  0  0  0
  3  4  2  0  0  0
 26 27  2  0  0  0
 27 28  1  0  0  0
 43 47  1  0  0  0
 43 51  1  0  0  0
 28 29  1  0  0  0
 56 48  1  0  0  0
 56 60  1  0  0  0
 29 30  1  0  0  0
 57 60  1  0  0  0
 57 61  1  0  0  0
 30 31  1  0  0  0
 44 49  1  0  0  0
 44 52  1  0  0  0
 31 32  1  0  0  0
 45 46  1  0  0  0
 45 50  1  0  0  0
 32 33  1  0  0  0
 53 54  1  0  0  0
 53 55  1  0  0  0
 33 34  1  0  0  0
 34 35  1  0  0  0
 35 36  1  0  0  0
 58 60  1  0  0  0
 36 37  1  0  0  0
 59 60  1  0  0  0
 59 62  1  0  0  0
 37 38  1  0  0  0
 38 39  1  0  0  0
 39 40  1  0  0  0
  4  6  1  0  0  0
  6  7  1  0  0  0
  7  8  1  0  0  0
  8  9  1  0  0  0
  9 10  1  0  0  0
 10 11  1  0  0  0
 11 12  1  0  0  0
 12 13  1  0  0  0
 13 14  1  0  0  0
 14 15  1  0  0  0
 15 16  1  0  0  0
 16 17  1  0  0  0
 17 18  1  0  0  0
 18 19  1  0  0  0
 19 20  1  0  0  0
 20 21  1  0  0  0
 21 22  1  0  0  0
 46 47  1  0  0  0
 47 48  1  0  0  0
 48 49  1  0  0  0
 49 50  1  0  0  0
 50 54  1  0  0  0
M  CHG 1  58  -1
M  END
> <minimizedAffinity>
-9.88477

> <CNNscore>
0.2582750022

> <CNNaffinity>
7.1667051315

> <CNN_VS>
1.8509807587

> <CNNaffinity_variance>
2.1062252522

$$$$
/media/chris/experiments/cd1a-new-docking/inputs/ligands/1onq_ligand.pdb


 62 62  0  0  0  0  0  0  0  0999 V2000
  -41.4541   60.1851   65.1275 C   0  0  0  0  0  0  0  0  0  0  0  0
  -41.8016   60.4205   63.7401 N   0  0  0  0  0  0  0  0  0  0  0  0
  -42.5241   62.5706   63.7899 O   0  0  0  0  0  0  0  0  0  0  0  0
  -42.2891   61.5405   63.1889 C   0  0  0  0  0  0  0  0  0  0  0  0
  -41.6622   59.6634   63.1264 H   0  0  0  0  0  0  0  0  0  0  0  0
  -42.5394   61.4674   61.7118 C   0  0  0  0  0  0  0  0  0  0  0  0
  -41.1747   61.2743   61.0502 C   0  0  0  0  0  0  0  0  0  0  0  0
  -41.2836   60.2561   59.9178 C   0  0  0  0  0  0  0  0  0  0  0  0
  -39.9966   59.5854   59.5026 C   0  0  0  0  0  0  0  0  0  0  0  0
  -40.2919   58.1016   59.3094 C   0  0  0  0  0  0  0  0  0  0  0  0
  -41.3904   57.5881   60.2498 C   0  0  0  0  0  0  0  0  0  0  0  0
  -41.2667   56.0967   60.6115 C   0  0  0  0  0  0  0  0  0  0  0  0
  -41.1925   55.8524   62.1347 C   0  0  0  0  0  0  0  0  0  0  0  0
  -41.1151   57.1814   62.8916 C   0  0  0  0  0  0  0  0  0  0  0  0
  -39.8349   57.3953   63.6900 C   0  0  0  0  0  0  0  0  0  0  0  0
  -38.8003   58.2000   62.9173 C   0  0  0  0  0  0  0  0  0  0  0  0
  -37.6936   57.3918   62.2361 C   0  0  0  0  0  0  0  0  0  0  0  0
  -36.3543   57.8557   62.7926 C   0  0  0  0  0  0  0  0  0  0  0  0
  -36.2486   58.1605   64.2796 C   0  0  0  0  0  0  0  0  0  0  0  0
  -35.0318   59.0523   64.5730 C   0  0  0  0  0  0  0  0  0  0  0  0
  -33.7042   58.2887   64.7329 C   0  0  0  0  0  0  0  0  0  0  0  0
  -32.7660   58.4520   63.5393 C   0  0  0  0  0  0  0  0  0  0  0  0
  -42.0890   61.1587   67.1386 O   0  0  0  0  0  0  0  0  0  0  0  0
  -42.6189   60.8150   65.8719 C   0  0  0  0  0  0  0  0  0  0  0  0
  -41.3713   61.8014   67.0254 H   0  0  0  0  0  0  0  0  0  0  0  0
  -43.7596   59.8004   65.9800 C   0  0  0  0  0  0  0  0  0  0  0  0
  -44.9831   60.0174   65.4680 C   0  0  0  0  0  0  0  0  0  0  0  0
  -46.0698   58.9545   65.6186 C   0  0  0  0  0  0  0  0  0  0  0  0
  -47.4881   59.4710   65.3356 C   0  0  0  0  0  0  0  0  0  0  0  0
  -47.6120   60.4777   64.1771 C   0  0  0  0  0  0  0  0  0  0  0  0
  -49.0069   61.1483   64.1788 C   0  0  0  0  0  0  0  0  0  0  0  0
  -50.1706   60.2533   64.6753 C   0  0  0  0  0  0  0  0  0  0  0  0
  -50.9601   59.5548   63.5432 C   0  0  0  0  0  0  0  0  0  0  0  0
  -50.3574   58.1990   63.1157 C   0  0  0  0  0  0  0  0  0  0  0  0
  -49.7231   58.2176   61.7198 C   0  0  0  0  0  0  0  0  0  0  0  0
  -50.6511   57.8754   60.5561 C   0  0  0  0  0  0  0  0  0  0  0  0
  -50.0203   58.0954   59.1670 C   0  0  0  0  0  0  0  0  0  0  0  0
  -48.5861   58.6455   59.1788 C   0  0  0  0  0  0  0  0  0  0  0  0
  -47.6270   57.6961   58.4552 C   0  0  0  0  0  0  0  0  0  0  0  0
  -47.0707   58.1805   57.1280 C   0  0  0  0  0  0  0  0  0  0  0  0
  -40.0337   60.6309   65.5429 C   0  0  0  0  0  0  0  0  0  0  0  0
  -39.2870   61.4053   64.5704 O   0  0  0  0  0  0  0  0  0  0  0  0
  -37.4680   61.5528   62.3690 O   0  0  0  0  0  0  0  0  0  0  0  0
  -35.6392   64.4477   64.7510 O   0  0  0  0  0  0  0  0  0  0  0  0
  -37.4458   62.2962   65.8748 O   0  0  0  0  0  0  0  0  0  0  0  0
  -37.8237   61.5676   64.6816 C   0  0  0  0  0  0  0  0  0  0  0  0
  -37.1319   62.2798   63.5103 C   0  0  0  0  0  0  0  0  0  0  0  0
  -35.5923   62.3145   63.6275 C   0  0  0  0  0  0  0  0  0  0  0  0
  -35.2837   63.0741   64.8881 C   0  0  0  0  0  0  0  0  0  0  0  0
  -36.0119   62.4416   66.0603 C   0  0  0  0  0  0  0  0  0  0  0  0
  -38.4331   61.5203   62.2789 H   0  0  0  0  0  0  0  0  0  0  0  0
  -35.1633   64.8312   63.9977 H   0  0  0  0  0  0  0  0  0  0  0  0
  -36.2411   62.9744   68.3791 O   0  0  0  0  0  0  0  0  0  0  0  0
  -35.5799   63.3509   67.2087 C   0  0  0  0  0  0  0  0  0  0  0  0
  -35.9651   63.5533   69.1069 H   0  0  0  0  0  0  0  0  0  0  0  0
  -34.8905   62.9981   62.5644 O   0  0  0  0  0  0  0  0  0  0  0  0
  -32.6226   61.8816   63.1362 O   0  0  0  0  0  0  0  0  0  0  0  0
  -32.8124   64.3002   63.1865 O   0  0  0  0  0  0  0  0  0  0  0  0
  -32.7145   63.1287   61.0669 O   0  0  0  0  0  0  0  0  0  0  0  0
  -33.2300   63.0680   62.4641 S   0  0  0  0  0  0  0  0  0  0  0  0
  -32.9471   61.8254   64.0487 H   0  0  0  0  0  0  0  0  0  0  0  0
  -32.9823   62.3287   60.5884 H   0  0  0  0  0  0  0  0  0  0  0  0
  2  1  1  0  0  0
  2  4  1  0  0  0
  2  5  1  0  0  0
 41 42  1  0  0  0
 41  1  1  0  0  0
 42 46  1  0  0  0
  1 24  1  0  0  0
 23 24  1  0  0  0
 23 25  1  0  0  0
 24 26  1  0  0  0
  3  4  2  0  0  0
 26 27  2  0  0  0
 27 28  1  0  0  0
 43 47  1  0  0  0
 43 51  1  0  0  0
 28 29  1  0  0  0
 56 48  1  0  0  0
 56 60  1  0  0  0
 29 30  1  0  0  0
 57 60  1  0  0  0
 57 61  1  0  0  0
 30 31  1  0  0  0
 44 49  1  0  0  0
 44 52  1  0  0  0
 31 32  1  0  0  0
 45 46  1  0  0  0
 45 50  1  0  0  0
 32 33  1  0  0  0
 53 54  1  0  0  0
 53 55  1  0  0  0
 33 34  1  0  0  0
 34 35  1  0  0  0
 35 36  1  0  0  0
 58 60  1  0  0  0
 36 37  1  0  0  0
 59 60  1  0  0  0
 59 62  1  0  0  0
 37 38  1  0  0  0
 38 39  1  0  0  0
 39 40  1  0  0  0
  4  6  1  0  0  0
  6  7  1  0  0  0
  7  8  1  0  0  0
  8  9  1  0  0  0
  9 10  1  0  0  0
 10 11  1  0  0  0
 11 12  1  0  0  0
 12 13  1  0  0  0
 13 14  1  0  0  0
 14 15  1  0  0  0
 15 16  1  0  0  0
 16 17  1  0  0  0
 17 18  1  0  0  0
 18 19  1  0  0  0
 19 20  1  0  0  0
 20 21  1  0  0  0
 21 22  1  0  0  0
 46 47  1  0  0  0
 47 48  1  0  0  0
 48 49  1  0  0  0
 49 50  1  0  0  0
 50 54  1  0  0  0
M  CHG 1  58  -1
M  END
> <minimizedAffinity>
-9.47585

> <CNNscore>
0.2259340584

> <CNNaffinity>
7.2182517052

> <CNN_VS>
1.6308488846

> <CNNaffinity_variance>
2.0034718513

$$$$
/media/chris/experiments/cd1a-new-docking/inputs/ligands/1onq_ligand.pdb


 62 62  0  0  0  0  0  0  0  0999 V2000
  -41.4952   59.0086   65.0788 C   0  0  0  0  0  0  0  0  0  0  0  0
  -41.9085   58.7258   63.7186 N   0  0  0  0  0  0  0  0  0  0  0  0
  -40.5469   56.9998   63.1578 O   0  0  0  0  0  0  0  0  0  0  0  0
  -41.4323   57.7878   62.8883 C   0  0  0  0  0  0  0  0  0  0  0  0
  -42.6286   59.2934   63.3600 H   0  0  0  0  0  0  0  0  0  0  0  0
  -42.0814   57.7437   61.5368 C   0  0  0  0  0  0  0  0  0  0  0  0
  -41.0876   57.0550   60.6012 C   0  0  0  0  0  0  0  0  0  0  0  0
  -40.5724   58.0498   59.5640 C   0  0  0  0  0  0  0  0  0  0  0  0
  -40.2104   59.4206   60.0819 C   0  0  0  0  0  0  0  0  0  0  0  0
  -38.7204   59.6290   59.8318 C   0  0  0  0  0  0  0  0  0  0  0  0
  -37.8669   58.4500   60.3181 C   0  0  0  0  0  0  0  0  0  0  0  0
  -37.7119   58.3702   61.8478 C   0  0  0  0  0  0  0  0  0  0  0  0
  -36.3210   58.8321   62.3353 C   0  0  0  0  0  0  0  0  0  0  0  0
  -35.5607   57.6690   62.9789 C   0  0  0  0  0  0  0  0  0  0  0  0
  -35.0710   57.9257   64.3989 C   0  0  0  0  0  0  0  0  0  0  0  0
  -33.7680   58.7109   64.4270 C   0  0  0  0  0  0  0  0  0  0  0  0
  -32.7360   58.3370   63.3606 C   0  0  0  0  0  0  0  0  0  0  0  0
  -31.8149   59.5311   63.1504 C   0  0  0  0  0  0  0  0  0  0  0  0
  -31.9129   60.3067   61.8450 C   0  0  0  0  0  0  0  0  0  0  0  0
  -30.5209   60.7357   61.3545 C   0  0  0  0  0  0  0  0  0  0  0  0
  -30.1977   62.2253   61.5735 C   0  0  0  0  0  0  0  0  0  0  0  0
  -29.2403   62.4708   62.7373 C   0  0  0  0  0  0  0  0  0  0  0  0
  -43.1074   57.6311   66.0269 O   0  0  0  0  0  0  0  0  0  0  0  0
  -42.8135   59.0022   65.8334 C   0  0  0  0  0  0  0  0  0  0  0  0
  -42.4085   57.2229   66.5615 H   0  0  0  0  0  0  0  0  0  0  0  0
  -43.8813   59.7081   64.9944 C   0  0  0  0  0  0  0  0  0  0  0  0
  -45.1721   59.7793   65.3620 C   0  0  0  0  0  0  0  0  0  0  0  0
  -46.1784   60.5017   64.4681 C   0  0  0  0  0  0  0  0  0  0  0  0
  -47.5373   59.7941   64.3637 C   0  0  0  0  0  0  0  0  0  0  0  0
  -48.3342   59.6843   65.6767 C   0  0  0  0  0  0  0  0  0  0  0  0
  -49.8122   59.3228   65.3936 C   0  0  0  0  0  0  0  0  0  0  0  0
  -50.5762   60.3223   64.4886 C   0  0  0  0  0  0  0  0  0  0  0  0
  -51.2564   59.6726   63.2606 C   0  0  0  0  0  0  0  0  0  0  0  0
  -50.6196   58.3303   62.8401 C   0  0  0  0  0  0  0  0  0  0  0  0
  -50.8360   57.9797   61.3631 C   0  0  0  0  0  0  0  0  0  0  0  0
  -49.9359   58.7020   60.3628 C   0  0  0  0  0  0  0  0  0  0  0  0
  -49.4596   57.8152   59.1954 C   0  0  0  0  0  0  0  0  0  0  0  0
  -48.1080   58.2107   58.5819 C   0  0  0  0  0  0  0  0  0  0  0  0
  -47.1568   57.0117   58.5276 C   0  0  0  0  0  0  0  0  0  0  0  0
  -47.1703   56.1968   57.2465 C   0  0  0  0  0  0  0  0  0  0  0  0
  -40.5926   60.2508   65.2557 C   0  0  0  0  0  0  0  0  0  0  0  0
  -39.3503   60.2611   64.5076 O   0  0  0  0  0  0  0  0  0  0  0  0
  -37.5873   60.8246   66.6874 O   0  0  0  0  0  0  0  0  0  0  0  0
  -34.9701   61.8772   63.6147 O   0  0  0  0  0  0  0  0  0  0  0  0
  -37.9758   61.8307   63.2696 O   0  0  0  0  0  0  0  0  0  0  0  0
  -38.4223   61.4072   64.5806 C   0  0  0  0  0  0  0  0  0  0  0  0
  -37.1514   61.1955   65.4159 C   0  0  0  0  0  0  0  0  0  0  0  0
  -36.2803   62.4635   65.5524 C   0  0  0  0  0  0  0  0  0  0  0  0
  -35.8681   62.8425   64.1568 C   0  0  0  0  0  0  0  0  0  0  0  0
  -37.0983   62.9889   63.2796 C   0  0  0  0  0  0  0  0  0  0  0  0
  -38.1370   60.0283   66.6212 H   0  0  0  0  0  0  0  0  0  0  0  0
  -34.1927   61.8000   64.1898 H   0  0  0  0  0  0  0  0  0  0  0  0
  -35.4100   64.2428   62.1433 O   0  0  0  0  0  0  0  0  0  0  0  0
  -36.4688   63.3565   61.9376 C   0  0  0  0  0  0  0  0  0  0  0  0
  -35.0119   64.4745   61.2897 H   0  0  0  0  0  0  0  0  0  0  0  0
  -35.0559   62.3139   66.3064 O   0  0  0  0  0  0  0  0  0  0  0  0
  -34.9098   64.7732   67.1109 O   0  0  0  0  0  0  0  0  0  0  0  0
  -33.2874   63.9387   65.5109 O   0  0  0  0  0  0  0  0  0  0  0  0
  -33.1411   63.2964   67.8434 O   0  0  0  0  0  0  0  0  0  0  0  0
  -34.0784   63.5953   66.7238 S   0  0  0  0  0  0  0  0  0  0  0  0
  -35.5274   64.9831   66.3930 H   0  0  0  0  0  0  0  0  0  0  0  0
  -33.6487   63.0713   68.6387 H   0  0  0  0  0  0  0  0  0  0  0  0
  2  1  1  0  0  0
  2  4  1  0  0  0
  2  5  1  0  0  0
 41 42  1  0  0  0
 41  1  1  0  0  0
 42 46  1  0  0  0
  1 24  1  0  0  0
 23 24  1  0  0  0
 23 25  1  0  0  0
 24 26  1  0  0  0
  3  4  2  0  0  0
 26 27  2  0  0  0
 27 28  1  0  0  0
 43 47  1  0  0  0
 43 51  1  0  0  0
 28 29  1  0  0  0
 56 48  1  0  0  0
 56 60  1  0  0  0
 29 30  1  0  0  0
 57 60  1  0  0  0
 57 61  1  0  0  0
 30 31  1  0  0  0
 44 49  1  0  0  0
 44 52  1  0  0  0
 31 32  1  0  0  0
 45 46  1  0  0  0
 45 50  1  0  0  0
 32 33  1  0  0  0
 53 54  1  0  0  0
 53 55  1  0  0  0
 33 34  1  0  0  0
 34 35  1  0  0  0
 35 36  1  0  0  0
 58 60  1  0  0  0
 36 37  1  0  0  0
 59 60  1  0  0  0
 59 62  1  0  0  0
 37 38  1  0  0  0
 38 39  1  0  0  0
 39 40  1  0  0  0
  4  6  1  0  0  0
  6  7  1  0  0  0
  7  8  1  0  0  0
  8  9  1  0  0  0
  9 10  1  0  0  0
 10 11  1  0  0  0
 11 12  1  0  0  0
 12 13  1  0  0  0
 13 14  1  0  0  0
 14 15  1  0  0  0
 15 16  1  0  0  0
 16 17  1  0  0  0
 17 18  1  0  0  0
 18 19  1  0  0  0
 19 20  1  0  0  0
 20 21  1  0  0  0
 21 22  1  0  0  0
 46 47  1  0  0  0
 47 48  1  0  0  0
 48 49  1  0  0  0
 49 50  1  0  0  0
 50 54  1  0  0  0
M  CHG 1  58  -1
M  END
> <minimizedAffinity>
-9.26664

> <CNNscore>
0.2013735175

> <CNNaffinity>
6.8488669395

> <CNN_VS>
1.3791804314

> <CNNaffinity_variance>
1.3288924694

$$$$
/media/chris/experiments/cd1a-new-docking/inputs/ligands/1onq_ligand.pdb


 62 62  0  0  0  0  0  0  0  0999 V2000
  -41.5597   60.5438   64.8912 C   0  0  0  0  0  0  0  0  0  0  0  0
  -42.3241   59.3198   64.7556 N   0  0  0  0  0  0  0  0  0  0  0  0
  -42.0478   58.3595   66.7926 O   0  0  0  0  0  0  0  0  0  0  0  0
  -42.5095   58.3560   65.6681 C   0  0  0  0  0  0  0  0  0  0  0  0
  -42.7615   59.1789   63.8849 H   0  0  0  0  0  0  0  0  0  0  0  0
  -43.3672   57.2100   65.2197 C   0  0  0  0  0  0  0  0  0  0  0  0
  -44.7778   57.7705   65.0364 C   0  0  0  0  0  0  0  0  0  0  0  0
  -45.4369   57.9794   66.3976 C   0  0  0  0  0  0  0  0  0  0  0  0
  -46.1927   59.2737   66.5772 C   0  0  0  0  0  0  0  0  0  0  0  0
  -46.4487   59.8539   65.1901 C   0  0  0  0  0  0  0  0  0  0  0  0
  -47.9217   60.2188   64.9626 C   0  0  0  0  0  0  0  0  0  0  0  0
  -48.8594   59.8100   66.1133 C   0  0  0  0  0  0  0  0  0  0  0  0
  -50.3245   59.6297   65.6588 C   0  0  0  0  0  0  0  0  0  0  0  0
  -50.6032   60.4508   64.3966 C   0  0  0  0  0  0  0  0  0  0  0  0
  -51.4627   59.7526   63.3497 C   0  0  0  0  0  0  0  0  0  0  0  0
  -50.6262   59.0809   62.2707 C   0  0  0  0  0  0  0  0  0  0  0  0
  -49.6655   59.9913   61.5024 C   0  0  0  0  0  0  0  0  0  0  0  0
  -49.5569   59.4719   60.0751 C   0  0  0  0  0  0  0  0  0  0  0  0
  -49.6104   57.9696   59.8397 C   0  0  0  0  0  0  0  0  0  0  0  0
  -48.2603   57.4451   59.3255 C   0  0  0  0  0  0  0  0  0  0  0  0
  -47.6482   58.2725   58.1802 C   0  0  0  0  0  0  0  0  0  0  0  0
  -47.6196   57.5294   56.8466 C   0  0  0  0  0  0  0  0  0  0  0  0
  -43.5354   61.6094   64.2938 O   0  0  0  0  0  0  0  0  0  0  0  0
  -42.1995   61.4502   63.8536 C   0  0  0  0  0  0  0  0  0  0  0  0
  -43.5401   62.0351   65.1653 H   0  0  0  0  0  0  0  0  0  0  0  0
  -42.1210   60.7817   62.4791 C   0  0  0  0  0  0  0  0  0  0  0  0
  -41.2577   61.1696   61.5249 C   0  0  0  0  0  0  0  0  0  0  0  0
  -41.2416   60.4515   60.1767 C   0  0  0  0  0  0  0  0  0  0  0  0
  -39.8464   59.9822   59.7390 C   0  0  0  0  0  0  0  0  0  0  0  0
  -39.7740   58.5576   59.1589 C   0  0  0  0  0  0  0  0  0  0  0  0
  -41.0288   57.7406   59.5504 C   0  0  0  0  0  0  0  0  0  0  0  0
  -40.8117   56.6894   60.6682 C   0  0  0  0  0  0  0  0  0  0  0  0
  -41.0262   57.2339   62.1001 C   0  0  0  0  0  0  0  0  0  0  0  0
  -39.7108   57.4849   62.8689 C   0  0  0  0  0  0  0  0  0  0  0  0
  -38.4511   57.1281   62.0706 C   0  0  0  0  0  0  0  0  0  0  0  0
  -37.3734   58.2079   61.9991 C   0  0  0  0  0  0  0  0  0  0  0  0
  -36.0563   57.8252   62.7025 C   0  0  0  0  0  0  0  0  0  0  0  0
  -35.8405   58.4660   64.0818 C   0  0  0  0  0  0  0  0  0  0  0  0
  -34.3482   58.5935   64.4015 C   0  0  0  0  0  0  0  0  0  0  0  0
  -33.3857   58.2657   63.2738 C   0  0  0  0  0  0  0  0  0  0  0  0
  -40.0241   60.3803   64.8272 C   0  0  0  0  0  0  0  0  0  0  0  0
  -39.2718   61.5141   64.3254 O   0  0  0  0  0  0  0  0  0  0  0  0
  -37.3996   61.6790   62.1703 O   0  0  0  0  0  0  0  0  0  0  0  0
  -35.4621   64.3252   64.7476 O   0  0  0  0  0  0  0  0  0  0  0  0
  -37.4120   62.2224   65.7128 O   0  0  0  0  0  0  0  0  0  0  0  0
  -37.8044   61.5849   64.4730 C   0  0  0  0  0  0  0  0  0  0  0  0
  -37.0478   62.3203   63.3574 C   0  0  0  0  0  0  0  0  0  0  0  0
  -35.5117   62.2592   63.5050 C   0  0  0  0  0  0  0  0  0  0  0  0
  -35.1881   62.9278   64.8125 C   0  0  0  0  0  0  0  0  0  0  0  0
  -35.9765   62.2740   65.9329 C   0  0  0  0  0  0  0  0  0  0  0  0
  -38.3628   61.7076   62.0606 H   0  0  0  0  0  0  0  0  0  0  0  0
  -34.9488   64.7221   64.0264 H   0  0  0  0  0  0  0  0  0  0  0  0
  -36.4755   64.0629   67.4376 O   0  0  0  0  0  0  0  0  0  0  0  0
  -35.5188   63.0910   67.1393 C   0  0  0  0  0  0  0  0  0  0  0  0
  -36.1826   64.5803   68.2040 H   0  0  0  0  0  0  0  0  0  0  0  0
  -34.7491   62.9594   62.4961 O   0  0  0  0  0  0  0  0  0  0  0  0
  -32.5853   63.3523   61.1248 O   0  0  0  0  0  0  0  0  0  0  0  0
  -32.6032   61.6751   62.8783 O   0  0  0  0  0  0  0  0  0  0  0  0
  -32.5248   64.0304   63.4448 O   0  0  0  0  0  0  0  0  0  0  0  0
  -33.0857   63.0293   62.4936 S   0  0  0  0  0  0  0  0  0  0  0  0
  -32.9406   62.7100   60.4906 H   0  0  0  0  0  0  0  0  0  0  0  0
  -32.8345   64.9167   63.2012 H   0  0  0  0  0  0  0  0  0  0  0  0
  2  1  1  0  0  0
  2  4  1  0  0  0
  2  5  1  0  0  0
 41 42  1  0  0  0
 41  1  1  0  0  0
 42 46  1  0  0  0
  1 24  1  0  0  0
 23 24  1  0  0  0
 23 25  1  0  0  0
 24 26  1  0  0  0
  3  4  2  0  0  0
 26 27  2  0  0  0
 27 28  1  0  0  0
 43 47  1  0  0  0
 43 51  1  0  0  0
 28 29  1  0  0  0
 56 48  1  0  0  0
 56 60  1  0  0  0
 29 30  1  0  0  0
 57 60  1  0  0  0
 57 61  1  0  0  0
 30 31  1  0  0  0
 44 49  1  0  0  0
 44 52  1  0  0  0
 31 32  1  0  0  0
 45 46  1  0  0  0
 45 50  1  0  0  0
 32 33  1  0  0  0
 53 54  1  0  0  0
 53 55  1  0  0  0
 33 34  1  0  0  0
 34 35  1  0  0  0
 35 36  1  0  0  0
 58 60  1  0  0  0
 36 37  1  0  0  0
 59 60  1  0  0  0
 59 62  1  0  0  0
 37 38  1  0  0  0
 38 39  1  0  0  0
 39 40  1  0  0  0
  4  6  1  0  0  0
  6  7  1  0  0  0
  7  8  1  0  0  0
  8  9  1  0  0  0
  9 10  1  0  0  0
 10 11  1  0  0  0
 11 12  1  0  0  0
 12 13  1  0  0  0
 13 14  1  0  0  0
 14 15  1  0  0  0
 15 16  1  0  0  0
 16 17  1  0  0  0
 17 18  1  0  0  0
 18 19  1  0  0  0
 19 20  1  0  0  0
 20 21  1  0  0  0
 21 22  1  0  0  0
 46 47  1  0  0  0
 47 48  1  0  0  0
 48 49  1  0  0  0
 49 50  1  0  0  0
 50 54  1  0  0  0
M  CHG 1  58  -1
M  END
> <minimizedAffinity>
-9.55999

> <CNNscore>
0.1943098307

> <CNNaffinity>
7.2200727463

> <CNN_VS>
1.4029310942

> <CNNaffinity_variance>
1.7509056330

$$$$
/media/chris/experiments/cd1a-new-docking/inputs/ligands/1onq_ligand.pdb


 62 62  0  0  0  0  0  0  0  0999 V2000
  -38.3571   59.5013   64.6486 C   0  0  0  0  0  0  0  0  0  0  0  0
  -39.5962   59.2960   65.3722 N   0  0  0  0  0  0  0  0  0  0  0  0
  -40.2576   61.4248   65.7946 O   0  0  0  0  0  0  0  0  0  0  0  0
  -40.4242   60.2232   65.8729 C   0  0  0  0  0  0  0  0  0  0  0  0
  -39.8627   58.3589   65.5135 H   0  0  0  0  0  0  0  0  0  0  0  0
  -41.6397   59.6844   66.5671 C   0  0  0  0  0  0  0  0  0  0  0  0
  -42.7860   60.6411   66.2384 C   0  0  0  0  0  0  0  0  0  0  0  0
  -44.1158   59.8916   66.2690 C   0  0  0  0  0  0  0  0  0  0  0  0
  -45.1591   60.3508   65.2794 C   0  0  0  0  0  0  0  0  0  0  0  0
  -46.1839   59.2303   65.1371 C   0  0  0  0  0  0  0  0  0  0  0  0
  -47.5984   59.6653   65.5430 C   0  0  0  0  0  0  0  0  0  0  0  0
  -48.6810   58.5964   65.3063 C   0  0  0  0  0  0  0  0  0  0  0  0
  -50.1123   59.1309   65.5325 C   0  0  0  0  0  0  0  0  0  0  0  0
  -50.4050   60.3046   64.5935 C   0  0  0  0  0  0  0  0  0  0  0  0
  -51.4326   60.0190   63.5051 C   0  0  0  0  0  0  0  0  0  0  0  0
  -50.8928   59.0847   62.4323 C   0  0  0  0  0  0  0  0  0  0  0  0
  -49.5157   59.4379   61.8659 C   0  0  0  0  0  0  0  0  0  0  0  0
  -49.6717   59.7218   60.3781 C   0  0  0  0  0  0  0  0  0  0  0  0
  -49.7008   58.5476   59.4108 C   0  0  0  0  0  0  0  0  0  0  0  0
  -48.2990   57.9410   59.2400 C   0  0  0  0  0  0  0  0  0  0  0  0
  -47.9811   57.4599   57.8122 C   0  0  0  0  0  0  0  0  0  0  0  0
  -46.8844   58.2747   57.1304 C   0  0  0  0  0  0  0  0  0  0  0  0
  -37.0137   57.6154   64.4644 O   0  0  0  0  0  0  0  0  0  0  0  0
  -38.1840   58.1858   63.9090 C   0  0  0  0  0  0  0  0  0  0  0  0
  -37.1495   57.4567   65.4117 H   0  0  0  0  0  0  0  0  0  0  0  0
  -38.0358   58.4622   62.4110 C   0  0  0  0  0  0  0  0  0  0  0  0
  -38.5865   59.5282   61.8055 C   0  0  0  0  0  0  0  0  0  0  0  0
  -38.3935   59.7337   60.3042 C   0  0  0  0  0  0  0  0  0  0  0  0
  -38.5926   58.4589   59.4715 C   0  0  0  0  0  0  0  0  0  0  0  0
  -39.9375   58.3507   58.7294 C   0  0  0  0  0  0  0  0  0  0  0  0
  -41.0891   58.0542   59.7198 C   0  0  0  0  0  0  0  0  0  0  0  0
  -41.1828   56.5853   60.2050 C   0  0  0  0  0  0  0  0  0  0  0  0
  -40.4985   56.3233   61.5674 C   0  0  0  0  0  0  0  0  0  0  0  0
  -41.4456   55.7228   62.6288 C   0  0  0  0  0  0  0  0  0  0  0  0
  -41.5836   56.5828   63.8908 C   0  0  0  0  0  0  0  0  0  0  0  0
  -42.8740   57.3902   64.0153 C   0  0  0  0  0  0  0  0  0  0  0  0
  -43.0319   58.4869   62.9437 C   0  0  0  0  0  0  0  0  0  0  0  0
  -41.8692   59.4867   62.8537 C   0  0  0  0  0  0  0  0  0  0  0  0
  -42.2464   60.6924   61.9883 C   0  0  0  0  0  0  0  0  0  0  0  0
  -42.9225   61.8501   62.7012 C   0  0  0  0  0  0  0  0  0  0  0  0
  -37.1625   59.9895   65.4992 C   0  0  0  0  0  0  0  0  0  0  0  0
  -35.8783   60.0656   64.8297 O   0  0  0  0  0  0  0  0  0  0  0  0
  -36.9038   62.0684   63.0650 O   0  0  0  0  0  0  0  0  0  0  0  0
  -35.5199   64.6497   66.0350 O   0  0  0  0  0  0  0  0  0  0  0  0
  -34.4553   61.8407   65.6722 O   0  0  0  0  0  0  0  0  0  0  0  0
  -35.2371   61.3657   64.5494 C   0  0  0  0  0  0  0  0  0  0  0  0
  -36.1802   62.5164   64.1695 C   0  0  0  0  0  0  0  0  0  0  0  0
  -35.4454   63.8158   63.7736 C   0  0  0  0  0  0  0  0  0  0  0  0
  -34.6538   64.2357   64.9811 C   0  0  0  0  0  0  0  0  0  0  0  0
  -33.7606   63.0943   65.4324 C   0  0  0  0  0  0  0  0  0  0  0  0
  -37.3728   61.2514   63.2956 H   0  0  0  0  0  0  0  0  0  0  0  0
  -36.0803   65.3785   65.7254 H   0  0  0  0  0  0  0  0  0  0  0  0
  -33.7158   63.3010   67.8133 O   0  0  0  0  0  0  0  0  0  0  0  0
  -33.0709   63.7137   66.6460 C   0  0  0  0  0  0  0  0  0  0  0  0
  -33.2759   63.6956   68.5825 H   0  0  0  0  0  0  0  0  0  0  0  0
  -36.2862   64.9414   63.4329 O   0  0  0  0  0  0  0  0  0  0  0  0
  -37.2388   66.7768   61.8707 O   0  0  0  0  0  0  0  0  0  0  0  0
  -36.0663   64.8801   60.9133 O   0  0  0  0  0  0  0  0  0  0  0  0
  -34.8297   66.6427   62.0262 O   0  0  0  0  0  0  0  0  0  0  0  0
  -36.0874   65.8432   62.0476 S   0  0  0  0  0  0  0  0  0  0  0  0
  -38.0680   66.2735   61.8820 H   0  0  0  0  0  0  0  0  0  0  0  0
  -34.8351   67.2736   62.7630 H   0  0  0  0  0  0  0  0  0  0  0  0
  2  1  1  0  0  0
  2  4  1  0  0  0
  2  5  1  0  0  0
 41 42  1  0  0  0
 41  1  1  0  0  0
 42 46  1  0  0  0
  1 24  1  0  0  0
 23 24  1  0  0  0
 23 25  1  0  0  0
 24 26  1  0  0  0
  3  4  2  0  0  0
 26 27  2  0  0  0
 27 28  1  0  0  0
 43 47  1  0  0  0
 43 51  1  0  0  0
 28 29  1  0  0  0
 56 48  1  0  0  0
 56 60  1  0  0  0
 29 30  1  0  0  0
 57 60  1  0  0  0
 57 61  1  0  0  0
 30 31  1  0  0  0
 44 49  1  0  0  0
 44 52  1  0  0  0
 31 32  1  0  0  0
 45 46  1  0  0  0
 45 50  1  0  0  0
 32 33  1  0  0  0
 53 54  1  0  0  0
 53 55  1  0  0  0
 33 34  1  0  0  0
 34 35  1  0  0  0
 35 36  1  0  0  0
 58 60  1  0  0  0
 36 37  1  0  0  0
 59 60  1  0  0  0
 59 62  1  0  0  0
 37 38  1  0  0  0
 38 39  1  0  0  0
 39 40  1  0  0  0
  4  6  1  0  0  0
  6  7  1  0  0  0
  7  8  1  0  0  0
  8  9  1  0  0  0
  9 10  1  0  0  0
 10 11  1  0  0  0
 11 12  1  0  0  0
 12 13  1  0  0  0
 13 14  1  0  0  0
 14 15  1  0  0  0
 15 16  1  0  0  0
 16 17  1  0  0  0
 17 18  1  0  0  0
 18 19  1  0  0  0
 19 20  1  0  0  0
 20 21  1  0  0  0
 21 22  1  0  0  0
 46 47  1  0  0  0
 47 48  1  0  0  0
 48 49  1  0  0  0
 49 50  1  0  0  0
 50 54  1  0  0  0
M  CHG 1  58  -1
M  END
> <minimizedAffinity>
-9.17498

> <CNNscore>
0.1845979691

> <CNNaffinity>
7.2047982216

> <CNN_VS>
1.3299911022

> <CNNaffinity_variance>
1.3299194574

$$$$
/media/chris/experiments/cd1a-new-docking/inputs/ligands/1onq_ligand.pdb


 62 62  0  0  0  0  0  0  0  0999 V2000
  -40.6075   59.8614   63.8413 C   0  0  0  0  0  0  0  0  0  0  0  0
  -41.8670   60.4697   64.2218 N   0  0  0  0  0  0  0  0  0  0  0  0
  -42.7311   61.0696   62.2116 O   0  0  0  0  0  0  0  0  0  0  0  0
  -42.7998   61.0069   63.4237 C   0  0  0  0  0  0  0  0  0  0  0  0
  -42.0613   60.4908   65.1868 H   0  0  0  0  0  0  0  0  0  0  0  0
  -44.0058   61.5520   64.1295 C   0  0  0  0  0  0  0  0  0  0  0  0
  -44.1268   60.7771   65.4418 C   0  0  0  0  0  0  0  0  0  0  0  0
  -45.5340   60.2011   65.5795 C   0  0  0  0  0  0  0  0  0  0  0  0
  -45.8734   59.0524   64.6608 C   0  0  0  0  0  0  0  0  0  0  0  0
  -47.3425   59.1899   64.2747 C   0  0  0  0  0  0  0  0  0  0  0  0
  -48.0428   60.3423   65.0071 C   0  0  0  0  0  0  0  0  0  0  0  0
  -49.0405   59.8902   66.0891 C   0  0  0  0  0  0  0  0  0  0  0  0
  -50.3367   59.2927   65.4987 C   0  0  0  0  0  0  0  0  0  0  0  0
  -51.0351   60.3091   64.5909 C   0  0  0  0  0  0  0  0  0  0  0  0
  -51.3198   59.8212   63.1756 C   0  0  0  0  0  0  0  0  0  0  0  0
  -50.7414   58.4382   62.9145 C   0  0  0  0  0  0  0  0  0  0  0  0
  -49.7762   58.3268   61.7321 C   0  0  0  0  0  0  0  0  0  0  0  0
  -50.5402   57.7527   60.5467 C   0  0  0  0  0  0  0  0  0  0  0  0
  -50.1480   58.1930   59.1440 C   0  0  0  0  0  0  0  0  0  0  0  0
  -48.6733   58.6235   59.0950 C   0  0  0  0  0  0  0  0  0  0  0  0
  -47.7564   57.6722   58.3041 C   0  0  0  0  0  0  0  0  0  0  0  0
  -46.9546   58.3757   57.2116 C   0  0  0  0  0  0  0  0  0  0  0  0
  -39.7861   60.2859   65.9722 O   0  0  0  0  0  0  0  0  0  0  0  0
  -40.1527   59.2059   65.1339 C   0  0  0  0  0  0  0  0  0  0  0  0
  -40.5599   60.8488   66.1312 H   0  0  0  0  0  0  0  0  0  0  0  0
  -38.9727   58.2757   64.8426 C   0  0  0  0  0  0  0  0  0  0  0  0
  -37.7341   58.4944   65.3162 C   0  0  0  0  0  0  0  0  0  0  0  0
  -36.6081   57.5186   64.9795 C   0  0  0  0  0  0  0  0  0  0  0  0
  -35.4434   58.1558   64.2076 C   0  0  0  0  0  0  0  0  0  0  0  0
  -35.8299   58.9133   62.9239 C   0  0  0  0  0  0  0  0  0  0  0  0
  -36.5366   57.9700   61.9209 C   0  0  0  0  0  0  0  0  0  0  0  0
  -37.8816   58.4928   61.3559 C   0  0  0  0  0  0  0  0  0  0  0  0
  -37.8520   58.8111   59.8424 C   0  0  0  0  0  0  0  0  0  0  0  0
  -39.1554   58.4327   59.1061 C   0  0  0  0  0  0  0  0  0  0  0  0
  -40.4290   58.8565   59.8474 C   0  0  0  0  0  0  0  0  0  0  0  0
  -41.4517   57.7531   60.1100 C   0  0  0  0  0  0  0  0  0  0  0  0
  -41.7828   57.5485   61.6014 C   0  0  0  0  0  0  0  0  0  0  0  0
  -40.9643   56.4590   62.3104 C   0  0  0  0  0  0  0  0  0  0  0  0
  -41.7066   55.9257   63.5391 C   0  0  0  0  0  0  0  0  0  0  0  0
  -42.7289   56.8564   64.1671 C   0  0  0  0  0  0  0  0  0  0  0  0
  -39.6001   60.8002   63.1394 C   0  0  0  0  0  0  0  0  0  0  0  0
  -39.0213   61.8533   63.9513 O   0  0  0  0  0  0  0  0  0  0  0  0
  -36.9029   62.2268   62.0672 O   0  0  0  0  0  0  0  0  0  0  0  0
  -35.2525   64.4850   65.1616 O   0  0  0  0  0  0  0  0  0  0  0  0
  -37.3314   62.3356   65.6237 O   0  0  0  0  0  0  0  0  0  0  0  0
  -37.5813   61.8647   64.2772 C   0  0  0  0  0  0  0  0  0  0  0  0
  -36.6871   62.7089   63.3576 C   0  0  0  0  0  0  0  0  0  0  0  0
  -35.1806   62.5876   63.6752 C   0  0  0  0  0  0  0  0  0  0  0  0
  -35.0068   63.0830   65.0843 C   0  0  0  0  0  0  0  0  0  0  0  0
  -35.9319   62.3200   66.0149 C   0  0  0  0  0  0  0  0  0  0  0  0
  -37.8457   62.2953   61.8499 H   0  0  0  0  0  0  0  0  0  0  0  0
  -34.6515   64.9522   64.5603 H   0  0  0  0  0  0  0  0  0  0  0  0
  -36.4483   64.0701   67.5590 O   0  0  0  0  0  0  0  0  0  0  0  0
  -35.6110   62.9712   67.3585 C   0  0  0  0  0  0  0  0  0  0  0  0
  -36.2425   64.4818   68.4128 H   0  0  0  0  0  0  0  0  0  0  0  0
  -34.2937   63.3838   62.8570 O   0  0  0  0  0  0  0  0  0  0  0  0
  -36.0313   65.2637   62.4526 O   0  0  0  0  0  0  0  0  0  0  0  0
  -35.1933   63.9828   60.5695 O   0  0  0  0  0  0  0  0  0  0  0  0
  -33.7987   65.6664   61.6162 O   0  0  0  0  0  0  0  0  0  0  0  0
  -34.8228   64.6126   61.8660 S   0  0  0  0  0  0  0  0  0  0  0  0
  -36.7103   64.5920   62.6224 H   0  0  0  0  0  0  0  0  0  0  0  0
  -33.5513   66.0824   62.4567 H   0  0  0  0  0  0  0  0  0  0  0  0
  2  1  1  0  0  0
  2  4  1  0  0  0
  2  5  1  0  0  0
 41 42  1  0  0  0
 41  1  1  0  0  0
 42 46  1  0  0  0
  1 24  1  0  0  0
 23 24  1  0  0  0
 23 25  1  0  0  0
 24 26  1  0  0  0
  3  4  2  0  0  0
 26 27  2  0  0  0
 27 28  1  0  0  0
 43 47  1  0  0  0
 43 51  1  0  0  0
 28 29  1  0  0  0
 56 48  1  0  0  0
 56 60  1  0  0  0
 29 30  1  0  0  0
 57 60  1  0  0  0
 57 61  1  0  0  0
 30 31  1  0  0  0
 44 49  1  0  0  0
 44 52  1  0  0  0
 31 32  1  0  0  0
 45 46  1  0  0  0
 45 50  1  0  0  0
 32 33  1  0  0  0
 53 54  1  0  0  0
 53 55  1  0  0  0
 33 34  1  0  0  0
 34 35  1  0  0  0
 35 36  1  0  0  0
 58 60  1  0  0  0
 36 37  1  0  0  0
 59 60  1  0  0  0
 59 62  1  0  0  0
 37 38  1  0  0  0
 38 39  1  0  0  0
 39 40  1  0  0  0
  4  6  1  0  0  0
  6  7  1  0  0  0
  7  8  1  0  0  0
  8  9  1  0  0  0
  9 10  1  0  0  0
 10 11  1  0  0  0
 11 12  1  0  0  0
 12 13  1  0  0  0
 13 14  1  0  0  0
 14 15  1  0  0  0
 15 16  1  0  0  0
 16 17  1  0  0  0
 17 18  1  0  0  0
 18 19  1  0  0  0
 19 20  1  0  0  0
 20 21  1  0  0  0
 21 22  1  0  0  0
 46 47  1  0  0  0
 47 48  1  0  0  0
 48 49  1  0  0  0
 49 50  1  0  0  0
 50 54  1  0  0  0
M  CHG 1  58  -1
M  END
> <minimizedAffinity>
-9.76670

> <CNNscore>
0.1678653508

> <CNNaffinity>
7.1038436890

> <CNN_VS>
1.1924892664

> <CNNaffinity_variance>
1.4218577147

$$$$
/media/chris/experiments/cd1a-new-docking/inputs/ligands/1onq_ligand.pdb


 62 62  0  0  0  0  0  0  0  0999 V2000
  -41.0585   59.9634   63.9589 C   0  0  0  0  0  0  0  0  0  0  0  0
  -42.3199   60.3939   64.5287 N   0  0  0  0  0  0  0  0  0  0  0  0
  -43.3385   61.3641   62.7486 O   0  0  0  0  0  0  0  0  0  0  0  0
  -43.3269   61.0336   63.9184 C   0  0  0  0  0  0  0  0  0  0  0  0
  -42.4534   60.1912   65.4829 H   0  0  0  0  0  0  0  0  0  0  0  0
  -44.5113   61.3347   64.7882 C   0  0  0  0  0  0  0  0  0  0  0  0
  -44.9158   60.0133   65.4420 C   0  0  0  0  0  0  0  0  0  0  0  0
  -45.6303   59.1258   64.4257 C   0  0  0  0  0  0  0  0  0  0  0  0
  -47.1368   59.2186   64.4072 C   0  0  0  0  0  0  0  0  0  0  0  0
  -47.6010   59.4633   65.8392 C   0  0  0  0  0  0  0  0  0  0  0  0
  -49.0555   59.9462   65.9168 C   0  0  0  0  0  0  0  0  0  0  0  0
  -49.5978   60.5333   64.6009 C   0  0  0  0  0  0  0  0  0  0  0  0
  -51.1412   60.5599   64.5463 C   0  0  0  0  0  0  0  0  0  0  0  0
  -51.6452   59.9640   63.2287 C   0  0  0  0  0  0  0  0  0  0  0  0
  -50.5554   59.4619   62.2893 C   0  0  0  0  0  0  0  0  0  0  0  0
  -50.5378   57.9440   62.1846 C   0  0  0  0  0  0  0  0  0  0  0  0
  -50.2786   57.3706   60.7897 C   0  0  0  0  0  0  0  0  0  0  0  0
  -50.0774   58.5332   59.8271 C   0  0  0  0  0  0  0  0  0  0  0  0
  -48.7227   58.6963   59.1537 C   0  0  0  0  0  0  0  0  0  0  0  0
  -47.8807   57.4183   59.2955 C   0  0  0  0  0  0  0  0  0  0  0  0
  -47.1551   56.9857   58.0081 C   0  0  0  0  0  0  0  0  0  0  0  0
  -46.8016   58.1550   57.0920 C   0  0  0  0  0  0  0  0  0  0  0  0
  -40.2536   57.8243   64.3736 O   0  0  0  0  0  0  0  0  0  0  0  0
  -41.3021   58.4879   63.6926 C   0  0  0  0  0  0  0  0  0  0  0  0
  -40.3149   58.0123   65.3232 H   0  0  0  0  0  0  0  0  0  0  0  0
  -41.2629   58.2318   62.1842 C   0  0  0  0  0  0  0  0  0  0  0  0
  -41.1143   57.0060   61.6535 C   0  0  0  0  0  0  0  0  0  0  0  0
  -41.0838   56.8330   60.1361 C   0  0  0  0  0  0  0  0  0  0  0  0
  -40.8994   58.1476   59.3641 C   0  0  0  0  0  0  0  0  0  0  0  0
  -39.4940   58.3875   58.7824 C   0  0  0  0  0  0  0  0  0  0  0  0
  -38.6376   59.2403   59.7491 C   0  0  0  0  0  0  0  0  0  0  0  0
  -37.6006   58.4500   60.5870 C   0  0  0  0  0  0  0  0  0  0  0  0
  -37.7158   58.6745   62.1131 C   0  0  0  0  0  0  0  0  0  0  0  0
  -36.9725   57.6121   62.9514 C   0  0  0  0  0  0  0  0  0  0  0  0
  -36.6447   58.0692   64.3780 C   0  0  0  0  0  0  0  0  0  0  0  0
  -35.3239   58.8146   64.5572 C   0  0  0  0  0  0  0  0  0  0  0  0
  -34.2015   58.3345   63.6161 C   0  0  0  0  0  0  0  0  0  0  0  0
  -32.7725   58.5664   64.1298 C   0  0  0  0  0  0  0  0  0  0  0  0
  -31.8969   59.2072   63.0491 C   0  0  0  0  0  0  0  0  0  0  0  0
  -32.3242   60.5797   62.5600 C   0  0  0  0  0  0  0  0  0  0  0  0
  -39.7992   60.3292   64.7769 C   0  0  0  0  0  0  0  0  0  0  0  0
  -39.0901   61.5284   64.3738 O   0  0  0  0  0  0  0  0  0  0  0  0
  -37.2002   61.9450   62.2687 O   0  0  0  0  0  0  0  0  0  0  0  0
  -35.4124   64.4563   65.0788 O   0  0  0  0  0  0  0  0  0  0  0  0
  -37.2805   62.2018   65.8425 O   0  0  0  0  0  0  0  0  0  0  0  0
  -37.6292   61.6496   64.5499 C   0  0  0  0  0  0  0  0  0  0  0  0
  -36.8916   62.5035   63.5085 C   0  0  0  0  0  0  0  0  0  0  0  0
  -35.3563   62.4962   63.6752 C   0  0  0  0  0  0  0  0  0  0  0  0
  -35.0785   63.0711   65.0368 C   0  0  0  0  0  0  0  0  0  0  0  0
  -35.8515   62.2966   66.0889 C   0  0  0  0  0  0  0  0  0  0  0  0
  -38.1623   61.9412   62.1463 H   0  0  0  0  0  0  0  0  0  0  0  0
  -34.9081   64.9312   64.3997 H   0  0  0  0  0  0  0  0  0  0  0  0
  -36.3697   64.0425   67.6370 O   0  0  0  0  0  0  0  0  0  0  0  0
  -35.4451   63.0330   67.3635 C   0  0  0  0  0  0  0  0  0  0  0  0
  -36.1095   64.5087   68.4468 H   0  0  0  0  0  0  0  0  0  0  0  0
  -34.6125   63.3069   62.7374 O   0  0  0  0  0  0  0  0  0  0  0  0
  -35.7162   63.8756   60.4625 O   0  0  0  0  0  0  0  0  0  0  0  0
  -34.2828   65.5107   61.5395 O   0  0  0  0  0  0  0  0  0  0  0  0
  -36.5186   65.1058   62.3832 O   0  0  0  0  0  0  0  0  0  0  0  0
  -35.3175   64.4672   61.7738 S   0  0  0  0  0  0  0  0  0  0  0  0
  -34.9458   63.4545   60.0501 H   0  0  0  0  0  0  0  0  0  0  0  0
  -37.1987   64.4321   62.5394 H   0  0  0  0  0  0  0  0  0  0  0  0
  2  1  1  0  0  0
  2  4  1  0  0  0
  2  5  1  0  0  0
 41 42  1  0  0  0
 41  1  1  0  0  0
 42 46  1  0  0  0
  1 24  1  0  0  0
 23 24  1  0  0  0
 23 25  1  0  0  0
 24 26  1  0  0  0
  3  4  2  0  0  0
 26 27  2  0  0  0
 27 28  1  0  0  0
 43 47  1  0  0  0
 43 51  1  0  0  0
 28 29  1  0  0  0
 56 48  1  0  0  0
 56 60  1  0  0  0
 29 30  1  0  0  0
 57 60  1  0  0  0
 57 61  1  0  0  0
 30 31  1  0  0  0
 44 49  1  0  0  0
 44 52  1  0  0  0
 31 32  1  0  0  0
 45 46  1  0  0  0
 45 50  1  0  0  0
 32 33  1  0  0  0
 53 54  1  0  0  0
 53 55  1  0  0  0
 33 34  1  0  0  0
 34 35  1  0  0  0
 35 36  1  0  0  0
 58 60  1  0  0  0
 36 37  1  0  0  0
 59 60  1  0  0  0
 59 62  1  0  0  0
 37 38  1  0  0  0
 38 39  1  0  0  0
 39 40  1  0  0  0
  4  6  1  0  0  0
  6  7  1  0  0  0
  7  8  1  0  0  0
  8  9  1  0  0  0
  9 10  1  0  0  0
 10 11  1  0  0  0
 11 12  1  0  0  0
 12 13  1  0  0  0
 13 14  1  0  0  0
 14 15  1  0  0  0
 15 16  1  0  0  0
 16 17  1  0  0  0
 17 18  1  0  0  0
 18 19  1  0  0  0
 19 20  1  0  0  0
 20 21  1  0  0  0
 21 22  1  0  0  0
 46 47  1  0  0  0
 47 48  1  0  0  0
 48 49  1  0  0  0
 49 50  1  0  0  0
 50 54  1  0  0  0
M  CHG 1  58  -1
M  END
> <minimizedAffinity>
-9.80996

> <CNNscore>
0.1659326404

> <CNNaffinity>
6.9126129150

> <CNN_VS>
1.1470280886

> <CNNaffinity_variance>
1.5291912556

$$$$
