/media/chris/experiments/cd1a-new-docking/inputs/ligands/1onq_ligand.pdb


 62 62  0  0  0  0  0  0  0  0999 V2000
  -41.6669   59.9710   65.2600 C   0  0  0  0  0  0  0  0  0  0  0  0
  -41.6147   58.6214   64.7338 N   0  0  0  0  0  0  0  0  0  0  0  0
  -42.7698   57.4560   66.3007 O   0  0  0  0  0  0  0  0  0  0  0  0
  -42.1423   57.5080   65.2609 C   0  0  0  0  0  0  0  0  0  0  0  0
  -41.1315   58.5086   63.8835 H   0  0  0  0  0  0  0  0  0  0  0  0
  -41.9200   56.2575   64.4630 C   0  0  0  0  0  0  0  0  0  0  0  0
  -41.0919   56.6630   63.2435 C   0  0  0  0  0  0  0  0  0  0  0  0
  -41.2339   55.6131   62.1441 C   0  0  0  0  0  0  0  0  0  0  0  0
  -41.4100   56.1413   60.7412 C   0  0  0  0  0  0  0  0  0  0  0  0
  -41.7731   57.6188   60.8472 C   0  0  0  0  0  0  0  0  0  0  0  0
  -41.2906   58.4360   59.6412 C   0  0  0  0  0  0  0  0  0  0  0  0
  -39.9049   58.0235   59.1117 C   0  0  0  0  0  0  0  0  0  0  0  0
  -38.8472   59.1385   59.2653 C   0  0  0  0  0  0  0  0  0  0  0  0
  -37.6977   58.6724   60.1633 C   0  0  0  0  0  0  0  0  0  0  0  0
  -38.1094   57.7763   61.3251 C   0  0  0  0  0  0  0  0  0  0  0  0
  -37.2124   57.9581   62.5405 C   0  0  0  0  0  0  0  0  0  0  0  0
  -37.9185   57.9824   63.8981 C   0  0  0  0  0  0  0  0  0  0  0  0
  -36.8599   57.8694   64.9869 C   0  0  0  0  0  0  0  0  0  0  0  0
  -35.4186   57.6035   64.5781 C   0  0  0  0  0  0  0  0  0  0  0  0
  -34.5835   58.8923   64.6376 C   0  0  0  0  0  0  0  0  0  0  0  0
  -33.0665   58.6647   64.7716 C   0  0  0  0  0  0  0  0  0  0  0  0
  -32.3233   58.7480   63.4403 C   0  0  0  0  0  0  0  0  0  0  0  0
  -42.0689   62.0001   64.2032 O   0  0  0  0  0  0  0  0  0  0  0  0
  -42.5723   60.6787   64.2665 C   0  0  0  0  0  0  0  0  0  0  0  0
  -41.1555   61.9829   63.8772 H   0  0  0  0  0  0  0  0  0  0  0  0
  -44.0151   60.6350   64.7752 C   0  0  0  0  0  0  0  0  0  0  0  0
  -44.9289   59.7657   64.3110 C   0  0  0  0  0  0  0  0  0  0  0  0
  -46.3504   59.7859   64.8699 C   0  0  0  0  0  0  0  0  0  0  0  0
  -47.2890   60.7624   64.1463 C   0  0  0  0  0  0  0  0  0  0  0  0
  -48.6676   60.9698   64.8002 C   0  0  0  0  0  0  0  0  0  0  0  0
  -49.1018   59.7051   65.5797 C   0  0  0  0  0  0  0  0  0  0  0  0
  -50.4456   59.0787   65.1289 C   0  0  0  0  0  0  0  0  0  0  0  0
  -51.1558   59.8524   63.9933 C   0  0  0  0  0  0  0  0  0  0  0  0
  -51.1723   59.0962   62.6472 C   0  0  0  0  0  0  0  0  0  0  0  0
  -49.7981   58.5684   62.2183 C   0  0  0  0  0  0  0  0  0  0  0  0
  -49.4157   58.8004   60.7580 C   0  0  0  0  0  0  0  0  0  0  0  0
  -49.4356   57.5231   59.8953 C   0  0  0  0  0  0  0  0  0  0  0  0
  -49.0495   57.7220   58.4217 C   0  0  0  0  0  0  0  0  0  0  0  0
  -47.5404   57.5559   58.2215 C   0  0  0  0  0  0  0  0  0  0  0  0
  -47.1054   56.5509   57.1697 C   0  0  0  0  0  0  0  0  0  0  0  0
  -40.2973   60.6260   65.5498 C   0  0  0  0  0  0  0  0  0  0  0  0
  -39.5389   61.0786   64.3995 O   0  0  0  0  0  0  0  0  0  0  0  0
  -37.7711   61.5196   62.1955 O   0  0  0  0  0  0  0  0  0  0  0  0
  -36.2590   64.5075   64.6823 O   0  0  0  0  0  0  0  0  0  0  0  0
  -37.7974   62.1212   65.7284 O   0  0  0  0  0  0  0  0  0  0  0  0
  -38.1024   61.4021   64.5088 C   0  0  0  0  0  0  0  0  0  0  0  0
  -37.5082   62.2343   63.3634 C   0  0  0  0  0  0  0  0  0  0  0  0
  -35.9815   62.4398   63.4731 C   0  0  0  0  0  0  0  0  0  0  0  0
  -35.7482   63.1790   64.7616 C   0  0  0  0  0  0  0  0  0  0  0  0
  -36.3876   62.4217   65.9114 C   0  0  0  0  0  0  0  0  0  0  0  0
  -38.7273   61.3808   62.1096 H   0  0  0  0  0  0  0  0  0  0  0  0
  -35.8377   64.9723   63.9425 H   0  0  0  0  0  0  0  0  0  0  0  0
  -34.7616   63.0436   67.5493 O   0  0  0  0  0  0  0  0  0  0  0  0
  -36.0500   63.3280   67.0931 C   0  0  0  0  0  0  0  0  0  0  0  0
  -34.5495   63.6205   68.2997 H   0  0  0  0  0  0  0  0  0  0  0  0
  -35.3730   63.2406   62.4345 O   0  0  0  0  0  0  0  0  0  0  0  0
  -33.0668   62.0634   62.5472 O   0  0  0  0  0  0  0  0  0  0  0  0
  -33.2508   64.3991   63.1795 O   0  0  0  0  0  0  0  0  0  0  0  0
  -33.3253   63.7591   60.8430 O   0  0  0  0  0  0  0  0  0  0  0  0
  -33.7261   63.3630   62.2229 S   0  0  0  0  0  0  0  0  0  0  0  0
  -33.3163   61.7890   63.4435 H   0  0  0  0  0  0  0  0  0  0  0  0
  -33.6314   63.0886   60.2124 H   0  0  0  0  0  0  0  0  0  0  0  0
  2  1  1  0  0  0
  2  4  1  0  0  0
  2  5  1  0  0  0
 41 42  1  0  0  0
 41  1  1  0  0  0
 42 46  1  0  0  0
  1 24  1  0  0  0
 23 24  1  0  0  0
 23 25  1  0  0  0
 24 26  1  0  0  0
  3  4  2  0  0  0
 26 27  2  0  0  0
 27 28  1  0  0  0
 43 47  1  0  0  0
 43 51  1  0  0  0
 28 29  1  0  0  0
 56 48  1  0  0  0
 56 60  1  0  0  0
 29 30  1  0  0  0
 57 60  1  0  0  0
 57 61  1  0  0  0
 30 31  1  0  0  0
 44 49  1  0  0  0
 44 52  1  0  0  0
 31 32  1  0  0  0
 45 46  1  0  0  0
 45 50  1  0  0  0
 32 33  1  0  0  0
 53 54  1  0  0  0
 53 55  1  0  0  0
 33 34  1  0  0  0
 34 35  1  0  0  0
 35 36  1  0  0  0
 58 60  1  0  0  0
 36 37  1  0  0  0
 59 60  1  0  0  0
 59 62  1  0  0  0
 37 38  1  0  0  0
 38 39  1  0  0  0
 39 40  1  0  0  0
  4  6  1  0  0  0
  6  7  1  0  0  0
  7  8  1  0  0  0
  8  9  1  0  0  0
  9 10  1  0  0  0
 10 11  1  0  0  0
 11 12  1  0  0  0
 12 13  1  0  0  0
 13 14  1  0  0  0
 14 15  1  0  0  0
 15 16  1  0  0  0
 16 17  1  0  0  0
 17 18  1  0  0  0
 18 19  1  0  0  0
 19 20  1  0  0  0
 20 21  1  0  0  0
 21 22  1  0  0  0
 46 47  1  0  0  0
 47 48  1  0  0  0
 48 49  1  0  0  0
 49 50  1  0  0  0
 50 54  1  0  0  0
M  CHG 1  58  -1
M  END
> <minimizedAffinity>
-9.68573

> <CNNscore>
0.3476201594

> <CNNaffinity>
7.2493882179

> <CNN_VS>
2.5200335979

> <CNNaffinity_variance>
1.9312626123

$$$$
/media/chris/experiments/cd1a-new-docking/inputs/ligands/1onq_ligand.pdb


 62 62  0  0  0  0  0  0  0  0999 V2000
  -40.9181   59.2108   64.6539 C   0  0  0  0  0  0  0  0  0  0  0  0
  -42.0798   60.0521   64.4446 N   0  0  0  0  0  0  0  0  0  0  0  0
  -42.0536   61.3662   66.2939 O   0  0  0  0  0  0  0  0  0  0  0  0
  -42.5487   61.0255   65.2371 C   0  0  0  0  0  0  0  0  0  0  0  0
  -42.5874   59.8879   63.6172 H   0  0  0  0  0  0  0  0  0  0  0  0
  -43.7767   61.7231   64.7320 C   0  0  0  0  0  0  0  0  0  0  0  0
  -43.8080   61.5044   63.2193 C   0  0  0  0  0  0  0  0  0  0  0  0
  -42.6804   62.2910   62.5552 C   0  0  0  0  0  0  0  0  0  0  0  0
  -42.3249   61.8800   61.1470 C   0  0  0  0  0  0  0  0  0  0  0  0
  -41.2769   60.7759   61.2398 C   0  0  0  0  0  0  0  0  0  0  0  0
  -40.8943   60.2047   59.8678 C   0  0  0  0  0  0  0  0  0  0  0  0
  -41.2239   58.7112   59.6907 C   0  0  0  0  0  0  0  0  0  0  0  0
  -39.9679   57.8426   59.4589 C   0  0  0  0  0  0  0  0  0  0  0  0
  -38.7209   58.7213   59.3247 C   0  0  0  0  0  0  0  0  0  0  0  0
  -37.7100   58.5835   60.4566 C   0  0  0  0  0  0  0  0  0  0  0  0
  -38.1689   57.6013   61.5242 C   0  0  0  0  0  0  0  0  0  0  0  0
  -37.5704   57.7979   62.9189 C   0  0  0  0  0  0  0  0  0  0  0  0
  -36.1982   58.4391   62.7617 C   0  0  0  0  0  0  0  0  0  0  0  0
  -34.9674   57.6317   63.1469 C   0  0  0  0  0  0  0  0  0  0  0  0
  -33.6916   58.2647   62.5693 C   0  0  0  0  0  0  0  0  0  0  0  0
  -32.6734   58.7285   63.6272 C   0  0  0  0  0  0  0  0  0  0  0  0
  -33.1322   58.4714   65.0607 C   0  0  0  0  0  0  0  0  0  0  0  0
  -40.9494   56.8882   64.6325 O   0  0  0  0  0  0  0  0  0  0  0  0
  -41.5136   57.9856   65.3260 C   0  0  0  0  0  0  0  0  0  0  0  0
  -39.9854   56.8991   64.7396 H   0  0  0  0  0  0  0  0  0  0  0  0
  -43.0380   58.0272   65.1969 C   0  0  0  0  0  0  0  0  0  0  0  0
  -43.8658   57.5388   66.1364 C   0  0  0  0  0  0  0  0  0  0  0  0
  -45.3776   57.6172   65.9329 C   0  0  0  0  0  0  0  0  0  0  0  0
  -45.9343   59.0482   65.9531 C   0  0  0  0  0  0  0  0  0  0  0  0
  -47.1639   59.2978   65.0604 C   0  0  0  0  0  0  0  0  0  0  0  0
  -48.2182   60.1529   65.8040 C   0  0  0  0  0  0  0  0  0  0  0  0
  -49.6365   59.5335   65.8827 C   0  0  0  0  0  0  0  0  0  0  0  0
  -50.0020   58.6326   64.6797 C   0  0  0  0  0  0  0  0  0  0  0  0
  -50.9170   59.3239   63.6459 C   0  0  0  0  0  0  0  0  0  0  0  0
  -50.7270   58.8124   62.2129 C   0  0  0  0  0  0  0  0  0  0  0  0
  -49.3262   58.9682   61.6247 C   0  0  0  0  0  0  0  0  0  0  0  0
  -49.3081   59.1734   60.0971 C   0  0  0  0  0  0  0  0  0  0  0  0
  -49.1571   57.8903   59.2658 C   0  0  0  0  0  0  0  0  0  0  0  0
  -47.7047   57.6890   58.8243 C   0  0  0  0  0  0  0  0  0  0  0  0
  -47.3525   58.1625   57.4252 C   0  0  0  0  0  0  0  0  0  0  0  0
  -39.7243   59.8888   65.3637 C   0  0  0  0  0  0  0  0  0  0  0  0
  -39.1842   61.0771   64.7318 O   0  0  0  0  0  0  0  0  0  0  0  0
  -37.5809   61.5969   62.4217 O   0  0  0  0  0  0  0  0  0  0  0  0
  -35.7963   64.4050   64.9375 O   0  0  0  0  0  0  0  0  0  0  0  0
  -37.3161   62.0021   65.9728 O   0  0  0  0  0  0  0  0  0  0  0  0
  -37.7349   61.3593   64.7444 C   0  0  0  0  0  0  0  0  0  0  0  0
  -37.2080   62.2393   63.6017 C   0  0  0  0  0  0  0  0  0  0  0  0
  -35.6721   62.4015   63.6013 C   0  0  0  0  0  0  0  0  0  0  0  0
  -35.3188   63.0622   64.9050 C   0  0  0  0  0  0  0  0  0  0  0  0
  -35.8883   62.2579   66.0596 C   0  0  0  0  0  0  0  0  0  0  0  0
  -38.5443   61.4863   62.4043 H   0  0  0  0  0  0  0  0  0  0  0  0
  -35.4206   64.8998   64.1926 H   0  0  0  0  0  0  0  0  0  0  0  0
  -36.4410   63.9889   67.6125 O   0  0  0  0  0  0  0  0  0  0  0  0
  -35.4345   63.0889   67.2578 C   0  0  0  0  0  0  0  0  0  0  0  0
  -36.1504   64.5154   68.3736 H   0  0  0  0  0  0  0  0  0  0  0  0
  -35.1235   63.2437   62.5623 O   0  0  0  0  0  0  0  0  0  0  0  0
  -33.1931   63.5658   60.8633 O   0  0  0  0  0  0  0  0  0  0  0  0
  -32.8241   62.2299   62.8554 O   0  0  0  0  0  0  0  0  0  0  0  0
  -32.9266   64.6466   63.0098 O   0  0  0  0  0  0  0  0  0  0  0  0
  -33.4890   63.4498   62.3220 S   0  0  0  0  0  0  0  0  0  0  0  0
  -33.5522   62.7941   60.3981 H   0  0  0  0  0  0  0  0  0  0  0  0
  -33.3548   65.4470   62.6678 H   0  0  0  0  0  0  0  0  0  0  0  0
  2  1  1  0  0  0
  2  4  1  0  0  0
  2  5  1  0  0  0
 41 42  1  0  0  0
 41  1  1  0  0  0
 42 46  1  0  0  0
  1 24  1  0  0  0
 23 24  1  0  0  0
 23 25  1  0  0  0
 24 26  1  0  0  0
  3  4  2  0  0  0
 26 27  2  0  0  0
 27 28  1  0  0  0
 43 47  1  0  0  0
 43 51  1  0  0  0
 28 29  1  0  0  0
 56 48  1  0  0  0
 56 60  1  0  0  0
 29 30  1  0  0  0
 57 60  1  0  0  0
 57 61  1  0  0  0
 30 31  1  0  0  0
 44 49  1  0  0  0
 44 52  1  0  0  0
 31 32  1  0  0  0
 45 46  1  0  0  0
 45 50  1  0  0  0
 32 33  1  0  0  0
 53 54  1  0  0  0
 53 55  1  0  0  0
 33 34  1  0  0  0
 34 35  1  0  0  0
 35 36  1  0  0  0
 58 60  1  0  0  0
 36 37  1  0  0  0
 59 60  1  0  0  0
 59 62  1  0  0  0
 37 38  1  0  0  0
 38 39  1  0  0  0
 39 40  1  0  0  0
  4  6  1  0  0  0
  6  7  1  0  0  0
  7  8  1  0  0  0
  8  9  1  0  0  0
  9 10  1  0  0  0
 10 11  1  0  0  0
 11 12  1  0  0  0
 12 13  1  0  0  0
 13 14  1  0  0  0
 14 15  1  0  0  0
 15 16  1  0  0  0
 16 17  1  0  0  0
 17 18  1  0  0  0
 18 19  1  0  0  0
 19 20  1  0  0  0
 20 21  1  0  0  0
 21 22  1  0  0  0
 46 47  1  0  0  0
 47 48  1  0  0  0
 48 49  1  0  0  0
 49 50  1  0  0  0
 50 54  1  0  0  0
M  CHG 1  58  -1
M  END
> <minimizedAffinity>
-9.69944

> <CNNscore>
0.3372846544

> <CNNaffinity>
7.1828932762

> <CNN_VS>
2.4226796627

> <CNNaffinity_variance>
2.5518958569

$$$$
/media/chris/experiments/cd1a-new-docking/inputs/ligands/1onq_ligand.pdb


 62 62  0  0  0  0  0  0  0  0999 V2000
  -39.8619   60.4069   63.7099 C   0  0  0  0  0  0  0  0  0  0  0  0
  -41.1955   60.9590   63.8433 N   0  0  0  0  0  0  0  0  0  0  0  0
  -41.8872   61.0560   61.6847 O   0  0  0  0  0  0  0  0  0  0  0  0
  -42.0769   61.2339   62.8722 C   0  0  0  0  0  0  0  0  0  0  0  0
  -41.4903   61.1567   64.7616 H   0  0  0  0  0  0  0  0  0  0  0  0
  -43.3868   61.7953   63.3401 C   0  0  0  0  0  0  0  0  0  0  0  0
  -43.7615   61.0240   64.6058 C   0  0  0  0  0  0  0  0  0  0  0  0
  -45.2666   60.7697   64.6353 C   0  0  0  0  0  0  0  0  0  0  0  0
  -45.6963   59.3238   64.5800 C   0  0  0  0  0  0  0  0  0  0  0  0
  -46.5869   59.0611   65.7899 C   0  0  0  0  0  0  0  0  0  0  0  0
  -48.0297   58.7131   65.3998 C   0  0  0  0  0  0  0  0  0  0  0  0
  -49.0987   59.5701   66.1022 C   0  0  0  0  0  0  0  0  0  0  0  0
  -50.4777   59.4954   65.4106 C   0  0  0  0  0  0  0  0  0  0  0  0
  -50.6138   60.5983   64.3570 C   0  0  0  0  0  0  0  0  0  0  0  0
  -51.1774   60.1434   63.0162 C   0  0  0  0  0  0  0  0  0  0  0  0
  -50.9075   58.6705   62.7463 C   0  0  0  0  0  0  0  0  0  0  0  0
  -49.6939   58.3608   61.8669 C   0  0  0  0  0  0  0  0  0  0  0  0
  -50.0626   57.2155   60.9336 C   0  0  0  0  0  0  0  0  0  0  0  0
  -49.0019   56.6779   59.9843 C   0  0  0  0  0  0  0  0  0  0  0  0
  -48.4507   57.7961   59.0856 C   0  0  0  0  0  0  0  0  0  0  0  0
  -47.2056   57.4038   58.2689 C   0  0  0  0  0  0  0  0  0  0  0  0
  -46.9355   58.3390   57.0926 C   0  0  0  0  0  0  0  0  0  0  0  0
  -39.5686   61.2408   65.8580 O   0  0  0  0  0  0  0  0  0  0  0  0
  -39.5183   60.0227   65.1389 C   0  0  0  0  0  0  0  0  0  0  0  0
  -40.4656   61.6070   65.8114 H   0  0  0  0  0  0  0  0  0  0  0  0
  -38.1251   59.3901   65.1727 C   0  0  0  0  0  0  0  0  0  0  0  0
  -37.8580   58.1797   64.6531 C   0  0  0  0  0  0  0  0  0  0  0  0
  -36.4401   57.6164   64.7275 C   0  0  0  0  0  0  0  0  0  0  0  0
  -35.7700   57.4363   63.3576 C   0  0  0  0  0  0  0  0  0  0  0  0
  -36.2236   58.4163   62.2598 C   0  0  0  0  0  0  0  0  0  0  0  0
  -37.3777   57.8104   61.4252 C   0  0  0  0  0  0  0  0  0  0  0  0
  -38.1395   58.8140   60.5231 C   0  0  0  0  0  0  0  0  0  0  0  0
  -39.2010   58.1621   59.6060 C   0  0  0  0  0  0  0  0  0  0  0  0
  -40.6467   58.5994   59.9267 C   0  0  0  0  0  0  0  0  0  0  0  0
  -41.5295   57.4672   60.4653 C   0  0  0  0  0  0  0  0  0  0  0  0
  -40.8638   56.5066   61.4485 C   0  0  0  0  0  0  0  0  0  0  0  0
  -40.9883   56.9354   62.9238 C   0  0  0  0  0  0  0  0  0  0  0  0
  -42.3402   57.5514   63.3149 C   0  0  0  0  0  0  0  0  0  0  0  0
  -42.8317   56.9940   64.6538 C   0  0  0  0  0  0  0  0  0  0  0  0
  -42.4431   57.7777   65.8950 C   0  0  0  0  0  0  0  0  0  0  0  0
  -38.8449   61.2968   62.9598 C   0  0  0  0  0  0  0  0  0  0  0  0
  -38.1402   62.2856   63.7527 O   0  0  0  0  0  0  0  0  0  0  0  0
  -36.4654   63.3610   61.6995 O   0  0  0  0  0  0  0  0  0  0  0  0
  -34.2746   64.7774   64.9542 O   0  0  0  0  0  0  0  0  0  0  0  0
  -36.1557   62.4149   65.1423 O   0  0  0  0  0  0  0  0  0  0  0  0
  -36.6647   62.3275   63.7892 C   0  0  0  0  0  0  0  0  0  0  0  0
  -36.0018   63.4723   63.0097 C   0  0  0  0  0  0  0  0  0  0  0  0
  -34.4594   63.3955   62.9867 C   0  0  0  0  0  0  0  0  0  0  0  0
  -34.0127   63.4820   64.4199 C   0  0  0  0  0  0  0  0  0  0  0  0
  -34.7059   62.4088   65.2398 C   0  0  0  0  0  0  0  0  0  0  0  0
  -37.4342   63.4073   61.6943 H   0  0  0  0  0  0  0  0  0  0  0  0
  -33.8229   65.4463   64.4162 H   0  0  0  0  0  0  0  0  0  0  0  0
  -35.1303   63.1962   67.4563 O   0  0  0  0  0  0  0  0  0  0  0  0
  -34.1329   62.6753   66.6299 C   0  0  0  0  0  0  0  0  0  0  0  0
  -34.7639   63.3645   68.3386 H   0  0  0  0  0  0  0  0  0  0  0  0
  -33.7814   64.4650   62.2892 O   0  0  0  0  0  0  0  0  0  0  0  0
  -31.8031   62.9174   61.6502 O   0  0  0  0  0  0  0  0  0  0  0  0
  -31.3607   65.0291   62.7611 O   0  0  0  0  0  0  0  0  0  0  0  0
  -31.9860   64.9908   60.4197 O   0  0  0  0  0  0  0  0  0  0  0  0
  -32.2116   64.3501   61.7465 S   0  0  0  0  0  0  0  0  0  0  0  0
  -31.9431   62.4831   62.5062 H   0  0  0  0  0  0  0  0  0  0  0  0
  -32.5373   64.5539   59.7518 H   0  0  0  0  0  0  0  0  0  0  0  0
  2  1  1  0  0  0
  2  4  1  0  0  0
  2  5  1  0  0  0
 41 42  1  0  0  0
 41  1  1  0  0  0
 42 46  1  0  0  0
  1 24  1  0  0  0
 23 24  1  0  0  0
 23 25  1  0  0  0
 24 26  1  0  0  0
  3  4  2  0  0  0
 26 27  2  0  0  0
 27 28  1  0  0  0
 43 47  1  0  0  0
 43 51  1  0  0  0
 28 29  1  0  0  0
 56 48  1  0  0  0
 56 60  1  0  0  0
 29 30  1  0  0  0
 57 60  1  0  0  0
 57 61  1  0  0  0
 30 31  1  0  0  0
 44 49  1  0  0  0
 44 52  1  0  0  0
 31 32  1  0  0  0
 45 46  1  0  0  0
 45 50  1  0  0  0
 32 33  1  0  0  0
 53 54  1  0  0  0
 53 55  1  0  0  0
 33 34  1  0  0  0
 34 35  1  0  0  0
 35 36  1  0  0  0
 58 60  1  0  0  0
 36 37  1  0  0  0
 59 60  1  0  0  0
 59 62  1  0  0  0
 37 38  1  0  0  0
 38 39  1  0  0  0
 39 40  1  0  0  0
  4  6  1  0  0  0
  6  7  1  0  0  0
  7  8  1  0  0  0
  8  9  1  0  0  0
  9 10  1  0  0  0
 10 11  1  0  0  0
 11 12  1  0  0  0
 12 13  1  0  0  0
 13 14  1  0  0  0
 14 15  1  0  0  0
 15 16  1  0  0  0
 16 17  1  0  0  0
 17 18  1  0  0  0
 18 19  1  0  0  0
 19 20  1  0  0  0
 20 21  1  0  0  0
 21 22  1  0  0  0
 46 47  1  0  0  0
 47 48  1  0  0  0
 48 49  1  0  0  0
 49 50  1  0  0  0
 50 54  1  0  0  0
M  CHG 1  58  -1
M  END
> <minimizedAffinity>
-9.51147

> <CNNscore>
0.3078642488

> <CNNaffinity>
7.2692718506

> <CNN_VS>
2.2379488945

> <CNNaffinity_variance>
1.4584493637

$$$$
/media/chris/experiments/cd1a-new-docking/inputs/ligands/1onq_ligand.pdb


 62 62  0  0  0  0  0  0  0  0999 V2000
  -42.2726   59.4701   62.5203 C   0  0  0  0  0  0  0  0  0  0  0  0
  -42.6462   59.1333   63.8798 N   0  0  0  0  0  0  0  0  0  0  0  0
  -44.4068   60.5168   64.2450 O   0  0  0  0  0  0  0  0  0  0  0  0
  -43.6381   59.6516   64.6168 C   0  0  0  0  0  0  0  0  0  0  0  0
  -42.1036   58.4371   64.3160 H   0  0  0  0  0  0  0  0  0  0  0  0
  -43.7728   59.0799   65.9970 C   0  0  0  0  0  0  0  0  0  0  0  0
  -44.4146   57.7020   65.8345 C   0  0  0  0  0  0  0  0  0  0  0  0
  -45.9270   57.8064   66.0153 C   0  0  0  0  0  0  0  0  0  0  0  0
  -46.4111   58.9006   66.9355 C   0  0  0  0  0  0  0  0  0  0  0  0
  -47.6698   59.4997   66.3168 C   0  0  0  0  0  0  0  0  0  0  0  0
  -48.0458   58.8414   64.9825 C   0  0  0  0  0  0  0  0  0  0  0  0
  -49.5204   58.4097   64.8839 C   0  0  0  0  0  0  0  0  0  0  0  0
  -50.5025   59.5312   65.2879 C   0  0  0  0  0  0  0  0  0  0  0  0
  -51.1454   60.1588   64.0478 C   0  0  0  0  0  0  0  0  0  0  0  0
  -50.9114   59.4009   62.7465 C   0  0  0  0  0  0  0  0  0  0  0  0
  -50.0057   60.1622   61.7899 C   0  0  0  0  0  0  0  0  0  0  0  0
  -49.4797   59.3705   60.5904 C   0  0  0  0  0  0  0  0  0  0  0  0
  -50.2184   58.0400   60.5378 C   0  0  0  0  0  0  0  0  0  0  0  0
  -49.4088   56.7625   60.3710 C   0  0  0  0  0  0  0  0  0  0  0  0
  -48.0735   57.0459   59.6647 C   0  0  0  0  0  0  0  0  0  0  0  0
  -48.1719   57.1525   58.1317 C   0  0  0  0  0  0  0  0  0  0  0  0
  -47.2590   58.2243   57.5409 C   0  0  0  0  0  0  0  0  0  0  0  0
  -42.1041   57.1971   62.9684 O   0  0  0  0  0  0  0  0  0  0  0  0
  -42.0773   58.1051   61.8829 C   0  0  0  0  0  0  0  0  0  0  0  0
  -42.9668   57.2454   63.4092 H   0  0  0  0  0  0  0  0  0  0  0  0
  -40.7385   58.0786   61.1418 C   0  0  0  0  0  0  0  0  0  0  0  0
  -40.6200   58.3655   59.8342 C   0  0  0  0  0  0  0  0  0  0  0  0
  -39.2471   58.3159   59.1663 C   0  0  0  0  0  0  0  0  0  0  0  0
  -38.1143   58.8885   60.0305 C   0  0  0  0  0  0  0  0  0  0  0  0
  -37.5704   57.9500   61.1236 C   0  0  0  0  0  0  0  0  0  0  0  0
  -36.6870   58.7297   62.1273 C   0  0  0  0  0  0  0  0  0  0  0  0
  -35.9663   57.8604   63.1885 C   0  0  0  0  0  0  0  0  0  0  0  0
  -34.5096   57.4910   62.8218 C   0  0  0  0  0  0  0  0  0  0  0  0
  -33.4556   58.4070   63.4806 C   0  0  0  0  0  0  0  0  0  0  0  0
  -32.8232   59.4157   62.5143 C   0  0  0  0  0  0  0  0  0  0  0  0
  -31.3542   59.7523   62.7619 C   0  0  0  0  0  0  0  0  0  0  0  0
  -30.9662   61.1905   62.3653 C   0  0  0  0  0  0  0  0  0  0  0  0
  -32.1065   62.0394   61.7830 C   0  0  0  0  0  0  0  0  0  0  0  0
  -31.9090   63.5227   62.1081 C   0  0  0  0  0  0  0  0  0  0  0  0
  -32.6463   64.5120   61.2230 C   0  0  0  0  0  0  0  0  0  0  0  0
  -41.1124   60.4815   62.3800 C   0  0  0  0  0  0  0  0  0  0  0  0
  -39.9117   60.2006   63.1433 O   0  0  0  0  0  0  0  0  0  0  0  0
  -38.8792   60.5498   65.7870 O   0  0  0  0  0  0  0  0  0  0  0  0
  -35.4056   61.5963   63.7284 O   0  0  0  0  0  0  0  0  0  0  0  0
  -38.1604   61.7454   62.4857 O   0  0  0  0  0  0  0  0  0  0  0  0
  -39.0041   61.2847   63.5690 C   0  0  0  0  0  0  0  0  0  0  0  0
  -38.0600   60.9567   64.7346 C   0  0  0  0  0  0  0  0  0  0  0  0
  -37.2208   62.1624   65.2113 C   0  0  0  0  0  0  0  0  0  0  0  0
  -36.3857   62.5851   64.0344 C   0  0  0  0  0  0  0  0  0  0  0  0
  -37.2811   62.8476   62.8370 C   0  0  0  0  0  0  0  0  0  0  0  0
  -39.4147   59.7917   65.5054 H   0  0  0  0  0  0  0  0  0  0  0  0
  -34.8457   61.4446   64.5057 H   0  0  0  0  0  0  0  0  0  0  0  0
  -36.1971   64.6344   61.6771 O   0  0  0  0  0  0  0  0  0  0  0  0
  -36.2563   63.2432   61.7762 C   0  0  0  0  0  0  0  0  0  0  0  0
  -35.5455   64.8832   61.0029 H   0  0  0  0  0  0  0  0  0  0  0  0
  -36.2935   61.9032   66.2897 O   0  0  0  0  0  0  0  0  0  0  0  0
  -36.2696   62.8602   68.6981 O   0  0  0  0  0  0  0  0  0  0  0  0
  -36.2646   64.3798   66.8060 O   0  0  0  0  0  0  0  0  0  0  0  0
  -34.2525   63.1663   67.4005 O   0  0  0  0  0  0  0  0  0  0  0  0
  -35.7387   63.0865   67.3212 S   0  0  0  0  0  0  0  0  0  0  0  0
  -37.2376   62.8055   68.6664 H   0  0  0  0  0  0  0  0  0  0  0  0
  -33.9010   62.3266   67.7357 H   0  0  0  0  0  0  0  0  0  0  0  0
  2  1  1  0  0  0
  2  4  1  0  0  0
  2  5  1  0  0  0
 41 42  1  0  0  0
 41  1  1  0  0  0
 42 46  1  0  0  0
  1 24  1  0  0  0
 23 24  1  0  0  0
 23 25  1  0  0  0
 24 26  1  0  0  0
  3  4  2  0  0  0
 26 27  2  0  0  0
 27 28  1  0  0  0
 43 47  1  0  0  0
 43 51  1  0  0  0
 28 29  1  0  0  0
 56 48  1  0  0  0
 56 60  1  0  0  0
 29 30  1  0  0  0
 57 60  1  0  0  0
 57 61  1  0  0  0
 30 31  1  0  0  0
 44 49  1  0  0  0
 44 52  1  0  0  0
 31 32  1  0  0  0
 45 46  1  0  0  0
 45 50  1  0  0  0
 32 33  1  0  0  0
 53 54  1  0  0  0
 53 55  1  0  0  0
 33 34  1  0  0  0
 34 35  1  0  0  0
 35 36  1  0  0  0
 58 60  1  0  0  0
 36 37  1  0  0  0
 59 60  1  0  0  0
 59 62  1  0  0  0
 37 38  1  0  0  0
 38 39  1  0  0  0
 39 40  1  0  0  0
  4  6  1  0  0  0
  6  7  1  0  0  0
  7  8  1  0  0  0
  8  9  1  0  0  0
  9 10  1  0  0  0
 10 11  1  0  0  0
 11 12  1  0  0  0
 12 13  1  0  0  0
 13 14  1  0  0  0
 14 15  1  0  0  0
 15 16  1  0  0  0
 16 17  1  0  0  0
 17 18  1  0  0  0
 18 19  1  0  0  0
 19 20  1  0  0  0
 20 21  1  0  0  0
 21 22  1  0  0  0
 46 47  1  0  0  0
 47 48  1  0  0  0
 48 49  1  0  0  0
 49 50  1  0  0  0
 50 54  1  0  0  0
M  CHG 1  58  -1
M  END
> <minimizedAffinity>
-9.03040

> <CNNscore>
0.2038217336

> <CNNaffinity>
6.9478583336

> <CNN_VS>
1.4161245823

> <CNNaffinity_variance>
0.9976598024

$$$$
/media/chris/experiments/cd1a-new-docking/inputs/ligands/1onq_ligand.pdb


 62 62  0  0  0  0  0  0  0  0999 V2000
  -41.4187   60.6074   64.1048 C   0  0  0  0  0  0  0  0  0  0  0  0
  -42.1345   59.3517   64.2134 N   0  0  0  0  0  0  0  0  0  0  0  0
  -41.8916   58.8554   66.4139 O   0  0  0  0  0  0  0  0  0  0  0  0
  -42.3156   58.5954   65.3046 C   0  0  0  0  0  0  0  0  0  0  0  0
  -42.5378   59.0122   63.3819 H   0  0  0  0  0  0  0  0  0  0  0  0
  -43.1171   57.3460   65.0888 C   0  0  0  0  0  0  0  0  0  0  0  0
  -44.5486   57.7950   64.7946 C   0  0  0  0  0  0  0  0  0  0  0  0
  -45.3443   57.8858   66.0944 C   0  0  0  0  0  0  0  0  0  0  0  0
  -46.8307   58.1038   65.9484 C   0  0  0  0  0  0  0  0  0  0  0  0
  -47.0474   59.0081   64.7395 C   0  0  0  0  0  0  0  0  0  0  0  0
  -47.9815   60.1877   65.0412 C   0  0  0  0  0  0  0  0  0  0  0  0
  -49.0934   59.8696   66.0576 C   0  0  0  0  0  0  0  0  0  0  0  0
  -50.3641   59.2921   65.3962 C   0  0  0  0  0  0  0  0  0  0  0  0
  -50.9931   60.3173   64.4484 C   0  0  0  0  0  0  0  0  0  0  0  0
  -51.0988   59.8720   62.9948 C   0  0  0  0  0  0  0  0  0  0  0  0
  -50.6522   58.4308   62.7986 C   0  0  0  0  0  0  0  0  0  0  0  0
  -49.3678   58.2302   61.9912 C   0  0  0  0  0  0  0  0  0  0  0  0
  -49.4313   59.1305   60.7647 C   0  0  0  0  0  0  0  0  0  0  0  0
  -49.1122   58.5314   59.4029 C   0  0  0  0  0  0  0  0  0  0  0  0
  -48.0764   57.4029   59.5277 C   0  0  0  0  0  0  0  0  0  0  0  0
  -47.1348   57.2635   58.3173 C   0  0  0  0  0  0  0  0  0  0  0  0
  -47.2356   58.4291   57.3362 C   0  0  0  0  0  0  0  0  0  0  0  0
  -43.3331   61.2185   62.9398 O   0  0  0  0  0  0  0  0  0  0  0  0
  -41.9270   61.1653   62.7865 C   0  0  0  0  0  0  0  0  0  0  0  0
  -43.5563   61.8167   63.6700 H   0  0  0  0  0  0  0  0  0  0  0  0
  -41.5059   60.2350   61.6465 C   0  0  0  0  0  0  0  0  0  0  0  0
  -40.5220   60.5358   60.7818 C   0  0  0  0  0  0  0  0  0  0  0  0
  -40.1613   59.5537   59.6688 C   0  0  0  0  0  0  0  0  0  0  0  0
  -41.2624   58.5276   59.3642 C   0  0  0  0  0  0  0  0  0  0  0  0
  -40.9663   57.0819   59.8041 C   0  0  0  0  0  0  0  0  0  0  0  0
  -41.5479   56.8060   61.2116 C   0  0  0  0  0  0  0  0  0  0  0  0
  -40.5285   56.2929   62.2599 C   0  0  0  0  0  0  0  0  0  0  0  0
  -39.4635   57.3365   62.6716 C   0  0  0  0  0  0  0  0  0  0  0  0
  -38.1689   57.2615   61.8335 C   0  0  0  0  0  0  0  0  0  0  0  0
  -37.2816   58.5061   61.9545 C   0  0  0  0  0  0  0  0  0  0  0  0
  -36.3271   58.5368   63.1463 C   0  0  0  0  0  0  0  0  0  0  0  0
  -35.0656   57.6706   62.9603 C   0  0  0  0  0  0  0  0  0  0  0  0
  -33.8172   58.4264   62.4804 C   0  0  0  0  0  0  0  0  0  0  0  0
  -32.6695   58.2856   63.4843 C   0  0  0  0  0  0  0  0  0  0  0  0
  -33.0059   58.5660   64.9382 C   0  0  0  0  0  0  0  0  0  0  0  0
  -39.8860   60.5176   64.2833 C   0  0  0  0  0  0  0  0  0  0  0  0
  -39.1114   61.6508   63.8152 O   0  0  0  0  0  0  0  0  0  0  0  0
  -37.0380   62.2900   61.9526 O   0  0  0  0  0  0  0  0  0  0  0  0
  -35.6111   64.5862   65.1292 O   0  0  0  0  0  0  0  0  0  0  0  0
  -37.4754   62.2335   65.5092 O   0  0  0  0  0  0  0  0  0  0  0  0
  -37.6791   61.7881   64.1463 C   0  0  0  0  0  0  0  0  0  0  0  0
  -36.8695   62.7453   63.2597 C   0  0  0  0  0  0  0  0  0  0  0  0
  -35.3583   62.7572   63.5781 C   0  0  0  0  0  0  0  0  0  0  0  0
  -35.2328   63.2175   65.0041 C   0  0  0  0  0  0  0  0  0  0  0  0
  -36.0811   62.3377   65.9046 C   0  0  0  0  0  0  0  0  0  0  0  0
  -37.9830   62.2759   61.7344 H   0  0  0  0  0  0  0  0  0  0  0  0
  -35.0575   65.1292   64.5465 H   0  0  0  0  0  0  0  0  0  0  0  0
  -34.4578   63.2114   67.4261 O   0  0  0  0  0  0  0  0  0  0  0  0
  -35.8239   62.9693   67.2709 C   0  0  0  0  0  0  0  0  0  0  0  0
  -34.2971   63.6126   68.2945 H   0  0  0  0  0  0  0  0  0  0  0  0
  -34.5513   63.6624   62.7911 O   0  0  0  0  0  0  0  0  0  0  0  0
  -32.8742   61.7858   62.1729 O   0  0  0  0  0  0  0  0  0  0  0  0
  -32.0553   63.8451   63.1618 O   0  0  0  0  0  0  0  0  0  0  0  0
  -32.7660   63.8035   60.8449 O   0  0  0  0  0  0  0  0  0  0  0  0
  -33.0422   63.2688   62.2086 S   0  0  0  0  0  0  0  0  0  0  0  0
  -33.0502   61.4192   63.0535 H   0  0  0  0  0  0  0  0  0  0  0  0
  -33.4053   63.4327   60.2167 H   0  0  0  0  0  0  0  0  0  0  0  0
  2  1  1  0  0  0
  2  4  1  0  0  0
  2  5  1  0  0  0
 41 42  1  0  0  0
 41  1  1  0  0  0
 42 46  1  0  0  0
  1 24  1  0  0  0
 23 24  1  0  0  0
 23 25  1  0  0  0
 24 26  1  0  0  0
  3  4  2  0  0  0
 26 27  2  0  0  0
 27 28  1  0  0  0
 43 47  1  0  0  0
 43 51  1  0  0  0
 28 29  1  0  0  0
 56 48  1  0  0  0
 56 60  1  0  0  0
 29 30  1  0  0  0
 57 60  1  0  0  0
 57 61  1  0  0  0
 30 31  1  0  0  0
 44 49  1  0  0  0
 44 52  1  0  0  0
 31 32  1  0  0  0
 45 46  1  0  0  0
 45 50  1  0  0  0
 32 33  1  0  0  0
 53 54  1  0  0  0
 53 55  1  0  0  0
 33 34  1  0  0  0
 34 35  1  0  0  0
 35 36  1  0  0  0
 58 60  1  0  0  0
 36 37  1  0  0  0
 59 60  1  0  0  0
 59 62  1  0  0  0
 37 38  1  0  0  0
 38 39  1  0  0  0
 39 40  1  0  0  0
  4  6  1  0  0  0
  6  7  1  0  0  0
  7  8  1  0  0  0
  8  9  1  0  0  0
  9 10  1  0  0  0
 10 11  1  0  0  0
 11 12  1  0  0  0
 12 13  1  0  0  0
 13 14  1  0  0  0
 14 15  1  0  0  0
 15 16  1  0  0  0
 16 17  1  0  0  0
 17 18  1  0  0  0
 18 19  1  0  0  0
 19 20  1  0  0  0
 20 21  1  0  0  0
 21 22  1  0  0  0
 46 47  1  0  0  0
 47 48  1  0  0  0
 48 49  1  0  0  0
 49 50  1  0  0  0
 50 54  1  0  0  0
M  CHG 1  58  -1
M  END
> <minimizedAffinity>
-9.53954

> <CNNscore>
0.1969407350

> <CNNaffinity>
7.1925354004

> <CNN_VS>
1.4165031910

> <CNNaffinity_variance>
1.4810791016

$$$$
/media/chris/experiments/cd1a-new-docking/inputs/ligands/1onq_ligand.pdb


 62 62  0  0  0  0  0  0  0  0999 V2000
  -41.2972   60.0738   65.4960 C   0  0  0  0  0  0  0  0  0  0  0  0
  -41.5028   59.7628   64.0952 N   0  0  0  0  0  0  0  0  0  0  0  0
  -41.9497   61.8061   63.2160 O   0  0  0  0  0  0  0  0  0  0  0  0
  -41.8006   60.6055   63.0968 C   0  0  0  0  0  0  0  0  0  0  0  0
  -41.4126   58.8146   63.8465 H   0  0  0  0  0  0  0  0  0  0  0  0
  -41.9420   59.9690   61.7460 C   0  0  0  0  0  0  0  0  0  0  0  0
  -41.0540   60.7705   60.7941 C   0  0  0  0  0  0  0  0  0  0  0  0
  -40.4590   59.8470   59.7339 C   0  0  0  0  0  0  0  0  0  0  0  0
  -41.3263   58.6907   59.2990 C   0  0  0  0  0  0  0  0  0  0  0  0
  -40.5402   57.4071   59.5444 C   0  0  0  0  0  0  0  0  0  0  0  0
  -40.8725   56.7570   60.8942 C   0  0  0  0  0  0  0  0  0  0  0  0
  -39.7771   56.9241   61.9631 C   0  0  0  0  0  0  0  0  0  0  0  0
  -38.4492   57.4589   61.3834 C   0  0  0  0  0  0  0  0  0  0  0  0
  -37.4240   57.6820   62.4989 C   0  0  0  0  0  0  0  0  0  0  0  0
  -38.0171   57.9044   63.8849 C   0  0  0  0  0  0  0  0  0  0  0  0
  -36.9525   57.9261   64.9718 C   0  0  0  0  0  0  0  0  0  0  0  0
  -35.7483   58.8346   64.7137 C   0  0  0  0  0  0  0  0  0  0  0  0
  -34.5080   57.9588   64.5971 C   0  0  0  0  0  0  0  0  0  0  0  0
  -33.1455   58.5864   64.8519 C   0  0  0  0  0  0  0  0  0  0  0  0
  -32.2683   58.5267   63.5914 C   0  0  0  0  0  0  0  0  0  0  0  0
  -32.7632   59.4041   62.4268 C   0  0  0  0  0  0  0  0  0  0  0  0
  -32.1414   60.7986   62.4146 C   0  0  0  0  0  0  0  0  0  0  0  0
  -41.9854   61.8387   66.8403 O   0  0  0  0  0  0  0  0  0  0  0  0
  -42.4609   61.0004   65.8036 C   0  0  0  0  0  0  0  0  0  0  0  0
  -41.2227   62.3461   66.5216 H   0  0  0  0  0  0  0  0  0  0  0  0
  -43.6686   60.1690   66.2425 C   0  0  0  0  0  0  0  0  0  0  0  0
  -44.8602   60.2256   65.6234 C   0  0  0  0  0  0  0  0  0  0  0  0
  -46.0183   59.3640   66.1230 C   0  0  0  0  0  0  0  0  0  0  0  0
  -47.3912   59.7974   65.5887 C   0  0  0  0  0  0  0  0  0  0  0  0
  -47.3829   60.4894   64.2131 C   0  0  0  0  0  0  0  0  0  0  0  0
  -48.8154   60.9023   63.7972 C   0  0  0  0  0  0  0  0  0  0  0  0
  -49.9556   60.2714   64.6357 C   0  0  0  0  0  0  0  0  0  0  0  0
  -50.6506   59.0682   63.9560 C   0  0  0  0  0  0  0  0  0  0  0  0
  -50.7962   59.2222   62.4266 C   0  0  0  0  0  0  0  0  0  0  0  0
  -50.8448   57.8877   61.6730 C   0  0  0  0  0  0  0  0  0  0  0  0
  -50.4371   57.9322   60.2019 C   0  0  0  0  0  0  0  0  0  0  0  0
  -49.2650   58.8885   59.9059 C   0  0  0  0  0  0  0  0  0  0  0  0
  -48.2910   58.4133   58.8170 C   0  0  0  0  0  0  0  0  0  0  0  0
  -47.8632   56.9627   59.0571 C   0  0  0  0  0  0  0  0  0  0  0  0
  -47.1601   56.2666   57.9053 C   0  0  0  0  0  0  0  0  0  0  0  0
  -39.8836   60.5778   65.8655 C   0  0  0  0  0  0  0  0  0  0  0  0
  -39.1597   61.2928   64.8321 O   0  0  0  0  0  0  0  0  0  0  0  0
  -37.3855   61.4659   62.5961 O   0  0  0  0  0  0  0  0  0  0  0  0
  -35.5726   64.4102   64.9292 O   0  0  0  0  0  0  0  0  0  0  0  0
  -37.3130   62.2280   66.0973 O   0  0  0  0  0  0  0  0  0  0  0  0
  -37.6982   61.4855   64.9150 C   0  0  0  0  0  0  0  0  0  0  0  0
  -37.0433   62.2056   63.7274 C   0  0  0  0  0  0  0  0  0  0  0  0
  -35.5028   62.2725   63.8154 C   0  0  0  0  0  0  0  0  0  0  0  0
  -35.1863   63.0448   65.0663 C   0  0  0  0  0  0  0  0  0  0  0  0
  -35.8793   62.4038   66.2551 C   0  0  0  0  0  0  0  0  0  0  0  0
  -38.3514   61.4132   62.5243 H   0  0  0  0  0  0  0  0  0  0  0  0
  -35.1189   64.7994   64.1653 H   0  0  0  0  0  0  0  0  0  0  0  0
  -34.0507   63.3791   67.4460 O   0  0  0  0  0  0  0  0  0  0  0  0
  -35.4447   63.3276   67.3906 C   0  0  0  0  0  0  0  0  0  0  0  0
  -33.7773   63.9665   68.1679 H   0  0  0  0  0  0  0  0  0  0  0  0
  -34.8352   62.9648   62.7360 O   0  0  0  0  0  0  0  0  0  0  0  0
  -35.6871   63.9229   60.4836 O   0  0  0  0  0  0  0  0  0  0  0  0
  -34.5371   65.3806   62.0462 O   0  0  0  0  0  0  0  0  0  0  0  0
  -36.8210   64.6922   62.4758 O   0  0  0  0  0  0  0  0  0  0  0  0
  -35.5053   64.2567   61.9273 S   0  0  0  0  0  0  0  0  0  0  0  0
  -34.8395   63.6367   60.1087 H   0  0  0  0  0  0  0  0  0  0  0  0
  -37.4586   63.9649   62.4023 H   0  0  0  0  0  0  0  0  0  0  0  0
  2  1  1  0  0  0
  2  4  1  0  0  0
  2  5  1  0  0  0
 41 42  1  0  0  0
 41  1  1  0  0  0
 42 46  1  0  0  0
  1 24  1  0  0  0
 23 24  1  0  0  0
 23 25  1  0  0  0
 24 26  1  0  0  0
  3  4  2  0  0  0
 26 27  2  0  0  0
 27 28  1  0  0  0
 43 47  1  0  0  0
 43 51  1  0  0  0
 28 29  1  0  0  0
 56 48  1  0  0  0
 56 60  1  0  0  0
 29 30  1  0  0  0
 57 60  1  0  0  0
 57 61  1  0  0  0
 30 31  1  0  0  0
 44 49  1  0  0  0
 44 52  1  0  0  0
 31 32  1  0  0  0
 45 46  1  0  0  0
 45 50  1  0  0  0
 32 33  1  0  0  0
 53 54  1  0  0  0
 53 55  1  0  0  0
 33 34  1  0  0  0
 34 35  1  0  0  0
 35 36  1  0  0  0
 58 60  1  0  0  0
 36 37  1  0  0  0
 59 60  1  0  0  0
 59 62  1  0  0  0
 37 38  1  0  0  0
 38 39  1  0  0  0
 39 40  1  0  0  0
  4  6  1  0  0  0
  6  7  1  0  0  0
  7  8  1  0  0  0
  8  9  1  0  0  0
  9 10  1  0  0  0
 10 11  1  0  0  0
 11 12  1  0  0  0
 12 13  1  0  0  0
 13 14  1  0  0  0
 14 15  1  0  0  0
 15 16  1  0  0  0
 16 17  1  0  0  0
 17 18  1  0  0  0
 18 19  1  0  0  0
 19 20  1  0  0  0
 20 21  1  0  0  0
 21 22  1  0  0  0
 46 47  1  0  0  0
 47 48  1  0  0  0
 48 49  1  0  0  0
 49 50  1  0  0  0
 50 54  1  0  0  0
M  CHG 1  58  -1
M  END
> <minimizedAffinity>
-9.45047

> <CNNscore>
0.1727102101

> <CNNaffinity>
7.0608191490

> <CNN_VS>
1.2194755077

> <CNNaffinity_variance>
1.5610378981

$$$$
/media/chris/experiments/cd1a-new-docking/inputs/ligands/1onq_ligand.pdb


 62 62  0  0  0  0  0  0  0  0999 V2000
  -40.4562   60.4466   63.6789 C   0  0  0  0  0  0  0  0  0  0  0  0
  -41.8189   60.8872   63.9021 N   0  0  0  0  0  0  0  0  0  0  0  0
  -42.4722   61.4864   61.8136 O   0  0  0  0  0  0  0  0  0  0  0  0
  -42.6942   61.3547   63.0015 C   0  0  0  0  0  0  0  0  0  0  0  0
  -42.1416   60.8368   64.8308 H   0  0  0  0  0  0  0  0  0  0  0  0
  -44.0403   61.7222   63.5518 C   0  0  0  0  0  0  0  0  0  0  0  0
  -44.2809   60.8092   64.7542 C   0  0  0  0  0  0  0  0  0  0  0  0
  -45.6347   60.1161   64.6202 C   0  0  0  0  0  0  0  0  0  0  0  0
  -45.7004   58.6890   65.1073 C   0  0  0  0  0  0  0  0  0  0  0  0
  -46.7379   58.6304   66.2236 C   0  0  0  0  0  0  0  0  0  0  0  0
  -48.1774   58.5887   65.6935 C   0  0  0  0  0  0  0  0  0  0  0  0
  -49.0189   59.8275   66.0511 C   0  0  0  0  0  0  0  0  0  0  0  0
  -49.4720   60.6246   64.8082 C   0  0  0  0  0  0  0  0  0  0  0  0
  -50.9164   60.2744   64.4391 C   0  0  0  0  0  0  0  0  0  0  0  0
  -51.1768   60.0996   62.9479 C   0  0  0  0  0  0  0  0  0  0  0  0
  -49.9748   59.5212   62.2159 C   0  0  0  0  0  0  0  0  0  0  0  0
  -49.8319   57.9981   62.2591 C   0  0  0  0  0  0  0  0  0  0  0  0
  -50.2344   57.4438   60.8991 C   0  0  0  0  0  0  0  0  0  0  0  0
  -50.1068   58.3429   59.6782 C   0  0  0  0  0  0  0  0  0  0  0  0
  -48.7855   58.0810   58.9383 C   0  0  0  0  0  0  0  0  0  0  0  0
  -48.1872   56.6821   59.1753 C   0  0  0  0  0  0  0  0  0  0  0  0
  -47.0989   56.3123   58.1701 C   0  0  0  0  0  0  0  0  0  0  0  0
  -39.3813   61.1071   65.6293 O   0  0  0  0  0  0  0  0  0  0  0  0
  -40.0276   59.9835   65.0607 C   0  0  0  0  0  0  0  0  0  0  0  0
  -40.0109   61.8418   65.6978 H   0  0  0  0  0  0  0  0  0  0  0  0
  -39.0861   58.7846   64.9241 C   0  0  0  0  0  0  0  0  0  0  0  0
  -37.7516   58.8840   65.0488 C   0  0  0  0  0  0  0  0  0  0  0  0
  -36.8790   57.6395   64.8976 C   0  0  0  0  0  0  0  0  0  0  0  0
  -35.6984   57.8215   63.9327 C   0  0  0  0  0  0  0  0  0  0  0  0
  -35.9791   58.6898   62.6923 C   0  0  0  0  0  0  0  0  0  0  0  0
  -36.9996   57.9977   61.7568 C   0  0  0  0  0  0  0  0  0  0  0  0
  -38.0091   58.9460   61.0618 C   0  0  0  0  0  0  0  0  0  0  0  0
  -38.1073   58.7541   59.5301 C   0  0  0  0  0  0  0  0  0  0  0  0
  -39.5202   58.3624   59.0460 C   0  0  0  0  0  0  0  0  0  0  0  0
  -40.6510   59.0569   59.8141 C   0  0  0  0  0  0  0  0  0  0  0  0
  -41.6054   58.1409   60.5774 C   0  0  0  0  0  0  0  0  0  0  0  0
  -41.0152   56.7550   60.9045 C   0  0  0  0  0  0  0  0  0  0  0  0
  -40.5634   56.5626   62.3601 C   0  0  0  0  0  0  0  0  0  0  0  0
  -41.7354   56.1334   63.2474 C   0  0  0  0  0  0  0  0  0  0  0  0
  -42.3961   57.2262   64.0688 C   0  0  0  0  0  0  0  0  0  0  0  0
  -39.5367   61.4626   62.9639 C   0  0  0  0  0  0  0  0  0  0  0  0
  -38.1570   61.5126   63.4080 O   0  0  0  0  0  0  0  0  0  0  0  0
  -37.2378   62.6437   65.8683 O   0  0  0  0  0  0  0  0  0  0  0  0
  -33.9435   63.7088   63.5419 O   0  0  0  0  0  0  0  0  0  0  0  0
  -36.6657   63.1148   62.3619 O   0  0  0  0  0  0  0  0  0  0  0  0
  -37.4423   62.7976   63.5424 C   0  0  0  0  0  0  0  0  0  0  0  0
  -36.4772   62.9127   64.7311 C   0  0  0  0  0  0  0  0  0  0  0  0
  -35.8503   64.3155   64.8876 C   0  0  0  0  0  0  0  0  0  0  0  0
  -35.0745   64.5725   63.6253 C   0  0  0  0  0  0  0  0  0  0  0  0
  -35.9804   64.3948   62.4203 C   0  0  0  0  0  0  0  0  0  0  0  0
  -37.6400   61.7647   65.7877 H   0  0  0  0  0  0  0  0  0  0  0  0
  -33.3794   63.8387   64.3202 H   0  0  0  0  0  0  0  0  0  0  0  0
  -34.3634   63.5069   60.9005 O   0  0  0  0  0  0  0  0  0  0  0  0
  -35.0150   64.6840   61.2730 C   0  0  0  0  0  0  0  0  0  0  0  0
  -33.7509   63.6931   60.1717 H   0  0  0  0  0  0  0  0  0  0  0  0
  -34.9113   64.4729   65.9755 O   0  0  0  0  0  0  0  0  0  0  0  0
  -33.2459   63.5873   67.7528 O   0  0  0  0  0  0  0  0  0  0  0  0
  -34.2101   62.0479   66.1436 O   0  0  0  0  0  0  0  0  0  0  0  0
  -35.5456   62.8783   67.9879 O   0  0  0  0  0  0  0  0  0  0  0  0
  -34.4860   63.2324   67.0012 S   0  0  0  0  0  0  0  0  0  0  0  0
  -32.5436   63.8211   67.1259 H   0  0  0  0  0  0  0  0  0  0  0  0
  -35.7318   63.6455   68.5515 H   0  0  0  0  0  0  0  0  0  0  0  0
  2  1  1  0  0  0
  2  4  1  0  0  0
  2  5  1  0  0  0
 41 42  1  0  0  0
 41  1  1  0  0  0
 42 46  1  0  0  0
  1 24  1  0  0  0
 23 24  1  0  0  0
 23 25  1  0  0  0
 24 26  1  0  0  0
  3  4  2  0  0  0
 26 27  2  0  0  0
 27 28  1  0  0  0
 43 47  1  0  0  0
 43 51  1  0  0  0
 28 29  1  0  0  0
 56 48  1  0  0  0
 56 60  1  0  0  0
 29 30  1  0  0  0
 57 60  1  0  0  0
 57 61  1  0  0  0
 30 31  1  0  0  0
 44 49  1  0  0  0
 44 52  1  0  0  0
 31 32  1  0  0  0
 45 46  1  0  0  0
 45 50  1  0  0  0
 32 33  1  0  0  0
 53 54  1  0  0  0
 53 55  1  0  0  0
 33 34  1  0  0  0
 34 35  1  0  0  0
 35 36  1  0  0  0
 58 60  1  0  0  0
 36 37  1  0  0  0
 59 60  1  0  0  0
 59 62  1  0  0  0
 37 38  1  0  0  0
 38 39  1  0  0  0
 39 40  1  0  0  0
  4  6  1  0  0  0
  6  7  1  0  0  0
  7  8  1  0  0  0
  8  9  1  0  0  0
  9 10  1  0  0  0
 10 11  1  0  0  0
 11 12  1  0  0  0
 12 13  1  0  0  0
 13 14  1  0  0  0
 14 15  1  0  0  0
 15 16  1  0  0  0
 16 17  1  0  0  0
 17 18  1  0  0  0
 18 19  1  0  0  0
 19 20  1  0  0  0
 20 21  1  0  0  0
 21 22  1  0  0  0
 46 47  1  0  0  0
 47 48  1  0  0  0
 48 49  1  0  0  0
 49 50  1  0  0  0
 50 54  1  0  0  0
M  CHG 1  58  -1
M  END
> <minimizedAffinity>
-9.55986

> <CNNscore>
0.1482523680

> <CNNaffinity>
7.0284819603

> <CNN_VS>
1.0419890881

> <CNNaffinity_variance>
1.4310925007

$$$$
/media/chris/experiments/cd1a-new-docking/inputs/ligands/1onq_ligand.pdb


 62 62  0  0  0  0  0  0  0  0999 V2000
  -41.6276   59.5531   63.6279 C   0  0  0  0  0  0  0  0  0  0  0  0
  -42.4118   59.8592   64.8079 N   0  0  0  0  0  0  0  0  0  0  0  0
  -44.3234   60.6845   63.9067 O   0  0  0  0  0  0  0  0  0  0  0  0
  -43.6456   60.3785   64.8683 C   0  0  0  0  0  0  0  0  0  0  0  0
  -41.9848   59.6610   65.6726 H   0  0  0  0  0  0  0  0  0  0  0  0
  -44.1900   60.5695   66.2529 C   0  0  0  0  0  0  0  0  0  0  0  0
  -45.2639   59.4990   66.4478 C   0  0  0  0  0  0  0  0  0  0  0  0
  -46.5799   59.9614   65.8272 C   0  0  0  0  0  0  0  0  0  0  0  0
  -47.8247   59.2576   66.3105 C   0  0  0  0  0  0  0  0  0  0  0  0
  -48.9919   60.2267   66.1549 C   0  0  0  0  0  0  0  0  0  0  0  0
  -50.2896   59.5282   65.7267 C   0  0  0  0  0  0  0  0  0  0  0  0
  -51.1774   60.3646   64.7872 C   0  0  0  0  0  0  0  0  0  0  0  0
  -51.1776   59.8383   63.3351 C   0  0  0  0  0  0  0  0  0  0  0  0
  -50.3797   58.5352   63.2328 C   0  0  0  0  0  0  0  0  0  0  0  0
  -49.1956   58.5776   62.2745 C   0  0  0  0  0  0  0  0  0  0  0  0
  -49.4727   59.4401   61.0521 C   0  0  0  0  0  0  0  0  0  0  0  0
  -49.7443   58.6876   59.7474 C   0  0  0  0  0  0  0  0  0  0  0  0
  -49.6635   57.1942   60.0338 C   0  0  0  0  0  0  0  0  0  0  0  0
  -48.5897   56.3744   59.3338 C   0  0  0  0  0  0  0  0  0  0  0  0
  -47.3251   57.2144   59.0946 C   0  0  0  0  0  0  0  0  0  0  0  0
  -46.8516   57.2530   57.6299 C   0  0  0  0  0  0  0  0  0  0  0  0
  -47.9734   57.5592   56.6403 C   0  0  0  0  0  0  0  0  0  0  0  0
  -40.3193   58.0496   64.8211 O   0  0  0  0  0  0  0  0  0  0  0  0
  -41.3127   58.0787   63.8131 C   0  0  0  0  0  0  0  0  0  0  0  0
  -40.6786   58.4253   65.6400 H   0  0  0  0  0  0  0  0  0  0  0  0
  -40.8087   57.4979   62.4898 C   0  0  0  0  0  0  0  0  0  0  0  0
  -41.4817   57.6208   61.3330 C   0  0  0  0  0  0  0  0  0  0  0  0
  -40.9119   57.0114   60.0534 C   0  0  0  0  0  0  0  0  0  0  0  0
  -40.5824   58.0444   58.9660 C   0  0  0  0  0  0  0  0  0  0  0  0
  -39.1188   58.5210   58.9210 C   0  0  0  0  0  0  0  0  0  0  0  0
  -38.9128   59.7498   59.8393 C   0  0  0  0  0  0  0  0  0  0  0  0
  -37.9212   59.5409   61.0116 C   0  0  0  0  0  0  0  0  0  0  0  0
  -37.4917   58.0701   61.2238 C   0  0  0  0  0  0  0  0  0  0  0  0
  -37.1882   57.7218   62.6971 C   0  0  0  0  0  0  0  0  0  0  0  0
  -36.0946   58.5937   63.3255 C   0  0  0  0  0  0  0  0  0  0  0  0
  -35.1591   57.8927   64.3082 C   0  0  0  0  0  0  0  0  0  0  0  0
  -33.8176   58.6208   64.5231 C   0  0  0  0  0  0  0  0  0  0  0  0
  -32.7348   58.3212   63.4753 C   0  0  0  0  0  0  0  0  0  0  0  0
  -32.6446   59.4465   62.4406 C   0  0  0  0  0  0  0  0  0  0  0  0
  -31.4530   60.3799   62.5602 C   0  0  0  0  0  0  0  0  0  0  0  0
  -40.4330   60.4964   63.3594 C   0  0  0  0  0  0  0  0  0  0  0  0
  -39.3465   60.4558   64.3191 O   0  0  0  0  0  0  0  0  0  0  0  0
  -37.6383   60.9352   66.5617 O   0  0  0  0  0  0  0  0  0  0  0  0
  -34.8965   61.9593   63.5898 O   0  0  0  0  0  0  0  0  0  0  0  0
  -37.8898   62.0042   63.1502 O   0  0  0  0  0  0  0  0  0  0  0  0
  -38.3894   61.5737   64.4396 C   0  0  0  0  0  0  0  0  0  0  0  0
  -37.1521   61.3128   65.3107 C   0  0  0  0  0  0  0  0  0  0  0  0
  -36.2504   62.5530   65.4948 C   0  0  0  0  0  0  0  0  0  0  0  0
  -35.7837   62.9415   64.1191 C   0  0  0  0  0  0  0  0  0  0  0  0
  -36.9809   63.1365   63.2064 C   0  0  0  0  0  0  0  0  0  0  0  0
  -38.2079   60.1560   66.4656 H   0  0  0  0  0  0  0  0  0  0  0  0
  -34.1403   61.8509   64.1875 H   0  0  0  0  0  0  0  0  0  0  0  0
  -36.0124   64.8726   61.8793 O   0  0  0  0  0  0  0  0  0  0  0  0
  -36.2991   63.5064   61.8910 C   0  0  0  0  0  0  0  0  0  0  0  0
  -35.5794   65.1050   61.0429 H   0  0  0  0  0  0  0  0  0  0  0  0
  -35.0552   62.3568   66.2841 O   0  0  0  0  0  0  0  0  0  0  0  0
  -34.8261   64.8194   67.0588 O   0  0  0  0  0  0  0  0  0  0  0  0
  -33.1831   63.8855   65.5366 O   0  0  0  0  0  0  0  0  0  0  0  0
  -33.1580   63.2746   67.8820 O   0  0  0  0  0  0  0  0  0  0  0  0
  -34.0360   63.5984   66.7218 S   0  0  0  0  0  0  0  0  0  0  0  0
  -35.4047   65.0460   66.3139 H   0  0  0  0  0  0  0  0  0  0  0  0
  -33.7063   63.0859   68.6596 H   0  0  0  0  0  0  0  0  0  0  0  0
  2  1  1  0  0  0
  2  4  1  0  0  0
  2  5  1  0  0  0
 41 42  1  0  0  0
 41  1  1  0  0  0
 42 46  1  0  0  0
  1 24  1  0  0  0
 23 24  1  0  0  0
 23 25  1  0  0  0
 24 26  1  0  0  0
  3  4  2  0  0  0
 26 27  2  0  0  0
 27 28  1  0  0  0
 43 47  1  0  0  0
 43 51  1  0  0  0
 28 29  1  0  0  0
 56 48  1  0  0  0
 56 60  1  0  0  0
 29 30  1  0  0  0
 57 60  1  0  0  0
 57 61  1  0  0  0
 30 31  1  0  0  0
 44 49  1  0  0  0
 44 52  1  0  0  0
 31 32  1  0  0  0
 45 46  1  0  0  0
 45 50  1  0  0  0
 32 33  1  0  0  0
 53 54  1  0  0  0
 53 55  1  0  0  0
 33 34  1  0  0  0
 34 35  1  0  0  0
 35 36  1  0  0  0
 58 60  1  0  0  0
 36 37  1  0  0  0
 59 60  1  0  0  0
 59 62  1  0  0  0
 37 38  1  0  0  0
 38 39  1  0  0  0
 39 40  1  0  0  0
  4  6  1  0  0  0
  6  7  1  0  0  0
  7  8  1  0  0  0
  8  9  1  0  0  0
  9 10  1  0  0  0
 10 11  1  0  0  0
 11 12  1  0  0  0
 12 13  1  0  0  0
 13 14  1  0  0  0
 14 15  1  0  0  0
 15 16  1  0  0  0
 16 17  1  0  0  0
 17 18  1  0  0  0
 18 19  1  0  0  0
 19 20  1  0  0  0
 20 21  1  0  0  0
 21 22  1  0  0  0
 46 47  1  0  0  0
 47 48  1  0  0  0
 48 49  1  0  0  0
 49 50  1  0  0  0
 50 54  1  0  0  0
M  CHG 1  58  -1
M  END
> <minimizedAffinity>
-9.21410

> <CNNscore>
0.1428436935

> <CNNaffinity>
6.8190140724

> <CNN_VS>
0.9740531445

> <CNNaffinity_variance>
1.2711523771

$$$$
/media/chris/experiments/cd1a-new-docking/inputs/ligands/1onq_ligand.pdb


 62 62  0  0  0  0  0  0  0  0999 V2000
  -39.8677   58.6924   64.7299 C   0  0  0  0  0  0  0  0  0  0  0  0
  -40.8038   59.4163   65.5671 N   0  0  0  0  0  0  0  0  0  0  0  0
  -40.5675   61.5434   64.8141 O   0  0  0  0  0  0  0  0  0  0  0  0
  -41.0793   60.7276   65.5560 C   0  0  0  0  0  0  0  0  0  0  0  0
  -41.2987   58.8774   66.2259 H   0  0  0  0  0  0  0  0  0  0  0  0
  -42.1118   61.1707   66.5497 C   0  0  0  0  0  0  0  0  0  0  0  0
  -43.4700   60.7799   65.9668 C   0  0  0  0  0  0  0  0  0  0  0  0
  -43.7934   61.6603   64.7621 C   0  0  0  0  0  0  0  0  0  0  0  0
  -43.6302   61.0161   63.4068 C   0  0  0  0  0  0  0  0  0  0  0  0
  -42.9624   62.0352   62.4896 C   0  0  0  0  0  0  0  0  0  0  0  0
  -42.1984   61.3794   61.3314 C   0  0  0  0  0  0  0  0  0  0  0  0
  -41.2515   60.2441   61.7611 C   0  0  0  0  0  0  0  0  0  0  0  0
  -41.6860   58.8635   61.2221 C   0  0  0  0  0  0  0  0  0  0  0  0
  -41.3221   58.7230   59.7412 C   0  0  0  0  0  0  0  0  0  0  0  0
  -40.0587   57.9184   59.4610 C   0  0  0  0  0  0  0  0  0  0  0  0
  -38.8916   58.8020   59.0458 C   0  0  0  0  0  0  0  0  0  0  0  0
  -37.6387   58.7137   59.9202 C   0  0  0  0  0  0  0  0  0  0  0  0
  -38.0636   58.2860   61.3185 C   0  0  0  0  0  0  0  0  0  0  0  0
  -37.0721   57.5166   62.1787 C   0  0  0  0  0  0  0  0  0  0  0  0
  -35.8124   58.3546   62.4490 C   0  0  0  0  0  0  0  0  0  0  0  0
  -34.7490   57.6494   63.3109 C   0  0  0  0  0  0  0  0  0  0  0  0
  -33.8655   58.6186   64.0929 C   0  0  0  0  0  0  0  0  0  0  0  0
  -40.5321   56.9690   63.3212 O   0  0  0  0  0  0  0  0  0  0  0  0
  -40.4647   57.2959   64.6968 C   0  0  0  0  0  0  0  0  0  0  0  0
  -39.6378   56.9646   62.9457 H   0  0  0  0  0  0  0  0  0  0  0  0
  -41.8475   57.3201   65.3522 C   0  0  0  0  0  0  0  0  0  0  0  0
  -42.9895   57.1810   64.6573 C   0  0  0  0  0  0  0  0  0  0  0  0
  -44.3318   57.2174   65.3854 C   0  0  0  0  0  0  0  0  0  0  0  0
  -45.3216   58.2428   64.8136 C   0  0  0  0  0  0  0  0  0  0  0  0
  -46.6378   58.4065   65.5959 C   0  0  0  0  0  0  0  0  0  0  0  0
  -47.7599   58.9459   64.6763 C   0  0  0  0  0  0  0  0  0  0  0  0
  -49.1262   58.2267   64.8079 C   0  0  0  0  0  0  0  0  0  0  0  0
  -50.3241   59.0369   64.2589 C   0  0  0  0  0  0  0  0  0  0  0  0
  -50.5951   58.7982   62.7577 C   0  0  0  0  0  0  0  0  0  0  0  0
  -49.8923   59.8020   61.8359 C   0  0  0  0  0  0  0  0  0  0  0  0
  -49.4008   59.2543   60.4976 C   0  0  0  0  0  0  0  0  0  0  0  0
  -48.9457   57.7826   60.5528 C   0  0  0  0  0  0  0  0  0  0  0  0
  -48.1669   57.2915   59.3230 C   0  0  0  0  0  0  0  0  0  0  0  0
  -47.9330   58.4323   58.3287 C   0  0  0  0  0  0  0  0  0  0  0  0
  -46.9323   58.1656   57.2182 C   0  0  0  0  0  0  0  0  0  0  0  0
  -38.3815   58.8096   65.1376 C   0  0  0  0  0  0  0  0  0  0  0  0
  -37.9610   60.0799   65.6967 O   0  0  0  0  0  0  0  0  0  0  0  0
  -38.2840   61.6840   63.3516 O   0  0  0  0  0  0  0  0  0  0  0  0
  -35.8025   64.3072   65.4396 O   0  0  0  0  0  0  0  0  0  0  0  0
  -35.9118   61.3388   66.0158 O   0  0  0  0  0  0  0  0  0  0  0  0
  -36.8988   60.8830   65.0589 C   0  0  0  0  0  0  0  0  0  0  0  0
  -37.3623   62.1328   64.2966 C   0  0  0  0  0  0  0  0  0  0  0  0
  -36.2230   62.8644   63.5537 C   0  0  0  0  0  0  0  0  0  0  0  0
  -35.2412   63.2941   64.6086 C   0  0  0  0  0  0  0  0  0  0  0  0
  -34.8149   62.0931   65.4334 C   0  0  0  0  0  0  0  0  0  0  0  0
  -39.0084   61.2211   63.8008 H   0  0  0  0  0  0  0  0  0  0  0  0
  -36.0673   65.0636   64.8931 H   0  0  0  0  0  0  0  0  0  0  0  0
  -34.5460   63.1127   67.5785 O   0  0  0  0  0  0  0  0  0  0  0  0
  -33.8511   62.7376   66.4272 C   0  0  0  0  0  0  0  0  0  0  0  0
  -33.9318   63.5216   68.2081 H   0  0  0  0  0  0  0  0  0  0  0  0
  -36.5986   64.0650   62.8414 O   0  0  0  0  0  0  0  0  0  0  0  0
  -34.3315   65.0999   62.1300 O   0  0  0  0  0  0  0  0  0  0  0  0
  -36.3909   65.9560   61.1736 O   0  0  0  0  0  0  0  0  0  0  0  0
  -35.5041   63.8209   60.4461 O   0  0  0  0  0  0  0  0  0  0  0  0
  -35.6827   64.7249   61.6177 S   0  0  0  0  0  0  0  0  0  0  0  0
  -34.4276   65.6894   62.8943 H   0  0  0  0  0  0  0  0  0  0  0  0
  -35.0428   63.0151   60.7269 H   0  0  0  0  0  0  0  0  0  0  0  0
  2  1  1  0  0  0
  2  4  1  0  0  0
  2  5  1  0  0  0
 41 42  1  0  0  0
 41  1  1  0  0  0
 42 46  1  0  0  0
  1 24  1  0  0  0
 23 24  1  0  0  0
 23 25  1  0  0  0
 24 26  1  0  0  0
  3  4  2  0  0  0
 26 27  2  0  0  0
 27 28  1  0  0  0
 43 47  1  0  0  0
 43 51  1  0  0  0
 28 29  1  0  0  0
 56 48  1  0  0  0
 56 60  1  0  0  0
 29 30  1  0  0  0
 57 60  1  0  0  0
 57 61  1  0  0  0
 30 31  1  0  0  0
 44 49  1  0  0  0
 44 52  1  0  0  0
 31 32  1  0  0  0
 45 46  1  0  0  0
 45 50  1  0  0  0
 32 33  1  0  0  0
 53 54  1  0  0  0
 53 55  1  0  0  0
 33 34  1  0  0  0
 34 35  1  0  0  0
 35 36  1  0  0  0
 58 60  1  0  0  0
 36 37  1  0  0  0
 59 60  1  0  0  0
 59 62  1  0  0  0
 37 38  1  0  0  0
 38 39  1  0  0  0
 39 40  1  0  0  0
  4  6  1  0  0  0
  6  7  1  0  0  0
  7  8  1  0  0  0
  8  9  1  0  0  0
  9 10  1  0  0  0
 10 11  1  0  0  0
 11 12  1  0  0  0
 12 13  1  0  0  0
 13 14  1  0  0  0
 14 15  1  0  0  0
 15 16  1  0  0  0
 16 17  1  0  0  0
 17 18  1  0  0  0
 18 19  1  0  0  0
 19 20  1  0  0  0
 20 21  1  0  0  0
 21 22  1  0  0  0
 46 47  1  0  0  0
 47 48  1  0  0  0
 48 49  1  0  0  0
 49 50  1  0  0  0
 50 54  1  0  0  0
M  CHG 1  58  -1
M  END
> <minimizedAffinity>
-8.81186

> <CNNscore>
0.1272422522

> <CNNaffinity>
7.1073279381

> <CNN_VS>
0.9043524265

> <CNNaffinity_variance>
1.9114872217

$$$$
