/media/chris/experiments/cd1a-new-docking/inputs/ligands/1onq_ligand.pdb


 62 62  0  0  0  0  0  0  0  0999 V2000
  -41.5533   59.9111   65.4247 C   0  0  0  0  0  0  0  0  0  0  0  0
  -41.4555   58.5806   64.8579 N   0  0  0  0  0  0  0  0  0  0  0  0
  -42.8748   57.3981   66.1749 O   0  0  0  0  0  0  0  0  0  0  0  0
  -42.0899   57.4670   65.2492 C   0  0  0  0  0  0  0  0  0  0  0  0
  -40.8474   58.4830   64.0898 H   0  0  0  0  0  0  0  0  0  0  0  0
  -41.7786   56.2398   64.4451 C   0  0  0  0  0  0  0  0  0  0  0  0
  -41.0994   56.7224   63.1632 C   0  0  0  0  0  0  0  0  0  0  0  0
  -41.2609   55.6770   62.0622 C   0  0  0  0  0  0  0  0  0  0  0  0
  -41.4694   56.2110   60.6658 C   0  0  0  0  0  0  0  0  0  0  0  0
  -41.6582   57.7206   60.7733 C   0  0  0  0  0  0  0  0  0  0  0  0
  -41.0645   58.4790   59.5786 C   0  0  0  0  0  0  0  0  0  0  0  0
  -39.6169   58.0833   59.2346 C   0  0  0  0  0  0  0  0  0  0  0  0
  -38.5894   59.1694   59.6217 C   0  0  0  0  0  0  0  0  0  0  0  0
  -37.5490   58.6064   60.5940 C   0  0  0  0  0  0  0  0  0  0  0  0
  -38.0810   57.5755   61.5821 C   0  0  0  0  0  0  0  0  0  0  0  0
  -37.4382   57.7063   62.9550 C   0  0  0  0  0  0  0  0  0  0  0  0
  -35.9311   57.9720   62.9679 C   0  0  0  0  0  0  0  0  0  0  0  0
  -35.5670   58.5820   64.3147 C   0  0  0  0  0  0  0  0  0  0  0  0
  -34.2005   59.2317   64.4755 C   0  0  0  0  0  0  0  0  0  0  0  0
  -33.1834   58.6221   63.4978 C   0  0  0  0  0  0  0  0  0  0  0  0
  -32.6335   59.6084   62.4509 C   0  0  0  0  0  0  0  0  0  0  0  0
  -31.1397   59.8834   62.6064 C   0  0  0  0  0  0  0  0  0  0  0  0
  -42.0216   61.8854   64.2938 O   0  0  0  0  0  0  0  0  0  0  0  0
  -42.5528   60.5903   64.5044 C   0  0  0  0  0  0  0  0  0  0  0  0
  -41.1564   61.8134   63.8611 H   0  0  0  0  0  0  0  0  0  0  0  0
  -43.9223   60.6328   65.1864 C   0  0  0  0  0  0  0  0  0  0  0  0
  -44.9715   59.9048   64.7676 C   0  0  0  0  0  0  0  0  0  0  0  0
  -46.3072   60.0034   65.5020 C   0  0  0  0  0  0  0  0  0  0  0  0
  -47.5203   59.6267   64.6392 C   0  0  0  0  0  0  0  0  0  0  0  0
  -48.6608   60.6608   64.6050 C   0  0  0  0  0  0  0  0  0  0  0  0
  -49.9796   60.0416   65.1270 C   0  0  0  0  0  0  0  0  0  0  0  0
  -51.2400   60.3614   64.2840 C   0  0  0  0  0  0  0  0  0  0  0  0
  -51.1748   59.8465   62.8268 C   0  0  0  0  0  0  0  0  0  0  0  0
  -50.7425   58.3686   62.7128 C   0  0  0  0  0  0  0  0  0  0  0  0
  -49.5543   58.1434   61.7702 C   0  0  0  0  0  0  0  0  0  0  0  0
  -49.4416   59.1064   60.5901 C   0  0  0  0  0  0  0  0  0  0  0  0
  -49.4195   58.4108   59.2147 C   0  0  0  0  0  0  0  0  0  0  0  0
  -48.0541   58.3954   58.5107 C   0  0  0  0  0  0  0  0  0  0  0  0
  -47.3577   57.0434   58.6911 C   0  0  0  0  0  0  0  0  0  0  0  0
  -47.2152   56.1860   57.4461 C   0  0  0  0  0  0  0  0  0  0  0  0
  -40.2083   60.6367   65.6559 C   0  0  0  0  0  0  0  0  0  0  0  0
  -39.4036   60.9011   64.4787 O   0  0  0  0  0  0  0  0  0  0  0  0
  -37.6651   61.4782   62.2829 O   0  0  0  0  0  0  0  0  0  0  0  0
  -36.3433   64.5234   64.8086 O   0  0  0  0  0  0  0  0  0  0  0  0
  -37.7314   62.0334   65.8229 O   0  0  0  0  0  0  0  0  0  0  0  0
  -37.9901   61.3119   64.5941 C   0  0  0  0  0  0  0  0  0  0  0  0
  -37.4479   62.1935   63.4599 C   0  0  0  0  0  0  0  0  0  0  0  0
  -35.9369   62.4920   63.5744 C   0  0  0  0  0  0  0  0  0  0  0  0
  -35.7510   63.2283   64.8723 C   0  0  0  0  0  0  0  0  0  0  0  0
  -36.3431   62.4187   66.0117 C   0  0  0  0  0  0  0  0  0  0  0  0
  -38.6107   61.2815   62.1940 H   0  0  0  0  0  0  0  0  0  0  0  0
  -35.9511   65.0226   64.0751 H   0  0  0  0  0  0  0  0  0  0  0  0
  -36.3787   62.6610   68.3894 O   0  0  0  0  0  0  0  0  0  0  0  0
  -36.0633   63.3295   67.2051 C   0  0  0  0  0  0  0  0  0  0  0  0
  -36.2001   63.2416   69.1458 H   0  0  0  0  0  0  0  0  0  0  0  0
  -35.3785   63.3417   62.5468 O   0  0  0  0  0  0  0  0  0  0  0  0
  -33.5527   65.1762   62.6808 O   0  0  0  0  0  0  0  0  0  0  0  0
  -33.3252   63.3763   61.0691 O   0  0  0  0  0  0  0  0  0  0  0  0
  -32.9111   62.9659   63.4215 O   0  0  0  0  0  0  0  0  0  0  0  0
  -33.7589   63.7155   62.4516 S   0  0  0  0  0  0  0  0  0  0  0  0
  -34.0977   65.6814   62.0572 H   0  0  0  0  0  0  0  0  0  0  0  0
  -33.1873   63.1813   64.3261 H   0  0  0  0  0  0  0  0  0  0  0  0
  2  1  1  0  0  0
  2  4  1  0  0  0
  2  5  1  0  0  0
 41 42  1  0  0  0
 41  1  1  0  0  0
 42 46  1  0  0  0
  1 24  1  0  0  0
 23 24  1  0  0  0
 23 25  1  0  0  0
 24 26  1  0  0  0
  3  4  2  0  0  0
 26 27  2  0  0  0
 27 28  1  0  0  0
 43 47  1  0  0  0
 43 51  1  0  0  0
 28 29  1  0  0  0
 56 48  1  0  0  0
 56 60  1  0  0  0
 29 30  1  0  0  0
 57 60  1  0  0  0
 57 61  1  0  0  0
 30 31  1  0  0  0
 44 49  1  0  0  0
 44 52  1  0  0  0
 31 32  1  0  0  0
 45 46  1  0  0  0
 45 50  1  0  0  0
 32 33  1  0  0  0
 53 54  1  0  0  0
 53 55  1  0  0  0
 33 34  1  0  0  0
 34 35  1  0  0  0
 35 36  1  0  0  0
 58 60  1  0  0  0
 36 37  1  0  0  0
 59 60  1  0  0  0
 59 62  1  0  0  0
 37 38  1  0  0  0
 38 39  1  0  0  0
 39 40  1  0  0  0
  4  6  1  0  0  0
  6  7  1  0  0  0
  7  8  1  0  0  0
  8  9  1  0  0  0
  9 10  1  0  0  0
 10 11  1  0  0  0
 11 12  1  0  0  0
 12 13  1  0  0  0
 13 14  1  0  0  0
 14 15  1  0  0  0
 15 16  1  0  0  0
 16 17  1  0  0  0
 17 18  1  0  0  0
 18 19  1  0  0  0
 19 20  1  0  0  0
 20 21  1  0  0  0
 21 22  1  0  0  0
 46 47  1  0  0  0
 47 48  1  0  0  0
 48 49  1  0  0  0
 49 50  1  0  0  0
 50 54  1  0  0  0
M  CHG 1  58  -1
M  END
> <minimizedAffinity>
-9.96443

> <CNNscore>
0.4795759320

> <CNNaffinity>
7.2868375778

> <CNN_VS>
3.4945919514

> <CNNaffinity_variance>
2.1763947010

$$$$
/media/chris/experiments/cd1a-new-docking/inputs/ligands/1onq_ligand.pdb


 62 62  0  0  0  0  0  0  0  0999 V2000
  -40.1552   60.2268   63.9915 C   0  0  0  0  0  0  0  0  0  0  0  0
  -41.4340   60.8343   64.3024 N   0  0  0  0  0  0  0  0  0  0  0  0
  -42.7320   60.1123   62.5874 O   0  0  0  0  0  0  0  0  0  0  0  0
  -42.5811   60.7427   63.6158 C   0  0  0  0  0  0  0  0  0  0  0  0
  -41.4635   61.3824   65.1197 H   0  0  0  0  0  0  0  0  0  0  0  0
  -43.7403   61.4876   64.2085 C   0  0  0  0  0  0  0  0  0  0  0  0
  -44.2833   60.6148   65.3401 C   0  0  0  0  0  0  0  0  0  0  0  0
  -45.6399   60.0352   64.9467 C   0  0  0  0  0  0  0  0  0  0  0  0
  -46.0810   58.8062   65.7040 C   0  0  0  0  0  0  0  0  0  0  0  0
  -47.1405   59.2412   66.7111 C   0  0  0  0  0  0  0  0  0  0  0  0
  -48.1501   60.2334   66.1185 C   0  0  0  0  0  0  0  0  0  0  0  0
  -49.5937   59.7023   66.0515 C   0  0  0  0  0  0  0  0  0  0  0  0
  -49.6983   58.3360   65.3389 C   0  0  0  0  0  0  0  0  0  0  0  0
  -49.3835   58.4796   63.8471 C   0  0  0  0  0  0  0  0  0  0  0  0
  -50.3850   59.3098   63.0536 C   0  0  0  0  0  0  0  0  0  0  0  0
  -51.2341   58.4561   62.1234 C   0  0  0  0  0  0  0  0  0  0  0  0
  -50.4780   57.7039   61.0258 C   0  0  0  0  0  0  0  0  0  0  0  0
  -49.5799   58.6969   60.3006 C   0  0  0  0  0  0  0  0  0  0  0  0
  -49.0108   58.3095   58.9436 C   0  0  0  0  0  0  0  0  0  0  0  0
  -48.0546   57.1129   59.0697 C   0  0  0  0  0  0  0  0  0  0  0  0
  -46.8498   57.1545   58.1116 C   0  0  0  0  0  0  0  0  0  0  0  0
  -46.9767   58.2225   57.0278 C   0  0  0  0  0  0  0  0  0  0  0  0
  -39.6440   61.1175   66.0751 O   0  0  0  0  0  0  0  0  0  0  0  0
  -39.6045   59.8924   65.3671 C   0  0  0  0  0  0  0  0  0  0  0  0
  -40.5624   61.4227   66.1422 H   0  0  0  0  0  0  0  0  0  0  0  0
  -38.1788   59.3540   65.2254 C   0  0  0  0  0  0  0  0  0  0  0  0
  -37.9063   58.1005   64.8250 C   0  0  0  0  0  0  0  0  0  0  0  0
  -36.4551   57.6377   64.7093 C   0  0  0  0  0  0  0  0  0  0  0  0
  -35.9594   57.5016   63.2623 C   0  0  0  0  0  0  0  0  0  0  0  0
  -36.5367   58.5197   62.2615 C   0  0  0  0  0  0  0  0  0  0  0  0
  -37.7213   57.9070   61.4763 C   0  0  0  0  0  0  0  0  0  0  0  0
  -37.9359   58.4769   60.0513 C   0  0  0  0  0  0  0  0  0  0  0  0
  -38.8179   59.7468   60.0031 C   0  0  0  0  0  0  0  0  0  0  0  0
  -40.3131   59.4512   59.7562 C   0  0  0  0  0  0  0  0  0  0  0  0
  -40.6299   57.9593   59.5976 C   0  0  0  0  0  0  0  0  0  0  0  0
  -41.6629   57.3857   60.5653 C   0  0  0  0  0  0  0  0  0  0  0  0
  -41.0850   56.3636   61.5640 C   0  0  0  0  0  0  0  0  0  0  0  0
  -40.9118   56.8784   63.0010 C   0  0  0  0  0  0  0  0  0  0  0  0
  -41.9834   56.2952   63.9268 C   0  0  0  0  0  0  0  0  0  0  0  0
  -42.5568   57.2353   64.9722 C   0  0  0  0  0  0  0  0  0  0  0  0
  -39.2411   61.0441   63.0505 C   0  0  0  0  0  0  0  0  0  0  0  0
  -38.6352   62.2369   63.6104 O   0  0  0  0  0  0  0  0  0  0  0  0
  -36.5918   62.9636   61.7467 O   0  0  0  0  0  0  0  0  0  0  0  0
  -34.9910   64.9202   65.0646 O   0  0  0  0  0  0  0  0  0  0  0  0
  -36.9319   62.6106   65.2969 O   0  0  0  0  0  0  0  0  0  0  0  0
  -37.1901   62.2940   63.9074 C   0  0  0  0  0  0  0  0  0  0  0  0
  -36.3698   63.2960   63.0824 C   0  0  0  0  0  0  0  0  0  0  0  0
  -34.8509   63.2266   63.3537 C   0  0  0  0  0  0  0  0  0  0  0  0
  -34.6684   63.5553   64.8097 C   0  0  0  0  0  0  0  0  0  0  0  0
  -35.5241   62.6305   65.6563 C   0  0  0  0  0  0  0  0  0  0  0  0
  -37.5423   63.0020   61.5577 H   0  0  0  0  0  0  0  0  0  0  0  0
  -34.4336   65.4924   64.5142 H   0  0  0  0  0  0  0  0  0  0  0  0
  -36.1826   64.0399   67.4710 O   0  0  0  0  0  0  0  0  0  0  0  0
  -35.2052   63.1301   67.0637 C   0  0  0  0  0  0  0  0  0  0  0  0
  -35.9779   64.3558   68.3651 H   0  0  0  0  0  0  0  0  0  0  0  0
  -34.0324   64.1683   62.6235 O   0  0  0  0  0  0  0  0  0  0  0  0
  -32.3131   64.5486   60.7220 O   0  0  0  0  0  0  0  0  0  0  0  0
  -32.5896   62.3274   61.6592 O   0  0  0  0  0  0  0  0  0  0  0  0
  -31.4060   64.0372   62.9040 O   0  0  0  0  0  0  0  0  0  0  0  0
  -32.5468   63.7798   61.9801 S   0  0  0  0  0  0  0  0  0  0  0  0
  -33.0470   64.3932   60.1070 H   0  0  0  0  0  0  0  0  0  0  0  0
  -31.3706   64.9825   63.1186 H   0  0  0  0  0  0  0  0  0  0  0  0
  2  1  1  0  0  0
  2  4  1  0  0  0
  2  5  1  0  0  0
 41 42  1  0  0  0
 41  1  1  0  0  0
 42 46  1  0  0  0
  1 24  1  0  0  0
 23 24  1  0  0  0
 23 25  1  0  0  0
 24 26  1  0  0  0
  3  4  2  0  0  0
 26 27  2  0  0  0
 27 28  1  0  0  0
 43 47  1  0  0  0
 43 51  1  0  0  0
 28 29  1  0  0  0
 56 48  1  0  0  0
 56 60  1  0  0  0
 29 30  1  0  0  0
 57 60  1  0  0  0
 57 61  1  0  0  0
 30 31  1  0  0  0
 44 49  1  0  0  0
 44 52  1  0  0  0
 31 32  1  0  0  0
 45 46  1  0  0  0
 45 50  1  0  0  0
 32 33  1  0  0  0
 53 54  1  0  0  0
 53 55  1  0  0  0
 33 34  1  0  0  0
 34 35  1  0  0  0
 35 36  1  0  0  0
 58 60  1  0  0  0
 36 37  1  0  0  0
 59 60  1  0  0  0
 59 62  1  0  0  0
 37 38  1  0  0  0
 38 39  1  0  0  0
 39 40  1  0  0  0
  4  6  1  0  0  0
  6  7  1  0  0  0
  7  8  1  0  0  0
  8  9  1  0  0  0
  9 10  1  0  0  0
 10 11  1  0  0  0
 11 12  1  0  0  0
 12 13  1  0  0  0
 13 14  1  0  0  0
 14 15  1  0  0  0
 15 16  1  0  0  0
 16 17  1  0  0  0
 17 18  1  0  0  0
 18 19  1  0  0  0
 19 20  1  0  0  0
 20 21  1  0  0  0
 21 22  1  0  0  0
 46 47  1  0  0  0
 47 48  1  0  0  0
 48 49  1  0  0  0
 49 50  1  0  0  0
 50 54  1  0  0  0
M  CHG 1  58  -1
M  END
> <minimizedAffinity>
-9.49348

> <CNNscore>
0.3008106053

> <CNNaffinity>
7.3108491898

> <CNN_VS>
2.1991810799

> <CNNaffinity_variance>
1.5811607838

$$$$
/media/chris/experiments/cd1a-new-docking/inputs/ligands/1onq_ligand.pdb


 62 62  0  0  0  0  0  0  0  0999 V2000
  -36.5829   59.4817   63.8120 C   0  0  0  0  0  0  0  0  0  0  0  0
  -37.8890   59.5267   64.4391 N   0  0  0  0  0  0  0  0  0  0  0  0
  -38.1577   61.7476   64.8173 O   0  0  0  0  0  0  0  0  0  0  0  0
  -38.5580   60.6014   64.8787 C   0  0  0  0  0  0  0  0  0  0  0  0
  -38.3408   58.6599   64.5565 H   0  0  0  0  0  0  0  0  0  0  0  0
  -39.9030   60.3143   65.4772 C   0  0  0  0  0  0  0  0  0  0  0  0
  -40.9390   60.7121   64.4257 C   0  0  0  0  0  0  0  0  0  0  0  0
  -42.3253   60.7860   65.0613 C   0  0  0  0  0  0  0  0  0  0  0  0
  -43.4099   61.4094   64.2167 C   0  0  0  0  0  0  0  0  0  0  0  0
  -44.5617   60.4131   64.1369 C   0  0  0  0  0  0  0  0  0  0  0  0
  -45.9140   61.0394   64.5029 C   0  0  0  0  0  0  0  0  0  0  0  0
  -47.1323   60.1721   64.1368 C   0  0  0  0  0  0  0  0  0  0  0  0
  -48.4480   60.6930   64.7558 C   0  0  0  0  0  0  0  0  0  0  0  0
  -49.4920   59.5748   64.8250 C   0  0  0  0  0  0  0  0  0  0  0  0
  -50.8098   59.8785   64.1227 C   0  0  0  0  0  0  0  0  0  0  0  0
  -50.7561   59.5659   62.6345 C   0  0  0  0  0  0  0  0  0  0  0  0
  -50.9819   58.1026   62.2475 C   0  0  0  0  0  0  0  0  0  0  0  0
  -50.0326   57.7601   61.1073 C   0  0  0  0  0  0  0  0  0  0  0  0
  -50.1802   58.5029   59.7875 C   0  0  0  0  0  0  0  0  0  0  0  0
  -49.4525   57.7614   58.6549 C   0  0  0  0  0  0  0  0  0  0  0  0
  -47.9736   58.1538   58.4815 C   0  0  0  0  0  0  0  0  0  0  0  0
  -47.0287   56.9546   58.4649 C   0  0  0  0  0  0  0  0  0  0  0  0
  -35.4460   58.1555   62.2808 O   0  0  0  0  0  0  0  0  0  0  0  0
  -36.7535   58.3897   62.7700 C   0  0  0  0  0  0  0  0  0  0  0  0
  -34.8800   57.8473   63.0058 H   0  0  0  0  0  0  0  0  0  0  0  0
  -37.7007   58.8799   61.6723 C   0  0  0  0  0  0  0  0  0  0  0  0
  -37.5746   58.5220   60.3831 C   0  0  0  0  0  0  0  0  0  0  0  0
  -38.5609   59.0554   59.3458 C   0  0  0  0  0  0  0  0  0  0  0  0
  -39.5722   60.0637   59.9104 C   0  0  0  0  0  0  0  0  0  0  0  0
  -41.0528   59.6551   59.8005 C   0  0  0  0  0  0  0  0  0  0  0  0
  -41.4261   58.6400   60.9075 C   0  0  0  0  0  0  0  0  0  0  0  0
  -41.4466   57.1552   60.4642 C   0  0  0  0  0  0  0  0  0  0  0  0
  -41.2204   56.1471   61.6155 C   0  0  0  0  0  0  0  0  0  0  0  0
  -40.2905   56.6785   62.7277 C   0  0  0  0  0  0  0  0  0  0  0  0
  -41.0369   57.3276   63.8994 C   0  0  0  0  0  0  0  0  0  0  0  0
  -42.0219   56.4314   64.6470 C   0  0  0  0  0  0  0  0  0  0  0  0
  -43.4572   56.9907   64.7049 C   0  0  0  0  0  0  0  0  0  0  0  0
  -43.9041   57.5054   66.0817 C   0  0  0  0  0  0  0  0  0  0  0  0
  -45.4315   57.5251   66.1919 C   0  0  0  0  0  0  0  0  0  0  0  0
  -46.0209   58.4530   67.2393 C   0  0  0  0  0  0  0  0  0  0  0  0
  -35.3846   59.3467   64.7788 C   0  0  0  0  0  0  0  0  0  0  0  0
  -34.1886   60.0923   64.4368 O   0  0  0  0  0  0  0  0  0  0  0  0
  -33.6691   62.1451   62.5151 O   0  0  0  0  0  0  0  0  0  0  0  0
  -36.4471   64.2593   64.7981 O   0  0  0  0  0  0  0  0  0  0  0  0
  -34.8703   61.9162   65.8839 O   0  0  0  0  0  0  0  0  0  0  0  0
  -34.0729   61.5333   64.7371 C   0  0  0  0  0  0  0  0  0  0  0  0
  -34.4660   62.4931   63.6050 C   0  0  0  0  0  0  0  0  0  0  0  0
  -34.2123   63.9801   63.9363 C   0  0  0  0  0  0  0  0  0  0  0  0
  -35.0627   64.2946   65.1360 C   0  0  0  0  0  0  0  0  0  0  0  0
  -34.7543   63.3164   66.2550 C   0  0  0  0  0  0  0  0  0  0  0  0
  -33.8155   61.2125   62.2923 H   0  0  0  0  0  0  0  0  0  0  0  0
  -36.6215   64.8907   64.0826 H   0  0  0  0  0  0  0  0  0  0  0  0
  -36.2159   62.6964   68.0418 O   0  0  0  0  0  0  0  0  0  0  0  0
  -35.7100   63.7955   67.3454 C   0  0  0  0  0  0  0  0  0  0  0  0
  -36.8226   63.0034   68.7337 H   0  0  0  0  0  0  0  0  0  0  0  0
  -34.5907   64.9310   62.9152 O   0  0  0  0  0  0  0  0  0  0  0  0
  -36.7368   63.6919   62.1568 O   0  0  0  0  0  0  0  0  0  0  0  0
  -34.8332   63.8164   60.6570 O   0  0  0  0  0  0  0  0  0  0  0  0
  -36.2321   65.7628   61.0157 O   0  0  0  0  0  0  0  0  0  0  0  0
  -35.6296   64.5651   61.6668 S   0  0  0  0  0  0  0  0  0  0  0  0
  -36.3632   62.9054   62.5845 H   0  0  0  0  0  0  0  0  0  0  0  0
  -36.7534   66.2571   61.6674 H   0  0  0  0  0  0  0  0  0  0  0  0
  2  1  1  0  0  0
  2  4  1  0  0  0
  2  5  1  0  0  0
 41 42  1  0  0  0
 41  1  1  0  0  0
 42 46  1  0  0  0
  1 24  1  0  0  0
 23 24  1  0  0  0
 23 25  1  0  0  0
 24 26  1  0  0  0
  3  4  2  0  0  0
 26 27  2  0  0  0
 27 28  1  0  0  0
 43 47  1  0  0  0
 43 51  1  0  0  0
 28 29  1  0  0  0
 56 48  1  0  0  0
 56 60  1  0  0  0
 29 30  1  0  0  0
 57 60  1  0  0  0
 57 61  1  0  0  0
 30 31  1  0  0  0
 44 49  1  0  0  0
 44 52  1  0  0  0
 31 32  1  0  0  0
 45 46  1  0  0  0
 45 50  1  0  0  0
 32 33  1  0  0  0
 53 54  1  0  0  0
 53 55  1  0  0  0
 33 34  1  0  0  0
 34 35  1  0  0  0
 35 36  1  0  0  0
 58 60  1  0  0  0
 36 37  1  0  0  0
 59 60  1  0  0  0
 59 62  1  0  0  0
 37 38  1  0  0  0
 38 39  1  0  0  0
 39 40  1  0  0  0
  4  6  1  0  0  0
  6  7  1  0  0  0
  7  8  1  0  0  0
  8  9  1  0  0  0
  9 10  1  0  0  0
 10 11  1  0  0  0
 11 12  1  0  0  0
 12 13  1  0  0  0
 13 14  1  0  0  0
 14 15  1  0  0  0
 15 16  1  0  0  0
 16 17  1  0  0  0
 17 18  1  0  0  0
 18 19  1  0  0  0
 19 20  1  0  0  0
 20 21  1  0  0  0
 21 22  1  0  0  0
 46 47  1  0  0  0
 47 48  1  0  0  0
 48 49  1  0  0  0
 49 50  1  0  0  0
 50 54  1  0  0  0
M  CHG 1  58  -1
M  END
> <minimizedAffinity>
-8.94819

> <CNNscore>
0.2593938112

> <CNNaffinity>
7.3222341537

> <CNN_VS>
1.8993421793

> <CNNaffinity_variance>
1.4529644251

$$$$
/media/chris/experiments/cd1a-new-docking/inputs/ligands/1onq_ligand.pdb


 62 62  0  0  0  0  0  0  0  0999 V2000
  -39.5093   60.6057   63.6850 C   0  0  0  0  0  0  0  0  0  0  0  0
  -40.8683   61.1099   63.6727 N   0  0  0  0  0  0  0  0  0  0  0  0
  -41.4345   60.8954   61.4862 O   0  0  0  0  0  0  0  0  0  0  0  0
  -41.7006   61.2168   62.6280 C   0  0  0  0  0  0  0  0  0  0  0  0
  -41.2241   61.4112   64.5399 H   0  0  0  0  0  0  0  0  0  0  0  0
  -43.0559   61.7746   62.9470 C   0  0  0  0  0  0  0  0  0  0  0  0
  -43.5105   61.0963   64.2394 C   0  0  0  0  0  0  0  0  0  0  0  0
  -45.0208   61.2474   64.4044 C   0  0  0  0  0  0  0  0  0  0  0  0
  -45.8097   59.9639   64.4978 C   0  0  0  0  0  0  0  0  0  0  0  0
  -45.8433   59.5495   65.9651 C   0  0  0  0  0  0  0  0  0  0  0  0
  -47.2491   59.6379   66.5742 C   0  0  0  0  0  0  0  0  0  0  0  0
  -48.3208   60.1856   65.6141 C   0  0  0  0  0  0  0  0  0  0  0  0
  -49.7350   59.6467   65.9224 C   0  0  0  0  0  0  0  0  0  0  0  0
  -50.3008   58.8933   64.7152 C   0  0  0  0  0  0  0  0  0  0  0  0
  -51.0254   59.7623   63.6944 C   0  0  0  0  0  0  0  0  0  0  0  0
  -50.3393   59.7513   62.3363 C   0  0  0  0  0  0  0  0  0  0  0  0
  -49.3571   58.6038   62.0899 C   0  0  0  0  0  0  0  0  0  0  0  0
  -49.9931   57.6376   61.0997 C   0  0  0  0  0  0  0  0  0  0  0  0
  -50.1010   58.0548   59.6404 C   0  0  0  0  0  0  0  0  0  0  0  0
  -48.7744   58.6463   59.1382 C   0  0  0  0  0  0  0  0  0  0  0  0
  -47.8373   57.6293   58.4610 C   0  0  0  0  0  0  0  0  0  0  0  0
  -47.0323   58.2244   57.3081 C   0  0  0  0  0  0  0  0  0  0  0  0
  -39.4679   61.2113   65.9272 O   0  0  0  0  0  0  0  0  0  0  0  0
  -39.3686   60.0679   65.0987 C   0  0  0  0  0  0  0  0  0  0  0  0
  -40.3375   61.6238   65.8061 H   0  0  0  0  0  0  0  0  0  0  0  0
  -38.0154   59.3674   65.2422 C   0  0  0  0  0  0  0  0  0  0  0  0
  -37.7962   58.1072   64.8301 C   0  0  0  0  0  0  0  0  0  0  0  0
  -36.4161   57.4776   65.0098 C   0  0  0  0  0  0  0  0  0  0  0  0
  -35.5475   57.5119   63.7439 C   0  0  0  0  0  0  0  0  0  0  0  0
  -36.0532   58.4270   62.6133 C   0  0  0  0  0  0  0  0  0  0  0  0
  -37.2605   57.7867   61.8870 C   0  0  0  0  0  0  0  0  0  0  0  0
  -37.5938   58.3902   60.4991 C   0  0  0  0  0  0  0  0  0  0  0  0
  -39.0315   58.9486   60.3798 C   0  0  0  0  0  0  0  0  0  0  0  0
  -39.9030   58.1956   59.3514 C   0  0  0  0  0  0  0  0  0  0  0  0
  -41.2234   57.6702   59.9275 C   0  0  0  0  0  0  0  0  0  0  0  0
  -41.1327   56.9647   61.2789 C   0  0  0  0  0  0  0  0  0  0  0  0
  -42.0704   57.5487   62.3540 C   0  0  0  0  0  0  0  0  0  0  0  0
  -41.5393   57.4789   63.7938 C   0  0  0  0  0  0  0  0  0  0  0  0
  -42.6865   57.5405   64.8065 C   0  0  0  0  0  0  0  0  0  0  0  0
  -42.3390   58.0626   66.1894 C   0  0  0  0  0  0  0  0  0  0  0  0
  -38.4270   61.5975   63.2016 C   0  0  0  0  0  0  0  0  0  0  0  0
  -37.8192   62.4383   64.2150 O   0  0  0  0  0  0  0  0  0  0  0  0
  -35.2745   61.1340   64.2317 O   0  0  0  0  0  0  0  0  0  0  0  0
  -34.5264   63.6956   61.0257 O   0  0  0  0  0  0  0  0  0  0  0  0
  -36.6428   64.2526   63.1152 O   0  0  0  0  0  0  0  0  0  0  0  0
  -36.5196   63.0994   63.9826 C   0  0  0  0  0  0  0  0  0  0  0  0
  -35.4155   62.2236   63.3732 C   0  0  0  0  0  0  0  0  0  0  0  0
  -34.0490   62.9350   63.2637 C   0  0  0  0  0  0  0  0  0  0  0  0
  -34.2623   64.1187   62.3611 C   0  0  0  0  0  0  0  0  0  0  0  0
  -35.3998   64.9717   62.8927 C   0  0  0  0  0  0  0  0  0  0  0  0
  -36.1246   60.6742   64.3127 H   0  0  0  0  0  0  0  0  0  0  0  0
  -33.7883   63.1530   60.7065 H   0  0  0  0  0  0  0  0  0  0  0  0
  -36.3506   65.7350   60.8368 O   0  0  0  0  0  0  0  0  0  0  0  0
  -35.4545   66.0847   61.8486 C   0  0  0  0  0  0  0  0  0  0  0  0
  -36.3836   66.4435   60.1750 H   0  0  0  0  0  0  0  0  0  0  0  0
  -32.9788   62.1651   62.6706 O   0  0  0  0  0  0  0  0  0  0  0  0
  -31.1242   63.6966   63.6361 O   0  0  0  0  0  0  0  0  0  0  0  0
  -31.3197   63.4227   61.2328 O   0  0  0  0  0  0  0  0  0  0  0  0
  -30.3870   61.6450   62.5906 O   0  0  0  0  0  0  0  0  0  0  0  0
  -31.4152   62.7228   62.5426 S   0  0  0  0  0  0  0  0  0  0  0  0
  -31.7846   64.4070   63.6206 H   0  0  0  0  0  0  0  0  0  0  0  0
  -30.4422   61.1831   63.4418 H   0  0  0  0  0  0  0  0  0  0  0  0
  2  1  1  0  0  0
  2  4  1  0  0  0
  2  5  1  0  0  0
 41 42  1  0  0  0
 41  1  1  0  0  0
 42 46  1  0  0  0
  1 24  1  0  0  0
 23 24  1  0  0  0
 23 25  1  0  0  0
 24 26  1  0  0  0
  3  4  2  0  0  0
 26 27  2  0  0  0
 27 28  1  0  0  0
 43 47  1  0  0  0
 43 51  1  0  0  0
 28 29  1  0  0  0
 56 48  1  0  0  0
 56 60  1  0  0  0
 29 30  1  0  0  0
 57 60  1  0  0  0
 57 61  1  0  0  0
 30 31  1  0  0  0
 44 49  1  0  0  0
 44 52  1  0  0  0
 31 32  1  0  0  0
 45 46  1  0  0  0
 45 50  1  0  0  0
 32 33  1  0  0  0
 53 54  1  0  0  0
 53 55  1  0  0  0
 33 34  1  0  0  0
 34 35  1  0  0  0
 35 36  1  0  0  0
 58 60  1  0  0  0
 36 37  1  0  0  0
 59 60  1  0  0  0
 59 62  1  0  0  0
 37 38  1  0  0  0
 38 39  1  0  0  0
 39 40  1  0  0  0
  4  6  1  0  0  0
  6  7  1  0  0  0
  7  8  1  0  0  0
  8  9  1  0  0  0
  9 10  1  0  0  0
 10 11  1  0  0  0
 11 12  1  0  0  0
 12 13  1  0  0  0
 13 14  1  0  0  0
 14 15  1  0  0  0
 15 16  1  0  0  0
 16 17  1  0  0  0
 17 18  1  0  0  0
 18 19  1  0  0  0
 19 20  1  0  0  0
 20 21  1  0  0  0
 21 22  1  0  0  0
 46 47  1  0  0  0
 47 48  1  0  0  0
 48 49  1  0  0  0
 49 50  1  0  0  0
 50 54  1  0  0  0
M  CHG 1  58  -1
M  END
> <minimizedAffinity>
-9.27977

> <CNNscore>
0.2564080358

> <CNNaffinity>
7.1687774658

> <CNN_VS>
1.8381321430

> <CNNaffinity_variance>
1.4796841145

$$$$
/media/chris/experiments/cd1a-new-docking/inputs/ligands/1onq_ligand.pdb


 62 62  0  0  0  0  0  0  0  0999 V2000
  -41.4317   59.6465   64.5139 C   0  0  0  0  0  0  0  0  0  0  0  0
  -41.2692   58.6643   63.4603 N   0  0  0  0  0  0  0  0  0  0  0  0
  -41.3624   56.7122   64.6127 O   0  0  0  0  0  0  0  0  0  0  0  0
  -41.2462   57.3291   63.5717 C   0  0  0  0  0  0  0  0  0  0  0  0
  -41.1625   59.0227   62.5496 H   0  0  0  0  0  0  0  0  0  0  0  0
  -41.0689   56.5846   62.2817 C   0  0  0  0  0  0  0  0  0  0  0  0
  -40.0736   57.3922   61.4485 C   0  0  0  0  0  0  0  0  0  0  0  0
  -38.6450   57.0363   61.8531 C   0  0  0  0  0  0  0  0  0  0  0  0
  -37.9549   58.0105   62.7768 C   0  0  0  0  0  0  0  0  0  0  0  0
  -36.4619   57.7017   62.7400 C   0  0  0  0  0  0  0  0  0  0  0  0
  -35.6228   58.7403   63.4965 C   0  0  0  0  0  0  0  0  0  0  0  0
  -34.1638   58.3153   63.7441 C   0  0  0  0  0  0  0  0  0  0  0  0
  -33.2477   58.5764   62.5283 C   0  0  0  0  0  0  0  0  0  0  0  0
  -31.9700   59.3012   62.9608 C   0  0  0  0  0  0  0  0  0  0  0  0
  -31.3439   60.1948   61.8970 C   0  0  0  0  0  0  0  0  0  0  0  0
  -29.9856   60.7330   62.3216 C   0  0  0  0  0  0  0  0  0  0  0  0
  -29.6462   62.1480   61.8474 C   0  0  0  0  0  0  0  0  0  0  0  0
  -28.8661   62.8460   62.9532 C   0  0  0  0  0  0  0  0  0  0  0  0
  -29.2189   64.2855   63.2976 C   0  0  0  0  0  0  0  0  0  0  0  0
  -29.8435   64.3783   64.6988 C   0  0  0  0  0  0  0  0  0  0  0  0
  -30.3024   65.7920   65.1011 C   0  0  0  0  0  0  0  0  0  0  0  0
  -30.4865   66.7291   63.9097 C   0  0  0  0  0  0  0  0  0  0  0  0
  -42.2871   61.7987   64.6923 O   0  0  0  0  0  0  0  0  0  0  0  0
  -42.4094   60.6330   63.8987 C   0  0  0  0  0  0  0  0  0  0  0  0
  -41.3801   62.1374   64.6317 H   0  0  0  0  0  0  0  0  0  0  0  0
  -43.8219   60.0458   63.9502 C   0  0  0  0  0  0  0  0  0  0  0  0
  -44.7044   60.3461   64.9182 C   0  0  0  0  0  0  0  0  0  0  0  0
  -46.0963   59.7170   64.9000 C   0  0  0  0  0  0  0  0  0  0  0  0
  -46.8100   59.7471   66.2594 C   0  0  0  0  0  0  0  0  0  0  0  0
  -48.3139   60.0751   66.2154 C   0  0  0  0  0  0  0  0  0  0  0  0
  -48.6964   60.7186   64.8608 C   0  0  0  0  0  0  0  0  0  0  0  0
  -50.1953   60.6187   64.4806 C   0  0  0  0  0  0  0  0  0  0  0  0
  -50.6432   59.2066   64.0353 C   0  0  0  0  0  0  0  0  0  0  0  0
  -49.9258   58.7035   62.7640 C   0  0  0  0  0  0  0  0  0  0  0  0
  -50.8613   58.0321   61.7514 C   0  0  0  0  0  0  0  0  0  0  0  0
  -50.1842   57.2527   60.6261 C   0  0  0  0  0  0  0  0  0  0  0  0
  -50.0594   58.0399   59.3066 C   0  0  0  0  0  0  0  0  0  0  0  0
  -48.6327   58.4710   58.9340 C   0  0  0  0  0  0  0  0  0  0  0  0
  -48.1395   57.7241   57.6914 C   0  0  0  0  0  0  0  0  0  0  0  0
  -46.7153   58.0125   57.2512 C   0  0  0  0  0  0  0  0  0  0  0  0
  -40.1205   60.2268   65.0910 C   0  0  0  0  0  0  0  0  0  0  0  0
  -39.4335   61.2108   64.2766 O   0  0  0  0  0  0  0  0  0  0  0  0
  -37.5609   61.5714   62.1459 O   0  0  0  0  0  0  0  0  0  0  0  0
  -36.0160   64.4879   64.6968 O   0  0  0  0  0  0  0  0  0  0  0  0
  -37.7014   62.1736   65.6760 O   0  0  0  0  0  0  0  0  0  0  0  0
  -37.9894   61.4691   64.4439 C   0  0  0  0  0  0  0  0  0  0  0  0
  -37.3128   62.2735   63.3247 C   0  0  0  0  0  0  0  0  0  0  0  0
  -35.7840   62.4097   63.4958 C   0  0  0  0  0  0  0  0  0  0  0  0
  -35.5693   63.1376   64.7940 C   0  0  0  0  0  0  0  0  0  0  0  0
  -36.2879   62.4101   65.9159 C   0  0  0  0  0  0  0  0  0  0  0  0
  -38.5181   61.4761   62.0217 H   0  0  0  0  0  0  0  0  0  0  0  0
  -35.5448   64.9332   63.9752 H   0  0  0  0  0  0  0  0  0  0  0  0
  -36.3807   62.6804   68.2889 O   0  0  0  0  0  0  0  0  0  0  0  0
  -35.9572   63.3001   67.1118 C   0  0  0  0  0  0  0  0  0  0  0  0
  -36.1695   63.2476   69.0471 H   0  0  0  0  0  0  0  0  0  0  0  0
  -35.0988   63.1821   62.4839 O   0  0  0  0  0  0  0  0  0  0  0  0
  -33.2983   64.9997   62.8983 O   0  0  0  0  0  0  0  0  0  0  0  0
  -32.9172   63.3007   61.2081 O   0  0  0  0  0  0  0  0  0  0  0  0
  -32.7222   62.7465   63.5594 O   0  0  0  0  0  0  0  0  0  0  0  0
  -33.4783   63.5563   62.5624 S   0  0  0  0  0  0  0  0  0  0  0  0
  -33.7844   65.5435   62.2588 H   0  0  0  0  0  0  0  0  0  0  0  0
  -33.0817   62.9072   64.4459 H   0  0  0  0  0  0  0  0  0  0  0  0
  2  1  1  0  0  0
  2  4  1  0  0  0
  2  5  1  0  0  0
 41 42  1  0  0  0
 41  1  1  0  0  0
 42 46  1  0  0  0
  1 24  1  0  0  0
 23 24  1  0  0  0
 23 25  1  0  0  0
 24 26  1  0  0  0
  3  4  2  0  0  0
 26 27  2  0  0  0
 27 28  1  0  0  0
 43 47  1  0  0  0
 43 51  1  0  0  0
 28 29  1  0  0  0
 56 48  1  0  0  0
 56 60  1  0  0  0
 29 30  1  0  0  0
 57 60  1  0  0  0
 57 61  1  0  0  0
 30 31  1  0  0  0
 44 49  1  0  0  0
 44 52  1  0  0  0
 31 32  1  0  0  0
 45 46  1  0  0  0
 45 50  1  0  0  0
 32 33  1  0  0  0
 53 54  1  0  0  0
 53 55  1  0  0  0
 33 34  1  0  0  0
 34 35  1  0  0  0
 35 36  1  0  0  0
 58 60  1  0  0  0
 36 37  1  0  0  0
 59 60  1  0  0  0
 59 62  1  0  0  0
 37 38  1  0  0  0
 38 39  1  0  0  0
 39 40  1  0  0  0
  4  6  1  0  0  0
  6  7  1  0  0  0
  7  8  1  0  0  0
  8  9  1  0  0  0
  9 10  1  0  0  0
 10 11  1  0  0  0
 11 12  1  0  0  0
 12 13  1  0  0  0
 13 14  1  0  0  0
 14 15  1  0  0  0
 15 16  1  0  0  0
 16 17  1  0  0  0
 17 18  1  0  0  0
 18 19  1  0  0  0
 19 20  1  0  0  0
 20 21  1  0  0  0
 21 22  1  0  0  0
 46 47  1  0  0  0
 47 48  1  0  0  0
 48 49  1  0  0  0
 49 50  1  0  0  0
 50 54  1  0  0  0
M  CHG 1  58  -1
M  END
> <minimizedAffinity>
-9.24705

> <CNNscore>
0.2538432777

> <CNNaffinity>
6.6579833031

> <CNN_VS>
1.6900843382

> <CNNaffinity_variance>
1.0712372065

$$$$
/media/chris/experiments/cd1a-new-docking/inputs/ligands/1onq_ligand.pdb


 62 62  0  0  0  0  0  0  0  0999 V2000
  -41.6112   60.4879   64.5441 C   0  0  0  0  0  0  0  0  0  0  0  0
  -42.2858   59.2063   64.6052 N   0  0  0  0  0  0  0  0  0  0  0  0
  -41.9161   58.5772   66.7534 O   0  0  0  0  0  0  0  0  0  0  0  0
  -42.3896   58.3762   65.6520 C   0  0  0  0  0  0  0  0  0  0  0  0
  -42.7221   58.9089   63.7743 H   0  0  0  0  0  0  0  0  0  0  0  0
  -43.1666   57.1193   65.3945 C   0  0  0  0  0  0  0  0  0  0  0  0
  -44.6212   57.5432   65.1905 C   0  0  0  0  0  0  0  0  0  0  0  0
  -45.3009   57.7424   66.5431 C   0  0  0  0  0  0  0  0  0  0  0  0
  -46.1722   58.9680   66.6736 C   0  0  0  0  0  0  0  0  0  0  0  0
  -46.1791   59.6745   65.3220 C   0  0  0  0  0  0  0  0  0  0  0  0
  -47.5319   59.5700   64.6052 C   0  0  0  0  0  0  0  0  0  0  0  0
  -48.5804   58.7265   65.3533 C   0  0  0  0  0  0  0  0  0  0  0  0
  -49.8872   59.5013   65.6313 C   0  0  0  0  0  0  0  0  0  0  0  0
  -50.1881   60.4790   64.4917 C   0  0  0  0  0  0  0  0  0  0  0  0
  -51.3779   60.1033   63.6169 C   0  0  0  0  0  0  0  0  0  0  0  0
  -51.0008   59.1154   62.5228 C   0  0  0  0  0  0  0  0  0  0  0  0
  -49.7606   59.4680   61.6985 C   0  0  0  0  0  0  0  0  0  0  0  0
  -49.1402   58.1721   61.1943 C   0  0  0  0  0  0  0  0  0  0  0  0
  -48.8051   58.0512   59.7150 C   0  0  0  0  0  0  0  0  0  0  0  0
  -47.9265   56.8185   59.4492 C   0  0  0  0  0  0  0  0  0  0  0  0
  -46.9902   56.9516   58.2341 C   0  0  0  0  0  0  0  0  0  0  0  0
  -47.2006   58.2436   57.4482 C   0  0  0  0  0  0  0  0  0  0  0  0
  -43.5266   60.9692   63.3212 O   0  0  0  0  0  0  0  0  0  0  0  0
  -42.1171   61.0660   63.2336 C   0  0  0  0  0  0  0  0  0  0  0  0
  -43.8412   61.4996   64.0700 H   0  0  0  0  0  0  0  0  0  0  0  0
  -41.5543   60.2490   62.0682 C   0  0  0  0  0  0  0  0  0  0  0  0
  -40.7991   60.7862   61.0950 C   0  0  0  0  0  0  0  0  0  0  0  0
  -40.2752   59.9032   59.9641 C   0  0  0  0  0  0  0  0  0  0  0  0
  -41.2321   58.7701   59.5658 C   0  0  0  0  0  0  0  0  0  0  0  0
  -40.6621   57.3444   59.6831 C   0  0  0  0  0  0  0  0  0  0  0  0
  -41.3342   56.5783   60.8478 C   0  0  0  0  0  0  0  0  0  0  0  0
  -40.5248   56.5397   62.1687 C   0  0  0  0  0  0  0  0  0  0  0  0
  -39.0462   56.9688   62.0185 C   0  0  0  0  0  0  0  0  0  0  0  0
  -38.6180   58.0680   63.0146 C   0  0  0  0  0  0  0  0  0  0  0  0
  -37.1450   57.9836   63.4322 C   0  0  0  0  0  0  0  0  0  0  0  0
  -36.1190   58.1823   62.3185 C   0  0  0  0  0  0  0  0  0  0  0  0
  -34.7211   57.6226   62.6483 C   0  0  0  0  0  0  0  0  0  0  0  0
  -33.5810   58.6519   62.6222 C   0  0  0  0  0  0  0  0  0  0  0  0
  -32.6424   58.4631   63.8175 C   0  0  0  0  0  0  0  0  0  0  0  0
  -33.2576   58.6427   65.1940 C   0  0  0  0  0  0  0  0  0  0  0  0
  -40.0795   60.4441   64.7457 C   0  0  0  0  0  0  0  0  0  0  0  0
  -39.3177   61.5322   64.1633 O   0  0  0  0  0  0  0  0  0  0  0  0
  -37.3683   61.6657   62.0754 O   0  0  0  0  0  0  0  0  0  0  0  0
  -35.5816   64.4331   64.6345 O   0  0  0  0  0  0  0  0  0  0  0  0
  -37.5260   62.3230   65.5950 O   0  0  0  0  0  0  0  0  0  0  0  0
  -37.8586   61.6378   64.3632 C   0  0  0  0  0  0  0  0  0  0  0  0
  -37.0745   62.3521   63.2530 C   0  0  0  0  0  0  0  0  0  0  0  0
  -35.5442   62.3274   63.4600 C   0  0  0  0  0  0  0  0  0  0  0  0
  -35.2835   63.0444   64.7558 C   0  0  0  0  0  0  0  0  0  0  0  0
  -36.1012   62.4111   65.8669 C   0  0  0  0  0  0  0  0  0  0  0  0
  -38.3271   61.6709   61.9289 H   0  0  0  0  0  0  0  0  0  0  0  0
  -35.0492   64.8169   63.9202 H   0  0  0  0  0  0  0  0  0  0  0  0
  -36.2922   62.7683   68.2226 O   0  0  0  0  0  0  0  0  0  0  0  0
  -35.7057   63.2758   67.0618 C   0  0  0  0  0  0  0  0  0  0  0  0
  -36.0394   63.3191   68.9801 H   0  0  0  0  0  0  0  0  0  0  0  0
  -34.7574   63.0102   62.4576 O   0  0  0  0  0  0  0  0  0  0  0  0
  -32.5655   61.9003   63.2826 O   0  0  0  0  0  0  0  0  0  0  0  0
  -32.6842   64.3163   63.0877 O   0  0  0  0  0  0  0  0  0  0  0  0
  -32.4879   62.9411   61.1016 O   0  0  0  0  0  0  0  0  0  0  0  0
  -33.0926   63.0298   62.4610 S   0  0  0  0  0  0  0  0  0  0  0  0
  -32.9488   61.9416   64.1727 H   0  0  0  0  0  0  0  0  0  0  0  0
  -32.7492   62.1048   60.6855 H   0  0  0  0  0  0  0  0  0  0  0  0
  2  1  1  0  0  0
  2  4  1  0  0  0
  2  5  1  0  0  0
 41 42  1  0  0  0
 41  1  1  0  0  0
 42 46  1  0  0  0
  1 24  1  0  0  0
 23 24  1  0  0  0
 23 25  1  0  0  0
 24 26  1  0  0  0
  3  4  2  0  0  0
 26 27  2  0  0  0
 27 28  1  0  0  0
 43 47  1  0  0  0
 43 51  1  0  0  0
 28 29  1  0  0  0
 56 48  1  0  0  0
 56 60  1  0  0  0
 29 30  1  0  0  0
 57 60  1  0  0  0
 57 61  1  0  0  0
 30 31  1  0  0  0
 44 49  1  0  0  0
 44 52  1  0  0  0
 31 32  1  0  0  0
 45 46  1  0  0  0
 45 50  1  0  0  0
 32 33  1  0  0  0
 53 54  1  0  0  0
 53 55  1  0  0  0
 33 34  1  0  0  0
 34 35  1  0  0  0
 35 36  1  0  0  0
 58 60  1  0  0  0
 36 37  1  0  0  0
 59 60  1  0  0  0
 59 62  1  0  0  0
 37 38  1  0  0  0
 38 39  1  0  0  0
 39 40  1  0  0  0
  4  6  1  0  0  0
  6  7  1  0  0  0
  7  8  1  0  0  0
  8  9  1  0  0  0
  9 10  1  0  0  0
 10 11  1  0  0  0
 11 12  1  0  0  0
 12 13  1  0  0  0
 13 14  1  0  0  0
 14 15  1  0  0  0
 15 16  1  0  0  0
 16 17  1  0  0  0
 17 18  1  0  0  0
 18 19  1  0  0  0
 19 20  1  0  0  0
 20 21  1  0  0  0
 21 22  1  0  0  0
 46 47  1  0  0  0
 47 48  1  0  0  0
 48 49  1  0  0  0
 49 50  1  0  0  0
 50 54  1  0  0  0
M  CHG 1  58  -1
M  END
> <minimizedAffinity>
-9.53850

> <CNNscore>
0.2481008917

> <CNNaffinity>
7.2218513489

> <CNN_VS>
1.7917478085

> <CNNaffinity_variance>
1.8779834509

$$$$
/media/chris/experiments/cd1a-new-docking/inputs/ligands/1onq_ligand.pdb


 62 62  0  0  0  0  0  0  0  0999 V2000
  -39.7938   60.4102   63.7024 C   0  0  0  0  0  0  0  0  0  0  0  0
  -41.0955   61.0295   63.8551 N   0  0  0  0  0  0  0  0  0  0  0  0
  -41.8194   61.1484   61.7082 O   0  0  0  0  0  0  0  0  0  0  0  0
  -41.9790   61.3426   62.8975 C   0  0  0  0  0  0  0  0  0  0  0  0
  -41.3638   61.2470   64.7770 H   0  0  0  0  0  0  0  0  0  0  0  0
  -43.2505   61.9720   63.3843 C   0  0  0  0  0  0  0  0  0  0  0  0
  -43.7567   61.0959   64.5304 C   0  0  0  0  0  0  0  0  0  0  0  0
  -45.2684   60.9134   64.4189 C   0  0  0  0  0  0  0  0  0  0  0  0
  -45.8061   59.5652   64.8332 C   0  0  0  0  0  0  0  0  0  0  0  0
  -46.4192   59.7203   66.2210 C   0  0  0  0  0  0  0  0  0  0  0  0
  -47.9290   59.9913   66.1754 C   0  0  0  0  0  0  0  0  0  0  0  0
  -48.7358   58.9441   65.3859 C   0  0  0  0  0  0  0  0  0  0  0  0
  -50.2504   59.2451   65.3635 C   0  0  0  0  0  0  0  0  0  0  0  0
  -50.7634   59.3275   63.9230 C   0  0  0  0  0  0  0  0  0  0  0  0
  -50.0456   60.3408   63.0398 C   0  0  0  0  0  0  0  0  0  0  0  0
  -49.4431   59.7000   61.7982 C   0  0  0  0  0  0  0  0  0  0  0  0
  -49.5665   58.1777   61.7015 C   0  0  0  0  0  0  0  0  0  0  0  0
  -50.3676   57.8438   60.4504 C   0  0  0  0  0  0  0  0  0  0  0  0
  -49.6652   57.8876   59.1014 C   0  0  0  0  0  0  0  0  0  0  0  0
  -48.2169   57.3871   59.2191 C   0  0  0  0  0  0  0  0  0  0  0  0
  -47.5273   57.1045   57.8716 C   0  0  0  0  0  0  0  0  0  0  0  0
  -46.9876   58.3619   57.1940 C   0  0  0  0  0  0  0  0  0  0  0  0
  -39.4773   61.2663   65.8385 O   0  0  0  0  0  0  0  0  0  0  0  0
  -39.4334   60.0410   65.1311 C   0  0  0  0  0  0  0  0  0  0  0  0
  -40.3755   61.6306   65.7985 H   0  0  0  0  0  0  0  0  0  0  0  0
  -38.0388   59.4108   65.1554 C   0  0  0  0  0  0  0  0  0  0  0  0
  -37.7958   58.1549   64.7435 C   0  0  0  0  0  0  0  0  0  0  0  0
  -36.3748   57.5975   64.8002 C   0  0  0  0  0  0  0  0  0  0  0  0
  -35.7472   57.3535   63.4200 C   0  0  0  0  0  0  0  0  0  0  0  0
  -36.2505   58.2681   62.2880 C   0  0  0  0  0  0  0  0  0  0  0  0
  -37.5570   57.7120   61.6724 C   0  0  0  0  0  0  0  0  0  0  0  0
  -38.0413   58.4306   60.3877 C   0  0  0  0  0  0  0  0  0  0  0  0
  -39.5572   58.7385   60.3672 C   0  0  0  0  0  0  0  0  0  0  0  0
  -40.3961   57.6627   59.6440 C   0  0  0  0  0  0  0  0  0  0  0  0
  -41.2382   56.7974   60.5891 C   0  0  0  0  0  0  0  0  0  0  0  0
  -41.2070   57.1892   62.0649 C   0  0  0  0  0  0  0  0  0  0  0  0
  -42.4922   57.8851   62.5550 C   0  0  0  0  0  0  0  0  0  0  0  0
  -43.0177   57.4058   63.9167 C   0  0  0  0  0  0  0  0  0  0  0  0
  -41.9433   57.5419   64.9995 C   0  0  0  0  0  0  0  0  0  0  0  0
  -42.3939   58.1214   66.3286 C   0  0  0  0  0  0  0  0  0  0  0  0
  -38.7543   61.2329   62.9077 C   0  0  0  0  0  0  0  0  0  0  0  0
  -38.1152   62.3261   63.6147 O   0  0  0  0  0  0  0  0  0  0  0  0
  -36.8067   64.7698   64.3170 O   0  0  0  0  0  0  0  0  0  0  0  0
  -33.8216   62.1785   65.6490 O   0  0  0  0  0  0  0  0  0  0  0  0
  -35.8780   61.3888   63.5745 O   0  0  0  0  0  0  0  0  0  0  0  0
  -36.6714   62.5953   63.4635 C   0  0  0  0  0  0  0  0  0  0  0  0
  -36.0636   63.5980   64.4547 C   0  0  0  0  0  0  0  0  0  0  0  0
  -34.5812   63.9277   64.1732 C   0  0  0  0  0  0  0  0  0  0  0  0
  -33.8311   62.6303   64.2970 C   0  0  0  0  0  0  0  0  0  0  0  0
  -34.4515   61.5889   63.3834 C   0  0  0  0  0  0  0  0  0  0  0  0
  -37.7422   64.5815   64.4906 H   0  0  0  0  0  0  0  0  0  0  0  0
  -33.4218   62.8579   66.2142 H   0  0  0  0  0  0  0  0  0  0  0  0
  -33.0286   59.9000   62.4689 O   0  0  0  0  0  0  0  0  0  0  0  0
  -33.5673   60.3762   63.6656 C   0  0  0  0  0  0  0  0  0  0  0  0
  -32.4675   59.1298   62.6508 H   0  0  0  0  0  0  0  0  0  0  0  0
  -33.9498   64.8464   65.0936 O   0  0  0  0  0  0  0  0  0  0  0  0
  -32.1068   65.3675   63.3476 O   0  0  0  0  0  0  0  0  0  0  0  0
  -31.5392   65.3096   65.7063 O   0  0  0  0  0  0  0  0  0  0  0  0
  -32.7638   67.1910   64.7929 O   0  0  0  0  0  0  0  0  0  0  0  0
  -32.5785   65.7139   64.7210 S   0  0  0  0  0  0  0  0  0  0  0  0
  -31.9803   64.4080   63.2817 H   0  0  0  0  0  0  0  0  0  0  0  0
  -33.4402   67.4636   64.1533 H   0  0  0  0  0  0  0  0  0  0  0  0
  2  1  1  0  0  0
  2  4  1  0  0  0
  2  5  1  0  0  0
 41 42  1  0  0  0
 41  1  1  0  0  0
 42 46  1  0  0  0
  1 24  1  0  0  0
 23 24  1  0  0  0
 23 25  1  0  0  0
 24 26  1  0  0  0
  3  4  2  0  0  0
 26 27  2  0  0  0
 27 28  1  0  0  0
 43 47  1  0  0  0
 43 51  1  0  0  0
 28 29  1  0  0  0
 56 48  1  0  0  0
 56 60  1  0  0  0
 29 30  1  0  0  0
 57 60  1  0  0  0
 57 61  1  0  0  0
 30 31  1  0  0  0
 44 49  1  0  0  0
 44 52  1  0  0  0
 31 32  1  0  0  0
 45 46  1  0  0  0
 45 50  1  0  0  0
 32 33  1  0  0  0
 53 54  1  0  0  0
 53 55  1  0  0  0
 33 34  1  0  0  0
 34 35  1  0  0  0
 35 36  1  0  0  0
 58 60  1  0  0  0
 36 37  1  0  0  0
 59 60  1  0  0  0
 59 62  1  0  0  0
 37 38  1  0  0  0
 38 39  1  0  0  0
 39 40  1  0  0  0
  4  6  1  0  0  0
  6  7  1  0  0  0
  7  8  1  0  0  0
  8  9  1  0  0  0
  9 10  1  0  0  0
 10 11  1  0  0  0
 11 12  1  0  0  0
 12 13  1  0  0  0
 13 14  1  0  0  0
 14 15  1  0  0  0
 15 16  1  0  0  0
 16 17  1  0  0  0
 17 18  1  0  0  0
 18 19  1  0  0  0
 19 20  1  0  0  0
 20 21  1  0  0  0
 21 22  1  0  0  0
 46 47  1  0  0  0
 47 48  1  0  0  0
 48 49  1  0  0  0
 49 50  1  0  0  0
 50 54  1  0  0  0
M  CHG 1  58  -1
M  END
> <minimizedAffinity>
-9.18324

> <CNNscore>
0.2323997766

> <CNNaffinity>
7.2119574547

> <CNN_VS>
1.6760573387

> <CNNaffinity_variance>
1.3467328548

$$$$
/media/chris/experiments/cd1a-new-docking/inputs/ligands/1onq_ligand.pdb


 62 62  0  0  0  0  0  0  0  0999 V2000
  -37.3297   61.3238   64.6507 C   0  0  0  0  0  0  0  0  0  0  0  0
  -38.4774   60.4410   64.5828 N   0  0  0  0  0  0  0  0  0  0  0  0
  -39.8189   61.2804   66.2085 O   0  0  0  0  0  0  0  0  0  0  0  0
  -39.5908   60.4743   65.3276 C   0  0  0  0  0  0  0  0  0  0  0  0
  -38.4334   59.7283   63.9050 H   0  0  0  0  0  0  0  0  0  0  0  0
  -40.6062   59.4188   65.0043 C   0  0  0  0  0  0  0  0  0  0  0  0
  -41.8704   60.1549   64.5605 C   0  0  0  0  0  0  0  0  0  0  0  0
  -43.0386   59.7795   65.4690 C   0  0  0  0  0  0  0  0  0  0  0  0
  -44.2892   60.6114   65.3195 C   0  0  0  0  0  0  0  0  0  0  0  0
  -45.3271   59.7576   64.5986 C   0  0  0  0  0  0  0  0  0  0  0  0
  -46.7220   60.3972   64.5949 C   0  0  0  0  0  0  0  0  0  0  0  0
  -47.8476   59.4567   64.1266 C   0  0  0  0  0  0  0  0  0  0  0  0
  -48.9426   60.1868   63.3183 C   0  0  0  0  0  0  0  0  0  0  0  0
  -50.3358   59.7820   63.8084 C   0  0  0  0  0  0  0  0  0  0  0  0
  -51.2433   59.1769   62.7442 C   0  0  0  0  0  0  0  0  0  0  0  0
  -50.5970   57.9932   62.0396 C   0  0  0  0  0  0  0  0  0  0  0  0
  -50.7683   57.9418   60.5197 C   0  0  0  0  0  0  0  0  0  0  0  0
  -49.7632   58.8999   59.8950 C   0  0  0  0  0  0  0  0  0  0  0  0
  -48.5004   58.3262   59.2692 C   0  0  0  0  0  0  0  0  0  0  0  0
  -48.8444   57.3529   58.1306 C   0  0  0  0  0  0  0  0  0  0  0  0
  -47.8489   57.3667   56.9559 C   0  0  0  0  0  0  0  0  0  0  0  0
  -46.8608   58.5292   57.0155 C   0  0  0  0  0  0  0  0  0  0  0  0
  -37.4718   63.3111   63.4563 O   0  0  0  0  0  0  0  0  0  0  0  0
  -37.2892   61.9219   63.2549 C   0  0  0  0  0  0  0  0  0  0  0  0
  -36.7438   63.6580   63.9954 H   0  0  0  0  0  0  0  0  0  0  0  0
  -38.4079   61.3099   62.4085 C   0  0  0  0  0  0  0  0  0  0  0  0
  -38.1916   60.7419   61.2099 C   0  0  0  0  0  0  0  0  0  0  0  0
  -39.3625   60.1534   60.4249 C   0  0  0  0  0  0  0  0  0  0  0  0
  -38.9379   59.2231   59.2793 C   0  0  0  0  0  0  0  0  0  0  0  0
  -39.8633   58.0199   59.0201 C   0  0  0  0  0  0  0  0  0  0  0  0
  -41.3113   58.3343   59.4669 C   0  0  0  0  0  0  0  0  0  0  0  0
  -41.6924   57.8272   60.8808 C   0  0  0  0  0  0  0  0  0  0  0  0
  -41.3067   56.3536   61.1506 C   0  0  0  0  0  0  0  0  0  0  0  0
  -40.1495   56.1932   62.1602 C   0  0  0  0  0  0  0  0  0  0  0  0
  -39.3968   57.4974   62.4496 C   0  0  0  0  0  0  0  0  0  0  0  0
  -38.0909   57.3600   63.2293 C   0  0  0  0  0  0  0  0  0  0  0  0
  -36.8377   57.7630   62.4272 C   0  0  0  0  0  0  0  0  0  0  0  0
  -35.5052   57.6173   63.1778 C   0  0  0  0  0  0  0  0  0  0  0  0
  -34.3913   58.4013   62.4778 C   0  0  0  0  0  0  0  0  0  0  0  0
  -32.9707   58.0933   62.9163 C   0  0  0  0  0  0  0  0  0  0  0  0
  -36.0258   60.6813   65.1759 C   0  0  0  0  0  0  0  0  0  0  0  0
  -34.8741   61.5549   65.2928 O   0  0  0  0  0  0  0  0  0  0  0  0
  -34.9013   64.3301   64.6036 O   0  0  0  0  0  0  0  0  0  0  0  0
  -30.9655   63.5487   63.4643 O   0  0  0  0  0  0  0  0  0  0  0  0
  -33.0753   61.3899   63.6733 O   0  0  0  0  0  0  0  0  0  0  0  0
  -34.2361   62.1443   64.0988 C   0  0  0  0  0  0  0  0  0  0  0  0
  -33.7722   63.6020   64.2306 C   0  0  0  0  0  0  0  0  0  0  0  0
  -33.2220   64.1992   62.9169 C   0  0  0  0  0  0  0  0  0  0  0  0
  -32.0331   63.3597   62.5389 C   0  0  0  0  0  0  0  0  0  0  0  0
  -32.4370   61.8980   62.4708 C   0  0  0  0  0  0  0  0  0  0  0  0
  -35.2612   63.9684   65.4285 H   0  0  0  0  0  0  0  0  0  0  0  0
  -30.7239   64.4878   63.4919 H   0  0  0  0  0  0  0  0  0  0  0  0
  -30.5636   61.8887   60.9865 O   0  0  0  0  0  0  0  0  0  0  0  0
  -31.1133   61.2374   62.0921 C   0  0  0  0  0  0  0  0  0  0  0  0
  -29.7230   61.4674   60.7479 H   0  0  0  0  0  0  0  0  0  0  0  0
  -32.7447   65.5618   62.9904 O   0  0  0  0  0  0  0  0  0  0  0  0
  -33.1809   67.3547   61.1705 O   0  0  0  0  0  0  0  0  0  0  0  0
  -33.4199   67.9435   63.5125 O   0  0  0  0  0  0  0  0  0  0  0  0
  -35.1098   66.5963   62.4156 O   0  0  0  0  0  0  0  0  0  0  0  0
  -33.6480   66.8731   62.5042 S   0  0  0  0  0  0  0  0  0  0  0  0
  -32.2296   67.5404   61.2088 H   0  0  0  0  0  0  0  0  0  0  0  0
  -35.2677   65.8991   61.7599 H   0  0  0  0  0  0  0  0  0  0  0  0
  2  1  1  0  0  0
  2  4  1  0  0  0
  2  5  1  0  0  0
 41 42  1  0  0  0
 41  1  1  0  0  0
 42 46  1  0  0  0
  1 24  1  0  0  0
 23 24  1  0  0  0
 23 25  1  0  0  0
 24 26  1  0  0  0
  3  4  2  0  0  0
 26 27  2  0  0  0
 27 28  1  0  0  0
 43 47  1  0  0  0
 43 51  1  0  0  0
 28 29  1  0  0  0
 56 48  1  0  0  0
 56 60  1  0  0  0
 29 30  1  0  0  0
 57 60  1  0  0  0
 57 61  1  0  0  0
 30 31  1  0  0  0
 44 49  1  0  0  0
 44 52  1  0  0  0
 31 32  1  0  0  0
 45 46  1  0  0  0
 45 50  1  0  0  0
 32 33  1  0  0  0
 53 54  1  0  0  0
 53 55  1  0  0  0
 33 34  1  0  0  0
 34 35  1  0  0  0
 35 36  1  0  0  0
 58 60  1  0  0  0
 36 37  1  0  0  0
 59 60  1  0  0  0
 59 62  1  0  0  0
 37 38  1  0  0  0
 38 39  1  0  0  0
 39 40  1  0  0  0
  4  6  1  0  0  0
  6  7  1  0  0  0
  7  8  1  0  0  0
  8  9  1  0  0  0
  9 10  1  0  0  0
 10 11  1  0  0  0
 11 12  1  0  0  0
 12 13  1  0  0  0
 13 14  1  0  0  0
 14 15  1  0  0  0
 15 16  1  0  0  0
 16 17  1  0  0  0
 17 18  1  0  0  0
 18 19  1  0  0  0
 19 20  1  0  0  0
 20 21  1  0  0  0
 21 22  1  0  0  0
 46 47  1  0  0  0
 47 48  1  0  0  0
 48 49  1  0  0  0
 49 50  1  0  0  0
 50 54  1  0  0  0
M  CHG 1  58  -1
M  END
> <minimizedAffinity>
-8.56143

> <CNNscore>
0.2159402221

> <CNNaffinity>
7.0761847496

> <CNN_VS>
1.5280328989

> <CNNaffinity_variance>
0.7677472830

$$$$
/media/chris/experiments/cd1a-new-docking/inputs/ligands/1onq_ligand.pdb


 62 62  0  0  0  0  0  0  0  0999 V2000
  -40.7033   61.0876   63.3132 C   0  0  0  0  0  0  0  0  0  0  0  0
  -41.1884   60.0227   64.1687 N   0  0  0  0  0  0  0  0  0  0  0  0
  -40.9233   60.9172   66.2368 O   0  0  0  0  0  0  0  0  0  0  0  0
  -41.2634   60.0068   65.5065 C   0  0  0  0  0  0  0  0  0  0  0  0
  -41.5019   59.2101   63.7097 H   0  0  0  0  0  0  0  0  0  0  0  0
  -41.8247   58.7483   66.0988 C   0  0  0  0  0  0  0  0  0  0  0  0
  -43.2138   58.5637   65.4876 C   0  0  0  0  0  0  0  0  0  0  0  0
  -44.0390   57.6089   66.3469 C   0  0  0  0  0  0  0  0  0  0  0  0
  -45.5340   57.6581   66.1444 C   0  0  0  0  0  0  0  0  0  0  0  0
  -46.0518   58.9143   66.8371 C   0  0  0  0  0  0  0  0  0  0  0  0
  -46.9069   59.7914   65.9128 C   0  0  0  0  0  0  0  0  0  0  0  0
  -46.9111   59.3418   64.4402 C   0  0  0  0  0  0  0  0  0  0  0  0
  -48.2328   59.6756   63.7142 C   0  0  0  0  0  0  0  0  0  0  0  0
  -49.4182   59.0066   64.4159 C   0  0  0  0  0  0  0  0  0  0  0  0
  -50.7844   59.3293   63.8231 C   0  0  0  0  0  0  0  0  0  0  0  0
  -50.7874   59.2511   62.3036 C   0  0  0  0  0  0  0  0  0  0  0  0
  -50.9545   57.8530   61.7039 C   0  0  0  0  0  0  0  0  0  0  0  0
  -49.8344   57.6304   60.6967 C   0  0  0  0  0  0  0  0  0  0  0  0
  -49.3229   58.8215   59.8998 C   0  0  0  0  0  0  0  0  0  0  0  0
  -48.3236   58.3733   58.8216 C   0  0  0  0  0  0  0  0  0  0  0  0
  -47.7009   56.9861   59.0649 C   0  0  0  0  0  0  0  0  0  0  0  0
  -47.2115   56.3111   57.7858 C   0  0  0  0  0  0  0  0  0  0  0  0
  -42.9584   61.0015   62.7626 O   0  0  0  0  0  0  0  0  0  0  0  0
  -41.6822   61.0513   62.1522 C   0  0  0  0  0  0  0  0  0  0  0  0
  -43.0933   61.8009   63.2954 H   0  0  0  0  0  0  0  0  0  0  0  0
  -41.4050   59.8148   61.2938 C   0  0  0  0  0  0  0  0  0  0  0  0
  -40.8886   59.8846   60.0551 C   0  0  0  0  0  0  0  0  0  0  0  0
  -40.6418   58.6033   59.2608 C   0  0  0  0  0  0  0  0  0  0  0  0
  -39.1662   58.3642   58.9094 C   0  0  0  0  0  0  0  0  0  0  0  0
  -38.1717   58.5062   60.0766 C   0  0  0  0  0  0  0  0  0  0  0  0
  -38.5143   57.5141   61.2139 C   0  0  0  0  0  0  0  0  0  0  0  0
  -37.6542   57.6539   62.4954 C   0  0  0  0  0  0  0  0  0  0  0  0
  -36.3121   58.3924   62.2801 C   0  0  0  0  0  0  0  0  0  0  0  0
  -35.1031   57.6743   62.9177 C   0  0  0  0  0  0  0  0  0  0  0  0
  -34.9676   57.9135   64.4263 C   0  0  0  0  0  0  0  0  0  0  0  0
  -33.6776   58.5896   64.8857 C   0  0  0  0  0  0  0  0  0  0  0  0
  -33.2150   59.7416   63.9718 C   0  0  0  0  0  0  0  0  0  0  0  0
  -31.9203   59.4763   63.1886 C   0  0  0  0  0  0  0  0  0  0  0  0
  -31.9883   60.0937   61.7887 C   0  0  0  0  0  0  0  0  0  0  0  0
  -30.7541   60.8445   61.3213 C   0  0  0  0  0  0  0  0  0  0  0  0
  -39.1990   61.0276   62.9635 C   0  0  0  0  0  0  0  0  0  0  0  0
  -38.2704   61.2491   64.0553 O   0  0  0  0  0  0  0  0  0  0  0  0
  -36.1460   61.6645   65.9238 O   0  0  0  0  0  0  0  0  0  0  0  0
  -34.1072   62.9549   62.5212 O   0  0  0  0  0  0  0  0  0  0  0  0
  -37.1268   62.9134   62.7109 O   0  0  0  0  0  0  0  0  0  0  0  0
  -37.3369   62.3929   64.0460 C   0  0  0  0  0  0  0  0  0  0  0  0
  -35.9397   62.1296   64.6256 C   0  0  0  0  0  0  0  0  0  0  0  0
  -35.0502   63.3901   64.6975 C   0  0  0  0  0  0  0  0  0  0  0  0
  -34.8890   63.8722   63.2823 C   0  0  0  0  0  0  0  0  0  0  0  0
  -36.2541   64.0737   62.6495 C   0  0  0  0  0  0  0  0  0  0  0  0
  -36.7038   60.8715   65.8983 H   0  0  0  0  0  0  0  0  0  0  0  0
  -33.2409   62.8411   62.9425 H   0  0  0  0  0  0  0  0  0  0  0  0
  -34.9127   65.5543   61.3374 O   0  0  0  0  0  0  0  0  0  0  0  0
  -35.8697   64.5419   61.2478 C   0  0  0  0  0  0  0  0  0  0  0  0
  -34.6702   65.8499   60.4458 H   0  0  0  0  0  0  0  0  0  0  0  0
  -33.7127   63.1943   65.2100 O   0  0  0  0  0  0  0  0  0  0  0  0
  -33.2218   63.2515   67.7541 O   0  0  0  0  0  0  0  0  0  0  0  0
  -33.9161   65.2831   66.6230 O   0  0  0  0  0  0  0  0  0  0  0  0
  -31.6644   64.4347   66.3327 O   0  0  0  0  0  0  0  0  0  0  0  0
  -33.0944   64.0487   66.4983 S   0  0  0  0  0  0  0  0  0  0  0  0
  -34.1477   62.9908   67.8791 H   0  0  0  0  0  0  0  0  0  0  0  0
  -31.1212   63.6353   66.2506 H   0  0  0  0  0  0  0  0  0  0  0  0
  2  1  1  0  0  0
  2  4  1  0  0  0
  2  5  1  0  0  0
 41 42  1  0  0  0
 41  1  1  0  0  0
 42 46  1  0  0  0
  1 24  1  0  0  0
 23 24  1  0  0  0
 23 25  1  0  0  0
 24 26  1  0  0  0
  3  4  2  0  0  0
 26 27  2  0  0  0
 27 28  1  0  0  0
 43 47  1  0  0  0
 43 51  1  0  0  0
 28 29  1  0  0  0
 56 48  1  0  0  0
 56 60  1  0  0  0
 29 30  1  0  0  0
 57 60  1  0  0  0
 57 61  1  0  0  0
 30 31  1  0  0  0
 44 49  1  0  0  0
 44 52  1  0  0  0
 31 32  1  0  0  0
 45 46  1  0  0  0
 45 50  1  0  0  0
 32 33  1  0  0  0
 53 54  1  0  0  0
 53 55  1  0  0  0
 33 34  1  0  0  0
 34 35  1  0  0  0
 35 36  1  0  0  0
 58 60  1  0  0  0
 36 37  1  0  0  0
 59 60  1  0  0  0
 59 62  1  0  0  0
 37 38  1  0  0  0
 38 39  1  0  0  0
 39 40  1  0  0  0
  4  6  1  0  0  0
  6  7  1  0  0  0
  7  8  1  0  0  0
  8  9  1  0  0  0
  9 10  1  0  0  0
 10 11  1  0  0  0
 11 12  1  0  0  0
 12 13  1  0  0  0
 13 14  1  0  0  0
 14 15  1  0  0  0
 15 16  1  0  0  0
 16 17  1  0  0  0
 17 18  1  0  0  0
 18 19  1  0  0  0
 19 20  1  0  0  0
 20 21  1  0  0  0
 21 22  1  0  0  0
 46 47  1  0  0  0
 47 48  1  0  0  0
 48 49  1  0  0  0
 49 50  1  0  0  0
 50 54  1  0  0  0
M  CHG 1  58  -1
M  END
> <minimizedAffinity>
-9.46816

> <CNNscore>
0.2028565258

> <CNNaffinity>
6.9636597633

> <CNN_VS>
1.4126238823

> <CNNaffinity_variance>
1.1135847569

$$$$
