/media/chris/experiments/cd1a-new-docking/inputs/ligands/1onq_ligand.pdb


 62 62  0  0  0  0  0  0  0  0999 V2000
  -41.5485   59.9870   65.1781 C   0  0  0  0  0  0  0  0  0  0  0  0
  -41.5228   58.6211   64.6937 N   0  0  0  0  0  0  0  0  0  0  0  0
  -42.5247   57.4967   66.3905 O   0  0  0  0  0  0  0  0  0  0  0  0
  -41.9886   57.5205   65.2997 C   0  0  0  0  0  0  0  0  0  0  0  0
  -41.1122   58.4851   63.8093 H   0  0  0  0  0  0  0  0  0  0  0  0
  -41.8179   56.2464   64.5270 C   0  0  0  0  0  0  0  0  0  0  0  0
  -42.1715   56.5693   63.0751 C   0  0  0  0  0  0  0  0  0  0  0  0
  -41.2648   55.7841   62.1305 C   0  0  0  0  0  0  0  0  0  0  0  0
  -41.2422   56.2480   60.6942 C   0  0  0  0  0  0  0  0  0  0  0  0
  -41.8118   57.6623   60.6578 C   0  0  0  0  0  0  0  0  0  0  0  0
  -41.0739   58.5734   59.6676 C   0  0  0  0  0  0  0  0  0  0  0  0
  -39.7370   58.0033   59.1595 C   0  0  0  0  0  0  0  0  0  0  0  0
  -38.5855   59.0312   59.2166 C   0  0  0  0  0  0  0  0  0  0  0  0
  -37.6357   58.7142   60.3751 C   0  0  0  0  0  0  0  0  0  0  0  0
  -38.2029   57.7798   61.4370 C   0  0  0  0  0  0  0  0  0  0  0  0
  -37.1738   57.4201   62.4985 C   0  0  0  0  0  0  0  0  0  0  0  0
  -37.4173   58.0009   63.8933 C   0  0  0  0  0  0  0  0  0  0  0  0
  -36.1134   57.9221   64.6758 C   0  0  0  0  0  0  0  0  0  0  0  0
  -35.1370   59.0855   64.5850 C   0  0  0  0  0  0  0  0  0  0  0  0
  -33.7039   58.6263   64.8978 C   0  0  0  0  0  0  0  0  0  0  0  0
  -32.7864   58.5139   63.6664 C   0  0  0  0  0  0  0  0  0  0  0  0
  -33.5513   58.4611   62.3459 C   0  0  0  0  0  0  0  0  0  0  0  0
  -42.3139   62.0663   64.4807 O   0  0  0  0  0  0  0  0  0  0  0  0
  -42.3674   60.6997   64.1156 C   0  0  0  0  0  0  0  0  0  0  0  0
  -41.3931   62.3706   64.4601 H   0  0  0  0  0  0  0  0  0  0  0  0
  -43.7977   60.1551   64.1280 C   0  0  0  0  0  0  0  0  0  0  0  0
  -44.8420   60.8518   64.6078 C   0  0  0  0  0  0  0  0  0  0  0  0
  -46.2404   60.2375   64.5858 C   0  0  0  0  0  0  0  0  0  0  0  0
  -46.8694   60.0737   65.9771 C   0  0  0  0  0  0  0  0  0  0  0  0
  -48.3755   59.7531   65.9941 C   0  0  0  0  0  0  0  0  0  0  0  0
  -48.9128   59.5631   64.5551 C   0  0  0  0  0  0  0  0  0  0  0  0
  -50.2941   60.2070   64.2743 C   0  0  0  0  0  0  0  0  0  0  0  0
  -50.9224   59.7941   62.9224 C   0  0  0  0  0  0  0  0  0  0  0  0
  -50.8128   58.2827   62.6265 C   0  0  0  0  0  0  0  0  0  0  0  0
  -50.7053   57.9519   61.1330 C   0  0  0  0  0  0  0  0  0  0  0  0
  -49.2920   57.9014   60.5566 C   0  0  0  0  0  0  0  0  0  0  0  0
  -49.1351   58.6484   59.2174 C   0  0  0  0  0  0  0  0  0  0  0  0
  -47.8617   58.3136   58.4261 C   0  0  0  0  0  0  0  0  0  0  0  0
  -48.1776   57.4050   57.2346 C   0  0  0  0  0  0  0  0  0  0  0  0
  -47.5248   56.0342   57.2391 C   0  0  0  0  0  0  0  0  0  0  0  0
  -40.1712   60.5957   65.5266 C   0  0  0  0  0  0  0  0  0  0  0  0
  -39.4361   61.2037   64.4343 O   0  0  0  0  0  0  0  0  0  0  0  0
  -37.6295   61.6066   62.2547 O   0  0  0  0  0  0  0  0  0  0  0  0
  -36.1556   64.6319   64.7193 O   0  0  0  0  0  0  0  0  0  0  0  0
  -37.7163   62.2651   65.7765 O   0  0  0  0  0  0  0  0  0  0  0  0
  -38.0012   61.5269   64.5635 C   0  0  0  0  0  0  0  0  0  0  0  0
  -37.3856   62.3397   63.4154 C   0  0  0  0  0  0  0  0  0  0  0  0
  -35.8606   62.5447   63.5484 C   0  0  0  0  0  0  0  0  0  0  0  0
  -35.6486   63.3041   64.8288 C   0  0  0  0  0  0  0  0  0  0  0  0
  -36.3093   62.5664   65.9793 C   0  0  0  0  0  0  0  0  0  0  0  0
  -38.5841   61.4680   62.1545 H   0  0  0  0  0  0  0  0  0  0  0  0
  -35.7206   65.0842   63.9796 H   0  0  0  0  0  0  0  0  0  0  0  0
  -36.2268   62.8223   68.3545 O   0  0  0  0  0  0  0  0  0  0  0  0
  -35.9907   63.4912   67.1521 C   0  0  0  0  0  0  0  0  0  0  0  0
  -36.0238   63.4117   69.0976 H   0  0  0  0  0  0  0  0  0  0  0  0
  -35.2326   63.3277   62.5080 O   0  0  0  0  0  0  0  0  0  0  0  0
  -33.3012   63.7162   60.8240 O   0  0  0  0  0  0  0  0  0  0  0  0
  -33.1112   61.9495   62.4768 O   0  0  0  0  0  0  0  0  0  0  0  0
  -32.8406   64.2670   63.1328 O   0  0  0  0  0  0  0  0  0  0  0  0
  -33.5895   63.3385   62.2393 S   0  0  0  0  0  0  0  0  0  0  0  0
  -33.7811   63.1215   60.2265 H   0  0  0  0  0  0  0  0  0  0  0  0
  -33.1465   65.1755   62.9844 H   0  0  0  0  0  0  0  0  0  0  0  0
  2  1  1  0  0  0
  2  4  1  0  0  0
  2  5  1  0  0  0
 41 42  1  0  0  0
 41  1  1  0  0  0
 42 46  1  0  0  0
  1 24  1  0  0  0
 23 24  1  0  0  0
 23 25  1  0  0  0
 24 26  1  0  0  0
  3  4  2  0  0  0
 26 27  2  0  0  0
 27 28  1  0  0  0
 43 47  1  0  0  0
 43 51  1  0  0  0
 28 29  1  0  0  0
 56 48  1  0  0  0
 56 60  1  0  0  0
 29 30  1  0  0  0
 57 60  1  0  0  0
 57 61  1  0  0  0
 30 31  1  0  0  0
 44 49  1  0  0  0
 44 52  1  0  0  0
 31 32  1  0  0  0
 45 46  1  0  0  0
 45 50  1  0  0  0
 32 33  1  0  0  0
 53 54  1  0  0  0
 53 55  1  0  0  0
 33 34  1  0  0  0
 34 35  1  0  0  0
 35 36  1  0  0  0
 58 60  1  0  0  0
 36 37  1  0  0  0
 59 60  1  0  0  0
 59 62  1  0  0  0
 37 38  1  0  0  0
 38 39  1  0  0  0
 39 40  1  0  0  0
  4  6  1  0  0  0
  6  7  1  0  0  0
  7  8  1  0  0  0
  8  9  1  0  0  0
  9 10  1  0  0  0
 10 11  1  0  0  0
 11 12  1  0  0  0
 12 13  1  0  0  0
 13 14  1  0  0  0
 14 15  1  0  0  0
 15 16  1  0  0  0
 16 17  1  0  0  0
 17 18  1  0  0  0
 18 19  1  0  0  0
 19 20  1  0  0  0
 20 21  1  0  0  0
 21 22  1  0  0  0
 46 47  1  0  0  0
 47 48  1  0  0  0
 48 49  1  0  0  0
 49 50  1  0  0  0
 50 54  1  0  0  0
M  CHG 1  58  -1
M  END
> <minimizedAffinity>
-9.97848

> <CNNscore>
0.3560302556

> <CNNaffinity>
7.2509927750

> <CNN_VS>
2.5815727711

> <CNNaffinity_variance>
1.9613221884

$$$$
/media/chris/experiments/cd1a-new-docking/inputs/ligands/1onq_ligand.pdb


 62 62  0  0  0  0  0  0  0  0999 V2000
  -39.9364   60.4973   65.1137 C   0  0  0  0  0  0  0  0  0  0  0  0
  -40.7182   59.3508   65.5323 N   0  0  0  0  0  0  0  0  0  0  0  0
  -42.5207   60.3326   66.4990 O   0  0  0  0  0  0  0  0  0  0  0  0
  -41.8992   59.3425   66.1654 C   0  0  0  0  0  0  0  0  0  0  0  0
  -40.3337   58.4683   65.3258 H   0  0  0  0  0  0  0  0  0  0  0  0
  -42.4581   57.9810   66.4546 C   0  0  0  0  0  0  0  0  0  0  0  0
  -43.1762   57.5283   65.1832 C   0  0  0  0  0  0  0  0  0  0  0  0
  -44.5861   58.1129   65.1442 C   0  0  0  0  0  0  0  0  0  0  0  0
  -45.5605   57.5634   66.1578 C   0  0  0  0  0  0  0  0  0  0  0  0
  -45.9934   58.7188   67.0542 C   0  0  0  0  0  0  0  0  0  0  0  0
  -46.6955   59.8409   66.2778 C   0  0  0  0  0  0  0  0  0  0  0  0
  -48.2291   59.7135   66.2308 C   0  0  0  0  0  0  0  0  0  0  0  0
  -48.8551   60.4398   65.0199 C   0  0  0  0  0  0  0  0  0  0  0  0
  -50.3405   60.0910   64.8900 C   0  0  0  0  0  0  0  0  0  0  0  0
  -50.9353   60.3087   63.5039 C   0  0  0  0  0  0  0  0  0  0  0  0
  -51.1756   58.9994   62.7668 C   0  0  0  0  0  0  0  0  0  0  0  0
  -49.9875   58.0368   62.7041 C   0  0  0  0  0  0  0  0  0  0  0  0
  -49.1245   58.4233   61.5106 C   0  0  0  0  0  0  0  0  0  0  0  0
  -49.2265   57.5951   60.2382 C   0  0  0  0  0  0  0  0  0  0  0  0
  -48.6423   58.3568   59.0380 C   0  0  0  0  0  0  0  0  0  0  0  0
  -47.5022   57.6223   58.3090 C   0  0  0  0  0  0  0  0  0  0  0  0
  -47.0535   58.3230   57.0287 C   0  0  0  0  0  0  0  0  0  0  0  0
  -41.4904   61.5198   63.7224 O   0  0  0  0  0  0  0  0  0  0  0  0
  -40.3571   60.6735   63.6647 C   0  0  0  0  0  0  0  0  0  0  0  0
  -41.2375   62.3729   64.1084 H   0  0  0  0  0  0  0  0  0  0  0  0
  -40.6887   59.3058   63.0633 C   0  0  0  0  0  0  0  0  0  0  0  0
  -41.6461   59.1262   62.1373 C   0  0  0  0  0  0  0  0  0  0  0  0
  -41.9178   57.7277   61.5861 C   0  0  0  0  0  0  0  0  0  0  0  0
  -41.1798   57.4220   60.2746 C   0  0  0  0  0  0  0  0  0  0  0  0
  -41.2045   58.5430   59.2190 C   0  0  0  0  0  0  0  0  0  0  0  0
  -39.9168   59.3982   59.2959 C   0  0  0  0  0  0  0  0  0  0  0  0
  -38.5906   58.5969   59.3163 C   0  0  0  0  0  0  0  0  0  0  0  0
  -37.8047   58.7063   60.6441 C   0  0  0  0  0  0  0  0  0  0  0  0
  -38.0030   57.4950   61.5809 C   0  0  0  0  0  0  0  0  0  0  0  0
  -37.4876   57.7258   63.0065 C   0  0  0  0  0  0  0  0  0  0  0  0
  -36.1718   58.4913   63.1290 C   0  0  0  0  0  0  0  0  0  0  0  0
  -34.9177   57.6014   63.0217 C   0  0  0  0  0  0  0  0  0  0  0  0
  -33.6721   58.2920   62.4459 C   0  0  0  0  0  0  0  0  0  0  0  0
  -32.5724   58.4142   63.5045 C   0  0  0  0  0  0  0  0  0  0  0  0
  -33.0298   58.7053   64.9228 C   0  0  0  0  0  0  0  0  0  0  0  0
  -38.4196   60.4082   65.3970 C   0  0  0  0  0  0  0  0  0  0  0  0
  -37.8327   61.5086   66.1373 O   0  0  0  0  0  0  0  0  0  0  0  0
  -35.4315   62.6950   67.1390 O   0  0  0  0  0  0  0  0  0  0  0  0
  -34.2787   62.4854   63.1357 O   0  0  0  0  0  0  0  0  0  0  0  0
  -37.1740   62.4809   64.0145 O   0  0  0  0  0  0  0  0  0  0  0  0
  -37.0509   62.5591   65.4554 C   0  0  0  0  0  0  0  0  0  0  0  0
  -35.5448   62.5816   65.7539 C   0  0  0  0  0  0  0  0  0  0  0  0
  -34.8019   63.7713   65.1074 C   0  0  0  0  0  0  0  0  0  0  0  0
  -34.9849   63.6241   63.6220 C   0  0  0  0  0  0  0  0  0  0  0  0
  -36.4636   63.5239   63.2940 C   0  0  0  0  0  0  0  0  0  0  0  0
  -35.8931   61.9547   67.5628 H   0  0  0  0  0  0  0  0  0  0  0  0
  -33.3377   62.5702   63.3557 H   0  0  0  0  0  0  0  0  0  0  0  0
  -35.3889   64.1490   61.2524 O   0  0  0  0  0  0  0  0  0  0  0  0
  -36.4251   63.3729   61.7748 C   0  0  0  0  0  0  0  0  0  0  0  0
  -35.3666   64.0514   60.2875 H   0  0  0  0  0  0  0  0  0  0  0  0
  -33.3750   63.8264   65.3330 O   0  0  0  0  0  0  0  0  0  0  0  0
  -33.2097   65.0865   67.5917 O   0  0  0  0  0  0  0  0  0  0  0  0
  -32.9291   66.3102   65.5149 O   0  0  0  0  0  0  0  0  0  0  0  0
  -31.1586   64.8696   66.3300 O   0  0  0  0  0  0  0  0  0  0  0  0
  -32.6359   65.0299   66.2147 S   0  0  0  0  0  0  0  0  0  0  0  0
  -34.1726   65.1911   67.5367 H   0  0  0  0  0  0  0  0  0  0  0  0
  -30.9584   64.0368   66.7853 H   0  0  0  0  0  0  0  0  0  0  0  0
  2  1  1  0  0  0
  2  4  1  0  0  0
  2  5  1  0  0  0
 41 42  1  0  0  0
 41  1  1  0  0  0
 42 46  1  0  0  0
  1 24  1  0  0  0
 23 24  1  0  0  0
 23 25  1  0  0  0
 24 26  1  0  0  0
  3  4  2  0  0  0
 26 27  2  0  0  0
 27 28  1  0  0  0
 43 47  1  0  0  0
 43 51  1  0  0  0
 28 29  1  0  0  0
 56 48  1  0  0  0
 56 60  1  0  0  0
 29 30  1  0  0  0
 57 60  1  0  0  0
 57 61  1  0  0  0
 30 31  1  0  0  0
 44 49  1  0  0  0
 44 52  1  0  0  0
 31 32  1  0  0  0
 45 46  1  0  0  0
 45 50  1  0  0  0
 32 33  1  0  0  0
 53 54  1  0  0  0
 53 55  1  0  0  0
 33 34  1  0  0  0
 34 35  1  0  0  0
 35 36  1  0  0  0
 58 60  1  0  0  0
 36 37  1  0  0  0
 59 60  1  0  0  0
 59 62  1  0  0  0
 37 38  1  0  0  0
 38 39  1  0  0  0
 39 40  1  0  0  0
  4  6  1  0  0  0
  6  7  1  0  0  0
  7  8  1  0  0  0
  8  9  1  0  0  0
  9 10  1  0  0  0
 10 11  1  0  0  0
 11 12  1  0  0  0
 12 13  1  0  0  0
 13 14  1  0  0  0
 14 15  1  0  0  0
 15 16  1  0  0  0
 16 17  1  0  0  0
 17 18  1  0  0  0
 18 19  1  0  0  0
 19 20  1  0  0  0
 20 21  1  0  0  0
 21 22  1  0  0  0
 46 47  1  0  0  0
 47 48  1  0  0  0
 48 49  1  0  0  0
 49 50  1  0  0  0
 50 54  1  0  0  0
M  CHG 1  58  -1
M  END
> <minimizedAffinity>
-9.53697

> <CNNscore>
0.2074701637

> <CNNaffinity>
6.9193549156

> <CNN_VS>
1.4355597496

> <CNNaffinity_variance>
1.7394807339

$$$$
/media/chris/experiments/cd1a-new-docking/inputs/ligands/1onq_ligand.pdb


 62 62  0  0  0  0  0  0  0  0999 V2000
  -40.8518   59.7733   64.3657 C   0  0  0  0  0  0  0  0  0  0  0  0
  -42.2234   60.1862   64.5878 N   0  0  0  0  0  0  0  0  0  0  0  0
  -42.5209   61.7395   62.9612 O   0  0  0  0  0  0  0  0  0  0  0  0
  -42.9332   61.0958   63.9064 C   0  0  0  0  0  0  0  0  0  0  0  0
  -42.6917   59.7430   65.3318 H   0  0  0  0  0  0  0  0  0  0  0  0
  -44.3422   61.2917   64.3818 C   0  0  0  0  0  0  0  0  0  0  0  0
  -44.6515   60.1210   65.3150 C   0  0  0  0  0  0  0  0  0  0  0  0
  -46.1217   60.1556   65.7256 C   0  0  0  0  0  0  0  0  0  0  0  0
  -47.0918   59.4981   64.7743 C   0  0  0  0  0  0  0  0  0  0  0  0
  -48.1189   58.7435   65.6121 C   0  0  0  0  0  0  0  0  0  0  0  0
  -49.4147   59.5390   65.8194 C   0  0  0  0  0  0  0  0  0  0  0  0
  -49.7401   60.5248   64.6824 C   0  0  0  0  0  0  0  0  0  0  0  0
  -51.1699   60.3481   64.1254 C   0  0  0  0  0  0  0  0  0  0  0  0
  -51.1695   59.3894   62.9313 C   0  0  0  0  0  0  0  0  0  0  0  0
  -49.8182   59.2071   62.2510 C   0  0  0  0  0  0  0  0  0  0  0  0
  -49.7343   59.9496   60.9255 C   0  0  0  0  0  0  0  0  0  0  0  0
  -49.2930   59.1194   59.7180 C   0  0  0  0  0  0  0  0  0  0  0  0
  -49.8362   57.7071   59.8875 C   0  0  0  0  0  0  0  0  0  0  0  0
  -48.8758   56.5349   59.7501 C   0  0  0  0  0  0  0  0  0  0  0  0
  -47.4919   57.0102   59.2798 C   0  0  0  0  0  0  0  0  0  0  0  0
  -47.2127   56.7811   57.7831 C   0  0  0  0  0  0  0  0  0  0  0  0
  -46.9360   58.0720   57.0157 C   0  0  0  0  0  0  0  0  0  0  0  0
  -39.5677   57.9444   64.9998 O   0  0  0  0  0  0  0  0  0  0  0  0
  -40.9009   58.2855   64.6681 C   0  0  0  0  0  0  0  0  0  0  0  0
  -39.2928   58.4415   65.7860 H   0  0  0  0  0  0  0  0  0  0  0  0
  -41.3981   57.5330   63.4315 C   0  0  0  0  0  0  0  0  0  0  0  0
  -40.7587   56.4692   62.9160 C   0  0  0  0  0  0  0  0  0  0  0  0
  -41.3189   55.7723   61.6774 C   0  0  0  0  0  0  0  0  0  0  0  0
  -40.9354   56.4518   60.3548 C   0  0  0  0  0  0  0  0  0  0  0  0
  -41.8419   57.6170   59.9167 C   0  0  0  0  0  0  0  0  0  0  0  0
  -40.9957   58.8383   59.4834 C   0  0  0  0  0  0  0  0  0  0  0  0
  -39.5038   58.5391   59.1903 C   0  0  0  0  0  0  0  0  0  0  0  0
  -38.5143   59.2845   60.1166 C   0  0  0  0  0  0  0  0  0  0  0  0
  -37.4197   58.3729   60.7123 C   0  0  0  0  0  0  0  0  0  0  0  0
  -37.6202   58.0579   62.1996 C   0  0  0  0  0  0  0  0  0  0  0  0
  -36.4013   58.2560   63.0981 C   0  0  0  0  0  0  0  0  0  0  0  0
  -35.0536   58.1428   62.3585 C   0  0  0  0  0  0  0  0  0  0  0  0
  -33.9005   58.9520   62.9712 C   0  0  0  0  0  0  0  0  0  0  0  0
  -34.1134   59.1622   64.4730 C   0  0  0  0  0  0  0  0  0  0  0  0
  -33.1989   58.3817   65.4004 C   0  0  0  0  0  0  0  0  0  0  0  0
  -39.7785   60.6037   65.1055 C   0  0  0  0  0  0  0  0  0  0  0  0
  -39.0449   61.5700   64.3110 O   0  0  0  0  0  0  0  0  0  0  0  0
  -37.2501   62.0378   62.1346 O   0  0  0  0  0  0  0  0  0  0  0  0
  -35.3639   64.5177   64.9080 O   0  0  0  0  0  0  0  0  0  0  0  0
  -37.1795   62.2347   65.7124 O   0  0  0  0  0  0  0  0  0  0  0  0
  -37.5788   61.7009   64.4267 C   0  0  0  0  0  0  0  0  0  0  0  0
  -36.8932   62.5784   63.3694 C   0  0  0  0  0  0  0  0  0  0  0  0
  -35.3521   62.5817   63.4704 C   0  0  0  0  0  0  0  0  0  0  0  0
  -35.0211   63.1363   64.8284 C   0  0  0  0  0  0  0  0  0  0  0  0
  -35.7421   62.3378   65.8992 C   0  0  0  0  0  0  0  0  0  0  0  0
  -38.2165   62.0277   62.0532 H   0  0  0  0  0  0  0  0  0  0  0  0
  -34.8929   65.0081   64.2162 H   0  0  0  0  0  0  0  0  0  0  0  0
  -36.2591   62.9162   68.1602 O   0  0  0  0  0  0  0  0  0  0  0  0
  -35.2875   63.0565   67.1677 C   0  0  0  0  0  0  0  0  0  0  0  0
  -35.9680   63.3735   68.9646 H   0  0  0  0  0  0  0  0  0  0  0  0
  -34.6556   63.4143   62.5156 O   0  0  0  0  0  0  0  0  0  0  0  0
  -32.2335   63.7813   63.3616 O   0  0  0  0  0  0  0  0  0  0  0  0
  -32.7484   64.1322   61.0162 O   0  0  0  0  0  0  0  0  0  0  0  0
  -32.5869   61.8835   61.9058 O   0  0  0  0  0  0  0  0  0  0  0  0
  -33.0263   63.2766   62.2017 S   0  0  0  0  0  0  0  0  0  0  0  0
  -32.5062   64.6888   63.5692 H   0  0  0  0  0  0  0  0  0  0  0  0
  -32.7647   61.3184   62.6740 H   0  0  0  0  0  0  0  0  0  0  0  0
  2  1  1  0  0  0
  2  4  1  0  0  0
  2  5  1  0  0  0
 41 42  1  0  0  0
 41  1  1  0  0  0
 42 46  1  0  0  0
  1 24  1  0  0  0
 23 24  1  0  0  0
 23 25  1  0  0  0
 24 26  1  0  0  0
  3  4  2  0  0  0
 26 27  2  0  0  0
 27 28  1  0  0  0
 43 47  1  0  0  0
 43 51  1  0  0  0
 28 29  1  0  0  0
 56 48  1  0  0  0
 56 60  1  0  0  0
 29 30  1  0  0  0
 57 60  1  0  0  0
 57 61  1  0  0  0
 30 31  1  0  0  0
 44 49  1  0  0  0
 44 52  1  0  0  0
 31 32  1  0  0  0
 45 46  1  0  0  0
 45 50  1  0  0  0
 32 33  1  0  0  0
 53 54  1  0  0  0
 53 55  1  0  0  0
 33 34  1  0  0  0
 34 35  1  0  0  0
 35 36  1  0  0  0
 58 60  1  0  0  0
 36 37  1  0  0  0
 59 60  1  0  0  0
 59 62  1  0  0  0
 37 38  1  0  0  0
 38 39  1  0  0  0
 39 40  1  0  0  0
  4  6  1  0  0  0
  6  7  1  0  0  0
  7  8  1  0  0  0
  8  9  1  0  0  0
  9 10  1  0  0  0
 10 11  1  0  0  0
 11 12  1  0  0  0
 12 13  1  0  0  0
 13 14  1  0  0  0
 14 15  1  0  0  0
 15 16  1  0  0  0
 16 17  1  0  0  0
 17 18  1  0  0  0
 18 19  1  0  0  0
 19 20  1  0  0  0
 20 21  1  0  0  0
 21 22  1  0  0  0
 46 47  1  0  0  0
 47 48  1  0  0  0
 48 49  1  0  0  0
 49 50  1  0  0  0
 50 54  1  0  0  0
M  CHG 1  58  -1
M  END
> <minimizedAffinity>
-9.41993

> <CNNscore>
0.2026830316

> <CNNaffinity>
7.0324797630

> <CNN_VS>
1.4253643751

> <CNNaffinity_variance>
1.6049482822

$$$$
/media/chris/experiments/cd1a-new-docking/inputs/ligands/1onq_ligand.pdb


 62 62  0  0  0  0  0  0  0  0999 V2000
  -40.9504   60.7410   63.6711 C   0  0  0  0  0  0  0  0  0  0  0  0
  -41.6818   59.5445   64.0381 N   0  0  0  0  0  0  0  0  0  0  0  0
  -42.0134   59.8539   66.2611 O   0  0  0  0  0  0  0  0  0  0  0  0
  -42.1425   59.1958   65.2471 C   0  0  0  0  0  0  0  0  0  0  0  0
  -41.8625   58.9090   63.3082 H   0  0  0  0  0  0  0  0  0  0  0  0
  -42.8738   57.8872   65.2978 C   0  0  0  0  0  0  0  0  0  0  0  0
  -44.1605   58.0784   64.4948 C   0  0  0  0  0  0  0  0  0  0  0  0
  -45.3256   58.3685   65.4380 C   0  0  0  0  0  0  0  0  0  0  0  0
  -46.1379   59.6026   65.1290 C   0  0  0  0  0  0  0  0  0  0  0  0
  -47.3970   59.1537   64.3947 C   0  0  0  0  0  0  0  0  0  0  0  0
  -48.2707   58.2136   65.2359 C   0  0  0  0  0  0  0  0  0  0  0  0
  -49.7820   58.3558   64.9783 C   0  0  0  0  0  0  0  0  0  0  0  0
  -50.3332   59.7394   65.3873 C   0  0  0  0  0  0  0  0  0  0  0  0
  -51.1715   60.3424   64.2565 C   0  0  0  0  0  0  0  0  0  0  0  0
  -51.1689   59.5468   62.9569 C   0  0  0  0  0  0  0  0  0  0  0  0
  -50.1512   60.0768   61.9576 C   0  0  0  0  0  0  0  0  0  0  0  0
  -49.3133   59.0229   61.2301 C   0  0  0  0  0  0  0  0  0  0  0  0
  -50.1688   58.4126   60.1281 C   0  0  0  0  0  0  0  0  0  0  0  0
  -49.4773   57.6656   58.9972 C   0  0  0  0  0  0  0  0  0  0  0  0
  -48.5837   56.5420   59.5460 C   0  0  0  0  0  0  0  0  0  0  0  0
  -47.3093   56.2798   58.7226 C   0  0  0  0  0  0  0  0  0  0  0  0
  -47.5765   56.1323   57.2265 C   0  0  0  0  0  0  0  0  0  0  0  0
  -42.8601   61.5115   62.5963 O   0  0  0  0  0  0  0  0  0  0  0  0
  -41.5398   61.0860   62.3143 C   0  0  0  0  0  0  0  0  0  0  0  0
  -42.8321   62.2975   63.1639 H   0  0  0  0  0  0  0  0  0  0  0  0
  -41.5126   59.8447   61.4193 C   0  0  0  0  0  0  0  0  0  0  0  0
  -41.1485   59.8827   60.1262 C   0  0  0  0  0  0  0  0  0  0  0  0
  -41.1485   58.5989   59.2983 C   0  0  0  0  0  0  0  0  0  0  0  0
  -39.7697   57.9326   59.1844 C   0  0  0  0  0  0  0  0  0  0  0  0
  -38.5621   58.8867   59.2354 C   0  0  0  0  0  0  0  0  0  0  0  0
  -37.7457   58.6704   60.5324 C   0  0  0  0  0  0  0  0  0  0  0  0
  -38.2234   57.4990   61.4273 C   0  0  0  0  0  0  0  0  0  0  0  0
  -37.7311   57.5789   62.8915 C   0  0  0  0  0  0  0  0  0  0  0  0
  -36.2895   58.1143   63.0301 C   0  0  0  0  0  0  0  0  0  0  0  0
  -35.7840   58.1602   64.4771 C   0  0  0  0  0  0  0  0  0  0  0  0
  -34.2679   58.1925   64.6579 C   0  0  0  0  0  0  0  0  0  0  0  0
  -33.6075   59.4982   64.1730 C   0  0  0  0  0  0  0  0  0  0  0  0
  -32.5715   59.3305   63.0511 C   0  0  0  0  0  0  0  0  0  0  0  0
  -31.9765   60.6821   62.6456 C   0  0  0  0  0  0  0  0  0  0  0  0
  -31.1140   60.6925   61.3961 C   0  0  0  0  0  0  0  0  0  0  0  0
  -39.4111   60.6337   63.7597 C   0  0  0  0  0  0  0  0  0  0  0  0
  -38.6541   61.7869   63.3120 O   0  0  0  0  0  0  0  0  0  0  0  0
  -36.6007   63.1480   61.8603 O   0  0  0  0  0  0  0  0  0  0  0  0
  -35.7659   64.7866   65.6043 O   0  0  0  0  0  0  0  0  0  0  0  0
  -37.2430   62.1700   65.2478 O   0  0  0  0  0  0  0  0  0  0  0  0
  -37.2865   62.0435   63.8058 C   0  0  0  0  0  0  0  0  0  0  0  0
  -36.5897   63.2926   63.2471 C   0  0  0  0  0  0  0  0  0  0  0  0
  -35.1233   63.4432   63.7076 C   0  0  0  0  0  0  0  0  0  0  0  0
  -35.1630   63.5576   65.2065 C   0  0  0  0  0  0  0  0  0  0  0  0
  -35.9113   62.3740   65.7925 C   0  0  0  0  0  0  0  0  0  0  0  0
  -37.5154   63.0520   61.5525 H   0  0  0  0  0  0  0  0  0  0  0  0
  -35.2727   65.5281   65.2195 H   0  0  0  0  0  0  0  0  0  0  0  0
  -34.5757   63.1676   67.6091 O   0  0  0  0  0  0  0  0  0  0  0  0
  -35.8456   62.6860   67.2860 C   0  0  0  0  0  0  0  0  0  0  0  0
  -34.5366   63.3650   68.5580 H   0  0  0  0  0  0  0  0  0  0  0  0
  -34.4269   64.6179   63.2333 O   0  0  0  0  0  0  0  0  0  0  0  0
  -33.6793   63.5599   60.9885 O   0  0  0  0  0  0  0  0  0  0  0  0
  -32.0083   64.1752   62.6372 O   0  0  0  0  0  0  0  0  0  0  0  0
  -33.1110   65.8862   61.3217 O   0  0  0  0  0  0  0  0  0  0  0  0
  -33.2969   64.5780   62.0112 S   0  0  0  0  0  0  0  0  0  0  0  0
  -33.8048   62.7000   61.4196 H   0  0  0  0  0  0  0  0  0  0  0  0
  -33.9469   66.1566   60.9105 H   0  0  0  0  0  0  0  0  0  0  0  0
  2  1  1  0  0  0
  2  4  1  0  0  0
  2  5  1  0  0  0
 41 42  1  0  0  0
 41  1  1  0  0  0
 42 46  1  0  0  0
  1 24  1  0  0  0
 23 24  1  0  0  0
 23 25  1  0  0  0
 24 26  1  0  0  0
  3  4  2  0  0  0
 26 27  2  0  0  0
 27 28  1  0  0  0
 43 47  1  0  0  0
 43 51  1  0  0  0
 28 29  1  0  0  0
 56 48  1  0  0  0
 56 60  1  0  0  0
 29 30  1  0  0  0
 57 60  1  0  0  0
 57 61  1  0  0  0
 30 31  1  0  0  0
 44 49  1  0  0  0
 44 52  1  0  0  0
 31 32  1  0  0  0
 45 46  1  0  0  0
 45 50  1  0  0  0
 32 33  1  0  0  0
 53 54  1  0  0  0
 53 55  1  0  0  0
 33 34  1  0  0  0
 34 35  1  0  0  0
 35 36  1  0  0  0
 58 60  1  0  0  0
 36 37  1  0  0  0
 59 60  1  0  0  0
 59 62  1  0  0  0
 37 38  1  0  0  0
 38 39  1  0  0  0
 39 40  1  0  0  0
  4  6  1  0  0  0
  6  7  1  0  0  0
  7  8  1  0  0  0
  8  9  1  0  0  0
  9 10  1  0  0  0
 10 11  1  0  0  0
 11 12  1  0  0  0
 12 13  1  0  0  0
 13 14  1  0  0  0
 14 15  1  0  0  0
 15 16  1  0  0  0
 16 17  1  0  0  0
 17 18  1  0  0  0
 18 19  1  0  0  0
 19 20  1  0  0  0
 20 21  1  0  0  0
 21 22  1  0  0  0
 46 47  1  0  0  0
 47 48  1  0  0  0
 48 49  1  0  0  0
 49 50  1  0  0  0
 50 54  1  0  0  0
M  CHG 1  58  -1
M  END
> <minimizedAffinity>
-9.23355

> <CNNscore>
0.1768379956

> <CNNaffinity>
7.0458974838

> <CNN_VS>
1.2459824085

> <CNNaffinity_variance>
1.0535873175

$$$$
/media/chris/experiments/cd1a-new-docking/inputs/ligands/1onq_ligand.pdb


 62 62  0  0  0  0  0  0  0  0999 V2000
  -42.5039   58.8622   64.7005 C   0  0  0  0  0  0  0  0  0  0  0  0
  -41.1136   58.8374   65.1098 N   0  0  0  0  0  0  0  0  0  0  0  0
  -40.1998   57.4106   63.6010 O   0  0  0  0  0  0  0  0  0  0  0  0
  -40.1030   58.1487   64.5619 C   0  0  0  0  0  0  0  0  0  0  0  0
  -40.8831   59.3961   65.8869 H   0  0  0  0  0  0  0  0  0  0  0  0
  -38.7684   58.3448   65.2177 C   0  0  0  0  0  0  0  0  0  0  0  0
  -37.7163   57.9077   64.1983 C   0  0  0  0  0  0  0  0  0  0  0  0
  -36.3537   57.7833   64.8758 C   0  0  0  0  0  0  0  0  0  0  0  0
  -35.1500   57.9250   63.9762 C   0  0  0  0  0  0  0  0  0  0  0  0
  -34.0989   58.7277   64.7356 C   0  0  0  0  0  0  0  0  0  0  0  0
  -32.6995   58.6065   64.1178 C   0  0  0  0  0  0  0  0  0  0  0  0
  -32.5501   59.2981   62.7504 C   0  0  0  0  0  0  0  0  0  0  0  0
  -31.1902   60.0114   62.5836 C   0  0  0  0  0  0  0  0  0  0  0  0
  -31.3558   61.3109   61.7906 C   0  0  0  0  0  0  0  0  0  0  0  0
  -31.9276   62.4810   62.5820 C   0  0  0  0  0  0  0  0  0  0  0  0
  -32.7763   63.4022   61.7181 C   0  0  0  0  0  0  0  0  0  0  0  0
  -33.3781   64.6189   62.4249 C   0  0  0  0  0  0  0  0  0  0  0  0
  -32.4439   65.0212   63.5580 C   0  0  0  0  0  0  0  0  0  0  0  0
  -33.0432   65.3332   64.9213 C   0  0  0  0  0  0  0  0  0  0  0  0
  -32.4650   64.4053   66.0015 C   0  0  0  0  0  0  0  0  0  0  0  0
  -33.5089   63.5244   66.7122 C   0  0  0  0  0  0  0  0  0  0  0  0
  -34.9417   63.8066   66.2662 C   0  0  0  0  0  0  0  0  0  0  0  0
  -43.0410   56.6445   64.2654 O   0  0  0  0  0  0  0  0  0  0  0  0
  -43.0540   57.5888   65.3198 C   0  0  0  0  0  0  0  0  0  0  0  0
  -42.1290   56.5087   63.9643 H   0  0  0  0  0  0  0  0  0  0  0  0
  -44.4685   57.8497   65.8430 C   0  0  0  0  0  0  0  0  0  0  0  0
  -44.9301   59.0806   66.1221 C   0  0  0  0  0  0  0  0  0  0  0  0
  -46.3553   59.2582   66.6423 C   0  0  0  0  0  0  0  0  0  0  0  0
  -47.3896   59.5324   65.5408 C   0  0  0  0  0  0  0  0  0  0  0  0
  -48.7731   60.0018   66.0275 C   0  0  0  0  0  0  0  0  0  0  0  0
  -49.9017   59.2424   65.2893 C   0  0  0  0  0  0  0  0  0  0  0  0
  -50.9751   60.1385   64.6212 C   0  0  0  0  0  0  0  0  0  0  0  0
  -51.1068   59.9371   63.0932 C   0  0  0  0  0  0  0  0  0  0  0  0
  -49.7767   60.1158   62.3298 C   0  0  0  0  0  0  0  0  0  0  0  0
  -49.6740   59.2626   61.0598 C   0  0  0  0  0  0  0  0  0  0  0  0
  -49.8327   57.7554   61.2489 C   0  0  0  0  0  0  0  0  0  0  0  0
  -49.2584   56.9155   60.0909 C   0  0  0  0  0  0  0  0  0  0  0  0
  -47.9727   57.4674   59.4566 C   0  0  0  0  0  0  0  0  0  0  0  0
  -48.1595   57.7082   57.9558 C   0  0  0  0  0  0  0  0  0  0  0  0
  -46.9561   58.2480   57.2037 C   0  0  0  0  0  0  0  0  0  0  0  0
  -42.7491   59.0686   63.1885 C   0  0  0  0  0  0  0  0  0  0  0  0
  -42.3779   60.3596   62.6419 O   0  0  0  0  0  0  0  0  0  0  0  0
  -39.8879   61.4684   63.5063 O   0  0  0  0  0  0  0  0  0  0  0  0
  -38.3070   58.4170   61.1424 O   0  0  0  0  0  0  0  0  0  0  0  0
  -41.1023   59.5106   60.7611 O   0  0  0  0  0  0  0  0  0  0  0  0
  -41.1755   60.5172   61.7997 C   0  0  0  0  0  0  0  0  0  0  0  0
  -39.8268   60.4725   62.5323 C   0  0  0  0  0  0  0  0  0  0  0  0
  -38.6149   60.7606   61.6193 C   0  0  0  0  0  0  0  0  0  0  0  0
  -38.6152   59.6849   60.5685 C   0  0  0  0  0  0  0  0  0  0  0  0
  -39.9626   59.6491   59.8703 C   0  0  0  0  0  0  0  0  0  0  0  0
  -40.6446   61.3036   64.0902 H   0  0  0  0  0  0  0  0  0  0  0  0
  -37.4436   58.4625   61.5823 H   0  0  0  0  0  0  0  0  0  0  0  0
  -38.4784   58.5988   58.3185 O   0  0  0  0  0  0  0  0  0  0  0  0
  -39.7555   58.5093   58.8752 C   0  0  0  0  0  0  0  0  0  0  0  0
  -38.3495   57.8739   57.6870 H   0  0  0  0  0  0  0  0  0  0  0  0
  -37.3163   60.7039   62.2520 O   0  0  0  0  0  0  0  0  0  0  0  0
  -37.2906   63.1648   63.0649 O   0  0  0  0  0  0  0  0  0  0  0  0
  -35.3282   61.7752   63.3926 O   0  0  0  0  0  0  0  0  0  0  0  0
  -37.2879   61.4653   64.7846 O   0  0  0  0  0  0  0  0  0  0  0  0
  -36.8162   61.7917   63.4090 S   0  0  0  0  0  0  0  0  0  0  0  0
  -36.9924   63.3953   62.1710 H   0  0  0  0  0  0  0  0  0  0  0  0
  -38.2577   61.4738   64.8044 H   0  0  0  0  0  0  0  0  0  0  0  0
  2  1  1  0  0  0
  2  4  1  0  0  0
  2  5  1  0  0  0
 41 42  1  0  0  0
 41  1  1  0  0  0
 42 46  1  0  0  0
  1 24  1  0  0  0
 23 24  1  0  0  0
 23 25  1  0  0  0
 24 26  1  0  0  0
  3  4  2  0  0  0
 26 27  2  0  0  0
 27 28  1  0  0  0
 43 47  1  0  0  0
 43 51  1  0  0  0
 28 29  1  0  0  0
 56 48  1  0  0  0
 56 60  1  0  0  0
 29 30  1  0  0  0
 57 60  1  0  0  0
 57 61  1  0  0  0
 30 31  1  0  0  0
 44 49  1  0  0  0
 44 52  1  0  0  0
 31 32  1  0  0  0
 45 46  1  0  0  0
 45 50  1  0  0  0
 32 33  1  0  0  0
 53 54  1  0  0  0
 53 55  1  0  0  0
 33 34  1  0  0  0
 34 35  1  0  0  0
 35 36  1  0  0  0
 58 60  1  0  0  0
 36 37  1  0  0  0
 59 60  1  0  0  0
 59 62  1  0  0  0
 37 38  1  0  0  0
 38 39  1  0  0  0
 39 40  1  0  0  0
  4  6  1  0  0  0
  6  7  1  0  0  0
  7  8  1  0  0  0
  8  9  1  0  0  0
  9 10  1  0  0  0
 10 11  1  0  0  0
 11 12  1  0  0  0
 12 13  1  0  0  0
 13 14  1  0  0  0
 14 15  1  0  0  0
 15 16  1  0  0  0
 16 17  1  0  0  0
 17 18  1  0  0  0
 18 19  1  0  0  0
 19 20  1  0  0  0
 20 21  1  0  0  0
 21 22  1  0  0  0
 46 47  1  0  0  0
 47 48  1  0  0  0
 48 49  1  0  0  0
 49 50  1  0  0  0
 50 54  1  0  0  0
M  CHG 1  58  -1
M  END
> <minimizedAffinity>
-9.00519

> <CNNscore>
0.1653417498

> <CNNaffinity>
6.7545614243

> <CNN_VS>
1.1168110371

> <CNNaffinity_variance>
1.0990744829

$$$$
/media/chris/experiments/cd1a-new-docking/inputs/ligands/1onq_ligand.pdb


 62 62  0  0  0  0  0  0  0  0999 V2000
  -40.3090   59.9765   64.0204 C   0  0  0  0  0  0  0  0  0  0  0  0
  -41.4614   60.6543   64.5805 N   0  0  0  0  0  0  0  0  0  0  0  0
  -43.0142   60.3770   62.9498 O   0  0  0  0  0  0  0  0  0  0  0  0
  -42.6772   60.8033   64.0372 C   0  0  0  0  0  0  0  0  0  0  0  0
  -41.3350   61.0550   65.4709 H   0  0  0  0  0  0  0  0  0  0  0  0
  -43.6644   61.5549   64.8800 C   0  0  0  0  0  0  0  0  0  0  0  0
  -45.0385   61.3176   64.2534 C   0  0  0  0  0  0  0  0  0  0  0  0
  -45.8500   60.3602   65.1230 C   0  0  0  0  0  0  0  0  0  0  0  0
  -47.0757   59.7574   64.4805 C   0  0  0  0  0  0  0  0  0  0  0  0
  -47.8412   59.0052   65.5641 C   0  0  0  0  0  0  0  0  0  0  0  0
  -49.0391   59.7986   66.1030 C   0  0  0  0  0  0  0  0  0  0  0  0
  -50.3959   59.3749   65.5113 C   0  0  0  0  0  0  0  0  0  0  0  0
  -50.9392   60.3818   64.4737 C   0  0  0  0  0  0  0  0  0  0  0  0
  -51.1745   59.6941   63.1259 C   0  0  0  0  0  0  0  0  0  0  0  0
  -50.4314   58.3774   62.9352 C   0  0  0  0  0  0  0  0  0  0  0  0
  -49.3377   58.4791   61.8822 C   0  0  0  0  0  0  0  0  0  0  0  0
  -49.6508   59.3628   60.6726 C   0  0  0  0  0  0  0  0  0  0  0  0
  -49.0134   58.7295   59.4432 C   0  0  0  0  0  0  0  0  0  0  0  0
  -48.1052   57.5234   59.6320 C   0  0  0  0  0  0  0  0  0  0  0  0
  -48.1446   56.6071   58.3986 C   0  0  0  0  0  0  0  0  0  0  0  0
  -47.9673   57.3373   57.0547 C   0  0  0  0  0  0  0  0  0  0  0  0
  -46.7385   58.2429   57.0167 C   0  0  0  0  0  0  0  0  0  0  0  0
  -39.1989   60.3762   66.0213 O   0  0  0  0  0  0  0  0  0  0  0  0
  -39.6949   59.3068   65.2377 C   0  0  0  0  0  0  0  0  0  0  0  0
  -39.9339   60.9516   66.2852 H   0  0  0  0  0  0  0  0  0  0  0  0
  -38.5821   58.3577   64.7868 C   0  0  0  0  0  0  0  0  0  0  0  0
  -37.2785   58.6038   65.0021 C   0  0  0  0  0  0  0  0  0  0  0  0
  -36.2268   57.6064   64.5198 C   0  0  0  0  0  0  0  0  0  0  0  0
  -35.9783   57.6488   63.0050 C   0  0  0  0  0  0  0  0  0  0  0  0
  -37.2249   57.4655   62.1197 C   0  0  0  0  0  0  0  0  0  0  0  0
  -37.3885   58.6588   61.1477 C   0  0  0  0  0  0  0  0  0  0  0  0
  -38.3220   58.4032   59.9375 C   0  0  0  0  0  0  0  0  0  0  0  0
  -39.8268   58.5777   60.2501 C   0  0  0  0  0  0  0  0  0  0  0  0
  -40.7082   57.4349   59.7015 C   0  0  0  0  0  0  0  0  0  0  0  0
  -41.2435   56.4925   60.7862 C   0  0  0  0  0  0  0  0  0  0  0  0
  -40.7489   56.7546   62.2071 C   0  0  0  0  0  0  0  0  0  0  0  0
  -41.6370   56.1338   63.3035 C   0  0  0  0  0  0  0  0  0  0  0  0
  -42.6942   57.0749   63.9006 C   0  0  0  0  0  0  0  0  0  0  0  0
  -42.5279   57.1965   65.4180 C   0  0  0  0  0  0  0  0  0  0  0  0
  -43.7468   57.6600   66.1959 C   0  0  0  0  0  0  0  0  0  0  0  0
  -39.3744   60.8546   63.1577 C   0  0  0  0  0  0  0  0  0  0  0  0
  -38.8003   62.0192   63.8037 O   0  0  0  0  0  0  0  0  0  0  0  0
  -36.7670   62.7461   61.9292 O   0  0  0  0  0  0  0  0  0  0  0  0
  -35.1862   64.7623   65.2208 O   0  0  0  0  0  0  0  0  0  0  0  0
  -37.1000   62.4335   65.4838 O   0  0  0  0  0  0  0  0  0  0  0  0
  -37.3557   62.0967   64.0987 C   0  0  0  0  0  0  0  0  0  0  0  0
  -36.5476   63.0978   63.2605 C   0  0  0  0  0  0  0  0  0  0  0  0
  -35.0279   63.0493   63.5310 C   0  0  0  0  0  0  0  0  0  0  0  0
  -34.8480   63.3981   64.9827 C   0  0  0  0  0  0  0  0  0  0  0  0
  -35.6922   62.4741   65.8416 C   0  0  0  0  0  0  0  0  0  0  0  0
  -37.7180   62.7712   61.7406 H   0  0  0  0  0  0  0  0  0  0  0  0
  -34.6358   65.3340   64.6629 H   0  0  0  0  0  0  0  0  0  0  0  0
  -36.3235   63.9544   67.6090 O   0  0  0  0  0  0  0  0  0  0  0  0
  -35.3780   62.9950   67.2424 C   0  0  0  0  0  0  0  0  0  0  0  0
  -36.1217   64.2836   68.4989 H   0  0  0  0  0  0  0  0  0  0  0  0
  -34.2209   63.9912   62.7884 O   0  0  0  0  0  0  0  0  0  0  0  0
  -32.5780   64.2971   60.8074 O   0  0  0  0  0  0  0  0  0  0  0  0
  -32.7620   62.1313   61.8866 O   0  0  0  0  0  0  0  0  0  0  0  0
  -31.5838   63.9435   62.9829 O   0  0  0  0  0  0  0  0  0  0  0  0
  -32.7479   63.6014   62.1173 S   0  0  0  0  0  0  0  0  0  0  0  0
  -33.3278   64.0858   60.2295 H   0  0  0  0  0  0  0  0  0  0  0  0
  -31.5670   64.9008   63.1386 H   0  0  0  0  0  0  0  0  0  0  0  0
  2  1  1  0  0  0
  2  4  1  0  0  0
  2  5  1  0  0  0
 41 42  1  0  0  0
 41  1  1  0  0  0
 42 46  1  0  0  0
  1 24  1  0  0  0
 23 24  1  0  0  0
 23 25  1  0  0  0
 24 26  1  0  0  0
  3  4  2  0  0  0
 26 27  2  0  0  0
 27 28  1  0  0  0
 43 47  1  0  0  0
 43 51  1  0  0  0
 28 29  1  0  0  0
 56 48  1  0  0  0
 56 60  1  0  0  0
 29 30  1  0  0  0
 57 60  1  0  0  0
 57 61  1  0  0  0
 30 31  1  0  0  0
 44 49  1  0  0  0
 44 52  1  0  0  0
 31 32  1  0  0  0
 45 46  1  0  0  0
 45 50  1  0  0  0
 32 33  1  0  0  0
 53 54  1  0  0  0
 53 55  1  0  0  0
 33 34  1  0  0  0
 34 35  1  0  0  0
 35 36  1  0  0  0
 58 60  1  0  0  0
 36 37  1  0  0  0
 59 60  1  0  0  0
 59 62  1  0  0  0
 37 38  1  0  0  0
 38 39  1  0  0  0
 39 40  1  0  0  0
  4  6  1  0  0  0
  6  7  1  0  0  0
  7  8  1  0  0  0
  8  9  1  0  0  0
  9 10  1  0  0  0
 10 11  1  0  0  0
 11 12  1  0  0  0
 12 13  1  0  0  0
 13 14  1  0  0  0
 14 15  1  0  0  0
 15 16  1  0  0  0
 16 17  1  0  0  0
 17 18  1  0  0  0
 18 19  1  0  0  0
 19 20  1  0  0  0
 20 21  1  0  0  0
 21 22  1  0  0  0
 46 47  1  0  0  0
 47 48  1  0  0  0
 48 49  1  0  0  0
 49 50  1  0  0  0
 50 54  1  0  0  0
M  CHG 1  58  -1
M  END
> <minimizedAffinity>
-9.67442

> <CNNscore>
0.1595096439

> <CNNaffinity>
7.1311964989

> <CNN_VS>
1.1374945641

> <CNNaffinity_variance>
1.2616113424

$$$$
/media/chris/experiments/cd1a-new-docking/inputs/ligands/1onq_ligand.pdb


 62 62  0  0  0  0  0  0  0  0999 V2000
  -41.7195   60.5345   64.6438 C   0  0  0  0  0  0  0  0  0  0  0  0
  -42.5033   59.3152   64.6395 N   0  0  0  0  0  0  0  0  0  0  0  0
  -41.9140   58.3653   66.6138 O   0  0  0  0  0  0  0  0  0  0  0  0
  -42.5479   58.3583   65.5765 C   0  0  0  0  0  0  0  0  0  0  0  0
  -43.0738   59.1723   63.8500 H   0  0  0  0  0  0  0  0  0  0  0  0
  -43.4726   57.2158   65.2777 C   0  0  0  0  0  0  0  0  0  0  0  0
  -44.8879   57.7939   65.2722 C   0  0  0  0  0  0  0  0  0  0  0  0
  -45.3345   58.0933   66.7012 C   0  0  0  0  0  0  0  0  0  0  0  0
  -46.7097   58.6968   66.8538 C   0  0  0  0  0  0  0  0  0  0  0  0
  -46.7345   59.9952   66.0541 C   0  0  0  0  0  0  0  0  0  0  0  0
  -47.9682   60.1104   65.1487 C   0  0  0  0  0  0  0  0  0  0  0  0
  -49.3087   59.9055   65.8777 C   0  0  0  0  0  0  0  0  0  0  0  0
  -50.2647   58.9569   65.1213 C   0  0  0  0  0  0  0  0  0  0  0  0
  -50.8983   59.6711   63.9240 C   0  0  0  0  0  0  0  0  0  0  0  0
  -50.8959   58.8763   62.6238 C   0  0  0  0  0  0  0  0  0  0  0  0
  -49.5456   58.9188   61.9238 C   0  0  0  0  0  0  0  0  0  0  0  0
  -49.5705   59.2916   60.4397 C   0  0  0  0  0  0  0  0  0  0  0  0
  -49.8568   58.0298   59.6369 C   0  0  0  0  0  0  0  0  0  0  0  0
  -49.0831   56.7625   59.9697 C   0  0  0  0  0  0  0  0  0  0  0  0
  -48.1803   56.3458   58.7978 C   0  0  0  0  0  0  0  0  0  0  0  0
  -47.0430   57.3354   58.4845 C   0  0  0  0  0  0  0  0  0  0  0  0
  -47.1542   57.9639   57.0973 C   0  0  0  0  0  0  0  0  0  0  0  0
  -43.7296   61.2856   63.7543 O   0  0  0  0  0  0  0  0  0  0  0  0
  -42.3368   61.3286   63.5054 C   0  0  0  0  0  0  0  0  0  0  0  0
  -43.9191   61.7099   64.6057 H   0  0  0  0  0  0  0  0  0  0  0  0
  -41.9687   60.6732   62.1722 C   0  0  0  0  0  0  0  0  0  0  0  0
  -41.5627   61.3740   61.0997 C   0  0  0  0  0  0  0  0  0  0  0  0
  -41.2139   60.6456   59.8030 C   0  0  0  0  0  0  0  0  0  0  0  0
  -39.7831   60.0891   59.7681 C   0  0  0  0  0  0  0  0  0  0  0  0
  -39.6396   58.6525   59.2324 C   0  0  0  0  0  0  0  0  0  0  0  0
  -40.9837   57.8918   59.3336 C   0  0  0  0  0  0  0  0  0  0  0  0
  -40.9975   56.7022   60.3267 C   0  0  0  0  0  0  0  0  0  0  0  0
  -41.4793   57.0706   61.7497 C   0  0  0  0  0  0  0  0  0  0  0  0
  -40.3473   57.0894   62.7995 C   0  0  0  0  0  0  0  0  0  0  0  0
  -38.9400   57.0827   62.1904 C   0  0  0  0  0  0  0  0  0  0  0  0
  -37.9899   58.1721   62.6834 C   0  0  0  0  0  0  0  0  0  0  0  0
  -36.5586   58.0547   62.1233 C   0  0  0  0  0  0  0  0  0  0  0  0
  -35.4593   58.6717   63.0012 C   0  0  0  0  0  0  0  0  0  0  0  0
  -34.0683   58.2573   62.5127 C   0  0  0  0  0  0  0  0  0  0  0  0
  -32.9721   59.3012   62.6319 C   0  0  0  0  0  0  0  0  0  0  0  0
  -40.1865   60.3407   64.6123 C   0  0  0  0  0  0  0  0  0  0  0  0
  -39.3992   61.4719   64.1610 O   0  0  0  0  0  0  0  0  0  0  0  0
  -37.3536   61.7816   62.1870 O   0  0  0  0  0  0  0  0  0  0  0  0
  -35.6944   64.3116   65.0584 O   0  0  0  0  0  0  0  0  0  0  0  0
  -37.6784   62.1309   65.7391 O   0  0  0  0  0  0  0  0  0  0  0  0
  -37.9514   61.5562   64.4380 C   0  0  0  0  0  0  0  0  0  0  0  0
  -37.1168   62.3623   63.4324 C   0  0  0  0  0  0  0  0  0  0  0  0
  -35.5980   62.3159   63.7084 C   0  0  0  0  0  0  0  0  0  0  0  0
  -35.4000   62.9169   65.0725 C   0  0  0  0  0  0  0  0  0  0  0  0
  -36.2682   62.1914   66.0845 C   0  0  0  0  0  0  0  0  0  0  0  0
  -38.3044   61.8019   61.9964 H   0  0  0  0  0  0  0  0  0  0  0  0
  -35.1293   64.7548   64.4063 H   0  0  0  0  0  0  0  0  0  0  0  0
  -34.5475   63.1038   67.4703 O   0  0  0  0  0  0  0  0  0  0  0  0
  -35.9310   62.9481   67.3675 C   0  0  0  0  0  0  0  0  0  0  0  0
  -34.3360   63.5845   68.2858 H   0  0  0  0  0  0  0  0  0  0  0  0
  -34.7658   63.0813   62.8074 O   0  0  0  0  0  0  0  0  0  0  0  0
  -35.7042   63.7938   60.4990 O   0  0  0  0  0  0  0  0  0  0  0  0
  -34.2442   65.3031   61.7154 O   0  0  0  0  0  0  0  0  0  0  0  0
  -36.5438   65.0002   62.4188 O   0  0  0  0  0  0  0  0  0  0  0  0
  -35.3480   64.3143   61.8521 S   0  0  0  0  0  0  0  0  0  0  0  0
  -34.9365   63.3432   60.1136 H   0  0  0  0  0  0  0  0  0  0  0  0
  -37.2687   64.3624   62.5114 H   0  0  0  0  0  0  0  0  0  0  0  0
  2  1  1  0  0  0
  2  4  1  0  0  0
  2  5  1  0  0  0
 41 42  1  0  0  0
 41  1  1  0  0  0
 42 46  1  0  0  0
  1 24  1  0  0  0
 23 24  1  0  0  0
 23 25  1  0  0  0
 24 26  1  0  0  0
  3  4  2  0  0  0
 26 27  2  0  0  0
 27 28  1  0  0  0
 43 47  1  0  0  0
 43 51  1  0  0  0
 28 29  1  0  0  0
 56 48  1  0  0  0
 56 60  1  0  0  0
 29 30  1  0  0  0
 57 60  1  0  0  0
 57 61  1  0  0  0
 30 31  1  0  0  0
 44 49  1  0  0  0
 44 52  1  0  0  0
 31 32  1  0  0  0
 45 46  1  0  0  0
 45 50  1  0  0  0
 32 33  1  0  0  0
 53 54  1  0  0  0
 53 55  1  0  0  0
 33 34  1  0  0  0
 34 35  1  0  0  0
 35 36  1  0  0  0
 58 60  1  0  0  0
 36 37  1  0  0  0
 59 60  1  0  0  0
 59 62  1  0  0  0
 37 38  1  0  0  0
 38 39  1  0  0  0
 39 40  1  0  0  0
  4  6  1  0  0  0
  6  7  1  0  0  0
  7  8  1  0  0  0
  8  9  1  0  0  0
  9 10  1  0  0  0
 10 11  1  0  0  0
 11 12  1  0  0  0
 12 13  1  0  0  0
 13 14  1  0  0  0
 14 15  1  0  0  0
 15 16  1  0  0  0
 16 17  1  0  0  0
 17 18  1  0  0  0
 18 19  1  0  0  0
 19 20  1  0  0  0
 20 21  1  0  0  0
 21 22  1  0  0  0
 46 47  1  0  0  0
 47 48  1  0  0  0
 48 49  1  0  0  0
 49 50  1  0  0  0
 50 54  1  0  0  0
M  CHG 1  58  -1
M  END
> <minimizedAffinity>
-9.60328

> <CNNscore>
0.1589454710

> <CNNaffinity>
7.1754770279

> <CNN_VS>
1.1405096054

> <CNNaffinity_variance>
1.7166635990

$$$$
/media/chris/experiments/cd1a-new-docking/inputs/ligands/1onq_ligand.pdb


 62 62  0  0  0  0  0  0  0  0999 V2000
  -42.2432   59.9594   63.3767 C   0  0  0  0  0  0  0  0  0  0  0  0
  -43.5499   59.9189   64.0030 N   0  0  0  0  0  0  0  0  0  0  0  0
  -44.0273   62.1233   64.2484 O   0  0  0  0  0  0  0  0  0  0  0  0
  -44.3183   60.9502   64.3791 C   0  0  0  0  0  0  0  0  0  0  0  0
  -43.9187   59.0220   64.1730 H   0  0  0  0  0  0  0  0  0  0  0  0
  -45.6324   60.5744   64.9967 C   0  0  0  0  0  0  0  0  0  0  0  0
  -45.3528   59.3920   65.9247 C   0  0  0  0  0  0  0  0  0  0  0  0
  -46.5904   59.0836   66.7638 C   0  0  0  0  0  0  0  0  0  0  0  0
  -47.8261   59.8897   66.4448 C   0  0  0  0  0  0  0  0  0  0  0  0
  -48.8442   58.9435   65.8171 C   0  0  0  0  0  0  0  0  0  0  0  0
  -50.2177   59.5981   65.6173 C   0  0  0  0  0  0  0  0  0  0  0  0
  -50.2641   60.6357   64.4808 C   0  0  0  0  0  0  0  0  0  0  0  0
  -51.1776   60.2054   63.3119 C   0  0  0  0  0  0  0  0  0  0  0  0
  -50.7912   58.8113   62.8096 C   0  0  0  0  0  0  0  0  0  0  0  0
  -49.4734   58.7427   62.0474 C   0  0  0  0  0  0  0  0  0  0  0  0
  -49.6025   59.2631   60.6234 C   0  0  0  0  0  0  0  0  0  0  0  0
  -50.0253   58.2369   59.5697 C   0  0  0  0  0  0  0  0  0  0  0  0
  -49.6542   56.8509   60.0795 C   0  0  0  0  0  0  0  0  0  0  0  0
  -48.3576   56.2187   59.5952 C   0  0  0  0  0  0  0  0  0  0  0  0
  -47.3808   57.2898   59.0846 C   0  0  0  0  0  0  0  0  0  0  0  0
  -46.9458   57.1106   57.6185 C   0  0  0  0  0  0  0  0  0  0  0  0
  -46.8719   58.4252   56.8453 C   0  0  0  0  0  0  0  0  0  0  0  0
  -41.7690   57.6868   63.4537 O   0  0  0  0  0  0  0  0  0  0  0  0
  -42.2293   58.6806   62.5570 C   0  0  0  0  0  0  0  0  0  0  0  0
  -42.3895   57.6078   64.1950 H   0  0  0  0  0  0  0  0  0  0  0  0
  -41.2920   58.8561   61.3598 C   0  0  0  0  0  0  0  0  0  0  0  0
  -40.7092   57.8223   60.7291 C   0  0  0  0  0  0  0  0  0  0  0  0
  -39.7842   58.0803   59.5410 C   0  0  0  0  0  0  0  0  0  0  0  0
  -38.3143   58.2917   59.9319 C   0  0  0  0  0  0  0  0  0  0  0  0
  -37.9314   57.8416   61.3539 C   0  0  0  0  0  0  0  0  0  0  0  0
  -36.4719   58.2390   61.6815 C   0  0  0  0  0  0  0  0  0  0  0  0
  -35.8720   57.5716   62.9448 C   0  0  0  0  0  0  0  0  0  0  0  0
  -34.8041   58.4268   63.6666 C   0  0  0  0  0  0  0  0  0  0  0  0
  -33.4224   58.3997   62.9779 C   0  0  0  0  0  0  0  0  0  0  0  0
  -32.3661   59.2626   63.6786 C   0  0  0  0  0  0  0  0  0  0  0  0
  -31.2369   59.7901   62.7959 C   0  0  0  0  0  0  0  0  0  0  0  0
  -31.7212   60.4706   61.5003 C   0  0  0  0  0  0  0  0  0  0  0  0
  -31.7544   62.0060   61.5402 C   0  0  0  0  0  0  0  0  0  0  0  0
  -30.9355   62.5432   62.7174 C   0  0  0  0  0  0  0  0  0  0  0  0
  -31.1391   64.0061   63.0698 C   0  0  0  0  0  0  0  0  0  0  0  0
  -41.0527   60.1906   64.3349 C   0  0  0  0  0  0  0  0  0  0  0  0
  -39.8251   59.4830   64.0258 O   0  0  0  0  0  0  0  0  0  0  0  0
  -38.7552   60.9970   61.8485 O   0  0  0  0  0  0  0  0  0  0  0  0
  -37.4849   63.5239   64.9144 O   0  0  0  0  0  0  0  0  0  0  0  0
  -38.1319   60.6012   65.3556 O   0  0  0  0  0  0  0  0  0  0  0  0
  -38.5212   60.1758   64.0271 C   0  0  0  0  0  0  0  0  0  0  0  0
  -38.4161   61.4198   63.1332 C   0  0  0  0  0  0  0  0  0  0  0  0
  -36.9985   62.0308   63.0845 C   0  0  0  0  0  0  0  0  0  0  0  0
  -36.6663   62.4352   64.4942 C   0  0  0  0  0  0  0  0  0  0  0  0
  -36.8311   61.2454   65.4223 C   0  0  0  0  0  0  0  0  0  0  0  0
  -39.6444   60.6097   61.8598 H   0  0  0  0  0  0  0  0  0  0  0  0
  -37.3641   64.2719   64.3086 H   0  0  0  0  0  0  0  0  0  0  0  0
  -35.3718   62.7172   66.6132 O   0  0  0  0  0  0  0  0  0  0  0  0
  -36.4643   61.8624   66.7703 C   0  0  0  0  0  0  0  0  0  0  0  0
  -35.1409   63.1076   67.4706 H   0  0  0  0  0  0  0  0  0  0  0  0
  -36.8484   63.2217   62.2788 O   0  0  0  0  0  0  0  0  0  0  0  0
  -35.8290   65.6042   62.2338 O   0  0  0  0  0  0  0  0  0  0  0  0
  -34.7200   63.8048   61.0415 O   0  0  0  0  0  0  0  0  0  0  0  0
  -34.5893   63.9282   63.4586 O   0  0  0  0  0  0  0  0  0  0  0  0
  -35.4701   64.1557   62.2780 S   0  0  0  0  0  0  0  0  0  0  0  0
  -36.4033   65.7718   61.4702 H   0  0  0  0  0  0  0  0  0  0  0  0
  -35.0708   64.1546   64.2696 H   0  0  0  0  0  0  0  0  0  0  0  0
  2  1  1  0  0  0
  2  4  1  0  0  0
  2  5  1  0  0  0
 41 42  1  0  0  0
 41  1  1  0  0  0
 42 46  1  0  0  0
  1 24  1  0  0  0
 23 24  1  0  0  0
 23 25  1  0  0  0
 24 26  1  0  0  0
  3  4  2  0  0  0
 26 27  2  0  0  0
 27 28  1  0  0  0
 43 47  1  0  0  0
 43 51  1  0  0  0
 28 29  1  0  0  0
 56 48  1  0  0  0
 56 60  1  0  0  0
 29 30  1  0  0  0
 57 60  1  0  0  0
 57 61  1  0  0  0
 30 31  1  0  0  0
 44 49  1  0  0  0
 44 52  1  0  0  0
 31 32  1  0  0  0
 45 46  1  0  0  0
 45 50  1  0  0  0
 32 33  1  0  0  0
 53 54  1  0  0  0
 53 55  1  0  0  0
 33 34  1  0  0  0
 34 35  1  0  0  0
 35 36  1  0  0  0
 58 60  1  0  0  0
 36 37  1  0  0  0
 59 60  1  0  0  0
 59 62  1  0  0  0
 37 38  1  0  0  0
 38 39  1  0  0  0
 39 40  1  0  0  0
  4  6  1  0  0  0
  6  7  1  0  0  0
  7  8  1  0  0  0
  8  9  1  0  0  0
  9 10  1  0  0  0
 10 11  1  0  0  0
 11 12  1  0  0  0
 12 13  1  0  0  0
 13 14  1  0  0  0
 14 15  1  0  0  0
 15 16  1  0  0  0
 16 17  1  0  0  0
 17 18  1  0  0  0
 18 19  1  0  0  0
 19 20  1  0  0  0
 20 21  1  0  0  0
 21 22  1  0  0  0
 46 47  1  0  0  0
 47 48  1  0  0  0
 48 49  1  0  0  0
 49 50  1  0  0  0
 50 54  1  0  0  0
M  CHG 1  58  -1
M  END
> <minimizedAffinity>
-8.68805

> <CNNscore>
0.1325073093

> <CNNaffinity>
6.7305364609

> <CNN_VS>
0.8918452859

> <CNNaffinity_variance>
0.8939986229

$$$$
/media/chris/experiments/cd1a-new-docking/inputs/ligands/1onq_ligand.pdb


 62 62  0  0  0  0  0  0  0  0999 V2000
  -39.7321   60.7036   63.5991 C   0  0  0  0  0  0  0  0  0  0  0  0
  -41.0345   61.2885   63.8498 N   0  0  0  0  0  0  0  0  0  0  0  0
  -42.3199   60.2769   62.2776 O   0  0  0  0  0  0  0  0  0  0  0  0
  -42.1853   61.0499   63.2062 C   0  0  0  0  0  0  0  0  0  0  0  0
  -41.0791   61.9424   64.5844 H   0  0  0  0  0  0  0  0  0  0  0  0
  -43.3708   61.8152   63.7147 C   0  0  0  0  0  0  0  0  0  0  0  0
  -44.0039   60.9564   64.8097 C   0  0  0  0  0  0  0  0  0  0  0  0
  -45.5031   60.8135   64.5590 C   0  0  0  0  0  0  0  0  0  0  0  0
  -46.0240   59.4019   64.4381 C   0  0  0  0  0  0  0  0  0  0  0  0
  -46.8214   59.0951   65.7014 C   0  0  0  0  0  0  0  0  0  0  0  0
  -47.8808   60.1622   66.0076 C   0  0  0  0  0  0  0  0  0  0  0  0
  -49.3065   59.7821   65.5679 C   0  0  0  0  0  0  0  0  0  0  0  0
  -49.7850   60.5748   64.3317 C   0  0  0  0  0  0  0  0  0  0  0  0
  -51.1706   60.0975   63.8874 C   0  0  0  0  0  0  0  0  0  0  0  0
  -51.1688   59.0729   62.7594 C   0  0  0  0  0  0  0  0  0  0  0  0
  -49.8368   58.3467   62.6414 C   0  0  0  0  0  0  0  0  0  0  0  0
  -49.0795   58.5433   61.3261 C   0  0  0  0  0  0  0  0  0  0  0  0
  -50.0077   58.1611   60.1811 C   0  0  0  0  0  0  0  0  0  0  0  0
  -49.3983   57.6010   58.9043 C   0  0  0  0  0  0  0  0  0  0  0  0
  -48.0749   56.8768   59.1983 C   0  0  0  0  0  0  0  0  0  0  0  0
  -47.0440   56.9420   58.0565 C   0  0  0  0  0  0  0  0  0  0  0  0
  -47.0291   58.2862   57.3321 C   0  0  0  0  0  0  0  0  0  0  0  0
  -39.5000   60.9260   65.8996 O   0  0  0  0  0  0  0  0  0  0  0  0
  -39.4590   59.9408   64.8840 C   0  0  0  0  0  0  0  0  0  0  0  0
  -40.3824   61.3279   65.9247 H   0  0  0  0  0  0  0  0  0  0  0  0
  -38.0888   59.2652   64.7909 C   0  0  0  0  0  0  0  0  0  0  0  0
  -37.8689   57.9990   65.1842 C   0  0  0  0  0  0  0  0  0  0  0  0
  -36.4709   57.3962   65.0599 C   0  0  0  0  0  0  0  0  0  0  0  0
  -35.8548   57.5381   63.6604 C   0  0  0  0  0  0  0  0  0  0  0  0
  -36.8126   57.2841   62.4817 C   0  0  0  0  0  0  0  0  0  0  0  0
  -36.9997   58.5690   61.6393 C   0  0  0  0  0  0  0  0  0  0  0  0
  -37.8987   58.4139   60.3867 C   0  0  0  0  0  0  0  0  0  0  0  0
  -39.3802   58.7927   60.6194 C   0  0  0  0  0  0  0  0  0  0  0  0
  -40.3759   57.7131   60.1430 C   0  0  0  0  0  0  0  0  0  0  0  0
  -41.1770   57.0669   61.2797 C   0  0  0  0  0  0  0  0  0  0  0  0
  -40.4022   56.7677   62.5613 C   0  0  0  0  0  0  0  0  0  0  0  0
  -41.2972   56.5498   63.7973 C   0  0  0  0  0  0  0  0  0  0  0  0
  -42.6628   57.2516   63.7487 C   0  0  0  0  0  0  0  0  0  0  0  0
  -43.3075   57.2967   65.1371 C   0  0  0  0  0  0  0  0  0  0  0  0
  -42.4726   57.9055   66.2497 C   0  0  0  0  0  0  0  0  0  0  0  0
  -38.6403   61.6887   63.1234 C   0  0  0  0  0  0  0  0  0  0  0  0
  -37.9598   62.4491   64.1539 O   0  0  0  0  0  0  0  0  0  0  0  0
  -35.5785   60.8906   63.8759 O   0  0  0  0  0  0  0  0  0  0  0  0
  -34.6754   63.7449   60.9714 O   0  0  0  0  0  0  0  0  0  0  0  0
  -36.6320   64.2533   63.2228 O   0  0  0  0  0  0  0  0  0  0  0  0
  -36.6046   62.9927   63.9351 C   0  0  0  0  0  0  0  0  0  0  0  0
  -35.6303   62.0893   63.1655 C   0  0  0  0  0  0  0  0  0  0  0  0
  -34.1982   62.6597   63.0712 C   0  0  0  0  0  0  0  0  0  0  0  0
  -34.3131   63.9644   62.3325 C   0  0  0  0  0  0  0  0  0  0  0  0
  -35.3260   64.8588   63.0240 C   0  0  0  0  0  0  0  0  0  0  0  0
  -36.4708   60.5171   63.9453 H   0  0  0  0  0  0  0  0  0  0  0  0
  -34.0158   63.1722   60.5495 H   0  0  0  0  0  0  0  0  0  0  0  0
  -36.4361   66.1164   61.3210 O   0  0  0  0  0  0  0  0  0  0  0  0
  -35.2970   66.0951   62.1278 C   0  0  0  0  0  0  0  0  0  0  0  0
  -36.4152   66.9024   60.7529 H   0  0  0  0  0  0  0  0  0  0  0  0
  -33.2451   61.8622   62.3325 O   0  0  0  0  0  0  0  0  0  0  0  0
  -33.4035   59.2806   62.1668 O   0  0  0  0  0  0  0  0  0  0  0  0
  -32.9806   60.3184   64.3194 O   0  0  0  0  0  0  0  0  0  0  0  0
  -31.2194   60.1935   62.6590 O   0  0  0  0  0  0  0  0  0  0  0  0
  -32.6830   60.3875   62.8629 S   0  0  0  0  0  0  0  0  0  0  0  0
  -34.3596   59.3902   62.2888 H   0  0  0  0  0  0  0  0  0  0  0  0
  -31.0164   60.2372   61.7114 H   0  0  0  0  0  0  0  0  0  0  0  0
  2  1  1  0  0  0
  2  4  1  0  0  0
  2  5  1  0  0  0
 41 42  1  0  0  0
 41  1  1  0  0  0
 42 46  1  0  0  0
  1 24  1  0  0  0
 23 24  1  0  0  0
 23 25  1  0  0  0
 24 26  1  0  0  0
  3  4  2  0  0  0
 26 27  2  0  0  0
 27 28  1  0  0  0
 43 47  1  0  0  0
 43 51  1  0  0  0
 28 29  1  0  0  0
 56 48  1  0  0  0
 56 60  1  0  0  0
 29 30  1  0  0  0
 57 60  1  0  0  0
 57 61  1  0  0  0
 30 31  1  0  0  0
 44 49  1  0  0  0
 44 52  1  0  0  0
 31 32  1  0  0  0
 45 46  1  0  0  0
 45 50  1  0  0  0
 32 33  1  0  0  0
 53 54  1  0  0  0
 53 55  1  0  0  0
 33 34  1  0  0  0
 34 35  1  0  0  0
 35 36  1  0  0  0
 58 60  1  0  0  0
 36 37  1  0  0  0
 59 60  1  0  0  0
 59 62  1  0  0  0
 37 38  1  0  0  0
 38 39  1  0  0  0
 39 40  1  0  0  0
  4  6  1  0  0  0
  6  7  1  0  0  0
  7  8  1  0  0  0
  8  9  1  0  0  0
  9 10  1  0  0  0
 10 11  1  0  0  0
 11 12  1  0  0  0
 12 13  1  0  0  0
 13 14  1  0  0  0
 14 15  1  0  0  0
 15 16  1  0  0  0
 16 17  1  0  0  0
 17 18  1  0  0  0
 18 19  1  0  0  0
 19 20  1  0  0  0
 20 21  1  0  0  0
 21 22  1  0  0  0
 46 47  1  0  0  0
 47 48  1  0  0  0
 48 49  1  0  0  0
 49 50  1  0  0  0
 50 54  1  0  0  0
M  CHG 1  58  -1
M  END
> <minimizedAffinity>
-8.79414

> <CNNscore>
0.1241335720

> <CNNaffinity>
7.0496873856

> <CNN_VS>
0.8751028776

> <CNNaffinity_variance>
1.2390828133

$$$$
