/media/chris/experiments/cd1a-new-docking/inputs/ligands/1onq_ligand.pdb


 62 62  0  0  0  0  0  0  0  0999 V2000
  -40.7881   59.7875   64.1772 C   0  0  0  0  0  0  0  0  0  0  0  0
  -41.2657   60.4744   65.3610 N   0  0  0  0  0  0  0  0  0  0  0  0
  -42.7073   61.7964   66.5107 O   0  0  0  0  0  0  0  0  0  0  0  0
  -42.3628   61.2331   65.4900 C   0  0  0  0  0  0  0  0  0  0  0  0
  -40.7158   60.3706   66.1709 H   0  0  0  0  0  0  0  0  0  0  0  0
  -43.1914   61.3724   64.2475 C   0  0  0  0  0  0  0  0  0  0  0  0
  -44.5808   60.8350   64.5907 C   0  0  0  0  0  0  0  0  0  0  0  0
  -44.5900   59.3115   64.4909 C   0  0  0  0  0  0  0  0  0  0  0  0
  -45.7504   58.6101   65.1544 C   0  0  0  0  0  0  0  0  0  0  0  0
  -47.0336   59.2523   64.6376 C   0  0  0  0  0  0  0  0  0  0  0  0
  -48.2954   58.5121   65.1011 C   0  0  0  0  0  0  0  0  0  0  0  0
  -49.3420   59.4124   65.7827 C   0  0  0  0  0  0  0  0  0  0  0  0
  -50.6074   59.6198   64.9219 C   0  0  0  0  0  0  0  0  0  0  0  0
  -50.3237   60.5868   63.7688 C   0  0  0  0  0  0  0  0  0  0  0  0
  -50.3567   59.9613   62.3796 C   0  0  0  0  0  0  0  0  0  0  0  0
  -50.9748   58.5710   62.3870 C   0  0  0  0  0  0  0  0  0  0  0  0
  -50.6228   57.6738   61.1982 C   0  0  0  0  0  0  0  0  0  0  0  0
  -49.5554   58.3773   60.3708 C   0  0  0  0  0  0  0  0  0  0  0  0
  -49.1068   57.7389   59.0645 C   0  0  0  0  0  0  0  0  0  0  0  0
  -47.9214   58.5053   58.4566 C   0  0  0  0  0  0  0  0  0  0  0  0
  -47.3127   57.8502   57.2032 C   0  0  0  0  0  0  0  0  0  0  0  0
  -47.2900   56.3248   57.2694 C   0  0  0  0  0  0  0  0  0  0  0  0
  -39.0552   58.6860   65.2633 O   0  0  0  0  0  0  0  0  0  0  0  0
  -40.3442   58.4443   64.7305 C   0  0  0  0  0  0  0  0  0  0  0  0
  -39.1174   59.3422   65.9749 H   0  0  0  0  0  0  0  0  0  0  0  0
  -40.3167   57.4140   63.5990 C   0  0  0  0  0  0  0  0  0  0  0  0
  -41.4174   56.7814   63.1582 C   0  0  0  0  0  0  0  0  0  0  0  0
  -41.3070   55.7645   62.0238 C   0  0  0  0  0  0  0  0  0  0  0  0
  -41.1973   56.3981   60.6293 C   0  0  0  0  0  0  0  0  0  0  0  0
  -41.7997   57.8083   60.4887 C   0  0  0  0  0  0  0  0  0  0  0  0
  -40.7270   58.8192   60.0168 C   0  0  0  0  0  0  0  0  0  0  0  0
  -39.6250   58.2339   59.0976 C   0  0  0  0  0  0  0  0  0  0  0  0
  -38.2133   58.8118   59.3542 C   0  0  0  0  0  0  0  0  0  0  0  0
  -37.8867   59.0024   60.8512 C   0  0  0  0  0  0  0  0  0  0  0  0
  -37.5854   57.6926   61.5894 C   0  0  0  0  0  0  0  0  0  0  0  0
  -36.6476   57.7988   62.7900 C   0  0  0  0  0  0  0  0  0  0  0  0
  -35.3144   58.5085   62.4819 C   0  0  0  0  0  0  0  0  0  0  0  0
  -34.0508   57.6932   62.7958 C   0  0  0  0  0  0  0  0  0  0  0  0
  -33.0924   58.4862   63.6889 C   0  0  0  0  0  0  0  0  0  0  0  0
  -33.6787   59.0591   64.9671 C   0  0  0  0  0  0  0  0  0  0  0  0
  -39.7624   60.5672   63.3235 C   0  0  0  0  0  0  0  0  0  0  0  0
  -39.1444   61.7217   63.9469 O   0  0  0  0  0  0  0  0  0  0  0  0
  -37.1411   62.1487   61.9514 O   0  0  0  0  0  0  0  0  0  0  0  0
  -35.3855   64.4515   64.9537 O   0  0  0  0  0  0  0  0  0  0  0  0
  -37.3799   62.2492   65.5259 O   0  0  0  0  0  0  0  0  0  0  0  0
  -37.6896   61.7708   64.1945 C   0  0  0  0  0  0  0  0  0  0  0  0
  -36.8687   62.6373   63.2286 C   0  0  0  0  0  0  0  0  0  0  0  0
  -35.3446   62.5555   63.4644 C   0  0  0  0  0  0  0  0  0  0  0  0
  -35.1079   63.0564   64.8624 C   0  0  0  0  0  0  0  0  0  0  0  0
  -35.9614   62.2702   65.8412 C   0  0  0  0  0  0  0  0  0  0  0  0
  -38.0958   62.1924   61.7853 H   0  0  0  0  0  0  0  0  0  0  0  0
  -34.8303   64.9337   64.3211 H   0  0  0  0  0  0  0  0  0  0  0  0
  -36.4596   63.9871   67.4279 O   0  0  0  0  0  0  0  0  0  0  0  0
  -35.5856   62.9306   67.1658 C   0  0  0  0  0  0  0  0  0  0  0  0
  -36.2188   64.4048   68.2696 H   0  0  0  0  0  0  0  0  0  0  0  0
  -34.5241   63.3739   62.6001 O   0  0  0  0  0  0  0  0  0  0  0  0
  -32.5261   63.6627   60.9748 O   0  0  0  0  0  0  0  0  0  0  0  0
  -32.8230   61.5572   62.1444 O   0  0  0  0  0  0  0  0  0  0  0  0
  -31.9839   63.5003   63.3255 O   0  0  0  0  0  0  0  0  0  0  0  0
  -32.9276   63.0365   62.2691 S   0  0  0  0  0  0  0  0  0  0  0  0
  -33.1302   63.3720   60.2738 H   0  0  0  0  0  0  0  0  0  0  0  0
  -32.0455   64.4642   63.4135 H   0  0  0  0  0  0  0  0  0  0  0  0
  2  1  1  0  0  0
  2  4  1  0  0  0
  2  5  1  0  0  0
 41 42  1  0  0  0
 41  1  1  0  0  0
 42 46  1  0  0  0
  1 24  1  0  0  0
 23 24  1  0  0  0
 23 25  1  0  0  0
 24 26  1  0  0  0
  3  4  2  0  0  0
 26 27  2  0  0  0
 27 28  1  0  0  0
 43 47  1  0  0  0
 43 51  1  0  0  0
 28 29  1  0  0  0
 56 48  1  0  0  0
 56 60  1  0  0  0
 29 30  1  0  0  0
 57 60  1  0  0  0
 57 61  1  0  0  0
 30 31  1  0  0  0
 44 49  1  0  0  0
 44 52  1  0  0  0
 31 32  1  0  0  0
 45 46  1  0  0  0
 45 50  1  0  0  0
 32 33  1  0  0  0
 53 54  1  0  0  0
 53 55  1  0  0  0
 33 34  1  0  0  0
 34 35  1  0  0  0
 35 36  1  0  0  0
 58 60  1  0  0  0
 36 37  1  0  0  0
 59 60  1  0  0  0
 59 62  1  0  0  0
 37 38  1  0  0  0
 38 39  1  0  0  0
 39 40  1  0  0  0
  4  6  1  0  0  0
  6  7  1  0  0  0
  7  8  1  0  0  0
  8  9  1  0  0  0
  9 10  1  0  0  0
 10 11  1  0  0  0
 11 12  1  0  0  0
 12 13  1  0  0  0
 13 14  1  0  0  0
 14 15  1  0  0  0
 15 16  1  0  0  0
 16 17  1  0  0  0
 17 18  1  0  0  0
 18 19  1  0  0  0
 19 20  1  0  0  0
 20 21  1  0  0  0
 21 22  1  0  0  0
 46 47  1  0  0  0
 47 48  1  0  0  0
 48 49  1  0  0  0
 49 50  1  0  0  0
 50 54  1  0  0  0
M  CHG 1  58  -1
M  END
> <minimizedAffinity>
-9.79465

> <CNNscore>
0.3439567089

> <CNNaffinity>
7.2427687645

> <CNN_VS>
2.4911990166

> <CNNaffinity_variance>
1.8376407623

$$$$
/media/chris/experiments/cd1a-new-docking/inputs/ligands/1onq_ligand.pdb


 62 62  0  0  0  0  0  0  0  0999 V2000
  -38.6822   59.8383   64.1860 C   0  0  0  0  0  0  0  0  0  0  0  0
  -39.8194   60.6706   63.8464 N   0  0  0  0  0  0  0  0  0  0  0  0
  -41.8371   61.6292   64.2432 O   0  0  0  0  0  0  0  0  0  0  0  0
  -40.9052   60.9290   64.5881 C   0  0  0  0  0  0  0  0  0  0  0  0
  -39.7904   61.0995   62.9607 H   0  0  0  0  0  0  0  0  0  0  0  0
  -40.9269   60.2731   65.9368 C   0  0  0  0  0  0  0  0  0  0  0  0
  -42.3990   60.0898   66.3058 C   0  0  0  0  0  0  0  0  0  0  0  0
  -43.0051   58.9543   65.4846 C   0  0  0  0  0  0  0  0  0  0  0  0
  -43.6175   57.8204   66.2708 C   0  0  0  0  0  0  0  0  0  0  0  0
  -44.9677   57.4982   65.6391 C   0  0  0  0  0  0  0  0  0  0  0  0
  -46.0776   58.4567   66.0911 C   0  0  0  0  0  0  0  0  0  0  0  0
  -47.0007   58.9354   64.9556 C   0  0  0  0  0  0  0  0  0  0  0  0
  -48.4890   58.6157   65.2166 C   0  0  0  0  0  0  0  0  0  0  0  0
  -49.3800   59.7672   64.7422 C   0  0  0  0  0  0  0  0  0  0  0  0
  -50.7168   59.3445   64.1451 C   0  0  0  0  0  0  0  0  0  0  0  0
  -50.8881   59.8284   62.7129 C   0  0  0  0  0  0  0  0  0  0  0  0
  -49.5984   60.0356   61.9156 C   0  0  0  0  0  0  0  0  0  0  0  0
  -49.2508   58.7244   61.2239 C   0  0  0  0  0  0  0  0  0  0  0  0
  -50.2365   58.1460   60.2194 C   0  0  0  0  0  0  0  0  0  0  0  0
  -49.5459   57.8520   58.8782 C   0  0  0  0  0  0  0  0  0  0  0  0
  -48.0487   58.2094   58.8389 C   0  0  0  0  0  0  0  0  0  0  0  0
  -47.4291   58.0639   57.4509 C   0  0  0  0  0  0  0  0  0  0  0  0
  -38.3258   57.9315   65.4638 O   0  0  0  0  0  0  0  0  0  0  0  0
  -39.3419   58.5787   64.7205 C   0  0  0  0  0  0  0  0  0  0  0  0
  -38.0455   58.5041   66.1948 H   0  0  0  0  0  0  0  0  0  0  0  0
  -39.8308   57.7257   63.5476 C   0  0  0  0  0  0  0  0  0  0  0  0
  -40.8766   56.8865   63.6387 C   0  0  0  0  0  0  0  0  0  0  0  0
  -41.3028   56.0678   62.4217 C   0  0  0  0  0  0  0  0  0  0  0  0
  -40.8455   56.6619   61.0816 C   0  0  0  0  0  0  0  0  0  0  0  0
  -41.8103   57.6747   60.4376 C   0  0  0  0  0  0  0  0  0  0  0  0
  -41.0514   58.6225   59.4779 C   0  0  0  0  0  0  0  0  0  0  0  0
  -39.6110   58.1813   59.1140 C   0  0  0  0  0  0  0  0  0  0  0  0
  -38.5460   59.2894   59.2884 C   0  0  0  0  0  0  0  0  0  0  0  0
  -38.0224   59.4206   60.7351 C   0  0  0  0  0  0  0  0  0  0  0  0
  -37.1489   58.2434   61.1849 C   0  0  0  0  0  0  0  0  0  0  0  0
  -36.0858   58.5588   62.2350 C   0  0  0  0  0  0  0  0  0  0  0  0
  -35.8461   57.4192   63.2449 C   0  0  0  0  0  0  0  0  0  0  0  0
  -35.0726   57.8181   64.5109 C   0  0  0  0  0  0  0  0  0  0  0  0
  -34.1056   58.9703   64.2243 C   0  0  0  0  0  0  0  0  0  0  0  0
  -32.6902   58.5827   63.8341 C   0  0  0  0  0  0  0  0  0  0  0  0
  -37.6139   60.5044   65.0826 C   0  0  0  0  0  0  0  0  0  0  0  0
  -37.9043   61.8466   65.5489 O   0  0  0  0  0  0  0  0  0  0  0  0
  -35.5989   62.6930   67.0138 O   0  0  0  0  0  0  0  0  0  0  0  0
  -34.0390   63.2966   63.1927 O   0  0  0  0  0  0  0  0  0  0  0  0
  -37.0098   63.2223   63.7621 O   0  0  0  0  0  0  0  0  0  0  0  0
  -37.0361   62.9860   65.1908 C   0  0  0  0  0  0  0  0  0  0  0  0
  -35.5693   62.8828   65.6328 C   0  0  0  0  0  0  0  0  0  0  0  0
  -34.7410   64.1519   65.3352 C   0  0  0  0  0  0  0  0  0  0  0  0
  -34.7707   64.3330   63.8427 C   0  0  0  0  0  0  0  0  0  0  0  0
  -36.2088   64.3653   63.3576 C   0  0  0  0  0  0  0  0  0  0  0  0
  -36.1160   61.8986   67.2200 H   0  0  0  0  0  0  0  0  0  0  0  0
  -33.1247   63.2941   63.5169 H   0  0  0  0  0  0  0  0  0  0  0  0
  -36.3657   63.3613   61.1941 O   0  0  0  0  0  0  0  0  0  0  0  0
  -36.0149   64.5409   61.8532 C   0  0  0  0  0  0  0  0  0  0  0  0
  -36.2416   63.4754   60.2389 H   0  0  0  0  0  0  0  0  0  0  0  0
  -33.3446   64.0994   65.7059 O   0  0  0  0  0  0  0  0  0  0  0  0
  -32.7666   66.6128   65.4505 O   0  0  0  0  0  0  0  0  0  0  0  0
  -31.0622   65.0644   66.2165 O   0  0  0  0  0  0  0  0  0  0  0  0
  -32.8439   65.7524   67.7088 O   0  0  0  0  0  0  0  0  0  0  0  0
  -32.5072   65.4112   66.2975 S   0  0  0  0  0  0  0  0  0  0  0  0
  -32.5527   66.4094   64.5265 H   0  0  0  0  0  0  0  0  0  0  0  0
  -33.7847   65.9799   67.7708 H   0  0  0  0  0  0  0  0  0  0  0  0
  2  1  1  0  0  0
  2  4  1  0  0  0
  2  5  1  0  0  0
 41 42  1  0  0  0
 41  1  1  0  0  0
 42 46  1  0  0  0
  1 24  1  0  0  0
 23 24  1  0  0  0
 23 25  1  0  0  0
 24 26  1  0  0  0
  3  4  2  0  0  0
 26 27  2  0  0  0
 27 28  1  0  0  0
 43 47  1  0  0  0
 43 51  1  0  0  0
 28 29  1  0  0  0
 56 48  1  0  0  0
 56 60  1  0  0  0
 29 30  1  0  0  0
 57 60  1  0  0  0
 57 61  1  0  0  0
 30 31  1  0  0  0
 44 49  1  0  0  0
 44 52  1  0  0  0
 31 32  1  0  0  0
 45 46  1  0  0  0
 45 50  1  0  0  0
 32 33  1  0  0  0
 53 54  1  0  0  0
 53 55  1  0  0  0
 33 34  1  0  0  0
 34 35  1  0  0  0
 35 36  1  0  0  0
 58 60  1  0  0  0
 36 37  1  0  0  0
 59 60  1  0  0  0
 59 62  1  0  0  0
 37 38  1  0  0  0
 38 39  1  0  0  0
 39 40  1  0  0  0
  4  6  1  0  0  0
  6  7  1  0  0  0
  7  8  1  0  0  0
  8  9  1  0  0  0
  9 10  1  0  0  0
 10 11  1  0  0  0
 11 12  1  0  0  0
 12 13  1  0  0  0
 13 14  1  0  0  0
 14 15  1  0  0  0
 15 16  1  0  0  0
 16 17  1  0  0  0
 17 18  1  0  0  0
 18 19  1  0  0  0
 19 20  1  0  0  0
 20 21  1  0  0  0
 21 22  1  0  0  0
 46 47  1  0  0  0
 47 48  1  0  0  0
 48 49  1  0  0  0
 49 50  1  0  0  0
 50 54  1  0  0  0
M  CHG 1  58  -1
M  END
> <minimizedAffinity>
-8.77185

> <CNNscore>
0.2924164832

> <CNNaffinity>
7.3058919907

> <CNN_VS>
2.1363632679

> <CNNaffinity_variance>
1.1173584461

$$$$
/media/chris/experiments/cd1a-new-docking/inputs/ligands/1onq_ligand.pdb


 62 62  0  0  0  0  0  0  0  0999 V2000
  -41.3375   59.8940   64.7668 C   0  0  0  0  0  0  0  0  0  0  0  0
  -41.4381   58.5660   64.1945 N   0  0  0  0  0  0  0  0  0  0  0  0
  -42.2143   56.4359   64.1057 O   0  0  0  0  0  0  0  0  0  0  0  0
  -42.1800   57.5356   64.6228 C   0  0  0  0  0  0  0  0  0  0  0  0
  -40.8936   58.4005   63.3911 H   0  0  0  0  0  0  0  0  0  0  0  0
  -43.0083   57.8099   65.8428 C   0  0  0  0  0  0  0  0  0  0  0  0
  -44.4468   57.4386   65.4825 C   0  0  0  0  0  0  0  0  0  0  0  0
  -45.3997   57.9261   66.5712 C   0  0  0  0  0  0  0  0  0  0  0  0
  -45.8845   59.3496   66.4399 C   0  0  0  0  0  0  0  0  0  0  0  0
  -46.5240   59.4934   65.0628 C   0  0  0  0  0  0  0  0  0  0  0  0
  -47.9793   59.0075   65.0312 C   0  0  0  0  0  0  0  0  0  0  0  0
  -48.9406   59.8331   65.9058 C   0  0  0  0  0  0  0  0  0  0  0  0
  -50.4235   59.4656   65.6797 C   0  0  0  0  0  0  0  0  0  0  0  0
  -51.0517   60.3800   64.6241 C   0  0  0  0  0  0  0  0  0  0  0  0
  -51.4340   59.6914   63.3196 C   0  0  0  0  0  0  0  0  0  0  0  0
  -50.3760   59.8700   62.2409 C   0  0  0  0  0  0  0  0  0  0  0  0
  -49.6682   58.5948   61.7773 C   0  0  0  0  0  0  0  0  0  0  0  0
  -50.5138   57.9510   60.6867 C   0  0  0  0  0  0  0  0  0  0  0  0
  -50.0795   58.1108   59.2373 C   0  0  0  0  0  0  0  0  0  0  0  0
  -48.6400   58.6423   59.1500 C   0  0  0  0  0  0  0  0  0  0  0  0
  -47.6487   57.6900   58.4563 C   0  0  0  0  0  0  0  0  0  0  0  0
  -47.0507   58.2686   57.1759 C   0  0  0  0  0  0  0  0  0  0  0  0
  -43.3673   60.7516   64.0319 O   0  0  0  0  0  0  0  0  0  0  0  0
  -41.9901   60.7623   63.7049 C   0  0  0  0  0  0  0  0  0  0  0  0
  -43.4936   61.1394   64.9119 H   0  0  0  0  0  0  0  0  0  0  0  0
  -41.7207   60.1617   62.3231 C   0  0  0  0  0  0  0  0  0  0  0  0
  -41.2330   60.8783   61.2960 C   0  0  0  0  0  0  0  0  0  0  0  0
  -40.9922   60.2054   59.9460 C   0  0  0  0  0  0  0  0  0  0  0  0
  -41.2730   58.6957   59.9450 C   0  0  0  0  0  0  0  0  0  0  0  0
  -40.1542   57.8100   59.3661 C   0  0  0  0  0  0  0  0  0  0  0  0
  -38.9371   58.6682   58.9447 C   0  0  0  0  0  0  0  0  0  0  0  0
  -37.7881   58.7415   59.9820 C   0  0  0  0  0  0  0  0  0  0  0  0
  -38.0249   57.8892   61.2509 C   0  0  0  0  0  0  0  0  0  0  0  0
  -36.9846   58.1374   62.3646 C   0  0  0  0  0  0  0  0  0  0  0  0
  -37.5631   58.0459   63.7817 C   0  0  0  0  0  0  0  0  0  0  0  0
  -36.5518   57.8436   64.9081 C   0  0  0  0  0  0  0  0  0  0  0  0
  -35.1001   57.6655   64.4213 C   0  0  0  0  0  0  0  0  0  0  0  0
  -34.1200   58.7600   64.8703 C   0  0  0  0  0  0  0  0  0  0  0  0
  -32.8904   58.8047   63.9586 C   0  0  0  0  0  0  0  0  0  0  0  0
  -33.1582   58.8173   62.4640 C   0  0  0  0  0  0  0  0  0  0  0  0
  -39.9264   60.3091   65.2414 C   0  0  0  0  0  0  0  0  0  0  0  0
  -39.2628   61.3450   64.4734 O   0  0  0  0  0  0  0  0  0  0  0  0
  -37.5271   61.7066   62.2299 O   0  0  0  0  0  0  0  0  0  0  0  0
  -35.6795   64.4546   64.7664 O   0  0  0  0  0  0  0  0  0  0  0  0
  -37.3966   62.1787   65.7801 O   0  0  0  0  0  0  0  0  0  0  0  0
  -37.8004   61.5347   64.5474 C   0  0  0  0  0  0  0  0  0  0  0  0
  -37.1669   62.3518   63.4123 C   0  0  0  0  0  0  0  0  0  0  0  0
  -35.6252   62.4160   63.4797 C   0  0  0  0  0  0  0  0  0  0  0  0
  -35.2888   63.0838   64.7843 C   0  0  0  0  0  0  0  0  0  0  0  0
  -35.9606   62.3452   65.9278 C   0  0  0  0  0  0  0  0  0  0  0  0
  -38.4940   61.6570   62.1702 H   0  0  0  0  0  0  0  0  0  0  0  0
  -35.2395   64.9066   64.0295 H   0  0  0  0  0  0  0  0  0  0  0  0
  -36.4739   64.1381   67.4229 O   0  0  0  0  0  0  0  0  0  0  0  0
  -35.5083   63.1739   67.1280 C   0  0  0  0  0  0  0  0  0  0  0  0
  -36.1843   64.6631   68.1854 H   0  0  0  0  0  0  0  0  0  0  0  0
  -34.9771   63.1965   62.4498 O   0  0  0  0  0  0  0  0  0  0  0  0
  -32.6276   62.2830   63.0515 O   0  0  0  0  0  0  0  0  0  0  0  0
  -33.0275   64.6762   63.0908 O   0  0  0  0  0  0  0  0  0  0  0  0
  -32.8033   63.5121   60.9768 O   0  0  0  0  0  0  0  0  0  0  0  0
  -33.3280   63.4104   62.3682 S   0  0  0  0  0  0  0  0  0  0  0  0
  -32.9567   62.2012   63.9603 H   0  0  0  0  0  0  0  0  0  0  0  0
  -32.9949   62.6905   60.4982 H   0  0  0  0  0  0  0  0  0  0  0  0
  2  1  1  0  0  0
  2  4  1  0  0  0
  2  5  1  0  0  0
 41 42  1  0  0  0
 41  1  1  0  0  0
 42 46  1  0  0  0
  1 24  1  0  0  0
 23 24  1  0  0  0
 23 25  1  0  0  0
 24 26  1  0  0  0
  3  4  2  0  0  0
 26 27  2  0  0  0
 27 28  1  0  0  0
 43 47  1  0  0  0
 43 51  1  0  0  0
 28 29  1  0  0  0
 56 48  1  0  0  0
 56 60  1  0  0  0
 29 30  1  0  0  0
 57 60  1  0  0  0
 57 61  1  0  0  0
 30 31  1  0  0  0
 44 49  1  0  0  0
 44 52  1  0  0  0
 31 32  1  0  0  0
 45 46  1  0  0  0
 45 50  1  0  0  0
 32 33  1  0  0  0
 53 54  1  0  0  0
 53 55  1  0  0  0
 33 34  1  0  0  0
 34 35  1  0  0  0
 35 36  1  0  0  0
 58 60  1  0  0  0
 36 37  1  0  0  0
 59 60  1  0  0  0
 59 62  1  0  0  0
 37 38  1  0  0  0
 38 39  1  0  0  0
 39 40  1  0  0  0
  4  6  1  0  0  0
  6  7  1  0  0  0
  7  8  1  0  0  0
  8  9  1  0  0  0
  9 10  1  0  0  0
 10 11  1  0  0  0
 11 12  1  0  0  0
 12 13  1  0  0  0
 13 14  1  0  0  0
 14 15  1  0  0  0
 15 16  1  0  0  0
 16 17  1  0  0  0
 17 18  1  0  0  0
 18 19  1  0  0  0
 19 20  1  0  0  0
 20 21  1  0  0  0
 21 22  1  0  0  0
 46 47  1  0  0  0
 47 48  1  0  0  0
 48 49  1  0  0  0
 49 50  1  0  0  0
 50 54  1  0  0  0
M  CHG 1  58  -1
M  END
> <minimizedAffinity>
-9.87647

> <CNNscore>
0.2694227695

> <CNNaffinity>
7.1162743568

> <CNN_VS>
1.9172863960

> <CNNaffinity_variance>
1.8911628723

$$$$
/media/chris/experiments/cd1a-new-docking/inputs/ligands/1onq_ligand.pdb


 62 62  0  0  0  0  0  0  0  0999 V2000
  -40.9697   59.4097   65.3908 C   0  0  0  0  0  0  0  0  0  0  0  0
  -41.6571   58.5484   64.4491 N   0  0  0  0  0  0  0  0  0  0  0  0
  -42.2543   57.8645   62.3699 O   0  0  0  0  0  0  0  0  0  0  0  0
  -41.6448   58.6113   63.1106 C   0  0  0  0  0  0  0  0  0  0  0  0
  -42.2007   57.8276   64.8418 H   0  0  0  0  0  0  0  0  0  0  0  0
  -40.8049   59.7109   62.5316 C   0  0  0  0  0  0  0  0  0  0  0  0
  -41.6284   60.3387   61.4069 C   0  0  0  0  0  0  0  0  0  0  0  0
  -40.8755   60.2255   60.0836 C   0  0  0  0  0  0  0  0  0  0  0  0
  -41.1999   59.0187   59.2367 C   0  0  0  0  0  0  0  0  0  0  0  0
  -40.0761   58.0057   59.4284 C   0  0  0  0  0  0  0  0  0  0  0  0
  -38.6834   58.6233   59.2445 C   0  0  0  0  0  0  0  0  0  0  0  0
  -37.7748   58.5139   60.4827 C   0  0  0  0  0  0  0  0  0  0  0  0
  -38.2808   57.4764   61.5089 C   0  0  0  0  0  0  0  0  0  0  0  0
  -37.5867   57.6704   62.8600 C   0  0  0  0  0  0  0  0  0  0  0  0
  -36.1135   58.0517   62.7794 C   0  0  0  0  0  0  0  0  0  0  0  0
  -35.5512   58.4716   64.1293 C   0  0  0  0  0  0  0  0  0  0  0  0
  -34.0254   58.4777   64.2483 C   0  0  0  0  0  0  0  0  0  0  0  0
  -33.4387   58.3183   62.8521 C   0  0  0  0  0  0  0  0  0  0  0  0
  -32.5995   59.4511   62.2799 C   0  0  0  0  0  0  0  0  0  0  0  0
  -31.2723   59.5915   63.0422 C   0  0  0  0  0  0  0  0  0  0  0  0
  -30.2475   60.5259   62.3734 C   0  0  0  0  0  0  0  0  0  0  0  0
  -30.7016   61.0439   61.0106 C   0  0  0  0  0  0  0  0  0  0  0  0
  -41.2706   61.4791   66.4022 O   0  0  0  0  0  0  0  0  0  0  0  0
  -41.8687   60.6333   65.4375 C   0  0  0  0  0  0  0  0  0  0  0  0
  -40.3791   61.7241   66.1090 H   0  0  0  0  0  0  0  0  0  0  0  0
  -43.2827   60.2083   65.8404 C   0  0  0  0  0  0  0  0  0  0  0  0
  -44.3856   60.6395   65.2050 C   0  0  0  0  0  0  0  0  0  0  0  0
  -45.7631   60.1696   65.6688 C   0  0  0  0  0  0  0  0  0  0  0  0
  -46.7161   59.8086   64.5201 C   0  0  0  0  0  0  0  0  0  0  0  0
  -48.0990   60.4844   64.5641 C   0  0  0  0  0  0  0  0  0  0  0  0
  -48.9760   59.8685   65.6807 C   0  0  0  0  0  0  0  0  0  0  0  0
  -50.4053   59.4548   65.2473 C   0  0  0  0  0  0  0  0  0  0  0  0
  -51.0534   60.4049   64.2130 C   0  0  0  0  0  0  0  0  0  0  0  0
  -51.0186   59.8613   62.7682 C   0  0  0  0  0  0  0  0  0  0  0  0
  -50.9481   58.3318   62.6853 C   0  0  0  0  0  0  0  0  0  0  0  0
  -50.4553   57.7532   61.3607 C   0  0  0  0  0  0  0  0  0  0  0  0
  -49.1358   58.3726   60.8594 C   0  0  0  0  0  0  0  0  0  0  0  0
  -49.0648   58.6257   59.3458 C   0  0  0  0  0  0  0  0  0  0  0  0
  -47.9302   57.8202   58.7062 C   0  0  0  0  0  0  0  0  0  0  0  0
  -47.2202   58.4695   57.5315 C   0  0  0  0  0  0  0  0  0  0  0  0
  -39.4711   59.6519   65.1000 C   0  0  0  0  0  0  0  0  0  0  0  0
  -39.0511   61.0339   64.9702 O   0  0  0  0  0  0  0  0  0  0  0  0
  -37.5646   61.4185   62.5578 O   0  0  0  0  0  0  0  0  0  0  0  0
  -35.8601   64.5485   64.7250 O   0  0  0  0  0  0  0  0  0  0  0  0
  -37.1979   62.1753   66.0416 O   0  0  0  0  0  0  0  0  0  0  0  0
  -37.6215   61.3958   64.8969 C   0  0  0  0  0  0  0  0  0  0  0  0
  -37.1884   62.1903   63.6564 C   0  0  0  0  0  0  0  0  0  0  0  0
  -35.6657   62.4364   63.5778 C   0  0  0  0  0  0  0  0  0  0  0  0
  -35.3057   63.2374   64.7985 C   0  0  0  0  0  0  0  0  0  0  0  0
  -35.7854   62.5169   66.0456 C   0  0  0  0  0  0  0  0  0  0  0  0
  -38.5199   61.2534   62.5905 H   0  0  0  0  0  0  0  0  0  0  0  0
  -35.5410   64.9899   63.9222 H   0  0  0  0  0  0  0  0  0  0  0  0
  -36.4486   64.1596   67.6503 O   0  0  0  0  0  0  0  0  0  0  0  0
  -35.3390   63.4824   67.1412 C   0  0  0  0  0  0  0  0  0  0  0  0
  -36.1624   64.7721   68.3459 H   0  0  0  0  0  0  0  0  0  0  0  0
  -35.2051   63.2045   62.4430 O   0  0  0  0  0  0  0  0  0  0  0  0
  -33.1913   63.5648   60.8519 O   0  0  0  0  0  0  0  0  0  0  0  0
  -32.7983   62.8475   63.1366 O   0  0  0  0  0  0  0  0  0  0  0  0
  -33.4202   65.1430   62.6693 O   0  0  0  0  0  0  0  0  0  0  0  0
  -33.6324   63.7230   62.2692 S   0  0  0  0  0  0  0  0  0  0  0  0
  -33.3222   62.6450   60.5732 H   0  0  0  0  0  0  0  0  0  0  0  0
  -33.9606   65.7211   62.1085 H   0  0  0  0  0  0  0  0  0  0  0  0
  2  1  1  0  0  0
  2  4  1  0  0  0
  2  5  1  0  0  0
 41 42  1  0  0  0
 41  1  1  0  0  0
 42 46  1  0  0  0
  1 24  1  0  0  0
 23 24  1  0  0  0
 23 25  1  0  0  0
 24 26  1  0  0  0
  3  4  2  0  0  0
 26 27  2  0  0  0
 27 28  1  0  0  0
 43 47  1  0  0  0
 43 51  1  0  0  0
 28 29  1  0  0  0
 56 48  1  0  0  0
 56 60  1  0  0  0
 29 30  1  0  0  0
 57 60  1  0  0  0
 57 61  1  0  0  0
 30 31  1  0  0  0
 44 49  1  0  0  0
 44 52  1  0  0  0
 31 32  1  0  0  0
 45 46  1  0  0  0
 45 50  1  0  0  0
 32 33  1  0  0  0
 53 54  1  0  0  0
 53 55  1  0  0  0
 33 34  1  0  0  0
 34 35  1  0  0  0
 35 36  1  0  0  0
 58 60  1  0  0  0
 36 37  1  0  0  0
 59 60  1  0  0  0
 59 62  1  0  0  0
 37 38  1  0  0  0
 38 39  1  0  0  0
 39 40  1  0  0  0
  4  6  1  0  0  0
  6  7  1  0  0  0
  7  8  1  0  0  0
  8  9  1  0  0  0
  9 10  1  0  0  0
 10 11  1  0  0  0
 11 12  1  0  0  0
 12 13  1  0  0  0
 13 14  1  0  0  0
 14 15  1  0  0  0
 15 16  1  0  0  0
 16 17  1  0  0  0
 17 18  1  0  0  0
 18 19  1  0  0  0
 19 20  1  0  0  0
 20 21  1  0  0  0
 21 22  1  0  0  0
 46 47  1  0  0  0
 47 48  1  0  0  0
 48 49  1  0  0  0
 49 50  1  0  0  0
 50 54  1  0  0  0
M  CHG 1  58  -1
M  END
> <minimizedAffinity>
-9.71445

> <CNNscore>
0.2598770261

> <CNNaffinity>
6.8449563980

> <CNN_VS>
1.7788468599

> <CNNaffinity_variance>
1.9904845953

$$$$
/media/chris/experiments/cd1a-new-docking/inputs/ligands/1onq_ligand.pdb


 62 62  0  0  0  0  0  0  0  0999 V2000
  -41.6829   60.2820   64.3329 C   0  0  0  0  0  0  0  0  0  0  0  0
  -42.1043   61.2574   63.3469 N   0  0  0  0  0  0  0  0  0  0  0  0
  -42.3901   62.0287   61.2324 O   0  0  0  0  0  0  0  0  0  0  0  0
  -42.0295   61.1683   62.0119 C   0  0  0  0  0  0  0  0  0  0  0  0
  -42.4940   62.0888   63.7022 H   0  0  0  0  0  0  0  0  0  0  0  0
  -41.4405   59.8914   61.4901 C   0  0  0  0  0  0  0  0  0  0  0  0
  -40.9541   60.1866   60.0712 C   0  0  0  0  0  0  0  0  0  0  0  0
  -40.9936   58.9128   59.2306 C   0  0  0  0  0  0  0  0  0  0  0  0
  -39.8154   57.9813   59.3816 C   0  0  0  0  0  0  0  0  0  0  0  0
  -38.5496   58.8317   59.3576 C   0  0  0  0  0  0  0  0  0  0  0  0
  -37.6252   58.5528   60.5503 C   0  0  0  0  0  0  0  0  0  0  0  0
  -38.1865   57.5359   61.5609 C   0  0  0  0  0  0  0  0  0  0  0  0
  -37.6378   57.7438   62.9895 C   0  0  0  0  0  0  0  0  0  0  0  0
  -36.3448   58.5636   62.9574 C   0  0  0  0  0  0  0  0  0  0  0  0
  -35.0853   57.7969   63.3425 C   0  0  0  0  0  0  0  0  0  0  0  0
  -33.9031   58.1430   62.4495 C   0  0  0  0  0  0  0  0  0  0  0  0
  -32.6762   58.7245   63.1558 C   0  0  0  0  0  0  0  0  0  0  0  0
  -32.6542   60.2273   62.9111 C   0  0  0  0  0  0  0  0  0  0  0  0
  -31.5429   60.8099   62.0505 C   0  0  0  0  0  0  0  0  0  0  0  0
  -30.1806   60.2082   62.4302 C   0  0  0  0  0  0  0  0  0  0  0  0
  -28.9660   61.0034   61.9171 C   0  0  0  0  0  0  0  0  0  0  0  0
  -28.8110   62.3676   62.5854 C   0  0  0  0  0  0  0  0  0  0  0  0
  -42.4801   59.3529   66.3070 O   0  0  0  0  0  0  0  0  0  0  0  0
  -42.7605   60.4003   65.3970 C   0  0  0  0  0  0  0  0  0  0  0  0
  -41.6023   59.4893   66.6964 H   0  0  0  0  0  0  0  0  0  0  0  0
  -44.1363   60.2448   64.7448 C   0  0  0  0  0  0  0  0  0  0  0  0
  -45.2823   60.2354   65.4468 C   0  0  0  0  0  0  0  0  0  0  0  0
  -46.6170   60.0746   64.7215 C   0  0  0  0  0  0  0  0  0  0  0  0
  -47.8245   59.9498   65.6620 C   0  0  0  0  0  0  0  0  0  0  0  0
  -48.9684   59.0485   65.1618 C   0  0  0  0  0  0  0  0  0  0  0  0
  -50.3427   59.6158   65.5920 C   0  0  0  0  0  0  0  0  0  0  0  0
  -51.1288   60.3585   64.4820 C   0  0  0  0  0  0  0  0  0  0  0  0
  -51.2222   59.5847   63.1459 C   0  0  0  0  0  0  0  0  0  0  0  0
  -50.1361   59.9840   62.1237 C   0  0  0  0  0  0  0  0  0  0  0  0
  -49.5931   58.8053   61.3071 C   0  0  0  0  0  0  0  0  0  0  0  0
  -49.7524   58.9081   59.7917 C   0  0  0  0  0  0  0  0  0  0  0  0
  -48.5111   58.4527   58.9995 C   0  0  0  0  0  0  0  0  0  0  0  0
  -47.7888   57.2207   59.5656 C   0  0  0  0  0  0  0  0  0  0  0  0
  -47.1634   56.3863   58.4442 C   0  0  0  0  0  0  0  0  0  0  0  0
  -47.3693   56.8955   57.0285 C   0  0  0  0  0  0  0  0  0  0  0  0
  -40.2160   60.4032   64.8045 C   0  0  0  0  0  0  0  0  0  0  0  0
  -39.3953   61.3859   64.1234 O   0  0  0  0  0  0  0  0  0  0  0  0
  -37.3518   61.7538   62.1572 O   0  0  0  0  0  0  0  0  0  0  0  0
  -35.7640   64.3120   65.0439 O   0  0  0  0  0  0  0  0  0  0  0  0
  -37.6961   62.0805   65.7094 O   0  0  0  0  0  0  0  0  0  0  0  0
  -37.9508   61.5045   64.4053 C   0  0  0  0  0  0  0  0  0  0  0  0
  -37.1332   62.3350   63.4056 C   0  0  0  0  0  0  0  0  0  0  0  0
  -35.6145   62.3248   63.6862 C   0  0  0  0  0  0  0  0  0  0  0  0
  -35.4356   62.9250   65.0534 C   0  0  0  0  0  0  0  0  0  0  0  0
  -36.2889   62.1743   66.0597 C   0  0  0  0  0  0  0  0  0  0  0  0
  -38.3023   61.7514   61.9635 H   0  0  0  0  0  0  0  0  0  0  0  0
  -35.2081   64.7715   64.3952 H   0  0  0  0  0  0  0  0  0  0  0  0
  -34.5910   63.0211   67.5135 O   0  0  0  0  0  0  0  0  0  0  0  0
  -35.9743   62.9337   67.3466 C   0  0  0  0  0  0  0  0  0  0  0  0
  -34.3939   63.5039   68.3315 H   0  0  0  0  0  0  0  0  0  0  0  0
  -34.7987   63.1140   62.7909 O   0  0  0  0  0  0  0  0  0  0  0  0
  -35.7428   63.8412   60.4895 O   0  0  0  0  0  0  0  0  0  0  0  0
  -34.3238   65.3644   61.7366 O   0  0  0  0  0  0  0  0  0  0  0  0
  -36.6189   64.9973   62.4239 O   0  0  0  0  0  0  0  0  0  0  0  0
  -35.4050   64.3483   61.8523 S   0  0  0  0  0  0  0  0  0  0  0  0
  -34.9632   63.4145   60.1007 H   0  0  0  0  0  0  0  0  0  0  0  0
  -37.3293   64.3416   62.5028 H   0  0  0  0  0  0  0  0  0  0  0  0
  2  1  1  0  0  0
  2  4  1  0  0  0
  2  5  1  0  0  0
 41 42  1  0  0  0
 41  1  1  0  0  0
 42 46  1  0  0  0
  1 24  1  0  0  0
 23 24  1  0  0  0
 23 25  1  0  0  0
 24 26  1  0  0  0
  3  4  2  0  0  0
 26 27  2  0  0  0
 27 28  1  0  0  0
 43 47  1  0  0  0
 43 51  1  0  0  0
 28 29  1  0  0  0
 56 48  1  0  0  0
 56 60  1  0  0  0
 29 30  1  0  0  0
 57 60  1  0  0  0
 57 61  1  0  0  0
 30 31  1  0  0  0
 44 49  1  0  0  0
 44 52  1  0  0  0
 31 32  1  0  0  0
 45 46  1  0  0  0
 45 50  1  0  0  0
 32 33  1  0  0  0
 53 54  1  0  0  0
 53 55  1  0  0  0
 33 34  1  0  0  0
 34 35  1  0  0  0
 35 36  1  0  0  0
 58 60  1  0  0  0
 36 37  1  0  0  0
 59 60  1  0  0  0
 59 62  1  0  0  0
 37 38  1  0  0  0
 38 39  1  0  0  0
 39 40  1  0  0  0
  4  6  1  0  0  0
  6  7  1  0  0  0
  7  8  1  0  0  0
  8  9  1  0  0  0
  9 10  1  0  0  0
 10 11  1  0  0  0
 11 12  1  0  0  0
 12 13  1  0  0  0
 13 14  1  0  0  0
 14 15  1  0  0  0
 15 16  1  0  0  0
 16 17  1  0  0  0
 17 18  1  0  0  0
 18 19  1  0  0  0
 19 20  1  0  0  0
 20 21  1  0  0  0
 21 22  1  0  0  0
 46 47  1  0  0  0
 47 48  1  0  0  0
 48 49  1  0  0  0
 49 50  1  0  0  0
 50 54  1  0  0  0
M  CHG 1  58  -1
M  END
> <minimizedAffinity>
-9.94545

> <CNNscore>
0.2427576333

> <CNNaffinity>
6.7542471886

> <CNN_VS>
1.6396450996

> <CNNaffinity_variance>
1.2417681217

$$$$
/media/chris/experiments/cd1a-new-docking/inputs/ligands/1onq_ligand.pdb


 62 62  0  0  0  0  0  0  0  0999 V2000
  -41.3903   60.5991   65.5965 C   0  0  0  0  0  0  0  0  0  0  0  0
  -42.0392   59.5342   66.3354 N   0  0  0  0  0  0  0  0  0  0  0  0
  -42.6164   57.3735   66.7170 O   0  0  0  0  0  0  0  0  0  0  0  0
  -42.0410   58.2220   66.0637 C   0  0  0  0  0  0  0  0  0  0  0  0
  -42.5410   59.8092   67.1366 H   0  0  0  0  0  0  0  0  0  0  0  0
  -41.2647   57.8223   64.8442 C   0  0  0  0  0  0  0  0  0  0  0  0
  -41.8821   56.5153   64.3466 C   0  0  0  0  0  0  0  0  0  0  0  0
  -41.4646   56.2584   62.9007 C   0  0  0  0  0  0  0  0  0  0  0  0
  -41.6055   57.4243   61.9523 C   0  0  0  0  0  0  0  0  0  0  0  0
  -41.3672   56.9008   60.5398 C   0  0  0  0  0  0  0  0  0  0  0  0
  -41.0681   58.0212   59.5348 C   0  0  0  0  0  0  0  0  0  0  0  0
  -40.8674   59.4072   60.1745 C   0  0  0  0  0  0  0  0  0  0  0  0
  -39.4103   59.9094   60.0744 C   0  0  0  0  0  0  0  0  0  0  0  0
  -38.4776   58.7766   59.6364 C   0  0  0  0  0  0  0  0  0  0  0  0
  -37.3852   58.4175   60.6364 C   0  0  0  0  0  0  0  0  0  0  0  0
  -37.9330   57.6821   61.8504 C   0  0  0  0  0  0  0  0  0  0  0  0
  -37.9190   58.4595   63.1686 C   0  0  0  0  0  0  0  0  0  0  0  0
  -37.2651   57.5849   64.2299 C   0  0  0  0  0  0  0  0  0  0  0  0
  -35.7626   57.6957   64.4419 C   0  0  0  0  0  0  0  0  0  0  0  0
  -35.2278   59.0307   63.8998 C   0  0  0  0  0  0  0  0  0  0  0  0
  -33.8747   59.4647   64.4929 C   0  0  0  0  0  0  0  0  0  0  0  0
  -33.1632   58.3488   65.2545 C   0  0  0  0  0  0  0  0  0  0  0  0
  -41.7491   61.8464   63.6700 O   0  0  0  0  0  0  0  0  0  0  0  0
  -42.2583   60.7174   64.3555 C   0  0  0  0  0  0  0  0  0  0  0  0
  -40.8249   61.6852   63.4235 H   0  0  0  0  0  0  0  0  0  0  0  0
  -43.7182   60.9070   64.7741 C   0  0  0  0  0  0  0  0  0  0  0  0
  -44.7279   60.1887   64.2538 C   0  0  0  0  0  0  0  0  0  0  0  0
  -46.1597   60.4385   64.7239 C   0  0  0  0  0  0  0  0  0  0  0  0
  -47.1235   59.2815   64.4230 C   0  0  0  0  0  0  0  0  0  0  0  0
  -47.8838   58.7147   65.6363 C   0  0  0  0  0  0  0  0  0  0  0  0
  -49.0368   59.6598   66.0522 C   0  0  0  0  0  0  0  0  0  0  0  0
  -50.4294   59.2980   65.4766 C   0  0  0  0  0  0  0  0  0  0  0  0
  -51.0337   60.3811   64.5523 C   0  0  0  0  0  0  0  0  0  0  0  0
  -51.1492   59.9398   63.0772 C   0  0  0  0  0  0  0  0  0  0  0  0
  -50.6519   58.5125   62.8186 C   0  0  0  0  0  0  0  0  0  0  0  0
  -49.4792   58.3752   61.8500 C   0  0  0  0  0  0  0  0  0  0  0  0
  -49.5843   59.2813   60.6075 C   0  0  0  0  0  0  0  0  0  0  0  0
  -49.5583   58.5477   59.2580 C   0  0  0  0  0  0  0  0  0  0  0  0
  -48.2239   57.8259   59.0501 C   0  0  0  0  0  0  0  0  0  0  0  0
  -47.4294   58.2176   57.8168 C   0  0  0  0  0  0  0  0  0  0  0  0
  -39.8706   60.4254   65.3748 C   0  0  0  0  0  0  0  0  0  0  0  0
  -39.2111   61.4428   64.5789 O   0  0  0  0  0  0  0  0  0  0  0  0
  -37.5324   61.8716   62.3040 O   0  0  0  0  0  0  0  0  0  0  0  0
  -35.5899   64.5062   64.8894 O   0  0  0  0  0  0  0  0  0  0  0  0
  -37.3023   62.2101   65.8644 O   0  0  0  0  0  0  0  0  0  0  0  0
  -37.7454   61.6161   64.6201 C   0  0  0  0  0  0  0  0  0  0  0  0
  -37.1342   62.4691   63.4992 C   0  0  0  0  0  0  0  0  0  0  0  0
  -35.5907   62.5165   63.5272 C   0  0  0  0  0  0  0  0  0  0  0  0
  -35.2128   63.1322   64.8460 C   0  0  0  0  0  0  0  0  0  0  0  0
  -35.8612   62.3577   65.9792 C   0  0  0  0  0  0  0  0  0  0  0  0
  -38.5010   61.8331   62.2688 H   0  0  0  0  0  0  0  0  0  0  0  0
  -35.1651   64.9813   64.1580 H   0  0  0  0  0  0  0  0  0  0  0  0
  -36.3394   64.0617   67.5858 O   0  0  0  0  0  0  0  0  0  0  0  0
  -35.3686   63.1371   67.1966 C   0  0  0  0  0  0  0  0  0  0  0  0
  -36.0242   64.5553   68.3591 H   0  0  0  0  0  0  0  0  0  0  0  0
  -34.9625   63.3288   62.5097 O   0  0  0  0  0  0  0  0  0  0  0  0
  -32.6389   64.0636   63.3915 O   0  0  0  0  0  0  0  0  0  0  0  0
  -33.0955   64.1445   61.0095 O   0  0  0  0  0  0  0  0  0  0  0  0
  -32.7014   62.0181   62.1040 O   0  0  0  0  0  0  0  0  0  0  0  0
  -33.3169   63.3667   62.2588 S   0  0  0  0  0  0  0  0  0  0  0  0
  -33.0269   64.9450   63.5077 H   0  0  0  0  0  0  0  0  0  0  0  0
  -32.8412   61.5039   62.9144 H   0  0  0  0  0  0  0  0  0  0  0  0
  2  1  1  0  0  0
  2  4  1  0  0  0
  2  5  1  0  0  0
 41 42  1  0  0  0
 41  1  1  0  0  0
 42 46  1  0  0  0
  1 24  1  0  0  0
 23 24  1  0  0  0
 23 25  1  0  0  0
 24 26  1  0  0  0
  3  4  2  0  0  0
 26 27  2  0  0  0
 27 28  1  0  0  0
 43 47  1  0  0  0
 43 51  1  0  0  0
 28 29  1  0  0  0
 56 48  1  0  0  0
 56 60  1  0  0  0
 29 30  1  0  0  0
 57 60  1  0  0  0
 57 61  1  0  0  0
 30 31  1  0  0  0
 44 49  1  0  0  0
 44 52  1  0  0  0
 31 32  1  0  0  0
 45 46  1  0  0  0
 45 50  1  0  0  0
 32 33  1  0  0  0
 53 54  1  0  0  0
 53 55  1  0  0  0
 33 34  1  0  0  0
 34 35  1  0  0  0
 35 36  1  0  0  0
 58 60  1  0  0  0
 36 37  1  0  0  0
 59 60  1  0  0  0
 59 62  1  0  0  0
 37 38  1  0  0  0
 38 39  1  0  0  0
 39 40  1  0  0  0
  4  6  1  0  0  0
  6  7  1  0  0  0
  7  8  1  0  0  0
  8  9  1  0  0  0
  9 10  1  0  0  0
 10 11  1  0  0  0
 11 12  1  0  0  0
 12 13  1  0  0  0
 13 14  1  0  0  0
 14 15  1  0  0  0
 15 16  1  0  0  0
 16 17  1  0  0  0
 17 18  1  0  0  0
 18 19  1  0  0  0
 19 20  1  0  0  0
 20 21  1  0  0  0
 21 22  1  0  0  0
 46 47  1  0  0  0
 47 48  1  0  0  0
 48 49  1  0  0  0
 49 50  1  0  0  0
 50 54  1  0  0  0
M  CHG 1  58  -1
M  END
> <minimizedAffinity>
-9.65783

> <CNNscore>
0.2350510210

> <CNNaffinity>
7.0937218666

> <CNN_VS>
1.6673865318

> <CNNaffinity_variance>
2.1596035957

$$$$
/media/chris/experiments/cd1a-new-docking/inputs/ligands/1onq_ligand.pdb


 62 62  0  0  0  0  0  0  0  0999 V2000
  -42.8609   60.6159   64.5652 C   0  0  0  0  0  0  0  0  0  0  0  0
  -42.9738   59.1708   64.5539 N   0  0  0  0  0  0  0  0  0  0  0  0
  -42.2059   57.0615   64.8839 O   0  0  0  0  0  0  0  0  0  0  0  0
  -42.0574   58.2673   64.9274 C   0  0  0  0  0  0  0  0  0  0  0  0
  -43.8304   58.8079   64.2317 H   0  0  0  0  0  0  0  0  0  0  0  0
  -40.7624   58.8398   65.4226 C   0  0  0  0  0  0  0  0  0  0  0  0
  -39.6492   58.0909   64.6898 C   0  0  0  0  0  0  0  0  0  0  0  0
  -38.2873   58.6329   65.1168 C   0  0  0  0  0  0  0  0  0  0  0  0
  -37.1280   57.6718   65.0117 C   0  0  0  0  0  0  0  0  0  0  0  0
  -35.9392   58.4434   64.4485 C   0  0  0  0  0  0  0  0  0  0  0  0
  -35.2673   57.7218   63.2726 C   0  0  0  0  0  0  0  0  0  0  0  0
  -34.0631   58.4724   62.6751 C   0  0  0  0  0  0  0  0  0  0  0  0
  -32.9844   58.8109   63.7273 C   0  0  0  0  0  0  0  0  0  0  0  0
  -31.7373   59.3916   63.0546 C   0  0  0  0  0  0  0  0  0  0  0  0
  -32.0047   60.2106   61.7977 C   0  0  0  0  0  0  0  0  0  0  0  0
  -30.7800   60.9927   61.3467 C   0  0  0  0  0  0  0  0  0  0  0  0
  -29.4290   60.4628   61.8327 C   0  0  0  0  0  0  0  0  0  0  0  0
  -28.5256   61.6547   62.1190 C   0  0  0  0  0  0  0  0  0  0  0  0
  -28.9650   62.6681   63.1655 C   0  0  0  0  0  0  0  0  0  0  0  0
  -28.7812   64.1046   62.6510 C   0  0  0  0  0  0  0  0  0  0  0  0
  -28.9331   64.2614   61.1269 C   0  0  0  0  0  0  0  0  0  0  0  0
  -30.3392   64.6760   60.6994 C   0  0  0  0  0  0  0  0  0  0  0  0
  -43.6848   60.4632   66.7317 O   0  0  0  0  0  0  0  0  0  0  0  0
  -44.0048   61.0302   65.4747 C   0  0  0  0  0  0  0  0  0  0  0  0
  -42.8470   60.8343   67.0498 H   0  0  0  0  0  0  0  0  0  0  0  0
  -45.3207   60.4852   64.9144 C   0  0  0  0  0  0  0  0  0  0  0  0
  -46.4003   60.2498   65.6795 C   0  0  0  0  0  0  0  0  0  0  0  0
  -47.6778   59.7039   65.0446 C   0  0  0  0  0  0  0  0  0  0  0  0
  -48.8306   59.5050   66.0394 C   0  0  0  0  0  0  0  0  0  0  0  0
  -50.1685   59.0509   65.4270 C   0  0  0  0  0  0  0  0  0  0  0  0
  -50.9954   60.2689   64.9495 C   0  0  0  0  0  0  0  0  0  0  0  0
  -51.5058   60.1904   63.4883 C   0  0  0  0  0  0  0  0  0  0  0  0
  -50.4794   59.6062   62.4894 C   0  0  0  0  0  0  0  0  0  0  0  0
  -50.7153   58.1156   62.1625 C   0  0  0  0  0  0  0  0  0  0  0  0
  -50.6718   57.7977   60.6631 C   0  0  0  0  0  0  0  0  0  0  0  0
  -49.6715   58.6014   59.8350 C   0  0  0  0  0  0  0  0  0  0  0  0
  -49.1833   57.8754   58.5659 C   0  0  0  0  0  0  0  0  0  0  0  0
  -48.0478   56.8642   58.7859 C   0  0  0  0  0  0  0  0  0  0  0  0
  -46.9375   57.0496   57.7477 C   0  0  0  0  0  0  0  0  0  0  0  0
  -46.8740   58.4027   57.0614 C   0  0  0  0  0  0  0  0  0  0  0  0
  -42.7914   61.2891   63.1756 C   0  0  0  0  0  0  0  0  0  0  0  0
  -42.3779   60.4488   62.0682 O   0  0  0  0  0  0  0  0  0  0  0  0
  -40.0560   61.5295   63.3403 O   0  0  0  0  0  0  0  0  0  0  0  0
  -38.1230   58.5151   61.2013 O   0  0  0  0  0  0  0  0  0  0  0  0
  -40.8197   59.6289   60.3995 O   0  0  0  0  0  0  0  0  0  0  0  0
  -41.0560   60.6165   61.4321 C   0  0  0  0  0  0  0  0  0  0  0  0
  -39.8419   60.5517   62.3697 C   0  0  0  0  0  0  0  0  0  0  0  0
  -38.4992   60.8508   61.6677 C   0  0  0  0  0  0  0  0  0  0  0  0
  -38.3333   59.7949   60.6099 C   0  0  0  0  0  0  0  0  0  0  0  0
  -39.5520   59.7785   59.7049 C   0  0  0  0  0  0  0  0  0  0  0  0
  -40.8967   61.3575   63.7927 H   0  0  0  0  0  0  0  0  0  0  0  0
  -37.3410   58.5483   61.7743 H   0  0  0  0  0  0  0  0  0  0  0  0
  -37.8329   58.7297   58.4171 O   0  0  0  0  0  0  0  0  0  0  0  0
  -39.1905   58.6565   58.7341 C   0  0  0  0  0  0  0  0  0  0  0  0
  -37.6060   58.0161   57.8005 H   0  0  0  0  0  0  0  0  0  0  0  0
  -37.3185   60.7762   62.4986 O   0  0  0  0  0  0  0  0  0  0  0  0
  -35.2093   61.9062   63.4943 O   0  0  0  0  0  0  0  0  0  0  0  0
  -37.3439   62.1508   64.6226 O   0  0  0  0  0  0  0  0  0  0  0  0
  -36.8928   63.3851   62.5860 O   0  0  0  0  0  0  0  0  0  0  0  0
  -36.6770   62.0911   63.2935 S   0  0  0  0  0  0  0  0  0  0  0  0
  -35.0490   61.0674   63.9543 H   0  0  0  0  0  0  0  0  0  0  0  0
  -36.4610   63.3549   61.7180 H   0  0  0  0  0  0  0  0  0  0  0  0
  2  1  1  0  0  0
  2  4  1  0  0  0
  2  5  1  0  0  0
 41 42  1  0  0  0
 41  1  1  0  0  0
 42 46  1  0  0  0
  1 24  1  0  0  0
 23 24  1  0  0  0
 23 25  1  0  0  0
 24 26  1  0  0  0
  3  4  2  0  0  0
 26 27  2  0  0  0
 27 28  1  0  0  0
 43 47  1  0  0  0
 43 51  1  0  0  0
 28 29  1  0  0  0
 56 48  1  0  0  0
 56 60  1  0  0  0
 29 30  1  0  0  0
 57 60  1  0  0  0
 57 61  1  0  0  0
 30 31  1  0  0  0
 44 49  1  0  0  0
 44 52  1  0  0  0
 31 32  1  0  0  0
 45 46  1  0  0  0
 45 50  1  0  0  0
 32 33  1  0  0  0
 53 54  1  0  0  0
 53 55  1  0  0  0
 33 34  1  0  0  0
 34 35  1  0  0  0
 35 36  1  0  0  0
 58 60  1  0  0  0
 36 37  1  0  0  0
 59 60  1  0  0  0
 59 62  1  0  0  0
 37 38  1  0  0  0
 38 39  1  0  0  0
 39 40  1  0  0  0
  4  6  1  0  0  0
  6  7  1  0  0  0
  7  8  1  0  0  0
  8  9  1  0  0  0
  9 10  1  0  0  0
 10 11  1  0  0  0
 11 12  1  0  0  0
 12 13  1  0  0  0
 13 14  1  0  0  0
 14 15  1  0  0  0
 15 16  1  0  0  0
 16 17  1  0  0  0
 17 18  1  0  0  0
 18 19  1  0  0  0
 19 20  1  0  0  0
 20 21  1  0  0  0
 21 22  1  0  0  0
 46 47  1  0  0  0
 47 48  1  0  0  0
 48 49  1  0  0  0
 49 50  1  0  0  0
 50 54  1  0  0  0
M  CHG 1  58  -1
M  END
> <minimizedAffinity>
-9.39282

> <CNNscore>
0.1990282536

> <CNNaffinity>
6.5175881386

> <CNN_VS>
1.2971842289

> <CNNaffinity_variance>
1.0396811962

$$$$
/media/chris/experiments/cd1a-new-docking/inputs/ligands/1onq_ligand.pdb


 62 62  0  0  0  0  0  0  0  0999 V2000
  -41.0637   59.9732   64.2499 C   0  0  0  0  0  0  0  0  0  0  0  0
  -41.2845   60.7660   65.4432 N   0  0  0  0  0  0  0  0  0  0  0  0
  -42.5758   61.8060   66.9919 O   0  0  0  0  0  0  0  0  0  0  0  0
  -42.4529   61.1263   65.9915 C   0  0  0  0  0  0  0  0  0  0  0  0
  -40.4753   61.0787   65.9087 H   0  0  0  0  0  0  0  0  0  0  0  0
  -43.6735   60.6338   65.2723 C   0  0  0  0  0  0  0  0  0  0  0  0
  -44.2688   59.5241   66.1391 C   0  0  0  0  0  0  0  0  0  0  0  0
  -45.7744   59.4295   65.9039 C   0  0  0  0  0  0  0  0  0  0  0  0
  -46.2191   59.3820   64.4621 C   0  0  0  0  0  0  0  0  0  0  0  0
  -47.7347   59.5504   64.4415 C   0  0  0  0  0  0  0  0  0  0  0  0
  -48.4759   58.3121   64.9631 C   0  0  0  0  0  0  0  0  0  0  0  0
  -49.9537   58.5618   65.3158 C   0  0  0  0  0  0  0  0  0  0  0  0
  -50.3747   60.0360   65.1290 C   0  0  0  0  0  0  0  0  0  0  0  0
  -51.4211   60.1621   64.0181 C   0  0  0  0  0  0  0  0  0  0  0  0
  -50.8929   59.9392   62.6062 C   0  0  0  0  0  0  0  0  0  0  0  0
  -51.0546   58.4967   62.1503 C   0  0  0  0  0  0  0  0  0  0  0  0
  -49.9469   57.9503   61.2467 C   0  0  0  0  0  0  0  0  0  0  0  0
  -49.5535   59.0433   60.2621 C   0  0  0  0  0  0  0  0  0  0  0  0
  -48.5595   58.7088   59.1599 C   0  0  0  0  0  0  0  0  0  0  0  0
  -49.0294   57.4926   58.3462 C   0  0  0  0  0  0  0  0  0  0  0  0
  -48.2391   57.2492   57.0474 C   0  0  0  0  0  0  0  0  0  0  0  0
  -47.1151   56.2279   57.2065 C   0  0  0  0  0  0  0  0  0  0  0  0
  -39.2598   58.9897   65.3335 O   0  0  0  0  0  0  0  0  0  0  0  0
  -40.5362   58.6653   64.8144 C   0  0  0  0  0  0  0  0  0  0  0  0
  -39.3554   59.6493   66.0382 H   0  0  0  0  0  0  0  0  0  0  0  0
  -40.4560   57.6255   63.6943 C   0  0  0  0  0  0  0  0  0  0  0  0
  -41.5425   57.0576   63.1436 C   0  0  0  0  0  0  0  0  0  0  0  0
  -41.3790   56.0259   62.0292 C   0  0  0  0  0  0  0  0  0  0  0  0
  -40.7852   56.5986   60.7340 C   0  0  0  0  0  0  0  0  0  0  0  0
  -41.3142   57.9821   60.3130 C   0  0  0  0  0  0  0  0  0  0  0  0
  -40.5230   58.5265   59.0993 C   0  0  0  0  0  0  0  0  0  0  0  0
  -39.2744   59.3748   59.4499 C   0  0  0  0  0  0  0  0  0  0  0  0
  -38.0583   58.5455   59.9254 C   0  0  0  0  0  0  0  0  0  0  0  0
  -37.6882   58.7849   61.4053 C   0  0  0  0  0  0  0  0  0  0  0  0
  -36.8789   57.6433   62.0321 C   0  0  0  0  0  0  0  0  0  0  0  0
  -36.7740   57.6523   63.5557 C   0  0  0  0  0  0  0  0  0  0  0  0
  -35.3943   58.0903   64.0854 C   0  0  0  0  0  0  0  0  0  0  0  0
  -34.3191   58.3082   63.0100 C   0  0  0  0  0  0  0  0  0  0  0  0
  -33.3477   59.4184   63.4208 C   0  0  0  0  0  0  0  0  0  0  0  0
  -31.9054   59.2524   62.9757 C   0  0  0  0  0  0  0  0  0  0  0  0
  -40.2199   60.6513   63.1468 C   0  0  0  0  0  0  0  0  0  0  0  0
  -38.7791   60.5702   63.2909 O   0  0  0  0  0  0  0  0  0  0  0  0
  -37.3034   61.0185   65.6989 O   0  0  0  0  0  0  0  0  0  0  0  0
  -34.4951   62.6171   63.0613 O   0  0  0  0  0  0  0  0  0  0  0  0
  -37.4340   62.3738   62.3838 O   0  0  0  0  0  0  0  0  0  0  0  0
  -37.9706   61.7700   63.5858 C   0  0  0  0  0  0  0  0  0  0  0  0
  -36.7767   61.5650   64.5293 C   0  0  0  0  0  0  0  0  0  0  0  0
  -36.0418   62.8737   64.8934 C   0  0  0  0  0  0  0  0  0  0  0  0
  -35.5267   63.4407   63.5993 C   0  0  0  0  0  0  0  0  0  0  0  0
  -36.6702   63.5889   62.6120 C   0  0  0  0  0  0  0  0  0  0  0  0
  -37.7696   60.1941   65.4893 H   0  0  0  0  0  0  0  0  0  0  0  0
  -33.7761   62.5361   63.7074 H   0  0  0  0  0  0  0  0  0  0  0  0
  -36.2395   65.5133   61.2612 O   0  0  0  0  0  0  0  0  0  0  0  0
  -35.9442   64.1553   61.3938 C   0  0  0  0  0  0  0  0  0  0  0  0
  -35.7773   65.8706   60.4869 H   0  0  0  0  0  0  0  0  0  0  0  0
  -34.8914   62.7359   65.7580 O   0  0  0  0  0  0  0  0  0  0  0  0
  -35.5552   64.5403   67.4958 O   0  0  0  0  0  0  0  0  0  0  0  0
  -33.7235   64.9708   65.9633 O   0  0  0  0  0  0  0  0  0  0  0  0
  -33.4192   63.4586   67.8329 O   0  0  0  0  0  0  0  0  0  0  0  0
  -34.3835   63.9316   66.7993 S   0  0  0  0  0  0  0  0  0  0  0  0
  -36.1950   64.8546   66.8378 H   0  0  0  0  0  0  0  0  0  0  0  0
  -33.8416   62.7804   68.3828 H   0  0  0  0  0  0  0  0  0  0  0  0
  2  1  1  0  0  0
  2  4  1  0  0  0
  2  5  1  0  0  0
 41 42  1  0  0  0
 41  1  1  0  0  0
 42 46  1  0  0  0
  1 24  1  0  0  0
 23 24  1  0  0  0
 23 25  1  0  0  0
 24 26  1  0  0  0
  3  4  2  0  0  0
 26 27  2  0  0  0
 27 28  1  0  0  0
 43 47  1  0  0  0
 43 51  1  0  0  0
 28 29  1  0  0  0
 56 48  1  0  0  0
 56 60  1  0  0  0
 29 30  1  0  0  0
 57 60  1  0  0  0
 57 61  1  0  0  0
 30 31  1  0  0  0
 44 49  1  0  0  0
 44 52  1  0  0  0
 31 32  1  0  0  0
 45 46  1  0  0  0
 45 50  1  0  0  0
 32 33  1  0  0  0
 53 54  1  0  0  0
 53 55  1  0  0  0
 33 34  1  0  0  0
 34 35  1  0  0  0
 35 36  1  0  0  0
 58 60  1  0  0  0
 36 37  1  0  0  0
 59 60  1  0  0  0
 59 62  1  0  0  0
 37 38  1  0  0  0
 38 39  1  0  0  0
 39 40  1  0  0  0
  4  6  1  0  0  0
  6  7  1  0  0  0
  7  8  1  0  0  0
  8  9  1  0  0  0
  9 10  1  0  0  0
 10 11  1  0  0  0
 11 12  1  0  0  0
 12 13  1  0  0  0
 13 14  1  0  0  0
 14 15  1  0  0  0
 15 16  1  0  0  0
 16 17  1  0  0  0
 17 18  1  0  0  0
 18 19  1  0  0  0
 19 20  1  0  0  0
 20 21  1  0  0  0
 21 22  1  0  0  0
 46 47  1  0  0  0
 47 48  1  0  0  0
 48 49  1  0  0  0
 49 50  1  0  0  0
 50 54  1  0  0  0
M  CHG 1  58  -1
M  END
> <minimizedAffinity>
-9.45801

> <CNNscore>
0.1792712063

> <CNNaffinity>
7.0299043655

> <CNN_VS>
1.2602593899

> <CNNaffinity_variance>
1.0899032354

$$$$
/media/chris/experiments/cd1a-new-docking/inputs/ligands/1onq_ligand.pdb


 62 62  0  0  0  0  0  0  0  0999 V2000
  -35.3704   61.8270   65.3787 C   0  0  0  0  0  0  0  0  0  0  0  0
  -34.7412   61.4800   64.1198 N   0  0  0  0  0  0  0  0  0  0  0  0
  -33.4460   60.1937   62.7723 O   0  0  0  0  0  0  0  0  0  0  0  0
  -33.9576   60.4269   63.8501 C   0  0  0  0  0  0  0  0  0  0  0  0
  -34.9105   62.0945   63.3695 H   0  0  0  0  0  0  0  0  0  0  0  0
  -33.7181   59.4985   65.0036 C   0  0  0  0  0  0  0  0  0  0  0  0
  -34.0756   58.0957   64.5122 C   0  0  0  0  0  0  0  0  0  0  0  0
  -35.5865   57.9771   64.3276 C   0  0  0  0  0  0  0  0  0  0  0  0
  -36.0655   57.7350   62.9167 C   0  0  0  0  0  0  0  0  0  0  0  0
  -37.5761   57.9442   62.9006 C   0  0  0  0  0  0  0  0  0  0  0  0
  -38.2038   57.6290   61.5362 C   0  0  0  0  0  0  0  0  0  0  0  0
  -37.6962   58.5181   60.3863 C   0  0  0  0  0  0  0  0  0  0  0  0
  -38.8418   59.1532   59.5679 C   0  0  0  0  0  0  0  0  0  0  0  0
  -39.9002   58.1040   59.2159 C   0  0  0  0  0  0  0  0  0  0  0  0
  -41.2908   58.3777   59.7757 C   0  0  0  0  0  0  0  0  0  0  0  0
  -41.3183   59.5999   60.6814 C   0  0  0  0  0  0  0  0  0  0  0  0
  -41.3352   59.3201   62.1859 C   0  0  0  0  0  0  0  0  0  0  0  0
  -42.1982   58.0898   62.4313 C   0  0  0  0  0  0  0  0  0  0  0  0
  -41.5291   56.8170   62.9288 C   0  0  0  0  0  0  0  0  0  0  0  0
  -41.8650   56.5607   64.4065 C   0  0  0  0  0  0  0  0  0  0  0  0
  -43.2908   56.9713   64.8178 C   0  0  0  0  0  0  0  0  0  0  0  0
  -43.3940   57.4196   66.2738 C   0  0  0  0  0  0  0  0  0  0  0  0
  -37.1427   63.3139   65.5881 O   0  0  0  0  0  0  0  0  0  0  0  0
  -36.8102   62.0851   64.9689 C   0  0  0  0  0  0  0  0  0  0  0  0
  -36.5629   64.0138   65.2495 H   0  0  0  0  0  0  0  0  0  0  0  0
  -37.6913   60.9344   65.4607 C   0  0  0  0  0  0  0  0  0  0  0  0
  -38.9290   60.7070   64.9889 C   0  0  0  0  0  0  0  0  0  0  0  0
  -39.7468   59.5369   65.5323 C   0  0  0  0  0  0  0  0  0  0  0  0
  -41.1711   59.9194   65.9601 C   0  0  0  0  0  0  0  0  0  0  0  0
  -41.8819   60.9506   65.0642 C   0  0  0  0  0  0  0  0  0  0  0  0
  -43.3331   61.1892   65.5462 C   0  0  0  0  0  0  0  0  0  0  0  0
  -44.4217   61.0780   64.4487 C   0  0  0  0  0  0  0  0  0  0  0  0
  -45.4689   59.9689   64.7053 C   0  0  0  0  0  0  0  0  0  0  0  0
  -46.0237   59.9648   66.1463 C   0  0  0  0  0  0  0  0  0  0  0  0
  -47.4640   59.4495   66.2521 C   0  0  0  0  0  0  0  0  0  0  0  0
  -47.8483   58.3279   65.2893 C   0  0  0  0  0  0  0  0  0  0  0  0
  -48.9880   58.6984   64.3199 C   0  0  0  0  0  0  0  0  0  0  0  0
  -49.3261   60.1953   64.2484 C   0  0  0  0  0  0  0  0  0  0  0  0
  -50.8252   60.4309   64.4538 C   0  0  0  0  0  0  0  0  0  0  0  0
  -51.7239   60.1374   63.2656 C   0  0  0  0  0  0  0  0  0  0  0  0
  -34.6642   62.9347   66.1929 C   0  0  0  0  0  0  0  0  0  0  0  0
  -33.4203   63.4455   65.6495 O   0  0  0  0  0  0  0  0  0  0  0  0
  -31.1604   63.8992   63.9572 O   0  0  0  0  0  0  0  0  0  0  0  0
  -34.0441   63.7495   60.9470 O   0  0  0  0  0  0  0  0  0  0  0  0
  -34.7069   64.3986   63.8271 O   0  0  0  0  0  0  0  0  0  0  0  0
  -33.4066   64.3199   64.4599 C   0  0  0  0  0  0  0  0  0  0  0  0
  -32.4156   63.9370   63.3513 C   0  0  0  0  0  0  0  0  0  0  0  0
  -32.3628   64.9521   62.1886 C   0  0  0  0  0  0  0  0  0  0  0  0
  -33.7439   64.9834   61.5946 C   0  0  0  0  0  0  0  0  0  0  0  0
  -34.7625   65.2869   62.6784 C   0  0  0  0  0  0  0  0  0  0  0  0
  -31.1747   63.2654   64.6914 H   0  0  0  0  0  0  0  0  0  0  0  0
  -33.3820   63.5756   60.2598 H   0  0  0  0  0  0  0  0  0  0  0  0
  -36.9739   66.1625   62.4406 O   0  0  0  0  0  0  0  0  0  0  0  0
  -36.0653   65.2617   61.8822 C   0  0  0  0  0  0  0  0  0  0  0  0
  -37.8004   66.1446   61.9331 H   0  0  0  0  0  0  0  0  0  0  0  0
  -31.4655   64.6268   61.1027 O   0  0  0  0  0  0  0  0  0  0  0  0
  -30.3202   65.3334   58.8878 O   0  0  0  0  0  0  0  0  0  0  0  0
  -29.2502   65.8451   61.0050 O   0  0  0  0  0  0  0  0  0  0  0  0
  -31.1763   67.1212   60.2724 O   0  0  0  0  0  0  0  0  0  0  0  0
  -30.5568   65.7657   60.2970 S   0  0  0  0  0  0  0  0  0  0  0  0
  -29.9166   64.4514   58.8836 H   0  0  0  0  0  0  0  0  0  0  0  0
  -32.0290   67.0786   59.8124 H   0  0  0  0  0  0  0  0  0  0  0  0
  2  1  1  0  0  0
  2  4  1  0  0  0
  2  5  1  0  0  0
 41 42  1  0  0  0
 41  1  1  0  0  0
 42 46  1  0  0  0
  1 24  1  0  0  0
 23 24  1  0  0  0
 23 25  1  0  0  0
 24 26  1  0  0  0
  3  4  2  0  0  0
 26 27  2  0  0  0
 27 28  1  0  0  0
 43 47  1  0  0  0
 43 51  1  0  0  0
 28 29  1  0  0  0
 56 48  1  0  0  0
 56 60  1  0  0  0
 29 30  1  0  0  0
 57 60  1  0  0  0
 57 61  1  0  0  0
 30 31  1  0  0  0
 44 49  1  0  0  0
 44 52  1  0  0  0
 31 32  1  0  0  0
 45 46  1  0  0  0
 45 50  1  0  0  0
 32 33  1  0  0  0
 53 54  1  0  0  0
 53 55  1  0  0  0
 33 34  1  0  0  0
 34 35  1  0  0  0
 35 36  1  0  0  0
 58 60  1  0  0  0
 36 37  1  0  0  0
 59 60  1  0  0  0
 59 62  1  0  0  0
 37 38  1  0  0  0
 38 39  1  0  0  0
 39 40  1  0  0  0
  4  6  1  0  0  0
  6  7  1  0  0  0
  7  8  1  0  0  0
  8  9  1  0  0  0
  9 10  1  0  0  0
 10 11  1  0  0  0
 11 12  1  0  0  0
 12 13  1  0  0  0
 13 14  1  0  0  0
 14 15  1  0  0  0
 15 16  1  0  0  0
 16 17  1  0  0  0
 17 18  1  0  0  0
 18 19  1  0  0  0
 19 20  1  0  0  0
 20 21  1  0  0  0
 21 22  1  0  0  0
 46 47  1  0  0  0
 47 48  1  0  0  0
 48 49  1  0  0  0
 49 50  1  0  0  0
 50 54  1  0  0  0
M  CHG 1  58  -1
M  END
> <minimizedAffinity>
-8.65123

> <CNNscore>
0.1578051597

> <CNNaffinity>
6.8460683823

> <CNN_VS>
1.0803449154

> <CNNaffinity_variance>
1.7233940363

$$$$
