/media/chris/experiments/cd1a-new-docking/inputs/ligands/1onq_ligand.pdb


 62 62  0  0  0  0  0  0  0  0999 V2000
  -41.5268   60.5598   65.6781 C   0  0  0  0  0  0  0  0  0  0  0  0
  -42.1979   59.4914   66.3918 N   0  0  0  0  0  0  0  0  0  0  0  0
  -42.6977   57.3189   66.8135 O   0  0  0  0  0  0  0  0  0  0  0  0
  -42.0978   58.1708   66.1874 C   0  0  0  0  0  0  0  0  0  0  0  0
  -42.8023   59.7707   67.1170 H   0  0  0  0  0  0  0  0  0  0  0  0
  -41.1663   57.7652   65.0839 C   0  0  0  0  0  0  0  0  0  0  0  0
  -41.7222   56.4645   64.5039 C   0  0  0  0  0  0  0  0  0  0  0  0
  -41.9665   56.6243   63.0053 C   0  0  0  0  0  0  0  0  0  0  0  0
  -41.2692   55.6292   62.1096 C   0  0  0  0  0  0  0  0  0  0  0  0
  -41.2312   56.2213   60.7047 C   0  0  0  0  0  0  0  0  0  0  0  0
  -41.5878   57.7136   60.6802 C   0  0  0  0  0  0  0  0  0  0  0  0
  -41.1734   58.4416   59.3884 C   0  0  0  0  0  0  0  0  0  0  0  0
  -39.6737   58.2737   59.0593 C   0  0  0  0  0  0  0  0  0  0  0  0
  -38.8145   59.1056   60.0158 C   0  0  0  0  0  0  0  0  0  0  0  0
  -37.6380   58.3630   60.6374 C   0  0  0  0  0  0  0  0  0  0  0  0
  -38.0667   57.4586   61.7835 C   0  0  0  0  0  0  0  0  0  0  0  0
  -38.0357   58.0843   63.1799 C   0  0  0  0  0  0  0  0  0  0  0  0
  -36.6966   57.7479   63.8222 C   0  0  0  0  0  0  0  0  0  0  0  0
  -35.5593   58.7519   63.7061 C   0  0  0  0  0  0  0  0  0  0  0  0
  -34.5256   58.2939   62.6651 C   0  0  0  0  0  0  0  0  0  0  0  0
  -33.0650   58.3452   63.1501 C   0  0  0  0  0  0  0  0  0  0  0  0
  -32.9350   58.6087   64.6484 C   0  0  0  0  0  0  0  0  0  0  0  0
  -41.9897   62.0208   63.9325 O   0  0  0  0  0  0  0  0  0  0  0  0
  -42.4672   60.8219   64.5142 C   0  0  0  0  0  0  0  0  0  0  0  0
  -41.0836   61.8868   63.6132 H   0  0  0  0  0  0  0  0  0  0  0  0
  -43.8972   60.9657   65.0403 C   0  0  0  0  0  0  0  0  0  0  0  0
  -44.9164   60.2043   64.6072 C   0  0  0  0  0  0  0  0  0  0  0  0
  -46.3168   60.4101   65.1817 C   0  0  0  0  0  0  0  0  0  0  0  0
  -47.4475   60.0421   64.2100 C   0  0  0  0  0  0  0  0  0  0  0  0
  -48.7448   60.8585   64.3569 C   0  0  0  0  0  0  0  0  0  0  0  0
  -49.8709   59.9943   64.9735 C   0  0  0  0  0  0  0  0  0  0  0  0
  -51.2985   60.2975   64.4523 C   0  0  0  0  0  0  0  0  0  0  0  0
  -51.4894   60.0357   62.9397 C   0  0  0  0  0  0  0  0  0  0  0  0
  -51.0207   58.6345   62.4916 C   0  0  0  0  0  0  0  0  0  0  0  0
  -49.8485   58.6619   61.5036 C   0  0  0  0  0  0  0  0  0  0  0  0
  -49.4396   57.3156   60.9096 C   0  0  0  0  0  0  0  0  0  0  0  0
  -48.2759   57.4034   59.9026 C   0  0  0  0  0  0  0  0  0  0  0  0
  -48.4246   58.4859   58.8227 C   0  0  0  0  0  0  0  0  0  0  0  0
  -47.4272   58.2653   57.6818 C   0  0  0  0  0  0  0  0  0  0  0  0
  -47.2761   56.8390   57.1835 C   0  0  0  0  0  0  0  0  0  0  0  0
  -40.0422   60.3013   65.3350 C   0  0  0  0  0  0  0  0  0  0  0  0
  -39.3919   61.2835   64.4890 O   0  0  0  0  0  0  0  0  0  0  0  0
  -37.6045   61.5248   62.2699 O   0  0  0  0  0  0  0  0  0  0  0  0
  -35.9357   64.5446   64.6141 O   0  0  0  0  0  0  0  0  0  0  0  0
  -37.5973   62.2955   65.7700 O   0  0  0  0  0  0  0  0  0  0  0  0
  -37.9403   61.5358   64.5855 C   0  0  0  0  0  0  0  0  0  0  0  0
  -37.3037   62.2798   63.4029 C   0  0  0  0  0  0  0  0  0  0  0  0
  -35.7681   62.4096   63.5056 C   0  0  0  0  0  0  0  0  0  0  0  0
  -35.4956   63.1964   64.7578 C   0  0  0  0  0  0  0  0  0  0  0  0
  -36.1735   62.5297   65.9412 C   0  0  0  0  0  0  0  0  0  0  0  0
  -38.5666   61.4326   62.1889 H   0  0  0  0  0  0  0  0  0  0  0  0
  -35.4908   64.9506   63.8537 H   0  0  0  0  0  0  0  0  0  0  0  0
  -36.1788   62.9191   68.2996 O   0  0  0  0  0  0  0  0  0  0  0  0
  -35.7880   63.4726   67.0790 C   0  0  0  0  0  0  0  0  0  0  0  0
  -35.9329   63.5198   69.0205 H   0  0  0  0  0  0  0  0  0  0  0  0
  -35.1188   63.1266   62.4313 O   0  0  0  0  0  0  0  0  0  0  0  0
  -33.0301   63.5088   60.9452 O   0  0  0  0  0  0  0  0  0  0  0  0
  -32.8359   62.1742   62.9627 O   0  0  0  0  0  0  0  0  0  0  0  0
  -33.0202   64.5864   63.1096 O   0  0  0  0  0  0  0  0  0  0  0  0
  -33.4743   63.3780   62.3645 S   0  0  0  0  0  0  0  0  0  0  0  0
  -33.3171   62.7298   60.4435 H   0  0  0  0  0  0  0  0  0  0  0  0
  -33.4320   65.3764   62.7260 H   0  0  0  0  0  0  0  0  0  0  0  0
  2  1  1  0  0  0
  2  4  1  0  0  0
  2  5  1  0  0  0
 41 42  1  0  0  0
 41  1  1  0  0  0
 42 46  1  0  0  0
  1 24  1  0  0  0
 23 24  1  0  0  0
 23 25  1  0  0  0
 24 26  1  0  0  0
  3  4  2  0  0  0
 26 27  2  0  0  0
 27 28  1  0  0  0
 43 47  1  0  0  0
 43 51  1  0  0  0
 28 29  1  0  0  0
 56 48  1  0  0  0
 56 60  1  0  0  0
 29 30  1  0  0  0
 57 60  1  0  0  0
 57 61  1  0  0  0
 30 31  1  0  0  0
 44 49  1  0  0  0
 44 52  1  0  0  0
 31 32  1  0  0  0
 45 46  1  0  0  0
 45 50  1  0  0  0
 32 33  1  0  0  0
 53 54  1  0  0  0
 53 55  1  0  0  0
 33 34  1  0  0  0
 34 35  1  0  0  0
 35 36  1  0  0  0
 58 60  1  0  0  0
 36 37  1  0  0  0
 59 60  1  0  0  0
 59 62  1  0  0  0
 37 38  1  0  0  0
 38 39  1  0  0  0
 39 40  1  0  0  0
  4  6  1  0  0  0
  6  7  1  0  0  0
  7  8  1  0  0  0
  8  9  1  0  0  0
  9 10  1  0  0  0
 10 11  1  0  0  0
 11 12  1  0  0  0
 12 13  1  0  0  0
 13 14  1  0  0  0
 14 15  1  0  0  0
 15 16  1  0  0  0
 16 17  1  0  0  0
 17 18  1  0  0  0
 18 19  1  0  0  0
 19 20  1  0  0  0
 20 21  1  0  0  0
 21 22  1  0  0  0
 46 47  1  0  0  0
 47 48  1  0  0  0
 48 49  1  0  0  0
 49 50  1  0  0  0
 50 54  1  0  0  0
M  CHG 1  58  -1
M  END
> <minimizedAffinity>
-9.92880

> <CNNscore>
0.3643518090

> <CNNaffinity>
7.2144026756

> <CNN_VS>
2.6285805702

> <CNNaffinity_variance>
2.1227164268

$$$$
/media/chris/experiments/cd1a-new-docking/inputs/ligands/1onq_ligand.pdb


 62 62  0  0  0  0  0  0  0  0999 V2000
  -41.3204   59.6551   64.5224 C   0  0  0  0  0  0  0  0  0  0  0  0
  -41.3882   58.3582   63.8785 N   0  0  0  0  0  0  0  0  0  0  0  0
  -41.9938   56.1757   63.7448 O   0  0  0  0  0  0  0  0  0  0  0  0
  -41.9804   57.2428   64.3270 C   0  0  0  0  0  0  0  0  0  0  0  0
  -40.9438   58.2880   63.0028 H   0  0  0  0  0  0  0  0  0  0  0  0
  -42.6584   57.3722   65.6586 C   0  0  0  0  0  0  0  0  0  0  0  0
  -44.1618   57.3137   65.3868 C   0  0  0  0  0  0  0  0  0  0  0  0
  -44.8714   58.4386   66.1365 C   0  0  0  0  0  0  0  0  0  0  0  0
  -46.3548   58.5685   65.8886 C   0  0  0  0  0  0  0  0  0  0  0  0
  -46.5988   59.9359   65.2591 C   0  0  0  0  0  0  0  0  0  0  0  0
  -48.0876   60.2220   65.0210 C   0  0  0  0  0  0  0  0  0  0  0  0
  -49.0414   59.3012   65.8039 C   0  0  0  0  0  0  0  0  0  0  0  0
  -50.5267   59.6872   65.6291 C   0  0  0  0  0  0  0  0  0  0  0  0
  -50.7044   60.6204   64.4280 C   0  0  0  0  0  0  0  0  0  0  0  0
  -51.6798   60.1267   63.3665 C   0  0  0  0  0  0  0  0  0  0  0  0
  -51.0542   59.0902   62.4450 C   0  0  0  0  0  0  0  0  0  0  0  0
  -49.7905   59.5288   61.7013 C   0  0  0  0  0  0  0  0  0  0  0  0
  -49.0321   58.2794   61.2741 C   0  0  0  0  0  0  0  0  0  0  0  0
  -49.5858   57.4463   60.1277 C   0  0  0  0  0  0  0  0  0  0  0  0
  -49.0531   57.9478   58.7761 C   0  0  0  0  0  0  0  0  0  0  0  0
  -47.5796   57.5960   58.5002 C   0  0  0  0  0  0  0  0  0  0  0  0
  -47.0121   58.2957   57.2675 C   0  0  0  0  0  0  0  0  0  0  0  0
  -43.3718   60.4645   63.7925 O   0  0  0  0  0  0  0  0  0  0  0  0
  -41.9892   60.5645   63.5059 C   0  0  0  0  0  0  0  0  0  0  0  0
  -43.5389   60.7821   64.6938 H   0  0  0  0  0  0  0  0  0  0  0  0
  -41.6563   60.0776   62.0936 C   0  0  0  0  0  0  0  0  0  0  0  0
  -41.3390   60.9108   61.0881 C   0  0  0  0  0  0  0  0  0  0  0  0
  -41.0200   60.3463   59.7049 C   0  0  0  0  0  0  0  0  0  0  0  0
  -41.0189   58.8118   59.6449 C   0  0  0  0  0  0  0  0  0  0  0  0
  -39.7822   58.1713   58.9882 C   0  0  0  0  0  0  0  0  0  0  0  0
  -38.5054   58.9837   59.3122 C   0  0  0  0  0  0  0  0  0  0  0  0
  -37.7030   58.4923   60.5436 C   0  0  0  0  0  0  0  0  0  0  0  0
  -38.5043   57.5742   61.4964 C   0  0  0  0  0  0  0  0  0  0  0  0
  -37.9915   57.5973   62.9525 C   0  0  0  0  0  0  0  0  0  0  0  0
  -36.6299   58.2830   63.1171 C   0  0  0  0  0  0  0  0  0  0  0  0
  -36.0501   58.2939   64.5300 C   0  0  0  0  0  0  0  0  0  0  0  0
  -34.8516   59.2468   64.7074 C   0  0  0  0  0  0  0  0  0  0  0  0
  -33.5196   58.5656   65.0564 C   0  0  0  0  0  0  0  0  0  0  0  0
  -32.5256   58.6747   63.8965 C   0  0  0  0  0  0  0  0  0  0  0  0
  -33.0523   58.3108   62.5197 C   0  0  0  0  0  0  0  0  0  0  0  0
  -39.9210   60.0762   65.0257 C   0  0  0  0  0  0  0  0  0  0  0  0
  -39.3344   61.2481   64.4047 O   0  0  0  0  0  0  0  0  0  0  0  0
  -37.5138   61.6087   62.2291 O   0  0  0  0  0  0  0  0  0  0  0  0
  -35.9905   64.6146   64.6874 O   0  0  0  0  0  0  0  0  0  0  0  0
  -37.5989   62.2816   65.7483 O   0  0  0  0  0  0  0  0  0  0  0  0
  -37.8940   61.5445   64.5370 C   0  0  0  0  0  0  0  0  0  0  0  0
  -37.2598   62.3413   63.3880 C   0  0  0  0  0  0  0  0  0  0  0  0
  -35.7315   62.5178   63.5249 C   0  0  0  0  0  0  0  0  0  0  0  0
  -35.5090   63.2778   64.8033 C   0  0  0  0  0  0  0  0  0  0  0  0
  -36.1871   62.5569   65.9543 C   0  0  0  0  0  0  0  0  0  0  0  0
  -38.4707   61.4877   62.1264 H   0  0  0  0  0  0  0  0  0  0  0  0
  -35.5447   65.0557   63.9474 H   0  0  0  0  0  0  0  0  0  0  0  0
  -36.2243   62.8681   68.3240 O   0  0  0  0  0  0  0  0  0  0  0  0
  -35.8546   63.4798   67.1248 C   0  0  0  0  0  0  0  0  0  0  0  0
  -36.0122   63.4561   69.0657 H   0  0  0  0  0  0  0  0  0  0  0  0
  -35.0857   63.2850   62.4837 O   0  0  0  0  0  0  0  0  0  0  0  0
  -33.1394   63.6931   60.8216 O   0  0  0  0  0  0  0  0  0  0  0  0
  -33.0031   61.8512   62.3958 O   0  0  0  0  0  0  0  0  0  0  0  0
  -32.6704   64.1294   63.1530 O   0  0  0  0  0  0  0  0  0  0  0  0
  -33.4422   63.2620   62.2185 S   0  0  0  0  0  0  0  0  0  0  0  0
  -33.6338   63.1387   60.1978 H   0  0  0  0  0  0  0  0  0  0  0  0
  -32.9506   65.0517   63.0441 H   0  0  0  0  0  0  0  0  0  0  0  0
  2  1  1  0  0  0
  2  4  1  0  0  0
  2  5  1  0  0  0
 41 42  1  0  0  0
 41  1  1  0  0  0
 42 46  1  0  0  0
  1 24  1  0  0  0
 23 24  1  0  0  0
 23 25  1  0  0  0
 24 26  1  0  0  0
  3  4  2  0  0  0
 26 27  2  0  0  0
 27 28  1  0  0  0
 43 47  1  0  0  0
 43 51  1  0  0  0
 28 29  1  0  0  0
 56 48  1  0  0  0
 56 60  1  0  0  0
 29 30  1  0  0  0
 57 60  1  0  0  0
 57 61  1  0  0  0
 30 31  1  0  0  0
 44 49  1  0  0  0
 44 52  1  0  0  0
 31 32  1  0  0  0
 45 46  1  0  0  0
 45 50  1  0  0  0
 32 33  1  0  0  0
 53 54  1  0  0  0
 53 55  1  0  0  0
 33 34  1  0  0  0
 34 35  1  0  0  0
 35 36  1  0  0  0
 58 60  1  0  0  0
 36 37  1  0  0  0
 59 60  1  0  0  0
 59 62  1  0  0  0
 37 38  1  0  0  0
 38 39  1  0  0  0
 39 40  1  0  0  0
  4  6  1  0  0  0
  6  7  1  0  0  0
  7  8  1  0  0  0
  8  9  1  0  0  0
  9 10  1  0  0  0
 10 11  1  0  0  0
 11 12  1  0  0  0
 12 13  1  0  0  0
 13 14  1  0  0  0
 14 15  1  0  0  0
 15 16  1  0  0  0
 16 17  1  0  0  0
 17 18  1  0  0  0
 18 19  1  0  0  0
 19 20  1  0  0  0
 20 21  1  0  0  0
 21 22  1  0  0  0
 46 47  1  0  0  0
 47 48  1  0  0  0
 48 49  1  0  0  0
 49 50  1  0  0  0
 50 54  1  0  0  0
M  CHG 1  58  -1
M  END
> <minimizedAffinity>
-9.86795

> <CNNscore>
0.2708609700

> <CNNaffinity>
7.1424398422

> <CNN_VS>
1.9346082211

> <CNNaffinity_variance>
1.8343498707

$$$$
/media/chris/experiments/cd1a-new-docking/inputs/ligands/1onq_ligand.pdb


 62 62  0  0  0  0  0  0  0  0999 V2000
  -41.1849   60.2899   63.5816 C   0  0  0  0  0  0  0  0  0  0  0  0
  -41.2337   60.9095   62.2721 N   0  0  0  0  0  0  0  0  0  0  0  0
  -41.3912   60.8872   60.0088 O   0  0  0  0  0  0  0  0  0  0  0  0
  -41.3689   60.3126   61.0799 C   0  0  0  0  0  0  0  0  0  0  0  0
  -41.1582   61.8910   62.2566 H   0  0  0  0  0  0  0  0  0  0  0  0
  -41.4903   58.8183   61.1251 C   0  0  0  0  0  0  0  0  0  0  0  0
  -41.1030   58.3100   59.7362 C   0  0  0  0  0  0  0  0  0  0  0  0
  -39.6868   57.7403   59.7656 C   0  0  0  0  0  0  0  0  0  0  0  0
  -38.5823   58.6872   59.3630 C   0  0  0  0  0  0  0  0  0  0  0  0
  -37.5528   58.6995   60.4881 C   0  0  0  0  0  0  0  0  0  0  0  0
  -37.9757   57.8418   61.6883 C   0  0  0  0  0  0  0  0  0  0  0  0
  -36.8484   57.5734   62.7020 C   0  0  0  0  0  0  0  0  0  0  0  0
  -35.7487   58.6576   62.6781 C   0  0  0  0  0  0  0  0  0  0  0  0
  -34.3596   58.0201   62.7732 C   0  0  0  0  0  0  0  0  0  0  0  0
  -33.3949   58.7150   63.7264 C   0  0  0  0  0  0  0  0  0  0  0  0
  -32.1343   59.1958   63.0230 C   0  0  0  0  0  0  0  0  0  0  0  0
  -32.2106   60.5842   62.3836 C   0  0  0  0  0  0  0  0  0  0  0  0
  -30.9584   60.7897   61.5418 C   0  0  0  0  0  0  0  0  0  0  0  0
  -29.6196   60.3331   62.1025 C   0  0  0  0  0  0  0  0  0  0  0  0
  -28.5629   61.4417   61.9742 C   0  0  0  0  0  0  0  0  0  0  0  0
  -28.9864   62.7991   62.5651 C   0  0  0  0  0  0  0  0  0  0  0  0
  -28.8735   63.9524   61.5709 C   0  0  0  0  0  0  0  0  0  0  0  0
  -41.8337   61.3899   65.5219 O   0  0  0  0  0  0  0  0  0  0  0  0
  -42.3651   60.9281   64.2939 C   0  0  0  0  0  0  0  0  0  0  0  0
  -41.1447   62.0503   65.3480 H   0  0  0  0  0  0  0  0  0  0  0  0
  -43.4614   59.8798   64.4979 C   0  0  0  0  0  0  0  0  0  0  0  0
  -44.7170   60.1946   64.8589 C   0  0  0  0  0  0  0  0  0  0  0  0
  -45.7549   59.0891   65.0436 C   0  0  0  0  0  0  0  0  0  0  0  0
  -47.0538   59.3183   64.2572 C   0  0  0  0  0  0  0  0  0  0  0  0
  -48.0656   60.2802   64.9069 C   0  0  0  0  0  0  0  0  0  0  0  0
  -49.1133   60.7566   63.8722 C   0  0  0  0  0  0  0  0  0  0  0  0
  -50.5879   60.4432   64.2312 C   0  0  0  0  0  0  0  0  0  0  0  0
  -51.3716   59.7172   63.1125 C   0  0  0  0  0  0  0  0  0  0  0  0
  -50.7834   58.3388   62.7411 C   0  0  0  0  0  0  0  0  0  0  0  0
  -50.6466   58.1121   61.2308 C   0  0  0  0  0  0  0  0  0  0  0  0
  -49.7274   59.0789   60.4873 C   0  0  0  0  0  0  0  0  0  0  0  0
  -49.0145   58.4548   59.2715 C   0  0  0  0  0  0  0  0  0  0  0  0
  -47.9957   57.3541   59.6038 C   0  0  0  0  0  0  0  0  0  0  0  0
  -47.0722   57.0818   58.4128 C   0  0  0  0  0  0  0  0  0  0  0  0
  -47.0352   58.1458   57.3302 C   0  0  0  0  0  0  0  0  0  0  0  0
  -39.8166   60.3533   64.2974 C   0  0  0  0  0  0  0  0  0  0  0  0
  -39.1076   61.6167   64.2299 O   0  0  0  0  0  0  0  0  0  0  0  0
  -37.1142   61.9259   62.2030 O   0  0  0  0  0  0  0  0  0  0  0  0
  -35.3641   64.4312   65.0420 O   0  0  0  0  0  0  0  0  0  0  0  0
  -37.3412   62.2577   65.7644 O   0  0  0  0  0  0  0  0  0  0  0  0
  -37.6524   61.6915   64.4681 C   0  0  0  0  0  0  0  0  0  0  0  0
  -36.8408   62.4985   63.4446 C   0  0  0  0  0  0  0  0  0  0  0  0
  -35.3152   62.4423   63.6793 C   0  0  0  0  0  0  0  0  0  0  0  0
  -35.0773   63.0348   65.0407 C   0  0  0  0  0  0  0  0  0  0  0  0
  -35.9220   62.3086   66.0719 C   0  0  0  0  0  0  0  0  0  0  0  0
  -38.0697   61.9524   62.0381 H   0  0  0  0  0  0  0  0  0  0  0  0
  -34.8143   64.8747   64.3771 H   0  0  0  0  0  0  0  0  0  0  0  0
  -34.1562   63.1245   67.4612 O   0  0  0  0  0  0  0  0  0  0  0  0
  -35.5461   63.0564   67.3493 C   0  0  0  0  0  0  0  0  0  0  0  0
  -33.9201   63.5998   68.2731 H   0  0  0  0  0  0  0  0  0  0  0  0
  -34.5035   63.2080   62.7603 O   0  0  0  0  0  0  0  0  0  0  0  0
  -34.1038   65.4028   61.4410 O   0  0  0  0  0  0  0  0  0  0  0  0
  -36.2768   64.9833   62.4366 O   0  0  0  0  0  0  0  0  0  0  0  0
  -35.6060   63.8004   60.4303 O   0  0  0  0  0  0  0  0  0  0  0  0
  -35.1283   64.3556   61.7284 S   0  0  0  0  0  0  0  0  0  0  0  0
  -33.7805   65.7765   62.2757 H   0  0  0  0  0  0  0  0  0  0  0  0
  -34.8630   63.3889   59.9617 H   0  0  0  0  0  0  0  0  0  0  0  0
  2  1  1  0  0  0
  2  4  1  0  0  0
  2  5  1  0  0  0
 41 42  1  0  0  0
 41  1  1  0  0  0
 42 46  1  0  0  0
  1 24  1  0  0  0
 23 24  1  0  0  0
 23 25  1  0  0  0
 24 26  1  0  0  0
  3  4  2  0  0  0
 26 27  2  0  0  0
 27 28  1  0  0  0
 43 47  1  0  0  0
 43 51  1  0  0  0
 28 29  1  0  0  0
 56 48  1  0  0  0
 56 60  1  0  0  0
 29 30  1  0  0  0
 57 60  1  0  0  0
 57 61  1  0  0  0
 30 31  1  0  0  0
 44 49  1  0  0  0
 44 52  1  0  0  0
 31 32  1  0  0  0
 45 46  1  0  0  0
 45 50  1  0  0  0
 32 33  1  0  0  0
 53 54  1  0  0  0
 53 55  1  0  0  0
 33 34  1  0  0  0
 34 35  1  0  0  0
 35 36  1  0  0  0
 58 60  1  0  0  0
 36 37  1  0  0  0
 59 60  1  0  0  0
 59 62  1  0  0  0
 37 38  1  0  0  0
 38 39  1  0  0  0
 39 40  1  0  0  0
  4  6  1  0  0  0
  6  7  1  0  0  0
  7  8  1  0  0  0
  8  9  1  0  0  0
  9 10  1  0  0  0
 10 11  1  0  0  0
 11 12  1  0  0  0
 12 13  1  0  0  0
 13 14  1  0  0  0
 14 15  1  0  0  0
 15 16  1  0  0  0
 16 17  1  0  0  0
 17 18  1  0  0  0
 18 19  1  0  0  0
 19 20  1  0  0  0
 20 21  1  0  0  0
 21 22  1  0  0  0
 46 47  1  0  0  0
 47 48  1  0  0  0
 48 49  1  0  0  0
 49 50  1  0  0  0
 50 54  1  0  0  0
M  CHG 1  58  -1
M  END
> <minimizedAffinity>
-9.73194

> <CNNscore>
0.2666185498

> <CNNaffinity>
6.7582597733

> <CNN_VS>
1.8018773794

> <CNNaffinity_variance>
1.1058185101

$$$$
/media/chris/experiments/cd1a-new-docking/inputs/ligands/1onq_ligand.pdb


 62 62  0  0  0  0  0  0  0  0999 V2000
  -40.7265   59.6573   64.2292 C   0  0  0  0  0  0  0  0  0  0  0  0
  -41.1655   60.2302   65.4863 N   0  0  0  0  0  0  0  0  0  0  0  0
  -42.5609   61.4482   66.7966 O   0  0  0  0  0  0  0  0  0  0  0  0
  -42.2493   60.9837   65.7173 C   0  0  0  0  0  0  0  0  0  0  0  0
  -40.5966   60.0424   66.2675 H   0  0  0  0  0  0  0  0  0  0  0  0
  -43.1071   61.2519   64.5164 C   0  0  0  0  0  0  0  0  0  0  0  0
  -44.4804   60.6539   64.8228 C   0  0  0  0  0  0  0  0  0  0  0  0
  -44.4851   59.1630   64.4939 C   0  0  0  0  0  0  0  0  0  0  0  0
  -45.3538   58.2931   65.3699 C   0  0  0  0  0  0  0  0  0  0  0  0
  -46.5013   59.1564   65.8835 C   0  0  0  0  0  0  0  0  0  0  0  0
  -47.8793   58.6010   65.4993 C   0  0  0  0  0  0  0  0  0  0  0  0
  -49.0533   59.5431   65.8230 C   0  0  0  0  0  0  0  0  0  0  0  0
  -49.4689   60.4195   64.6211 C   0  0  0  0  0  0  0  0  0  0  0  0
  -50.9942   60.4791   64.4981 C   0  0  0  0  0  0  0  0  0  0  0  0
  -51.5632   59.8639   63.2254 C   0  0  0  0  0  0  0  0  0  0  0  0
  -50.5296   59.0423   62.4692 C   0  0  0  0  0  0  0  0  0  0  0  0
  -51.0761   57.8879   61.6260 C   0  0  0  0  0  0  0  0  0  0  0  0
  -49.9843   57.4450   60.6613 C   0  0  0  0  0  0  0  0  0  0  0  0
  -49.9748   58.0248   59.2547 C   0  0  0  0  0  0  0  0  0  0  0  0
  -48.6014   58.6265   58.9171 C   0  0  0  0  0  0  0  0  0  0  0  0
  -47.5645   57.6069   58.4108 C   0  0  0  0  0  0  0  0  0  0  0  0
  -46.8413   58.0591   57.1443 C   0  0  0  0  0  0  0  0  0  0  0  0
  -38.9397   58.4673   65.1165 O   0  0  0  0  0  0  0  0  0  0  0  0
  -40.2591   58.2722   64.6421 C   0  0  0  0  0  0  0  0  0  0  0  0
  -38.9563   59.0622   65.8825 H   0  0  0  0  0  0  0  0  0  0  0  0
  -40.3038   57.3396   63.4294 C   0  0  0  0  0  0  0  0  0  0  0  0
  -41.4411   56.7902   62.9702 C   0  0  0  0  0  0  0  0  0  0  0  0
  -41.4026   55.8677   61.7533 C   0  0  0  0  0  0  0  0  0  0  0  0
  -41.0539   56.5845   60.4407 C   0  0  0  0  0  0  0  0  0  0  0  0
  -41.6780   57.9802   60.2572 C   0  0  0  0  0  0  0  0  0  0  0  0
  -40.6264   58.9877   59.7335 C   0  0  0  0  0  0  0  0  0  0  0  0
  -39.3275   58.3563   59.1715 C   0  0  0  0  0  0  0  0  0  0  0  0
  -38.0460   58.7513   59.9427 C   0  0  0  0  0  0  0  0  0  0  0  0
  -37.8753   58.0015   61.2815 C   0  0  0  0  0  0  0  0  0  0  0  0
  -36.7534   58.5611   62.1643 C   0  0  0  0  0  0  0  0  0  0  0  0
  -35.7980   57.5337   62.7676 C   0  0  0  0  0  0  0  0  0  0  0  0
  -35.5307   57.7354   64.2722 C   0  0  0  0  0  0  0  0  0  0  0  0
  -34.9517   59.1055   64.6565 C   0  0  0  0  0  0  0  0  0  0  0  0
  -33.4755   58.9887   65.0471 C   0  0  0  0  0  0  0  0  0  0  0  0
  -32.5164   58.5737   63.9455 C   0  0  0  0  0  0  0  0  0  0  0  0
  -39.7336   60.5184   63.4159 C   0  0  0  0  0  0  0  0  0  0  0  0
  -39.1378   61.6464   64.1057 O   0  0  0  0  0  0  0  0  0  0  0  0
  -37.2062   62.0482   62.0357 O   0  0  0  0  0  0  0  0  0  0  0  0
  -35.4153   64.4934   64.9015 O   0  0  0  0  0  0  0  0  0  0  0  0
  -37.3391   62.2682   65.6104 O   0  0  0  0  0  0  0  0  0  0  0  0
  -37.6777   61.7368   64.3063 C   0  0  0  0  0  0  0  0  0  0  0  0
  -36.9070   62.5871   63.2864 C   0  0  0  0  0  0  0  0  0  0  0  0
  -35.3748   62.5477   63.4774 C   0  0  0  0  0  0  0  0  0  0  0  0
  -35.1079   63.1023   64.8494 C   0  0  0  0  0  0  0  0  0  0  0  0
  -35.9128   62.3320   65.8805 C   0  0  0  0  0  0  0  0  0  0  0  0
  -38.1662   62.0647   61.8978 H   0  0  0  0  0  0  0  0  0  0  0  0
  -34.8908   64.9654   64.2358 H   0  0  0  0  0  0  0  0  0  0  0  0
  -36.3974   64.0976   67.4173 O   0  0  0  0  0  0  0  0  0  0  0  0
  -35.5127   63.0465   67.1695 C   0  0  0  0  0  0  0  0  0  0  0  0
  -36.1411   64.5497   68.2363 H   0  0  0  0  0  0  0  0  0  0  0  0
  -34.6003   63.3536   62.5606 O   0  0  0  0  0  0  0  0  0  0  0  0
  -32.5913   63.7181   60.9643 O   0  0  0  0  0  0  0  0  0  0  0  0
  -32.7904   61.6273   62.1800 O   0  0  0  0  0  0  0  0  0  0  0  0
  -32.0857   63.6425   63.3274 O   0  0  0  0  0  0  0  0  0  0  0  0
  -32.9812   63.1006   62.2664 S   0  0  0  0  0  0  0  0  0  0  0  0
  -33.1644   63.3768   60.2601 H   0  0  0  0  0  0  0  0  0  0  0  0
  -32.2038   64.6032   63.3906 H   0  0  0  0  0  0  0  0  0  0  0  0
  2  1  1  0  0  0
  2  4  1  0  0  0
  2  5  1  0  0  0
 41 42  1  0  0  0
 41  1  1  0  0  0
 42 46  1  0  0  0
  1 24  1  0  0  0
 23 24  1  0  0  0
 23 25  1  0  0  0
 24 26  1  0  0  0
  3  4  2  0  0  0
 26 27  2  0  0  0
 27 28  1  0  0  0
 43 47  1  0  0  0
 43 51  1  0  0  0
 28 29  1  0  0  0
 56 48  1  0  0  0
 56 60  1  0  0  0
 29 30  1  0  0  0
 57 60  1  0  0  0
 57 61  1  0  0  0
 30 31  1  0  0  0
 44 49  1  0  0  0
 44 52  1  0  0  0
 31 32  1  0  0  0
 45 46  1  0  0  0
 45 50  1  0  0  0
 32 33  1  0  0  0
 53 54  1  0  0  0
 53 55  1  0  0  0
 33 34  1  0  0  0
 34 35  1  0  0  0
 35 36  1  0  0  0
 58 60  1  0  0  0
 36 37  1  0  0  0
 59 60  1  0  0  0
 59 62  1  0  0  0
 37 38  1  0  0  0
 38 39  1  0  0  0
 39 40  1  0  0  0
  4  6  1  0  0  0
  6  7  1  0  0  0
  7  8  1  0  0  0
  8  9  1  0  0  0
  9 10  1  0  0  0
 10 11  1  0  0  0
 11 12  1  0  0  0
 12 13  1  0  0  0
 13 14  1  0  0  0
 14 15  1  0  0  0
 15 16  1  0  0  0
 16 17  1  0  0  0
 17 18  1  0  0  0
 18 19  1  0  0  0
 19 20  1  0  0  0
 20 21  1  0  0  0
 21 22  1  0  0  0
 46 47  1  0  0  0
 47 48  1  0  0  0
 48 49  1  0  0  0
 49 50  1  0  0  0
 50 54  1  0  0  0
M  CHG 1  58  -1
M  END
> <minimizedAffinity>
-9.95078

> <CNNscore>
0.2473790646

> <CNNaffinity>
7.1307044029

> <CNN_VS>
1.7639869452

> <CNNaffinity_variance>
1.8312900066

$$$$
/media/chris/experiments/cd1a-new-docking/inputs/ligands/1onq_ligand.pdb


 62 62  0  0  0  0  0  0  0  0999 V2000
  -41.6382   60.2451   64.4024 C   0  0  0  0  0  0  0  0  0  0  0  0
  -42.0895   61.2456   63.4556 N   0  0  0  0  0  0  0  0  0  0  0  0
  -42.5148   62.0389   61.3730 O   0  0  0  0  0  0  0  0  0  0  0  0
  -42.1357   61.1573   62.1192 C   0  0  0  0  0  0  0  0  0  0  0  0
  -42.4007   62.0958   63.8424 H   0  0  0  0  0  0  0  0  0  0  0  0
  -41.6651   59.8519   61.5498 C   0  0  0  0  0  0  0  0  0  0  0  0
  -40.9495   60.1835   60.2401 C   0  0  0  0  0  0  0  0  0  0  0  0
  -41.0415   58.9990   59.2812 C   0  0  0  0  0  0  0  0  0  0  0  0
  -39.9098   58.0022   59.3476 C   0  0  0  0  0  0  0  0  0  0  0  0
  -38.6048   58.7754   59.1900 C   0  0  0  0  0  0  0  0  0  0  0  0
  -37.6857   58.6431   60.4118 C   0  0  0  0  0  0  0  0  0  0  0  0
  -38.2154   57.6930   61.5014 C   0  0  0  0  0  0  0  0  0  0  0  0
  -37.3872   57.7521   62.8038 C   0  0  0  0  0  0  0  0  0  0  0  0
  -35.9261   58.0948   62.4996 C   0  0  0  0  0  0  0  0  0  0  0  0
  -34.9402   57.7618   63.6128 C   0  0  0  0  0  0  0  0  0  0  0  0
  -33.8668   58.8284   63.7716 C   0  0  0  0  0  0  0  0  0  0  0  0
  -33.1011   59.2043   62.5009 C   0  0  0  0  0  0  0  0  0  0  0  0
  -32.0480   60.2408   62.8692 C   0  0  0  0  0  0  0  0  0  0  0  0
  -31.1818   60.8252   61.7633 C   0  0  0  0  0  0  0  0  0  0  0  0
  -29.7211   60.3706   61.9107 C   0  0  0  0  0  0  0  0  0  0  0  0
  -28.7549   61.4707   62.3874 C   0  0  0  0  0  0  0  0  0  0  0  0
  -29.0142   62.8267   61.7351 C   0  0  0  0  0  0  0  0  0  0  0  0
  -42.2895   59.3591   66.4486 O   0  0  0  0  0  0  0  0  0  0  0  0
  -42.7043   60.3072   65.4828 C   0  0  0  0  0  0  0  0  0  0  0  0
  -41.4269   59.6197   66.8077 H   0  0  0  0  0  0  0  0  0  0  0  0
  -44.0636   59.9539   64.8746 C   0  0  0  0  0  0  0  0  0  0  0  0
  -45.2261   60.1399   65.5228 C   0  0  0  0  0  0  0  0  0  0  0  0
  -46.5425   59.7604   64.8472 C   0  0  0  0  0  0  0  0  0  0  0  0
  -47.5762   59.1450   65.8016 C   0  0  0  0  0  0  0  0  0  0  0  0
  -48.8347   59.9942   66.0588 C   0  0  0  0  0  0  0  0  0  0  0  0
  -50.0960   59.2887   65.5050 C   0  0  0  0  0  0  0  0  0  0  0  0
  -51.0640   60.1961   64.7043 C   0  0  0  0  0  0  0  0  0  0  0  0
  -50.8240   60.1856   63.1762 C   0  0  0  0  0  0  0  0  0  0  0  0
  -51.0212   58.7974   62.5297 C   0  0  0  0  0  0  0  0  0  0  0  0
  -49.7086   58.0944   62.1633 C   0  0  0  0  0  0  0  0  0  0  0  0
  -49.7324   57.2482   60.8922 C   0  0  0  0  0  0  0  0  0  0  0  0
  -50.0287   58.0520   59.6107 C   0  0  0  0  0  0  0  0  0  0  0  0
  -49.2551   57.6021   58.3620 C   0  0  0  0  0  0  0  0  0  0  0  0
  -47.7601   57.9025   58.5034 C   0  0  0  0  0  0  0  0  0  0  0  0
  -47.0310   58.3121   57.2360 C   0  0  0  0  0  0  0  0  0  0  0  0
  -40.1680   60.3771   64.8604 C   0  0  0  0  0  0  0  0  0  0  0  0
  -39.3380   61.3045   64.1160 O   0  0  0  0  0  0  0  0  0  0  0  0
  -37.2807   61.6628   62.1623 O   0  0  0  0  0  0  0  0  0  0  0  0
  -35.7552   64.2965   65.0146 O   0  0  0  0  0  0  0  0  0  0  0  0
  -37.6635   62.0520   65.7044 O   0  0  0  0  0  0  0  0  0  0  0  0
  -37.8979   61.4480   64.4091 C   0  0  0  0  0  0  0  0  0  0  0  0
  -37.0820   62.2704   63.4015 C   0  0  0  0  0  0  0  0  0  0  0  0
  -35.5660   62.2861   63.6964 C   0  0  0  0  0  0  0  0  0  0  0  0
  -35.4083   62.9144   65.0535 C   0  0  0  0  0  0  0  0  0  0  0  0
  -36.2612   62.1714   66.0659 C   0  0  0  0  0  0  0  0  0  0  0  0
  -38.2291   61.6439   61.9598 H   0  0  0  0  0  0  0  0  0  0  0  0
  -35.1992   64.7511   64.3625 H   0  0  0  0  0  0  0  0  0  0  0  0
  -34.5956   63.1840   67.4494 O   0  0  0  0  0  0  0  0  0  0  0  0
  -35.9692   62.9593   67.3412 C   0  0  0  0  0  0  0  0  0  0  0  0
  -34.4128   63.6845   68.2600 H   0  0  0  0  0  0  0  0  0  0  0  0
  -34.7523   63.0693   62.7941 O   0  0  0  0  0  0  0  0  0  0  0  0
  -35.7370   63.8160   60.5160 O   0  0  0  0  0  0  0  0  0  0  0  0
  -34.2560   65.3090   61.7271 O   0  0  0  0  0  0  0  0  0  0  0  0
  -36.5408   64.9906   62.4705 O   0  0  0  0  0  0  0  0  0  0  0  0
  -35.3552   64.3160   61.8699 S   0  0  0  0  0  0  0  0  0  0  0  0
  -34.9764   63.3731   60.1085 H   0  0  0  0  0  0  0  0  0  0  0  0
  -37.2627   64.3500   62.5673 H   0  0  0  0  0  0  0  0  0  0  0  0
  2  1  1  0  0  0
  2  4  1  0  0  0
  2  5  1  0  0  0
 41 42  1  0  0  0
 41  1  1  0  0  0
 42 46  1  0  0  0
  1 24  1  0  0  0
 23 24  1  0  0  0
 23 25  1  0  0  0
 24 26  1  0  0  0
  3  4  2  0  0  0
 26 27  2  0  0  0
 27 28  1  0  0  0
 43 47  1  0  0  0
 43 51  1  0  0  0
 28 29  1  0  0  0
 56 48  1  0  0  0
 56 60  1  0  0  0
 29 30  1  0  0  0
 57 60  1  0  0  0
 57 61  1  0  0  0
 30 31  1  0  0  0
 44 49  1  0  0  0
 44 52  1  0  0  0
 31 32  1  0  0  0
 45 46  1  0  0  0
 45 50  1  0  0  0
 32 33  1  0  0  0
 53 54  1  0  0  0
 53 55  1  0  0  0
 33 34  1  0  0  0
 34 35  1  0  0  0
 35 36  1  0  0  0
 58 60  1  0  0  0
 36 37  1  0  0  0
 59 60  1  0  0  0
 59 62  1  0  0  0
 37 38  1  0  0  0
 38 39  1  0  0  0
 39 40  1  0  0  0
  4  6  1  0  0  0
  6  7  1  0  0  0
  7  8  1  0  0  0
  8  9  1  0  0  0
  9 10  1  0  0  0
 10 11  1  0  0  0
 11 12  1  0  0  0
 12 13  1  0  0  0
 13 14  1  0  0  0
 14 15  1  0  0  0
 15 16  1  0  0  0
 16 17  1  0  0  0
 17 18  1  0  0  0
 18 19  1  0  0  0
 19 20  1  0  0  0
 20 21  1  0  0  0
 21 22  1  0  0  0
 46 47  1  0  0  0
 47 48  1  0  0  0
 48 49  1  0  0  0
 49 50  1  0  0  0
 50 54  1  0  0  0
M  CHG 1  58  -1
M  END
> <minimizedAffinity>
-9.96886

> <CNNscore>
0.2434574217

> <CNNaffinity>
6.7222633362

> <CNN_VS>
1.6365848780

> <CNNaffinity_variance>
1.3135585785

$$$$
/media/chris/experiments/cd1a-new-docking/inputs/ligands/1onq_ligand.pdb


 62 62  0  0  0  0  0  0  0  0999 V2000
  -42.6753   60.6247   64.6824 C   0  0  0  0  0  0  0  0  0  0  0  0
  -42.7786   59.1804   64.6161 N   0  0  0  0  0  0  0  0  0  0  0  0
  -41.9796   57.0663   64.8158 O   0  0  0  0  0  0  0  0  0  0  0  0
  -41.8374   58.2705   64.9023 C   0  0  0  0  0  0  0  0  0  0  0  0
  -43.6486   58.8234   64.3245 H   0  0  0  0  0  0  0  0  0  0  0  0
  -40.5220   58.8337   65.3521 C   0  0  0  0  0  0  0  0  0  0  0  0
  -39.4394   58.0613   64.5980 C   0  0  0  0  0  0  0  0  0  0  0  0
  -38.0615   58.6173   64.9493 C   0  0  0  0  0  0  0  0  0  0  0  0
  -36.9168   57.6347   64.8979 C   0  0  0  0  0  0  0  0  0  0  0  0
  -35.6954   58.3774   64.3667 C   0  0  0  0  0  0  0  0  0  0  0  0
  -35.1921   57.8126   63.0315 C   0  0  0  0  0  0  0  0  0  0  0  0
  -33.9105   58.4833   62.5042 C   0  0  0  0  0  0  0  0  0  0  0  0
  -32.8309   58.6562   63.5951 C   0  0  0  0  0  0  0  0  0  0  0  0
  -31.6098   59.3911   63.0348 C   0  0  0  0  0  0  0  0  0  0  0  0
  -31.9046   60.3511   61.8887 C   0  0  0  0  0  0  0  0  0  0  0  0
  -30.6542   61.0658   61.3981 C   0  0  0  0  0  0  0  0  0  0  0  0
  -29.3190   60.4493   61.8216 C   0  0  0  0  0  0  0  0  0  0  0  0
  -28.4734   61.5408   62.4638 C   0  0  0  0  0  0  0  0  0  0  0  0
  -29.1758   62.7509   63.0614 C   0  0  0  0  0  0  0  0  0  0  0  0
  -28.5545   64.0582   62.5449 C   0  0  0  0  0  0  0  0  0  0  0  0
  -28.9005   64.3957   61.0829 C   0  0  0  0  0  0  0  0  0  0  0  0
  -30.3637   64.7835   60.8825 C   0  0  0  0  0  0  0  0  0  0  0  0
  -43.1764   60.8548   66.9389 O   0  0  0  0  0  0  0  0  0  0  0  0
  -43.7756   60.9905   65.6637 C   0  0  0  0  0  0  0  0  0  0  0  0
  -42.4340   61.4746   67.0149 H   0  0  0  0  0  0  0  0  0  0  0  0
  -44.9583   60.0370   65.4778 C   0  0  0  0  0  0  0  0  0  0  0  0
  -45.5838   59.4378   66.5054 C   0  0  0  0  0  0  0  0  0  0  0  0
  -46.7573   58.4974   66.2370 C   0  0  0  0  0  0  0  0  0  0  0  0
  -47.8388   59.0970   65.3265 C   0  0  0  0  0  0  0  0  0  0  0  0
  -48.9759   59.8457   66.0459 C   0  0  0  0  0  0  0  0  0  0  0  0
  -50.3565   59.3800   65.5241 C   0  0  0  0  0  0  0  0  0  0  0  0
  -51.0620   60.3604   64.5531 C   0  0  0  0  0  0  0  0  0  0  0  0
  -51.4705   59.7288   63.2013 C   0  0  0  0  0  0  0  0  0  0  0  0
  -50.4442   58.7100   62.6606 C   0  0  0  0  0  0  0  0  0  0  0  0
  -50.9788   57.8440   61.5137 C   0  0  0  0  0  0  0  0  0  0  0  0
  -50.1626   57.8609   60.2229 C   0  0  0  0  0  0  0  0  0  0  0  0
  -49.1180   56.7314   60.1281 C   0  0  0  0  0  0  0  0  0  0  0  0
  -47.7856   57.1250   59.4724 C   0  0  0  0  0  0  0  0  0  0  0  0
  -47.9848   58.2537   58.4568 C   0  0  0  0  0  0  0  0  0  0  0  0
  -47.0788   58.2334   57.2385 C   0  0  0  0  0  0  0  0  0  0  0  0
  -42.6794   61.3556   63.3205 C   0  0  0  0  0  0  0  0  0  0  0  0
  -42.3816   60.5503   62.1517 O   0  0  0  0  0  0  0  0  0  0  0  0
  -39.9862   61.6162   63.2933 O   0  0  0  0  0  0  0  0  0  0  0  0
  -38.2153   58.4613   61.2173 O   0  0  0  0  0  0  0  0  0  0  0  0
  -40.9083   59.6174   60.4651 O   0  0  0  0  0  0  0  0  0  0  0  0
  -41.0799   60.6535   61.4625 C   0  0  0  0  0  0  0  0  0  0  0  0
  -39.8344   60.5931   62.3583 C   0  0  0  0  0  0  0  0  0  0  0  0
  -38.5107   60.8243   61.5968 C   0  0  0  0  0  0  0  0  0  0  0  0
  -38.4125   59.7210   60.5798 C   0  0  0  0  0  0  0  0  0  0  0  0
  -39.6636   59.7017   59.7202 C   0  0  0  0  0  0  0  0  0  0  0  0
  -40.8139   61.4873   63.7822 H   0  0  0  0  0  0  0  0  0  0  0  0
  -37.4121   58.4960   61.7603 H   0  0  0  0  0  0  0  0  0  0  0  0
  -38.0742   58.6511   58.2767 O   0  0  0  0  0  0  0  0  0  0  0  0
  -39.3685   58.5304   58.7858 C   0  0  0  0  0  0  0  0  0  0  0  0
  -37.8893   57.9061   57.6836 H   0  0  0  0  0  0  0  0  0  0  0  0
  -37.3028   60.7506   62.3876 O   0  0  0  0  0  0  0  0  0  0  0  0
  -37.4574   62.4429   64.3445 O   0  0  0  0  0  0  0  0  0  0  0  0
  -36.6549   63.1873   62.1786 O   0  0  0  0  0  0  0  0  0  0  0  0
  -35.2312   61.8482   63.6119 O   0  0  0  0  0  0  0  0  0  0  0  0
  -36.6338   62.0666   63.1574 S   0  0  0  0  0  0  0  0  0  0  0  0
  -38.3754   62.5894   64.0677 H   0  0  0  0  0  0  0  0  0  0  0  0
  -35.2083   61.1187   64.2508 H   0  0  0  0  0  0  0  0  0  0  0  0
  2  1  1  0  0  0
  2  4  1  0  0  0
  2  5  1  0  0  0
 41 42  1  0  0  0
 41  1  1  0  0  0
 42 46  1  0  0  0
  1 24  1  0  0  0
 23 24  1  0  0  0
 23 25  1  0  0  0
 24 26  1  0  0  0
  3  4  2  0  0  0
 26 27  2  0  0  0
 27 28  1  0  0  0
 43 47  1  0  0  0
 43 51  1  0  0  0
 28 29  1  0  0  0
 56 48  1  0  0  0
 56 60  1  0  0  0
 29 30  1  0  0  0
 57 60  1  0  0  0
 57 61  1  0  0  0
 30 31  1  0  0  0
 44 49  1  0  0  0
 44 52  1  0  0  0
 31 32  1  0  0  0
 45 46  1  0  0  0
 45 50  1  0  0  0
 32 33  1  0  0  0
 53 54  1  0  0  0
 53 55  1  0  0  0
 33 34  1  0  0  0
 34 35  1  0  0  0
 35 36  1  0  0  0
 58 60  1  0  0  0
 36 37  1  0  0  0
 59 60  1  0  0  0
 59 62  1  0  0  0
 37 38  1  0  0  0
 38 39  1  0  0  0
 39 40  1  0  0  0
  4  6  1  0  0  0
  6  7  1  0  0  0
  7  8  1  0  0  0
  8  9  1  0  0  0
  9 10  1  0  0  0
 10 11  1  0  0  0
 11 12  1  0  0  0
 12 13  1  0  0  0
 13 14  1  0  0  0
 14 15  1  0  0  0
 15 16  1  0  0  0
 16 17  1  0  0  0
 17 18  1  0  0  0
 18 19  1  0  0  0
 19 20  1  0  0  0
 20 21  1  0  0  0
 21 22  1  0  0  0
 46 47  1  0  0  0
 47 48  1  0  0  0
 48 49  1  0  0  0
 49 50  1  0  0  0
 50 54  1  0  0  0
M  CHG 1  58  -1
M  END
> <minimizedAffinity>
-9.53304

> <CNNscore>
0.2341189831

> <CNNaffinity>
6.6116271019

> <CNN_VS>
1.5479074717

> <CNNaffinity_variance>
1.0336624384

$$$$
/media/chris/experiments/cd1a-new-docking/inputs/ligands/1onq_ligand.pdb


 62 62  0  0  0  0  0  0  0  0999 V2000
  -40.8414   60.2342   63.9190 C   0  0  0  0  0  0  0  0  0  0  0  0
  -41.9325   61.1317   64.2431 N   0  0  0  0  0  0  0  0  0  0  0  0
  -44.1142   61.6502   64.5880 O   0  0  0  0  0  0  0  0  0  0  0  0
  -43.2399   60.8485   64.3222 C   0  0  0  0  0  0  0  0  0  0  0  0
  -41.6819   62.0656   64.4283 H   0  0  0  0  0  0  0  0  0  0  0  0
  -43.6006   59.4193   64.0446 C   0  0  0  0  0  0  0  0  0  0  0  0
  -43.9213   58.7829   65.3972 C   0  0  0  0  0  0  0  0  0  0  0  0
  -45.2999   58.1284   65.3518 C   0  0  0  0  0  0  0  0  0  0  0  0
  -46.4502   59.0299   64.9743 C   0  0  0  0  0  0  0  0  0  0  0  0
  -47.0772   59.5426   66.2664 C   0  0  0  0  0  0  0  0  0  0  0  0
  -48.3500   60.3647   66.0226 C   0  0  0  0  0  0  0  0  0  0  0  0
  -49.6531   59.5475   66.0906 C   0  0  0  0  0  0  0  0  0  0  0  0
  -50.5731   59.7821   64.8724 C   0  0  0  0  0  0  0  0  0  0  0  0
  -50.3599   58.6932   63.8170 C   0  0  0  0  0  0  0  0  0  0  0  0
  -50.7855   59.0724   62.4039 C   0  0  0  0  0  0  0  0  0  0  0  0
  -51.0918   57.8534   61.5464 C   0  0  0  0  0  0  0  0  0  0  0  0
  -50.5486   57.8853   60.1160 C   0  0  0  0  0  0  0  0  0  0  0  0
  -49.1559   58.5001   60.1497 C   0  0  0  0  0  0  0  0  0  0  0  0
  -48.0266   57.7887   59.4192 C   0  0  0  0  0  0  0  0  0  0  0  0
  -47.6970   58.4956   58.0949 C   0  0  0  0  0  0  0  0  0  0  0  0
  -46.9135   57.6330   57.0884 C   0  0  0  0  0  0  0  0  0  0  0  0
  -47.2492   56.1461   57.1773 C   0  0  0  0  0  0  0  0  0  0  0  0
  -39.9423   60.9152   65.9497 O   0  0  0  0  0  0  0  0  0  0  0  0
  -40.3945   59.7488   65.2873 C   0  0  0  0  0  0  0  0  0  0  0  0
  -40.6764   61.5434   66.0356 H   0  0  0  0  0  0  0  0  0  0  0  0
  -39.2807   58.7128   65.1188 C   0  0  0  0  0  0  0  0  0  0  0  0
  -38.0027   58.9500   65.4602 C   0  0  0  0  0  0  0  0  0  0  0  0
  -36.9479   57.8634   65.2599 C   0  0  0  0  0  0  0  0  0  0  0  0
  -35.8280   58.2562   64.2854 C   0  0  0  0  0  0  0  0  0  0  0  0
  -36.2722   58.5391   62.8384 C   0  0  0  0  0  0  0  0  0  0  0  0
  -37.0662   57.3415   62.2635 C   0  0  0  0  0  0  0  0  0  0  0  0
  -38.2254   57.7148   61.3051 C   0  0  0  0  0  0  0  0  0  0  0  0
  -37.8670   58.8116   60.2748 C   0  0  0  0  0  0  0  0  0  0  0  0
  -38.7739   58.8051   59.0253 C   0  0  0  0  0  0  0  0  0  0  0  0
  -40.1045   58.0716   59.2315 C   0  0  0  0  0  0  0  0  0  0  0  0
  -41.0820   58.7169   60.2116 C   0  0  0  0  0  0  0  0  0  0  0  0
  -41.8641   57.7056   61.0727 C   0  0  0  0  0  0  0  0  0  0  0  0
  -41.4621   56.2351   60.8831 C   0  0  0  0  0  0  0  0  0  0  0  0
  -41.1612   55.5693   62.2289 C   0  0  0  0  0  0  0  0  0  0  0  0
  -41.6981   56.2705   63.4641 C   0  0  0  0  0  0  0  0  0  0  0  0
  -39.7513   60.8189   62.9924 C   0  0  0  0  0  0  0  0  0  0  0  0
  -39.0830   62.0198   63.4554 O   0  0  0  0  0  0  0  0  0  0  0  0
  -36.9028   62.3609   61.6366 O   0  0  0  0  0  0  0  0  0  0  0  0
  -35.3086   64.5856   64.7844 O   0  0  0  0  0  0  0  0  0  0  0  0
  -37.4362   62.4707   65.1789 O   0  0  0  0  0  0  0  0  0  0  0  0
  -37.6533   62.0064   63.8243 C   0  0  0  0  0  0  0  0  0  0  0  0
  -36.7180   62.8370   62.9340 C   0  0  0  0  0  0  0  0  0  0  0  0
  -35.2238   62.6898   63.2964 C   0  0  0  0  0  0  0  0  0  0  0  0
  -35.0842   63.1797   64.7113 C   0  0  0  0  0  0  0  0  0  0  0  0
  -36.0497   62.4307   65.6120 C   0  0  0  0  0  0  0  0  0  0  0  0
  -37.8374   62.4457   61.3912 H   0  0  0  0  0  0  0  0  0  0  0  0
  -34.6820   65.0436   64.2024 H   0  0  0  0  0  0  0  0  0  0  0  0
  -36.5743   64.1936   67.1387 O   0  0  0  0  0  0  0  0  0  0  0  0
  -35.7585   63.0740   66.9661 C   0  0  0  0  0  0  0  0  0  0  0  0
  -36.3874   64.6003   67.9993 H   0  0  0  0  0  0  0  0  0  0  0  0
  -34.2995   63.4725   62.5072 O   0  0  0  0  0  0  0  0  0  0  0  0
  -32.2677   63.5567   60.9004 O   0  0  0  0  0  0  0  0  0  0  0  0
  -32.7388   61.5175   62.1287 O   0  0  0  0  0  0  0  0  0  0  0  0
  -31.7651   63.4259   63.2618 O   0  0  0  0  0  0  0  0  0  0  0  0
  -32.7304   63.0035   62.2076 S   0  0  0  0  0  0  0  0  0  0  0  0
  -32.8848   63.2916   60.2005 H   0  0  0  0  0  0  0  0  0  0  0  0
  -31.7532   64.3941   63.3200 H   0  0  0  0  0  0  0  0  0  0  0  0
  2  1  1  0  0  0
  2  4  1  0  0  0
  2  5  1  0  0  0
 41 42  1  0  0  0
 41  1  1  0  0  0
 42 46  1  0  0  0
  1 24  1  0  0  0
 23 24  1  0  0  0
 23 25  1  0  0  0
 24 26  1  0  0  0
  3  4  2  0  0  0
 26 27  2  0  0  0
 27 28  1  0  0  0
 43 47  1  0  0  0
 43 51  1  0  0  0
 28 29  1  0  0  0
 56 48  1  0  0  0
 56 60  1  0  0  0
 29 30  1  0  0  0
 57 60  1  0  0  0
 57 61  1  0  0  0
 30 31  1  0  0  0
 44 49  1  0  0  0
 44 52  1  0  0  0
 31 32  1  0  0  0
 45 46  1  0  0  0
 45 50  1  0  0  0
 32 33  1  0  0  0
 53 54  1  0  0  0
 53 55  1  0  0  0
 33 34  1  0  0  0
 34 35  1  0  0  0
 35 36  1  0  0  0
 58 60  1  0  0  0
 36 37  1  0  0  0
 59 60  1  0  0  0
 59 62  1  0  0  0
 37 38  1  0  0  0
 38 39  1  0  0  0
 39 40  1  0  0  0
  4  6  1  0  0  0
  6  7  1  0  0  0
  7  8  1  0  0  0
  8  9  1  0  0  0
  9 10  1  0  0  0
 10 11  1  0  0  0
 11 12  1  0  0  0
 12 13  1  0  0  0
 13 14  1  0  0  0
 14 15  1  0  0  0
 15 16  1  0  0  0
 16 17  1  0  0  0
 17 18  1  0  0  0
 18 19  1  0  0  0
 19 20  1  0  0  0
 20 21  1  0  0  0
 21 22  1  0  0  0
 46 47  1  0  0  0
 47 48  1  0  0  0
 48 49  1  0  0  0
 49 50  1  0  0  0
 50 54  1  0  0  0
M  CHG 1  58  -1
M  END
> <minimizedAffinity>
-9.72415

> <CNNscore>
0.1917071640

> <CNNaffinity>
7.1734824181

> <CNN_VS>
1.3752080202

> <CNNaffinity_variance>
1.3786580563

$$$$
/media/chris/experiments/cd1a-new-docking/inputs/ligands/1onq_ligand.pdb


 62 62  0  0  0  0  0  0  0  0999 V2000
  -42.6265   58.1792   63.9958 C   0  0  0  0  0  0  0  0  0  0  0  0
  -43.2185   57.8095   65.2663 N   0  0  0  0  0  0  0  0  0  0  0  0
  -44.9318   57.6251   66.7422 O   0  0  0  0  0  0  0  0  0  0  0  0
  -44.4943   57.9441   65.6537 C   0  0  0  0  0  0  0  0  0  0  0  0
  -42.6074   57.4099   65.9266 H   0  0  0  0  0  0  0  0  0  0  0  0
  -45.4110   58.5474   64.6313 C   0  0  0  0  0  0  0  0  0  0  0  0
  -45.7633   59.9464   65.1372 C   0  0  0  0  0  0  0  0  0  0  0  0
  -47.1536   60.3435   64.6467 C   0  0  0  0  0  0  0  0  0  0  0  0
  -48.2533   60.3211   65.6805 C   0  0  0  0  0  0  0  0  0  0  0  0
  -48.9197   58.9510   65.6149 C   0  0  0  0  0  0  0  0  0  0  0  0
  -50.4256   59.0368   65.3320 C   0  0  0  0  0  0  0  0  0  0  0  0
  -50.8514   60.2928   64.5501 C   0  0  0  0  0  0  0  0  0  0  0  0
  -51.5114   59.9607   63.1938 C   0  0  0  0  0  0  0  0  0  0  0  0
  -50.7912   58.7925   62.5144 C   0  0  0  0  0  0  0  0  0  0  0  0
  -49.4791   59.1545   61.8292 C   0  0  0  0  0  0  0  0  0  0  0  0
  -49.6183   59.2244   60.3156 C   0  0  0  0  0  0  0  0  0  0  0  0
  -50.0098   57.9203   59.6167 C   0  0  0  0  0  0  0  0  0  0  0  0
  -49.0198   56.8412   60.0341 C   0  0  0  0  0  0  0  0  0  0  0  0
  -47.6513   56.8106   59.3699 C   0  0  0  0  0  0  0  0  0  0  0  0
  -47.7418   56.2281   57.9505 C   0  0  0  0  0  0  0  0  0  0  0  0
  -47.6724   57.2762   56.8245 C   0  0  0  0  0  0  0  0  0  0  0  0
  -47.0375   58.5935   57.2638 C   0  0  0  0  0  0  0  0  0  0  0  0
  -41.9095   56.0130   64.4309 O   0  0  0  0  0  0  0  0  0  0  0  0
  -41.4391   57.2368   63.8974 C   0  0  0  0  0  0  0  0  0  0  0  0
  -42.6469   55.6872   63.8913 H   0  0  0  0  0  0  0  0  0  0  0  0
  -40.2710   57.8071   64.7053 C   0  0  0  0  0  0  0  0  0  0  0  0
  -39.0013   57.7945   64.2648 C   0  0  0  0  0  0  0  0  0  0  0  0
  -37.8899   58.3831   65.1319 C   0  0  0  0  0  0  0  0  0  0  0  0
  -36.5472   57.6488   65.0044 C   0  0  0  0  0  0  0  0  0  0  0  0
  -35.3903   58.4733   64.4107 C   0  0  0  0  0  0  0  0  0  0  0  0
  -35.0481   57.9896   62.9809 C   0  0  0  0  0  0  0  0  0  0  0  0
  -33.6134   58.3190   62.4964 C   0  0  0  0  0  0  0  0  0  0  0  0
  -32.9773   59.5471   63.1893 C   0  0  0  0  0  0  0  0  0  0  0  0
  -31.4999   59.7770   62.8040 C   0  0  0  0  0  0  0  0  0  0  0  0
  -31.3152   60.4583   61.4428 C   0  0  0  0  0  0  0  0  0  0  0  0
  -30.5066   61.7539   61.4448 C   0  0  0  0  0  0  0  0  0  0  0  0
  -29.1975   61.6734   62.2547 C   0  0  0  0  0  0  0  0  0  0  0  0
  -28.5311   63.0239   62.5580 C   0  0  0  0  0  0  0  0  0  0  0  0
  -29.5627   64.0523   63.0308 C   0  0  0  0  0  0  0  0  0  0  0  0
  -29.6231   64.3096   64.5260 C   0  0  0  0  0  0  0  0  0  0  0  0
  -42.3421   59.6867   63.8075 C   0  0  0  0  0  0  0  0  0  0  0  0
  -42.3654   60.1855   62.4459 O   0  0  0  0  0  0  0  0  0  0  0  0
  -40.0375   61.4595   63.5113 O   0  0  0  0  0  0  0  0  0  0  0  0
  -38.0596   58.5589   61.2588 O   0  0  0  0  0  0  0  0  0  0  0  0
  -40.8885   59.4537   60.6658 O   0  0  0  0  0  0  0  0  0  0  0  0
  -41.1154   60.4396   61.7022 C   0  0  0  0  0  0  0  0  0  0  0  0
  -39.8285   60.4827   62.5385 C   0  0  0  0  0  0  0  0  0  0  0  0
  -38.5730   60.8683   61.7258 C   0  0  0  0  0  0  0  0  0  0  0  0
  -38.4132   59.8085   60.6710 C   0  0  0  0  0  0  0  0  0  0  0  0
  -39.6959   59.6847   59.8686 C   0  0  0  0  0  0  0  0  0  0  0  0
  -40.8236   61.2336   64.0327 H   0  0  0  0  0  0  0  0  0  0  0  0
  -37.2388   58.6608   61.7657 H   0  0  0  0  0  0  0  0  0  0  0  0
  -38.0088   58.7393   58.4636 O   0  0  0  0  0  0  0  0  0  0  0  0
  -39.3295   58.5752   58.8852 C   0  0  0  0  0  0  0  0  0  0  0  0
  -37.7787   58.0335   57.8393 H   0  0  0  0  0  0  0  0  0  0  0  0
  -37.3272   60.8971   62.4585 O   0  0  0  0  0  0  0  0  0  0  0  0
  -37.6585   62.8239   64.1600 O   0  0  0  0  0  0  0  0  0  0  0  0
  -36.5486   63.2692   62.0483 O   0  0  0  0  0  0  0  0  0  0  0  0
  -35.3850   62.0788   63.8100 O   0  0  0  0  0  0  0  0  0  0  0  0
  -36.7054   62.2791   63.1482 S   0  0  0  0  0  0  0  0  0  0  0  0
  -38.5252   62.9611   63.7467 H   0  0  0  0  0  0  0  0  0  0  0  0
  -35.4782   61.4343   64.5289 H   0  0  0  0  0  0  0  0  0  0  0  0
  2  1  1  0  0  0
  2  4  1  0  0  0
  2  5  1  0  0  0
 41 42  1  0  0  0
 41  1  1  0  0  0
 42 46  1  0  0  0
  1 24  1  0  0  0
 23 24  1  0  0  0
 23 25  1  0  0  0
 24 26  1  0  0  0
  3  4  2  0  0  0
 26 27  2  0  0  0
 27 28  1  0  0  0
 43 47  1  0  0  0
 43 51  1  0  0  0
 28 29  1  0  0  0
 56 48  1  0  0  0
 56 60  1  0  0  0
 29 30  1  0  0  0
 57 60  1  0  0  0
 57 61  1  0  0  0
 30 31  1  0  0  0
 44 49  1  0  0  0
 44 52  1  0  0  0
 31 32  1  0  0  0
 45 46  1  0  0  0
 45 50  1  0  0  0
 32 33  1  0  0  0
 53 54  1  0  0  0
 53 55  1  0  0  0
 33 34  1  0  0  0
 34 35  1  0  0  0
 35 36  1  0  0  0
 58 60  1  0  0  0
 36 37  1  0  0  0
 59 60  1  0  0  0
 59 62  1  0  0  0
 37 38  1  0  0  0
 38 39  1  0  0  0
 39 40  1  0  0  0
  4  6  1  0  0  0
  6  7  1  0  0  0
  7  8  1  0  0  0
  8  9  1  0  0  0
  9 10  1  0  0  0
 10 11  1  0  0  0
 11 12  1  0  0  0
 12 13  1  0  0  0
 13 14  1  0  0  0
 14 15  1  0  0  0
 15 16  1  0  0  0
 16 17  1  0  0  0
 17 18  1  0  0  0
 18 19  1  0  0  0
 19 20  1  0  0  0
 20 21  1  0  0  0
 21 22  1  0  0  0
 46 47  1  0  0  0
 47 48  1  0  0  0
 48 49  1  0  0  0
 49 50  1  0  0  0
 50 54  1  0  0  0
M  CHG 1  58  -1
M  END
> <minimizedAffinity>
-9.54859

> <CNNscore>
0.1854595244

> <CNNaffinity>
6.4891610146

> <CNN_VS>
1.2034766674

> <CNNaffinity_variance>
1.5122137070

$$$$
/media/chris/experiments/cd1a-new-docking/inputs/ligands/1onq_ligand.pdb


 62 62  0  0  0  0  0  0  0  0999 V2000
  -35.9006   62.3478   64.0208 C   0  0  0  0  0  0  0  0  0  0  0  0
  -36.9812   62.2654   64.9835 N   0  0  0  0  0  0  0  0  0  0  0  0
  -38.9722   61.4985   65.7553 O   0  0  0  0  0  0  0  0  0  0  0  0
  -38.0907   61.5167   64.9183 C   0  0  0  0  0  0  0  0  0  0  0  0
  -36.8885   62.8296   65.7849 H   0  0  0  0  0  0  0  0  0  0  0  0
  -38.2097   60.6584   63.6940 C   0  0  0  0  0  0  0  0  0  0  0  0
  -39.3197   61.2725   62.8407 C   0  0  0  0  0  0  0  0  0  0  0  0
  -40.5812   60.4173   62.9319 C   0  0  0  0  0  0  0  0  0  0  0  0
  -41.8803   61.1672   63.1011 C   0  0  0  0  0  0  0  0  0  0  0  0
  -42.8027   60.3043   63.9557 C   0  0  0  0  0  0  0  0  0  0  0  0
  -44.1207   61.0093   64.3033 C   0  0  0  0  0  0  0  0  0  0  0  0
  -45.0022   60.2428   65.3064 C   0  0  0  0  0  0  0  0  0  0  0  0
  -46.1204   59.4266   64.6216 C   0  0  0  0  0  0  0  0  0  0  0  0
  -47.1576   58.9639   65.6488 C   0  0  0  0  0  0  0  0  0  0  0  0
  -48.0740   60.0600   66.1786 C   0  0  0  0  0  0  0  0  0  0  0  0
  -49.5371   59.6424   66.1721 C   0  0  0  0  0  0  0  0  0  0  0  0
  -50.0337   58.9568   64.8972 C   0  0  0  0  0  0  0  0  0  0  0  0
  -50.7818   59.9880   64.0630 C   0  0  0  0  0  0  0  0  0  0  0  0
  -50.8528   59.7940   62.5556 C   0  0  0  0  0  0  0  0  0  0  0  0
  -51.0031   58.3066   62.1989 C   0  0  0  0  0  0  0  0  0  0  0  0
  -50.0179   57.8041   61.1275 C   0  0  0  0  0  0  0  0  0  0  0  0
  -49.2719   58.9310   60.4168 C   0  0  0  0  0  0  0  0  0  0  0  0
  -33.6398   62.4787   64.5379 O   0  0  0  0  0  0  0  0  0  0  0  0
  -34.7634   61.6414   64.7386 C   0  0  0  0  0  0  0  0  0  0  0  0
  -33.8073   63.3461   64.9388 H   0  0  0  0  0  0  0  0  0  0  0  0
  -34.5637   60.2522   64.1280 C   0  0  0  0  0  0  0  0  0  0  0  0
  -35.1737   59.1512   64.5989 C   0  0  0  0  0  0  0  0  0  0  0  0
  -34.9215   57.7992   63.9342 C   0  0  0  0  0  0  0  0  0  0  0  0
  -35.7763   57.5527   62.6826 C   0  0  0  0  0  0  0  0  0  0  0  0
  -37.2998   57.5477   62.9062 C   0  0  0  0  0  0  0  0  0  0  0  0
  -38.0535   57.5903   61.5551 C   0  0  0  0  0  0  0  0  0  0  0  0
  -37.5658   58.6728   60.5591 C   0  0  0  0  0  0  0  0  0  0  0  0
  -38.5832   59.0124   59.4445 C   0  0  0  0  0  0  0  0  0  0  0  0
  -39.7719   58.0297   59.3731 C   0  0  0  0  0  0  0  0  0  0  0  0
  -41.0862   58.6099   59.9089 C   0  0  0  0  0  0  0  0  0  0  0  0
  -41.9287   57.6759   60.7749 C   0  0  0  0  0  0  0  0  0  0  0  0
  -41.3986   56.2297   60.8345 C   0  0  0  0  0  0  0  0  0  0  0  0
  -41.1506   55.6810   62.2479 C   0  0  0  0  0  0  0  0  0  0  0  0
  -41.2839   56.7872   63.2985 C   0  0  0  0  0  0  0  0  0  0  0  0
  -42.3958   56.6188   64.3187 C   0  0  0  0  0  0  0  0  0  0  0  0
  -35.6092   63.7608   63.4666 C   0  0  0  0  0  0  0  0  0  0  0  0
  -35.1712   63.8381   62.0862 O   0  0  0  0  0  0  0  0  0  0  0  0
  -33.5533   66.1789   62.3700 O   0  0  0  0  0  0  0  0  0  0  0  0
  -30.6909   63.4126   63.6163 O   0  0  0  0  0  0  0  0  0  0  0  0
  -33.0584   62.6621   61.8881 O   0  0  0  0  0  0  0  0  0  0  0  0
  -33.7385   63.9326   61.7419 C   0  0  0  0  0  0  0  0  0  0  0  0
  -32.9163   64.9509   62.5446 C   0  0  0  0  0  0  0  0  0  0  0  0
  -31.4561   65.0888   62.0607 C   0  0  0  0  0  0  0  0  0  0  0  0
  -30.8261   63.7345   62.2341 C   0  0  0  0  0  0  0  0  0  0  0  0
  -31.6547   62.6863   61.5137 C   0  0  0  0  0  0  0  0  0  0  0  0
  -34.4735   66.1112   62.6692 H   0  0  0  0  0  0  0  0  0  0  0  0
  -30.1590   64.0941   64.0564 H   0  0  0  0  0  0  0  0  0  0  0  0
  -29.5466   61.5670   61.3832 O   0  0  0  0  0  0  0  0  0  0  0  0
  -30.8642   61.4158   61.8191 C   0  0  0  0  0  0  0  0  0  0  0  0
  -29.0468   60.7589   61.5783 H   0  0  0  0  0  0  0  0  0  0  0  0
  -30.6277   66.0149   62.7997 O   0  0  0  0  0  0  0  0  0  0  0  0
  -32.0405   65.7293   64.9537 O   0  0  0  0  0  0  0  0  0  0  0  0
  -30.5850   67.6574   64.7236 O   0  0  0  0  0  0  0  0  0  0  0  0
  -29.6486   65.4724   65.1959 O   0  0  0  0  0  0  0  0  0  0  0  0
  -30.7156   66.2001   64.4520 S   0  0  0  0  0  0  0  0  0  0  0  0
  -32.7488   66.1928   64.4802 H   0  0  0  0  0  0  0  0  0  0  0  0
  -29.7263   64.5209   65.0244 H   0  0  0  0  0  0  0  0  0  0  0  0
  2  1  1  0  0  0
  2  4  1  0  0  0
  2  5  1  0  0  0
 41 42  1  0  0  0
 41  1  1  0  0  0
 42 46  1  0  0  0
  1 24  1  0  0  0
 23 24  1  0  0  0
 23 25  1  0  0  0
 24 26  1  0  0  0
  3  4  2  0  0  0
 26 27  2  0  0  0
 27 28  1  0  0  0
 43 47  1  0  0  0
 43 51  1  0  0  0
 28 29  1  0  0  0
 56 48  1  0  0  0
 56 60  1  0  0  0
 29 30  1  0  0  0
 57 60  1  0  0  0
 57 61  1  0  0  0
 30 31  1  0  0  0
 44 49  1  0  0  0
 44 52  1  0  0  0
 31 32  1  0  0  0
 45 46  1  0  0  0
 45 50  1  0  0  0
 32 33  1  0  0  0
 53 54  1  0  0  0
 53 55  1  0  0  0
 33 34  1  0  0  0
 34 35  1  0  0  0
 35 36  1  0  0  0
 58 60  1  0  0  0
 36 37  1  0  0  0
 59 60  1  0  0  0
 59 62  1  0  0  0
 37 38  1  0  0  0
 38 39  1  0  0  0
 39 40  1  0  0  0
  4  6  1  0  0  0
  6  7  1  0  0  0
  7  8  1  0  0  0
  8  9  1  0  0  0
  9 10  1  0  0  0
 10 11  1  0  0  0
 11 12  1  0  0  0
 12 13  1  0  0  0
 13 14  1  0  0  0
 14 15  1  0  0  0
 15 16  1  0  0  0
 16 17  1  0  0  0
 17 18  1  0  0  0
 18 19  1  0  0  0
 19 20  1  0  0  0
 20 21  1  0  0  0
 21 22  1  0  0  0
 46 47  1  0  0  0
 47 48  1  0  0  0
 48 49  1  0  0  0
 49 50  1  0  0  0
 50 54  1  0  0  0
M  CHG 1  58  -1
M  END
> <minimizedAffinity>
-8.63831

> <CNNscore>
0.1484851539

> <CNNaffinity>
6.7406105995

> <CNN_VS>
1.0008805990

> <CNNaffinity_variance>
1.0183190107

$$$$
