/media/chris/experiments/cd1a-new-docking/inputs/ligands/1onq_ligand.pdb


 62 62  0  0  0  0  0  0  0  0999 V2000
  -41.6766   59.9244   65.2058 C   0  0  0  0  0  0  0  0  0  0  0  0
  -41.7330   58.5985   64.6228 N   0  0  0  0  0  0  0  0  0  0  0  0
  -42.6224   57.3740   66.3130 O   0  0  0  0  0  0  0  0  0  0  0  0
  -42.1792   57.4669   65.1849 C   0  0  0  0  0  0  0  0  0  0  0  0
  -41.4022   58.5196   63.6988 H   0  0  0  0  0  0  0  0  0  0  0  0
  -42.1125   56.2507   64.3095 C   0  0  0  0  0  0  0  0  0  0  0  0
  -41.1489   56.5882   63.1716 C   0  0  0  0  0  0  0  0  0  0  0  0
  -41.2957   55.5689   62.0444 C   0  0  0  0  0  0  0  0  0  0  0  0
  -41.3190   56.1286   60.6427 C   0  0  0  0  0  0  0  0  0  0  0  0
  -41.5765   57.6280   60.7494 C   0  0  0  0  0  0  0  0  0  0  0  0
  -41.1374   58.3957   59.4953 C   0  0  0  0  0  0  0  0  0  0  0  0
  -39.6444   58.2438   59.1515 C   0  0  0  0  0  0  0  0  0  0  0  0
  -38.7487   59.2498   59.9073 C   0  0  0  0  0  0  0  0  0  0  0  0
  -37.5654   58.5326   60.5633 C   0  0  0  0  0  0  0  0  0  0  0  0
  -37.9331   57.5930   61.7051 C   0  0  0  0  0  0  0  0  0  0  0  0
  -37.9075   58.2901   63.0574 C   0  0  0  0  0  0  0  0  0  0  0  0
  -37.0190   57.6492   64.1261 C   0  0  0  0  0  0  0  0  0  0  0  0
  -35.5682   57.9718   63.7947 C   0  0  0  0  0  0  0  0  0  0  0  0
  -34.8782   59.0934   64.5568 C   0  0  0  0  0  0  0  0  0  0  0  0
  -33.3499   58.9482   64.4846 C   0  0  0  0  0  0  0  0  0  0  0  0
  -32.7898   58.7935   63.0586 C   0  0  0  0  0  0  0  0  0  0  0  0
  -31.4491   59.4960   62.8568 C   0  0  0  0  0  0  0  0  0  0  0  0
  -42.5922   62.0265   64.8331 O   0  0  0  0  0  0  0  0  0  0  0  0
  -42.4912   60.7517   64.2262 C   0  0  0  0  0  0  0  0  0  0  0  0
  -41.7054   62.4044   64.9410 H   0  0  0  0  0  0  0  0  0  0  0  0
  -43.8605   60.0978   64.0265 C   0  0  0  0  0  0  0  0  0  0  0  0
  -44.8988   60.3066   64.8540 C   0  0  0  0  0  0  0  0  0  0  0  0
  -46.2346   59.6155   64.5870 C   0  0  0  0  0  0  0  0  0  0  0  0
  -47.2770   59.8282   65.6945 C   0  0  0  0  0  0  0  0  0  0  0  0
  -48.5483   60.5895   65.2759 C   0  0  0  0  0  0  0  0  0  0  0  0
  -49.7663   59.6361   65.2205 C   0  0  0  0  0  0  0  0  0  0  0  0
  -50.9670   60.1442   64.3829 C   0  0  0  0  0  0  0  0  0  0  0  0
  -51.1741   59.3883   63.0493 C   0  0  0  0  0  0  0  0  0  0  0  0
  -50.1440   58.2629   62.8109 C   0  0  0  0  0  0  0  0  0  0  0  0
  -49.0725   58.6161   61.7724 C   0  0  0  0  0  0  0  0  0  0  0  0
  -49.5647   59.3337   60.5174 C   0  0  0  0  0  0  0  0  0  0  0  0
  -50.0014   58.3843   59.3842 C   0  0  0  0  0  0  0  0  0  0  0  0
  -48.8638   57.6012   58.7113 C   0  0  0  0  0  0  0  0  0  0  0  0
  -47.7801   58.5474   58.1866 C   0  0  0  0  0  0  0  0  0  0  0  0
  -46.8772   58.0006   57.0951 C   0  0  0  0  0  0  0  0  0  0  0  0
  -40.2611   60.4403   65.5510 C   0  0  0  0  0  0  0  0  0  0  0  0
  -39.5190   61.0667   64.4739 O   0  0  0  0  0  0  0  0  0  0  0  0
  -37.7545   61.7040   62.3158 O   0  0  0  0  0  0  0  0  0  0  0  0
  -36.2005   64.4160   65.0778 O   0  0  0  0  0  0  0  0  0  0  0  0
  -37.7615   61.9548   65.8909 O   0  0  0  0  0  0  0  0  0  0  0  0
  -38.0787   61.3626   64.6078 C   0  0  0  0  0  0  0  0  0  0  0  0
  -37.4795   62.2974   63.5472 C   0  0  0  0  0  0  0  0  0  0  0  0
  -35.9501   62.4748   63.6694 C   0  0  0  0  0  0  0  0  0  0  0  0
  -35.7041   63.0809   65.0235 C   0  0  0  0  0  0  0  0  0  0  0  0
  -36.3477   62.2209   66.0960 C   0  0  0  0  0  0  0  0  0  0  0  0
  -38.7124   61.5846   62.2212 H   0  0  0  0  0  0  0  0  0  0  0  0
  -35.7767   64.9471   64.3854 H   0  0  0  0  0  0  0  0  0  0  0  0
  -34.6130   63.1796   67.4321 O   0  0  0  0  0  0  0  0  0  0  0  0
  -35.9959   63.0026   67.3597 C   0  0  0  0  0  0  0  0  0  0  0  0
  -34.3922   63.6763   68.2354 H   0  0  0  0  0  0  0  0  0  0  0  0
  -35.3366   63.3674   62.7120 O   0  0  0  0  0  0  0  0  0  0  0  0
  -33.2804   64.9152   63.0191 O   0  0  0  0  0  0  0  0  0  0  0  0
  -33.3746   63.4133   61.1152 O   0  0  0  0  0  0  0  0  0  0  0  0
  -32.8989   62.5477   63.3285 O   0  0  0  0  0  0  0  0  0  0  0  0
  -33.6887   63.5535   62.5630 S   0  0  0  0  0  0  0  0  0  0  0  0
  -33.7851   65.5844   62.5310 H   0  0  0  0  0  0  0  0  0  0  0  0
  -33.0976   62.6321   64.2742 H   0  0  0  0  0  0  0  0  0  0  0  0
  2  1  1  0  0  0
  2  4  1  0  0  0
  2  5  1  0  0  0
 41 42  1  0  0  0
 41  1  1  0  0  0
 42 46  1  0  0  0
  1 24  1  0  0  0
 23 24  1  0  0  0
 23 25  1  0  0  0
 24 26  1  0  0  0
  3  4  2  0  0  0
 26 27  2  0  0  0
 27 28  1  0  0  0
 43 47  1  0  0  0
 43 51  1  0  0  0
 28 29  1  0  0  0
 56 48  1  0  0  0
 56 60  1  0  0  0
 29 30  1  0  0  0
 57 60  1  0  0  0
 57 61  1  0  0  0
 30 31  1  0  0  0
 44 49  1  0  0  0
 44 52  1  0  0  0
 31 32  1  0  0  0
 45 46  1  0  0  0
 45 50  1  0  0  0
 32 33  1  0  0  0
 53 54  1  0  0  0
 53 55  1  0  0  0
 33 34  1  0  0  0
 34 35  1  0  0  0
 35 36  1  0  0  0
 58 60  1  0  0  0
 36 37  1  0  0  0
 59 60  1  0  0  0
 59 62  1  0  0  0
 37 38  1  0  0  0
 38 39  1  0  0  0
 39 40  1  0  0  0
  4  6  1  0  0  0
  6  7  1  0  0  0
  7  8  1  0  0  0
  8  9  1  0  0  0
  9 10  1  0  0  0
 10 11  1  0  0  0
 11 12  1  0  0  0
 12 13  1  0  0  0
 13 14  1  0  0  0
 14 15  1  0  0  0
 15 16  1  0  0  0
 16 17  1  0  0  0
 17 18  1  0  0  0
 18 19  1  0  0  0
 19 20  1  0  0  0
 20 21  1  0  0  0
 21 22  1  0  0  0
 46 47  1  0  0  0
 47 48  1  0  0  0
 48 49  1  0  0  0
 49 50  1  0  0  0
 50 54  1  0  0  0
M  CHG 1  58  -1
M  END
> <minimizedAffinity>
-9.81444

> <CNNscore>
0.3702062070

> <CNNaffinity>
7.1929297447

> <CNN_VS>
2.6628673077

> <CNNaffinity_variance>
2.0555074215

$$$$
/media/chris/experiments/cd1a-new-docking/inputs/ligands/1onq_ligand.pdb


 62 62  0  0  0  0  0  0  0  0999 V2000
  -40.9870   60.0029   65.4336 C   0  0  0  0  0  0  0  0  0  0  0  0
  -41.2419   59.6455   64.0522 N   0  0  0  0  0  0  0  0  0  0  0  0
  -41.7704   61.6511   63.1326 O   0  0  0  0  0  0  0  0  0  0  0  0
  -41.5988   60.4510   63.0426 C   0  0  0  0  0  0  0  0  0  0  0  0
  -41.1402   58.6923   63.8278 H   0  0  0  0  0  0  0  0  0  0  0  0
  -41.7802   59.7711   61.7179 C   0  0  0  0  0  0  0  0  0  0  0  0
  -41.8656   58.2725   62.0082 C   0  0  0  0  0  0  0  0  0  0  0  0
  -41.5537   57.4776   60.7425 C   0  0  0  0  0  0  0  0  0  0  0  0
  -41.2254   58.2896   59.5132 C   0  0  0  0  0  0  0  0  0  0  0  0
  -39.7997   57.9416   59.0981 C   0  0  0  0  0  0  0  0  0  0  0  0
  -38.8137   59.0919   59.3416 C   0  0  0  0  0  0  0  0  0  0  0  0
  -37.6241   58.7238   60.2470 C   0  0  0  0  0  0  0  0  0  0  0  0
  -38.0235   57.7968   61.4160 C   0  0  0  0  0  0  0  0  0  0  0  0
  -38.1600   58.5949   62.7158 C   0  0  0  0  0  0  0  0  0  0  0  0
  -37.8840   57.8054   63.9895 C   0  0  0  0  0  0  0  0  0  0  0  0
  -36.5786   58.2182   64.6531 C   0  0  0  0  0  0  0  0  0  0  0  0
  -35.3028   57.6237   64.0520 C   0  0  0  0  0  0  0  0  0  0  0  0
  -34.1081   58.2362   64.7706 C   0  0  0  0  0  0  0  0  0  0  0  0
  -33.7173   59.6699   64.4440 C   0  0  0  0  0  0  0  0  0  0  0  0
  -33.1994   59.7837   63.0014 C   0  0  0  0  0  0  0  0  0  0  0  0
  -31.6711   59.9277   62.8811 C   0  0  0  0  0  0  0  0  0  0  0  0
  -31.2163   60.4095   61.5053 C   0  0  0  0  0  0  0  0  0  0  0  0
  -41.8452   61.5313   66.9580 O   0  0  0  0  0  0  0  0  0  0  0  0
  -42.2212   60.8092   65.8000 C   0  0  0  0  0  0  0  0  0  0  0  0
  -41.1053   62.1214   66.7449 H   0  0  0  0  0  0  0  0  0  0  0  0
  -43.3882   59.8559   66.0685 C   0  0  0  0  0  0  0  0  0  0  0  0
  -44.6561   60.1351   65.7209 C   0  0  0  0  0  0  0  0  0  0  0  0
  -45.7663   59.1309   66.0246 C   0  0  0  0  0  0  0  0  0  0  0  0
  -46.8417   59.0436   64.9319 C   0  0  0  0  0  0  0  0  0  0  0  0
  -47.8327   60.2209   64.8763 C   0  0  0  0  0  0  0  0  0  0  0  0
  -48.9052   60.0888   65.9844 C   0  0  0  0  0  0  0  0  0  0  0  0
  -50.2349   59.4266   65.5429 C   0  0  0  0  0  0  0  0  0  0  0  0
  -51.1068   60.3104   64.6202 C   0  0  0  0  0  0  0  0  0  0  0  0
  -51.1376   59.8293   63.1532 C   0  0  0  0  0  0  0  0  0  0  0  0
  -50.6343   58.3934   62.9633 C   0  0  0  0  0  0  0  0  0  0  0  0
  -49.6867   58.1641   61.7878 C   0  0  0  0  0  0  0  0  0  0  0  0
  -50.3980   57.7716   60.4778 C   0  0  0  0  0  0  0  0  0  0  0  0
  -49.8409   58.4312   59.2071 C   0  0  0  0  0  0  0  0  0  0  0  0
  -48.7641   57.5556   58.5598 C   0  0  0  0  0  0  0  0  0  0  0  0
  -47.5864   58.2838   57.9368 C   0  0  0  0  0  0  0  0  0  0  0  0
  -39.6147   60.6583   65.7094 C   0  0  0  0  0  0  0  0  0  0  0  0
  -38.8774   61.1297   64.5528 O   0  0  0  0  0  0  0  0  0  0  0  0
  -37.3807   62.3957   62.4710 O   0  0  0  0  0  0  0  0  0  0  0  0
  -36.0747   64.8229   65.6019 O   0  0  0  0  0  0  0  0  0  0  0  0
  -37.1839   62.0407   66.0318 O   0  0  0  0  0  0  0  0  0  0  0  0
  -37.4933   61.6280   64.6785 C   0  0  0  0  0  0  0  0  0  0  0  0
  -37.1166   62.8114   63.7755 C   0  0  0  0  0  0  0  0  0  0  0  0
  -35.6274   63.2108   63.8652 C   0  0  0  0  0  0  0  0  0  0  0  0
  -35.3855   63.6137   65.2937 C   0  0  0  0  0  0  0  0  0  0  0  0
  -35.8166   62.4939   66.2234 C   0  0  0  0  0  0  0  0  0  0  0  0
  -38.3134   62.1404   62.3956 H   0  0  0  0  0  0  0  0  0  0  0  0
  -35.7847   65.5236   64.9971 H   0  0  0  0  0  0  0  0  0  0  0  0
  -36.4514   62.6723   68.5209 O   0  0  0  0  0  0  0  0  0  0  0  0
  -35.5033   63.0998   67.5896 C   0  0  0  0  0  0  0  0  0  0  0  0
  -36.2502   63.0584   69.3876 H   0  0  0  0  0  0  0  0  0  0  0  0
  -35.2232   64.3383   63.0557 O   0  0  0  0  0  0  0  0  0  0  0  0
  -35.4169   63.8469   60.5183 O   0  0  0  0  0  0  0  0  0  0  0  0
  -33.4829   63.0490   61.7480 O   0  0  0  0  0  0  0  0  0  0  0  0
  -33.6848   65.3973   61.1832 O   0  0  0  0  0  0  0  0  0  0  0  0
  -34.4385   64.1795   61.5958 S   0  0  0  0  0  0  0  0  0  0  0  0
  -35.9179   63.0553   60.7697 H   0  0  0  0  0  0  0  0  0  0  0  0
  -34.3006   66.1399   61.0816 H   0  0  0  0  0  0  0  0  0  0  0  0
  2  1  1  0  0  0
  2  4  1  0  0  0
  2  5  1  0  0  0
 41 42  1  0  0  0
 41  1  1  0  0  0
 42 46  1  0  0  0
  1 24  1  0  0  0
 23 24  1  0  0  0
 23 25  1  0  0  0
 24 26  1  0  0  0
  3  4  2  0  0  0
 26 27  2  0  0  0
 27 28  1  0  0  0
 43 47  1  0  0  0
 43 51  1  0  0  0
 28 29  1  0  0  0
 56 48  1  0  0  0
 56 60  1  0  0  0
 29 30  1  0  0  0
 57 60  1  0  0  0
 57 61  1  0  0  0
 30 31  1  0  0  0
 44 49  1  0  0  0
 44 52  1  0  0  0
 31 32  1  0  0  0
 45 46  1  0  0  0
 45 50  1  0  0  0
 32 33  1  0  0  0
 53 54  1  0  0  0
 53 55  1  0  0  0
 33 34  1  0  0  0
 34 35  1  0  0  0
 35 36  1  0  0  0
 58 60  1  0  0  0
 36 37  1  0  0  0
 59 60  1  0  0  0
 59 62  1  0  0  0
 37 38  1  0  0  0
 38 39  1  0  0  0
 39 40  1  0  0  0
  4  6  1  0  0  0
  6  7  1  0  0  0
  7  8  1  0  0  0
  8  9  1  0  0  0
  9 10  1  0  0  0
 10 11  1  0  0  0
 11 12  1  0  0  0
 12 13  1  0  0  0
 13 14  1  0  0  0
 14 15  1  0  0  0
 15 16  1  0  0  0
 16 17  1  0  0  0
 17 18  1  0  0  0
 18 19  1  0  0  0
 19 20  1  0  0  0
 20 21  1  0  0  0
 21 22  1  0  0  0
 46 47  1  0  0  0
 47 48  1  0  0  0
 48 49  1  0  0  0
 49 50  1  0  0  0
 50 54  1  0  0  0
M  CHG 1  58  -1
M  END
> <minimizedAffinity>
-9.30837

> <CNNscore>
0.3013839424

> <CNNaffinity>
7.0908508301

> <CNN_VS>
2.1370685101

> <CNNaffinity_variance>
1.8783410788

$$$$
/media/chris/experiments/cd1a-new-docking/inputs/ligands/1onq_ligand.pdb


 62 62  0  0  0  0  0  0  0  0999 V2000
  -41.1331   59.7573   63.8596 C   0  0  0  0  0  0  0  0  0  0  0  0
  -42.4006   60.3785   64.1892 N   0  0  0  0  0  0  0  0  0  0  0  0
  -42.8877   61.5051   62.2810 O   0  0  0  0  0  0  0  0  0  0  0  0
  -43.1574   61.1716   63.4186 C   0  0  0  0  0  0  0  0  0  0  0  0
  -42.7488   60.1950   65.0917 H   0  0  0  0  0  0  0  0  0  0  0  0
  -44.4292   61.6516   64.0526 C   0  0  0  0  0  0  0  0  0  0  0  0
  -45.0177   60.4562   64.8022 C   0  0  0  0  0  0  0  0  0  0  0  0
  -46.5418   60.5463   64.8128 C   0  0  0  0  0  0  0  0  0  0  0  0
  -47.2783   59.4051   64.1543 C   0  0  0  0  0  0  0  0  0  0  0  0
  -48.0705   58.6814   65.2381 C   0  0  0  0  0  0  0  0  0  0  0  0
  -49.0391   59.6089   65.9838 C   0  0  0  0  0  0  0  0  0  0  0  0
  -50.4911   59.5474   65.4753 C   0  0  0  0  0  0  0  0  0  0  0  0
  -50.8065   60.6359   64.4260 C   0  0  0  0  0  0  0  0  0  0  0  0
  -51.1779   60.0003   63.0832 C   0  0  0  0  0  0  0  0  0  0  0  0
  -50.9158   58.5025   62.9842 C   0  0  0  0  0  0  0  0  0  0  0  0
  -50.4699   58.0853   61.5905 C   0  0  0  0  0  0  0  0  0  0  0  0
  -49.1287   58.6509   61.1176 C   0  0  0  0  0  0  0  0  0  0  0  0
  -49.2054   58.8604   59.6112 C   0  0  0  0  0  0  0  0  0  0  0  0
  -49.3383   57.6408   58.7112 C   0  0  0  0  0  0  0  0  0  0  0  0
  -48.0359   56.8250   58.6948 C   0  0  0  0  0  0  0  0  0  0  0  0
  -47.2531   56.8984   57.3709 C   0  0  0  0  0  0  0  0  0  0  0  0
  -46.7611   58.3049   57.0372 C   0  0  0  0  0  0  0  0  0  0  0  0
  -40.6403   57.8720   65.1240 O   0  0  0  0  0  0  0  0  0  0  0  0
  -41.4363   58.2782   64.0262 C   0  0  0  0  0  0  0  0  0  0  0  0
  -40.9067   58.3644   65.9162 H   0  0  0  0  0  0  0  0  0  0  0  0
  -41.0657   57.5366   62.7396 C   0  0  0  0  0  0  0  0  0  0  0  0
  -41.7322   57.6985   61.5838 C   0  0  0  0  0  0  0  0  0  0  0  0
  -41.3008   56.9205   60.3421 C   0  0  0  0  0  0  0  0  0  0  0  0
  -40.3162   57.6816   59.4424 C   0  0  0  0  0  0  0  0  0  0  0  0
  -40.2442   59.2028   59.6706 C   0  0  0  0  0  0  0  0  0  0  0  0
  -38.7820   59.6549   59.9013 C   0  0  0  0  0  0  0  0  0  0  0  0
  -37.8140   58.5446   60.3826 C   0  0  0  0  0  0  0  0  0  0  0  0
  -37.6416   58.4765   61.9183 C   0  0  0  0  0  0  0  0  0  0  0  0
  -36.2610   57.9460   62.3618 C   0  0  0  0  0  0  0  0  0  0  0  0
  -36.1194   57.7860   63.8803 C   0  0  0  0  0  0  0  0  0  0  0  0
  -35.8935   59.0719   64.6725 C   0  0  0  0  0  0  0  0  0  0  0  0
  -34.4406   59.5852   64.6315 C   0  0  0  0  0  0  0  0  0  0  0  0
  -33.3593   58.5007   64.7529 C   0  0  0  0  0  0  0  0  0  0  0  0
  -32.5820   58.3500   63.4421 C   0  0  0  0  0  0  0  0  0  0  0  0
  -32.7866   59.4414   62.4065 C   0  0  0  0  0  0  0  0  0  0  0  0
  -39.9040   60.3102   64.6162 C   0  0  0  0  0  0  0  0  0  0  0  0
  -39.2754   61.4911   64.0561 O   0  0  0  0  0  0  0  0  0  0  0  0
  -37.3416   61.9069   61.9909 O   0  0  0  0  0  0  0  0  0  0  0  0
  -35.9278   64.8180   64.6226 O   0  0  0  0  0  0  0  0  0  0  0  0
  -37.6052   62.4655   65.5212 O   0  0  0  0  0  0  0  0  0  0  0  0
  -37.8419   61.7707   64.2727 C   0  0  0  0  0  0  0  0  0  0  0  0
  -37.1432   62.5992   63.1849 C   0  0  0  0  0  0  0  0  0  0  0  0
  -35.6231   62.7580   63.4066 C   0  0  0  0  0  0  0  0  0  0  0  0
  -35.4622   63.4741   64.7191 C   0  0  0  0  0  0  0  0  0  0  0  0
  -36.2042   62.7220   65.8090 C   0  0  0  0  0  0  0  0  0  0  0  0
  -38.2927   61.7975   61.8348 H   0  0  0  0  0  0  0  0  0  0  0  0
  -35.4412   65.2792   63.9216 H   0  0  0  0  0  0  0  0  0  0  0  0
  -36.1580   62.8760   68.1939 O   0  0  0  0  0  0  0  0  0  0  0  0
  -35.9269   63.6033   67.0249 C   0  0  0  0  0  0  0  0  0  0  0  0
  -35.9812   63.4379   68.9645 H   0  0  0  0  0  0  0  0  0  0  0  0
  -34.9187   63.5531   62.4260 O   0  0  0  0  0  0  0  0  0  0  0  0
  -32.8111   63.1745   60.9659 O   0  0  0  0  0  0  0  0  0  0  0  0
  -32.7339   62.6587   63.3359 O   0  0  0  0  0  0  0  0  0  0  0  0
  -32.6873   64.9635   62.5876 O   0  0  0  0  0  0  0  0  0  0  0  0
  -33.2581   63.6127   62.3213 S   0  0  0  0  0  0  0  0  0  0  0  0
  -33.1736   62.2954   60.7745 H   0  0  0  0  0  0  0  0  0  0  0  0
  -33.0240   65.5923   61.9302 H   0  0  0  0  0  0  0  0  0  0  0  0
  2  1  1  0  0  0
  2  4  1  0  0  0
  2  5  1  0  0  0
 41 42  1  0  0  0
 41  1  1  0  0  0
 42 46  1  0  0  0
  1 24  1  0  0  0
 23 24  1  0  0  0
 23 25  1  0  0  0
 24 26  1  0  0  0
  3  4  2  0  0  0
 26 27  2  0  0  0
 27 28  1  0  0  0
 43 47  1  0  0  0
 43 51  1  0  0  0
 28 29  1  0  0  0
 56 48  1  0  0  0
 56 60  1  0  0  0
 29 30  1  0  0  0
 57 60  1  0  0  0
 57 61  1  0  0  0
 30 31  1  0  0  0
 44 49  1  0  0  0
 44 52  1  0  0  0
 31 32  1  0  0  0
 45 46  1  0  0  0
 45 50  1  0  0  0
 32 33  1  0  0  0
 53 54  1  0  0  0
 53 55  1  0  0  0
 33 34  1  0  0  0
 34 35  1  0  0  0
 35 36  1  0  0  0
 58 60  1  0  0  0
 36 37  1  0  0  0
 59 60  1  0  0  0
 59 62  1  0  0  0
 37 38  1  0  0  0
 38 39  1  0  0  0
 39 40  1  0  0  0
  4  6  1  0  0  0
  6  7  1  0  0  0
  7  8  1  0  0  0
  8  9  1  0  0  0
  9 10  1  0  0  0
 10 11  1  0  0  0
 11 12  1  0  0  0
 12 13  1  0  0  0
 13 14  1  0  0  0
 14 15  1  0  0  0
 15 16  1  0  0  0
 16 17  1  0  0  0
 17 18  1  0  0  0
 18 19  1  0  0  0
 19 20  1  0  0  0
 20 21  1  0  0  0
 21 22  1  0  0  0
 46 47  1  0  0  0
 47 48  1  0  0  0
 48 49  1  0  0  0
 49 50  1  0  0  0
 50 54  1  0  0  0
M  CHG 1  58  -1
M  END
> <minimizedAffinity>
-9.76423

> <CNNscore>
0.2384151518

> <CNNaffinity>
7.0239615440

> <CNN_VS>
1.6746188402

> <CNNaffinity_variance>
1.7213575840

$$$$
/media/chris/experiments/cd1a-new-docking/inputs/ligands/1onq_ligand.pdb


 62 62  0  0  0  0  0  0  0  0999 V2000
  -40.0747   60.2736   64.0427 C   0  0  0  0  0  0  0  0  0  0  0  0
  -41.4254   60.7176   64.3248 N   0  0  0  0  0  0  0  0  0  0  0  0
  -42.5799   59.8755   62.5625 O   0  0  0  0  0  0  0  0  0  0  0  0
  -42.5340   60.5012   63.6037 C   0  0  0  0  0  0  0  0  0  0  0  0
  -41.5429   61.2436   65.1486 H   0  0  0  0  0  0  0  0  0  0  0  0
  -43.7902   61.0909   64.1731 C   0  0  0  0  0  0  0  0  0  0  0  0
  -44.1107   60.2910   65.4358 C   0  0  0  0  0  0  0  0  0  0  0  0
  -45.4121   59.5156   65.2457 C   0  0  0  0  0  0  0  0  0  0  0  0
  -46.6094   60.0325   66.0059 C   0  0  0  0  0  0  0  0  0  0  0  0
  -47.8475   59.3475   65.4369 C   0  0  0  0  0  0  0  0  0  0  0  0
  -49.1430   59.7970   66.1255 C   0  0  0  0  0  0  0  0  0  0  0  0
  -50.4291   59.3310   65.4188 C   0  0  0  0  0  0  0  0  0  0  0  0
  -51.0161   60.4016   64.4730 C   0  0  0  0  0  0  0  0  0  0  0  0
  -51.1778   59.8413   63.0571 C   0  0  0  0  0  0  0  0  0  0  0  0
  -50.8308   58.3654   62.9040 C   0  0  0  0  0  0  0  0  0  0  0  0
  -49.8673   58.1152   61.7532 C   0  0  0  0  0  0  0  0  0  0  0  0
  -50.5042   57.9161   60.3759 C   0  0  0  0  0  0  0  0  0  0  0  0
  -49.3922   57.6382   59.3733 C   0  0  0  0  0  0  0  0  0  0  0  0
  -48.5246   56.4039   59.5701 C   0  0  0  0  0  0  0  0  0  0  0  0
  -47.2958   56.4428   58.6478 C   0  0  0  0  0  0  0  0  0  0  0  0
  -47.5737   56.9924   57.2366 C   0  0  0  0  0  0  0  0  0  0  0  0
  -46.8089   58.2774   56.9274 C   0  0  0  0  0  0  0  0  0  0  0  0
  -39.3229   61.3852   65.9387 O   0  0  0  0  0  0  0  0  0  0  0  0
  -39.4947   60.0745   65.4324 C   0  0  0  0  0  0  0  0  0  0  0  0
  -40.1849   61.8272   65.9909 H   0  0  0  0  0  0  0  0  0  0  0  0
  -38.1678   59.3194   65.3246 C   0  0  0  0  0  0  0  0  0  0  0  0
  -38.0936   57.9820   65.2141 C   0  0  0  0  0  0  0  0  0  0  0  0
  -36.7296   57.3021   65.1120 C   0  0  0  0  0  0  0  0  0  0  0  0
  -35.7765   57.9681   64.1089 C   0  0  0  0  0  0  0  0  0  0  0  0
  -35.9012   57.4880   62.6512 C   0  0  0  0  0  0  0  0  0  0  0  0
  -36.6409   58.5384   61.7882 C   0  0  0  0  0  0  0  0  0  0  0  0
  -38.0183   58.0907   61.2369 C   0  0  0  0  0  0  0  0  0  0  0  0
  -38.2992   58.5488   59.7864 C   0  0  0  0  0  0  0  0  0  0  0  0
  -39.7260   58.2154   59.2989 C   0  0  0  0  0  0  0  0  0  0  0  0
  -40.7232   57.9602   60.4354 C   0  0  0  0  0  0  0  0  0  0  0  0
  -41.3246   56.5578   60.4985 C   0  0  0  0  0  0  0  0  0  0  0  0
  -41.1189   55.8491   61.8518 C   0  0  0  0  0  0  0  0  0  0  0  0
  -41.0246   56.7795   63.0706 C   0  0  0  0  0  0  0  0  0  0  0  0
  -41.9444   56.3032   64.1986 C   0  0  0  0  0  0  0  0  0  0  0  0
  -42.1437   57.2631   65.3580 C   0  0  0  0  0  0  0  0  0  0  0  0
  -39.2707   61.1647   63.0689 C   0  0  0  0  0  0  0  0  0  0  0  0
  -37.8408   61.2474   63.2963 O   0  0  0  0  0  0  0  0  0  0  0  0
  -36.2160   62.0061   65.5237 O   0  0  0  0  0  0  0  0  0  0  0  0
  -33.8870   63.7790   62.5519 O   0  0  0  0  0  0  0  0  0  0  0  0
  -36.8223   63.1455   62.1804 O   0  0  0  0  0  0  0  0  0  0  0  0
  -37.1652   62.5506   63.4555 C   0  0  0  0  0  0  0  0  0  0  0  0
  -35.8726   62.5447   64.2844 C   0  0  0  0  0  0  0  0  0  0  0  0
  -35.2771   63.9510   64.5148 C   0  0  0  0  0  0  0  0  0  0  0  0
  -34.9594   64.5015   63.1520 C   0  0  0  0  0  0  0  0  0  0  0  0
  -36.1990   64.4546   62.2771 C   0  0  0  0  0  0  0  0  0  0  0  0
  -36.5925   61.1210   65.3985 H   0  0  0  0  0  0  0  0  0  0  0  0
  -33.1067   63.8220   63.1265 H   0  0  0  0  0  0  0  0  0  0  0  0
  -36.3157   66.2380   60.6898 O   0  0  0  0  0  0  0  0  0  0  0  0
  -35.6659   65.0343   60.9688 C   0  0  0  0  0  0  0  0  0  0  0  0
  -35.9754   66.6040   59.8586 H   0  0  0  0  0  0  0  0  0  0  0  0
  -34.0433   64.0020   65.2665 O   0  0  0  0  0  0  0  0  0  0  0  0
  -35.3585   64.4588   67.4526 O   0  0  0  0  0  0  0  0  0  0  0  0
  -33.3074   65.6789   67.0122 O   0  0  0  0  0  0  0  0  0  0  0  0
  -33.2210   63.3551   67.6954 O   0  0  0  0  0  0  0  0  0  0  0  0
  -33.9785   64.3562   66.8920 S   0  0  0  0  0  0  0  0  0  0  0  0
  -35.8676   65.1071   66.9414 H   0  0  0  0  0  0  0  0  0  0  0  0
  -33.6519   62.4891   67.6227 H   0  0  0  0  0  0  0  0  0  0  0  0
  2  1  1  0  0  0
  2  4  1  0  0  0
  2  5  1  0  0  0
 41 42  1  0  0  0
 41  1  1  0  0  0
 42 46  1  0  0  0
  1 24  1  0  0  0
 23 24  1  0  0  0
 23 25  1  0  0  0
 24 26  1  0  0  0
  3  4  2  0  0  0
 26 27  2  0  0  0
 27 28  1  0  0  0
 43 47  1  0  0  0
 43 51  1  0  0  0
 28 29  1  0  0  0
 56 48  1  0  0  0
 56 60  1  0  0  0
 29 30  1  0  0  0
 57 60  1  0  0  0
 57 61  1  0  0  0
 30 31  1  0  0  0
 44 49  1  0  0  0
 44 52  1  0  0  0
 31 32  1  0  0  0
 45 46  1  0  0  0
 45 50  1  0  0  0
 32 33  1  0  0  0
 53 54  1  0  0  0
 53 55  1  0  0  0
 33 34  1  0  0  0
 34 35  1  0  0  0
 35 36  1  0  0  0
 58 60  1  0  0  0
 36 37  1  0  0  0
 59 60  1  0  0  0
 59 62  1  0  0  0
 37 38  1  0  0  0
 38 39  1  0  0  0
 39 40  1  0  0  0
  4  6  1  0  0  0
  6  7  1  0  0  0
  7  8  1  0  0  0
  8  9  1  0  0  0
  9 10  1  0  0  0
 10 11  1  0  0  0
 11 12  1  0  0  0
 12 13  1  0  0  0
 13 14  1  0  0  0
 14 15  1  0  0  0
 15 16  1  0  0  0
 16 17  1  0  0  0
 17 18  1  0  0  0
 18 19  1  0  0  0
 19 20  1  0  0  0
 20 21  1  0  0  0
 21 22  1  0  0  0
 46 47  1  0  0  0
 47 48  1  0  0  0
 48 49  1  0  0  0
 49 50  1  0  0  0
 50 54  1  0  0  0
M  CHG 1  58  -1
M  END
> <minimizedAffinity>
-9.75913

> <CNNscore>
0.1605814695

> <CNNaffinity>
7.0665040016

> <CNN_VS>
1.1347496510

> <CNNaffinity_variance>
1.0377442837

$$$$
/media/chris/experiments/cd1a-new-docking/inputs/ligands/1onq_ligand.pdb


 62 62  0  0  0  0  0  0  0  0999 V2000
  -39.4997   59.6240   64.8384 C   0  0  0  0  0  0  0  0  0  0  0  0
  -38.4997   59.0792   63.9415 N   0  0  0  0  0  0  0  0  0  0  0  0
  -37.3801   57.6430   65.2947 O   0  0  0  0  0  0  0  0  0  0  0  0
  -37.5530   58.1706   64.2133 C   0  0  0  0  0  0  0  0  0  0  0  0
  -38.5184   59.4190   63.0176 H   0  0  0  0  0  0  0  0  0  0  0  0
  -36.6697   57.8048   63.0575 C   0  0  0  0  0  0  0  0  0  0  0  0
  -37.0955   58.6933   61.8886 C   0  0  0  0  0  0  0  0  0  0  0  0
  -38.0247   57.9193   60.9566 C   0  0  0  0  0  0  0  0  0  0  0  0
  -38.3680   58.5948   59.6511 C   0  0  0  0  0  0  0  0  0  0  0  0
  -39.0396   59.9235   59.9823 C   0  0  0  0  0  0  0  0  0  0  0  0
  -40.5660   59.8061   60.0883 C   0  0  0  0  0  0  0  0  0  0  0  0
  -41.1337   58.4672   59.5828 C   0  0  0  0  0  0  0  0  0  0  0  0
  -41.8467   57.6608   60.6904 C   0  0  0  0  0  0  0  0  0  0  0  0
  -41.4050   56.1950   60.6607 C   0  0  0  0  0  0  0  0  0  0  0  0
  -41.1330   55.5755   62.0261 C   0  0  0  0  0  0  0  0  0  0  0  0
  -40.9708   56.6261   63.1147 C   0  0  0  0  0  0  0  0  0  0  0  0
  -41.7069   56.3508   64.4280 C   0  0  0  0  0  0  0  0  0  0  0  0
  -42.9962   57.1609   64.4296 C   0  0  0  0  0  0  0  0  0  0  0  0
  -43.6479   57.4917   65.7641 C   0  0  0  0  0  0  0  0  0  0  0  0
  -45.1763   57.3542   65.6787 C   0  0  0  0  0  0  0  0  0  0  0  0
  -45.9084   57.5203   67.0231 C   0  0  0  0  0  0  0  0  0  0  0  0
  -46.0880   58.9791   67.4369 C   0  0  0  0  0  0  0  0  0  0  0  0
  -39.8803   61.3567   63.3388 O   0  0  0  0  0  0  0  0  0  0  0  0
  -40.5185   60.2144   63.8788 C   0  0  0  0  0  0  0  0  0  0  0  0
  -39.0814   61.0848   62.8604 H   0  0  0  0  0  0  0  0  0  0  0  0
  -41.7910   60.5748   64.6491 C   0  0  0  0  0  0  0  0  0  0  0  0
  -42.9645   60.8298   64.0455 C   0  0  0  0  0  0  0  0  0  0  0  0
  -44.1903   61.1837   64.8853 C   0  0  0  0  0  0  0  0  0  0  0  0
  -45.4890   61.2952   64.0734 C   0  0  0  0  0  0  0  0  0  0  0  0
  -46.5322   60.1919   64.3300 C   0  0  0  0  0  0  0  0  0  0  0  0
  -47.9492   60.7981   64.4718 C   0  0  0  0  0  0  0  0  0  0  0  0
  -48.9342   60.4533   63.3261 C   0  0  0  0  0  0  0  0  0  0  0  0
  -50.1660   59.6327   63.7754 C   0  0  0  0  0  0  0  0  0  0  0  0
  -50.7838   58.7783   62.6472 C   0  0  0  0  0  0  0  0  0  0  0  0
  -50.0502   58.9020   61.3064 C   0  0  0  0  0  0  0  0  0  0  0  0
  -50.3351   57.8059   60.2817 C   0  0  0  0  0  0  0  0  0  0  0  0
  -49.2040   56.7677   60.1452 C   0  0  0  0  0  0  0  0  0  0  0  0
  -47.9198   57.2824   59.4773 C   0  0  0  0  0  0  0  0  0  0  0  0
  -48.1963   57.7605   58.0490 C   0  0  0  0  0  0  0  0  0  0  0  0
  -46.9963   58.2458   57.2553 C   0  0  0  0  0  0  0  0  0  0  0  0
  -38.9616   60.5546   65.9489 C   0  0  0  0  0  0  0  0  0  0  0  0
  -38.3361   61.7887   65.5138 O   0  0  0  0  0  0  0  0  0  0  0  0
  -36.9805   61.7218   62.9968 O   0  0  0  0  0  0  0  0  0  0  0  0
  -34.6074   64.6465   64.7894 O   0  0  0  0  0  0  0  0  0  0  0  0
  -36.2410   62.6551   66.3771 O   0  0  0  0  0  0  0  0  0  0  0  0
  -36.8743   61.8820   65.3288 C   0  0  0  0  0  0  0  0  0  0  0  0
  -36.3986   62.4925   64.0026 C   0  0  0  0  0  0  0  0  0  0  0  0
  -34.8659   62.4551   63.8168 C   0  0  0  0  0  0  0  0  0  0  0  0
  -34.2860   63.2662   64.9426 C   0  0  0  0  0  0  0  0  0  0  0  0
  -34.7941   62.7373   66.2716 C   0  0  0  0  0  0  0  0  0  0  0  0
  -37.9452   61.7336   63.0977 H   0  0  0  0  0  0  0  0  0  0  0  0
  -34.2741   64.9632   63.9352 H   0  0  0  0  0  0  0  0  0  0  0  0
  -32.7666   63.8343   66.9036 O   0  0  0  0  0  0  0  0  0  0  0  0
  -34.1097   63.6851   67.2541 C   0  0  0  0  0  0  0  0  0  0  0  0
  -32.3343   64.4366   67.5289 H   0  0  0  0  0  0  0  0  0  0  0  0
  -34.3602   63.0424   62.5965 O   0  0  0  0  0  0  0  0  0  0  0  0
  -32.5528   63.3741   60.7687 O   0  0  0  0  0  0  0  0  0  0  0  0
  -32.1497   61.8118   62.5815 O   0  0  0  0  0  0  0  0  0  0  0  0
  -32.0125   64.1992   62.9763 O   0  0  0  0  0  0  0  0  0  0  0  0
  -32.7385   63.1326   62.2303 S   0  0  0  0  0  0  0  0  0  0  0  0
  -33.0195   62.6883   60.2659 H   0  0  0  0  0  0  0  0  0  0  0  0
  -32.3902   65.0644   62.7531 H   0  0  0  0  0  0  0  0  0  0  0  0
  2  1  1  0  0  0
  2  4  1  0  0  0
  2  5  1  0  0  0
 41 42  1  0  0  0
 41  1  1  0  0  0
 42 46  1  0  0  0
  1 24  1  0  0  0
 23 24  1  0  0  0
 23 25  1  0  0  0
 24 26  1  0  0  0
  3  4  2  0  0  0
 26 27  2  0  0  0
 27 28  1  0  0  0
 43 47  1  0  0  0
 43 51  1  0  0  0
 28 29  1  0  0  0
 56 48  1  0  0  0
 56 60  1  0  0  0
 29 30  1  0  0  0
 57 60  1  0  0  0
 57 61  1  0  0  0
 30 31  1  0  0  0
 44 49  1  0  0  0
 44 52  1  0  0  0
 31 32  1  0  0  0
 45 46  1  0  0  0
 45 50  1  0  0  0
 32 33  1  0  0  0
 53 54  1  0  0  0
 53 55  1  0  0  0
 33 34  1  0  0  0
 34 35  1  0  0  0
 35 36  1  0  0  0
 58 60  1  0  0  0
 36 37  1  0  0  0
 59 60  1  0  0  0
 59 62  1  0  0  0
 37 38  1  0  0  0
 38 39  1  0  0  0
 39 40  1  0  0  0
  4  6  1  0  0  0
  6  7  1  0  0  0
  7  8  1  0  0  0
  8  9  1  0  0  0
  9 10  1  0  0  0
 10 11  1  0  0  0
 11 12  1  0  0  0
 12 13  1  0  0  0
 13 14  1  0  0  0
 14 15  1  0  0  0
 15 16  1  0  0  0
 16 17  1  0  0  0
 17 18  1  0  0  0
 18 19  1  0  0  0
 19 20  1  0  0  0
 20 21  1  0  0  0
 21 22  1  0  0  0
 46 47  1  0  0  0
 47 48  1  0  0  0
 48 49  1  0  0  0
 49 50  1  0  0  0
 50 54  1  0  0  0
M  CHG 1  58  -1
M  END
> <minimizedAffinity>
-9.18186

> <CNNscore>
0.1485853493

> <CNNaffinity>
7.1963243484

> <CNN_VS>
1.0692683458

> <CNNaffinity_variance>
1.1677472591

$$$$
/media/chris/experiments/cd1a-new-docking/inputs/ligands/1onq_ligand.pdb


 62 62  0  0  0  0  0  0  0  0999 V2000
  -40.2424   60.0419   63.8290 C   0  0  0  0  0  0  0  0  0  0  0  0
  -41.6286   60.4592   63.9033 N   0  0  0  0  0  0  0  0  0  0  0  0
  -41.7864   61.2034   66.0407 O   0  0  0  0  0  0  0  0  0  0  0  0
  -42.2780   60.9860   64.9504 C   0  0  0  0  0  0  0  0  0  0  0  0
  -42.1589   60.3409   63.0823 H   0  0  0  0  0  0  0  0  0  0  0  0
  -43.7185   61.3232   64.7034 C   0  0  0  0  0  0  0  0  0  0  0  0
  -44.5432   60.2839   65.4630 C   0  0  0  0  0  0  0  0  0  0  0  0
  -45.5799   59.6592   64.5324 C   0  0  0  0  0  0  0  0  0  0  0  0
  -46.8964   60.3891   64.4207 C   0  0  0  0  0  0  0  0  0  0  0  0
  -47.8070   59.8693   65.5282 C   0  0  0  0  0  0  0  0  0  0  0  0
  -48.4865   58.5426   65.1633 C   0  0  0  0  0  0  0  0  0  0  0  0
  -50.0136   58.5396   65.3596 C   0  0  0  0  0  0  0  0  0  0  0  0
  -50.6881   59.8292   64.8426 C   0  0  0  0  0  0  0  0  0  0  0  0
  -51.0377   59.6977   63.3575 C   0  0  0  0  0  0  0  0  0  0  0  0
  -50.0537   60.3615   62.4020 C   0  0  0  0  0  0  0  0  0  0  0  0
  -49.6693   59.4513   61.2449 C   0  0  0  0  0  0  0  0  0  0  0  0
  -49.6608   57.9506   61.5456 C   0  0  0  0  0  0  0  0  0  0  0  0
  -49.2663   57.2127   60.2734 C   0  0  0  0  0  0  0  0  0  0  0  0
  -49.3456   57.9531   58.9466 C   0  0  0  0  0  0  0  0  0  0  0  0
  -47.9411   58.2570   58.4016 C   0  0  0  0  0  0  0  0  0  0  0  0
  -47.0130   57.0317   58.3095 C   0  0  0  0  0  0  0  0  0  0  0  0
  -47.3895   56.0720   57.1831 C   0  0  0  0  0  0  0  0  0  0  0  0
  -39.1080   58.4955   65.1396 O   0  0  0  0  0  0  0  0  0  0  0  0
  -40.2933   58.6260   64.3768 C   0  0  0  0  0  0  0  0  0  0  0  0
  -39.1173   59.1403   65.8642 H   0  0  0  0  0  0  0  0  0  0  0  0
  -40.3422   57.6334   63.2128 C   0  0  0  0  0  0  0  0  0  0  0  0
  -41.3804   57.5525   62.3631 C   0  0  0  0  0  0  0  0  0  0  0  0
  -41.3541   56.5335   61.2255 C   0  0  0  0  0  0  0  0  0  0  0  0
  -40.8626   57.1070   59.8884 C   0  0  0  0  0  0  0  0  0  0  0  0
  -41.1055   58.6132   59.6797 C   0  0  0  0  0  0  0  0  0  0  0  0
  -39.7641   59.3694   59.5230 C   0  0  0  0  0  0  0  0  0  0  0  0
  -38.4942   58.5330   59.8217 C   0  0  0  0  0  0  0  0  0  0  0  0
  -37.7272   58.9768   61.0896 C   0  0  0  0  0  0  0  0  0  0  0  0
  -37.3651   57.8090   62.0327 C   0  0  0  0  0  0  0  0  0  0  0  0
  -35.9003   57.8126   62.4862 C   0  0  0  0  0  0  0  0  0  0  0  0
  -35.5278   58.8491   63.5442 C   0  0  0  0  0  0  0  0  0  0  0  0
  -34.7155   58.2765   64.7225 C   0  0  0  0  0  0  0  0  0  0  0  0
  -33.2610   58.7625   64.8126 C   0  0  0  0  0  0  0  0  0  0  0  0
  -32.5033   58.4741   63.5135 C   0  0  0  0  0  0  0  0  0  0  0  0
  -31.7871   59.6505   62.8742 C   0  0  0  0  0  0  0  0  0  0  0  0
  -39.2213   61.0065   64.4738 C   0  0  0  0  0  0  0  0  0  0  0  0
  -37.9966   61.2431   63.7340 O   0  0  0  0  0  0  0  0  0  0  0  0
  -36.3237   62.1539   65.8668 O   0  0  0  0  0  0  0  0  0  0  0  0
  -34.0491   63.6924   62.7270 O   0  0  0  0  0  0  0  0  0  0  0  0
  -36.9939   63.0491   62.4619 O   0  0  0  0  0  0  0  0  0  0  0  0
  -37.3129   62.5508   63.7837 C   0  0  0  0  0  0  0  0  0  0  0  0
  -36.0037   62.5987   64.5847 C   0  0  0  0  0  0  0  0  0  0  0  0
  -35.3982   64.0148   64.6996 C   0  0  0  0  0  0  0  0  0  0  0  0
  -35.1062   64.4626   63.2940 C   0  0  0  0  0  0  0  0  0  0  0  0
  -36.3636   64.3584   62.4500 C   0  0  0  0  0  0  0  0  0  0  0  0
  -36.7061   61.2640   65.8143 H   0  0  0  0  0  0  0  0  0  0  0  0
  -33.2570   63.7731   63.2811 H   0  0  0  0  0  0  0  0  0  0  0  0
  -35.4418   63.7424   60.3324 O   0  0  0  0  0  0  0  0  0  0  0  0
  -35.8552   64.8381   61.0923 C   0  0  0  0  0  0  0  0  0  0  0  0
  -35.1194   64.0497   59.4707 H   0  0  0  0  0  0  0  0  0  0  0  0
  -34.1491   64.1140   65.4206 O   0  0  0  0  0  0  0  0  0  0  0  0
  -35.4209   64.7129   67.5980 O   0  0  0  0  0  0  0  0  0  0  0  0
  -33.2206   65.6555   67.1990 O   0  0  0  0  0  0  0  0  0  0  0  0
  -33.4521   63.3321   67.8490 O   0  0  0  0  0  0  0  0  0  0  0  0
  -34.0595   64.4353   67.0518 S   0  0  0  0  0  0  0  0  0  0  0  0
  -35.8328   65.4297   67.0906 H   0  0  0  0  0  0  0  0  0  0  0  0
  -33.9931   62.5320   67.7587 H   0  0  0  0  0  0  0  0  0  0  0  0
  2  1  1  0  0  0
  2  4  1  0  0  0
  2  5  1  0  0  0
 41 42  1  0  0  0
 41  1  1  0  0  0
 42 46  1  0  0  0
  1 24  1  0  0  0
 23 24  1  0  0  0
 23 25  1  0  0  0
 24 26  1  0  0  0
  3  4  2  0  0  0
 26 27  2  0  0  0
 27 28  1  0  0  0
 43 47  1  0  0  0
 43 51  1  0  0  0
 28 29  1  0  0  0
 56 48  1  0  0  0
 56 60  1  0  0  0
 29 30  1  0  0  0
 57 60  1  0  0  0
 57 61  1  0  0  0
 30 31  1  0  0  0
 44 49  1  0  0  0
 44 52  1  0  0  0
 31 32  1  0  0  0
 45 46  1  0  0  0
 45 50  1  0  0  0
 32 33  1  0  0  0
 53 54  1  0  0  0
 53 55  1  0  0  0
 33 34  1  0  0  0
 34 35  1  0  0  0
 35 36  1  0  0  0
 58 60  1  0  0  0
 36 37  1  0  0  0
 59 60  1  0  0  0
 59 62  1  0  0  0
 37 38  1  0  0  0
 38 39  1  0  0  0
 39 40  1  0  0  0
  4  6  1  0  0  0
  6  7  1  0  0  0
  7  8  1  0  0  0
  8  9  1  0  0  0
  9 10  1  0  0  0
 10 11  1  0  0  0
 11 12  1  0  0  0
 12 13  1  0  0  0
 13 14  1  0  0  0
 14 15  1  0  0  0
 15 16  1  0  0  0
 16 17  1  0  0  0
 17 18  1  0  0  0
 18 19  1  0  0  0
 19 20  1  0  0  0
 20 21  1  0  0  0
 21 22  1  0  0  0
 46 47  1  0  0  0
 47 48  1  0  0  0
 48 49  1  0  0  0
 49 50  1  0  0  0
 50 54  1  0  0  0
M  CHG 1  58  -1
M  END
> <minimizedAffinity>
-9.59893

> <CNNscore>
0.1324729323

> <CNNaffinity>
6.8997154236

> <CNN_VS>
0.9140255451

> <CNNaffinity_variance>
1.2046992779

$$$$
/media/chris/experiments/cd1a-new-docking/inputs/ligands/1onq_ligand.pdb


 62 62  0  0  0  0  0  0  0  0999 V2000
  -41.4348   59.1418   63.1979 C   0  0  0  0  0  0  0  0  0  0  0  0
  -42.4438   59.8042   64.0005 N   0  0  0  0  0  0  0  0  0  0  0  0
  -42.9834   61.5884   62.7070 O   0  0  0  0  0  0  0  0  0  0  0  0
  -43.1185   60.9270   63.7180 C   0  0  0  0  0  0  0  0  0  0  0  0
  -42.6604   59.3759   64.8601 H   0  0  0  0  0  0  0  0  0  0  0  0
  -44.1109   61.3536   64.7587 C   0  0  0  0  0  0  0  0  0  0  0  0
  -44.1831   60.2180   65.7797 C   0  0  0  0  0  0  0  0  0  0  0  0
  -45.6370   59.8077   66.0013 C   0  0  0  0  0  0  0  0  0  0  0  0
  -46.4270   59.4686   64.7606 C   0  0  0  0  0  0  0  0  0  0  0  0
  -47.7134   60.2871   64.7954 C   0  0  0  0  0  0  0  0  0  0  0  0
  -48.6743   59.8347   65.9030 C   0  0  0  0  0  0  0  0  0  0  0  0
  -50.1462   59.7368   65.4619 C   0  0  0  0  0  0  0  0  0  0  0  0
  -50.4319   60.5000   64.1499 C   0  0  0  0  0  0  0  0  0  0  0  0
  -51.1761   59.6046   63.1553 C   0  0  0  0  0  0  0  0  0  0  0  0
  -50.4253   58.3481   62.7316 C   0  0  0  0  0  0  0  0  0  0  0  0
  -49.2176   58.6632   61.8612 C   0  0  0  0  0  0  0  0  0  0  0  0
  -49.5176   59.0446   60.4097 C   0  0  0  0  0  0  0  0  0  0  0  0
  -49.3440   57.8026   59.5459 C   0  0  0  0  0  0  0  0  0  0  0  0
  -48.0593   56.9978   59.6757 C   0  0  0  0  0  0  0  0  0  0  0  0
  -47.6218   56.4368   58.3134 C   0  0  0  0  0  0  0  0  0  0  0  0
  -47.8506   57.3909   57.1266 C   0  0  0  0  0  0  0  0  0  0  0  0
  -46.7852   58.4788   57.0122 C   0  0  0  0  0  0  0  0  0  0  0  0
  -42.1071   56.9581   63.6166 O   0  0  0  0  0  0  0  0  0  0  0  0
  -42.1945   57.9600   62.6204 C   0  0  0  0  0  0  0  0  0  0  0  0
  -42.5343   57.2719   64.4290 H   0  0  0  0  0  0  0  0  0  0  0  0
  -41.5370   57.5270   61.3079 C   0  0  0  0  0  0  0  0  0  0  0  0
  -41.0854   58.4012   60.3924 C   0  0  0  0  0  0  0  0  0  0  0  0
  -40.4412   57.8895   59.1054 C   0  0  0  0  0  0  0  0  0  0  0  0
  -39.0810   58.5305   58.7934 C   0  0  0  0  0  0  0  0  0  0  0  0
  -38.3801   59.2175   59.9800 C   0  0  0  0  0  0  0  0  0  0  0  0
  -37.8937   58.1710   61.0114 C   0  0  0  0  0  0  0  0  0  0  0  0
  -36.6824   58.6058   61.8745 C   0  0  0  0  0  0  0  0  0  0  0  0
  -36.3764   57.6593   63.0591 C   0  0  0  0  0  0  0  0  0  0  0  0
  -34.8672   57.4767   63.3298 C   0  0  0  0  0  0  0  0  0  0  0  0
  -34.3677   58.2236   64.5724 C   0  0  0  0  0  0  0  0  0  0  0  0
  -32.9896   58.8715   64.4574 C   0  0  0  0  0  0  0  0  0  0  0  0
  -32.3799   58.7989   63.0435 C   0  0  0  0  0  0  0  0  0  0  0  0
  -31.2175   59.7685   62.7811 C   0  0  0  0  0  0  0  0  0  0  0  0
  -31.6133   60.8376   61.7586 C   0  0  0  0  0  0  0  0  0  0  0  0
  -32.2796   62.0855   62.3101 C   0  0  0  0  0  0  0  0  0  0  0  0
  -40.1047   58.8335   63.9223 C   0  0  0  0  0  0  0  0  0  0  0  0
  -39.7664   59.6849   65.0466 O   0  0  0  0  0  0  0  0  0  0  0  0
  -37.9056   60.6362   66.9984 O   0  0  0  0  0  0  0  0  0  0  0  0
  -35.5072   61.2614   63.6434 O   0  0  0  0  0  0  0  0  0  0  0  0
  -38.5237   61.0763   63.4957 O   0  0  0  0  0  0  0  0  0  0  0  0
  -38.8794   60.8537   64.8819 C   0  0  0  0  0  0  0  0  0  0  0  0
  -37.5563   60.8128   65.6601 C   0  0  0  0  0  0  0  0  0  0  0  0
  -36.7271   62.1104   65.5424 C   0  0  0  0  0  0  0  0  0  0  0  0
  -36.4087   62.2749   64.0819 C   0  0  0  0  0  0  0  0  0  0  0  0
  -37.6910   62.2456   63.2701 C   0  0  0  0  0  0  0  0  0  0  0  0
  -38.4280   59.8243   67.0918 H   0  0  0  0  0  0  0  0  0  0  0  0
  -34.6963   61.2981   64.1745 H   0  0  0  0  0  0  0  0  0  0  0  0
  -36.1694   63.4042   61.8363 O   0  0  0  0  0  0  0  0  0  0  0  0
  -37.1525   62.4132   61.8510 C   0  0  0  0  0  0  0  0  0  0  0  0
  -35.8291   63.5087   60.9341 H   0  0  0  0  0  0  0  0  0  0  0  0
  -35.4574   62.1167   66.2336 O   0  0  0  0  0  0  0  0  0  0  0  0
  -33.5367   63.2500   67.5542 O   0  0  0  0  0  0  0  0  0  0  0  0
  -35.5362   64.5188   67.0238 O   0  0  0  0  0  0  0  0  0  0  0  0
  -33.9023   64.0407   65.2987 O   0  0  0  0  0  0  0  0  0  0  0  0
  -34.5771   63.5019   66.5135 S   0  0  0  0  0  0  0  0  0  0  0  0
  -33.9580   62.8981   68.3539 H   0  0  0  0  0  0  0  0  0  0  0  0
  -33.2747   63.3837   64.9591 H   0  0  0  0  0  0  0  0  0  0  0  0
  2  1  1  0  0  0
  2  4  1  0  0  0
  2  5  1  0  0  0
 41 42  1  0  0  0
 41  1  1  0  0  0
 42 46  1  0  0  0
  1 24  1  0  0  0
 23 24  1  0  0  0
 23 25  1  0  0  0
 24 26  1  0  0  0
  3  4  2  0  0  0
 26 27  2  0  0  0
 27 28  1  0  0  0
 43 47  1  0  0  0
 43 51  1  0  0  0
 28 29  1  0  0  0
 56 48  1  0  0  0
 56 60  1  0  0  0
 29 30  1  0  0  0
 57 60  1  0  0  0
 57 61  1  0  0  0
 30 31  1  0  0  0
 44 49  1  0  0  0
 44 52  1  0  0  0
 31 32  1  0  0  0
 45 46  1  0  0  0
 45 50  1  0  0  0
 32 33  1  0  0  0
 53 54  1  0  0  0
 53 55  1  0  0  0
 33 34  1  0  0  0
 34 35  1  0  0  0
 35 36  1  0  0  0
 58 60  1  0  0  0
 36 37  1  0  0  0
 59 60  1  0  0  0
 59 62  1  0  0  0
 37 38  1  0  0  0
 38 39  1  0  0  0
 39 40  1  0  0  0
  4  6  1  0  0  0
  6  7  1  0  0  0
  7  8  1  0  0  0
  8  9  1  0  0  0
  9 10  1  0  0  0
 10 11  1  0  0  0
 11 12  1  0  0  0
 12 13  1  0  0  0
 13 14  1  0  0  0
 14 15  1  0  0  0
 15 16  1  0  0  0
 16 17  1  0  0  0
 17 18  1  0  0  0
 18 19  1  0  0  0
 19 20  1  0  0  0
 20 21  1  0  0  0
 21 22  1  0  0  0
 46 47  1  0  0  0
 47 48  1  0  0  0
 48 49  1  0  0  0
 49 50  1  0  0  0
 50 54  1  0  0  0
M  CHG 1  58  -1
M  END
> <minimizedAffinity>
-9.21306

> <CNNscore>
0.1306767464

> <CNNaffinity>
6.7912344933

> <CNN_VS>
0.8874564171

> <CNNaffinity_variance>
1.5429217815

$$$$
/media/chris/experiments/cd1a-new-docking/inputs/ligands/1onq_ligand.pdb


 62 62  0  0  0  0  0  0  0  0999 V2000
  -42.2795   59.5851   64.9043 C   0  0  0  0  0  0  0  0  0  0  0  0
  -43.4784   59.0863   65.5484 N   0  0  0  0  0  0  0  0  0  0  0  0
  -43.4030   56.8754   65.0447 O   0  0  0  0  0  0  0  0  0  0  0  0
  -43.9393   57.8284   65.5757 C   0  0  0  0  0  0  0  0  0  0  0  0
  -44.0216   59.7548   66.0250 H   0  0  0  0  0  0  0  0  0  0  0  0
  -45.2147   57.6331   66.3407 C   0  0  0  0  0  0  0  0  0  0  0  0
  -45.9354   58.9813   66.3329 C   0  0  0  0  0  0  0  0  0  0  0  0
  -47.1121   58.9379   65.3609 C   0  0  0  0  0  0  0  0  0  0  0  0
  -48.0131   60.1489   65.3556 C   0  0  0  0  0  0  0  0  0  0  0  0
  -49.1959   59.8473   66.2700 C   0  0  0  0  0  0  0  0  0  0  0  0
  -50.4142   59.3114   65.5063 C   0  0  0  0  0  0  0  0  0  0  0  0
  -51.1778   60.3808   64.7039 C   0  0  0  0  0  0  0  0  0  0  0  0
  -51.1727   60.1083   63.1837 C   0  0  0  0  0  0  0  0  0  0  0  0
  -50.6968   58.6823   62.8922 C   0  0  0  0  0  0  0  0  0  0  0  0
  -49.4219   58.5846   62.0634 C   0  0  0  0  0  0  0  0  0  0  0  0
  -49.6201   59.0802   60.6386 C   0  0  0  0  0  0  0  0  0  0  0  0
  -50.0528   58.0272   59.6157 C   0  0  0  0  0  0  0  0  0  0  0  0
  -49.1785   56.7946   59.8030 C   0  0  0  0  0  0  0  0  0  0  0  0
  -47.7105   56.8756   59.4113 C   0  0  0  0  0  0  0  0  0  0  0  0
  -47.4566   56.1547   58.0779 C   0  0  0  0  0  0  0  0  0  0  0  0
  -47.0296   57.0795   56.9231 C   0  0  0  0  0  0  0  0  0  0  0  0
  -47.0841   58.5620   57.2849 C   0  0  0  0  0  0  0  0  0  0  0  0
  -41.4422   61.2322   66.3121 O   0  0  0  0  0  0  0  0  0  0  0  0
  -41.3527   59.8386   66.0808 C   0  0  0  0  0  0  0  0  0  0  0  0
  -42.3554   61.4635   66.5436 H   0  0  0  0  0  0  0  0  0  0  0  0
  -39.9323   59.4056   65.7098 C   0  0  0  0  0  0  0  0  0  0  0  0
  -38.8468   60.1524   65.9749 C   0  0  0  0  0  0  0  0  0  0  0  0
  -37.4617   59.6505   65.5714 C   0  0  0  0  0  0  0  0  0  0  0  0
  -37.4313   58.1706   65.1629 C   0  0  0  0  0  0  0  0  0  0  0  0
  -36.4061   57.8003   64.0752 C   0  0  0  0  0  0  0  0  0  0  0  0
  -35.0155   58.3934   64.4064 C   0  0  0  0  0  0  0  0  0  0  0  0
  -34.1186   58.7019   63.1809 C   0  0  0  0  0  0  0  0  0  0  0  0
  -32.7422   59.3095   63.5402 C   0  0  0  0  0  0  0  0  0  0  0  0
  -31.9272   59.7631   62.3096 C   0  0  0  0  0  0  0  0  0  0  0  0
  -31.2925   61.1502   62.4661 C   0  0  0  0  0  0  0  0  0  0  0  0
  -32.2421   62.3402   62.3464 C   0  0  0  0  0  0  0  0  0  0  0  0
  -31.8973   63.5129   63.2855 C   0  0  0  0  0  0  0  0  0  0  0  0
  -33.0780   64.0756   64.0912 C   0  0  0  0  0  0  0  0  0  0  0  0
  -32.8307   63.9409   65.5964 C   0  0  0  0  0  0  0  0  0  0  0  0
  -33.8242   64.6378   66.5090 C   0  0  0  0  0  0  0  0  0  0  0  0
  -42.4922   60.7538   63.9154 C   0  0  0  0  0  0  0  0  0  0  0  0
  -42.4934   60.4172   62.5047 O   0  0  0  0  0  0  0  0  0  0  0  0
  -40.0553   61.6467   63.3538 O   0  0  0  0  0  0  0  0  0  0  0  0
  -38.3377   58.4692   61.2676 O   0  0  0  0  0  0  0  0  0  0  0  0
  -41.1441   59.4636   60.7284 O   0  0  0  0  0  0  0  0  0  0  0  0
  -41.2703   60.5418   61.6871 C   0  0  0  0  0  0  0  0  0  0  0  0
  -39.9433   60.5837   62.4585 C   0  0  0  0  0  0  0  0  0  0  0  0
  -38.7116   60.8334   61.5608 C   0  0  0  0  0  0  0  0  0  0  0  0
  -38.6568   59.6837   60.5929 C   0  0  0  0  0  0  0  0  0  0  0  0
  -39.9818   59.5638   59.8620 C   0  0  0  0  0  0  0  0  0  0  0  0
  -40.8252   61.5069   63.9270 H   0  0  0  0  0  0  0  0  0  0  0  0
  -37.4890   58.5678   61.7270 H   0  0  0  0  0  0  0  0  0  0  0  0
  -40.4299   57.2550   59.4352 O   0  0  0  0  0  0  0  0  0  0  0  0
  -39.7201   58.3595   58.9604 C   0  0  0  0  0  0  0  0  0  0  0  0
  -40.2620   56.4916   58.8608 H   0  0  0  0  0  0  0  0  0  0  0  0
  -37.4314   60.8549   62.2320 O   0  0  0  0  0  0  0  0  0  0  0  0
  -36.5148   63.2468   61.8366 O   0  0  0  0  0  0  0  0  0  0  0  0
  -35.4780   61.8290   63.5112 O   0  0  0  0  0  0  0  0  0  0  0  0
  -37.6285   62.8582   63.9472 O   0  0  0  0  0  0  0  0  0  0  0  0
  -36.7737   62.2310   62.8997 S   0  0  0  0  0  0  0  0  0  0  0  0
  -35.9588   62.8558   61.1446 H   0  0  0  0  0  0  0  0  0  0  0  0
  -38.4760   63.1237   63.5569 H   0  0  0  0  0  0  0  0  0  0  0  0
  2  1  1  0  0  0
  2  4  1  0  0  0
  2  5  1  0  0  0
 41 42  1  0  0  0
 41  1  1  0  0  0
 42 46  1  0  0  0
  1 24  1  0  0  0
 23 24  1  0  0  0
 23 25  1  0  0  0
 24 26  1  0  0  0
  3  4  2  0  0  0
 26 27  2  0  0  0
 27 28  1  0  0  0
 43 47  1  0  0  0
 43 51  1  0  0  0
 28 29  1  0  0  0
 56 48  1  0  0  0
 56 60  1  0  0  0
 29 30  1  0  0  0
 57 60  1  0  0  0
 57 61  1  0  0  0
 30 31  1  0  0  0
 44 49  1  0  0  0
 44 52  1  0  0  0
 31 32  1  0  0  0
 45 46  1  0  0  0
 45 50  1  0  0  0
 32 33  1  0  0  0
 53 54  1  0  0  0
 53 55  1  0  0  0
 33 34  1  0  0  0
 34 35  1  0  0  0
 35 36  1  0  0  0
 58 60  1  0  0  0
 36 37  1  0  0  0
 59 60  1  0  0  0
 59 62  1  0  0  0
 37 38  1  0  0  0
 38 39  1  0  0  0
 39 40  1  0  0  0
  4  6  1  0  0  0
  6  7  1  0  0  0
  7  8  1  0  0  0
  8  9  1  0  0  0
  9 10  1  0  0  0
 10 11  1  0  0  0
 11 12  1  0  0  0
 12 13  1  0  0  0
 13 14  1  0  0  0
 14 15  1  0  0  0
 15 16  1  0  0  0
 16 17  1  0  0  0
 17 18  1  0  0  0
 18 19  1  0  0  0
 19 20  1  0  0  0
 20 21  1  0  0  0
 21 22  1  0  0  0
 46 47  1  0  0  0
 47 48  1  0  0  0
 48 49  1  0  0  0
 49 50  1  0  0  0
 50 54  1  0  0  0
M  CHG 1  58  -1
M  END
> <minimizedAffinity>
-9.09561

> <CNNscore>
0.1240371317

> <CNNaffinity>
6.6219482422

> <CNN_VS>
0.8213674426

> <CNNaffinity_variance>
1.4346563816

$$$$
/media/chris/experiments/cd1a-new-docking/inputs/ligands/1onq_ligand.pdb


 62 62  0  0  0  0  0  0  0  0999 V2000
  -39.3388   60.8404   61.5104 C   0  0  0  0  0  0  0  0  0  0  0  0
  -40.6165   60.4945   62.1012 N   0  0  0  0  0  0  0  0  0  0  0  0
  -42.0277   61.9294   61.0538 O   0  0  0  0  0  0  0  0  0  0  0  0
  -41.8169   61.0335   61.8480 C   0  0  0  0  0  0  0  0  0  0  0  0
  -40.6003   59.7740   62.7719 H   0  0  0  0  0  0  0  0  0  0  0  0
  -42.9569   60.4448   62.6249 C   0  0  0  0  0  0  0  0  0  0  0  0
  -43.2518   61.4183   63.7662 C   0  0  0  0  0  0  0  0  0  0  0  0
  -44.7261   61.3354   64.1546 C   0  0  0  0  0  0  0  0  0  0  0  0
  -45.1327   60.1256   64.9605 C   0  0  0  0  0  0  0  0  0  0  0  0
  -46.6179   59.8842   64.7120 C   0  0  0  0  0  0  0  0  0  0  0  0
  -47.4366   59.8401   66.0091 C   0  0  0  0  0  0  0  0  0  0  0  0
  -48.9600   59.9142   65.7980 C   0  0  0  0  0  0  0  0  0  0  0  0
  -49.3480   60.5203   64.4314 C   0  0  0  0  0  0  0  0  0  0  0  0
  -50.8435   60.3312   64.1618 C   0  0  0  0  0  0  0  0  0  0  0  0
  -51.1766   59.4551   62.9604 C   0  0  0  0  0  0  0  0  0  0  0  0
  -50.0138   58.5597   62.5587 C   0  0  0  0  0  0  0  0  0  0  0  0
  -50.2697   57.6147   61.3824 C   0  0  0  0  0  0  0  0  0  0  0  0
  -50.2018   58.4270   60.0961 C   0  0  0  0  0  0  0  0  0  0  0  0
  -48.8609   58.5644   59.3904 C   0  0  0  0  0  0  0  0  0  0  0  0
  -48.0704   57.2477   59.4507 C   0  0  0  0  0  0  0  0  0  0  0  0
  -46.9747   57.1110   58.3774 C   0  0  0  0  0  0  0  0  0  0  0  0
  -47.1031   58.1325   57.2497 C   0  0  0  0  0  0  0  0  0  0  0  0
  -38.7057   59.6437   59.6228 O   0  0  0  0  0  0  0  0  0  0  0  0
  -38.8236   59.4961   61.0256 C   0  0  0  0  0  0  0  0  0  0  0  0
  -38.0648   60.3444   59.4242 H   0  0  0  0  0  0  0  0  0  0  0  0
  -39.8232   58.4021   61.4083 C   0  0  0  0  0  0  0  0  0  0  0  0
  -40.4899   57.6695   60.4999 C   0  0  0  0  0  0  0  0  0  0  0  0
  -41.4727   56.5956   60.9624 C   0  0  0  0  0  0  0  0  0  0  0  0
  -40.9758   55.7721   62.1596 C   0  0  0  0  0  0  0  0  0  0  0  0
  -41.8275   55.8743   63.4383 C   0  0  0  0  0  0  0  0  0  0  0  0
  -42.2303   57.3431   63.7141 C   0  0  0  0  0  0  0  0  0  0  0  0
  -41.6880   57.9408   65.0370 C   0  0  0  0  0  0  0  0  0  0  0  0
  -40.3450   58.6937   64.8883 C   0  0  0  0  0  0  0  0  0  0  0  0
  -39.1112   57.7654   64.9063 C   0  0  0  0  0  0  0  0  0  0  0  0
  -37.8036   58.4683   64.5225 C   0  0  0  0  0  0  0  0  0  0  0  0
  -36.5182   57.8196   65.0316 C   0  0  0  0  0  0  0  0  0  0  0  0
  -35.2901   58.0769   64.1363 C   0  0  0  0  0  0  0  0  0  0  0  0
  -34.0008   58.4486   64.8844 C   0  0  0  0  0  0  0  0  0  0  0  0
  -32.9162   58.9188   63.9109 C   0  0  0  0  0  0  0  0  0  0  0  0
  -33.3315   59.0678   62.4581 C   0  0  0  0  0  0  0  0  0  0  0  0
  -38.3934   61.6709   62.4078 C   0  0  0  0  0  0  0  0  0  0  0  0
  -37.0079   61.2453   62.4585 O   0  0  0  0  0  0  0  0  0  0  0  0
  -35.0675   63.3010   62.0275 O   0  0  0  0  0  0  0  0  0  0  0  0
  -36.2735   64.5121   65.8325 O   0  0  0  0  0  0  0  0  0  0  0  0
  -36.6372   61.6857   64.8152 O   0  0  0  0  0  0  0  0  0  0  0  0
  -36.0820   61.7729   63.4804 C   0  0  0  0  0  0  0  0  0  0  0  0
  -35.6353   63.2308   63.2991 C   0  0  0  0  0  0  0  0  0  0  0  0
  -34.5784   63.6883   64.3281 C   0  0  0  0  0  0  0  0  0  0  0  0
  -35.2244   63.5591   65.6800 C   0  0  0  0  0  0  0  0  0  0  0  0
  -35.7465   62.1461   65.8670 C   0  0  0  0  0  0  0  0  0  0  0  0
  -35.7182   63.0167   61.3667 H   0  0  0  0  0  0  0  0  0  0  0  0
  -35.9185   65.4064   65.7092 H   0  0  0  0  0  0  0  0  0  0  0  0
  -35.5674   63.0535   68.0711 O   0  0  0  0  0  0  0  0  0  0  0  0
  -36.3579   62.2337   67.2636 C   0  0  0  0  0  0  0  0  0  0  0  0
  -35.9578   63.1074   68.9574 H   0  0  0  0  0  0  0  0  0  0  0  0
  -34.1420   65.0624   64.2210 O   0  0  0  0  0  0  0  0  0  0  0  0
  -31.7043   64.4101   64.8125 O   0  0  0  0  0  0  0  0  0  0  0  0
  -32.7807   66.2276   66.0071 O   0  0  0  0  0  0  0  0  0  0  0  0
  -32.0115   66.5510   63.7315 O   0  0  0  0  0  0  0  0  0  0  0  0
  -32.6259   65.5770   64.6778 S   0  0  0  0  0  0  0  0  0  0  0  0
  -32.0883   63.7641   65.4258 H   0  0  0  0  0  0  0  0  0  0  0  0
  -31.9068   66.1347   62.8616 H   0  0  0  0  0  0  0  0  0  0  0  0
  2  1  1  0  0  0
  2  4  1  0  0  0
  2  5  1  0  0  0
 41 42  1  0  0  0
 41  1  1  0  0  0
 42 46  1  0  0  0
  1 24  1  0  0  0
 23 24  1  0  0  0
 23 25  1  0  0  0
 24 26  1  0  0  0
  3  4  2  0  0  0
 26 27  2  0  0  0
 27 28  1  0  0  0
 43 47  1  0  0  0
 43 51  1  0  0  0
 28 29  1  0  0  0
 56 48  1  0  0  0
 56 60  1  0  0  0
 29 30  1  0  0  0
 57 60  1  0  0  0
 57 61  1  0  0  0
 30 31  1  0  0  0
 44 49  1  0  0  0
 44 52  1  0  0  0
 31 32  1  0  0  0
 45 46  1  0  0  0
 45 50  1  0  0  0
 32 33  1  0  0  0
 53 54  1  0  0  0
 53 55  1  0  0  0
 33 34  1  0  0  0
 34 35  1  0  0  0
 35 36  1  0  0  0
 58 60  1  0  0  0
 36 37  1  0  0  0
 59 60  1  0  0  0
 59 62  1  0  0  0
 37 38  1  0  0  0
 38 39  1  0  0  0
 39 40  1  0  0  0
  4  6  1  0  0  0
  6  7  1  0  0  0
  7  8  1  0  0  0
  8  9  1  0  0  0
  9 10  1  0  0  0
 10 11  1  0  0  0
 11 12  1  0  0  0
 12 13  1  0  0  0
 13 14  1  0  0  0
 14 15  1  0  0  0
 15 16  1  0  0  0
 16 17  1  0  0  0
 17 18  1  0  0  0
 18 19  1  0  0  0
 19 20  1  0  0  0
 20 21  1  0  0  0
 21 22  1  0  0  0
 46 47  1  0  0  0
 47 48  1  0  0  0
 48 49  1  0  0  0
 49 50  1  0  0  0
 50 54  1  0  0  0
M  CHG 1  58  -1
M  END
> <minimizedAffinity>
-8.63108

> <CNNscore>
0.1154741496

> <CNNaffinity>
6.9400124550

> <CNN_VS>
0.8013920188

> <CNNaffinity_variance>
0.9117649794

$$$$
