/media/chris/experiments/cd1a-new-docking/inputs/ligands/1onq_ligand.pdb


 62 62  0  0  0  0  0  0  0  0999 V2000
  -41.2273   59.7409   65.2863 C   0  0  0  0  0  0  0  0  0  0  0  0
  -41.6009   59.2405   63.9782 N   0  0  0  0  0  0  0  0  0  0  0  0
  -41.8686   57.0231   64.3767 O   0  0  0  0  0  0  0  0  0  0  0  0
  -41.8830   57.9790   63.6256 C   0  0  0  0  0  0  0  0  0  0  0  0
  -41.6540   59.9111   63.2593 H   0  0  0  0  0  0  0  0  0  0  0  0
  -42.2463   57.7860   62.1831 C   0  0  0  0  0  0  0  0  0  0  0  0
  -41.3207   56.6946   61.6455 C   0  0  0  0  0  0  0  0  0  0  0  0
  -40.9841   56.9706   60.1820 C   0  0  0  0  0  0  0  0  0  0  0  0
  -41.3250   58.3497   59.6715 C   0  0  0  0  0  0  0  0  0  0  0  0
  -40.0814   59.2189   59.8269 C   0  0  0  0  0  0  0  0  0  0  0  0
  -38.8081   58.5277   59.3212 C   0  0  0  0  0  0  0  0  0  0  0  0
  -37.6173   58.6060   60.2941 C   0  0  0  0  0  0  0  0  0  0  0  0
  -37.9975   58.2203   61.7406 C   0  0  0  0  0  0  0  0  0  0  0  0
  -36.8049   57.5850   62.4612 C   0  0  0  0  0  0  0  0  0  0  0  0
  -36.3690   58.2956   63.7367 C   0  0  0  0  0  0  0  0  0  0  0  0
  -35.0635   59.0563   63.5564 C   0  0  0  0  0  0  0  0  0  0  0  0
  -34.0490   58.4302   62.5966 C   0  0  0  0  0  0  0  0  0  0  0  0
  -32.7050   58.3541   63.3082 C   0  0  0  0  0  0  0  0  0  0  0  0
  -31.7094   59.4873   63.1094 C   0  0  0  0  0  0  0  0  0  0  0  0
  -31.9630   60.2152   61.7797 C   0  0  0  0  0  0  0  0  0  0  0  0
  -30.7197   60.8938   61.1759 C   0  0  0  0  0  0  0  0  0  0  0  0
  -29.4433   60.6350   61.9730 C   0  0  0  0  0  0  0  0  0  0  0  0
  -41.6241   61.7185   66.4384 O   0  0  0  0  0  0  0  0  0  0  0  0
  -42.2519   60.8363   65.5267 C   0  0  0  0  0  0  0  0  0  0  0  0
  -40.8231   62.0861   66.0331 H   0  0  0  0  0  0  0  0  0  0  0  0
  -43.5271   60.2194   66.1063 C   0  0  0  0  0  0  0  0  0  0  0  0
  -44.6747   60.1247   65.4134 C   0  0  0  0  0  0  0  0  0  0  0  0
  -45.9056   59.4959   66.0635 C   0  0  0  0  0  0  0  0  0  0  0  0
  -47.0866   59.3026   65.1011 C   0  0  0  0  0  0  0  0  0  0  0  0
  -48.4593   59.7572   65.6308 C   0  0  0  0  0  0  0  0  0  0  0  0
  -49.2643   60.4780   64.5226 C   0  0  0  0  0  0  0  0  0  0  0  0
  -50.7772   60.1452   64.4812 C   0  0  0  0  0  0  0  0  0  0  0  0
  -51.2854   59.6780   63.0969 C   0  0  0  0  0  0  0  0  0  0  0  0
  -50.3242   58.7029   62.3832 C   0  0  0  0  0  0  0  0  0  0  0  0
  -49.9013   59.1656   60.9838 C   0  0  0  0  0  0  0  0  0  0  0  0
  -50.0020   58.1226   59.8728 C   0  0  0  0  0  0  0  0  0  0  0  0
  -49.0663   56.9126   60.0638 C   0  0  0  0  0  0  0  0  0  0  0  0
  -47.7143   57.0097   59.3407 C   0  0  0  0  0  0  0  0  0  0  0  0
  -47.7161   58.1539   58.3229 C   0  0  0  0  0  0  0  0  0  0  0  0
  -47.6065   57.7575   56.8613 C   0  0  0  0  0  0  0  0  0  0  0  0
  -39.7393   60.1245   65.4522 C   0  0  0  0  0  0  0  0  0  0  0  0
  -39.2152   61.1054   64.5214 O   0  0  0  0  0  0  0  0  0  0  0  0
  -37.5466   61.6339   62.2600 O   0  0  0  0  0  0  0  0  0  0  0  0
  -36.2110   64.7873   64.6414 O   0  0  0  0  0  0  0  0  0  0  0  0
  -37.5275   62.3118   65.7792 O   0  0  0  0  0  0  0  0  0  0  0  0
  -37.8065   61.5433   64.5837 C   0  0  0  0  0  0  0  0  0  0  0  0
  -37.3106   62.3934   63.4052 C   0  0  0  0  0  0  0  0  0  0  0  0
  -35.8024   62.7208   63.4677 C   0  0  0  0  0  0  0  0  0  0  0  0
  -35.5946   63.5052   64.7338 C   0  0  0  0  0  0  0  0  0  0  0  0
  -36.1416   62.7264   65.9163 C   0  0  0  0  0  0  0  0  0  0  0  0
  -38.4907   61.4183   62.2040 H   0  0  0  0  0  0  0  0  0  0  0  0
  -35.8475   65.2668   63.8806 H   0  0  0  0  0  0  0  0  0  0  0  0
  -36.2235   63.0934   68.2769 O   0  0  0  0  0  0  0  0  0  0  0  0
  -35.8459   63.6831   67.0693 C   0  0  0  0  0  0  0  0  0  0  0  0
  -36.0347   63.7030   69.0074 H   0  0  0  0  0  0  0  0  0  0  0  0
  -35.2868   63.5431   62.3962 O   0  0  0  0  0  0  0  0  0  0  0  0
  -32.8655   63.1769   63.2446 O   0  0  0  0  0  0  0  0  0  0  0  0
  -33.5309   65.3642   62.4308 O   0  0  0  0  0  0  0  0  0  0  0  0
  -33.1266   63.5541   60.8706 O   0  0  0  0  0  0  0  0  0  0  0  0
  -33.6705   63.8984   62.2149 S   0  0  0  0  0  0  0  0  0  0  0  0
  -33.2054   63.3892   64.1279 H   0  0  0  0  0  0  0  0  0  0  0  0
  -33.2135   62.5996   60.7214 H   0  0  0  0  0  0  0  0  0  0  0  0
  2  1  1  0  0  0
  2  4  1  0  0  0
  2  5  1  0  0  0
 41 42  1  0  0  0
 41  1  1  0  0  0
 42 46  1  0  0  0
  1 24  1  0  0  0
 23 24  1  0  0  0
 23 25  1  0  0  0
 24 26  1  0  0  0
  3  4  2  0  0  0
 26 27  2  0  0  0
 27 28  1  0  0  0
 43 47  1  0  0  0
 43 51  1  0  0  0
 28 29  1  0  0  0
 56 48  1  0  0  0
 56 60  1  0  0  0
 29 30  1  0  0  0
 57 60  1  0  0  0
 57 61  1  0  0  0
 30 31  1  0  0  0
 44 49  1  0  0  0
 44 52  1  0  0  0
 31 32  1  0  0  0
 45 46  1  0  0  0
 45 50  1  0  0  0
 32 33  1  0  0  0
 53 54  1  0  0  0
 53 55  1  0  0  0
 33 34  1  0  0  0
 34 35  1  0  0  0
 35 36  1  0  0  0
 58 60  1  0  0  0
 36 37  1  0  0  0
 59 60  1  0  0  0
 59 62  1  0  0  0
 37 38  1  0  0  0
 38 39  1  0  0  0
 39 40  1  0  0  0
  4  6  1  0  0  0
  6  7  1  0  0  0
  7  8  1  0  0  0
  8  9  1  0  0  0
  9 10  1  0  0  0
 10 11  1  0  0  0
 11 12  1  0  0  0
 12 13  1  0  0  0
 13 14  1  0  0  0
 14 15  1  0  0  0
 15 16  1  0  0  0
 16 17  1  0  0  0
 17 18  1  0  0  0
 18 19  1  0  0  0
 19 20  1  0  0  0
 20 21  1  0  0  0
 21 22  1  0  0  0
 46 47  1  0  0  0
 47 48  1  0  0  0
 48 49  1  0  0  0
 49 50  1  0  0  0
 50 54  1  0  0  0
M  CHG 1  58  -1
M  END
> <minimizedAffinity>
-9.74743

> <CNNscore>
0.4263253510

> <CNNaffinity>
7.2384843826

> <CNN_VS>
3.0859494209

> <CNNaffinity_variance>
1.5977293253

$$$$
/media/chris/experiments/cd1a-new-docking/inputs/ligands/1onq_ligand.pdb


 62 62  0  0  0  0  0  0  0  0999 V2000
  -37.7390   59.4643   64.1945 C   0  0  0  0  0  0  0  0  0  0  0  0
  -39.0708   59.5874   64.7535 N   0  0  0  0  0  0  0  0  0  0  0  0
  -39.9576   61.2601   63.5032 O   0  0  0  0  0  0  0  0  0  0  0  0
  -40.0443   60.4337   64.3906 C   0  0  0  0  0  0  0  0  0  0  0  0
  -39.2869   58.9728   65.4915 H   0  0  0  0  0  0  0  0  0  0  0  0
  -41.3223   60.3054   65.1651 C   0  0  0  0  0  0  0  0  0  0  0  0
  -42.4588   60.4696   64.1560 C   0  0  0  0  0  0  0  0  0  0  0  0
  -43.4440   61.5273   64.6476 C   0  0  0  0  0  0  0  0  0  0  0  0
  -44.8337   61.4631   64.0616 C   0  0  0  0  0  0  0  0  0  0  0  0
  -45.6674   60.5476   64.9520 C   0  0  0  0  0  0  0  0  0  0  0  0
  -47.0030   60.1509   64.3090 C   0  0  0  0  0  0  0  0  0  0  0  0
  -48.2431   60.5519   65.1287 C   0  0  0  0  0  0  0  0  0  0  0  0
  -48.9588   59.3409   65.7664 C   0  0  0  0  0  0  0  0  0  0  0  0
  -50.0758   58.8306   64.8516 C   0  0  0  0  0  0  0  0  0  0  0  0
  -50.7746   59.9043   64.0265 C   0  0  0  0  0  0  0  0  0  0  0  0
  -50.7543   59.5924   62.5373 C   0  0  0  0  0  0  0  0  0  0  0  0
  -50.9160   58.1185   62.1581 C   0  0  0  0  0  0  0  0  0  0  0  0
  -50.5082   57.9549   60.7002 C   0  0  0  0  0  0  0  0  0  0  0  0
  -49.0263   57.9182   60.3571 C   0  0  0  0  0  0  0  0  0  0  0  0
  -48.8160   57.8032   58.8390 C   0  0  0  0  0  0  0  0  0  0  0  0
  -47.3485   57.6217   58.4095 C   0  0  0  0  0  0  0  0  0  0  0  0
  -47.0182   58.3040   57.0840 C   0  0  0  0  0  0  0  0  0  0  0  0
  -36.4470   57.5480   64.4275 O   0  0  0  0  0  0  0  0  0  0  0  0
  -37.6611   57.9875   63.8473 C   0  0  0  0  0  0  0  0  0  0  0  0
  -36.4859   57.6688   65.3893 H   0  0  0  0  0  0  0  0  0  0  0  0
  -37.6656   57.8236   62.3256 C   0  0  0  0  0  0  0  0  0  0  0  0
  -37.6214   58.8650   61.4772 C   0  0  0  0  0  0  0  0  0  0  0  0
  -37.6303   58.6184   59.9698 C   0  0  0  0  0  0  0  0  0  0  0  0
  -38.8560   59.2015   59.2516 C   0  0  0  0  0  0  0  0  0  0  0  0
  -39.7711   60.0925   60.1119 C   0  0  0  0  0  0  0  0  0  0  0  0
  -41.0833   59.3521   60.4661 C   0  0  0  0  0  0  0  0  0  0  0  0
  -41.2421   57.9471   59.8321 C   0  0  0  0  0  0  0  0  0  0  0  0
  -41.3627   56.7980   60.8606 C   0  0  0  0  0  0  0  0  0  0  0  0
  -41.9788   57.2364   62.2069 C   0  0  0  0  0  0  0  0  0  0  0  0
  -41.0592   57.0044   63.4118 C   0  0  0  0  0  0  0  0  0  0  0  0
  -41.7450   56.5734   64.7066 C   0  0  0  0  0  0  0  0  0  0  0  0
  -43.2567   56.8726   64.7435 C   0  0  0  0  0  0  0  0  0  0  0  0
  -43.7672   57.5061   66.0467 C   0  0  0  0  0  0  0  0  0  0  0  0
  -45.2960   57.4569   66.1200 C   0  0  0  0  0  0  0  0  0  0  0  0
  -45.9203   57.8301   67.4529 C   0  0  0  0  0  0  0  0  0  0  0  0
  -36.5972   60.0415   65.0617 C   0  0  0  0  0  0  0  0  0  0  0  0
  -35.2712   60.0367   64.4742 O   0  0  0  0  0  0  0  0  0  0  0  0
  -33.4062   61.0713   62.5693 O   0  0  0  0  0  0  0  0  0  0  0  0
  -34.4927   64.7215   64.2705 O   0  0  0  0  0  0  0  0  0  0  0  0
  -34.8193   62.0776   65.7054 O   0  0  0  0  0  0  0  0  0  0  0  0
  -34.3202   61.1385   64.7222 C   0  0  0  0  0  0  0  0  0  0  0  0
  -33.9209   61.9749   63.4981 C   0  0  0  0  0  0  0  0  0  0  0  0
  -32.8369   63.0337   63.7969 C   0  0  0  0  0  0  0  0  0  0  0  0
  -33.4250   63.9583   64.8268 C   0  0  0  0  0  0  0  0  0  0  0  0
  -33.9004   63.1569   66.0251 C   0  0  0  0  0  0  0  0  0  0  0  0
  -34.0746   60.3974   62.3691 H   0  0  0  0  0  0  0  0  0  0  0  0
  -34.1674   65.2247   63.5078 H   0  0  0  0  0  0  0  0  0  0  0  0
  -33.4285   65.1241   67.2982 O   0  0  0  0  0  0  0  0  0  0  0  0
  -34.4580   64.2596   66.9224 C   0  0  0  0  0  0  0  0  0  0  0  0
  -33.7852   65.8234   67.8679 H   0  0  0  0  0  0  0  0  0  0  0  0
  -32.4427   63.8693   62.6850 O   0  0  0  0  0  0  0  0  0  0  0  0
  -30.9782   62.1275   61.4447 O   0  0  0  0  0  0  0  0  0  0  0  0
  -29.9171   63.9850   62.5905 O   0  0  0  0  0  0  0  0  0  0  0  0
  -31.0578   64.3443   60.4825 O   0  0  0  0  0  0  0  0  0  0  0  0
  -31.0865   63.5821   61.7630 S   0  0  0  0  0  0  0  0  0  0  0  0
  -30.9952   61.6143   62.2676 H   0  0  0  0  0  0  0  0  0  0  0  0
  -31.8173   64.0876   59.9364 H   0  0  0  0  0  0  0  0  0  0  0  0
  2  1  1  0  0  0
  2  4  1  0  0  0
  2  5  1  0  0  0
 41 42  1  0  0  0
 41  1  1  0  0  0
 42 46  1  0  0  0
  1 24  1  0  0  0
 23 24  1  0  0  0
 23 25  1  0  0  0
 24 26  1  0  0  0
  3  4  2  0  0  0
 26 27  2  0  0  0
 27 28  1  0  0  0
 43 47  1  0  0  0
 43 51  1  0  0  0
 28 29  1  0  0  0
 56 48  1  0  0  0
 56 60  1  0  0  0
 29 30  1  0  0  0
 57 60  1  0  0  0
 57 61  1  0  0  0
 30 31  1  0  0  0
 44 49  1  0  0  0
 44 52  1  0  0  0
 31 32  1  0  0  0
 45 46  1  0  0  0
 45 50  1  0  0  0
 32 33  1  0  0  0
 53 54  1  0  0  0
 53 55  1  0  0  0
 33 34  1  0  0  0
 34 35  1  0  0  0
 35 36  1  0  0  0
 58 60  1  0  0  0
 36 37  1  0  0  0
 59 60  1  0  0  0
 59 62  1  0  0  0
 37 38  1  0  0  0
 38 39  1  0  0  0
 39 40  1  0  0  0
  4  6  1  0  0  0
  6  7  1  0  0  0
  7  8  1  0  0  0
  8  9  1  0  0  0
  9 10  1  0  0  0
 10 11  1  0  0  0
 11 12  1  0  0  0
 12 13  1  0  0  0
 13 14  1  0  0  0
 14 15  1  0  0  0
 15 16  1  0  0  0
 16 17  1  0  0  0
 17 18  1  0  0  0
 18 19  1  0  0  0
 19 20  1  0  0  0
 20 21  1  0  0  0
 21 22  1  0  0  0
 46 47  1  0  0  0
 47 48  1  0  0  0
 48 49  1  0  0  0
 49 50  1  0  0  0
 50 54  1  0  0  0
M  CHG 1  58  -1
M  END
> <minimizedAffinity>
-9.17297

> <CNNscore>
0.2873968184

> <CNNaffinity>
7.2225646973

> <CNN_VS>
2.0757420063

> <CNNaffinity_variance>
1.0796480179

$$$$
/media/chris/experiments/cd1a-new-docking/inputs/ligands/1onq_ligand.pdb


 62 62  0  0  0  0  0  0  0  0999 V2000
  -39.9936   60.3469   64.0014 C   0  0  0  0  0  0  0  0  0  0  0  0
  -41.3694   60.7122   64.2748 N   0  0  0  0  0  0  0  0  0  0  0  0
  -41.9397   61.8528   62.3983 O   0  0  0  0  0  0  0  0  0  0  0  0
  -42.2107   61.4058   63.4959 C   0  0  0  0  0  0  0  0  0  0  0  0
  -41.7307   60.4135   65.1405 H   0  0  0  0  0  0  0  0  0  0  0  0
  -43.5830   61.6126   64.0650 C   0  0  0  0  0  0  0  0  0  0  0  0
  -43.6233   60.8473   65.3878 C   0  0  0  0  0  0  0  0  0  0  0  0
  -44.6272   59.7006   65.2964 C   0  0  0  0  0  0  0  0  0  0  0  0
  -45.5862   59.5646   66.4542 C   0  0  0  0  0  0  0  0  0  0  0  0
  -46.9635   59.2539   65.8775 C   0  0  0  0  0  0  0  0  0  0  0  0
  -48.0818   60.0681   66.5418 C   0  0  0  0  0  0  0  0  0  0  0  0
  -49.4875   59.7879   65.9793 C   0  0  0  0  0  0  0  0  0  0  0  0
  -49.7034   60.3916   64.5742 C   0  0  0  0  0  0  0  0  0  0  0  0
  -51.1978   60.5198   64.2654 C   0  0  0  0  0  0  0  0  0  0  0  0
  -51.6850   59.6923   63.0823 C   0  0  0  0  0  0  0  0  0  0  0  0
  -50.5463   58.9774   62.3697 C   0  0  0  0  0  0  0  0  0  0  0  0
  -50.9441   57.7834   61.4989 C   0  0  0  0  0  0  0  0  0  0  0  0
  -49.9776   57.7080   60.3247 C   0  0  0  0  0  0  0  0  0  0  0  0
  -49.1285   56.4565   60.1582 C   0  0  0  0  0  0  0  0  0  0  0  0
  -47.9783   56.7000   59.1683 C   0  0  0  0  0  0  0  0  0  0  0  0
  -48.0025   58.0815   58.4886 C   0  0  0  0  0  0  0  0  0  0  0  0
  -47.0553   58.1842   57.2954 C   0  0  0  0  0  0  0  0  0  0  0  0
  -40.8699   58.8958   65.5895 O   0  0  0  0  0  0  0  0  0  0  0  0
  -39.9120   58.9320   64.5480 C   0  0  0  0  0  0  0  0  0  0  0  0
  -41.7517   59.0679   65.2238 H   0  0  0  0  0  0  0  0  0  0  0  0
  -38.4939   58.6671   65.0593 C   0  0  0  0  0  0  0  0  0  0  0  0
  -37.8718   57.4848   64.9124 C   0  0  0  0  0  0  0  0  0  0  0  0
  -36.4549   57.2991   65.4519 C   0  0  0  0  0  0  0  0  0  0  0  0
  -35.3583   57.4689   64.3904 C   0  0  0  0  0  0  0  0  0  0  0  0
  -35.7865   57.1859   62.9385 C   0  0  0  0  0  0  0  0  0  0  0  0
  -35.8989   58.5025   62.1325 C   0  0  0  0  0  0  0  0  0  0  0  0
  -37.3376   58.9063   61.7222 C   0  0  0  0  0  0  0  0  0  0  0  0
  -37.7914   58.3346   60.3584 C   0  0  0  0  0  0  0  0  0  0  0  0
  -38.5466   59.3564   59.4810 C   0  0  0  0  0  0  0  0  0  0  0  0
  -39.6345   60.1320   60.2334 C   0  0  0  0  0  0  0  0  0  0  0  0
  -40.9998   59.4539   60.3264 C   0  0  0  0  0  0  0  0  0  0  0  0
  -41.1691   58.2546   59.3729 C   0  0  0  0  0  0  0  0  0  0  0  0
  -41.0655   56.8721   60.0348 C   0  0  0  0  0  0  0  0  0  0  0  0
  -41.0899   56.9902   61.5614 C   0  0  0  0  0  0  0  0  0  0  0  0
  -41.2759   55.6973   62.3356 C   0  0  0  0  0  0  0  0  0  0  0  0
  -38.9275   61.3513   64.4947 C   0  0  0  0  0  0  0  0  0  0  0  0
  -38.3013   62.1809   63.4833 O   0  0  0  0  0  0  0  0  0  0  0  0
  -36.8645   64.6363   63.1938 O   0  0  0  0  0  0  0  0  0  0  0  0
  -34.2307   62.8022   65.8581 O   0  0  0  0  0  0  0  0  0  0  0  0
  -36.1534   61.2465   64.1149 O   0  0  0  0  0  0  0  0  0  0  0  0
  -36.8326   62.3055   63.3973 C   0  0  0  0  0  0  0  0  0  0  0  0
  -36.2348   63.6220   63.9140 C   0  0  0  0  0  0  0  0  0  0  0  0
  -34.7113   63.7418   63.6899 C   0  0  0  0  0  0  0  0  0  0  0  0
  -34.0837   62.6085   64.4535 C   0  0  0  0  0  0  0  0  0  0  0  0
  -34.7040   61.2921   64.0215 C   0  0  0  0  0  0  0  0  0  0  0  0
  -37.8240   64.5767   63.3228 H   0  0  0  0  0  0  0  0  0  0  0  0
  -33.8282   63.6475   66.1118 H   0  0  0  0  0  0  0  0  0  0  0  0
  -32.8601   59.7821   64.2040 O   0  0  0  0  0  0  0  0  0  0  0  0
  -33.9505   60.3003   64.9050 C   0  0  0  0  0  0  0  0  0  0  0  0
  -32.3833   59.1525   64.7672 H   0  0  0  0  0  0  0  0  0  0  0  0
  -34.0908   64.9509   64.1827 O   0  0  0  0  0  0  0  0  0  0  0  0
  -34.6396   66.5608   62.2273 O   0  0  0  0  0  0  0  0  0  0  0  0
  -32.4043   65.6372   62.4262 O   0  0  0  0  0  0  0  0  0  0  0  0
  -33.1318   67.4016   63.9202 O   0  0  0  0  0  0  0  0  0  0  0  0
  -33.5631   66.1771   63.1879 S   0  0  0  0  0  0  0  0  0  0  0  0
  -34.9335   65.7750   61.7404 H   0  0  0  0  0  0  0  0  0  0  0  0
  -33.8818   67.7605   64.4199 H   0  0  0  0  0  0  0  0  0  0  0  0
  2  1  1  0  0  0
  2  4  1  0  0  0
  2  5  1  0  0  0
 41 42  1  0  0  0
 41  1  1  0  0  0
 42 46  1  0  0  0
  1 24  1  0  0  0
 23 24  1  0  0  0
 23 25  1  0  0  0
 24 26  1  0  0  0
  3  4  2  0  0  0
 26 27  2  0  0  0
 27 28  1  0  0  0
 43 47  1  0  0  0
 43 51  1  0  0  0
 28 29  1  0  0  0
 56 48  1  0  0  0
 56 60  1  0  0  0
 29 30  1  0  0  0
 57 60  1  0  0  0
 57 61  1  0  0  0
 30 31  1  0  0  0
 44 49  1  0  0  0
 44 52  1  0  0  0
 31 32  1  0  0  0
 45 46  1  0  0  0
 45 50  1  0  0  0
 32 33  1  0  0  0
 53 54  1  0  0  0
 53 55  1  0  0  0
 33 34  1  0  0  0
 34 35  1  0  0  0
 35 36  1  0  0  0
 58 60  1  0  0  0
 36 37  1  0  0  0
 59 60  1  0  0  0
 59 62  1  0  0  0
 37 38  1  0  0  0
 38 39  1  0  0  0
 39 40  1  0  0  0
  4  6  1  0  0  0
  6  7  1  0  0  0
  7  8  1  0  0  0
  8  9  1  0  0  0
  9 10  1  0  0  0
 10 11  1  0  0  0
 11 12  1  0  0  0
 12 13  1  0  0  0
 13 14  1  0  0  0
 14 15  1  0  0  0
 15 16  1  0  0  0
 16 17  1  0  0  0
 17 18  1  0  0  0
 18 19  1  0  0  0
 19 20  1  0  0  0
 20 21  1  0  0  0
 21 22  1  0  0  0
 46 47  1  0  0  0
 47 48  1  0  0  0
 48 49  1  0  0  0
 49 50  1  0  0  0
 50 54  1  0  0  0
M  CHG 1  58  -1
M  END
> <minimizedAffinity>
-8.76491

> <CNNscore>
0.2646391392

> <CNNaffinity>
7.1192255020

> <CNN_VS>
1.8840256929

> <CNNaffinity_variance>
1.1208856106

$$$$
/media/chris/experiments/cd1a-new-docking/inputs/ligands/1onq_ligand.pdb


 62 62  0  0  0  0  0  0  0  0999 V2000
  -39.8926   60.7420   64.8338 C   0  0  0  0  0  0  0  0  0  0  0  0
  -40.6141   59.5934   65.3449 N   0  0  0  0  0  0  0  0  0  0  0  0
  -42.2714   60.5704   66.5475 O   0  0  0  0  0  0  0  0  0  0  0  0
  -41.7010   59.5819   66.1285 C   0  0  0  0  0  0  0  0  0  0  0  0
  -40.2616   58.7120   65.0839 H   0  0  0  0  0  0  0  0  0  0  0  0
  -42.2191   58.2190   66.4805 C   0  0  0  0  0  0  0  0  0  0  0  0
  -42.6110   57.5508   65.1626 C   0  0  0  0  0  0  0  0  0  0  0  0
  -43.8751   58.2000   64.6044 C   0  0  0  0  0  0  0  0  0  0  0  0
  -45.0672   58.2346   65.5299 C   0  0  0  0  0  0  0  0  0  0  0  0
  -45.5540   59.6782   65.6003 C   0  0  0  0  0  0  0  0  0  0  0  0
  -46.9993   59.8411   65.1109 C   0  0  0  0  0  0  0  0  0  0  0  0
  -48.0663   59.5404   66.1795 C   0  0  0  0  0  0  0  0  0  0  0  0
  -49.5023   59.8363   65.6941 C   0  0  0  0  0  0  0  0  0  0  0  0
  -50.0727   58.6368   64.9319 C   0  0  0  0  0  0  0  0  0  0  0  0
  -50.6143   58.9535   63.5433 C   0  0  0  0  0  0  0  0  0  0  0  0
  -49.9302   60.1603   62.9182 C   0  0  0  0  0  0  0  0  0  0  0  0
  -49.7599   60.1223   61.3977 C   0  0  0  0  0  0  0  0  0  0  0  0
  -50.0090   58.6960   60.9266 C   0  0  0  0  0  0  0  0  0  0  0  0
  -49.8251   58.3726   59.4513 C   0  0  0  0  0  0  0  0  0  0  0  0
  -48.3701   57.9782   59.1520 C   0  0  0  0  0  0  0  0  0  0  0  0
  -48.0917   57.6361   57.6767 C   0  0  0  0  0  0  0  0  0  0  0  0
  -46.8745   58.3615   57.1078 C   0  0  0  0  0  0  0  0  0  0  0  0
  -41.6639   61.5758   63.5836 O   0  0  0  0  0  0  0  0  0  0  0  0
  -40.4427   60.8780   63.4244 C   0  0  0  0  0  0  0  0  0  0  0  0
  -41.4893   62.4503   63.9655 H   0  0  0  0  0  0  0  0  0  0  0  0
  -40.6484   59.4853   62.8239 C   0  0  0  0  0  0  0  0  0  0  0  0
  -41.2909   59.2769   61.6620 C   0  0  0  0  0  0  0  0  0  0  0  0
  -41.4561   57.8549   61.1291 C   0  0  0  0  0  0  0  0  0  0  0  0
  -40.5787   57.5427   59.9082 C   0  0  0  0  0  0  0  0  0  0  0  0
  -39.7986   58.7357   59.3253 C   0  0  0  0  0  0  0  0  0  0  0  0
  -38.2737   58.5275   59.4890 C   0  0  0  0  0  0  0  0  0  0  0  0
  -37.7175   58.7997   60.9095 C   0  0  0  0  0  0  0  0  0  0  0  0
  -37.6085   57.5391   61.7993 C   0  0  0  0  0  0  0  0  0  0  0  0
  -36.9635   57.8089   63.1760 C   0  0  0  0  0  0  0  0  0  0  0  0
  -35.5857   58.4767   63.0925 C   0  0  0  0  0  0  0  0  0  0  0  0
  -35.1580   59.2884   64.3134 C   0  0  0  0  0  0  0  0  0  0  0  0
  -33.6413   59.2558   64.5866 C   0  0  0  0  0  0  0  0  0  0  0  0
  -32.8120   58.4434   63.5804 C   0  0  0  0  0  0  0  0  0  0  0  0
  -31.6717   59.2853   63.0008 C   0  0  0  0  0  0  0  0  0  0  0  0
  -32.0590   60.3227   61.9620 C   0  0  0  0  0  0  0  0  0  0  0  0
  -38.3554   60.6831   64.9834 C   0  0  0  0  0  0  0  0  0  0  0  0
  -37.7461   61.6997   65.8192 O   0  0  0  0  0  0  0  0  0  0  0  0
  -35.4038   62.8650   66.9738 O   0  0  0  0  0  0  0  0  0  0  0  0
  -34.1184   62.9333   63.0061 O   0  0  0  0  0  0  0  0  0  0  0  0
  -37.0399   62.8180   63.7854 O   0  0  0  0  0  0  0  0  0  0  0  0
  -36.9649   62.8064   65.2317 C   0  0  0  0  0  0  0  0  0  0  0  0
  -35.4701   62.8381   65.5812 C   0  0  0  0  0  0  0  0  0  0  0  0
  -34.7318   64.0806   65.0364 C   0  0  0  0  0  0  0  0  0  0  0  0
  -34.8637   64.0251   63.5395 C   0  0  0  0  0  0  0  0  0  0  0  0
  -36.3287   63.9180   63.1564 C   0  0  0  0  0  0  0  0  0  0  0  0
  -35.8632   62.0906   67.3343 H   0  0  0  0  0  0  0  0  0  0  0  0
  -33.1871   63.0216   63.2625 H   0  0  0  0  0  0  0  0  0  0  0  0
  -36.0868   65.1572   61.1268 O   0  0  0  0  0  0  0  0  0  0  0  0
  -36.2380   63.8650   61.6329 C   0  0  0  0  0  0  0  0  0  0  0  0
  -36.0295   65.1208   60.1591 H   0  0  0  0  0  0  0  0  0  0  0  0
  -33.3144   64.1482   65.3128 O   0  0  0  0  0  0  0  0  0  0  0  0
  -33.3001   65.3976   67.5834 O   0  0  0  0  0  0  0  0  0  0  0  0
  -32.8385   66.6225   65.5400 O   0  0  0  0  0  0  0  0  0  0  0  0
  -31.1625   65.1467   66.4817 O   0  0  0  0  0  0  0  0  0  0  0  0
  -32.6234   65.3348   66.2541 S   0  0  0  0  0  0  0  0  0  0  0  0
  -34.2537   65.5201   67.4553 H   0  0  0  0  0  0  0  0  0  0  0  0
  -31.0129   64.3089   66.9471 H   0  0  0  0  0  0  0  0  0  0  0  0
  2  1  1  0  0  0
  2  4  1  0  0  0
  2  5  1  0  0  0
 41 42  1  0  0  0
 41  1  1  0  0  0
 42 46  1  0  0  0
  1 24  1  0  0  0
 23 24  1  0  0  0
 23 25  1  0  0  0
 24 26  1  0  0  0
  3  4  2  0  0  0
 26 27  2  0  0  0
 27 28  1  0  0  0
 43 47  1  0  0  0
 43 51  1  0  0  0
 28 29  1  0  0  0
 56 48  1  0  0  0
 56 60  1  0  0  0
 29 30  1  0  0  0
 57 60  1  0  0  0
 57 61  1  0  0  0
 30 31  1  0  0  0
 44 49  1  0  0  0
 44 52  1  0  0  0
 31 32  1  0  0  0
 45 46  1  0  0  0
 45 50  1  0  0  0
 32 33  1  0  0  0
 53 54  1  0  0  0
 53 55  1  0  0  0
 33 34  1  0  0  0
 34 35  1  0  0  0
 35 36  1  0  0  0
 58 60  1  0  0  0
 36 37  1  0  0  0
 59 60  1  0  0  0
 59 62  1  0  0  0
 37 38  1  0  0  0
 38 39  1  0  0  0
 39 40  1  0  0  0
  4  6  1  0  0  0
  6  7  1  0  0  0
  7  8  1  0  0  0
  8  9  1  0  0  0
  9 10  1  0  0  0
 10 11  1  0  0  0
 11 12  1  0  0  0
 12 13  1  0  0  0
 13 14  1  0  0  0
 14 15  1  0  0  0
 15 16  1  0  0  0
 16 17  1  0  0  0
 17 18  1  0  0  0
 18 19  1  0  0  0
 19 20  1  0  0  0
 20 21  1  0  0  0
 21 22  1  0  0  0
 46 47  1  0  0  0
 47 48  1  0  0  0
 48 49  1  0  0  0
 49 50  1  0  0  0
 50 54  1  0  0  0
M  CHG 1  58  -1
M  END
> <minimizedAffinity>
-9.24792

> <CNNscore>
0.2640283108

> <CNNaffinity>
7.0058565140

> <CNN_VS>
1.8497444391

> <CNNaffinity_variance>
1.7220039368

$$$$
/media/chris/experiments/cd1a-new-docking/inputs/ligands/1onq_ligand.pdb


 62 62  0  0  0  0  0  0  0  0999 V2000
  -41.6571   60.1554   65.1687 C   0  0  0  0  0  0  0  0  0  0  0  0
  -41.8277   58.7970   64.6925 N   0  0  0  0  0  0  0  0  0  0  0  0
  -42.3418   57.6855   66.6024 O   0  0  0  0  0  0  0  0  0  0  0  0
  -42.1429   57.7057   65.4032 C   0  0  0  0  0  0  0  0  0  0  0  0
  -41.6957   58.6591   63.7267 H   0  0  0  0  0  0  0  0  0  0  0  0
  -42.2543   56.4379   64.6094 C   0  0  0  0  0  0  0  0  0  0  0  0
  -42.1025   56.8318   63.1402 C   0  0  0  0  0  0  0  0  0  0  0  0
  -41.3447   55.7432   62.3840 C   0  0  0  0  0  0  0  0  0  0  0  0
  -40.9494   56.0736   60.9651 C   0  0  0  0  0  0  0  0  0  0  0  0
  -41.7736   57.2794   60.5260 C   0  0  0  0  0  0  0  0  0  0  0  0
  -41.0334   58.1679   59.5173 C   0  0  0  0  0  0  0  0  0  0  0  0
  -40.6989   59.5763   60.0417 C   0  0  0  0  0  0  0  0  0  0  0  0
  -39.1879   59.8922   59.9924 C   0  0  0  0  0  0  0  0  0  0  0  0
  -38.3679   58.6004   59.9298 C   0  0  0  0  0  0  0  0  0  0  0  0
  -37.3297   58.4414   61.0339 C   0  0  0  0  0  0  0  0  0  0  0  0
  -37.7527   57.4222   62.0815 C   0  0  0  0  0  0  0  0  0  0  0  0
  -38.6058   57.9583   63.2335 C   0  0  0  0  0  0  0  0  0  0  0  0
  -37.7017   58.1574   64.4424 C   0  0  0  0  0  0  0  0  0  0  0  0
  -36.3039   57.5571   64.4144 C   0  0  0  0  0  0  0  0  0  0  0  0
  -35.2348   58.6437   64.6102 C   0  0  0  0  0  0  0  0  0  0  0  0
  -34.4820   59.0377   63.3260 C   0  0  0  0  0  0  0  0  0  0  0  0
  -33.8865   57.8432   62.5843 C   0  0  0  0  0  0  0  0  0  0  0  0
  -42.3312   62.3007   64.5864 O   0  0  0  0  0  0  0  0  0  0  0  0
  -42.3621   60.9720   64.0993 C   0  0  0  0  0  0  0  0  0  0  0  0
  -41.4099   62.5890   64.6812 H   0  0  0  0  0  0  0  0  0  0  0  0
  -43.7919   60.4543   63.9264 C   0  0  0  0  0  0  0  0  0  0  0  0
  -44.8374   60.9496   64.6103 C   0  0  0  0  0  0  0  0  0  0  0  0
  -46.2352   60.3778   64.3817 C   0  0  0  0  0  0  0  0  0  0  0  0
  -46.9267   59.8945   65.6648 C   0  0  0  0  0  0  0  0  0  0  0  0
  -48.4658   59.8663   65.6224 C   0  0  0  0  0  0  0  0  0  0  0  0
  -49.0050   60.8719   64.5765 C   0  0  0  0  0  0  0  0  0  0  0  0
  -50.2431   60.3942   63.7764 C   0  0  0  0  0  0  0  0  0  0  0  0
  -50.4362   58.8594   63.7648 C   0  0  0  0  0  0  0  0  0  0  0  0
  -50.3028   58.2309   62.3608 C   0  0  0  0  0  0  0  0  0  0  0  0
  -49.3020   58.9549   61.4523 C   0  0  0  0  0  0  0  0  0  0  0  0
  -49.6680   59.0240   59.9712 C   0  0  0  0  0  0  0  0  0  0  0  0
  -49.2742   57.7674   59.1700 C   0  0  0  0  0  0  0  0  0  0  0  0
  -47.8693   57.2185   59.4615 C   0  0  0  0  0  0  0  0  0  0  0  0
  -47.0652   57.0511   58.1691 C   0  0  0  0  0  0  0  0  0  0  0  0
  -47.0517   58.2391   57.2236 C   0  0  0  0  0  0  0  0  0  0  0  0
  -40.2072   60.5612   65.5180 C   0  0  0  0  0  0  0  0  0  0  0  0
  -39.4499   61.2236   64.4735 O   0  0  0  0  0  0  0  0  0  0  0  0
  -37.6363   61.6985   62.3142 O   0  0  0  0  0  0  0  0  0  0  0  0
  -35.9951   64.4478   64.9876 O   0  0  0  0  0  0  0  0  0  0  0  0
  -37.6705   62.0901   65.8765 O   0  0  0  0  0  0  0  0  0  0  0  0
  -37.9996   61.4621   64.6136 C   0  0  0  0  0  0  0  0  0  0  0  0
  -37.3489   62.3275   63.5249 C   0  0  0  0  0  0  0  0  0  0  0  0
  -35.8146   62.4434   63.6591 C   0  0  0  0  0  0  0  0  0  0  0  0
  -35.5569   63.0913   64.9915 C   0  0  0  0  0  0  0  0  0  0  0  0
  -36.2488   62.3028   66.0886 C   0  0  0  0  0  0  0  0  0  0  0  0
  -38.5975   61.6167   62.2125 H   0  0  0  0  0  0  0  0  0  0  0  0
  -35.5413   64.9322   64.2803 H   0  0  0  0  0  0  0  0  0  0  0  0
  -34.4890   63.2477   67.4014 O   0  0  0  0  0  0  0  0  0  0  0  0
  -35.8768   63.1180   67.3252 C   0  0  0  0  0  0  0  0  0  0  0  0
  -34.2553   63.7658   68.1875 H   0  0  0  0  0  0  0  0  0  0  0  0
  -35.1525   63.2703   62.6753 O   0  0  0  0  0  0  0  0  0  0  0  0
  -32.8882   62.0765   63.0810 O   0  0  0  0  0  0  0  0  0  0  0  0
  -32.9938   64.4998   63.1542 O   0  0  0  0  0  0  0  0  0  0  0  0
  -33.0843   63.3392   61.0284 O   0  0  0  0  0  0  0  0  0  0  0  0
  -33.5019   63.2865   62.4582 S   0  0  0  0  0  0  0  0  0  0  0  0
  -33.1493   62.0252   64.0137 H   0  0  0  0  0  0  0  0  0  0  0  0
  -33.4116   62.5514   60.5667 H   0  0  0  0  0  0  0  0  0  0  0  0
  2  1  1  0  0  0
  2  4  1  0  0  0
  2  5  1  0  0  0
 41 42  1  0  0  0
 41  1  1  0  0  0
 42 46  1  0  0  0
  1 24  1  0  0  0
 23 24  1  0  0  0
 23 25  1  0  0  0
 24 26  1  0  0  0
  3  4  2  0  0  0
 26 27  2  0  0  0
 27 28  1  0  0  0
 43 47  1  0  0  0
 43 51  1  0  0  0
 28 29  1  0  0  0
 56 48  1  0  0  0
 56 60  1  0  0  0
 29 30  1  0  0  0
 57 60  1  0  0  0
 57 61  1  0  0  0
 30 31  1  0  0  0
 44 49  1  0  0  0
 44 52  1  0  0  0
 31 32  1  0  0  0
 45 46  1  0  0  0
 45 50  1  0  0  0
 32 33  1  0  0  0
 53 54  1  0  0  0
 53 55  1  0  0  0
 33 34  1  0  0  0
 34 35  1  0  0  0
 35 36  1  0  0  0
 58 60  1  0  0  0
 36 37  1  0  0  0
 59 60  1  0  0  0
 59 62  1  0  0  0
 37 38  1  0  0  0
 38 39  1  0  0  0
 39 40  1  0  0  0
  4  6  1  0  0  0
  6  7  1  0  0  0
  7  8  1  0  0  0
  8  9  1  0  0  0
  9 10  1  0  0  0
 10 11  1  0  0  0
 11 12  1  0  0  0
 12 13  1  0  0  0
 13 14  1  0  0  0
 14 15  1  0  0  0
 15 16  1  0  0  0
 16 17  1  0  0  0
 17 18  1  0  0  0
 18 19  1  0  0  0
 19 20  1  0  0  0
 20 21  1  0  0  0
 21 22  1  0  0  0
 46 47  1  0  0  0
 47 48  1  0  0  0
 48 49  1  0  0  0
 49 50  1  0  0  0
 50 54  1  0  0  0
M  CHG 1  58  -1
M  END
> <minimizedAffinity>
-9.47233

> <CNNscore>
0.2629595399

> <CNNaffinity>
7.2230939865

> <CNN_VS>
1.8993815184

> <CNNaffinity_variance>
2.2077126503

$$$$
/media/chris/experiments/cd1a-new-docking/inputs/ligands/1onq_ligand.pdb


 62 62  0  0  0  0  0  0  0  0999 V2000
  -41.2343   59.9990   63.7380 C   0  0  0  0  0  0  0  0  0  0  0  0
  -40.9367   59.9837   62.3195 N   0  0  0  0  0  0  0  0  0  0  0  0
  -41.9855   58.0920   61.6348 O   0  0  0  0  0  0  0  0  0  0  0  0
  -41.3120   59.0779   61.4061 C   0  0  0  0  0  0  0  0  0  0  0  0
  -40.3908   60.7318   61.9855 H   0  0  0  0  0  0  0  0  0  0  0  0
  -40.8459   59.3521   60.0071 C   0  0  0  0  0  0  0  0  0  0  0  0
  -40.1762   58.0693   59.5143 C   0  0  0  0  0  0  0  0  0  0  0  0
  -39.0095   57.7054   60.4296 C   0  0  0  0  0  0  0  0  0  0  0  0
  -37.8408   58.6608   60.4263 C   0  0  0  0  0  0  0  0  0  0  0  0
  -37.0301   58.4014   61.6919 C   0  0  0  0  0  0  0  0  0  0  0  0
  -37.8842   57.8460   62.8395 C   0  0  0  0  0  0  0  0  0  0  0  0
  -37.2365   57.9772   64.2302 C   0  0  0  0  0  0  0  0  0  0  0  0
  -35.7303   57.6356   64.2258 C   0  0  0  0  0  0  0  0  0  0  0  0
  -34.9020   58.8408   64.6804 C   0  0  0  0  0  0  0  0  0  0  0  0
  -33.3924   58.6630   64.5732 C   0  0  0  0  0  0  0  0  0  0  0  0
  -32.8968   58.7872   63.1400 C   0  0  0  0  0  0  0  0  0  0  0  0
  -31.5205   59.4317   62.9592 C   0  0  0  0  0  0  0  0  0  0  0  0
  -31.6608   60.5852   61.9753 C   0  0  0  0  0  0  0  0  0  0  0  0
  -30.4293   61.0434   61.2082 C   0  0  0  0  0  0  0  0  0  0  0  0
  -29.1427   60.5463   61.8862 C   0  0  0  0  0  0  0  0  0  0  0  0
  -28.1882   61.6651   62.3427 C   0  0  0  0  0  0  0  0  0  0  0  0
  -28.8109   63.0574   62.2699 C   0  0  0  0  0  0  0  0  0  0  0  0
  -42.1977   62.0547   64.2300 O   0  0  0  0  0  0  0  0  0  0  0  0
  -42.5504   60.7556   63.7919 C   0  0  0  0  0  0  0  0  0  0  0  0
  -41.5984   62.4618   63.5849 H   0  0  0  0  0  0  0  0  0  0  0  0
  -43.4982   60.0553   64.7685 C   0  0  0  0  0  0  0  0  0  0  0  0
  -44.6793   60.5760   65.1426 C   0  0  0  0  0  0  0  0  0  0  0  0
  -45.5693   59.8148   66.1234 C   0  0  0  0  0  0  0  0  0  0  0  0
  -47.0466   59.7593   65.7080 C   0  0  0  0  0  0  0  0  0  0  0  0
  -47.3126   59.7511   64.1912 C   0  0  0  0  0  0  0  0  0  0  0  0
  -48.4112   60.7765   63.8207 C   0  0  0  0  0  0  0  0  0  0  0  0
  -49.2496   60.4236   62.5662 C   0  0  0  0  0  0  0  0  0  0  0  0
  -50.6585   59.8682   62.8815 C   0  0  0  0  0  0  0  0  0  0  0  0
  -50.7576   58.3320   62.7619 C   0  0  0  0  0  0  0  0  0  0  0  0
  -49.9403   57.7485   61.6031 C   0  0  0  0  0  0  0  0  0  0  0  0
  -50.3292   58.2194   60.2033 C   0  0  0  0  0  0  0  0  0  0  0  0
  -49.4548   57.6295   59.0792 C   0  0  0  0  0  0  0  0  0  0  0  0
  -47.9568   57.5225   59.4026 C   0  0  0  0  0  0  0  0  0  0  0  0
  -47.1425   57.2179   58.1420 C   0  0  0  0  0  0  0  0  0  0  0  0
  -47.0121   58.3456   57.1337 C   0  0  0  0  0  0  0  0  0  0  0  0
  -40.0959   60.5073   64.6516 C   0  0  0  0  0  0  0  0  0  0  0  0
  -39.2743   61.5811   64.1270 O   0  0  0  0  0  0  0  0  0  0  0  0
  -37.2649   61.8362   62.1084 O   0  0  0  0  0  0  0  0  0  0  0  0
  -35.4662   64.3046   64.9493 O   0  0  0  0  0  0  0  0  0  0  0  0
  -37.4995   62.1822   65.6679 O   0  0  0  0  0  0  0  0  0  0  0  0
  -37.8187   61.6207   64.3716 C   0  0  0  0  0  0  0  0  0  0  0  0
  -36.9830   62.4050   63.3499 C   0  0  0  0  0  0  0  0  0  0  0  0
  -35.4603   62.3118   63.5915 C   0  0  0  0  0  0  0  0  0  0  0  0
  -35.2139   62.9016   64.9527 C   0  0  0  0  0  0  0  0  0  0  0  0
  -36.0808   62.1990   65.9818 C   0  0  0  0  0  0  0  0  0  0  0  0
  -38.2188   61.8858   61.9392 H   0  0  0  0  0  0  0  0  0  0  0  0
  -34.9029   64.7329   64.2859 H   0  0  0  0  0  0  0  0  0  0  0  0
  -36.4874   64.0791   67.4008 O   0  0  0  0  0  0  0  0  0  0  0  0
  -35.6923   62.9405   67.2590 C   0  0  0  0  0  0  0  0  0  0  0  0
  -36.2387   64.5481   68.2125 H   0  0  0  0  0  0  0  0  0  0  0  0
  -34.6258   63.0550   62.6744 O   0  0  0  0  0  0  0  0  0  0  0  0
  -35.6793   63.8577   60.4466 O   0  0  0  0  0  0  0  0  0  0  0  0
  -34.0168   65.2384   61.5507 O   0  0  0  0  0  0  0  0  0  0  0  0
  -36.2724   65.1100   62.4282 O   0  0  0  0  0  0  0  0  0  0  0  0
  -35.1809   64.3376   61.7696 S   0  0  0  0  0  0  0  0  0  0  0  0
  -34.9812   63.3518   60.0022 H   0  0  0  0  0  0  0  0  0  0  0  0
  -37.0359   64.5299   62.5748 H   0  0  0  0  0  0  0  0  0  0  0  0
  2  1  1  0  0  0
  2  4  1  0  0  0
  2  5  1  0  0  0
 41 42  1  0  0  0
 41  1  1  0  0  0
 42 46  1  0  0  0
  1 24  1  0  0  0
 23 24  1  0  0  0
 23 25  1  0  0  0
 24 26  1  0  0  0
  3  4  2  0  0  0
 26 27  2  0  0  0
 27 28  1  0  0  0
 43 47  1  0  0  0
 43 51  1  0  0  0
 28 29  1  0  0  0
 56 48  1  0  0  0
 56 60  1  0  0  0
 29 30  1  0  0  0
 57 60  1  0  0  0
 57 61  1  0  0  0
 30 31  1  0  0  0
 44 49  1  0  0  0
 44 52  1  0  0  0
 31 32  1  0  0  0
 45 46  1  0  0  0
 45 50  1  0  0  0
 32 33  1  0  0  0
 53 54  1  0  0  0
 53 55  1  0  0  0
 33 34  1  0  0  0
 34 35  1  0  0  0
 35 36  1  0  0  0
 58 60  1  0  0  0
 36 37  1  0  0  0
 59 60  1  0  0  0
 59 62  1  0  0  0
 37 38  1  0  0  0
 38 39  1  0  0  0
 39 40  1  0  0  0
  4  6  1  0  0  0
  6  7  1  0  0  0
  7  8  1  0  0  0
  8  9  1  0  0  0
  9 10  1  0  0  0
 10 11  1  0  0  0
 11 12  1  0  0  0
 12 13  1  0  0  0
 13 14  1  0  0  0
 14 15  1  0  0  0
 15 16  1  0  0  0
 16 17  1  0  0  0
 17 18  1  0  0  0
 18 19  1  0  0  0
 19 20  1  0  0  0
 20 21  1  0  0  0
 21 22  1  0  0  0
 46 47  1  0  0  0
 47 48  1  0  0  0
 48 49  1  0  0  0
 49 50  1  0  0  0
 50 54  1  0  0  0
M  CHG 1  58  -1
M  END
> <minimizedAffinity>
-9.81997

> <CNNscore>
0.2212059498

> <CNNaffinity>
6.8186569214

> <CNN_VS>
1.5083274841

> <CNNaffinity_variance>
1.1572049856

$$$$
/media/chris/experiments/cd1a-new-docking/inputs/ligands/1onq_ligand.pdb


 62 62  0  0  0  0  0  0  0  0999 V2000
  -41.2371   60.2654   64.1899 C   0  0  0  0  0  0  0  0  0  0  0  0
  -41.8049   59.1284   64.8868 N   0  0  0  0  0  0  0  0  0  0  0  0
  -41.7651   59.8262   67.0452 O   0  0  0  0  0  0  0  0  0  0  0  0
  -42.0213   58.9890   66.2018 C   0  0  0  0  0  0  0  0  0  0  0  0
  -42.0638   58.3633   64.3240 H   0  0  0  0  0  0  0  0  0  0  0  0
  -42.6362   57.6839   66.6122 C   0  0  0  0  0  0  0  0  0  0  0  0
  -43.4375   57.1853   65.4096 C   0  0  0  0  0  0  0  0  0  0  0  0
  -44.8481   57.7684   65.4449 C   0  0  0  0  0  0  0  0  0  0  0  0
  -45.5997   57.6086   66.7442 C   0  0  0  0  0  0  0  0  0  0  0  0
  -46.4514   58.8584   66.9405 C   0  0  0  0  0  0  0  0  0  0  0  0
  -47.6093   58.9503   65.9377 C   0  0  0  0  0  0  0  0  0  0  0  0
  -48.5814   60.1153   66.1995 C   0  0  0  0  0  0  0  0  0  0  0  0
  -49.3254   60.5743   64.9263 C   0  0  0  0  0  0  0  0  0  0  0  0
  -50.7347   59.9771   64.8794 C   0  0  0  0  0  0  0  0  0  0  0  0
  -51.4709   60.1645   63.5585 C   0  0  0  0  0  0  0  0  0  0  0  0
  -50.6328   59.7328   62.3642 C   0  0  0  0  0  0  0  0  0  0  0  0
  -50.5910   58.2292   62.0820 C   0  0  0  0  0  0  0  0  0  0  0  0
  -49.2196   57.8897   61.5141 C   0  0  0  0  0  0  0  0  0  0  0  0
  -49.1362   56.9421   60.3266 C   0  0  0  0  0  0  0  0  0  0  0  0
  -47.9065   57.2544   59.4592 C   0  0  0  0  0  0  0  0  0  0  0  0
  -48.2212   58.0034   58.1511 C   0  0  0  0  0  0  0  0  0  0  0  0
  -47.0044   58.1730   57.2444 C   0  0  0  0  0  0  0  0  0  0  0  0
  -43.3445   60.1607   63.2184 O   0  0  0  0  0  0  0  0  0  0  0  0
  -41.9767   60.2436   62.8632 C   0  0  0  0  0  0  0  0  0  0  0  0
  -43.5931   60.9447   63.7327 H   0  0  0  0  0  0  0  0  0  0  0  0
  -41.5184   59.0327   62.0471 C   0  0  0  0  0  0  0  0  0  0  0  0
  -41.5905   58.9843   60.7060 C   0  0  0  0  0  0  0  0  0  0  0  0
  -41.1130   57.7377   59.9634 C   0  0  0  0  0  0  0  0  0  0  0  0
  -39.9727   58.0045   58.9701 C   0  0  0  0  0  0  0  0  0  0  0  0
  -39.0543   59.1921   59.3129 C   0  0  0  0  0  0  0  0  0  0  0  0
  -37.6594   58.6955   59.7637 C   0  0  0  0  0  0  0  0  0  0  0  0
  -37.3936   58.7645   61.2888 C   0  0  0  0  0  0  0  0  0  0  0  0
  -37.9435   57.5562   62.0829 C   0  0  0  0  0  0  0  0  0  0  0  0
  -37.5879   57.5911   63.5851 C   0  0  0  0  0  0  0  0  0  0  0  0
  -36.3110   58.3797   63.8995 C   0  0  0  0  0  0  0  0  0  0  0  0
  -35.2119   57.6132   64.6322 C   0  0  0  0  0  0  0  0  0  0  0  0
  -33.9112   58.4173   64.8267 C   0  0  0  0  0  0  0  0  0  0  0  0
  -33.7140   59.5890   63.8530 C   0  0  0  0  0  0  0  0  0  0  0  0
  -32.8873   59.1606   62.6372 C   0  0  0  0  0  0  0  0  0  0  0  0
  -31.6966   60.0356   62.2882 C   0  0  0  0  0  0  0  0  0  0  0  0
  -39.6931   60.3067   64.1307 C   0  0  0  0  0  0  0  0  0  0  0  0
  -39.0769   61.6181   64.1933 O   0  0  0  0  0  0  0  0  0  0  0  0
  -37.0771   61.9775   62.1811 O   0  0  0  0  0  0  0  0  0  0  0  0
  -35.4907   64.6390   64.9738 O   0  0  0  0  0  0  0  0  0  0  0  0
  -37.3642   62.3864   65.7301 O   0  0  0  0  0  0  0  0  0  0  0  0
  -37.6304   61.7728   64.4454 C   0  0  0  0  0  0  0  0  0  0  0  0
  -36.8482   62.5942   63.4106 C   0  0  0  0  0  0  0  0  0  0  0  0
  -35.3248   62.6216   63.6632 C   0  0  0  0  0  0  0  0  0  0  0  0
  -35.1337   63.2594   65.0116 C   0  0  0  0  0  0  0  0  0  0  0  0
  -35.9532   62.5173   66.0518 C   0  0  0  0  0  0  0  0  0  0  0  0
  -38.0307   61.9511   62.0052 H   0  0  0  0  0  0  0  0  0  0  0  0
  -34.9562   65.0931   64.3038 H   0  0  0  0  0  0  0  0  0  0  0  0
  -36.3009   62.7580   68.4044 O   0  0  0  0  0  0  0  0  0  0  0  0
  -35.6312   63.3151   67.3135 C   0  0  0  0  0  0  0  0  0  0  0  0
  -36.0948   63.2664   69.2043 H   0  0  0  0  0  0  0  0  0  0  0  0
  -34.5415   63.4043   62.7338 O   0  0  0  0  0  0  0  0  0  0  0  0
  -35.5906   63.8519   60.4066 O   0  0  0  0  0  0  0  0  0  0  0  0
  -34.1511   65.5265   61.4129 O   0  0  0  0  0  0  0  0  0  0  0  0
  -36.4095   65.2083   62.2330 O   0  0  0  0  0  0  0  0  0  0  0  0
  -35.2077   64.5153   61.6880 S   0  0  0  0  0  0  0  0  0  0  0  0
  -34.8195   63.3947   60.0362 H   0  0  0  0  0  0  0  0  0  0  0  0
  -37.1040   64.5560   62.4153 H   0  0  0  0  0  0  0  0  0  0  0  0
  2  1  1  0  0  0
  2  4  1  0  0  0
  2  5  1  0  0  0
 41 42  1  0  0  0
 41  1  1  0  0  0
 42 46  1  0  0  0
  1 24  1  0  0  0
 23 24  1  0  0  0
 23 25  1  0  0  0
 24 26  1  0  0  0
  3  4  2  0  0  0
 26 27  2  0  0  0
 27 28  1  0  0  0
 43 47  1  0  0  0
 43 51  1  0  0  0
 28 29  1  0  0  0
 56 48  1  0  0  0
 56 60  1  0  0  0
 29 30  1  0  0  0
 57 60  1  0  0  0
 57 61  1  0  0  0
 30 31  1  0  0  0
 44 49  1  0  0  0
 44 52  1  0  0  0
 31 32  1  0  0  0
 45 46  1  0  0  0
 45 50  1  0  0  0
 32 33  1  0  0  0
 53 54  1  0  0  0
 53 55  1  0  0  0
 33 34  1  0  0  0
 34 35  1  0  0  0
 35 36  1  0  0  0
 58 60  1  0  0  0
 36 37  1  0  0  0
 59 60  1  0  0  0
 59 62  1  0  0  0
 37 38  1  0  0  0
 38 39  1  0  0  0
 39 40  1  0  0  0
  4  6  1  0  0  0
  6  7  1  0  0  0
  7  8  1  0  0  0
  8  9  1  0  0  0
  9 10  1  0  0  0
 10 11  1  0  0  0
 11 12  1  0  0  0
 12 13  1  0  0  0
 13 14  1  0  0  0
 14 15  1  0  0  0
 15 16  1  0  0  0
 16 17  1  0  0  0
 17 18  1  0  0  0
 18 19  1  0  0  0
 19 20  1  0  0  0
 20 21  1  0  0  0
 21 22  1  0  0  0
 46 47  1  0  0  0
 47 48  1  0  0  0
 48 49  1  0  0  0
 49 50  1  0  0  0
 50 54  1  0  0  0
M  CHG 1  58  -1
M  END
> <minimizedAffinity>
-9.41414

> <CNNscore>
0.2089423388

> <CNNaffinity>
7.0648546219

> <CNN_VS>
1.4761472940

> <CNNaffinity_variance>
1.4943969250

$$$$
/media/chris/experiments/cd1a-new-docking/inputs/ligands/1onq_ligand.pdb


 62 62  0  0  0  0  0  0  0  0999 V2000
  -34.7833   62.4429   65.0572 C   0  0  0  0  0  0  0  0  0  0  0  0
  -35.8273   61.5535   65.5264 N   0  0  0  0  0  0  0  0  0  0  0  0
  -37.6983   62.7837   65.1613 O   0  0  0  0  0  0  0  0  0  0  0  0
  -37.1495   61.7699   65.5472 C   0  0  0  0  0  0  0  0  0  0  0  0
  -35.5276   60.6821   65.8728 H   0  0  0  0  0  0  0  0  0  0  0  0
  -37.9722   60.6396   66.0908 C   0  0  0  0  0  0  0  0  0  0  0  0
  -39.0010   60.2954   65.0136 C   0  0  0  0  0  0  0  0  0  0  0  0
  -40.3874   60.1645   65.6395 C   0  0  0  0  0  0  0  0  0  0  0  0
  -41.5556   60.4730   64.7347 C   0  0  0  0  0  0  0  0  0  0  0  0
  -42.7901   60.6359   65.6154 C   0  0  0  0  0  0  0  0  0  0  0  0
  -43.9963   59.8405   65.0983 C   0  0  0  0  0  0  0  0  0  0  0  0
  -45.2575   60.6902   64.8572 C   0  0  0  0  0  0  0  0  0  0  0  0
  -46.5449   59.8418   64.7669 C   0  0  0  0  0  0  0  0  0  0  0  0
  -47.3667   59.9688   66.0529 C   0  0  0  0  0  0  0  0  0  0  0  0
  -48.8744   59.8468   65.8694 C   0  0  0  0  0  0  0  0  0  0  0  0
  -49.3692   60.5974   64.6417 C   0  0  0  0  0  0  0  0  0  0  0  0
  -50.8733   60.5213   64.3696 C   0  0  0  0  0  0  0  0  0  0  0  0
  -51.0741   60.0370   62.9400 C   0  0  0  0  0  0  0  0  0  0  0  0
  -49.8481   59.8082   62.0685 C   0  0  0  0  0  0  0  0  0  0  0  0
  -49.6216   58.3084   61.8208 C   0  0  0  0  0  0  0  0  0  0  0  0
  -50.5363   57.6935   60.7455 C   0  0  0  0  0  0  0  0  0  0  0  0
  -50.2118   58.1706   59.3317 C   0  0  0  0  0  0  0  0  0  0  0  0
  -34.5930   62.5232   62.7435 O   0  0  0  0  0  0  0  0  0  0  0  0
  -34.2411   61.7061   63.8445 C   0  0  0  0  0  0  0  0  0  0  0  0
  -34.1651   63.3891   62.8337 H   0  0  0  0  0  0  0  0  0  0  0  0
  -34.8856   60.3203   63.7633 C   0  0  0  0  0  0  0  0  0  0  0  0
  -34.2050   59.2160   63.4117 C   0  0  0  0  0  0  0  0  0  0  0  0
  -34.9210   57.8680   63.3532 C   0  0  0  0  0  0  0  0  0  0  0  0
  -36.3502   57.8984   63.9140 C   0  0  0  0  0  0  0  0  0  0  0  0
  -37.4713   57.6129   62.8975 C   0  0  0  0  0  0  0  0  0  0  0  0
  -37.1666   58.2898   61.5393 C   0  0  0  0  0  0  0  0  0  0  0  0
  -38.1956   59.3561   61.0859 C   0  0  0  0  0  0  0  0  0  0  0  0
  -38.4648   59.3691   59.5627 C   0  0  0  0  0  0  0  0  0  0  0  0
  -39.4881   58.3062   59.1074 C   0  0  0  0  0  0  0  0  0  0  0  0
  -40.9311   58.6215   59.5193 C   0  0  0  0  0  0  0  0  0  0  0  0
  -41.5656   57.6656   60.5273 C   0  0  0  0  0  0  0  0  0  0  0  0
  -40.9049   57.6955   61.9197 C   0  0  0  0  0  0  0  0  0  0  0  0
  -41.1335   56.4434   62.7799 C   0  0  0  0  0  0  0  0  0  0  0  0
  -41.4610   56.8227   64.2270 C   0  0  0  0  0  0  0  0  0  0  0  0
  -42.8694   56.5147   64.7035 C   0  0  0  0  0  0  0  0  0  0  0  0
  -33.7569   62.8861   66.1245 C   0  0  0  0  0  0  0  0  0  0  0  0
  -33.4768   64.3068   66.2039 O   0  0  0  0  0  0  0  0  0  0  0  0
  -30.8625   64.3725   65.0470 O   0  0  0  0  0  0  0  0  0  0  0  0
  -33.0127   64.3134   61.4731 O   0  0  0  0  0  0  0  0  0  0  0  0
  -34.2025   65.2538   64.0915 O   0  0  0  0  0  0  0  0  0  0  0  0
  -33.0927   65.0794   65.0057 C   0  0  0  0  0  0  0  0  0  0  0  0
  -31.9397   64.5033   64.1714 C   0  0  0  0  0  0  0  0  0  0  0  0
  -31.5058   65.4131   63.0011 C   0  0  0  0  0  0  0  0  0  0  0  0
  -32.7082   65.5524   62.1088 C   0  0  0  0  0  0  0  0  0  0  0  0
  -33.8926   66.0510   62.9168 C   0  0  0  0  0  0  0  0  0  0  0  0
  -31.1171   63.8032   65.7899 H   0  0  0  0  0  0  0  0  0  0  0  0
  -32.2437   64.0138   60.9635 H   0  0  0  0  0  0  0  0  0  0  0  0
  -35.8933   65.0717   62.0497 O   0  0  0  0  0  0  0  0  0  0  0  0
  -34.9821   66.1099   61.8483 C   0  0  0  0  0  0  0  0  0  0  0  0
  -36.5841   65.1113   61.3699 H   0  0  0  0  0  0  0  0  0  0  0  0
  -30.4411   64.9064   62.1646 O   0  0  0  0  0  0  0  0  0  0  0  0
  -30.6615   65.2646   59.6073 O   0  0  0  0  0  0  0  0  0  0  0  0
  -28.4644   65.3057   60.6369 O   0  0  0  0  0  0  0  0  0  0  0  0
  -29.9720   67.1843   60.9056 O   0  0  0  0  0  0  0  0  0  0  0  0
  -29.8892   65.6993   60.8088 S   0  0  0  0  0  0  0  0  0  0  0  0
  -30.6190   64.2989   59.5276 H   0  0  0  0  0  0  0  0  0  0  0  0
  -30.8982   67.4499   61.0179 H   0  0  0  0  0  0  0  0  0  0  0  0
  2  1  1  0  0  0
  2  4  1  0  0  0
  2  5  1  0  0  0
 41 42  1  0  0  0
 41  1  1  0  0  0
 42 46  1  0  0  0
  1 24  1  0  0  0
 23 24  1  0  0  0
 23 25  1  0  0  0
 24 26  1  0  0  0
  3  4  2  0  0  0
 26 27  2  0  0  0
 27 28  1  0  0  0
 43 47  1  0  0  0
 43 51  1  0  0  0
 28 29  1  0  0  0
 56 48  1  0  0  0
 56 60  1  0  0  0
 29 30  1  0  0  0
 57 60  1  0  0  0
 57 61  1  0  0  0
 30 31  1  0  0  0
 44 49  1  0  0  0
 44 52  1  0  0  0
 31 32  1  0  0  0
 45 46  1  0  0  0
 45 50  1  0  0  0
 32 33  1  0  0  0
 53 54  1  0  0  0
 53 55  1  0  0  0
 33 34  1  0  0  0
 34 35  1  0  0  0
 35 36  1  0  0  0
 58 60  1  0  0  0
 36 37  1  0  0  0
 59 60  1  0  0  0
 59 62  1  0  0  0
 37 38  1  0  0  0
 38 39  1  0  0  0
 39 40  1  0  0  0
  4  6  1  0  0  0
  6  7  1  0  0  0
  7  8  1  0  0  0
  8  9  1  0  0  0
  9 10  1  0  0  0
 10 11  1  0  0  0
 11 12  1  0  0  0
 12 13  1  0  0  0
 13 14  1  0  0  0
 14 15  1  0  0  0
 15 16  1  0  0  0
 16 17  1  0  0  0
 17 18  1  0  0  0
 18 19  1  0  0  0
 19 20  1  0  0  0
 20 21  1  0  0  0
 21 22  1  0  0  0
 46 47  1  0  0  0
 47 48  1  0  0  0
 48 49  1  0  0  0
 49 50  1  0  0  0
 50 54  1  0  0  0
M  CHG 1  58  -1
M  END
> <minimizedAffinity>
-8.40641

> <CNNscore>
0.1780758947

> <CNNaffinity>
6.6402969360

> <CNN_VS>
1.1824767590

> <CNNaffinity_variance>
1.3971109390

$$$$
/media/chris/experiments/cd1a-new-docking/inputs/ligands/1onq_ligand.pdb


 62 62  0  0  0  0  0  0  0  0999 V2000
  -39.2193   59.9988   60.9376 C   0  0  0  0  0  0  0  0  0  0  0  0
  -40.3997   60.0322   61.7784 N   0  0  0  0  0  0  0  0  0  0  0  0
  -41.7270   61.5045   60.6749 O   0  0  0  0  0  0  0  0  0  0  0  0
  -41.5199   60.7460   61.6021 C   0  0  0  0  0  0  0  0  0  0  0  0
  -40.3752   59.4591   62.5784 H   0  0  0  0  0  0  0  0  0  0  0  0
  -42.5717   60.5523   62.6538 C   0  0  0  0  0  0  0  0  0  0  0  0
  -42.4422   61.7312   63.6183 C   0  0  0  0  0  0  0  0  0  0  0  0
  -43.5215   61.6452   64.6948 C   0  0  0  0  0  0  0  0  0  0  0  0
  -44.7397   60.8236   64.3487 C   0  0  0  0  0  0  0  0  0  0  0  0
  -45.3527   60.3350   65.6570 C   0  0  0  0  0  0  0  0  0  0  0  0
  -46.7551   59.7409   65.4690 C   0  0  0  0  0  0  0  0  0  0  0  0
  -47.3723   60.0034   64.0831 C   0  0  0  0  0  0  0  0  0  0  0  0
  -48.6332   60.8932   64.1460 C   0  0  0  0  0  0  0  0  0  0  0  0
  -49.6965   60.2599   65.0479 C   0  0  0  0  0  0  0  0  0  0  0  0
  -51.1062   60.2442   64.4697 C   0  0  0  0  0  0  0  0  0  0  0  0
  -51.1248   59.8324   63.0050 C   0  0  0  0  0  0  0  0  0  0  0  0
  -50.7712   58.3721   62.7138 C   0  0  0  0  0  0  0  0  0  0  0  0
  -49.7537   58.3457   61.5814 C   0  0  0  0  0  0  0  0  0  0  0  0
  -50.2126   57.9072   60.1986 C   0  0  0  0  0  0  0  0  0  0  0  0
  -49.3066   58.4967   59.1060 C   0  0  0  0  0  0  0  0  0  0  0  0
  -48.0455   57.6659   58.8053 C   0  0  0  0  0  0  0  0  0  0  0  0
  -47.2412   58.1962   57.6206 C   0  0  0  0  0  0  0  0  0  0  0  0
  -39.1728   58.5104   59.1549 O   0  0  0  0  0  0  0  0  0  0  0  0
  -39.1169   58.5287   60.5692 C   0  0  0  0  0  0  0  0  0  0  0  0
  -38.4190   59.0037   58.7951 H   0  0  0  0  0  0  0  0  0  0  0  0
  -40.2824   57.7650   61.2022 C   0  0  0  0  0  0  0  0  0  0  0  0
  -40.1315   56.5826   61.8231 C   0  0  0  0  0  0  0  0  0  0  0  0
  -41.3458   55.8819   62.4295 C   0  0  0  0  0  0  0  0  0  0  0  0
  -42.2014   56.7869   63.3279 C   0  0  0  0  0  0  0  0  0  0  0  0
  -41.8241   56.7925   64.8209 C   0  0  0  0  0  0  0  0  0  0  0  0
  -41.9381   58.2188   65.4109 C   0  0  0  0  0  0  0  0  0  0  0  0
  -40.6131   59.0204   65.4649 C   0  0  0  0  0  0  0  0  0  0  0  0
  -39.4295   58.3371   64.7402 C   0  0  0  0  0  0  0  0  0  0  0  0
  -38.0464   58.8428   65.2043 C   0  0  0  0  0  0  0  0  0  0  0  0
  -36.8815   57.9492   64.7618 C   0  0  0  0  0  0  0  0  0  0  0  0
  -36.1417   58.3867   63.4994 C   0  0  0  0  0  0  0  0  0  0  0  0
  -34.9296   57.5023   63.1461 C   0  0  0  0  0  0  0  0  0  0  0  0
  -33.6724   58.2630   62.6980 C   0  0  0  0  0  0  0  0  0  0  0  0
  -33.0938   59.0939   63.8469 C   0  0  0  0  0  0  0  0  0  0  0  0
  -33.0764   58.4349   65.2146 C   0  0  0  0  0  0  0  0  0  0  0  0
  -37.9572   60.6609   61.5355 C   0  0  0  0  0  0  0  0  0  0  0  0
  -38.1080   61.2888   62.8342 O   0  0  0  0  0  0  0  0  0  0  0  0
  -37.6496   62.3679   65.4423 O   0  0  0  0  0  0  0  0  0  0  0  0
  -34.1283   63.7462   63.6817 O   0  0  0  0  0  0  0  0  0  0  0  0
  -36.5943   63.0288   62.0816 O   0  0  0  0  0  0  0  0  0  0  0  0
  -37.5143   62.6103   63.1189 C   0  0  0  0  0  0  0  0  0  0  0  0
  -36.7485   62.7356   64.4438 C   0  0  0  0  0  0  0  0  0  0  0  0
  -36.2531   64.1680   64.7410 C   0  0  0  0  0  0  0  0  0  0  0  0
  -35.3174   64.5300   63.6208 C   0  0  0  0  0  0  0  0  0  0  0  0
  -36.0179   64.3469   62.2867 C   0  0  0  0  0  0  0  0  0  0  0  0
  -37.9721   61.4691   65.2719 H   0  0  0  0  0  0  0  0  0  0  0  0
  -33.6976   63.8781   64.5407 H   0  0  0  0  0  0  0  0  0  0  0  0
  -34.1504   63.6278   60.9795 O   0  0  0  0  0  0  0  0  0  0  0  0
  -34.9146   64.7482   61.3101 C   0  0  0  0  0  0  0  0  0  0  0  0
  -33.4505   63.8853   60.3592 H   0  0  0  0  0  0  0  0  0  0  0  0
  -35.5010   64.3382   65.9638 O   0  0  0  0  0  0  0  0  0  0  0  0
  -33.7725   63.4336   67.6699 O   0  0  0  0  0  0  0  0  0  0  0  0
  -34.6959   61.9400   65.9950 O   0  0  0  0  0  0  0  0  0  0  0  0
  -36.0364   62.6156   67.8978 O   0  0  0  0  0  0  0  0  0  0  0  0
  -35.0081   63.0654   66.9172 S   0  0  0  0  0  0  0  0  0  0  0  0
  -33.0904   63.7294   67.0470 H   0  0  0  0  0  0  0  0  0  0  0  0
  -36.2460   63.3438   68.5034 H   0  0  0  0  0  0  0  0  0  0  0  0
  2  1  1  0  0  0
  2  4  1  0  0  0
  2  5  1  0  0  0
 41 42  1  0  0  0
 41  1  1  0  0  0
 42 46  1  0  0  0
  1 24  1  0  0  0
 23 24  1  0  0  0
 23 25  1  0  0  0
 24 26  1  0  0  0
  3  4  2  0  0  0
 26 27  2  0  0  0
 27 28  1  0  0  0
 43 47  1  0  0  0
 43 51  1  0  0  0
 28 29  1  0  0  0
 56 48  1  0  0  0
 56 60  1  0  0  0
 29 30  1  0  0  0
 57 60  1  0  0  0
 57 61  1  0  0  0
 30 31  1  0  0  0
 44 49  1  0  0  0
 44 52  1  0  0  0
 31 32  1  0  0  0
 45 46  1  0  0  0
 45 50  1  0  0  0
 32 33  1  0  0  0
 53 54  1  0  0  0
 53 55  1  0  0  0
 33 34  1  0  0  0
 34 35  1  0  0  0
 35 36  1  0  0  0
 58 60  1  0  0  0
 36 37  1  0  0  0
 59 60  1  0  0  0
 59 62  1  0  0  0
 37 38  1  0  0  0
 38 39  1  0  0  0
 39 40  1  0  0  0
  4  6  1  0  0  0
  6  7  1  0  0  0
  7  8  1  0  0  0
  8  9  1  0  0  0
  9 10  1  0  0  0
 10 11  1  0  0  0
 11 12  1  0  0  0
 12 13  1  0  0  0
 13 14  1  0  0  0
 14 15  1  0  0  0
 15 16  1  0  0  0
 16 17  1  0  0  0
 17 18  1  0  0  0
 18 19  1  0  0  0
 19 20  1  0  0  0
 20 21  1  0  0  0
 21 22  1  0  0  0
 46 47  1  0  0  0
 47 48  1  0  0  0
 48 49  1  0  0  0
 49 50  1  0  0  0
 50 54  1  0  0  0
M  CHG 1  58  -1
M  END
> <minimizedAffinity>
-9.61501

> <CNNscore>
0.1709358245

> <CNNaffinity>
6.9148383141

> <CNN_VS>
1.1819936037

> <CNNaffinity_variance>
1.9978389740

$$$$
