/media/chris/experiments/cd1a-new-docking/inputs/ligands/1onq_ligand.pdb


 62 62  0  0  0  0  0  0  0  0999 V2000
  -41.6651   59.9026   65.4622 C   0  0  0  0  0  0  0  0  0  0  0  0
  -41.6059   58.5805   64.8708 N   0  0  0  0  0  0  0  0  0  0  0  0
  -42.9333   57.3776   66.2632 O   0  0  0  0  0  0  0  0  0  0  0  0
  -42.2125   57.4608   65.2878 C   0  0  0  0  0  0  0  0  0  0  0  0
  -41.0510   58.4946   64.0622 H   0  0  0  0  0  0  0  0  0  0  0  0
  -41.9563   56.2456   64.4467 C   0  0  0  0  0  0  0  0  0  0  0  0
  -41.0679   56.6998   63.2883 C   0  0  0  0  0  0  0  0  0  0  0  0
  -41.1255   55.6782   62.1553 C   0  0  0  0  0  0  0  0  0  0  0  0
  -41.3977   56.2306   60.7771 C   0  0  0  0  0  0  0  0  0  0  0  0
  -41.8080   57.6905   60.9387 C   0  0  0  0  0  0  0  0  0  0  0  0
  -41.2060   58.5988   59.8582 C   0  0  0  0  0  0  0  0  0  0  0  0
  -39.9178   58.0507   59.2174 C   0  0  0  0  0  0  0  0  0  0  0  0
  -38.7635   59.0769   59.2177 C   0  0  0  0  0  0  0  0  0  0  0  0
  -37.6246   58.6081   60.1278 C   0  0  0  0  0  0  0  0  0  0  0  0
  -38.0669   57.9974   61.4520 C   0  0  0  0  0  0  0  0  0  0  0  0
  -36.9654   58.0338   62.5010 C   0  0  0  0  0  0  0  0  0  0  0  0
  -37.3883   57.6872   63.9305 C   0  0  0  0  0  0  0  0  0  0  0  0
  -36.1867   57.8880   64.8440 C   0  0  0  0  0  0  0  0  0  0  0  0
  -35.1816   58.9768   64.4984 C   0  0  0  0  0  0  0  0  0  0  0  0
  -33.7639   58.5749   64.9351 C   0  0  0  0  0  0  0  0  0  0  0  0
  -32.7598   58.4175   63.7783 C   0  0  0  0  0  0  0  0  0  0  0  0
  -33.3779   58.6653   62.4042 C   0  0  0  0  0  0  0  0  0  0  0  0
  -42.2149   61.9646   64.5447 O   0  0  0  0  0  0  0  0  0  0  0  0
  -42.6603   60.6212   64.5674 C   0  0  0  0  0  0  0  0  0  0  0  0
  -41.3244   62.0035   64.1618 H   0  0  0  0  0  0  0  0  0  0  0  0
  -44.0643   60.4892   65.1622 C   0  0  0  0  0  0  0  0  0  0  0  0
  -45.1643   60.3146   64.4101 C   0  0  0  0  0  0  0  0  0  0  0  0
  -46.5318   60.1924   65.0799 C   0  0  0  0  0  0  0  0  0  0  0  0
  -47.5389   59.3466   64.2871 C   0  0  0  0  0  0  0  0  0  0  0  0
  -48.2986   58.2806   65.0983 C   0  0  0  0  0  0  0  0  0  0  0  0
  -49.7470   58.7413   65.3900 C   0  0  0  0  0  0  0  0  0  0  0  0
  -50.1799   60.0509   64.6833 C   0  0  0  0  0  0  0  0  0  0  0  0
  -51.2932   59.8620   63.6262 C   0  0  0  0  0  0  0  0  0  0  0  0
  -50.7620   59.4433   62.2381 C   0  0  0  0  0  0  0  0  0  0  0  0
  -50.9242   57.9480   61.9400 C   0  0  0  0  0  0  0  0  0  0  0  0
  -49.9824   57.3673   60.8872 C   0  0  0  0  0  0  0  0  0  0  0  0
  -50.0103   58.1172   59.5408 C   0  0  0  0  0  0  0  0  0  0  0  0
  -48.6540   58.6601   59.0655 C   0  0  0  0  0  0  0  0  0  0  0  0
  -47.9825   57.6866   58.0924 C   0  0  0  0  0  0  0  0  0  0  0  0
  -46.9286   58.2732   57.1701 C   0  0  0  0  0  0  0  0  0  0  0  0
  -40.3006   60.5924   65.6882 C   0  0  0  0  0  0  0  0  0  0  0  0
  -39.5247   60.8986   64.5019 O   0  0  0  0  0  0  0  0  0  0  0  0
  -37.8215   61.4857   62.2811 O   0  0  0  0  0  0  0  0  0  0  0  0
  -36.3380   64.4072   64.8623 O   0  0  0  0  0  0  0  0  0  0  0  0
  -37.7835   61.9341   65.8366 O   0  0  0  0  0  0  0  0  0  0  0  0
  -38.0959   61.2593   64.5937 C   0  0  0  0  0  0  0  0  0  0  0  0
  -37.5522   62.1571   63.4730 C   0  0  0  0  0  0  0  0  0  0  0  0
  -36.0297   62.4023   63.5582 C   0  0  0  0  0  0  0  0  0  0  0  0
  -35.7879   63.0922   64.8724 C   0  0  0  0  0  0  0  0  0  0  0  0
  -36.3788   62.2677   66.0017 C   0  0  0  0  0  0  0  0  0  0  0  0
  -38.7752   61.3227   62.2102 H   0  0  0  0  0  0  0  0  0  0  0  0
  -35.9473   64.9156   64.1344 H   0  0  0  0  0  0  0  0  0  0  0  0
  -34.6803   63.0150   67.5085 O   0  0  0  0  0  0  0  0  0  0  0  0
  -36.0400   63.1320   67.2142 C   0  0  0  0  0  0  0  0  0  0  0  0
  -34.4677   63.5647   68.2788 H   0  0  0  0  0  0  0  0  0  0  0  0
  -35.4683   63.2645   62.5426 O   0  0  0  0  0  0  0  0  0  0  0  0
  -33.5671   63.7622   60.8532 O   0  0  0  0  0  0  0  0  0  0  0  0
  -33.2224   62.1006   62.5880 O   0  0  0  0  0  0  0  0  0  0  0  0
  -33.1857   64.4613   63.1362 O   0  0  0  0  0  0  0  0  0  0  0  0
  -33.8315   63.4237   62.2830 S   0  0  0  0  0  0  0  0  0  0  0  0
  -33.9804   63.0966   60.2815 H   0  0  0  0  0  0  0  0  0  0  0  0
  -33.5773   65.3276   62.9437 H   0  0  0  0  0  0  0  0  0  0  0  0
  2  1  1  0  0  0
  2  4  1  0  0  0
  2  5  1  0  0  0
 41 42  1  0  0  0
 41  1  1  0  0  0
 42 46  1  0  0  0
  1 24  1  0  0  0
 23 24  1  0  0  0
 23 25  1  0  0  0
 24 26  1  0  0  0
  3  4  2  0  0  0
 26 27  2  0  0  0
 27 28  1  0  0  0
 43 47  1  0  0  0
 43 51  1  0  0  0
 28 29  1  0  0  0
 56 48  1  0  0  0
 56 60  1  0  0  0
 29 30  1  0  0  0
 57 60  1  0  0  0
 57 61  1  0  0  0
 30 31  1  0  0  0
 44 49  1  0  0  0
 44 52  1  0  0  0
 31 32  1  0  0  0
 45 46  1  0  0  0
 45 50  1  0  0  0
 32 33  1  0  0  0
 53 54  1  0  0  0
 53 55  1  0  0  0
 33 34  1  0  0  0
 34 35  1  0  0  0
 35 36  1  0  0  0
 58 60  1  0  0  0
 36 37  1  0  0  0
 59 60  1  0  0  0
 59 62  1  0  0  0
 37 38  1  0  0  0
 38 39  1  0  0  0
 39 40  1  0  0  0
  4  6  1  0  0  0
  6  7  1  0  0  0
  7  8  1  0  0  0
  8  9  1  0  0  0
  9 10  1  0  0  0
 10 11  1  0  0  0
 11 12  1  0  0  0
 12 13  1  0  0  0
 13 14  1  0  0  0
 14 15  1  0  0  0
 15 16  1  0  0  0
 16 17  1  0  0  0
 17 18  1  0  0  0
 18 19  1  0  0  0
 19 20  1  0  0  0
 20 21  1  0  0  0
 21 22  1  0  0  0
 46 47  1  0  0  0
 47 48  1  0  0  0
 48 49  1  0  0  0
 49 50  1  0  0  0
 50 54  1  0  0  0
M  CHG 1  58  -1
M  END
> <minimizedAffinity>
-9.95588

> <CNNscore>
0.3880753219

> <CNNaffinity>
7.2005143166

> <CNN_VS>
2.7943418026

> <CNNaffinity_variance>
2.2249240875

$$$$
/media/chris/experiments/cd1a-new-docking/inputs/ligands/1onq_ligand.pdb


 62 62  0  0  0  0  0  0  0  0999 V2000
  -41.3023   60.0201   65.4165 C   0  0  0  0  0  0  0  0  0  0  0  0
  -41.5377   59.5898   64.0524 N   0  0  0  0  0  0  0  0  0  0  0  0
  -40.6556   57.4995   64.0551 O   0  0  0  0  0  0  0  0  0  0  0  0
  -41.2158   58.4176   63.4885 C   0  0  0  0  0  0  0  0  0  0  0  0
  -41.9904   60.2396   63.4676 H   0  0  0  0  0  0  0  0  0  0  0  0
  -41.6061   58.2749   62.0473 C   0  0  0  0  0  0  0  0  0  0  0  0
  -41.1679   56.8750   61.6163 C   0  0  0  0  0  0  0  0  0  0  0  0
  -40.9899   56.8278   60.1007 C   0  0  0  0  0  0  0  0  0  0  0  0
  -40.9442   58.1620   59.3962 C   0  0  0  0  0  0  0  0  0  0  0  0
  -39.5413   58.3326   58.8231 C   0  0  0  0  0  0  0  0  0  0  0  0
  -38.6693   59.2775   59.6607 C   0  0  0  0  0  0  0  0  0  0  0  0
  -37.6028   58.5650   60.5124 C   0  0  0  0  0  0  0  0  0  0  0  0
  -37.8262   58.7471   62.0298 C   0  0  0  0  0  0  0  0  0  0  0  0
  -37.3069   57.5308   62.8018 C   0  0  0  0  0  0  0  0  0  0  0  0
  -36.7303   57.8386   64.1783 C   0  0  0  0  0  0  0  0  0  0  0  0
  -35.3613   58.4976   64.0965 C   0  0  0  0  0  0  0  0  0  0  0  0
  -34.3299   57.7945   63.2110 C   0  0  0  0  0  0  0  0  0  0  0  0
  -33.5678   58.8580   62.4320 C   0  0  0  0  0  0  0  0  0  0  0  0
  -32.2633   59.3891   63.0076 C   0  0  0  0  0  0  0  0  0  0  0  0
  -31.4713   60.1690   61.9462 C   0  0  0  0  0  0  0  0  0  0  0  0
  -30.0150   60.4810   62.3375 C   0  0  0  0  0  0  0  0  0  0  0  0
  -29.6160   61.9310   62.0731 C   0  0  0  0  0  0  0  0  0  0  0  0
  -42.1554   61.5965   66.8940 O   0  0  0  0  0  0  0  0  0  0  0  0
  -42.4780   60.9454   65.6792 C   0  0  0  0  0  0  0  0  0  0  0  0
  -41.3395   62.1086   66.7796 H   0  0  0  0  0  0  0  0  0  0  0  0
  -43.7599   60.1168   65.7917 C   0  0  0  0  0  0  0  0  0  0  0  0
  -44.8575   60.3633   65.0565 C   0  0  0  0  0  0  0  0  0  0  0  0
  -46.0993   59.4904   65.2281 C   0  0  0  0  0  0  0  0  0  0  0  0
  -47.4221   60.2469   65.0379 C   0  0  0  0  0  0  0  0  0  0  0  0
  -48.4361   60.1166   66.1895 C   0  0  0  0  0  0  0  0  0  0  0  0
  -49.8391   59.7520   65.6473 C   0  0  0  0  0  0  0  0  0  0  0  0
  -50.3079   60.5730   64.4194 C   0  0  0  0  0  0  0  0  0  0  0  0
  -51.2983   59.8237   63.4971 C   0  0  0  0  0  0  0  0  0  0  0  0
  -50.7026   58.5520   62.8551 C   0  0  0  0  0  0  0  0  0  0  0  0
  -50.0874   58.7890   61.4707 C   0  0  0  0  0  0  0  0  0  0  0  0
  -50.3195   57.6901   60.4359 C   0  0  0  0  0  0  0  0  0  0  0  0
  -49.8074   58.0408   59.0249 C   0  0  0  0  0  0  0  0  0  0  0  0
  -48.2823   58.1730   58.8960 C   0  0  0  0  0  0  0  0  0  0  0  0
  -47.6216   56.7991   58.7506 C   0  0  0  0  0  0  0  0  0  0  0  0
  -47.2245   56.3863   57.3444 C   0  0  0  0  0  0  0  0  0  0  0  0
  -39.8911   60.5815   65.7032 C   0  0  0  0  0  0  0  0  0  0  0  0
  -39.2415   61.2884   64.6162 O   0  0  0  0  0  0  0  0  0  0  0  0
  -37.6559   61.9030   62.3171 O   0  0  0  0  0  0  0  0  0  0  0  0
  -35.7649   64.5112   64.9667 O   0  0  0  0  0  0  0  0  0  0  0  0
  -37.3335   62.0908   65.8815 O   0  0  0  0  0  0  0  0  0  0  0  0
  -37.7854   61.5325   64.6238 C   0  0  0  0  0  0  0  0  0  0  0  0
  -37.2507   62.4647   63.5271 C   0  0  0  0  0  0  0  0  0  0  0  0
  -35.7112   62.5875   63.5135 C   0  0  0  0  0  0  0  0  0  0  0  0
  -35.3232   63.1610   64.8484 C   0  0  0  0  0  0  0  0  0  0  0  0
  -35.8984   62.3046   65.9621 C   0  0  0  0  0  0  0  0  0  0  0  0
  -38.6222   61.8181   62.3076 H   0  0  0  0  0  0  0  0  0  0  0  0
  -35.3863   65.0394   64.2466 H   0  0  0  0  0  0  0  0  0  0  0  0
  -36.4146   63.8967   67.6686 O   0  0  0  0  0  0  0  0  0  0  0  0
  -35.4070   63.0516   67.2001 C   0  0  0  0  0  0  0  0  0  0  0  0
  -36.1001   64.3699   68.4548 H   0  0  0  0  0  0  0  0  0  0  0  0
  -35.1545   63.4754   62.5177 O   0  0  0  0  0  0  0  0  0  0  0  0
  -32.7569   62.9620   63.3572 O   0  0  0  0  0  0  0  0  0  0  0  0
  -33.2620   65.1530   62.4440 O   0  0  0  0  0  0  0  0  0  0  0  0
  -33.0221   63.2436   60.9704 O   0  0  0  0  0  0  0  0  0  0  0  0
  -33.5181   63.6939   62.3019 S   0  0  0  0  0  0  0  0  0  0  0  0
  -33.0664   63.2426   64.2325 H   0  0  0  0  0  0  0  0  0  0  0  0
  -33.1853   62.2928   60.8693 H   0  0  0  0  0  0  0  0  0  0  0  0
  2  1  1  0  0  0
  2  4  1  0  0  0
  2  5  1  0  0  0
 41 42  1  0  0  0
 41  1  1  0  0  0
 42 46  1  0  0  0
  1 24  1  0  0  0
 23 24  1  0  0  0
 23 25  1  0  0  0
 24 26  1  0  0  0
  3  4  2  0  0  0
 26 27  2  0  0  0
 27 28  1  0  0  0
 43 47  1  0  0  0
 43 51  1  0  0  0
 28 29  1  0  0  0
 56 48  1  0  0  0
 56 60  1  0  0  0
 29 30  1  0  0  0
 57 60  1  0  0  0
 57 61  1  0  0  0
 30 31  1  0  0  0
 44 49  1  0  0  0
 44 52  1  0  0  0
 31 32  1  0  0  0
 45 46  1  0  0  0
 45 50  1  0  0  0
 32 33  1  0  0  0
 53 54  1  0  0  0
 53 55  1  0  0  0
 33 34  1  0  0  0
 34 35  1  0  0  0
 35 36  1  0  0  0
 58 60  1  0  0  0
 36 37  1  0  0  0
 59 60  1  0  0  0
 59 62  1  0  0  0
 37 38  1  0  0  0
 38 39  1  0  0  0
 39 40  1  0  0  0
  4  6  1  0  0  0
  6  7  1  0  0  0
  7  8  1  0  0  0
  8  9  1  0  0  0
  9 10  1  0  0  0
 10 11  1  0  0  0
 11 12  1  0  0  0
 12 13  1  0  0  0
 13 14  1  0  0  0
 14 15  1  0  0  0
 15 16  1  0  0  0
 16 17  1  0  0  0
 17 18  1  0  0  0
 18 19  1  0  0  0
 19 20  1  0  0  0
 20 21  1  0  0  0
 21 22  1  0  0  0
 46 47  1  0  0  0
 47 48  1  0  0  0
 48 49  1  0  0  0
 49 50  1  0  0  0
 50 54  1  0  0  0
M  CHG 1  58  -1
M  END
> <minimizedAffinity>
-9.67386

> <CNNscore>
0.2905696929

> <CNNaffinity>
7.0256700516

> <CNN_VS>
2.0414466858

> <CNNaffinity_variance>
1.4707132578

$$$$
/media/chris/experiments/cd1a-new-docking/inputs/ligands/1onq_ligand.pdb


 62 62  0  0  0  0  0  0  0  0999 V2000
  -41.5515   60.1984   65.0322 C   0  0  0  0  0  0  0  0  0  0  0  0
  -41.3132   59.6778   63.7006 N   0  0  0  0  0  0  0  0  0  0  0  0
  -41.2477   57.4402   64.0703 O   0  0  0  0  0  0  0  0  0  0  0  0
  -41.1833   58.3982   63.3246 C   0  0  0  0  0  0  0  0  0  0  0  0
  -41.2374   60.3476   62.9831 H   0  0  0  0  0  0  0  0  0  0  0  0
  -40.9498   58.1849   61.8584 C   0  0  0  0  0  0  0  0  0  0  0  0
  -39.9317   57.0504   61.7422 C   0  0  0  0  0  0  0  0  0  0  0  0
  -38.5516   57.6191   61.4211 C   0  0  0  0  0  0  0  0  0  0  0  0
  -37.5292   57.5445   62.5290 C   0  0  0  0  0  0  0  0  0  0  0  0
  -36.2848   58.2903   62.0586 C   0  0  0  0  0  0  0  0  0  0  0  0
  -35.2509   58.4828   63.1761 C   0  0  0  0  0  0  0  0  0  0  0  0
  -33.8542   57.9242   62.8482 C   0  0  0  0  0  0  0  0  0  0  0  0
  -32.7167   58.7078   63.5395 C   0  0  0  0  0  0  0  0  0  0  0  0
  -32.7988   60.1971   63.1926 C   0  0  0  0  0  0  0  0  0  0  0  0
  -31.8863   60.6463   62.0579 C   0  0  0  0  0  0  0  0  0  0  0  0
  -30.4539   60.1690   62.2456 C   0  0  0  0  0  0  0  0  0  0  0  0
  -29.4279   61.2480   62.5998 C   0  0  0  0  0  0  0  0  0  0  0  0
  -29.7299   62.4844   61.7640 C   0  0  0  0  0  0  0  0  0  0  0  0
  -29.5486   63.8556   62.3980 C   0  0  0  0  0  0  0  0  0  0  0  0
  -30.8910   64.4115   62.8991 C   0  0  0  0  0  0  0  0  0  0  0  0
  -31.3801   65.6674   62.1543 C   0  0  0  0  0  0  0  0  0  0  0  0
  -31.8079   65.3879   60.7154 C   0  0  0  0  0  0  0  0  0  0  0  0
  -42.6149   62.0303   65.9858 O   0  0  0  0  0  0  0  0  0  0  0  0
  -42.5842   61.2842   64.7832 C   0  0  0  0  0  0  0  0  0  0  0  0
  -41.7421   62.4223   66.1454 H   0  0  0  0  0  0  0  0  0  0  0  0
  -43.9355   60.6367   64.4716 C   0  0  0  0  0  0  0  0  0  0  0  0
  -44.5781   59.8321   65.3352 C   0  0  0  0  0  0  0  0  0  0  0  0
  -45.9245   59.2229   64.9489 C   0  0  0  0  0  0  0  0  0  0  0  0
  -47.1311   60.1012   65.3109 C   0  0  0  0  0  0  0  0  0  0  0  0
  -48.5026   59.4028   65.2616 C   0  0  0  0  0  0  0  0  0  0  0  0
  -49.6069   60.3918   64.8167 C   0  0  0  0  0  0  0  0  0  0  0  0
  -50.7315   59.7790   63.9440 C   0  0  0  0  0  0  0  0  0  0  0  0
  -50.3849   58.3965   63.3431 C   0  0  0  0  0  0  0  0  0  0  0  0
  -50.9265   58.1921   61.9117 C   0  0  0  0  0  0  0  0  0  0  0  0
  -50.0097   58.7537   60.8183 C   0  0  0  0  0  0  0  0  0  0  0  0
  -49.7139   57.8211   59.6457 C   0  0  0  0  0  0  0  0  0  0  0  0
  -48.2122   57.5569   59.4196 C   0  0  0  0  0  0  0  0  0  0  0  0
  -47.8877   56.4363   58.4200 C   0  0  0  0  0  0  0  0  0  0  0  0
  -47.6265   57.0049   57.0223 C   0  0  0  0  0  0  0  0  0  0  0  0
  -46.7848   58.2668   56.9532 C   0  0  0  0  0  0  0  0  0  0  0  0
  -40.2876   60.6020   65.8252 C   0  0  0  0  0  0  0  0  0  0  0  0
  -39.0594   59.9110   65.4828 O   0  0  0  0  0  0  0  0  0  0  0  0
  -38.4720   60.9048   62.8665 O   0  0  0  0  0  0  0  0  0  0  0  0
  -37.0083   64.1726   65.0063 O   0  0  0  0  0  0  0  0  0  0  0  0
  -37.3024   61.4146   66.2156 O   0  0  0  0  0  0  0  0  0  0  0  0
  -37.8415   60.6558   65.1061 C   0  0  0  0  0  0  0  0  0  0  0  0
  -37.9885   61.6474   63.9430 C   0  0  0  0  0  0  0  0  0  0  0  0
  -36.6582   62.3073   63.5186 C   0  0  0  0  0  0  0  0  0  0  0  0
  -36.1611   63.0624   64.7204 C   0  0  0  0  0  0  0  0  0  0  0  0
  -36.0730   62.1282   65.9136 C   0  0  0  0  0  0  0  0  0  0  0  0
  -39.3089   60.4822   63.1153 H   0  0  0  0  0  0  0  0  0  0  0  0
  -37.0502   64.7553   64.2319 H   0  0  0  0  0  0  0  0  0  0  0  0
  -36.2758   62.8468   68.1843 O   0  0  0  0  0  0  0  0  0  0  0  0
  -35.5714   63.0758   67.0010 C   0  0  0  0  0  0  0  0  0  0  0  0
  -35.9554   63.4499   68.8732 H   0  0  0  0  0  0  0  0  0  0  0  0
  -36.7426   63.2717   62.4449 O   0  0  0  0  0  0  0  0  0  0  0  0
  -35.4676   63.9361   60.2886 O   0  0  0  0  0  0  0  0  0  0  0  0
  -34.2196   63.2619   62.2577 O   0  0  0  0  0  0  0  0  0  0  0  0
  -35.2645   65.4469   62.1655 O   0  0  0  0  0  0  0  0  0  0  0  0
  -35.4103   64.0150   61.7783 S   0  0  0  0  0  0  0  0  0  0  0  0
  -35.5625   63.0098   60.0172 H   0  0  0  0  0  0  0  0  0  0  0  0
  -36.0371   65.9455   61.8567 H   0  0  0  0  0  0  0  0  0  0  0  0
  2  1  1  0  0  0
  2  4  1  0  0  0
  2  5  1  0  0  0
 41 42  1  0  0  0
 41  1  1  0  0  0
 42 46  1  0  0  0
  1 24  1  0  0  0
 23 24  1  0  0  0
 23 25  1  0  0  0
 24 26  1  0  0  0
  3  4  2  0  0  0
 26 27  2  0  0  0
 27 28  1  0  0  0
 43 47  1  0  0  0
 43 51  1  0  0  0
 28 29  1  0  0  0
 56 48  1  0  0  0
 56 60  1  0  0  0
 29 30  1  0  0  0
 57 60  1  0  0  0
 57 61  1  0  0  0
 30 31  1  0  0  0
 44 49  1  0  0  0
 44 52  1  0  0  0
 31 32  1  0  0  0
 45 46  1  0  0  0
 45 50  1  0  0  0
 32 33  1  0  0  0
 53 54  1  0  0  0
 53 55  1  0  0  0
 33 34  1  0  0  0
 34 35  1  0  0  0
 35 36  1  0  0  0
 58 60  1  0  0  0
 36 37  1  0  0  0
 59 60  1  0  0  0
 59 62  1  0  0  0
 37 38  1  0  0  0
 38 39  1  0  0  0
 39 40  1  0  0  0
  4  6  1  0  0  0
  6  7  1  0  0  0
  7  8  1  0  0  0
  8  9  1  0  0  0
  9 10  1  0  0  0
 10 11  1  0  0  0
 11 12  1  0  0  0
 12 13  1  0  0  0
 13 14  1  0  0  0
 14 15  1  0  0  0
 15 16  1  0  0  0
 16 17  1  0  0  0
 17 18  1  0  0  0
 18 19  1  0  0  0
 19 20  1  0  0  0
 20 21  1  0  0  0
 21 22  1  0  0  0
 46 47  1  0  0  0
 47 48  1  0  0  0
 48 49  1  0  0  0
 49 50  1  0  0  0
 50 54  1  0  0  0
M  CHG 1  58  -1
M  END
> <minimizedAffinity>
-8.96532

> <CNNscore>
0.2361475080

> <CNNaffinity>
6.7241258621

> <CNN_VS>
1.5878856182

> <CNNaffinity_variance>
1.0360624790

$$$$
/media/chris/experiments/cd1a-new-docking/inputs/ligands/1onq_ligand.pdb


 62 62  0  0  0  0  0  0  0  0999 V2000
  -41.3210   60.4517   64.1378 C   0  0  0  0  0  0  0  0  0  0  0  0
  -41.9942   59.1776   64.2950 N   0  0  0  0  0  0  0  0  0  0  0  0
  -41.8385   58.8311   66.5318 O   0  0  0  0  0  0  0  0  0  0  0  0
  -42.1991   58.4849   65.4237 C   0  0  0  0  0  0  0  0  0  0  0  0
  -42.3444   58.7705   63.4699 H   0  0  0  0  0  0  0  0  0  0  0  0
  -42.9425   57.1934   65.2532 C   0  0  0  0  0  0  0  0  0  0  0  0
  -44.4092   57.5637   65.0317 C   0  0  0  0  0  0  0  0  0  0  0  0
  -45.1551   57.5591   66.3639 C   0  0  0  0  0  0  0  0  0  0  0  0
  -46.6105   57.1626   66.3079 C   0  0  0  0  0  0  0  0  0  0  0  0
  -47.3532   58.2446   65.5311 C   0  0  0  0  0  0  0  0  0  0  0  0
  -47.5804   59.5177   66.3572 C   0  0  0  0  0  0  0  0  0  0  0  0
  -48.7709   60.3730   65.8862 C   0  0  0  0  0  0  0  0  0  0  0  0
  -50.1080   59.6000   65.8998 C   0  0  0  0  0  0  0  0  0  0  0  0
  -50.8326   59.7510   64.5591 C   0  0  0  0  0  0  0  0  0  0  0  0
  -50.0217   60.4271   63.4603 C   0  0  0  0  0  0  0  0  0  0  0  0
  -49.9244   59.5721   62.2055 C   0  0  0  0  0  0  0  0  0  0  0  0
  -50.8240   58.3345   62.1652 C   0  0  0  0  0  0  0  0  0  0  0  0
  -50.6283   57.6477   60.8204 C   0  0  0  0  0  0  0  0  0  0  0  0
  -49.9836   58.4326   59.6875 C   0  0  0  0  0  0  0  0  0  0  0  0
  -48.7653   57.6840   59.1238 C   0  0  0  0  0  0  0  0  0  0  0  0
  -47.7994   58.5610   58.3059 C   0  0  0  0  0  0  0  0  0  0  0  0
  -47.2810   57.8740   57.0445 C   0  0  0  0  0  0  0  0  0  0  0  0
  -43.1420   61.3360   62.9985 O   0  0  0  0  0  0  0  0  0  0  0  0
  -41.8081   60.9176   62.7765 C   0  0  0  0  0  0  0  0  0  0  0  0
  -43.1491   62.0712   63.6313 H   0  0  0  0  0  0  0  0  0  0  0  0
  -41.7258   59.7556   61.7837 C   0  0  0  0  0  0  0  0  0  0  0  0
  -41.1783   59.8741   60.5621 C   0  0  0  0  0  0  0  0  0  0  0  0
  -41.1350   58.6662   59.6279 C   0  0  0  0  0  0  0  0  0  0  0  0
  -39.8330   57.8570   59.7181 C   0  0  0  0  0  0  0  0  0  0  0  0
  -38.5355   58.6542   59.4893 C   0  0  0  0  0  0  0  0  0  0  0  0
  -37.6624   58.6608   60.7671 C   0  0  0  0  0  0  0  0  0  0  0  0
  -38.2974   57.9798   62.0060 C   0  0  0  0  0  0  0  0  0  0  0  0
  -37.3052   57.7195   63.1638 C   0  0  0  0  0  0  0  0  0  0  0  0
  -35.8234   57.8282   62.7433 C   0  0  0  0  0  0  0  0  0  0  0  0
  -35.1356   59.1094   63.2299 C   0  0  0  0  0  0  0  0  0  0  0  0
  -34.5040   59.0463   64.6189 C   0  0  0  0  0  0  0  0  0  0  0  0
  -33.0510   58.5317   64.6230 C   0  0  0  0  0  0  0  0  0  0  0  0
  -32.3846   58.4412   63.2418 C   0  0  0  0  0  0  0  0  0  0  0  0
  -31.4755   59.6476   62.9897 C   0  0  0  0  0  0  0  0  0  0  0  0
  -31.7196   60.4204   61.7057 C   0  0  0  0  0  0  0  0  0  0  0  0
  -39.7924   60.4295   64.3653 C   0  0  0  0  0  0  0  0  0  0  0  0
  -39.0799   61.6649   64.1021 O   0  0  0  0  0  0  0  0  0  0  0  0
  -37.0311   61.9262   62.1243 O   0  0  0  0  0  0  0  0  0  0  0  0
  -35.4350   64.6137   64.8864 O   0  0  0  0  0  0  0  0  0  0  0  0
  -37.3798   62.4271   65.6559 O   0  0  0  0  0  0  0  0  0  0  0  0
  -37.6353   61.7897   64.3807 C   0  0  0  0  0  0  0  0  0  0  0  0
  -36.8117   62.5663   63.3434 C   0  0  0  0  0  0  0  0  0  0  0  0
  -35.2936   62.5619   63.6273 C   0  0  0  0  0  0  0  0  0  0  0  0
  -35.1138   63.2270   64.9640 C   0  0  0  0  0  0  0  0  0  0  0  0
  -35.9728   62.5305   66.0039 C   0  0  0  0  0  0  0  0  0  0  0  0
  -37.9813   61.9194   61.9292 H   0  0  0  0  0  0  0  0  0  0  0  0
  -34.8756   65.0382   64.2173 H   0  0  0  0  0  0  0  0  0  0  0  0
  -36.2384   62.7470   68.3695 O   0  0  0  0  0  0  0  0  0  0  0  0
  -35.6564   63.3501   67.2530 C   0  0  0  0  0  0  0  0  0  0  0  0
  -36.0361   63.2694   69.1614 H   0  0  0  0  0  0  0  0  0  0  0  0
  -34.4720   63.3025   62.6963 O   0  0  0  0  0  0  0  0  0  0  0  0
  -35.5849   63.8472   60.4200 O   0  0  0  0  0  0  0  0  0  0  0  0
  -33.9383   65.3724   61.3429 O   0  0  0  0  0  0  0  0  0  0  0  0
  -36.1741   65.2823   62.2746 O   0  0  0  0  0  0  0  0  0  0  0  0
  -35.0753   64.4720   61.6765 S   0  0  0  0  0  0  0  0  0  0  0  0
  -34.8822   63.3147   60.0156 H   0  0  0  0  0  0  0  0  0  0  0  0
  -36.9199   64.7028   62.4953 H   0  0  0  0  0  0  0  0  0  0  0  0
  2  1  1  0  0  0
  2  4  1  0  0  0
  2  5  1  0  0  0
 41 42  1  0  0  0
 41  1  1  0  0  0
 42 46  1  0  0  0
  1 24  1  0  0  0
 23 24  1  0  0  0
 23 25  1  0  0  0
 24 26  1  0  0  0
  3  4  2  0  0  0
 26 27  2  0  0  0
 27 28  1  0  0  0
 43 47  1  0  0  0
 43 51  1  0  0  0
 28 29  1  0  0  0
 56 48  1  0  0  0
 56 60  1  0  0  0
 29 30  1  0  0  0
 57 60  1  0  0  0
 57 61  1  0  0  0
 30 31  1  0  0  0
 44 49  1  0  0  0
 44 52  1  0  0  0
 31 32  1  0  0  0
 45 46  1  0  0  0
 45 50  1  0  0  0
 32 33  1  0  0  0
 53 54  1  0  0  0
 53 55  1  0  0  0
 33 34  1  0  0  0
 34 35  1  0  0  0
 35 36  1  0  0  0
 58 60  1  0  0  0
 36 37  1  0  0  0
 59 60  1  0  0  0
 59 62  1  0  0  0
 37 38  1  0  0  0
 38 39  1  0  0  0
 39 40  1  0  0  0
  4  6  1  0  0  0
  6  7  1  0  0  0
  7  8  1  0  0  0
  8  9  1  0  0  0
  9 10  1  0  0  0
 10 11  1  0  0  0
 11 12  1  0  0  0
 12 13  1  0  0  0
 13 14  1  0  0  0
 14 15  1  0  0  0
 15 16  1  0  0  0
 16 17  1  0  0  0
 17 18  1  0  0  0
 18 19  1  0  0  0
 19 20  1  0  0  0
 20 21  1  0  0  0
 21 22  1  0  0  0
 46 47  1  0  0  0
 47 48  1  0  0  0
 48 49  1  0  0  0
 49 50  1  0  0  0
 50 54  1  0  0  0
M  CHG 1  58  -1
M  END
> <minimizedAffinity>
-9.67710

> <CNNscore>
0.2135892510

> <CNNaffinity>
7.0788259506

> <CNN_VS>
1.5119611025

> <CNNaffinity_variance>
1.1719853878

$$$$
/media/chris/experiments/cd1a-new-docking/inputs/ligands/1onq_ligand.pdb


 62 62  0  0  0  0  0  0  0  0999 V2000
  -41.1197   59.6321   63.9978 C   0  0  0  0  0  0  0  0  0  0  0  0
  -42.4537   60.0989   64.3201 N   0  0  0  0  0  0  0  0  0  0  0  0
  -42.6174   61.9771   63.0579 O   0  0  0  0  0  0  0  0  0  0  0  0
  -43.0842   61.1853   63.8535 C   0  0  0  0  0  0  0  0  0  0  0  0
  -42.9593   59.5493   64.9616 H   0  0  0  0  0  0  0  0  0  0  0  0
  -44.4741   61.3907   64.3786 C   0  0  0  0  0  0  0  0  0  0  0  0
  -44.7093   60.2976   65.4213 C   0  0  0  0  0  0  0  0  0  0  0  0
  -46.2050   60.0261   65.5639 C   0  0  0  0  0  0  0  0  0  0  0  0
  -47.0275   60.1660   64.3059 C   0  0  0  0  0  0  0  0  0  0  0  0
  -48.3574   60.8038   64.6935 C   0  0  0  0  0  0  0  0  0  0  0  0
  -49.0979   60.0160   65.7825 C   0  0  0  0  0  0  0  0  0  0  0  0
  -50.4644   59.4600   65.3419 C   0  0  0  0  0  0  0  0  0  0  0  0
  -51.1814   60.3694   64.3199 C   0  0  0  0  0  0  0  0  0  0  0  0
  -51.3594   59.6438   62.9831 C   0  0  0  0  0  0  0  0  0  0  0  0
  -50.5885   58.3360   62.8515 C   0  0  0  0  0  0  0  0  0  0  0  0
  -49.3668   58.4736   61.9552 C   0  0  0  0  0  0  0  0  0  0  0  0
  -49.5795   59.2312   60.6425 C   0  0  0  0  0  0  0  0  0  0  0  0
  -50.1738   58.2651   59.6266 C   0  0  0  0  0  0  0  0  0  0  0  0
  -49.2430   57.5925   58.6284 C   0  0  0  0  0  0  0  0  0  0  0  0
  -47.9678   58.4244   58.4188 C   0  0  0  0  0  0  0  0  0  0  0  0
  -46.9596   57.8098   57.4304 C   0  0  0  0  0  0  0  0  0  0  0  0
  -47.2048   56.3268   57.1616 C   0  0  0  0  0  0  0  0  0  0  0  0
  -40.2615   57.7976   65.1354 O   0  0  0  0  0  0  0  0  0  0  0  0
  -41.2443   58.1282   64.1717 C   0  0  0  0  0  0  0  0  0  0  0  0
  -40.4596   58.2532   65.9686 H   0  0  0  0  0  0  0  0  0  0  0  0
  -40.9897   57.4397   62.8288 C   0  0  0  0  0  0  0  0  0  0  0  0
  -41.7563   57.6449   61.7442 C   0  0  0  0  0  0  0  0  0  0  0  0
  -41.4370   56.9182   60.4390 C   0  0  0  0  0  0  0  0  0  0  0  0
  -40.6390   57.7638   59.4358 C   0  0  0  0  0  0  0  0  0  0  0  0
  -40.5937   59.2755   59.7258 C   0  0  0  0  0  0  0  0  0  0  0  0
  -39.1312   59.7747   59.8118 C   0  0  0  0  0  0  0  0  0  0  0  0
  -38.0965   58.7159   60.2700 C   0  0  0  0  0  0  0  0  0  0  0  0
  -37.6539   58.8596   61.7453 C   0  0  0  0  0  0  0  0  0  0  0  0
  -37.3332   57.5122   62.4278 C   0  0  0  0  0  0  0  0  0  0  0  0
  -35.9554   57.4727   63.0997 C   0  0  0  0  0  0  0  0  0  0  0  0
  -35.8496   58.1674   64.4556 C   0  0  0  0  0  0  0  0  0  0  0  0
  -34.7278   59.2217   64.5328 C   0  0  0  0  0  0  0  0  0  0  0  0
  -33.3446   58.6787   64.9230 C   0  0  0  0  0  0  0  0  0  0  0  0
  -32.5271   58.3129   63.6807 C   0  0  0  0  0  0  0  0  0  0  0  0
  -31.9090   59.4690   62.9146 C   0  0  0  0  0  0  0  0  0  0  0  0
  -39.9684   60.3321   64.7550 C   0  0  0  0  0  0  0  0  0  0  0  0
  -39.2643   61.3789   64.0398 O   0  0  0  0  0  0  0  0  0  0  0  0
  -37.3750   62.0643   62.0055 O   0  0  0  0  0  0  0  0  0  0  0  0
  -35.8797   64.5828   64.9754 O   0  0  0  0  0  0  0  0  0  0  0  0
  -37.5539   62.1370   65.5841 O   0  0  0  0  0  0  0  0  0  0  0  0
  -37.8242   61.6202   64.2585 C   0  0  0  0  0  0  0  0  0  0  0  0
  -37.1443   62.5862   63.2776 C   0  0  0  0  0  0  0  0  0  0  0  0
  -35.6183   62.7067   63.4830 C   0  0  0  0  0  0  0  0  0  0  0  0
  -35.4221   63.2364   64.8768 C   0  0  0  0  0  0  0  0  0  0  0  0
  -36.1447   62.3456   65.8711 C   0  0  0  0  0  0  0  0  0  0  0  0
  -38.3303   61.9814   61.8585 H   0  0  0  0  0  0  0  0  0  0  0  0
  -35.4058   65.1333   64.3325 H   0  0  0  0  0  0  0  0  0  0  0  0
  -34.4525   63.2107   67.3208 O   0  0  0  0  0  0  0  0  0  0  0  0
  -35.8332   63.0516   67.1890 C   0  0  0  0  0  0  0  0  0  0  0  0
  -34.2573   63.6592   68.1585 H   0  0  0  0  0  0  0  0  0  0  0  0
  -34.9305   63.6253   62.6037 O   0  0  0  0  0  0  0  0  0  0  0  0
  -32.7471   64.2461   61.3530 O   0  0  0  0  0  0  0  0  0  0  0  0
  -32.6591   62.6948   63.2172 O   0  0  0  0  0  0  0  0  0  0  0  0
  -32.9583   65.0665   63.6176 O   0  0  0  0  0  0  0  0  0  0  0  0
  -33.2983   63.9376   62.7057 S   0  0  0  0  0  0  0  0  0  0  0  0
  -32.9589   63.5211   60.7445 H   0  0  0  0  0  0  0  0  0  0  0  0
  -33.3713   65.8812   63.2914 H   0  0  0  0  0  0  0  0  0  0  0  0
  2  1  1  0  0  0
  2  4  1  0  0  0
  2  5  1  0  0  0
 41 42  1  0  0  0
 41  1  1  0  0  0
 42 46  1  0  0  0
  1 24  1  0  0  0
 23 24  1  0  0  0
 23 25  1  0  0  0
 24 26  1  0  0  0
  3  4  2  0  0  0
 26 27  2  0  0  0
 27 28  1  0  0  0
 43 47  1  0  0  0
 43 51  1  0  0  0
 28 29  1  0  0  0
 56 48  1  0  0  0
 56 60  1  0  0  0
 29 30  1  0  0  0
 57 60  1  0  0  0
 57 61  1  0  0  0
 30 31  1  0  0  0
 44 49  1  0  0  0
 44 52  1  0  0  0
 31 32  1  0  0  0
 45 46  1  0  0  0
 45 50  1  0  0  0
 32 33  1  0  0  0
 53 54  1  0  0  0
 53 55  1  0  0  0
 33 34  1  0  0  0
 34 35  1  0  0  0
 35 36  1  0  0  0
 58 60  1  0  0  0
 36 37  1  0  0  0
 59 60  1  0  0  0
 59 62  1  0  0  0
 37 38  1  0  0  0
 38 39  1  0  0  0
 39 40  1  0  0  0
  4  6  1  0  0  0
  6  7  1  0  0  0
  7  8  1  0  0  0
  8  9  1  0  0  0
  9 10  1  0  0  0
 10 11  1  0  0  0
 11 12  1  0  0  0
 12 13  1  0  0  0
 13 14  1  0  0  0
 14 15  1  0  0  0
 15 16  1  0  0  0
 16 17  1  0  0  0
 17 18  1  0  0  0
 18 19  1  0  0  0
 19 20  1  0  0  0
 20 21  1  0  0  0
 21 22  1  0  0  0
 46 47  1  0  0  0
 47 48  1  0  0  0
 48 49  1  0  0  0
 49 50  1  0  0  0
 50 54  1  0  0  0
M  CHG 1  58  -1
M  END
> <minimizedAffinity>
-9.73825

> <CNNscore>
0.2122499198

> <CNNaffinity>
7.0038285255

> <CNN_VS>
1.4865620136

> <CNNaffinity_variance>
1.6436443329

$$$$
/media/chris/experiments/cd1a-new-docking/inputs/ligands/1onq_ligand.pdb


 62 62  0  0  0  0  0  0  0  0999 V2000
  -41.1829   60.4540   63.1180 C   0  0  0  0  0  0  0  0  0  0  0  0
  -42.4720   60.2732   63.7556 N   0  0  0  0  0  0  0  0  0  0  0  0
  -42.8943   62.3484   64.5696 O   0  0  0  0  0  0  0  0  0  0  0  0
  -43.2070   61.1850   64.4069 C   0  0  0  0  0  0  0  0  0  0  0  0
  -42.8553   59.3679   63.7038 H   0  0  0  0  0  0  0  0  0  0  0  0
  -44.5112   60.6823   64.9510 C   0  0  0  0  0  0  0  0  0  0  0  0
  -44.2249   59.3122   65.5660 C   0  0  0  0  0  0  0  0  0  0  0  0
  -45.5313   58.5486   65.7691 C   0  0  0  0  0  0  0  0  0  0  0  0
  -46.3304   58.9157   66.9960 C   0  0  0  0  0  0  0  0  0  0  0  0
  -47.6442   59.5292   66.5235 C   0  0  0  0  0  0  0  0  0  0  0  0
  -48.3058   58.7208   65.3993 C   0  0  0  0  0  0  0  0  0  0  0  0
  -49.8436   58.6869   65.4658 C   0  0  0  0  0  0  0  0  0  0  0  0
  -50.4949   59.9986   64.9749 C   0  0  0  0  0  0  0  0  0  0  0  0
  -49.6509   60.6397   63.8695 C   0  0  0  0  0  0  0  0  0  0  0  0
  -49.9576   60.1519   62.4589 C   0  0  0  0  0  0  0  0  0  0  0  0
  -51.1698   59.2332   62.4165 C   0  0  0  0  0  0  0  0  0  0  0  0
  -50.9288   57.8295   61.8563 C   0  0  0  0  0  0  0  0  0  0  0  0
  -49.5435   57.8006   61.2250 C   0  0  0  0  0  0  0  0  0  0  0  0
  -49.4104   57.3476   59.7785 C   0  0  0  0  0  0  0  0  0  0  0  0
  -48.4869   58.2897   58.9901 C   0  0  0  0  0  0  0  0  0  0  0  0
  -47.5337   57.5785   58.0119 C   0  0  0  0  0  0  0  0  0  0  0  0
  -46.8440   58.5325   57.0394 C   0  0  0  0  0  0  0  0  0  0  0  0
  -42.1104   58.4206   62.4846 O   0  0  0  0  0  0  0  0  0  0  0  0
  -41.2077   59.4062   62.0184 C   0  0  0  0  0  0  0  0  0  0  0  0
  -42.9895   58.8149   62.5976 H   0  0  0  0  0  0  0  0  0  0  0  0
  -39.7969   58.8477   61.8184 C   0  0  0  0  0  0  0  0  0  0  0  0
  -39.4757   57.5658   62.0630 C   0  0  0  0  0  0  0  0  0  0  0  0
  -38.0432   57.0849   61.8393 C   0  0  0  0  0  0  0  0  0  0  0  0
  -36.9802   58.1683   62.0730 C   0  0  0  0  0  0  0  0  0  0  0  0
  -36.5383   58.3642   63.5351 C   0  0  0  0  0  0  0  0  0  0  0  0
  -35.0976   57.8406   63.7484 C   0  0  0  0  0  0  0  0  0  0  0  0
  -34.0393   58.3941   62.7608 C   0  0  0  0  0  0  0  0  0  0  0  0
  -32.5760   58.1728   63.2108 C   0  0  0  0  0  0  0  0  0  0  0  0
  -31.6994   59.4396   63.1058 C   0  0  0  0  0  0  0  0  0  0  0  0
  -32.0491   60.3355   61.9116 C   0  0  0  0  0  0  0  0  0  0  0  0
  -30.8688   60.9770   61.1852 C   0  0  0  0  0  0  0  0  0  0  0  0
  -30.8849   62.5182   61.2042 C   0  0  0  0  0  0  0  0  0  0  0  0
  -29.6384   63.1786   61.8127 C   0  0  0  0  0  0  0  0  0  0  0  0
  -29.8680   63.5351   63.2843 C   0  0  0  0  0  0  0  0  0  0  0  0
  -31.3028   63.8135   63.6956 C   0  0  0  0  0  0  0  0  0  0  0  0
  -39.9634   60.4445   64.0675 C   0  0  0  0  0  0  0  0  0  0  0  0
  -39.2295   61.6890   64.1926 O   0  0  0  0  0  0  0  0  0  0  0  0
  -37.2340   61.9040   62.1556 O   0  0  0  0  0  0  0  0  0  0  0  0
  -35.3578   64.3316   64.9815 O   0  0  0  0  0  0  0  0  0  0  0  0
  -37.4283   62.2514   65.7173 O   0  0  0  0  0  0  0  0  0  0  0  0
  -37.7713   61.6979   64.4236 C   0  0  0  0  0  0  0  0  0  0  0  0
  -36.9288   62.4656   63.3947 C   0  0  0  0  0  0  0  0  0  0  0  0
  -35.4063   62.3403   63.6222 C   0  0  0  0  0  0  0  0  0  0  0  0
  -35.1348   62.9236   64.9814 C   0  0  0  0  0  0  0  0  0  0  0  0
  -36.0067   62.2381   66.0180 C   0  0  0  0  0  0  0  0  0  0  0  0
  -38.1882   61.9738   61.9953 H   0  0  0  0  0  0  0  0  0  0  0  0
  -34.7917   64.7486   64.3132 H   0  0  0  0  0  0  0  0  0  0  0  0
  -36.4365   64.0606   67.5038 O   0  0  0  0  0  0  0  0  0  0  0  0
  -35.5908   62.9701   67.2921 C   0  0  0  0  0  0  0  0  0  0  0  0
  -36.1703   64.5237   68.3135 H   0  0  0  0  0  0  0  0  0  0  0  0
  -34.5649   63.0668   62.6979 O   0  0  0  0  0  0  0  0  0  0  0  0
  -35.5554   63.8120   60.4218 O   0  0  0  0  0  0  0  0  0  0  0  0
  -33.9673   65.2482   61.5641 O   0  0  0  0  0  0  0  0  0  0  0  0
  -36.2497   65.0775   62.3616 O   0  0  0  0  0  0  0  0  0  0  0  0
  -35.1170   64.3226   61.7545 S   0  0  0  0  0  0  0  0  0  0  0  0
  -34.8297   63.3170   60.0105 H   0  0  0  0  0  0  0  0  0  0  0  0
  -37.0040   64.4813   62.4893 H   0  0  0  0  0  0  0  0  0  0  0  0
  2  1  1  0  0  0
  2  4  1  0  0  0
  2  5  1  0  0  0
 41 42  1  0  0  0
 41  1  1  0  0  0
 42 46  1  0  0  0
  1 24  1  0  0  0
 23 24  1  0  0  0
 23 25  1  0  0  0
 24 26  1  0  0  0
  3  4  2  0  0  0
 26 27  2  0  0  0
 27 28  1  0  0  0
 43 47  1  0  0  0
 43 51  1  0  0  0
 28 29  1  0  0  0
 56 48  1  0  0  0
 56 60  1  0  0  0
 29 30  1  0  0  0
 57 60  1  0  0  0
 57 61  1  0  0  0
 30 31  1  0  0  0
 44 49  1  0  0  0
 44 52  1  0  0  0
 31 32  1  0  0  0
 45 46  1  0  0  0
 45 50  1  0  0  0
 32 33  1  0  0  0
 53 54  1  0  0  0
 53 55  1  0  0  0
 33 34  1  0  0  0
 34 35  1  0  0  0
 35 36  1  0  0  0
 58 60  1  0  0  0
 36 37  1  0  0  0
 59 60  1  0  0  0
 59 62  1  0  0  0
 37 38  1  0  0  0
 38 39  1  0  0  0
 39 40  1  0  0  0
  4  6  1  0  0  0
  6  7  1  0  0  0
  7  8  1  0  0  0
  8  9  1  0  0  0
  9 10  1  0  0  0
 10 11  1  0  0  0
 11 12  1  0  0  0
 12 13  1  0  0  0
 13 14  1  0  0  0
 14 15  1  0  0  0
 15 16  1  0  0  0
 16 17  1  0  0  0
 17 18  1  0  0  0
 18 19  1  0  0  0
 19 20  1  0  0  0
 20 21  1  0  0  0
 21 22  1  0  0  0
 46 47  1  0  0  0
 47 48  1  0  0  0
 48 49  1  0  0  0
 49 50  1  0  0  0
 50 54  1  0  0  0
M  CHG 1  58  -1
M  END
> <minimizedAffinity>
-9.30785

> <CNNscore>
0.1939260960

> <CNNaffinity>
6.7492103577

> <CNN_VS>
1.3088480234

> <CNNaffinity_variance>
0.9161011577

$$$$
/media/chris/experiments/cd1a-new-docking/inputs/ligands/1onq_ligand.pdb


 62 62  0  0  0  0  0  0  0  0999 V2000
  -40.8884   60.1176   63.7236 C   0  0  0  0  0  0  0  0  0  0  0  0
  -42.2300   60.5782   64.0219 N   0  0  0  0  0  0  0  0  0  0  0  0
  -42.6402   61.9947   62.2977 O   0  0  0  0  0  0  0  0  0  0  0  0
  -42.9809   61.4426   63.3258 C   0  0  0  0  0  0  0  0  0  0  0  0
  -42.6406   60.2103   64.8376 H   0  0  0  0  0  0  0  0  0  0  0  0
  -44.3418   61.7093   63.8973 C   0  0  0  0  0  0  0  0  0  0  0  0
  -44.6527   60.5447   64.8377 C   0  0  0  0  0  0  0  0  0  0  0  0
  -46.1237   60.1544   64.7159 C   0  0  0  0  0  0  0  0  0  0  0  0
  -46.8591   59.9257   66.0142 C   0  0  0  0  0  0  0  0  0  0  0  0
  -47.4555   58.5230   65.9650 C   0  0  0  0  0  0  0  0  0  0  0  0
  -48.6518   58.4205   65.0093 C   0  0  0  0  0  0  0  0  0  0  0  0
  -49.9871   58.8897   65.6153 C   0  0  0  0  0  0  0  0  0  0  0  0
  -50.6815   59.9783   64.7677 C   0  0  0  0  0  0  0  0  0  0  0  0
  -49.7799   60.4188   63.6110 C   0  0  0  0  0  0  0  0  0  0  0  0
  -50.2618   60.0080   62.2250 C   0  0  0  0  0  0  0  0  0  0  0  0
  -51.1362   58.7635   62.2632 C   0  0  0  0  0  0  0  0  0  0  0  0
  -50.5973   57.5414   61.5159 C   0  0  0  0  0  0  0  0  0  0  0  0
  -50.0659   58.0052   60.1665 C   0  0  0  0  0  0  0  0  0  0  0  0
  -48.7157   57.4845   59.6962 C   0  0  0  0  0  0  0  0  0  0  0  0
  -48.2024   58.2940   58.4948 C   0  0  0  0  0  0  0  0  0  0  0  0
  -46.9763   57.6840   57.7908 C   0  0  0  0  0  0  0  0  0  0  0  0
  -47.2436   56.3002   57.2033 C   0  0  0  0  0  0  0  0  0  0  0  0
  -39.8590   58.3896   64.8856 O   0  0  0  0  0  0  0  0  0  0  0  0
  -40.9692   58.6345   64.0422 C   0  0  0  0  0  0  0  0  0  0  0  0
  -39.9461   58.9160   65.6957 H   0  0  0  0  0  0  0  0  0  0  0  0
  -40.8934   57.8317   62.7414 C   0  0  0  0  0  0  0  0  0  0  0  0
  -41.3115   58.3135   61.5585 C   0  0  0  0  0  0  0  0  0  0  0  0
  -41.2032   57.4487   60.3041 C   0  0  0  0  0  0  0  0  0  0  0  0
  -40.4834   58.1367   59.1349 C   0  0  0  0  0  0  0  0  0  0  0  0
  -39.4229   59.1820   59.5275 C   0  0  0  0  0  0  0  0  0  0  0  0
  -38.0957   58.4942   59.9284 C   0  0  0  0  0  0  0  0  0  0  0  0
  -37.5333   58.8984   61.3147 C   0  0  0  0  0  0  0  0  0  0  0  0
  -37.2954   57.7081   62.2735 C   0  0  0  0  0  0  0  0  0  0  0  0
  -35.8208   57.5450   62.7014 C   0  0  0  0  0  0  0  0  0  0  0  0
  -35.2106   58.8130   63.3107 C   0  0  0  0  0  0  0  0  0  0  0  0
  -34.1740   58.5972   64.4111 C   0  0  0  0  0  0  0  0  0  0  0  0
  -32.7158   58.6299   63.9125 C   0  0  0  0  0  0  0  0  0  0  0  0
  -32.4804   59.4418   62.6297 C   0  0  0  0  0  0  0  0  0  0  0  0
  -31.0540   59.9973   62.5845 C   0  0  0  0  0  0  0  0  0  0  0  0
  -30.7054   60.8664   61.3892 C   0  0  0  0  0  0  0  0  0  0  0  0
  -39.7463   60.9166   64.3914 C   0  0  0  0  0  0  0  0  0  0  0  0
  -38.4826   60.9577   63.6812 O   0  0  0  0  0  0  0  0  0  0  0  0
  -36.6024   61.3535   65.7992 O   0  0  0  0  0  0  0  0  0  0  0  0
  -34.1892   62.7432   62.6937 O   0  0  0  0  0  0  0  0  0  0  0  0
  -37.2090   62.6646   62.5194 O   0  0  0  0  0  0  0  0  0  0  0  0
  -37.5702   62.1116   63.8083 C   0  0  0  0  0  0  0  0  0  0  0  0
  -36.2488   61.8502   64.5453 C   0  0  0  0  0  0  0  0  0  0  0  0
  -35.3914   63.1184   64.7502 C   0  0  0  0  0  0  0  0  0  0  0  0
  -35.0687   63.6344   63.3751 C   0  0  0  0  0  0  0  0  0  0  0  0
  -36.3510   63.8355   62.5879 C   0  0  0  0  0  0  0  0  0  0  0  0
  -37.1425   60.5551   65.6901 H   0  0  0  0  0  0  0  0  0  0  0  0
  -33.3780   62.6293   63.2133 H   0  0  0  0  0  0  0  0  0  0  0  0
  -34.8321   65.3116   61.4799 O   0  0  0  0  0  0  0  0  0  0  0  0
  -35.8082   64.3396   61.2525 C   0  0  0  0  0  0  0  0  0  0  0  0
  -34.4891   65.6301   60.6303 H   0  0  0  0  0  0  0  0  0  0  0  0
  -34.1222   62.9254   65.4150 O   0  0  0  0  0  0  0  0  0  0  0  0
  -34.5919   64.9528   66.9596 O   0  0  0  0  0  0  0  0  0  0  0  0
  -32.3580   64.6151   66.0735 O   0  0  0  0  0  0  0  0  0  0  0  0
  -33.1819   63.2124   67.8702 O   0  0  0  0  0  0  0  0  0  0  0  0
  -33.5604   63.9286   66.6191 S   0  0  0  0  0  0  0  0  0  0  0  0
  -34.8511   65.4303   66.1561 H   0  0  0  0  0  0  0  0  0  0  0  0
  -33.9605   62.7617   68.2328 H   0  0  0  0  0  0  0  0  0  0  0  0
  2  1  1  0  0  0
  2  4  1  0  0  0
  2  5  1  0  0  0
 41 42  1  0  0  0
 41  1  1  0  0  0
 42 46  1  0  0  0
  1 24  1  0  0  0
 23 24  1  0  0  0
 23 25  1  0  0  0
 24 26  1  0  0  0
  3  4  2  0  0  0
 26 27  2  0  0  0
 27 28  1  0  0  0
 43 47  1  0  0  0
 43 51  1  0  0  0
 28 29  1  0  0  0
 56 48  1  0  0  0
 56 60  1  0  0  0
 29 30  1  0  0  0
 57 60  1  0  0  0
 57 61  1  0  0  0
 30 31  1  0  0  0
 44 49  1  0  0  0
 44 52  1  0  0  0
 31 32  1  0  0  0
 45 46  1  0  0  0
 45 50  1  0  0  0
 32 33  1  0  0  0
 53 54  1  0  0  0
 53 55  1  0  0  0
 33 34  1  0  0  0
 34 35  1  0  0  0
 35 36  1  0  0  0
 58 60  1  0  0  0
 36 37  1  0  0  0
 59 60  1  0  0  0
 59 62  1  0  0  0
 37 38  1  0  0  0
 38 39  1  0  0  0
 39 40  1  0  0  0
  4  6  1  0  0  0
  6  7  1  0  0  0
  7  8  1  0  0  0
  8  9  1  0  0  0
  9 10  1  0  0  0
 10 11  1  0  0  0
 11 12  1  0  0  0
 12 13  1  0  0  0
 13 14  1  0  0  0
 14 15  1  0  0  0
 15 16  1  0  0  0
 16 17  1  0  0  0
 17 18  1  0  0  0
 18 19  1  0  0  0
 19 20  1  0  0  0
 20 21  1  0  0  0
 21 22  1  0  0  0
 46 47  1  0  0  0
 47 48  1  0  0  0
 48 49  1  0  0  0
 49 50  1  0  0  0
 50 54  1  0  0  0
M  CHG 1  58  -1
M  END
> <minimizedAffinity>
-9.53711

> <CNNscore>
0.1865762472

> <CNNaffinity>
6.8796815872

> <CNN_VS>
1.2835851908

> <CNNaffinity_variance>
1.0805194378

$$$$
/media/chris/experiments/cd1a-new-docking/inputs/ligands/1onq_ligand.pdb


 62 62  0  0  0  0  0  0  0  0999 V2000
  -38.2987   60.9500   64.0030 C   0  0  0  0  0  0  0  0  0  0  0  0
  -39.6553   60.5228   63.7235 N   0  0  0  0  0  0  0  0  0  0  0  0
  -40.7018   60.9475   65.6913 O   0  0  0  0  0  0  0  0  0  0  0  0
  -40.7150   60.5477   64.5433 C   0  0  0  0  0  0  0  0  0  0  0  0
  -39.8185   60.1704   62.8188 H   0  0  0  0  0  0  0  0  0  0  0  0
  -41.9943   60.0397   63.9474 C   0  0  0  0  0  0  0  0  0  0  0  0
  -42.5184   61.1493   63.0357 C   0  0  0  0  0  0  0  0  0  0  0  0
  -43.8097   61.7286   63.6085 C   0  0  0  0  0  0  0  0  0  0  0  0
  -44.7148   60.7538   64.3220 C   0  0  0  0  0  0  0  0  0  0  0  0
  -46.1264   61.3303   64.2936 C   0  0  0  0  0  0  0  0  0  0  0  0
  -47.2108   60.2446   64.3101 C   0  0  0  0  0  0  0  0  0  0  0  0
  -48.5993   60.7446   64.7488 C   0  0  0  0  0  0  0  0  0  0  0  0
  -49.6825   59.6457   64.6799 C   0  0  0  0  0  0  0  0  0  0  0  0
  -50.9959   60.2155   64.1363 C   0  0  0  0  0  0  0  0  0  0  0  0
  -51.5400   59.5134   62.8981 C   0  0  0  0  0  0  0  0  0  0  0  0
  -50.7890   58.2274   62.5868 C   0  0  0  0  0  0  0  0  0  0  0  0
  -50.4991   57.9607   61.1078 C   0  0  0  0  0  0  0  0  0  0  0  0
  -49.6289   59.0941   60.5817 C   0  0  0  0  0  0  0  0  0  0  0  0
  -48.6944   58.8144   59.4140 C   0  0  0  0  0  0  0  0  0  0  0  0
  -49.1592   57.5829   58.6206 C   0  0  0  0  0  0  0  0  0  0  0  0
  -48.4107   57.3583   57.2937 C   0  0  0  0  0  0  0  0  0  0  0  0
  -47.1159   58.1606   57.1874 C   0  0  0  0  0  0  0  0  0  0  0  0
  -37.2867   62.4310   62.5271 O   0  0  0  0  0  0  0  0  0  0  0  0
  -37.6996   61.0798   62.6132 C   0  0  0  0  0  0  0  0  0  0  0  0
  -36.6147   62.6075   63.2041 H   0  0  0  0  0  0  0  0  0  0  0  0
  -38.7632   60.7341   61.5683 C   0  0  0  0  0  0  0  0  0  0  0  0
  -38.5043   59.9921   60.4782 C   0  0  0  0  0  0  0  0  0  0  0  0
  -39.6211   59.6914   59.4803 C   0  0  0  0  0  0  0  0  0  0  0  0
  -40.9180   59.1892   60.1316 C   0  0  0  0  0  0  0  0  0  0  0  0
  -41.3486   57.7620   59.7454 C   0  0  0  0  0  0  0  0  0  0  0  0
  -41.1955   56.7981   60.9466 C   0  0  0  0  0  0  0  0  0  0  0  0
  -40.0276   57.1239   61.9118 C   0  0  0  0  0  0  0  0  0  0  0  0
  -40.3698   56.9310   63.4080 C   0  0  0  0  0  0  0  0  0  0  0  0
  -41.4283   55.8362   63.6631 C   0  0  0  0  0  0  0  0  0  0  0  0
  -42.6644   56.3366   64.4202 C   0  0  0  0  0  0  0  0  0  0  0  0
  -42.3948   57.2228   65.6343 C   0  0  0  0  0  0  0  0  0  0  0  0
  -43.6709   57.7232   66.3396 C   0  0  0  0  0  0  0  0  0  0  0  0
  -44.9802   57.4821   65.5729 C   0  0  0  0  0  0  0  0  0  0  0  0
  -46.1850   57.5176   66.5176 C   0  0  0  0  0  0  0  0  0  0  0  0
  -46.2415   58.6768   67.4966 C   0  0  0  0  0  0  0  0  0  0  0  0
  -37.5243   60.0831   65.0217 C   0  0  0  0  0  0  0  0  0  0  0  0
  -36.1261   59.8328   64.7293 O   0  0  0  0  0  0  0  0  0  0  0  0
  -34.0059   60.4491   62.9120 O   0  0  0  0  0  0  0  0  0  0  0  0
  -34.8956   64.3697   64.0237 O   0  0  0  0  0  0  0  0  0  0  0  0
  -35.5988   61.9762   65.7360 O   0  0  0  0  0  0  0  0  0  0  0  0
  -35.1024   60.8769   64.9343 C   0  0  0  0  0  0  0  0  0  0  0  0
  -34.5161   61.5073   63.6629 C   0  0  0  0  0  0  0  0  0  0  0  0
  -33.3693   62.5048   63.9371 C   0  0  0  0  0  0  0  0  0  0  0  0
  -33.9595   63.6033   64.7776 C   0  0  0  0  0  0  0  0  0  0  0  0
  -34.6155   63.0101   66.0113 C   0  0  0  0  0  0  0  0  0  0  0  0
  -34.7136   59.8112   62.7298 H   0  0  0  0  0  0  0  0  0  0  0  0
  -34.4561   64.7386   63.2416 H   0  0  0  0  0  0  0  0  0  0  0  0
  -36.5409   64.2834   66.6320 O   0  0  0  0  0  0  0  0  0  0  0  0
  -35.1467   64.2643   66.7019 C   0  0  0  0  0  0  0  0  0  0  0  0
  -36.8757   65.0809   67.0711 H   0  0  0  0  0  0  0  0  0  0  0  0
  -32.7984   63.1498   62.7761 O   0  0  0  0  0  0  0  0  0  0  0  0
  -31.1031   63.4679   60.8418 O   0  0  0  0  0  0  0  0  0  0  0  0
  -31.5618   61.2359   61.6766 O   0  0  0  0  0  0  0  0  0  0  0  0
  -30.1892   62.7617   62.9660 O   0  0  0  0  0  0  0  0  0  0  0  0
  -31.3739   62.6595   62.0673 S   0  0  0  0  0  0  0  0  0  0  0  0
  -31.8647   63.4134   60.2436 H   0  0  0  0  0  0  0  0  0  0  0  0
  -30.0594   63.6871   63.2258 H   0  0  0  0  0  0  0  0  0  0  0  0
  2  1  1  0  0  0
  2  4  1  0  0  0
  2  5  1  0  0  0
 41 42  1  0  0  0
 41  1  1  0  0  0
 42 46  1  0  0  0
  1 24  1  0  0  0
 23 24  1  0  0  0
 23 25  1  0  0  0
 24 26  1  0  0  0
  3  4  2  0  0  0
 26 27  2  0  0  0
 27 28  1  0  0  0
 43 47  1  0  0  0
 43 51  1  0  0  0
 28 29  1  0  0  0
 56 48  1  0  0  0
 56 60  1  0  0  0
 29 30  1  0  0  0
 57 60  1  0  0  0
 57 61  1  0  0  0
 30 31  1  0  0  0
 44 49  1  0  0  0
 44 52  1  0  0  0
 31 32  1  0  0  0
 45 46  1  0  0  0
 45 50  1  0  0  0
 32 33  1  0  0  0
 53 54  1  0  0  0
 53 55  1  0  0  0
 33 34  1  0  0  0
 34 35  1  0  0  0
 35 36  1  0  0  0
 58 60  1  0  0  0
 36 37  1  0  0  0
 59 60  1  0  0  0
 59 62  1  0  0  0
 37 38  1  0  0  0
 38 39  1  0  0  0
 39 40  1  0  0  0
  4  6  1  0  0  0
  6  7  1  0  0  0
  7  8  1  0  0  0
  8  9  1  0  0  0
  9 10  1  0  0  0
 10 11  1  0  0  0
 11 12  1  0  0  0
 12 13  1  0  0  0
 13 14  1  0  0  0
 14 15  1  0  0  0
 15 16  1  0  0  0
 16 17  1  0  0  0
 17 18  1  0  0  0
 18 19  1  0  0  0
 19 20  1  0  0  0
 20 21  1  0  0  0
 21 22  1  0  0  0
 46 47  1  0  0  0
 47 48  1  0  0  0
 48 49  1  0  0  0
 49 50  1  0  0  0
 50 54  1  0  0  0
M  CHG 1  58  -1
M  END
> <minimizedAffinity>
-9.11452

> <CNNscore>
0.1810065061

> <CNNaffinity>
7.1973204613

> <CNN_VS>
1.3027617931

> <CNNaffinity_variance>
0.7489693761

$$$$
/media/chris/experiments/cd1a-new-docking/inputs/ligands/1onq_ligand.pdb


 62 62  0  0  0  0  0  0  0  0999 V2000
  -40.1926   60.0324   63.9185 C   0  0  0  0  0  0  0  0  0  0  0  0
  -41.4823   60.6848   64.0280 N   0  0  0  0  0  0  0  0  0  0  0  0
  -41.9180   61.2404   61.8719 O   0  0  0  0  0  0  0  0  0  0  0  0
  -42.2239   61.2194   63.0483 C   0  0  0  0  0  0  0  0  0  0  0  0
  -41.8605   60.7425   64.9352 H   0  0  0  0  0  0  0  0  0  0  0  0
  -43.5267   61.8180   63.4888 C   0  0  0  0  0  0  0  0  0  0  0  0
  -43.8503   61.1987   64.8486 C   0  0  0  0  0  0  0  0  0  0  0  0
  -45.2296   60.5453   64.8091 C   0  0  0  0  0  0  0  0  0  0  0  0
  -45.2892   59.0958   65.2260 C   0  0  0  0  0  0  0  0  0  0  0  0
  -46.6152   58.8779   65.9471 C   0  0  0  0  0  0  0  0  0  0  0  0
  -47.8274   59.2640   65.0890 C   0  0  0  0  0  0  0  0  0  0  0  0
  -48.9952   59.8765   65.8837 C   0  0  0  0  0  0  0  0  0  0  0  0
  -50.3749   59.3671   65.4120 C   0  0  0  0  0  0  0  0  0  0  0  0
  -51.0712   60.4195   64.5443 C   0  0  0  0  0  0  0  0  0  0  0  0
  -51.5694   59.9160   63.1951 C   0  0  0  0  0  0  0  0  0  0  0  0
  -50.4919   59.1676   62.4244 C   0  0  0  0  0  0  0  0  0  0  0  0
  -50.9407   57.8884   61.7142 C   0  0  0  0  0  0  0  0  0  0  0  0
  -50.4223   57.9319   60.2831 C   0  0  0  0  0  0  0  0  0  0  0  0
  -49.1292   58.6815   59.9983 C   0  0  0  0  0  0  0  0  0  0  0  0
  -48.0972   57.7619   59.3265 C   0  0  0  0  0  0  0  0  0  0  0  0
  -47.5602   58.2811   57.9798 C   0  0  0  0  0  0  0  0  0  0  0  0
  -47.9798   57.4206   56.7902 C   0  0  0  0  0  0  0  0  0  0  0  0
  -39.2087   58.1345   64.8274 O   0  0  0  0  0  0  0  0  0  0  0  0
  -40.4780   58.6420   64.4597 C   0  0  0  0  0  0  0  0  0  0  0  0
  -38.8242   58.6956   65.5190 H   0  0  0  0  0  0  0  0  0  0  0  0
  -41.1418   57.7994   63.3680 C   0  0  0  0  0  0  0  0  0  0  0  0
  -40.6511   56.6183   62.9553 C   0  0  0  0  0  0  0  0  0  0  0  0
  -41.3722   55.8370   61.8584 C   0  0  0  0  0  0  0  0  0  0  0  0
  -41.0712   56.3376   60.4382 C   0  0  0  0  0  0  0  0  0  0  0  0
  -41.7842   57.6384   60.0249 C   0  0  0  0  0  0  0  0  0  0  0  0
  -40.7561   58.7420   59.6782 C   0  0  0  0  0  0  0  0  0  0  0  0
  -39.5122   58.2628   58.8876 C   0  0  0  0  0  0  0  0  0  0  0  0
  -38.2117   59.0281   59.2282 C   0  0  0  0  0  0  0  0  0  0  0  0
  -38.0728   59.3730   60.7268 C   0  0  0  0  0  0  0  0  0  0  0  0
  -37.6133   58.1935   61.5922 C   0  0  0  0  0  0  0  0  0  0  0  0
  -36.1994   58.2892   62.1615 C   0  0  0  0  0  0  0  0  0  0  0  0
  -36.0299   57.6084   63.5340 C   0  0  0  0  0  0  0  0  0  0  0  0
  -35.6621   58.5497   64.6910 C   0  0  0  0  0  0  0  0  0  0  0  0
  -34.3058   59.2177   64.4464 C   0  0  0  0  0  0  0  0  0  0  0  0
  -33.0847   58.4731   64.9563 C   0  0  0  0  0  0  0  0  0  0  0  0
  -39.0042   60.7975   64.5440 C   0  0  0  0  0  0  0  0  0  0  0  0
  -37.9170   61.1485   63.6507 O   0  0  0  0  0  0  0  0  0  0  0  0
  -36.2192   62.0248   65.7785 O   0  0  0  0  0  0  0  0  0  0  0  0
  -34.0381   63.7058   62.6454 O   0  0  0  0  0  0  0  0  0  0  0  0
  -36.9747   63.0130   62.4174 O   0  0  0  0  0  0  0  0  0  0  0  0
  -37.2575   62.4672   63.7288 C   0  0  0  0  0  0  0  0  0  0  0  0
  -35.9337   62.5158   64.5052 C   0  0  0  0  0  0  0  0  0  0  0  0
  -35.3533   63.9394   64.6532 C   0  0  0  0  0  0  0  0  0  0  0  0
  -35.0981   64.4367   63.2571 C   0  0  0  0  0  0  0  0  0  0  0  0
  -36.3701   64.3343   62.4349 C   0  0  0  0  0  0  0  0  0  0  0  0
  -36.5855   61.1296   65.7051 H   0  0  0  0  0  0  0  0  0  0  0  0
  -33.2368   63.7847   63.1864 H   0  0  0  0  0  0  0  0  0  0  0  0
  -35.5131   63.8004   60.2684 O   0  0  0  0  0  0  0  0  0  0  0  0
  -35.8982   64.8663   61.0835 C   0  0  0  0  0  0  0  0  0  0  0  0
  -35.2138   64.1409   59.4108 H   0  0  0  0  0  0  0  0  0  0  0  0
  -34.0920   64.0407   65.3525 O   0  0  0  0  0  0  0  0  0  0  0  0
  -35.3348   64.5275   67.5740 O   0  0  0  0  0  0  0  0  0  0  0  0
  -33.2604   65.6876   67.0837 O   0  0  0  0  0  0  0  0  0  0  0  0
  -33.2257   63.3594   67.7566 O   0  0  0  0  0  0  0  0  0  0  0  0
  -33.9738   64.3860   66.9769 S   0  0  0  0  0  0  0  0  0  0  0  0
  -35.8376   65.1929   67.0787 H   0  0  0  0  0  0  0  0  0  0  0  0
  -33.6841   62.5071   67.6923 H   0  0  0  0  0  0  0  0  0  0  0  0
  2  1  1  0  0  0
  2  4  1  0  0  0
  2  5  1  0  0  0
 41 42  1  0  0  0
 41  1  1  0  0  0
 42 46  1  0  0  0
  1 24  1  0  0  0
 23 24  1  0  0  0
 23 25  1  0  0  0
 24 26  1  0  0  0
  3  4  2  0  0  0
 26 27  2  0  0  0
 27 28  1  0  0  0
 43 47  1  0  0  0
 43 51  1  0  0  0
 28 29  1  0  0  0
 56 48  1  0  0  0
 56 60  1  0  0  0
 29 30  1  0  0  0
 57 60  1  0  0  0
 57 61  1  0  0  0
 30 31  1  0  0  0
 44 49  1  0  0  0
 44 52  1  0  0  0
 31 32  1  0  0  0
 45 46  1  0  0  0
 45 50  1  0  0  0
 32 33  1  0  0  0
 53 54  1  0  0  0
 53 55  1  0  0  0
 33 34  1  0  0  0
 34 35  1  0  0  0
 35 36  1  0  0  0
 58 60  1  0  0  0
 36 37  1  0  0  0
 59 60  1  0  0  0
 59 62  1  0  0  0
 37 38  1  0  0  0
 38 39  1  0  0  0
 39 40  1  0  0  0
  4  6  1  0  0  0
  6  7  1  0  0  0
  7  8  1  0  0  0
  8  9  1  0  0  0
  9 10  1  0  0  0
 10 11  1  0  0  0
 11 12  1  0  0  0
 12 13  1  0  0  0
 13 14  1  0  0  0
 14 15  1  0  0  0
 15 16  1  0  0  0
 16 17  1  0  0  0
 17 18  1  0  0  0
 18 19  1  0  0  0
 19 20  1  0  0  0
 20 21  1  0  0  0
 21 22  1  0  0  0
 46 47  1  0  0  0
 47 48  1  0  0  0
 48 49  1  0  0  0
 49 50  1  0  0  0
 50 54  1  0  0  0
M  CHG 1  58  -1
M  END
> <minimizedAffinity>
-9.77220

> <CNNscore>
0.1667135954

> <CNNaffinity>
6.9884324074

> <CNN_VS>
1.1650667191

> <CNNaffinity_variance>
1.0391973257

$$$$
