/media/chris/experiments/cd1a-new-docking/inputs/ligands/1onq_ligand.pdb


 62 62  0  0  0  0  0  0  0  0999 V2000
  -41.1233   60.0740   65.0339 C   0  0  0  0  0  0  0  0  0  0  0  0
  -41.2448   60.2846   63.6049 N   0  0  0  0  0  0  0  0  0  0  0  0
  -42.3480   62.2648   63.5090 O   0  0  0  0  0  0  0  0  0  0  0  0
  -41.8197   61.3133   62.9672 C   0  0  0  0  0  0  0  0  0  0  0  0
  -40.8567   59.5847   63.0316 H   0  0  0  0  0  0  0  0  0  0  0  0
  -41.7740   61.2412   61.4697 C   0  0  0  0  0  0  0  0  0  0  0  0
  -40.7210   60.1901   61.1184 C   0  0  0  0  0  0  0  0  0  0  0  0
  -41.0621   59.5368   59.7813 C   0  0  0  0  0  0  0  0  0  0  0  0
  -41.1798   58.0319   59.7891 C   0  0  0  0  0  0  0  0  0  0  0  0
  -41.5819   57.6085   61.1980 C   0  0  0  0  0  0  0  0  0  0  0  0
  -40.6028   56.6017   61.8166 C   0  0  0  0  0  0  0  0  0  0  0  0
  -39.3846   57.2452   62.5041 C   0  0  0  0  0  0  0  0  0  0  0  0
  -38.1793   57.4157   61.5535 C   0  0  0  0  0  0  0  0  0  0  0  0
  -37.0828   58.2540   62.2168 C   0  0  0  0  0  0  0  0  0  0  0  0
  -36.5046   57.6630   63.4969 C   0  0  0  0  0  0  0  0  0  0  0  0
  -34.9832   57.6772   63.5035 C   0  0  0  0  0  0  0  0  0  0  0  0
  -34.3255   58.6677   64.4671 C   0  0  0  0  0  0  0  0  0  0  0  0
  -32.8553   58.7927   64.0907 C   0  0  0  0  0  0  0  0  0  0  0  0
  -32.4990   59.2432   62.6818 C   0  0  0  0  0  0  0  0  0  0  0  0
  -31.0879   59.8504   62.6390 C   0  0  0  0  0  0  0  0  0  0  0  0
  -30.9278   61.0255   61.6568 C   0  0  0  0  0  0  0  0  0  0  0  0
  -31.9700   62.1239   61.8542 C   0  0  0  0  0  0  0  0  0  0  0  0
  -41.8843   61.6760   66.5340 O   0  0  0  0  0  0  0  0  0  0  0  0
  -42.3690   60.7537   65.5758 C   0  0  0  0  0  0  0  0  0  0  0  0
  -41.3076   62.3225   66.0975 H   0  0  0  0  0  0  0  0  0  0  0  0
  -43.2888   59.7024   66.2011 C   0  0  0  0  0  0  0  0  0  0  0  0
  -43.8764   58.7267   65.4877 C   0  0  0  0  0  0  0  0  0  0  0  0
  -44.7829   57.7148   66.1860 C   0  0  0  0  0  0  0  0  0  0  0  0
  -46.2807   57.9487   65.9406 C   0  0  0  0  0  0  0  0  0  0  0  0
  -46.6250   59.0539   64.9251 C   0  0  0  0  0  0  0  0  0  0  0  0
  -47.8632   59.8589   65.3880 C   0  0  0  0  0  0  0  0  0  0  0  0
  -49.2309   59.1812   65.1203 C   0  0  0  0  0  0  0  0  0  0  0  0
  -50.3623   60.1657   64.7417 C   0  0  0  0  0  0  0  0  0  0  0  0
  -51.1752   59.7261   63.5048 C   0  0  0  0  0  0  0  0  0  0  0  0
  -50.3171   59.1354   62.3795 C   0  0  0  0  0  0  0  0  0  0  0  0
  -50.9072   57.9330   61.6458 C   0  0  0  0  0  0  0  0  0  0  0  0
  -50.0112   57.3875   60.5163 C   0  0  0  0  0  0  0  0  0  0  0  0
  -49.3025   58.4553   59.6693 C   0  0  0  0  0  0  0  0  0  0  0  0
  -48.8306   57.8737   58.3336 C   0  0  0  0  0  0  0  0  0  0  0  0
  -47.3298   57.7340   58.1505 C   0  0  0  0  0  0  0  0  0  0  0  0
  -39.7710   60.4908   65.6555 C   0  0  0  0  0  0  0  0  0  0  0  0
  -38.5762   59.9858   65.0068 O   0  0  0  0  0  0  0  0  0  0  0  0
  -38.2833   61.6390   62.6920 O   0  0  0  0  0  0  0  0  0  0  0  0
  -36.7163   64.3366   65.4608 O   0  0  0  0  0  0  0  0  0  0  0  0
  -36.8025   61.3507   65.9429 O   0  0  0  0  0  0  0  0  0  0  0  0
  -37.4256   60.8680   64.7279 C   0  0  0  0  0  0  0  0  0  0  0  0
  -37.7183   62.1114   63.8760 C   0  0  0  0  0  0  0  0  0  0  0  0
  -36.4581   62.9299   63.5194 C   0  0  0  0  0  0  0  0  0  0  0  0
  -35.8677   63.3834   64.8259 C   0  0  0  0  0  0  0  0  0  0  0  0
  -35.6322   62.1846   65.7269 C   0  0  0  0  0  0  0  0  0  0  0  0
  -39.0777   61.1215   62.8968 H   0  0  0  0  0  0  0  0  0  0  0  0
  -36.8531   65.0927   64.8687 H   0  0  0  0  0  0  0  0  0  0  0  0
  -36.0463   62.9629   67.9486 O   0  0  0  0  0  0  0  0  0  0  0  0
  -35.0545   62.8532   66.9723 C   0  0  0  0  0  0  0  0  0  0  0  0
  -35.6769   63.3879   68.7386 H   0  0  0  0  0  0  0  0  0  0  0  0
  -36.6790   64.1278   62.7409 O   0  0  0  0  0  0  0  0  0  0  0  0
  -34.2423   64.8313   62.2076 O   0  0  0  0  0  0  0  0  0  0  0  0
  -36.0861   66.0323   61.1844 O   0  0  0  0  0  0  0  0  0  0  0  0
  -35.4881   63.8185   60.3998 O   0  0  0  0  0  0  0  0  0  0  0  0
  -35.6003   64.6896   61.6038 S   0  0  0  0  0  0  0  0  0  0  0  0
  -34.2954   65.3963   62.9942 H   0  0  0  0  0  0  0  0  0  0  0  0
  -35.1718   62.9405   60.6643 H   0  0  0  0  0  0  0  0  0  0  0  0
  2  1  1  0  0  0
  2  4  1  0  0  0
  2  5  1  0  0  0
 41 42  1  0  0  0
 41  1  1  0  0  0
 42 46  1  0  0  0
  1 24  1  0  0  0
 23 24  1  0  0  0
 23 25  1  0  0  0
 24 26  1  0  0  0
  3  4  2  0  0  0
 26 27  2  0  0  0
 27 28  1  0  0  0
 43 47  1  0  0  0
 43 51  1  0  0  0
 28 29  1  0  0  0
 56 48  1  0  0  0
 56 60  1  0  0  0
 29 30  1  0  0  0
 57 60  1  0  0  0
 57 61  1  0  0  0
 30 31  1  0  0  0
 44 49  1  0  0  0
 44 52  1  0  0  0
 31 32  1  0  0  0
 45 46  1  0  0  0
 45 50  1  0  0  0
 32 33  1  0  0  0
 53 54  1  0  0  0
 53 55  1  0  0  0
 33 34  1  0  0  0
 34 35  1  0  0  0
 35 36  1  0  0  0
 58 60  1  0  0  0
 36 37  1  0  0  0
 59 60  1  0  0  0
 59 62  1  0  0  0
 37 38  1  0  0  0
 38 39  1  0  0  0
 39 40  1  0  0  0
  4  6  1  0  0  0
  6  7  1  0  0  0
  7  8  1  0  0  0
  8  9  1  0  0  0
  9 10  1  0  0  0
 10 11  1  0  0  0
 11 12  1  0  0  0
 12 13  1  0  0  0
 13 14  1  0  0  0
 14 15  1  0  0  0
 15 16  1  0  0  0
 16 17  1  0  0  0
 17 18  1  0  0  0
 18 19  1  0  0  0
 19 20  1  0  0  0
 20 21  1  0  0  0
 21 22  1  0  0  0
 46 47  1  0  0  0
 47 48  1  0  0  0
 48 49  1  0  0  0
 49 50  1  0  0  0
 50 54  1  0  0  0
M  CHG 1  58  -1
M  END
> <minimizedAffinity>
-9.28681

> <CNNscore>
0.5030177832

> <CNNaffinity>
7.4911737442

> <CNN_VS>
3.7681937218

> <CNNaffinity_variance>
1.5167903900

$$$$
/media/chris/experiments/cd1a-new-docking/inputs/ligands/1onq_ligand.pdb


 62 62  0  0  0  0  0  0  0  0999 V2000
  -41.7754   60.5604   64.9229 C   0  0  0  0  0  0  0  0  0  0  0  0
  -42.5634   59.3508   64.7923 N   0  0  0  0  0  0  0  0  0  0  0  0
  -42.0362   58.2331   66.6950 O   0  0  0  0  0  0  0  0  0  0  0  0
  -42.6393   58.3182   65.6429 C   0  0  0  0  0  0  0  0  0  0  0  0
  -43.1110   59.2791   63.9774 H   0  0  0  0  0  0  0  0  0  0  0  0
  -43.5595   57.2112   65.2214 C   0  0  0  0  0  0  0  0  0  0  0  0
  -44.9624   57.8149   65.1567 C   0  0  0  0  0  0  0  0  0  0  0  0
  -45.5987   57.8056   66.5446 C   0  0  0  0  0  0  0  0  0  0  0  0
  -46.5355   58.9486   66.8526 C   0  0  0  0  0  0  0  0  0  0  0  0
  -47.6665   58.9055   65.8303 C   0  0  0  0  0  0  0  0  0  0  0  0
  -48.8387   59.8226   66.2042 C   0  0  0  0  0  0  0  0  0  0  0  0
  -50.2082   59.3383   65.6934 C   0  0  0  0  0  0  0  0  0  0  0  0
  -50.9147   60.3760   64.7937 C   0  0  0  0  0  0  0  0  0  0  0  0
  -50.6653   60.0672   63.3147 C   0  0  0  0  0  0  0  0  0  0  0  0
  -50.7719   58.5949   62.9364 C   0  0  0  0  0  0  0  0  0  0  0  0
  -49.8400   58.2239   61.7924 C   0  0  0  0  0  0  0  0  0  0  0  0
  -50.3354   57.1213   60.8538 C   0  0  0  0  0  0  0  0  0  0  0  0
  -49.2275   56.8126   59.8558 C   0  0  0  0  0  0  0  0  0  0  0  0
  -48.0499   57.7706   59.7541 C   0  0  0  0  0  0  0  0  0  0  0  0
  -48.0516   58.5026   58.4028 C   0  0  0  0  0  0  0  0  0  0  0  0
  -47.0167   57.9776   57.3908 C   0  0  0  0  0  0  0  0  0  0  0  0
  -47.0964   56.4683   57.1734 C   0  0  0  0  0  0  0  0  0  0  0  0
  -43.7053   61.6138   64.1736 O   0  0  0  0  0  0  0  0  0  0  0  0
  -42.3434   61.4454   63.8267 C   0  0  0  0  0  0  0  0  0  0  0  0
  -43.7673   62.0574   65.0341 H   0  0  0  0  0  0  0  0  0  0  0  0
  -42.1747   60.7488   62.4744 C   0  0  0  0  0  0  0  0  0  0  0  0
  -41.4110   61.2446   61.4859 C   0  0  0  0  0  0  0  0  0  0  0  0
  -41.2944   60.4893   60.1633 C   0  0  0  0  0  0  0  0  0  0  0  0
  -39.8718   60.0051   59.8472 C   0  0  0  0  0  0  0  0  0  0  0  0
  -39.7701   58.6073   59.2091 C   0  0  0  0  0  0  0  0  0  0  0  0
  -41.0834   57.8140   59.4119 C   0  0  0  0  0  0  0  0  0  0  0  0
  -41.0134   56.6751   60.4605 C   0  0  0  0  0  0  0  0  0  0  0  0
  -41.4733   57.0900   61.8779 C   0  0  0  0  0  0  0  0  0  0  0  0
  -40.3058   57.3854   62.8442 C   0  0  0  0  0  0  0  0  0  0  0  0
  -38.9217   57.1158   62.2415 C   0  0  0  0  0  0  0  0  0  0  0  0
  -37.8172   58.0957   62.6315 C   0  0  0  0  0  0  0  0  0  0  0  0
  -37.2846   57.9004   64.0648 C   0  0  0  0  0  0  0  0  0  0  0  0
  -35.7637   58.0458   64.2237 C   0  0  0  0  0  0  0  0  0  0  0  0
  -35.0326   57.5938   62.9563 C   0  0  0  0  0  0  0  0  0  0  0  0
  -33.5923   58.0510   62.8082 C   0  0  0  0  0  0  0  0  0  0  0  0
  -40.2431   60.3584   64.9369 C   0  0  0  0  0  0  0  0  0  0  0  0
  -39.4574   61.3054   64.1693 O   0  0  0  0  0  0  0  0  0  0  0  0
  -37.4954   61.7266   62.1321 O   0  0  0  0  0  0  0  0  0  0  0  0
  -35.8726   64.3243   64.9638 O   0  0  0  0  0  0  0  0  0  0  0  0
  -37.7214   62.0433   65.6949 O   0  0  0  0  0  0  0  0  0  0  0  0
  -38.0074   61.4613   64.3998 C   0  0  0  0  0  0  0  0  0  0  0  0
  -37.2476   62.3129   63.3727 C   0  0  0  0  0  0  0  0  0  0  0  0
  -35.7202   62.3420   63.5992 C   0  0  0  0  0  0  0  0  0  0  0  0
  -35.5083   62.9462   64.9598 C   0  0  0  0  0  0  0  0  0  0  0  0
  -36.3055   62.1734   65.9949 C   0  0  0  0  0  0  0  0  0  0  0  0
  -38.4517   61.6998   61.9725 H   0  0  0  0  0  0  0  0  0  0  0  0
  -35.3522   64.7983   64.2963 H   0  0  0  0  0  0  0  0  0  0  0  0
  -34.5878   63.1601   67.3325 O   0  0  0  0  0  0  0  0  0  0  0  0
  -35.9651   62.9402   67.2708 C   0  0  0  0  0  0  0  0  0  0  0  0
  -34.3742   63.6473   68.1437 H   0  0  0  0  0  0  0  0  0  0  0  0
  -34.9574   63.1524   62.6765 O   0  0  0  0  0  0  0  0  0  0  0  0
  -32.9765   63.3996   61.0235 O   0  0  0  0  0  0  0  0  0  0  0  0
  -33.0799   61.4669   62.4874 O   0  0  0  0  0  0  0  0  0  0  0  0
  -32.4516   63.6341   63.3720 O   0  0  0  0  0  0  0  0  0  0  0  0
  -33.3312   62.9308   62.3959 S   0  0  0  0  0  0  0  0  0  0  0  0
  -33.5399   62.9518   60.3732 H   0  0  0  0  0  0  0  0  0  0  0  0
  -32.6090   64.5897   63.3191 H   0  0  0  0  0  0  0  0  0  0  0  0
  2  1  1  0  0  0
  2  4  1  0  0  0
  2  5  1  0  0  0
 41 42  1  0  0  0
 41  1  1  0  0  0
 42 46  1  0  0  0
  1 24  1  0  0  0
 23 24  1  0  0  0
 23 25  1  0  0  0
 24 26  1  0  0  0
  3  4  2  0  0  0
 26 27  2  0  0  0
 27 28  1  0  0  0
 43 47  1  0  0  0
 43 51  1  0  0  0
 28 29  1  0  0  0
 56 48  1  0  0  0
 56 60  1  0  0  0
 29 30  1  0  0  0
 57 60  1  0  0  0
 57 61  1  0  0  0
 30 31  1  0  0  0
 44 49  1  0  0  0
 44 52  1  0  0  0
 31 32  1  0  0  0
 45 46  1  0  0  0
 45 50  1  0  0  0
 32 33  1  0  0  0
 53 54  1  0  0  0
 53 55  1  0  0  0
 33 34  1  0  0  0
 34 35  1  0  0  0
 35 36  1  0  0  0
 58 60  1  0  0  0
 36 37  1  0  0  0
 59 60  1  0  0  0
 59 62  1  0  0  0
 37 38  1  0  0  0
 38 39  1  0  0  0
 39 40  1  0  0  0
  4  6  1  0  0  0
  6  7  1  0  0  0
  7  8  1  0  0  0
  8  9  1  0  0  0
  9 10  1  0  0  0
 10 11  1  0  0  0
 11 12  1  0  0  0
 12 13  1  0  0  0
 13 14  1  0  0  0
 14 15  1  0  0  0
 15 16  1  0  0  0
 16 17  1  0  0  0
 17 18  1  0  0  0
 18 19  1  0  0  0
 19 20  1  0  0  0
 20 21  1  0  0  0
 21 22  1  0  0  0
 46 47  1  0  0  0
 47 48  1  0  0  0
 48 49  1  0  0  0
 49 50  1  0  0  0
 50 54  1  0  0  0
M  CHG 1  58  -1
M  END
> <minimizedAffinity>
-9.64670

> <CNNscore>
0.2051207125

> <CNNaffinity>
7.2803177834

> <CNN_VS>
1.4933439493

> <CNNaffinity_variance>
1.5549337864

$$$$
/media/chris/experiments/cd1a-new-docking/inputs/ligands/1onq_ligand.pdb


 62 62  0  0  0  0  0  0  0  0999 V2000
  -39.9438   60.1714   64.4480 C   0  0  0  0  0  0  0  0  0  0  0  0
  -41.3123   60.5625   64.7223 N   0  0  0  0  0  0  0  0  0  0  0  0
  -41.3934   60.4500   66.9868 O   0  0  0  0  0  0  0  0  0  0  0  0
  -41.9180   60.6711   65.9126 C   0  0  0  0  0  0  0  0  0  0  0  0
  -41.8657   60.7747   63.9362 H   0  0  0  0  0  0  0  0  0  0  0  0
  -43.3513   61.1102   65.8612 C   0  0  0  0  0  0  0  0  0  0  0  0
  -43.8739   60.7223   64.4779 C   0  0  0  0  0  0  0  0  0  0  0  0
  -45.3987   60.7977   64.4566 C   0  0  0  0  0  0  0  0  0  0  0  0
  -46.1306   59.5642   64.9273 C   0  0  0  0  0  0  0  0  0  0  0  0
  -46.7374   59.8806   66.2903 C   0  0  0  0  0  0  0  0  0  0  0  0
  -48.2615   60.0503   66.2358 C   0  0  0  0  0  0  0  0  0  0  0  0
  -48.9892   58.9686   65.4164 C   0  0  0  0  0  0  0  0  0  0  0  0
  -50.5105   59.2152   65.3137 C   0  0  0  0  0  0  0  0  0  0  0  0
  -50.8149   60.2774   64.2535 C   0  0  0  0  0  0  0  0  0  0  0  0
  -50.8572   59.7636   62.8194 C   0  0  0  0  0  0  0  0  0  0  0  0
  -49.6282   60.1750   62.0224 C   0  0  0  0  0  0  0  0  0  0  0  0
  -49.6248   59.7818   60.5434 C   0  0  0  0  0  0  0  0  0  0  0  0
  -49.0462   58.3782   60.4255 C   0  0  0  0  0  0  0  0  0  0  0  0
  -48.8945   57.7658   59.0409 C   0  0  0  0  0  0  0  0  0  0  0  0
  -47.8391   58.5214   58.2181 C   0  0  0  0  0  0  0  0  0  0  0  0
  -46.8660   57.6152   57.4416 C   0  0  0  0  0  0  0  0  0  0  0  0
  -47.3887   56.1937   57.2477 C   0  0  0  0  0  0  0  0  0  0  0  0
  -38.5243   58.5936   65.3921 O   0  0  0  0  0  0  0  0  0  0  0  0
  -39.8796   58.7665   65.0220 C   0  0  0  0  0  0  0  0  0  0  0  0
  -38.2879   59.2476   66.0684 H   0  0  0  0  0  0  0  0  0  0  0  0
  -40.3185   57.7620   63.9539 C   0  0  0  0  0  0  0  0  0  0  0  0
  -41.4012   56.9772   64.0881 C   0  0  0  0  0  0  0  0  0  0  0  0
  -41.7730   55.9981   62.9762 C   0  0  0  0  0  0  0  0  0  0  0  0
  -40.7624   55.9566   61.8207 C   0  0  0  0  0  0  0  0  0  0  0  0
  -41.3000   56.4040   60.4488 C   0  0  0  0  0  0  0  0  0  0  0  0
  -41.1815   57.9386   60.2864 C   0  0  0  0  0  0  0  0  0  0  0  0
  -40.1110   58.4161   59.2727 C   0  0  0  0  0  0  0  0  0  0  0  0
  -39.3487   59.6893   59.7091 C   0  0  0  0  0  0  0  0  0  0  0  0
  -38.5550   59.5144   61.0219 C   0  0  0  0  0  0  0  0  0  0  0  0
  -37.5341   58.3709   60.9790 C   0  0  0  0  0  0  0  0  0  0  0  0
  -37.2355   57.6872   62.3115 C   0  0  0  0  0  0  0  0  0  0  0  0
  -35.7559   57.7647   62.7369 C   0  0  0  0  0  0  0  0  0  0  0  0
  -35.3908   58.9669   63.6208 C   0  0  0  0  0  0  0  0  0  0  0  0
  -33.9388   59.3966   63.3923 C   0  0  0  0  0  0  0  0  0  0  0  0
  -32.9397   58.2848   63.1257 C   0  0  0  0  0  0  0  0  0  0  0  0
  -38.8599   61.1694   64.9151 C   0  0  0  0  0  0  0  0  0  0  0  0
  -37.7240   61.3530   64.0323 O   0  0  0  0  0  0  0  0  0  0  0  0
  -35.6819   62.1156   65.8830 O   0  0  0  0  0  0  0  0  0  0  0  0
  -33.8752   63.6513   62.4513 O   0  0  0  0  0  0  0  0  0  0  0  0
  -36.8524   63.1523   62.6582 O   0  0  0  0  0  0  0  0  0  0  0  0
  -36.9762   62.6257   64.0017 C   0  0  0  0  0  0  0  0  0  0  0  0
  -35.5533   62.5874   64.5773 C   0  0  0  0  0  0  0  0  0  0  0  0
  -34.8665   63.9698   64.6264 C   0  0  0  0  0  0  0  0  0  0  0  0
  -34.7855   64.4498   63.2036 C   0  0  0  0  0  0  0  0  0  0  0  0
  -36.1673   64.4311   62.5756 C   0  0  0  0  0  0  0  0  0  0  0  0
  -36.1122   61.2464   65.8718 H   0  0  0  0  0  0  0  0  0  0  0  0
  -33.0003   63.6774   62.8695 H   0  0  0  0  0  0  0  0  0  0  0  0
  -35.5693   63.8477   60.3361 O   0  0  0  0  0  0  0  0  0  0  0  0
  -35.8636   64.9316   61.1652 C   0  0  0  0  0  0  0  0  0  0  0  0
  -35.3768   64.1681   59.4410 H   0  0  0  0  0  0  0  0  0  0  0  0
  -33.5131   63.9881   65.1343 O   0  0  0  0  0  0  0  0  0  0  0  0
  -33.1720   63.3004   67.6097 O   0  0  0  0  0  0  0  0  0  0  0  0
  -34.1593   65.4558   67.0913 O   0  0  0  0  0  0  0  0  0  0  0  0
  -31.7802   65.1011   66.7935 O   0  0  0  0  0  0  0  0  0  0  0  0
  -33.1247   64.4680   66.6806 S   0  0  0  0  0  0  0  0  0  0  0  0
  -34.0415   62.8747   67.5500 H   0  0  0  0  0  0  0  0  0  0  0  0
  -31.0993   64.4637   66.5274 H   0  0  0  0  0  0  0  0  0  0  0  0
  2  1  1  0  0  0
  2  4  1  0  0  0
  2  5  1  0  0  0
 41 42  1  0  0  0
 41  1  1  0  0  0
 42 46  1  0  0  0
  1 24  1  0  0  0
 23 24  1  0  0  0
 23 25  1  0  0  0
 24 26  1  0  0  0
  3  4  2  0  0  0
 26 27  2  0  0  0
 27 28  1  0  0  0
 43 47  1  0  0  0
 43 51  1  0  0  0
 28 29  1  0  0  0
 56 48  1  0  0  0
 56 60  1  0  0  0
 29 30  1  0  0  0
 57 60  1  0  0  0
 57 61  1  0  0  0
 30 31  1  0  0  0
 44 49  1  0  0  0
 44 52  1  0  0  0
 31 32  1  0  0  0
 45 46  1  0  0  0
 45 50  1  0  0  0
 32 33  1  0  0  0
 53 54  1  0  0  0
 53 55  1  0  0  0
 33 34  1  0  0  0
 34 35  1  0  0  0
 35 36  1  0  0  0
 58 60  1  0  0  0
 36 37  1  0  0  0
 59 60  1  0  0  0
 59 62  1  0  0  0
 37 38  1  0  0  0
 38 39  1  0  0  0
 39 40  1  0  0  0
  4  6  1  0  0  0
  6  7  1  0  0  0
  7  8  1  0  0  0
  8  9  1  0  0  0
  9 10  1  0  0  0
 10 11  1  0  0  0
 11 12  1  0  0  0
 12 13  1  0  0  0
 13 14  1  0  0  0
 14 15  1  0  0  0
 15 16  1  0  0  0
 16 17  1  0  0  0
 17 18  1  0  0  0
 18 19  1  0  0  0
 19 20  1  0  0  0
 20 21  1  0  0  0
 21 22  1  0  0  0
 46 47  1  0  0  0
 47 48  1  0  0  0
 48 49  1  0  0  0
 49 50  1  0  0  0
 50 54  1  0  0  0
M  CHG 1  58  -1
M  END
> <minimizedAffinity>
-9.37673

> <CNNscore>
0.1799274832

> <CNNaffinity>
7.0351953506

> <CNN_VS>
1.2658250332

> <CNNaffinity_variance>
0.9075420499

$$$$
/media/chris/experiments/cd1a-new-docking/inputs/ligands/1onq_ligand.pdb


 62 62  0  0  0  0  0  0  0  0999 V2000
  -41.6410   60.3180   65.4052 C   0  0  0  0  0  0  0  0  0  0  0  0
  -41.7746   60.5167   63.9756 N   0  0  0  0  0  0  0  0  0  0  0  0
  -42.6072   62.6242   63.8650 O   0  0  0  0  0  0  0  0  0  0  0  0
  -42.2258   61.6011   63.3306 C   0  0  0  0  0  0  0  0  0  0  0  0
  -41.4996   59.7608   63.4079 H   0  0  0  0  0  0  0  0  0  0  0  0
  -42.2333   61.4961   61.8344 C   0  0  0  0  0  0  0  0  0  0  0  0
  -41.5040   60.1981   61.4875 C   0  0  0  0  0  0  0  0  0  0  0  0
  -40.5636   60.4278   60.3068 C   0  0  0  0  0  0  0  0  0  0  0  0
  -40.1981   59.2042   59.5019 C   0  0  0  0  0  0  0  0  0  0  0  0
  -41.3550   58.2167   59.6138 C   0  0  0  0  0  0  0  0  0  0  0  0
  -40.8847   56.7802   59.8789 C   0  0  0  0  0  0  0  0  0  0  0  0
  -41.6780   56.0477   60.9766 C   0  0  0  0  0  0  0  0  0  0  0  0
  -40.8466   55.8004   62.2546 C   0  0  0  0  0  0  0  0  0  0  0  0
  -40.8557   57.0404   63.1531 C   0  0  0  0  0  0  0  0  0  0  0  0
  -39.5087   57.7367   63.3049 C   0  0  0  0  0  0  0  0  0  0  0  0
  -38.4997   57.2751   62.2638 C   0  0  0  0  0  0  0  0  0  0  0  0
  -37.0762   57.8138   62.4238 C   0  0  0  0  0  0  0  0  0  0  0  0
  -36.7519   57.8669   63.9107 C   0  0  0  0  0  0  0  0  0  0  0  0
  -35.3226   57.5949   64.3556 C   0  0  0  0  0  0  0  0  0  0  0  0
  -34.5788   58.9074   64.6490 C   0  0  0  0  0  0  0  0  0  0  0  0
  -33.2045   59.0291   63.9651 C   0  0  0  0  0  0  0  0  0  0  0  0
  -33.2696   58.8762   62.4472 C   0  0  0  0  0  0  0  0  0  0  0  0
  -42.6674   61.2990   67.2437 O   0  0  0  0  0  0  0  0  0  0  0  0
  -42.9639   60.8418   65.9372 C   0  0  0  0  0  0  0  0  0  0  0  0
  -42.0139   62.0143   67.1953 H   0  0  0  0  0  0  0  0  0  0  0  0
  -43.9926   59.7085   65.9424 C   0  0  0  0  0  0  0  0  0  0  0  0
  -45.2511   59.8604   65.4960 C   0  0  0  0  0  0  0  0  0  0  0  0
  -46.2195   58.6799   65.5355 C   0  0  0  0  0  0  0  0  0  0  0  0
  -47.5887   58.9776   64.9072 C   0  0  0  0  0  0  0  0  0  0  0  0
  -47.7410   60.3717   64.2709 C   0  0  0  0  0  0  0  0  0  0  0  0
  -49.2238   60.8152   64.2682 C   0  0  0  0  0  0  0  0  0  0  0  0
  -50.2593   59.6623   64.2625 C   0  0  0  0  0  0  0  0  0  0  0  0
  -51.1651   59.6307   63.0090 C   0  0  0  0  0  0  0  0  0  0  0  0
  -50.9324   58.3972   62.1099 C   0  0  0  0  0  0  0  0  0  0  0  0
  -49.4543   58.1245   61.8056 C   0  0  0  0  0  0  0  0  0  0  0  0
  -49.0548   58.1590   60.3319 C   0  0  0  0  0  0  0  0  0  0  0  0
  -48.9562   56.7668   59.6775 C   0  0  0  0  0  0  0  0  0  0  0  0
  -47.5927   56.4313   59.0545 C   0  0  0  0  0  0  0  0  0  0  0  0
  -47.5437   56.8477   57.5816 C   0  0  0  0  0  0  0  0  0  0  0  0
  -47.0734   58.2627   57.2953 C   0  0  0  0  0  0  0  0  0  0  0  0
  -40.3538   60.8921   66.0396 C   0  0  0  0  0  0  0  0  0  0  0  0
  -39.1357   60.1320   65.8355 O   0  0  0  0  0  0  0  0  0  0  0  0
  -38.6073   60.9241   63.1392 O   0  0  0  0  0  0  0  0  0  0  0  0
  -36.8845   64.2348   65.0023 O   0  0  0  0  0  0  0  0  0  0  0  0
  -37.2725   61.5793   66.4001 O   0  0  0  0  0  0  0  0  0  0  0  0
  -37.8971   60.7829   65.3642 C   0  0  0  0  0  0  0  0  0  0  0  0
  -38.0403   61.7055   64.1453 C   0  0  0  0  0  0  0  0  0  0  0  0
  -36.6962   62.2626   63.6275 C   0  0  0  0  0  0  0  0  0  0  0  0
  -36.1099   63.0635   64.7572 C   0  0  0  0  0  0  0  0  0  0  0  0
  -36.0211   62.2033   66.0048 C   0  0  0  0  0  0  0  0  0  0  0  0
  -39.4540   60.5651   63.4472 H   0  0  0  0  0  0  0  0  0  0  0  0
  -36.9281   64.7687   64.1936 H   0  0  0  0  0  0  0  0  0  0  0  0
  -36.4518   63.8320   67.7005 O   0  0  0  0  0  0  0  0  0  0  0  0
  -35.4247   63.1885   67.0076 C   0  0  0  0  0  0  0  0  0  0  0  0
  -36.0704   64.4571   68.3367 H   0  0  0  0  0  0  0  0  0  0  0  0
  -36.7748   63.1602   62.4971 O   0  0  0  0  0  0  0  0  0  0  0  0
  -35.5415   64.0094   60.3816 O   0  0  0  0  0  0  0  0  0  0  0  0
  -34.2559   63.1650   62.2586 O   0  0  0  0  0  0  0  0  0  0  0  0
  -35.2970   65.3504   62.3785 O   0  0  0  0  0  0  0  0  0  0  0  0
  -35.4541   63.9579   61.8711 S   0  0  0  0  0  0  0  0  0  0  0  0
  -35.6443   63.1103   60.0325 H   0  0  0  0  0  0  0  0  0  0  0  0
  -36.0743   65.8747   62.1302 H   0  0  0  0  0  0  0  0  0  0  0  0
  2  1  1  0  0  0
  2  4  1  0  0  0
  2  5  1  0  0  0
 41 42  1  0  0  0
 41  1  1  0  0  0
 42 46  1  0  0  0
  1 24  1  0  0  0
 23 24  1  0  0  0
 23 25  1  0  0  0
 24 26  1  0  0  0
  3  4  2  0  0  0
 26 27  2  0  0  0
 27 28  1  0  0  0
 43 47  1  0  0  0
 43 51  1  0  0  0
 28 29  1  0  0  0
 56 48  1  0  0  0
 56 60  1  0  0  0
 29 30  1  0  0  0
 57 60  1  0  0  0
 57 61  1  0  0  0
 30 31  1  0  0  0
 44 49  1  0  0  0
 44 52  1  0  0  0
 31 32  1  0  0  0
 45 46  1  0  0  0
 45 50  1  0  0  0
 32 33  1  0  0  0
 53 54  1  0  0  0
 53 55  1  0  0  0
 33 34  1  0  0  0
 34 35  1  0  0  0
 35 36  1  0  0  0
 58 60  1  0  0  0
 36 37  1  0  0  0
 59 60  1  0  0  0
 59 62  1  0  0  0
 37 38  1  0  0  0
 38 39  1  0  0  0
 39 40  1  0  0  0
  4  6  1  0  0  0
  6  7  1  0  0  0
  7  8  1  0  0  0
  8  9  1  0  0  0
  9 10  1  0  0  0
 10 11  1  0  0  0
 11 12  1  0  0  0
 12 13  1  0  0  0
 13 14  1  0  0  0
 14 15  1  0  0  0
 15 16  1  0  0  0
 16 17  1  0  0  0
 17 18  1  0  0  0
 18 19  1  0  0  0
 19 20  1  0  0  0
 20 21  1  0  0  0
 21 22  1  0  0  0
 46 47  1  0  0  0
 47 48  1  0  0  0
 48 49  1  0  0  0
 49 50  1  0  0  0
 50 54  1  0  0  0
M  CHG 1  58  -1
M  END
> <minimizedAffinity>
-9.31190

> <CNNscore>
0.1707548797

> <CNNaffinity>
7.1596908569

> <CNN_VS>
1.2225521803

> <CNNaffinity_variance>
1.9247153997

$$$$
/media/chris/experiments/cd1a-new-docking/inputs/ligands/1onq_ligand.pdb


 62 62  0  0  0  0  0  0  0  0999 V2000
  -39.6747   60.6236   63.5746 C   0  0  0  0  0  0  0  0  0  0  0  0
  -40.9864   61.2374   63.5125 N   0  0  0  0  0  0  0  0  0  0  0  0
  -41.6150   60.7993   61.3770 O   0  0  0  0  0  0  0  0  0  0  0  0
  -41.8288   61.2835   62.4714 C   0  0  0  0  0  0  0  0  0  0  0  0
  -41.2970   61.6749   64.3379 H   0  0  0  0  0  0  0  0  0  0  0  0
  -43.1253   61.9916   62.7310 C   0  0  0  0  0  0  0  0  0  0  0  0
  -43.4723   61.7364   64.1978 C   0  0  0  0  0  0  0  0  0  0  0  0
  -44.9006   61.2090   64.3116 C   0  0  0  0  0  0  0  0  0  0  0  0
  -45.0771   59.9381   65.1069 C   0  0  0  0  0  0  0  0  0  0  0  0
  -46.3620   59.2700   64.6285 C   0  0  0  0  0  0  0  0  0  0  0  0
  -47.4043   60.2792   64.1284 C   0  0  0  0  0  0  0  0  0  0  0  0
  -48.6602   60.3818   65.0133 C   0  0  0  0  0  0  0  0  0  0  0  0
  -49.8910   60.9170   64.2490 C   0  0  0  0  0  0  0  0  0  0  0  0
  -50.9782   59.8425   64.1562 C   0  0  0  0  0  0  0  0  0  0  0  0
  -51.1777   59.2450   62.7687 C   0  0  0  0  0  0  0  0  0  0  0  0
  -50.2833   58.0384   62.5257 C   0  0  0  0  0  0  0  0  0  0  0  0
  -50.2085   57.5385   61.0811 C   0  0  0  0  0  0  0  0  0  0  0  0
  -48.8807   57.9914   60.4890 C   0  0  0  0  0  0  0  0  0  0  0  0
  -48.8934   58.7768   59.1859 C   0  0  0  0  0  0  0  0  0  0  0  0
  -47.7333   58.3475   58.2738 C   0  0  0  0  0  0  0  0  0  0  0  0
  -48.1334   57.3805   57.1442 C   0  0  0  0  0  0  0  0  0  0  0  0
  -47.4696   56.0102   57.2588 C   0  0  0  0  0  0  0  0  0  0  0  0
  -38.2773   59.6795   65.1720 O   0  0  0  0  0  0  0  0  0  0  0  0
  -39.6121   60.1207   65.0066 C   0  0  0  0  0  0  0  0  0  0  0  0
  -37.6719   60.4273   65.0482 H   0  0  0  0  0  0  0  0  0  0  0  0
  -40.6217   58.9850   65.1896 C   0  0  0  0  0  0  0  0  0  0  0  0
  -40.6426   57.8914   64.4088 C   0  0  0  0  0  0  0  0  0  0  0  0
  -41.6837   56.8011   64.6551 C   0  0  0  0  0  0  0  0  0  0  0  0
  -41.8143   55.7945   63.5028 C   0  0  0  0  0  0  0  0  0  0  0  0
  -40.7235   55.8770   62.4190 C   0  0  0  0  0  0  0  0  0  0  0  0
  -41.3423   56.2165   61.0416 C   0  0  0  0  0  0  0  0  0  0  0  0
  -41.2799   57.7115   60.6385 C   0  0  0  0  0  0  0  0  0  0  0  0
  -40.7281   57.9613   59.2151 C   0  0  0  0  0  0  0  0  0  0  0  0
  -39.2524   58.4152   59.1957 C   0  0  0  0  0  0  0  0  0  0  0  0
  -38.7470   58.9314   60.5484 C   0  0  0  0  0  0  0  0  0  0  0  0
  -37.4035   58.3780   61.0187 C   0  0  0  0  0  0  0  0  0  0  0  0
  -37.4762   57.6077   62.3520 C   0  0  0  0  0  0  0  0  0  0  0  0
  -36.3002   57.8464   63.3110 C   0  0  0  0  0  0  0  0  0  0  0  0
  -34.9887   58.0214   62.5401 C   0  0  0  0  0  0  0  0  0  0  0  0
  -33.7732   58.4212   63.3575 C   0  0  0  0  0  0  0  0  0  0  0  0
  -38.5027   61.5072   63.0903 C   0  0  0  0  0  0  0  0  0  0  0  0
  -37.7908   62.2550   64.1088 O   0  0  0  0  0  0  0  0  0  0  0  0
  -36.2805   63.4561   61.9985 O   0  0  0  0  0  0  0  0  0  0  0  0
  -34.0227   64.9508   65.1714 O   0  0  0  0  0  0  0  0  0  0  0  0
  -35.7535   62.4800   65.4064 O   0  0  0  0  0  0  0  0  0  0  0  0
  -36.3202   62.3826   64.0772 C   0  0  0  0  0  0  0  0  0  0  0  0
  -35.7622   63.5752   63.2874 C   0  0  0  0  0  0  0  0  0  0  0  0
  -34.2208   63.5891   63.1912 C   0  0  0  0  0  0  0  0  0  0  0  0
  -33.7122   63.6808   64.6033 C   0  0  0  0  0  0  0  0  0  0  0  0
  -34.3027   62.5573   65.4361 C   0  0  0  0  0  0  0  0  0  0  0  0
  -37.2495   63.4457   62.0393 H   0  0  0  0  0  0  0  0  0  0  0  0
  -33.6365   65.6528   64.6245 H   0  0  0  0  0  0  0  0  0  0  0  0
  -34.6144   63.4739   67.6215 O   0  0  0  0  0  0  0  0  0  0  0  0
  -33.6806   62.8367   66.8024 C   0  0  0  0  0  0  0  0  0  0  0  0
  -34.2169   63.6502   68.4886 H   0  0  0  0  0  0  0  0  0  0  0  0
  -33.6396   64.7063   62.4814 O   0  0  0  0  0  0  0  0  0  0  0  0
  -31.4514   63.3704   62.1011 O   0  0  0  0  0  0  0  0  0  0  0  0
  -31.3308   65.7037   62.7572 O   0  0  0  0  0  0  0  0  0  0  0  0
  -31.9449   65.1048   60.4903 O   0  0  0  0  0  0  0  0  0  0  0  0
  -32.0707   64.7173   61.9240 S   0  0  0  0  0  0  0  0  0  0  0  0
  -31.5239   63.1008   63.0300 H   0  0  0  0  0  0  0  0  0  0  0  0
  -32.4248   64.4666   59.9396 H   0  0  0  0  0  0  0  0  0  0  0  0
  2  1  1  0  0  0
  2  4  1  0  0  0
  2  5  1  0  0  0
 41 42  1  0  0  0
 41  1  1  0  0  0
 42 46  1  0  0  0
  1 24  1  0  0  0
 23 24  1  0  0  0
 23 25  1  0  0  0
 24 26  1  0  0  0
  3  4  2  0  0  0
 26 27  2  0  0  0
 27 28  1  0  0  0
 43 47  1  0  0  0
 43 51  1  0  0  0
 28 29  1  0  0  0
 56 48  1  0  0  0
 56 60  1  0  0  0
 29 30  1  0  0  0
 57 60  1  0  0  0
 57 61  1  0  0  0
 30 31  1  0  0  0
 44 49  1  0  0  0
 44 52  1  0  0  0
 31 32  1  0  0  0
 45 46  1  0  0  0
 45 50  1  0  0  0
 32 33  1  0  0  0
 53 54  1  0  0  0
 53 55  1  0  0  0
 33 34  1  0  0  0
 34 35  1  0  0  0
 35 36  1  0  0  0
 58 60  1  0  0  0
 36 37  1  0  0  0
 59 60  1  0  0  0
 59 62  1  0  0  0
 37 38  1  0  0  0
 38 39  1  0  0  0
 39 40  1  0  0  0
  4  6  1  0  0  0
  6  7  1  0  0  0
  7  8  1  0  0  0
  8  9  1  0  0  0
  9 10  1  0  0  0
 10 11  1  0  0  0
 11 12  1  0  0  0
 12 13  1  0  0  0
 13 14  1  0  0  0
 14 15  1  0  0  0
 15 16  1  0  0  0
 16 17  1  0  0  0
 17 18  1  0  0  0
 18 19  1  0  0  0
 19 20  1  0  0  0
 20 21  1  0  0  0
 21 22  1  0  0  0
 46 47  1  0  0  0
 47 48  1  0  0  0
 48 49  1  0  0  0
 49 50  1  0  0  0
 50 54  1  0  0  0
M  CHG 1  58  -1
M  END
> <minimizedAffinity>
-9.33960

> <CNNscore>
0.1647973657

> <CNNaffinity>
6.9121351242

> <CNN_VS>
1.1391016245

> <CNNaffinity_variance>
1.2934494019

$$$$
/media/chris/experiments/cd1a-new-docking/inputs/ligands/1onq_ligand.pdb


 62 62  0  0  0  0  0  0  0  0999 V2000
  -41.4739   60.0599   65.4752 C   0  0  0  0  0  0  0  0  0  0  0  0
  -41.6235   59.7244   64.0730 N   0  0  0  0  0  0  0  0  0  0  0  0
  -41.0287   61.6628   63.0551 O   0  0  0  0  0  0  0  0  0  0  0  0
  -41.4026   60.5070   63.0080 C   0  0  0  0  0  0  0  0  0  0  0  0
  -41.9247   58.8075   63.8790 H   0  0  0  0  0  0  0  0  0  0  0  0
  -41.6423   59.8565   61.6778 C   0  0  0  0  0  0  0  0  0  0  0  0
  -41.3615   60.9216   60.6178 C   0  0  0  0  0  0  0  0  0  0  0  0
  -40.7432   60.2754   59.3803 C   0  0  0  0  0  0  0  0  0  0  0  0
  -40.7535   58.7663   59.3447 C   0  0  0  0  0  0  0  0  0  0  0  0
  -39.3713   58.3067   58.8923 C   0  0  0  0  0  0  0  0  0  0  0  0
  -38.2370   59.1057   59.5478 C   0  0  0  0  0  0  0  0  0  0  0  0
  -38.1666   58.9635   61.0794 C   0  0  0  0  0  0  0  0  0  0  0  0
  -38.1369   57.4911   61.5450 C   0  0  0  0  0  0  0  0  0  0  0  0
  -39.3316   57.1880   62.4538 C   0  0  0  0  0  0  0  0  0  0  0  0
  -40.4425   56.3694   61.8072 C   0  0  0  0  0  0  0  0  0  0  0  0
  -41.3428   55.7031   62.8369 C   0  0  0  0  0  0  0  0  0  0  0  0
  -41.4964   56.4387   64.1702 C   0  0  0  0  0  0  0  0  0  0  0  0
  -42.9088   56.1984   64.6861 C   0  0  0  0  0  0  0  0  0  0  0  0
  -43.8246   57.3963   64.8894 C   0  0  0  0  0  0  0  0  0  0  0  0
  -44.1608   57.5852   66.3771 C   0  0  0  0  0  0  0  0  0  0  0  0
  -45.6610   57.4865   66.7102 C   0  0  0  0  0  0  0  0  0  0  0  0
  -46.1657   58.6420   67.5714 C   0  0  0  0  0  0  0  0  0  0  0  0
  -41.8297   61.9237   66.8152 O   0  0  0  0  0  0  0  0  0  0  0  0
  -42.2568   61.3565   65.5906 C   0  0  0  0  0  0  0  0  0  0  0  0
  -40.8776   62.1047   66.7729 H   0  0  0  0  0  0  0  0  0  0  0  0
  -43.7554   61.0456   65.5907 C   0  0  0  0  0  0  0  0  0  0  0  0
  -44.5533   61.2884   64.5369 C   0  0  0  0  0  0  0  0  0  0  0  0
  -46.0409   60.9504   64.6157 C   0  0  0  0  0  0  0  0  0  0  0  0
  -46.3888   59.5496   64.0914 C   0  0  0  0  0  0  0  0  0  0  0  0
  -47.8909   59.2550   63.9234 C   0  0  0  0  0  0  0  0  0  0  0  0
  -48.7149   60.5646   63.9601 C   0  0  0  0  0  0  0  0  0  0  0  0
  -50.1884   60.4324   63.4987 C   0  0  0  0  0  0  0  0  0  0  0  0
  -50.7535   58.9952   63.5878 C   0  0  0  0  0  0  0  0  0  0  0  0
  -50.9911   58.3385   62.2107 C   0  0  0  0  0  0  0  0  0  0  0  0
  -50.2225   59.0091   61.0656 C   0  0  0  0  0  0  0  0  0  0  0  0
  -49.0230   58.2374   60.5197 C   0  0  0  0  0  0  0  0  0  0  0  0
  -49.0875   57.9718   59.0027 C   0  0  0  0  0  0  0  0  0  0  0  0
  -47.8224   58.3495   58.2174 C   0  0  0  0  0  0  0  0  0  0  0  0
  -46.8751   57.1528   58.0922 C   0  0  0  0  0  0  0  0  0  0  0  0
  -47.2687   56.0820   57.0903 C   0  0  0  0  0  0  0  0  0  0  0  0
  -40.0226   60.0679   66.0067 C   0  0  0  0  0  0  0  0  0  0  0  0
  -39.1919   61.1873   65.6063 O   0  0  0  0  0  0  0  0  0  0  0  0
  -37.5679   63.2836   64.5363 O   0  0  0  0  0  0  0  0  0  0  0  0
  -34.4831   60.5939   65.3416 O   0  0  0  0  0  0  0  0  0  0  0  0
  -37.3592   59.7319   64.9673 O   0  0  0  0  0  0  0  0  0  0  0  0
  -38.0228   60.9962   64.7250 C   0  0  0  0  0  0  0  0  0  0  0  0
  -36.9314   62.0730   64.8073 C   0  0  0  0  0  0  0  0  0  0  0  0
  -35.7935   61.8827   63.7806 C   0  0  0  0  0  0  0  0  0  0  0  0
  -35.1655   60.5520   64.0908 C   0  0  0  0  0  0  0  0  0  0  0  0
  -36.2296   59.4695   64.0916 C   0  0  0  0  0  0  0  0  0  0  0  0
  -38.2871   63.4203   65.1726 H   0  0  0  0  0  0  0  0  0  0  0  0
  -33.8090   61.2912   65.3190 H   0  0  0  0  0  0  0  0  0  0  0  0
  -34.2036   58.2594   63.7120 O   0  0  0  0  0  0  0  0  0  0  0  0
  -35.4003   58.2328   64.4303 C   0  0  0  0  0  0  0  0  0  0  0  0
  -33.6786   57.4730   63.9289 H   0  0  0  0  0  0  0  0  0  0  0  0
  -34.7237   62.8537   63.8321 O   0  0  0  0  0  0  0  0  0  0  0  0
  -33.4306   64.9855   63.1247 O   0  0  0  0  0  0  0  0  0  0  0  0
  -35.8315   64.8752   62.7893 O   0  0  0  0  0  0  0  0  0  0  0  0
  -34.3392   63.6368   61.3354 O   0  0  0  0  0  0  0  0  0  0  0  0
  -34.5647   64.0961   62.7352 S   0  0  0  0  0  0  0  0  0  0  0  0
  -33.5602   65.2949   64.0347 H   0  0  0  0  0  0  0  0  0  0  0  0
  -33.5148   63.1277   61.2910 H   0  0  0  0  0  0  0  0  0  0  0  0
  2  1  1  0  0  0
  2  4  1  0  0  0
  2  5  1  0  0  0
 41 42  1  0  0  0
 41  1  1  0  0  0
 42 46  1  0  0  0
  1 24  1  0  0  0
 23 24  1  0  0  0
 23 25  1  0  0  0
 24 26  1  0  0  0
  3  4  2  0  0  0
 26 27  2  0  0  0
 27 28  1  0  0  0
 43 47  1  0  0  0
 43 51  1  0  0  0
 28 29  1  0  0  0
 56 48  1  0  0  0
 56 60  1  0  0  0
 29 30  1  0  0  0
 57 60  1  0  0  0
 57 61  1  0  0  0
 30 31  1  0  0  0
 44 49  1  0  0  0
 44 52  1  0  0  0
 31 32  1  0  0  0
 45 46  1  0  0  0
 45 50  1  0  0  0
 32 33  1  0  0  0
 53 54  1  0  0  0
 53 55  1  0  0  0
 33 34  1  0  0  0
 34 35  1  0  0  0
 35 36  1  0  0  0
 58 60  1  0  0  0
 36 37  1  0  0  0
 59 60  1  0  0  0
 59 62  1  0  0  0
 37 38  1  0  0  0
 38 39  1  0  0  0
 39 40  1  0  0  0
  4  6  1  0  0  0
  6  7  1  0  0  0
  7  8  1  0  0  0
  8  9  1  0  0  0
  9 10  1  0  0  0
 10 11  1  0  0  0
 11 12  1  0  0  0
 12 13  1  0  0  0
 13 14  1  0  0  0
 14 15  1  0  0  0
 15 16  1  0  0  0
 16 17  1  0  0  0
 17 18  1  0  0  0
 18 19  1  0  0  0
 19 20  1  0  0  0
 20 21  1  0  0  0
 21 22  1  0  0  0
 46 47  1  0  0  0
 47 48  1  0  0  0
 48 49  1  0  0  0
 49 50  1  0  0  0
 50 54  1  0  0  0
M  CHG 1  58  -1
M  END
> <minimizedAffinity>
-8.72062

> <CNNscore>
0.1437224597

> <CNNaffinity>
7.4573807716

> <CNN_VS>
1.0717930794

> <CNNaffinity_variance>
1.5049952269

$$$$
/media/chris/experiments/cd1a-new-docking/inputs/ligands/1onq_ligand.pdb


 62 62  0  0  0  0  0  0  0  0999 V2000
  -39.9758   60.2805   64.5787 C   0  0  0  0  0  0  0  0  0  0  0  0
  -41.3873   60.5544   64.3945 N   0  0  0  0  0  0  0  0  0  0  0  0
  -41.9461   61.5170   66.3714 O   0  0  0  0  0  0  0  0  0  0  0  0
  -42.2378   61.1255   65.2581 C   0  0  0  0  0  0  0  0  0  0  0  0
  -41.7684   60.2875   63.5269 H   0  0  0  0  0  0  0  0  0  0  0  0
  -43.6449   61.2777   64.7612 C   0  0  0  0  0  0  0  0  0  0  0  0
  -44.0298   59.9382   64.1332 C   0  0  0  0  0  0  0  0  0  0  0  0
  -45.3695   59.4656   64.6928 C   0  0  0  0  0  0  0  0  0  0  0  0
  -45.3012   58.5073   65.8571 C   0  0  0  0  0  0  0  0  0  0  0  0
  -46.5001   58.7890   66.7567 C   0  0  0  0  0  0  0  0  0  0  0  0
  -47.6329   59.5196   66.0232 C   0  0  0  0  0  0  0  0  0  0  0  0
  -48.6426   58.5861   65.3303 C   0  0  0  0  0  0  0  0  0  0  0  0
  -50.1097   59.0078   65.5660 C   0  0  0  0  0  0  0  0  0  0  0  0
  -50.5302   60.0840   64.5611 C   0  0  0  0  0  0  0  0  0  0  0  0
  -51.1750   59.5577   63.2845 C   0  0  0  0  0  0  0  0  0  0  0  0
  -50.1597   59.3398   62.1725 C   0  0  0  0  0  0  0  0  0  0  0  0
  -50.1663   57.9557   61.5195 C   0  0  0  0  0  0  0  0  0  0  0  0
  -48.8910   57.8101   60.7002 C   0  0  0  0  0  0  0  0  0  0  0  0
  -48.9469   57.0270   59.3969 C   0  0  0  0  0  0  0  0  0  0  0  0
  -47.5395   56.5996   58.9514 C   0  0  0  0  0  0  0  0  0  0  0  0
  -47.2449   56.8304   57.4577 C   0  0  0  0  0  0  0  0  0  0  0  0
  -46.9789   58.2941   57.1138 C   0  0  0  0  0  0  0  0  0  0  0  0
  -38.6334   58.6787   65.5924 O   0  0  0  0  0  0  0  0  0  0  0  0
  -39.9884   58.9262   65.2664 C   0  0  0  0  0  0  0  0  0  0  0  0
  -38.3165   59.3650   66.2003 H   0  0  0  0  0  0  0  0  0  0  0  0
  -40.5519   57.8755   64.3068 C   0  0  0  0  0  0  0  0  0  0  0  0
  -41.6507   57.1508   64.5781 C   0  0  0  0  0  0  0  0  0  0  0  0
  -42.1500   56.1196   63.5679 C   0  0  0  0  0  0  0  0  0  0  0  0
  -41.1031   55.7209   62.5174 C   0  0  0  0  0  0  0  0  0  0  0  0
  -41.4921   55.9926   61.0524 C   0  0  0  0  0  0  0  0  0  0  0  0
  -41.7427   57.5024   60.8216 C   0  0  0  0  0  0  0  0  0  0  0  0
  -41.1502   58.0787   59.5108 C   0  0  0  0  0  0  0  0  0  0  0  0
  -41.0513   59.6221   59.4853 C   0  0  0  0  0  0  0  0  0  0  0  0
  -40.7934   60.2475   60.8733 C   0  0  0  0  0  0  0  0  0  0  0  0
  -39.3252   60.1924   61.3125 C   0  0  0  0  0  0  0  0  0  0  0  0
  -38.3145   59.8170   60.2309 C   0  0  0  0  0  0  0  0  0  0  0  0
  -37.4618   58.5794   60.5736 C   0  0  0  0  0  0  0  0  0  0  0  0
  -38.1289   57.5648   61.5146 C   0  0  0  0  0  0  0  0  0  0  0  0
  -37.3869   57.4846   62.8518 C   0  0  0  0  0  0  0  0  0  0  0  0
  -35.8717   57.4161   62.7802 C   0  0  0  0  0  0  0  0  0  0  0  0
  -39.1630   61.4049   65.2599 C   0  0  0  0  0  0  0  0  0  0  0  0
  -38.0613   61.9611   64.4981 O   0  0  0  0  0  0  0  0  0  0  0  0
  -35.9698   60.5834   63.1180 O   0  0  0  0  0  0  0  0  0  0  0  0
  -33.6823   63.8095   64.4444 O   0  0  0  0  0  0  0  0  0  0  0  0
  -36.2630   62.9653   65.7798 O   0  0  0  0  0  0  0  0  0  0  0  0
  -36.6667   61.8368   64.9669 C   0  0  0  0  0  0  0  0  0  0  0  0
  -35.5970   61.6936   63.8748 C   0  0  0  0  0  0  0  0  0  0  0  0
  -34.1755   61.4491   64.4270 C   0  0  0  0  0  0  0  0  0  0  0  0
  -33.8364   62.6525   65.2626 C   0  0  0  0  0  0  0  0  0  0  0  0
  -34.9133   62.8707   66.3100 C   0  0  0  0  0  0  0  0  0  0  0  0
  -36.8618   60.7194   62.7624 H   0  0  0  0  0  0  0  0  0  0  0  0
  -32.9907   63.6484   63.7835 H   0  0  0  0  0  0  0  0  0  0  0  0
  -33.2443   63.7938   67.7506 O   0  0  0  0  0  0  0  0  0  0  0  0
  -34.3914   64.1161   67.0231 C   0  0  0  0  0  0  0  0  0  0  0  0
  -32.9147   64.5864   68.2026 H   0  0  0  0  0  0  0  0  0  0  0  0
  -33.1235   61.3344   63.4422 O   0  0  0  0  0  0  0  0  0  0  0  0
  -32.4864   58.8976   64.0532 O   0  0  0  0  0  0  0  0  0  0  0  0
  -31.1176   60.1330   62.4756 O   0  0  0  0  0  0  0  0  0  0  0  0
  -33.2781   59.2679   61.7989 O   0  0  0  0  0  0  0  0  0  0  0  0
  -32.5126   59.8745   62.9246 S   0  0  0  0  0  0  0  0  0  0  0  0
  -31.9914   59.2757   64.7967 H   0  0  0  0  0  0  0  0  0  0  0  0
  -34.1894   59.0960   62.0831 H   0  0  0  0  0  0  0  0  0  0  0  0
  2  1  1  0  0  0
  2  4  1  0  0  0
  2  5  1  0  0  0
 41 42  1  0  0  0
 41  1  1  0  0  0
 42 46  1  0  0  0
  1 24  1  0  0  0
 23 24  1  0  0  0
 23 25  1  0  0  0
 24 26  1  0  0  0
  3  4  2  0  0  0
 26 27  2  0  0  0
 27 28  1  0  0  0
 43 47  1  0  0  0
 43 51  1  0  0  0
 28 29  1  0  0  0
 56 48  1  0  0  0
 56 60  1  0  0  0
 29 30  1  0  0  0
 57 60  1  0  0  0
 57 61  1  0  0  0
 30 31  1  0  0  0
 44 49  1  0  0  0
 44 52  1  0  0  0
 31 32  1  0  0  0
 45 46  1  0  0  0
 45 50  1  0  0  0
 32 33  1  0  0  0
 53 54  1  0  0  0
 53 55  1  0  0  0
 33 34  1  0  0  0
 34 35  1  0  0  0
 35 36  1  0  0  0
 58 60  1  0  0  0
 36 37  1  0  0  0
 59 60  1  0  0  0
 59 62  1  0  0  0
 37 38  1  0  0  0
 38 39  1  0  0  0
 39 40  1  0  0  0
  4  6  1  0  0  0
  6  7  1  0  0  0
  7  8  1  0  0  0
  8  9  1  0  0  0
  9 10  1  0  0  0
 10 11  1  0  0  0
 11 12  1  0  0  0
 12 13  1  0  0  0
 13 14  1  0  0  0
 14 15  1  0  0  0
 15 16  1  0  0  0
 16 17  1  0  0  0
 17 18  1  0  0  0
 18 19  1  0  0  0
 19 20  1  0  0  0
 20 21  1  0  0  0
 21 22  1  0  0  0
 46 47  1  0  0  0
 47 48  1  0  0  0
 48 49  1  0  0  0
 49 50  1  0  0  0
 50 54  1  0  0  0
M  CHG 1  58  -1
M  END
> <minimizedAffinity>
-8.80412

> <CNNscore>
0.1388228089

> <CNNaffinity>
7.1690073013

> <CNN_VS>
0.9952217340

> <CNNaffinity_variance>
1.2631908655

$$$$
/media/chris/experiments/cd1a-new-docking/inputs/ligands/1onq_ligand.pdb


 62 62  0  0  0  0  0  0  0  0999 V2000
  -41.1706   59.9333   64.1961 C   0  0  0  0  0  0  0  0  0  0  0  0
  -42.4512   60.5631   64.4504 N   0  0  0  0  0  0  0  0  0  0  0  0
  -42.9680   61.4259   62.4167 O   0  0  0  0  0  0  0  0  0  0  0  0
  -43.2276   61.2343   63.5888 C   0  0  0  0  0  0  0  0  0  0  0  0
  -42.7930   60.4884   65.3706 H   0  0  0  0  0  0  0  0  0  0  0  0
  -44.5085   61.7628   64.1630 C   0  0  0  0  0  0  0  0  0  0  0  0
  -45.0981   60.6385   65.0145 C   0  0  0  0  0  0  0  0  0  0  0  0
  -46.3611   60.0913   64.3537 C   0  0  0  0  0  0  0  0  0  0  0  0
  -47.0077   58.9096   65.0352 C   0  0  0  0  0  0  0  0  0  0  0  0
  -47.5454   59.3903   66.3790 C   0  0  0  0  0  0  0  0  0  0  0  0
  -48.8777   60.1408   66.2502 C   0  0  0  0  0  0  0  0  0  0  0  0
  -50.0009   59.3253   65.5836 C   0  0  0  0  0  0  0  0  0  0  0  0
  -51.0259   60.2105   64.8410 C   0  0  0  0  0  0  0  0  0  0  0  0
  -51.1742   59.7595   63.3851 C   0  0  0  0  0  0  0  0  0  0  0  0
  -50.3417   58.5430   62.9987 C   0  0  0  0  0  0  0  0  0  0  0  0
  -49.2176   58.8951   62.0357 C   0  0  0  0  0  0  0  0  0  0  0  0
  -49.6287   59.6591   60.7749 C   0  0  0  0  0  0  0  0  0  0  0  0
  -49.7663   58.6581   59.6357 C   0  0  0  0  0  0  0  0  0  0  0  0
  -48.5788   57.7685   59.2991 C   0  0  0  0  0  0  0  0  0  0  0  0
  -47.7238   58.3911   58.1841 C   0  0  0  0  0  0  0  0  0  0  0  0
  -47.6493   57.5543   56.8937 C   0  0  0  0  0  0  0  0  0  0  0  0
  -47.1169   56.1412   57.1201 C   0  0  0  0  0  0  0  0  0  0  0  0
  -40.4543   58.0670   65.3791 O   0  0  0  0  0  0  0  0  0  0  0  0
  -41.4623   58.4679   64.4698 C   0  0  0  0  0  0  0  0  0  0  0  0
  -40.5299   58.5862   66.1951 H   0  0  0  0  0  0  0  0  0  0  0  0
  -41.3990   57.6845   63.1565 C   0  0  0  0  0  0  0  0  0  0  0  0
  -42.1152   58.0189   62.0696 C   0  0  0  0  0  0  0  0  0  0  0  0
  -41.9974   57.1849   60.7953 C   0  0  0  0  0  0  0  0  0  0  0  0
  -40.5886   57.1792   60.1841 C   0  0  0  0  0  0  0  0  0  0  0  0
  -40.3671   58.1521   59.0111 C   0  0  0  0  0  0  0  0  0  0  0  0
  -38.9055   58.6606   58.9878 C   0  0  0  0  0  0  0  0  0  0  0  0
  -38.3698   59.1968   60.3395 C   0  0  0  0  0  0  0  0  0  0  0  0
  -37.2677   58.3186   60.9772 C   0  0  0  0  0  0  0  0  0  0  0  0
  -37.7400   57.5466   62.2283 C   0  0  0  0  0  0  0  0  0  0  0  0
  -37.6486   58.3582   63.5261 C   0  0  0  0  0  0  0  0  0  0  0  0
  -37.0556   57.6320   64.7317 C   0  0  0  0  0  0  0  0  0  0  0  0
  -35.5225   57.4805   64.6792 C   0  0  0  0  0  0  0  0  0  0  0  0
  -34.8001   58.4553   63.7371 C   0  0  0  0  0  0  0  0  0  0  0  0
  -33.7074   59.2297   64.4797 C   0  0  0  0  0  0  0  0  0  0  0  0
  -32.2930   58.6926   64.3510 C   0  0  0  0  0  0  0  0  0  0  0  0
  -39.9639   60.5572   64.9333 C   0  0  0  0  0  0  0  0  0  0  0  0
  -39.1960   61.5447   64.1997 O   0  0  0  0  0  0  0  0  0  0  0  0
  -37.3052   61.9062   62.0851 O   0  0  0  0  0  0  0  0  0  0  0  0
  -35.4992   64.4631   64.8419 O   0  0  0  0  0  0  0  0  0  0  0  0
  -37.3809   62.2366   65.6530 O   0  0  0  0  0  0  0  0  0  0  0  0
  -37.7341   61.6602   64.3721 C   0  0  0  0  0  0  0  0  0  0  0  0
  -36.9921   62.4879   63.3130 C   0  0  0  0  0  0  0  0  0  0  0  0
  -35.4566   62.4744   63.4788 C   0  0  0  0  0  0  0  0  0  0  0  0
  -35.1741   63.0752   64.8280 C   0  0  0  0  0  0  0  0  0  0  0  0
  -35.9511   62.3274   65.8964 C   0  0  0  0  0  0  0  0  0  0  0  0
  -38.2674   61.9060   61.9635 H   0  0  0  0  0  0  0  0  0  0  0  0
  -34.9925   64.9208   64.1529 H   0  0  0  0  0  0  0  0  0  0  0  0
  -36.4822   64.0774   67.4354 O   0  0  0  0  0  0  0  0  0  0  0  0
  -35.5390   63.0871   67.1553 C   0  0  0  0  0  0  0  0  0  0  0  0
  -36.2182   64.5584   68.2354 H   0  0  0  0  0  0  0  0  0  0  0  0
  -34.7085   63.2609   62.5240 O   0  0  0  0  0  0  0  0  0  0  0  0
  -32.6670   63.7777   61.0133 O   0  0  0  0  0  0  0  0  0  0  0  0
  -32.8452   61.6070   62.0835 O   0  0  0  0  0  0  0  0  0  0  0  0
  -32.2238   63.5583   63.3800 O   0  0  0  0  0  0  0  0  0  0  0  0
  -33.0760   63.0665   62.2606 S   0  0  0  0  0  0  0  0  0  0  0  0
  -33.2119   63.4701   60.2722 H   0  0  0  0  0  0  0  0  0  0  0  0
  -32.3682   64.5096   63.5025 H   0  0  0  0  0  0  0  0  0  0  0  0
  2  1  1  0  0  0
  2  4  1  0  0  0
  2  5  1  0  0  0
 41 42  1  0  0  0
 41  1  1  0  0  0
 42 46  1  0  0  0
  1 24  1  0  0  0
 23 24  1  0  0  0
 23 25  1  0  0  0
 24 26  1  0  0  0
  3  4  2  0  0  0
 26 27  2  0  0  0
 27 28  1  0  0  0
 43 47  1  0  0  0
 43 51  1  0  0  0
 28 29  1  0  0  0
 56 48  1  0  0  0
 56 60  1  0  0  0
 29 30  1  0  0  0
 57 60  1  0  0  0
 57 61  1  0  0  0
 30 31  1  0  0  0
 44 49  1  0  0  0
 44 52  1  0  0  0
 31 32  1  0  0  0
 45 46  1  0  0  0
 45 50  1  0  0  0
 32 33  1  0  0  0
 53 54  1  0  0  0
 53 55  1  0  0  0
 33 34  1  0  0  0
 34 35  1  0  0  0
 35 36  1  0  0  0
 58 60  1  0  0  0
 36 37  1  0  0  0
 59 60  1  0  0  0
 59 62  1  0  0  0
 37 38  1  0  0  0
 38 39  1  0  0  0
 39 40  1  0  0  0
  4  6  1  0  0  0
  6  7  1  0  0  0
  7  8  1  0  0  0
  8  9  1  0  0  0
  9 10  1  0  0  0
 10 11  1  0  0  0
 11 12  1  0  0  0
 12 13  1  0  0  0
 13 14  1  0  0  0
 14 15  1  0  0  0
 15 16  1  0  0  0
 16 17  1  0  0  0
 17 18  1  0  0  0
 18 19  1  0  0  0
 19 20  1  0  0  0
 20 21  1  0  0  0
 21 22  1  0  0  0
 46 47  1  0  0  0
 47 48  1  0  0  0
 48 49  1  0  0  0
 49 50  1  0  0  0
 50 54  1  0  0  0
M  CHG 1  58  -1
M  END
> <minimizedAffinity>
-9.66233

> <CNNscore>
0.1376150995

> <CNNaffinity>
6.9361495972

> <CNN_VS>
0.9545189142

> <CNNaffinity_variance>
1.5378242731

$$$$
/media/chris/experiments/cd1a-new-docking/inputs/ligands/1onq_ligand.pdb


 62 62  0  0  0  0  0  0  0  0999 V2000
  -40.4308   59.8401   63.7124 C   0  0  0  0  0  0  0  0  0  0  0  0
  -41.6583   60.4952   64.1189 N   0  0  0  0  0  0  0  0  0  0  0  0
  -42.6595   60.9067   62.1250 O   0  0  0  0  0  0  0  0  0  0  0  0
  -42.6430   60.9623   63.3394 C   0  0  0  0  0  0  0  0  0  0  0  0
  -41.7841   60.6114   65.0884 H   0  0  0  0  0  0  0  0  0  0  0  0
  -43.7945   61.5855   64.0711 C   0  0  0  0  0  0  0  0  0  0  0  0
  -43.8874   60.8726   65.4202 C   0  0  0  0  0  0  0  0  0  0  0  0
  -45.2452   60.1876   65.5556 C   0  0  0  0  0  0  0  0  0  0  0  0
  -45.6462   59.2788   64.4189 C   0  0  0  0  0  0  0  0  0  0  0  0
  -47.1414   59.4666   64.1843 C   0  0  0  0  0  0  0  0  0  0  0  0
  -47.9134   59.7519   65.4795 C   0  0  0  0  0  0  0  0  0  0  0  0
  -49.3516   60.2564   65.2603 C   0  0  0  0  0  0  0  0  0  0  0  0
  -50.3646   59.1097   65.0500 C   0  0  0  0  0  0  0  0  0  0  0  0
  -50.9014   59.1197   63.6158 C   0  0  0  0  0  0  0  0  0  0  0  0
  -50.4514   60.3026   62.7670 C   0  0  0  0  0  0  0  0  0  0  0  0
  -49.7636   59.8632   61.4830 C   0  0  0  0  0  0  0  0  0  0  0  0
  -49.6549   58.3525   61.2629 C   0  0  0  0  0  0  0  0  0  0  0  0
  -50.2021   58.0329   59.8783 C   0  0  0  0  0  0  0  0  0  0  0  0
  -49.2189   57.7245   58.7589 C   0  0  0  0  0  0  0  0  0  0  0  0
  -47.8437   57.3381   59.3258 C   0  0  0  0  0  0  0  0  0  0  0  0
  -46.9873   56.4686   58.3869 C   0  0  0  0  0  0  0  0  0  0  0  0
  -47.7377   56.0063   57.1400 C   0  0  0  0  0  0  0  0  0  0  0  0
  -39.6364   60.2892   65.8486 O   0  0  0  0  0  0  0  0  0  0  0  0
  -39.9546   59.1985   65.0043 C   0  0  0  0  0  0  0  0  0  0  0  0
  -40.4335   60.8190   66.0065 H   0  0  0  0  0  0  0  0  0  0  0  0
  -38.7360   58.3190   64.7144 C   0  0  0  0  0  0  0  0  0  0  0  0
  -37.5795   58.4247   65.3909 C   0  0  0  0  0  0  0  0  0  0  0  0
  -36.4075   57.5099   65.0407 C   0  0  0  0  0  0  0  0  0  0  0  0
  -35.1880   58.2512   64.4738 C   0  0  0  0  0  0  0  0  0  0  0  0
  -35.3631   58.8397   63.0616 C   0  0  0  0  0  0  0  0  0  0  0  0
  -36.1381   57.8583   62.1497 C   0  0  0  0  0  0  0  0  0  0  0  0
  -37.1738   58.5137   61.2015 C   0  0  0  0  0  0  0  0  0  0  0  0
  -38.5194   57.7558   61.1123 C   0  0  0  0  0  0  0  0  0  0  0  0
  -39.3953   58.1911   59.9175 C   0  0  0  0  0  0  0  0  0  0  0  0
  -40.6791   57.3673   59.7601 C   0  0  0  0  0  0  0  0  0  0  0  0
  -41.5542   57.2435   61.0056 C   0  0  0  0  0  0  0  0  0  0  0  0
  -41.3823   55.9109   61.7612 C   0  0  0  0  0  0  0  0  0  0  0  0
  -41.4555   56.0121   63.2923 C   0  0  0  0  0  0  0  0  0  0  0  0
  -42.5427   56.9992   63.7267 C   0  0  0  0  0  0  0  0  0  0  0  0
  -42.8553   57.0488   65.2118 C   0  0  0  0  0  0  0  0  0  0  0  0
  -39.4184   60.7320   62.9583 C   0  0  0  0  0  0  0  0  0  0  0  0
  -38.9412   61.9076   63.6607 O   0  0  0  0  0  0  0  0  0  0  0  0
  -36.7454   62.7761   62.0479 O   0  0  0  0  0  0  0  0  0  0  0  0
  -35.5913   64.6863   65.5719 O   0  0  0  0  0  0  0  0  0  0  0  0
  -37.4439   62.2943   65.5299 O   0  0  0  0  0  0  0  0  0  0  0  0
  -37.5395   62.0131   64.1124 C   0  0  0  0  0  0  0  0  0  0  0  0
  -36.6807   63.0735   63.4085 C   0  0  0  0  0  0  0  0  0  0  0  0
  -35.1976   63.0563   63.8389 C   0  0  0  0  0  0  0  0  0  0  0  0
  -35.1847   63.3445   65.3148 C   0  0  0  0  0  0  0  0  0  0  0  0
  -36.0842   62.3590   66.0385 C   0  0  0  0  0  0  0  0  0  0  0  0
  -37.6714   62.7824   61.7592 H   0  0  0  0  0  0  0  0  0  0  0  0
  -35.0042   65.2981   65.1007 H   0  0  0  0  0  0  0  0  0  0  0  0
  -34.6140   63.1949   67.7276 O   0  0  0  0  0  0  0  0  0  0  0  0
  -35.9382   62.8249   67.4854 C   0  0  0  0  0  0  0  0  0  0  0  0
  -34.5239   63.4905   68.6471 H   0  0  0  0  0  0  0  0  0  0  0  0
  -34.3480   64.0534   63.2274 O   0  0  0  0  0  0  0  0  0  0  0  0
  -32.4432   64.8390   61.6552 O   0  0  0  0  0  0  0  0  0  0  0  0
  -34.4586   63.8766   60.7059 O   0  0  0  0  0  0  0  0  0  0  0  0
  -32.8173   62.4536   61.7809 O   0  0  0  0  0  0  0  0  0  0  0  0
  -33.4860   63.7847   61.8285 S   0  0  0  0  0  0  0  0  0  0  0  0
  -32.8604   65.7142   61.6835 H   0  0  0  0  0  0  0  0  0  0  0  0
  -32.1811   62.3851   62.5098 H   0  0  0  0  0  0  0  0  0  0  0  0
  2  1  1  0  0  0
  2  4  1  0  0  0
  2  5  1  0  0  0
 41 42  1  0  0  0
 41  1  1  0  0  0
 42 46  1  0  0  0
  1 24  1  0  0  0
 23 24  1  0  0  0
 23 25  1  0  0  0
 24 26  1  0  0  0
  3  4  2  0  0  0
 26 27  2  0  0  0
 27 28  1  0  0  0
 43 47  1  0  0  0
 43 51  1  0  0  0
 28 29  1  0  0  0
 56 48  1  0  0  0
 56 60  1  0  0  0
 29 30  1  0  0  0
 57 60  1  0  0  0
 57 61  1  0  0  0
 30 31  1  0  0  0
 44 49  1  0  0  0
 44 52  1  0  0  0
 31 32  1  0  0  0
 45 46  1  0  0  0
 45 50  1  0  0  0
 32 33  1  0  0  0
 53 54  1  0  0  0
 53 55  1  0  0  0
 33 34  1  0  0  0
 34 35  1  0  0  0
 35 36  1  0  0  0
 58 60  1  0  0  0
 36 37  1  0  0  0
 59 60  1  0  0  0
 59 62  1  0  0  0
 37 38  1  0  0  0
 38 39  1  0  0  0
 39 40  1  0  0  0
  4  6  1  0  0  0
  6  7  1  0  0  0
  7  8  1  0  0  0
  8  9  1  0  0  0
  9 10  1  0  0  0
 10 11  1  0  0  0
 11 12  1  0  0  0
 12 13  1  0  0  0
 13 14  1  0  0  0
 14 15  1  0  0  0
 15 16  1  0  0  0
 16 17  1  0  0  0
 17 18  1  0  0  0
 18 19  1  0  0  0
 19 20  1  0  0  0
 20 21  1  0  0  0
 21 22  1  0  0  0
 46 47  1  0  0  0
 47 48  1  0  0  0
 48 49  1  0  0  0
 49 50  1  0  0  0
 50 54  1  0  0  0
M  CHG 1  58  -1
M  END
> <minimizedAffinity>
-9.20437

> <CNNscore>
0.1202678904

> <CNNaffinity>
7.1215186119

> <CNN_VS>
0.8564900160

> <CNNaffinity_variance>
1.1678498983

$$$$
