/media/chris/experiments/cd1a-new-docking/inputs/ligands/1onq_ligand.pdb


 62 62  0  0  0  0  0  0  0  0999 V2000
  -40.8759   60.0622   64.0529 C   0  0  0  0  0  0  0  0  0  0  0  0
  -41.9589   60.9139   64.5032 N   0  0  0  0  0  0  0  0  0  0  0  0
  -44.1426   61.4476   64.8095 O   0  0  0  0  0  0  0  0  0  0  0  0
  -43.2770   60.6864   64.4234 C   0  0  0  0  0  0  0  0  0  0  0  0
  -41.6930   61.7656   64.9194 H   0  0  0  0  0  0  0  0  0  0  0  0
  -43.6618   59.3807   63.7935 C   0  0  0  0  0  0  0  0  0  0  0  0
  -44.9862   58.9644   64.4337 C   0  0  0  0  0  0  0  0  0  0  0  0
  -44.7250   58.0262   65.6095 C   0  0  0  0  0  0  0  0  0  0  0  0
  -45.9107   57.7245   66.4935 C   0  0  0  0  0  0  0  0  0  0  0  0
  -46.7685   58.9839   66.5597 C   0  0  0  0  0  0  0  0  0  0  0  0
  -48.0975   58.8364   65.8070 C   0  0  0  0  0  0  0  0  0  0  0  0
  -49.1078   59.9656   66.0808 C   0  0  0  0  0  0  0  0  0  0  0  0
  -50.5541   59.5835   65.6965 C   0  0  0  0  0  0  0  0  0  0  0  0
  -50.9929   60.3312   64.4342 C   0  0  0  0  0  0  0  0  0  0  0  0
  -50.9889   59.4991   63.1576 C   0  0  0  0  0  0  0  0  0  0  0  0
  -49.6558   59.5687   62.4273 C   0  0  0  0  0  0  0  0  0  0  0  0
  -49.7027   60.1048   60.9946 C   0  0  0  0  0  0  0  0  0  0  0  0
  -49.7235   58.9166   60.0426 C   0  0  0  0  0  0  0  0  0  0  0  0
  -48.8831   57.6947   60.3827 C   0  0  0  0  0  0  0  0  0  0  0  0
  -47.8936   57.3754   59.2509 C   0  0  0  0  0  0  0  0  0  0  0  0
  -47.7014   58.5127   58.2309 C   0  0  0  0  0  0  0  0  0  0  0  0
  -46.8941   58.0939   57.0043 C   0  0  0  0  0  0  0  0  0  0  0  0
  -39.8340   60.6422   66.0463 O   0  0  0  0  0  0  0  0  0  0  0  0
  -40.3264   59.5086   65.3564 C   0  0  0  0  0  0  0  0  0  0  0  0
  -40.5637   61.2573   66.2197 H   0  0  0  0  0  0  0  0  0  0  0  0
  -39.2215   58.4947   65.0507 C   0  0  0  0  0  0  0  0  0  0  0  0
  -37.9466   58.6611   65.4422 C   0  0  0  0  0  0  0  0  0  0  0  0
  -36.9008   57.6027   65.0967 C   0  0  0  0  0  0  0  0  0  0  0  0
  -35.6853   58.1544   64.3373 C   0  0  0  0  0  0  0  0  0  0  0  0
  -35.6231   57.8086   62.8380 C   0  0  0  0  0  0  0  0  0  0  0  0
  -37.0240   57.9215   62.1898 C   0  0  0  0  0  0  0  0  0  0  0  0
  -37.0435   58.5011   60.7527 C   0  0  0  0  0  0  0  0  0  0  0  0
  -38.4026   59.1090   60.3333 C   0  0  0  0  0  0  0  0  0  0  0  0
  -38.9574   58.5297   59.0138 C   0  0  0  0  0  0  0  0  0  0  0  0
  -40.4139   58.0600   59.1095 C   0  0  0  0  0  0  0  0  0  0  0  0
  -41.2599   58.7139   60.2001 C   0  0  0  0  0  0  0  0  0  0  0  0
  -41.7655   57.7304   61.2739 C   0  0  0  0  0  0  0  0  0  0  0  0
  -41.3242   56.2710   61.0852 C   0  0  0  0  0  0  0  0  0  0  0  0
  -40.9787   55.6231   62.4290 C   0  0  0  0  0  0  0  0  0  0  0  0
  -41.7480   56.1250   63.6381 C   0  0  0  0  0  0  0  0  0  0  0  0
  -39.8637   60.7248   63.0910 C   0  0  0  0  0  0  0  0  0  0  0  0
  -39.2052   61.9252   63.5693 O   0  0  0  0  0  0  0  0  0  0  0  0
  -37.0867   62.2333   61.6734 O   0  0  0  0  0  0  0  0  0  0  0  0
  -35.4100   64.5499   64.7099 O   0  0  0  0  0  0  0  0  0  0  0  0
  -37.5080   62.4319   65.2270 O   0  0  0  0  0  0  0  0  0  0  0  0
  -37.7647   61.9310   63.8925 C   0  0  0  0  0  0  0  0  0  0  0  0
  -36.8643   62.7443   62.9515 C   0  0  0  0  0  0  0  0  0  0  0  0
  -35.3584   62.6166   63.2696 C   0  0  0  0  0  0  0  0  0  0  0  0
  -35.1774   63.1442   64.6662 C   0  0  0  0  0  0  0  0  0  0  0  0
  -36.1082   62.4126   65.6163 C   0  0  0  0  0  0  0  0  0  0  0  0
  -38.0293   62.3054   61.4559 H   0  0  0  0  0  0  0  0  0  0  0  0
  -34.8057   64.9969   64.0966 H   0  0  0  0  0  0  0  0  0  0  0  0
  -36.5942   64.2136   67.1109 O   0  0  0  0  0  0  0  0  0  0  0  0
  -35.7788   63.0929   66.9432 C   0  0  0  0  0  0  0  0  0  0  0  0
  -36.3831   64.6438   67.9542 H   0  0  0  0  0  0  0  0  0  0  0  0
  -34.4655   63.3845   62.4311 O   0  0  0  0  0  0  0  0  0  0  0  0
  -32.7395   61.4803   62.0967 O   0  0  0  0  0  0  0  0  0  0  0  0
  -32.1031   63.4696   63.3324 O   0  0  0  0  0  0  0  0  0  0  0  0
  -32.3024   63.5457   60.9181 O   0  0  0  0  0  0  0  0  0  0  0  0
  -32.8763   62.9653   62.1652 S   0  0  0  0  0  0  0  0  0  0  0  0
  -33.1085   61.0841   62.9016 H   0  0  0  0  0  0  0  0  0  0  0  0
  -32.8009   63.2220   60.1516 H   0  0  0  0  0  0  0  0  0  0  0  0
  2  1  1  0  0  0
  2  4  1  0  0  0
  2  5  1  0  0  0
 41 42  1  0  0  0
 41  1  1  0  0  0
 42 46  1  0  0  0
  1 24  1  0  0  0
 23 24  1  0  0  0
 23 25  1  0  0  0
 24 26  1  0  0  0
  3  4  2  0  0  0
 26 27  2  0  0  0
 27 28  1  0  0  0
 43 47  1  0  0  0
 43 51  1  0  0  0
 28 29  1  0  0  0
 56 48  1  0  0  0
 56 60  1  0  0  0
 29 30  1  0  0  0
 57 60  1  0  0  0
 57 61  1  0  0  0
 30 31  1  0  0  0
 44 49  1  0  0  0
 44 52  1  0  0  0
 31 32  1  0  0  0
 45 46  1  0  0  0
 45 50  1  0  0  0
 32 33  1  0  0  0
 53 54  1  0  0  0
 53 55  1  0  0  0
 33 34  1  0  0  0
 34 35  1  0  0  0
 35 36  1  0  0  0
 58 60  1  0  0  0
 36 37  1  0  0  0
 59 60  1  0  0  0
 59 62  1  0  0  0
 37 38  1  0  0  0
 38 39  1  0  0  0
 39 40  1  0  0  0
  4  6  1  0  0  0
  6  7  1  0  0  0
  7  8  1  0  0  0
  8  9  1  0  0  0
  9 10  1  0  0  0
 10 11  1  0  0  0
 11 12  1  0  0  0
 12 13  1  0  0  0
 13 14  1  0  0  0
 14 15  1  0  0  0
 15 16  1  0  0  0
 16 17  1  0  0  0
 17 18  1  0  0  0
 18 19  1  0  0  0
 19 20  1  0  0  0
 20 21  1  0  0  0
 21 22  1  0  0  0
 46 47  1  0  0  0
 47 48  1  0  0  0
 48 49  1  0  0  0
 49 50  1  0  0  0
 50 54  1  0  0  0
M  CHG 1  58  -1
M  END
> <minimizedAffinity>
-9.60089

> <CNNscore>
0.2012710571

> <CNNaffinity>
7.2677755356

> <CNN_VS>
1.4627928734

> <CNNaffinity_variance>
1.3903911114

$$$$
/media/chris/experiments/cd1a-new-docking/inputs/ligands/1onq_ligand.pdb


 62 62  0  0  0  0  0  0  0  0999 V2000
  -41.6314   60.2092   64.5142 C   0  0  0  0  0  0  0  0  0  0  0  0
  -41.9868   58.8303   64.2433 N   0  0  0  0  0  0  0  0  0  0  0  0
  -43.1387   56.9103   64.6098 O   0  0  0  0  0  0  0  0  0  0  0  0
  -42.8915   58.0705   64.8757 C   0  0  0  0  0  0  0  0  0  0  0  0
  -41.5032   58.3981   63.5026 H   0  0  0  0  0  0  0  0  0  0  0  0
  -43.6229   58.7490   65.9956 C   0  0  0  0  0  0  0  0  0  0  0  0
  -45.1138   58.5429   65.7272 C   0  0  0  0  0  0  0  0  0  0  0  0
  -45.9125   59.7149   66.2925 C   0  0  0  0  0  0  0  0  0  0  0  0
  -47.4144   59.6052   66.1894 C   0  0  0  0  0  0  0  0  0  0  0  0
  -47.7306   58.7273   64.9830 C   0  0  0  0  0  0  0  0  0  0  0  0
  -49.1743   58.2073   64.9903 C   0  0  0  0  0  0  0  0  0  0  0  0
  -50.1965   59.1882   65.5934 C   0  0  0  0  0  0  0  0  0  0  0  0
  -50.7322   60.2061   64.5628 C   0  0  0  0  0  0  0  0  0  0  0  0
  -50.9207   59.5422   63.1958 C   0  0  0  0  0  0  0  0  0  0  0  0
  -50.0278   60.0850   62.0866 C   0  0  0  0  0  0  0  0  0  0  0  0
  -49.7882   59.0622   60.9858 C   0  0  0  0  0  0  0  0  0  0  0  0
  -49.8019   57.5945   61.4190 C   0  0  0  0  0  0  0  0  0  0  0  0
  -49.1875   56.7628   60.3013 C   0  0  0  0  0  0  0  0  0  0  0  0
  -48.0290   57.3494   59.5081 C   0  0  0  0  0  0  0  0  0  0  0  0
  -47.4024   56.2914   58.5861 C   0  0  0  0  0  0  0  0  0  0  0  0
  -47.0921   56.7885   57.1622 C   0  0  0  0  0  0  0  0  0  0  0  0
  -47.0134   58.3098   57.0572 C   0  0  0  0  0  0  0  0  0  0  0  0
  -43.5043   61.0161   63.4021 O   0  0  0  0  0  0  0  0  0  0  0  0
  -42.0992   60.9244   63.2583 C   0  0  0  0  0  0  0  0  0  0  0  0
  -43.7151   61.5412   64.1900 H   0  0  0  0  0  0  0  0  0  0  0  0
  -41.6975   60.1055   62.0293 C   0  0  0  0  0  0  0  0  0  0  0  0
  -40.8987   60.5840   61.0602 C   0  0  0  0  0  0  0  0  0  0  0  0
  -40.5443   59.7036   59.8632 C   0  0  0  0  0  0  0  0  0  0  0  0
  -41.4767   58.4971   59.6812 C   0  0  0  0  0  0  0  0  0  0  0  0
  -40.8380   57.1179   59.9287 C   0  0  0  0  0  0  0  0  0  0  0  0
  -41.0492   56.6702   61.3951 C   0  0  0  0  0  0  0  0  0  0  0  0
  -39.8115   56.8154   62.3162 C   0  0  0  0  0  0  0  0  0  0  0  0
  -38.5199   57.2411   61.5791 C   0  0  0  0  0  0  0  0  0  0  0  0
  -37.6062   58.1623   62.4162 C   0  0  0  0  0  0  0  0  0  0  0  0
  -37.8023   58.0167   63.9300 C   0  0  0  0  0  0  0  0  0  0  0  0
  -36.5736   58.2887   64.7954 C   0  0  0  0  0  0  0  0  0  0  0  0
  -35.3085   57.5347   64.3407 C   0  0  0  0  0  0  0  0  0  0  0  0
  -34.3359   58.3499   63.4748 C   0  0  0  0  0  0  0  0  0  0  0  0
  -32.9414   58.3926   64.1059 C   0  0  0  0  0  0  0  0  0  0  0  0
  -32.8793   58.2500   65.6164 C   0  0  0  0  0  0  0  0  0  0  0  0
  -40.1680   60.4459   64.9516 C   0  0  0  0  0  0  0  0  0  0  0  0
  -39.4204   61.4383   64.2035 O   0  0  0  0  0  0  0  0  0  0  0  0
  -37.4572   61.6705   62.1373 O   0  0  0  0  0  0  0  0  0  0  0  0
  -35.8627   64.5517   64.6974 O   0  0  0  0  0  0  0  0  0  0  0  0
  -37.6941   62.3396   65.6502 O   0  0  0  0  0  0  0  0  0  0  0  0
  -37.9724   61.6287   64.4194 C   0  0  0  0  0  0  0  0  0  0  0  0
  -37.2173   62.3799   63.3133 C   0  0  0  0  0  0  0  0  0  0  0  0
  -35.6906   62.4444   63.5380 C   0  0  0  0  0  0  0  0  0  0  0  0
  -35.4868   63.1833   64.8318 C   0  0  0  0  0  0  0  0  0  0  0  0
  -36.2801   62.5110   65.9377 C   0  0  0  0  0  0  0  0  0  0  0  0
  -38.4130   61.6197   61.9796 H   0  0  0  0  0  0  0  0  0  0  0  0
  -35.3446   64.9611   63.9867 H   0  0  0  0  0  0  0  0  0  0  0  0
  -36.2277   62.7243   68.3179 O   0  0  0  0  0  0  0  0  0  0  0  0
  -35.9490   63.4045   67.1311 C   0  0  0  0  0  0  0  0  0  0  0  0
  -36.0166   63.2937   69.0742 H   0  0  0  0  0  0  0  0  0  0  0  0
  -34.9324   63.1649   62.5400 O   0  0  0  0  0  0  0  0  0  0  0  0
  -32.9102   63.3712   60.9322 O   0  0  0  0  0  0  0  0  0  0  0  0
  -33.0185   61.5111   62.4870 O   0  0  0  0  0  0  0  0  0  0  0  0
  -32.4573   63.7317   63.2798 O   0  0  0  0  0  0  0  0  0  0  0  0
  -33.2951   62.9632   62.3157 S   0  0  0  0  0  0  0  0  0  0  0  0
  -33.4461   62.8805   60.2895 H   0  0  0  0  0  0  0  0  0  0  0  0
  -32.6314   64.6802   63.1749 H   0  0  0  0  0  0  0  0  0  0  0  0
  2  1  1  0  0  0
  2  4  1  0  0  0
  2  5  1  0  0  0
 41 42  1  0  0  0
 41  1  1  0  0  0
 42 46  1  0  0  0
  1 24  1  0  0  0
 23 24  1  0  0  0
 23 25  1  0  0  0
 24 26  1  0  0  0
  3  4  2  0  0  0
 26 27  2  0  0  0
 27 28  1  0  0  0
 43 47  1  0  0  0
 43 51  1  0  0  0
 28 29  1  0  0  0
 56 48  1  0  0  0
 56 60  1  0  0  0
 29 30  1  0  0  0
 57 60  1  0  0  0
 57 61  1  0  0  0
 30 31  1  0  0  0
 44 49  1  0  0  0
 44 52  1  0  0  0
 31 32  1  0  0  0
 45 46  1  0  0  0
 45 50  1  0  0  0
 32 33  1  0  0  0
 53 54  1  0  0  0
 53 55  1  0  0  0
 33 34  1  0  0  0
 34 35  1  0  0  0
 35 36  1  0  0  0
 58 60  1  0  0  0
 36 37  1  0  0  0
 59 60  1  0  0  0
 59 62  1  0  0  0
 37 38  1  0  0  0
 38 39  1  0  0  0
 39 40  1  0  0  0
  4  6  1  0  0  0
  6  7  1  0  0  0
  7  8  1  0  0  0
  8  9  1  0  0  0
  9 10  1  0  0  0
 10 11  1  0  0  0
 11 12  1  0  0  0
 12 13  1  0  0  0
 13 14  1  0  0  0
 14 15  1  0  0  0
 15 16  1  0  0  0
 16 17  1  0  0  0
 17 18  1  0  0  0
 18 19  1  0  0  0
 19 20  1  0  0  0
 20 21  1  0  0  0
 21 22  1  0  0  0
 46 47  1  0  0  0
 47 48  1  0  0  0
 48 49  1  0  0  0
 49 50  1  0  0  0
 50 54  1  0  0  0
M  CHG 1  58  -1
M  END
> <minimizedAffinity>
-9.64103

> <CNNscore>
0.1794307232

> <CNNaffinity>
7.0813040733

> <CNN_VS>
1.2706035376

> <CNNaffinity_variance>
1.9187686443

$$$$
/media/chris/experiments/cd1a-new-docking/inputs/ligands/1onq_ligand.pdb


 62 62  0  0  0  0  0  0  0  0999 V2000
  -40.8714   59.6265   64.3645 C   0  0  0  0  0  0  0  0  0  0  0  0
  -41.2239   60.3068   65.5950 N   0  0  0  0  0  0  0  0  0  0  0  0
  -42.5663   61.5753   66.9126 O   0  0  0  0  0  0  0  0  0  0  0  0
  -42.3305   61.0145   65.8601 C   0  0  0  0  0  0  0  0  0  0  0  0
  -40.5688   60.2407   66.3269 H   0  0  0  0  0  0  0  0  0  0  0  0
  -43.3195   61.0969   64.7355 C   0  0  0  0  0  0  0  0  0  0  0  0
  -44.4822   60.1788   65.1128 C   0  0  0  0  0  0  0  0  0  0  0  0
  -45.7952   60.7597   64.5936 C   0  0  0  0  0  0  0  0  0  0  0  0
  -46.8427   59.7583   64.1715 C   0  0  0  0  0  0  0  0  0  0  0  0
  -47.0016   58.7516   65.3063 C   0  0  0  0  0  0  0  0  0  0  0  0
  -47.8747   59.2819   66.4514 C   0  0  0  0  0  0  0  0  0  0  0  0
  -49.1061   60.0823   65.9889 C   0  0  0  0  0  0  0  0  0  0  0  0
  -50.2277   59.1843   65.4222 C   0  0  0  0  0  0  0  0  0  0  0  0
  -50.9969   59.9138   64.3171 C   0  0  0  0  0  0  0  0  0  0  0  0
  -50.7811   59.3660   62.9116 C   0  0  0  0  0  0  0  0  0  0  0  0
  -49.7910   60.2004   62.1125 C   0  0  0  0  0  0  0  0  0  0  0  0
  -49.5483   59.7537   60.6690 C   0  0  0  0  0  0  0  0  0  0  0  0
  -50.1053   58.3459   60.5066 C   0  0  0  0  0  0  0  0  0  0  0  0
  -49.2221   57.2807   59.8737 C   0  0  0  0  0  0  0  0  0  0  0  0
  -48.1974   57.9125   58.9183 C   0  0  0  0  0  0  0  0  0  0  0  0
  -48.2504   57.3728   57.4772 C   0  0  0  0  0  0  0  0  0  0  0  0
  -47.0882   56.4425   57.1375 C   0  0  0  0  0  0  0  0  0  0  0  0
  -38.9811   58.6068   65.2490 O   0  0  0  0  0  0  0  0  0  0  0  0
  -40.3100   58.3068   64.8651 C   0  0  0  0  0  0  0  0  0  0  0  0
  -38.9912   59.2637   65.9627 H   0  0  0  0  0  0  0  0  0  0  0  0
  -40.3653   57.2725   63.7384 C   0  0  0  0  0  0  0  0  0  0  0  0
  -41.5034   56.6711   63.3520 C   0  0  0  0  0  0  0  0  0  0  0  0
  -41.4756   55.6475   62.2185 C   0  0  0  0  0  0  0  0  0  0  0  0
  -41.1522   56.2508   60.8438 C   0  0  0  0  0  0  0  0  0  0  0  0
  -41.7776   57.6285   60.5569 C   0  0  0  0  0  0  0  0  0  0  0  0
  -41.1646   58.2549   59.2812 C   0  0  0  0  0  0  0  0  0  0  0  0
  -39.9872   59.2328   59.5243 C   0  0  0  0  0  0  0  0  0  0  0  0
  -38.5934   58.6330   59.2240 C   0  0  0  0  0  0  0  0  0  0  0  0
  -37.5993   58.7628   60.3983 C   0  0  0  0  0  0  0  0  0  0  0  0
  -37.9617   57.8996   61.6128 C   0  0  0  0  0  0  0  0  0  0  0  0
  -36.8098   57.5413   62.5495 C   0  0  0  0  0  0  0  0  0  0  0  0
  -35.5232   58.3519   62.2979 C   0  0  0  0  0  0  0  0  0  0  0  0
  -34.3025   57.9154   63.1222 C   0  0  0  0  0  0  0  0  0  0  0  0
  -34.4741   58.2872   64.5978 C   0  0  0  0  0  0  0  0  0  0  0  0
  -33.6723   59.4785   65.0915 C   0  0  0  0  0  0  0  0  0  0  0  0
  -39.9914   60.4358   63.3850 C   0  0  0  0  0  0  0  0  0  0  0  0
  -39.3571   61.6270   63.9162 O   0  0  0  0  0  0  0  0  0  0  0  0
  -37.2526   61.9403   62.0057 O   0  0  0  0  0  0  0  0  0  0  0  0
  -35.5831   64.3010   65.0121 O   0  0  0  0  0  0  0  0  0  0  0  0
  -37.6561   62.1659   65.5597 O   0  0  0  0  0  0  0  0  0  0  0  0
  -37.9150   61.6506   64.2311 C   0  0  0  0  0  0  0  0  0  0  0  0
  -37.0284   62.4649   63.2779 C   0  0  0  0  0  0  0  0  0  0  0  0
  -35.5195   62.3557   63.5886 C   0  0  0  0  0  0  0  0  0  0  0  0
  -35.3362   62.8975   64.9794 C   0  0  0  0  0  0  0  0  0  0  0  0
  -36.2539   62.1646   65.9412 C   0  0  0  0  0  0  0  0  0  0  0  0
  -38.1970   62.0006   61.7929 H   0  0  0  0  0  0  0  0  0  0  0  0
  -34.9870   64.7487   64.3914 H   0  0  0  0  0  0  0  0  0  0  0  0
  -34.5456   63.0585   67.3541 O   0  0  0  0  0  0  0  0  0  0  0  0
  -35.9243   62.8600   67.2602 C   0  0  0  0  0  0  0  0  0  0  0  0
  -34.3389   63.5002   68.1925 H   0  0  0  0  0  0  0  0  0  0  0  0
  -34.6394   63.1253   62.7383 O   0  0  0  0  0  0  0  0  0  0  0  0
  -32.1976   63.1335   63.6073 O   0  0  0  0  0  0  0  0  0  0  0  0
  -32.6275   63.4598   61.2413 O   0  0  0  0  0  0  0  0  0  0  0  0
  -32.8403   61.2555   62.2264 O   0  0  0  0  0  0  0  0  0  0  0  0
  -33.0510   62.7130   62.4567 S   0  0  0  0  0  0  0  0  0  0  0  0
  -32.3217   64.0812   63.7725 H   0  0  0  0  0  0  0  0  0  0  0  0
  -33.1141   60.7608   63.0145 H   0  0  0  0  0  0  0  0  0  0  0  0
  2  1  1  0  0  0
  2  4  1  0  0  0
  2  5  1  0  0  0
 41 42  1  0  0  0
 41  1  1  0  0  0
 42 46  1  0  0  0
  1 24  1  0  0  0
 23 24  1  0  0  0
 23 25  1  0  0  0
 24 26  1  0  0  0
  3  4  2  0  0  0
 26 27  2  0  0  0
 27 28  1  0  0  0
 43 47  1  0  0  0
 43 51  1  0  0  0
 28 29  1  0  0  0
 56 48  1  0  0  0
 56 60  1  0  0  0
 29 30  1  0  0  0
 57 60  1  0  0  0
 57 61  1  0  0  0
 30 31  1  0  0  0
 44 49  1  0  0  0
 44 52  1  0  0  0
 31 32  1  0  0  0
 45 46  1  0  0  0
 45 50  1  0  0  0
 32 33  1  0  0  0
 53 54  1  0  0  0
 53 55  1  0  0  0
 33 34  1  0  0  0
 34 35  1  0  0  0
 35 36  1  0  0  0
 58 60  1  0  0  0
 36 37  1  0  0  0
 59 60  1  0  0  0
 59 62  1  0  0  0
 37 38  1  0  0  0
 38 39  1  0  0  0
 39 40  1  0  0  0
  4  6  1  0  0  0
  6  7  1  0  0  0
  7  8  1  0  0  0
  8  9  1  0  0  0
  9 10  1  0  0  0
 10 11  1  0  0  0
 11 12  1  0  0  0
 12 13  1  0  0  0
 13 14  1  0  0  0
 14 15  1  0  0  0
 15 16  1  0  0  0
 16 17  1  0  0  0
 17 18  1  0  0  0
 18 19  1  0  0  0
 19 20  1  0  0  0
 20 21  1  0  0  0
 21 22  1  0  0  0
 46 47  1  0  0  0
 47 48  1  0  0  0
 48 49  1  0  0  0
 49 50  1  0  0  0
 50 54  1  0  0  0
M  CHG 1  58  -1
M  END
> <minimizedAffinity>
-9.44733

> <CNNscore>
0.1760746390

> <CNNaffinity>
7.1507582664

> <CNN_VS>
1.2590671778

> <CNNaffinity_variance>
1.3750234842

$$$$
/media/chris/experiments/cd1a-new-docking/inputs/ligands/1onq_ligand.pdb


 62 62  0  0  0  0  0  0  0  0999 V2000
  -41.3918   59.8022   64.9834 C   0  0  0  0  0  0  0  0  0  0  0  0
  -42.3111   60.8216   64.5176 N   0  0  0  0  0  0  0  0  0  0  0  0
  -43.4845   61.9391   62.9297 O   0  0  0  0  0  0  0  0  0  0  0  0
  -42.7169   61.0571   63.2625 C   0  0  0  0  0  0  0  0  0  0  0  0
  -42.6837   61.4146   65.2095 H   0  0  0  0  0  0  0  0  0  0  0  0
  -42.1445   60.1384   62.2242 C   0  0  0  0  0  0  0  0  0  0  0  0
  -41.0647   60.9335   61.4900 C   0  0  0  0  0  0  0  0  0  0  0  0
  -40.8905   60.3915   60.0734 C   0  0  0  0  0  0  0  0  0  0  0  0
  -39.5178   59.8674   59.7278 C   0  0  0  0  0  0  0  0  0  0  0  0
  -39.6929   58.4746   59.1315 C   0  0  0  0  0  0  0  0  0  0  0  0
  -41.0833   57.8844   59.4019 C   0  0  0  0  0  0  0  0  0  0  0  0
  -41.0755   56.6348   60.3015 C   0  0  0  0  0  0  0  0  0  0  0  0
  -41.5373   56.9313   61.7451 C   0  0  0  0  0  0  0  0  0  0  0  0
  -40.4027   56.6692   62.7397 C   0  0  0  0  0  0  0  0  0  0  0  0
  -39.3030   57.7240   62.7562 C   0  0  0  0  0  0  0  0  0  0  0  0
  -38.0095   57.2192   62.1343 C   0  0  0  0  0  0  0  0  0  0  0  0
  -36.9137   58.2662   61.9219 C   0  0  0  0  0  0  0  0  0  0  0  0
  -35.7008   57.8597   62.7478 C   0  0  0  0  0  0  0  0  0  0  0  0
  -35.7335   58.0866   64.2520 C   0  0  0  0  0  0  0  0  0  0  0  0
  -34.7182   59.1629   64.6680 C   0  0  0  0  0  0  0  0  0  0  0  0
  -33.2965   58.6327   64.9294 C   0  0  0  0  0  0  0  0  0  0  0  0
  -32.3741   58.7550   63.7186 C   0  0  0  0  0  0  0  0  0  0  0  0
  -42.1377   57.7270   65.7134 O   0  0  0  0  0  0  0  0  0  0  0  0
  -42.1974   59.0977   66.0615 C   0  0  0  0  0  0  0  0  0  0  0  0
  -41.2147   57.4290   65.7302 H   0  0  0  0  0  0  0  0  0  0  0  0
  -43.6313   59.6326   66.0538 C   0  0  0  0  0  0  0  0  0  0  0  0
  -44.7107   58.8344   66.1178 C   0  0  0  0  0  0  0  0  0  0  0  0
  -46.1104   59.4458   66.1042 C   0  0  0  0  0  0  0  0  0  0  0  0
  -46.4350   60.2273   64.8227 C   0  0  0  0  0  0  0  0  0  0  0  0
  -47.9152   60.2259   64.3981 C   0  0  0  0  0  0  0  0  0  0  0  0
  -48.5658   58.8499   64.6789 C   0  0  0  0  0  0  0  0  0  0  0  0
  -50.0501   58.8978   65.1222 C   0  0  0  0  0  0  0  0  0  0  0  0
  -50.9416   59.8150   64.2524 C   0  0  0  0  0  0  0  0  0  0  0  0
  -51.0811   59.3352   62.7913 C   0  0  0  0  0  0  0  0  0  0  0  0
  -50.3370   60.2140   61.7788 C   0  0  0  0  0  0  0  0  0  0  0  0
  -49.4575   59.4782   60.7699 C   0  0  0  0  0  0  0  0  0  0  0  0
  -50.0738   58.1684   60.2405 C   0  0  0  0  0  0  0  0  0  0  0  0
  -49.5670   57.7164   58.8624 C   0  0  0  0  0  0  0  0  0  0  0  0
  -48.0399   57.6036   58.8482 C   0  0  0  0  0  0  0  0  0  0  0  0
  -47.3194   58.3338   57.7286 C   0  0  0  0  0  0  0  0  0  0  0  0
  -39.9841   60.3048   65.3765 C   0  0  0  0  0  0  0  0  0  0  0  0
  -39.3436   61.2242   64.4557 O   0  0  0  0  0  0  0  0  0  0  0  0
  -37.5996   61.5984   62.2206 O   0  0  0  0  0  0  0  0  0  0  0  0
  -35.9650   64.5616   64.6589 O   0  0  0  0  0  0  0  0  0  0  0  0
  -37.5527   62.2277   65.7485 O   0  0  0  0  0  0  0  0  0  0  0  0
  -37.8972   61.5080   64.5397 C   0  0  0  0  0  0  0  0  0  0  0  0
  -37.2982   62.3144   63.3784 C   0  0  0  0  0  0  0  0  0  0  0  0
  -35.7647   62.4777   63.4623 C   0  0  0  0  0  0  0  0  0  0  0  0
  -35.4903   63.2200   64.7410 C   0  0  0  0  0  0  0  0  0  0  0  0
  -36.1323   62.4898   65.9067 C   0  0  0  0  0  0  0  0  0  0  0  0
  -38.5605   61.4859   62.1509 H   0  0  0  0  0  0  0  0  0  0  0  0
  -35.5426   65.0087   63.9088 H   0  0  0  0  0  0  0  0  0  0  0  0
  -36.2086   62.8371   68.2705 O   0  0  0  0  0  0  0  0  0  0  0  0
  -35.7506   63.3954   67.0757 C   0  0  0  0  0  0  0  0  0  0  0  0
  -35.9649   63.4139   69.0112 H   0  0  0  0  0  0  0  0  0  0  0  0
  -35.1507   63.2530   62.4078 O   0  0  0  0  0  0  0  0  0  0  0  0
  -32.8798   62.0040   62.3883 O   0  0  0  0  0  0  0  0  0  0  0  0
  -32.9854   64.2834   63.2144 O   0  0  0  0  0  0  0  0  0  0  0  0
  -33.1083   63.8423   60.8343 O   0  0  0  0  0  0  0  0  0  0  0  0
  -33.5036   63.3447   62.1826 S   0  0  0  0  0  0  0  0  0  0  0  0
  -33.1264   61.6634   63.2624 H   0  0  0  0  0  0  0  0  0  0  0  0
  -33.4423   63.2358   60.1551 H   0  0  0  0  0  0  0  0  0  0  0  0
  2  1  1  0  0  0
  2  4  1  0  0  0
  2  5  1  0  0  0
 41 42  1  0  0  0
 41  1  1  0  0  0
 42 46  1  0  0  0
  1 24  1  0  0  0
 23 24  1  0  0  0
 23 25  1  0  0  0
 24 26  1  0  0  0
  3  4  2  0  0  0
 26 27  2  0  0  0
 27 28  1  0  0  0
 43 47  1  0  0  0
 43 51  1  0  0  0
 28 29  1  0  0  0
 56 48  1  0  0  0
 56 60  1  0  0  0
 29 30  1  0  0  0
 57 60  1  0  0  0
 57 61  1  0  0  0
 30 31  1  0  0  0
 44 49  1  0  0  0
 44 52  1  0  0  0
 31 32  1  0  0  0
 45 46  1  0  0  0
 45 50  1  0  0  0
 32 33  1  0  0  0
 53 54  1  0  0  0
 53 55  1  0  0  0
 33 34  1  0  0  0
 34 35  1  0  0  0
 35 36  1  0  0  0
 58 60  1  0  0  0
 36 37  1  0  0  0
 59 60  1  0  0  0
 59 62  1  0  0  0
 37 38  1  0  0  0
 38 39  1  0  0  0
 39 40  1  0  0  0
  4  6  1  0  0  0
  6  7  1  0  0  0
  7  8  1  0  0  0
  8  9  1  0  0  0
  9 10  1  0  0  0
 10 11  1  0  0  0
 11 12  1  0  0  0
 12 13  1  0  0  0
 13 14  1  0  0  0
 14 15  1  0  0  0
 15 16  1  0  0  0
 16 17  1  0  0  0
 17 18  1  0  0  0
 18 19  1  0  0  0
 19 20  1  0  0  0
 20 21  1  0  0  0
 21 22  1  0  0  0
 46 47  1  0  0  0
 47 48  1  0  0  0
 48 49  1  0  0  0
 49 50  1  0  0  0
 50 54  1  0  0  0
M  CHG 1  58  -1
M  END
> <minimizedAffinity>
-9.59221

> <CNNscore>
0.1674675345

> <CNNaffinity>
7.1122903824

> <CNN_VS>
1.1910777092

> <CNNaffinity_variance>
2.1153540611

$$$$
/media/chris/experiments/cd1a-new-docking/inputs/ligands/1onq_ligand.pdb


 62 62  0  0  0  0  0  0  0  0999 V2000
  -40.7526   60.5139   66.2448 C   0  0  0  0  0  0  0  0  0  0  0  0
  -41.4327   59.3511   66.7800 N   0  0  0  0  0  0  0  0  0  0  0  0
  -42.5617   57.3904   66.6113 O   0  0  0  0  0  0  0  0  0  0  0  0
  -41.9917   58.3373   66.1051 C   0  0  0  0  0  0  0  0  0  0  0  0
  -41.4913   59.2997   67.7614 H   0  0  0  0  0  0  0  0  0  0  0  0
  -41.8852   58.4297   64.6119 C   0  0  0  0  0  0  0  0  0  0  0  0
  -43.1393   57.7632   64.0460 C   0  0  0  0  0  0  0  0  0  0  0  0
  -44.3020   58.7527   64.0481 C   0  0  0  0  0  0  0  0  0  0  0  0
  -45.4186   58.4622   65.0213 C   0  0  0  0  0  0  0  0  0  0  0  0
  -46.4003   59.6277   64.9577 C   0  0  0  0  0  0  0  0  0  0  0  0
  -47.0396   59.9393   66.3175 C   0  0  0  0  0  0  0  0  0  0  0  0
  -48.5533   60.2142   66.2562 C   0  0  0  0  0  0  0  0  0  0  0  0
  -49.2501   59.4800   65.0897 C   0  0  0  0  0  0  0  0  0  0  0  0
  -50.6876   59.9796   64.9188 C   0  0  0  0  0  0  0  0  0  0  0  0
  -51.1777   60.0536   63.4778 C   0  0  0  0  0  0  0  0  0  0  0  0
  -50.0391   59.9447   62.4745 C   0  0  0  0  0  0  0  0  0  0  0  0
  -50.1778   58.8456   61.4186 C   0  0  0  0  0  0  0  0  0  0  0  0
  -49.2669   59.1921   60.2487 C   0  0  0  0  0  0  0  0  0  0  0  0
  -49.1231   58.1884   59.1142 C   0  0  0  0  0  0  0  0  0  0  0  0
  -47.9635   57.2164   59.3836 C   0  0  0  0  0  0  0  0  0  0  0  0
  -46.9018   57.1645   58.2697 C   0  0  0  0  0  0  0  0  0  0  0  0
  -47.1691   58.1498   57.1341 C   0  0  0  0  0  0  0  0  0  0  0  0
  -42.6607   61.2752   67.3289 O   0  0  0  0  0  0  0  0  0  0  0  0
  -41.8610   61.5514   66.1941 C   0  0  0  0  0  0  0  0  0  0  0  0
  -42.1296   61.3850   68.1332 H   0  0  0  0  0  0  0  0  0  0  0  0
  -42.6416   61.3959   64.8869 C   0  0  0  0  0  0  0  0  0  0  0  0
  -42.5745   62.2878   63.8838 C   0  0  0  0  0  0  0  0  0  0  0  0
  -43.3859   62.0615   62.6095 C   0  0  0  0  0  0  0  0  0  0  0  0
  -42.5270   61.7971   61.3643 C   0  0  0  0  0  0  0  0  0  0  0  0
  -41.5608   60.6021   61.4627 C   0  0  0  0  0  0  0  0  0  0  0  0
  -40.7515   60.4410   60.1533 C   0  0  0  0  0  0  0  0  0  0  0  0
  -40.9556   59.0963   59.4104 C   0  0  0  0  0  0  0  0  0  0  0  0
  -39.6451   58.4424   58.9128 C   0  0  0  0  0  0  0  0  0  0  0  0
  -38.3719   59.1928   59.3601 C   0  0  0  0  0  0  0  0  0  0  0  0
  -37.4862   58.3892   60.3197 C   0  0  0  0  0  0  0  0  0  0  0  0
  -37.6910   58.6605   61.8087 C   0  0  0  0  0  0  0  0  0  0  0  0
  -38.8455   57.8564   62.4383 C   0  0  0  0  0  0  0  0  0  0  0  0
  -39.2413   56.5782   61.6835 C   0  0  0  0  0  0  0  0  0  0  0  0
  -40.7537   56.3473   61.7486 C   0  0  0  0  0  0  0  0  0  0  0  0
  -41.2174   55.1248   62.5207 C   0  0  0  0  0  0  0  0  0  0  0  0
  -39.9541   60.2774   64.9427 C   0  0  0  0  0  0  0  0  0  0  0  0
  -38.5761   59.8520   65.0956 O   0  0  0  0  0  0  0  0  0  0  0  0
  -38.3305   61.5290   62.7925 O   0  0  0  0  0  0  0  0  0  0  0  0
  -36.8713   64.2620   65.5854 O   0  0  0  0  0  0  0  0  0  0  0  0
  -36.8554   61.2719   66.0487 O   0  0  0  0  0  0  0  0  0  0  0  0
  -37.4558   60.7754   64.8277 C   0  0  0  0  0  0  0  0  0  0  0  0
  -37.7879   62.0133   63.9820 C   0  0  0  0  0  0  0  0  0  0  0  0
  -36.5554   62.8775   63.6365 C   0  0  0  0  0  0  0  0  0  0  0  0
  -35.9870   63.3431   64.9486 C   0  0  0  0  0  0  0  0  0  0  0  0
  -35.7141   62.1475   65.8433 C   0  0  0  0  0  0  0  0  0  0  0  0
  -39.1073   60.9828   62.9902 H   0  0  0  0  0  0  0  0  0  0  0  0
  -37.0317   65.0167   64.9973 H   0  0  0  0  0  0  0  0  0  0  0  0
  -36.1816   62.9524   68.0449 O   0  0  0  0  0  0  0  0  0  0  0  0
  -35.1656   62.8279   67.0956 C   0  0  0  0  0  0  0  0  0  0  0  0
  -35.8309   63.3848   68.8391 H   0  0  0  0  0  0  0  0  0  0  0  0
  -36.8144   64.0719   62.8644 O   0  0  0  0  0  0  0  0  0  0  0  0
  -36.2616   65.9812   61.2011 O   0  0  0  0  0  0  0  0  0  0  0  0
  -35.2687   63.7901   60.8815 O   0  0  0  0  0  0  0  0  0  0  0  0
  -34.4582   65.2515   62.6369 O   0  0  0  0  0  0  0  0  0  0  0  0
  -35.6712   64.8000   61.8975 S   0  0  0  0  0  0  0  0  0  0  0  0
  -37.0538   65.7063   60.7135 H   0  0  0  0  0  0  0  0  0  0  0  0
  -34.7116   65.9106   63.3020 H   0  0  0  0  0  0  0  0  0  0  0  0
  2  1  1  0  0  0
  2  4  1  0  0  0
  2  5  1  0  0  0
 41 42  1  0  0  0
 41  1  1  0  0  0
 42 46  1  0  0  0
  1 24  1  0  0  0
 23 24  1  0  0  0
 23 25  1  0  0  0
 24 26  1  0  0  0
  3  4  2  0  0  0
 26 27  2  0  0  0
 27 28  1  0  0  0
 43 47  1  0  0  0
 43 51  1  0  0  0
 28 29  1  0  0  0
 56 48  1  0  0  0
 56 60  1  0  0  0
 29 30  1  0  0  0
 57 60  1  0  0  0
 57 61  1  0  0  0
 30 31  1  0  0  0
 44 49  1  0  0  0
 44 52  1  0  0  0
 31 32  1  0  0  0
 45 46  1  0  0  0
 45 50  1  0  0  0
 32 33  1  0  0  0
 53 54  1  0  0  0
 53 55  1  0  0  0
 33 34  1  0  0  0
 34 35  1  0  0  0
 35 36  1  0  0  0
 58 60  1  0  0  0
 36 37  1  0  0  0
 59 60  1  0  0  0
 59 62  1  0  0  0
 37 38  1  0  0  0
 38 39  1  0  0  0
 39 40  1  0  0  0
  4  6  1  0  0  0
  6  7  1  0  0  0
  7  8  1  0  0  0
  8  9  1  0  0  0
  9 10  1  0  0  0
 10 11  1  0  0  0
 11 12  1  0  0  0
 12 13  1  0  0  0
 13 14  1  0  0  0
 14 15  1  0  0  0
 15 16  1  0  0  0
 16 17  1  0  0  0
 17 18  1  0  0  0
 18 19  1  0  0  0
 19 20  1  0  0  0
 20 21  1  0  0  0
 21 22  1  0  0  0
 46 47  1  0  0  0
 47 48  1  0  0  0
 48 49  1  0  0  0
 49 50  1  0  0  0
 50 54  1  0  0  0
M  CHG 1  58  -1
M  END
> <minimizedAffinity>
-8.86013

> <CNNscore>
0.1666499376

> <CNNaffinity>
7.1198782921

> <CNN_VS>
1.1865272522

> <CNNaffinity_variance>
1.8889951706

$$$$
/media/chris/experiments/cd1a-new-docking/inputs/ligands/1onq_ligand.pdb


 62 62  0  0  0  0  0  0  0  0999 V2000
  -41.6334   60.5964   64.3571 C   0  0  0  0  0  0  0  0  0  0  0  0
  -41.9969   61.5449   63.3230 N   0  0  0  0  0  0  0  0  0  0  0  0
  -42.3888   62.1755   61.1792 O   0  0  0  0  0  0  0  0  0  0  0  0
  -42.0893   61.3333   62.0030 C   0  0  0  0  0  0  0  0  0  0  0  0
  -42.2014   62.4582   63.6285 H   0  0  0  0  0  0  0  0  0  0  0  0
  -41.7817   59.9343   61.5585 C   0  0  0  0  0  0  0  0  0  0  0  0
  -40.9734   60.0579   60.2668 C   0  0  0  0  0  0  0  0  0  0  0  0
  -41.1093   58.7803   59.4421 C   0  0  0  0  0  0  0  0  0  0  0  0
  -39.9364   57.8314   59.4906 C   0  0  0  0  0  0  0  0  0  0  0  0
  -38.6658   58.6610   59.3372 C   0  0  0  0  0  0  0  0  0  0  0  0
  -37.7381   58.5554   60.5549 C   0  0  0  0  0  0  0  0  0  0  0  0
  -38.3360   57.7739   61.7392 C   0  0  0  0  0  0  0  0  0  0  0  0
  -37.5966   58.0399   63.0688 C   0  0  0  0  0  0  0  0  0  0  0  0
  -36.0940   57.7903   62.9104 C   0  0  0  0  0  0  0  0  0  0  0  0
  -35.3286   57.6126   64.2160 C   0  0  0  0  0  0  0  0  0  0  0  0
  -34.5592   58.8649   64.6093 C   0  0  0  0  0  0  0  0  0  0  0  0
  -33.0397   58.8002   64.4388 C   0  0  0  0  0  0  0  0  0  0  0  0
  -32.6743   59.5236   63.1498 C   0  0  0  0  0  0  0  0  0  0  0  0
  -31.2042   59.6622   62.7828 C   0  0  0  0  0  0  0  0  0  0  0  0
  -30.9298   61.0187   62.1143 C   0  0  0  0  0  0  0  0  0  0  0  0
  -32.1736   61.9102   61.9445 C   0  0  0  0  0  0  0  0  0  0  0  0
  -31.8463   63.3141   61.4408 C   0  0  0  0  0  0  0  0  0  0  0  0
  -41.8148   60.8875   66.6545 O   0  0  0  0  0  0  0  0  0  0  0  0
  -42.5992   60.9419   65.4775 C   0  0  0  0  0  0  0  0  0  0  0  0
  -41.1062   61.5478   66.6016 H   0  0  0  0  0  0  0  0  0  0  0  0
  -43.7395   59.9212   65.4966 C   0  0  0  0  0  0  0  0  0  0  0  0
  -45.0291   60.2614   65.3313 C   0  0  0  0  0  0  0  0  0  0  0  0
  -46.1102   59.1827   65.3644 C   0  0  0  0  0  0  0  0  0  0  0  0
  -47.3418   59.5104   64.5077 C   0  0  0  0  0  0  0  0  0  0  0  0
  -48.6742   59.6229   65.2716 C   0  0  0  0  0  0  0  0  0  0  0  0
  -49.5724   60.7198   64.6505 C   0  0  0  0  0  0  0  0  0  0  0  0
  -51.0195   60.2784   64.3147 C   0  0  0  0  0  0  0  0  0  0  0  0
  -51.1774   59.6358   62.9166 C   0  0  0  0  0  0  0  0  0  0  0  0
  -50.5155   58.2458   62.7976 C   0  0  0  0  0  0  0  0  0  0  0  0
  -49.3989   58.1810   61.7488 C   0  0  0  0  0  0  0  0  0  0  0  0
  -49.5759   59.0756   60.5236 C   0  0  0  0  0  0  0  0  0  0  0  0
  -50.1287   58.3407   59.2867 C   0  0  0  0  0  0  0  0  0  0  0  0
  -49.0783   57.6144   58.4326 C   0  0  0  0  0  0  0  0  0  0  0  0
  -47.7906   58.4367   58.3283 C   0  0  0  0  0  0  0  0  0  0  0  0
  -46.9014   58.1494   57.1315 C   0  0  0  0  0  0  0  0  0  0  0  0
  -40.1311   60.5473   64.7171 C   0  0  0  0  0  0  0  0  0  0  0  0
  -39.2328   61.2880   63.8524 O   0  0  0  0  0  0  0  0  0  0  0  0
  -37.1724   62.2219   62.1033 O   0  0  0  0  0  0  0  0  0  0  0  0
  -36.0831   64.4740   65.4409 O   0  0  0  0  0  0  0  0  0  0  0  0
  -37.7186   61.9356   65.6338 O   0  0  0  0  0  0  0  0  0  0  0  0
  -37.8327   61.5452   64.2437 C   0  0  0  0  0  0  0  0  0  0  0  0
  -37.0924   62.6216   63.4366 C   0  0  0  0  0  0  0  0  0  0  0  0
  -35.6009   62.7625   63.8122 C   0  0  0  0  0  0  0  0  0  0  0  0
  -35.5680   63.1568   65.2630 C   0  0  0  0  0  0  0  0  0  0  0  0
  -36.3549   62.1530   66.0861 C   0  0  0  0  0  0  0  0  0  0  0  0
  -38.1037   62.1281   61.8492 H   0  0  0  0  0  0  0  0  0  0  0  0
  -35.5666   65.0980   64.9071 H   0  0  0  0  0  0  0  0  0  0  0  0
  -34.8920   63.1633   67.6839 O   0  0  0  0  0  0  0  0  0  0  0  0
  -36.2061   62.7334   67.4907 C   0  0  0  0  0  0  0  0  0  0  0  0
  -34.8000   63.5314   68.5765 H   0  0  0  0  0  0  0  0  0  0  0  0
  -34.8615   63.7816   63.1019 O   0  0  0  0  0  0  0  0  0  0  0  0
  -35.6281   63.7937   60.6261 O   0  0  0  0  0  0  0  0  0  0  0  0
  -34.5323   65.7521   61.5497 O   0  0  0  0  0  0  0  0  0  0  0  0
  -36.8321   65.2541   62.1307 O   0  0  0  0  0  0  0  0  0  0  0  0
  -35.4982   64.6572   61.8370 S   0  0  0  0  0  0  0  0  0  0  0  0
  -34.7680   63.3956   60.4191 H   0  0  0  0  0  0  0  0  0  0  0  0
  -37.4684   64.5468   62.3193 H   0  0  0  0  0  0  0  0  0  0  0  0
  2  1  1  0  0  0
  2  4  1  0  0  0
  2  5  1  0  0  0
 41 42  1  0  0  0
 41  1  1  0  0  0
 42 46  1  0  0  0
  1 24  1  0  0  0
 23 24  1  0  0  0
 23 25  1  0  0  0
 24 26  1  0  0  0
  3  4  2  0  0  0
 26 27  2  0  0  0
 27 28  1  0  0  0
 43 47  1  0  0  0
 43 51  1  0  0  0
 28 29  1  0  0  0
 56 48  1  0  0  0
 56 60  1  0  0  0
 29 30  1  0  0  0
 57 60  1  0  0  0
 57 61  1  0  0  0
 30 31  1  0  0  0
 44 49  1  0  0  0
 44 52  1  0  0  0
 31 32  1  0  0  0
 45 46  1  0  0  0
 45 50  1  0  0  0
 32 33  1  0  0  0
 53 54  1  0  0  0
 53 55  1  0  0  0
 33 34  1  0  0  0
 34 35  1  0  0  0
 35 36  1  0  0  0
 58 60  1  0  0  0
 36 37  1  0  0  0
 59 60  1  0  0  0
 59 62  1  0  0  0
 37 38  1  0  0  0
 38 39  1  0  0  0
 39 40  1  0  0  0
  4  6  1  0  0  0
  6  7  1  0  0  0
  7  8  1  0  0  0
  8  9  1  0  0  0
  9 10  1  0  0  0
 10 11  1  0  0  0
 11 12  1  0  0  0
 12 13  1  0  0  0
 13 14  1  0  0  0
 14 15  1  0  0  0
 15 16  1  0  0  0
 16 17  1  0  0  0
 17 18  1  0  0  0
 18 19  1  0  0  0
 19 20  1  0  0  0
 20 21  1  0  0  0
 21 22  1  0  0  0
 46 47  1  0  0  0
 47 48  1  0  0  0
 48 49  1  0  0  0
 49 50  1  0  0  0
 50 54  1  0  0  0
M  CHG 1  58  -1
M  END
> <minimizedAffinity>
-9.61339

> <CNNscore>
0.1643772423

> <CNNaffinity>
6.7980699539

> <CNN_VS>
1.1174479723

> <CNNaffinity_variance>
1.3234161139

$$$$
/media/chris/experiments/cd1a-new-docking/inputs/ligands/1onq_ligand.pdb


 62 62  0  0  0  0  0  0  0  0999 V2000
  -41.3142   60.5636   65.2647 C   0  0  0  0  0  0  0  0  0  0  0  0
  -41.6310   61.1672   63.9855 N   0  0  0  0  0  0  0  0  0  0  0  0
  -42.3376   61.1276   61.8299 O   0  0  0  0  0  0  0  0  0  0  0  0
  -42.1011   60.5681   62.8829 C   0  0  0  0  0  0  0  0  0  0  0  0
  -41.4822   62.1381   63.9183 H   0  0  0  0  0  0  0  0  0  0  0  0
  -42.3284   59.0908   63.0076 C   0  0  0  0  0  0  0  0  0  0  0  0
  -40.9453   58.4398   63.0294 C   0  0  0  0  0  0  0  0  0  0  0  0
  -41.0027   57.1185   63.7922 C   0  0  0  0  0  0  0  0  0  0  0  0
  -41.7455   55.9929   63.1144 C   0  0  0  0  0  0  0  0  0  0  0  0
  -41.0386   55.7034   61.7942 C   0  0  0  0  0  0  0  0  0  0  0  0
  -41.6985   56.4079   60.6014 C   0  0  0  0  0  0  0  0  0  0  0  0
  -40.7099   57.1309   59.6683 C   0  0  0  0  0  0  0  0  0  0  0  0
  -41.0267   58.6338   59.5064 C   0  0  0  0  0  0  0  0  0  0  0  0
  -39.7467   59.4689   59.6033 C   0  0  0  0  0  0  0  0  0  0  0  0
  -38.4514   58.6662   59.6036 C   0  0  0  0  0  0  0  0  0  0  0  0
  -37.7448   58.7109   60.9504 C   0  0  0  0  0  0  0  0  0  0  0  0
  -37.8553   57.4485   61.8083 C   0  0  0  0  0  0  0  0  0  0  0  0
  -37.0124   57.6489   63.0605 C   0  0  0  0  0  0  0  0  0  0  0  0
  -35.7597   58.5076   62.9666 C   0  0  0  0  0  0  0  0  0  0  0  0
  -35.0350   58.5727   64.3204 C   0  0  0  0  0  0  0  0  0  0  0  0
  -33.5079   58.7424   64.2197 C   0  0  0  0  0  0  0  0  0  0  0  0
  -32.7653   58.2839   65.4727 C   0  0  0  0  0  0  0  0  0  0  0  0
  -41.8457   60.8804   67.5037 O   0  0  0  0  0  0  0  0  0  0  0  0
  -42.2666   61.2745   66.2109 C   0  0  0  0  0  0  0  0  0  0  0  0
  -40.9347   61.1785   67.6520 H   0  0  0  0  0  0  0  0  0  0  0  0
  -43.7013   60.8333   65.9121 C   0  0  0  0  0  0  0  0  0  0  0  0
  -44.1379   59.5782   66.1128 C   0  0  0  0  0  0  0  0  0  0  0  0
  -45.5860   59.2160   65.7884 C   0  0  0  0  0  0  0  0  0  0  0  0
  -46.1219   59.8797   64.5115 C   0  0  0  0  0  0  0  0  0  0  0  0
  -47.6554   59.9553   64.3928 C   0  0  0  0  0  0  0  0  0  0  0  0
  -48.3262   58.8321   65.2197 C   0  0  0  0  0  0  0  0  0  0  0  0
  -49.8157   58.5641   64.8860 C   0  0  0  0  0  0  0  0  0  0  0  0
  -50.5031   59.7037   64.0977 C   0  0  0  0  0  0  0  0  0  0  0  0
  -51.1772   59.2316   62.7912 C   0  0  0  0  0  0  0  0  0  0  0  0
  -50.4764   58.0383   62.1307 C   0  0  0  0  0  0  0  0  0  0  0  0
  -49.5789   58.3627   60.9383 C   0  0  0  0  0  0  0  0  0  0  0  0
  -50.2301   58.0810   59.5700 C   0  0  0  0  0  0  0  0  0  0  0  0
  -49.2581   57.6646   58.4555 C   0  0  0  0  0  0  0  0  0  0  0  0
  -47.9703   58.4913   58.5120 C   0  0  0  0  0  0  0  0  0  0  0  0
  -46.9933   58.2982   57.3657 C   0  0  0  0  0  0  0  0  0  0  0  0
  -39.8168   60.5625   65.6478 C   0  0  0  0  0  0  0  0  0  0  0  0
  -38.8674   60.5696   64.5515 O   0  0  0  0  0  0  0  0  0  0  0  0
  -37.5353   62.0135   62.4735 O   0  0  0  0  0  0  0  0  0  0  0  0
  -36.5413   64.5776   65.6097 O   0  0  0  0  0  0  0  0  0  0  0  0
  -37.3004   61.6795   66.0341 O   0  0  0  0  0  0  0  0  0  0  0  0
  -37.5552   61.2341   64.6797 C   0  0  0  0  0  0  0  0  0  0  0  0
  -37.3259   62.4563   63.7789 C   0  0  0  0  0  0  0  0  0  0  0  0
  -35.8972   63.0357   63.8713 C   0  0  0  0  0  0  0  0  0  0  0  0
  -35.7083   63.4630   65.3007 C   0  0  0  0  0  0  0  0  0  0  0  0
  -35.9994   62.2970   66.2280 C   0  0  0  0  0  0  0  0  0  0  0  0
  -38.4295   61.6456   62.3965 H   0  0  0  0  0  0  0  0  0  0  0  0
  -36.3388   65.3098   65.0064 H   0  0  0  0  0  0  0  0  0  0  0  0
  -34.4791   63.4769   67.6459 O   0  0  0  0  0  0  0  0  0  0  0  0
  -35.7645   62.9346   67.5957 C   0  0  0  0  0  0  0  0  0  0  0  0
  -34.3324   63.8811   68.5152 H   0  0  0  0  0  0  0  0  0  0  0  0
  -35.6337   64.2057   63.0640 O   0  0  0  0  0  0  0  0  0  0  0  0
  -35.5562   63.8304   60.5007 O   0  0  0  0  0  0  0  0  0  0  0  0
  -33.6947   63.0982   61.8746 O   0  0  0  0  0  0  0  0  0  0  0  0
  -34.0043   65.4539   61.3962 O   0  0  0  0  0  0  0  0  0  0  0  0
  -34.7076   64.1709   61.6808 S   0  0  0  0  0  0  0  0  0  0  0  0
  -36.0228   62.9965   60.6678 H   0  0  0  0  0  0  0  0  0  0  0  0
  -34.6577   66.1594   61.2684 H   0  0  0  0  0  0  0  0  0  0  0  0
  2  1  1  0  0  0
  2  4  1  0  0  0
  2  5  1  0  0  0
 41 42  1  0  0  0
 41  1  1  0  0  0
 42 46  1  0  0  0
  1 24  1  0  0  0
 23 24  1  0  0  0
 23 25  1  0  0  0
 24 26  1  0  0  0
  3  4  2  0  0  0
 26 27  2  0  0  0
 27 28  1  0  0  0
 43 47  1  0  0  0
 43 51  1  0  0  0
 28 29  1  0  0  0
 56 48  1  0  0  0
 56 60  1  0  0  0
 29 30  1  0  0  0
 57 60  1  0  0  0
 57 61  1  0  0  0
 30 31  1  0  0  0
 44 49  1  0  0  0
 44 52  1  0  0  0
 31 32  1  0  0  0
 45 46  1  0  0  0
 45 50  1  0  0  0
 32 33  1  0  0  0
 53 54  1  0  0  0
 53 55  1  0  0  0
 33 34  1  0  0  0
 34 35  1  0  0  0
 35 36  1  0  0  0
 58 60  1  0  0  0
 36 37  1  0  0  0
 59 60  1  0  0  0
 59 62  1  0  0  0
 37 38  1  0  0  0
 38 39  1  0  0  0
 39 40  1  0  0  0
  4  6  1  0  0  0
  6  7  1  0  0  0
  7  8  1  0  0  0
  8  9  1  0  0  0
  9 10  1  0  0  0
 10 11  1  0  0  0
 11 12  1  0  0  0
 12 13  1  0  0  0
 13 14  1  0  0  0
 14 15  1  0  0  0
 15 16  1  0  0  0
 16 17  1  0  0  0
 17 18  1  0  0  0
 18 19  1  0  0  0
 19 20  1  0  0  0
 20 21  1  0  0  0
 21 22  1  0  0  0
 46 47  1  0  0  0
 47 48  1  0  0  0
 48 49  1  0  0  0
 49 50  1  0  0  0
 50 54  1  0  0  0
M  CHG 1  58  -1
M  END
> <minimizedAffinity>
-9.07958

> <CNNscore>
0.1587332189

> <CNNaffinity>
7.1581602097

> <CNN_VS>
1.1362378597

> <CNNaffinity_variance>
1.2926352024

$$$$
/media/chris/experiments/cd1a-new-docking/inputs/ligands/1onq_ligand.pdb


 62 62  0  0  0  0  0  0  0  0999 V2000
  -40.1924   60.9881   63.5125 C   0  0  0  0  0  0  0  0  0  0  0  0
  -40.5643   59.6307   63.8592 N   0  0  0  0  0  0  0  0  0  0  0  0
  -41.4989   58.0476   65.1887 O   0  0  0  0  0  0  0  0  0  0  0  0
  -41.2248   59.2066   64.9453 C   0  0  0  0  0  0  0  0  0  0  0  0
  -40.2985   58.9335   63.2169 H   0  0  0  0  0  0  0  0  0  0  0  0
  -41.6277   60.2841   65.9077 C   0  0  0  0  0  0  0  0  0  0  0  0
  -43.0147   59.9048   66.4269 C   0  0  0  0  0  0  0  0  0  0  0  0
  -44.0889   60.4326   65.4790 C   0  0  0  0  0  0  0  0  0  0  0  0
  -45.0103   59.3986   64.8789 C   0  0  0  0  0  0  0  0  0  0  0  0
  -46.3581   60.0691   64.6339 C   0  0  0  0  0  0  0  0  0  0  0  0
  -47.5318   59.0828   64.6999 C   0  0  0  0  0  0  0  0  0  0  0  0
  -48.6542   59.4998   65.6679 C   0  0  0  0  0  0  0  0  0  0  0  0
  -50.0451   58.9915   65.2291 C   0  0  0  0  0  0  0  0  0  0  0  0
  -50.7937   60.0744   64.4468 C   0  0  0  0  0  0  0  0  0  0  0  0
  -50.9326   59.8107   62.9523 C   0  0  0  0  0  0  0  0  0  0  0  0
  -50.7503   58.3404   62.6061 C   0  0  0  0  0  0  0  0  0  0  0  0
  -49.6050   58.0144   61.6447 C   0  0  0  0  0  0  0  0  0  0  0  0
  -49.9133   58.6611   60.3010 C   0  0  0  0  0  0  0  0  0  0  0  0
  -49.3138   58.0502   59.0430 C   0  0  0  0  0  0  0  0  0  0  0  0
  -47.9674   57.3744   59.3477 C   0  0  0  0  0  0  0  0  0  0  0  0
  -46.9867   57.3409   58.1611 C   0  0  0  0  0  0  0  0  0  0  0  0
  -47.6485   57.6556   56.8214 C   0  0  0  0  0  0  0  0  0  0  0  0
  -42.3062   61.7051   62.8693 O   0  0  0  0  0  0  0  0  0  0  0  0
  -41.0773   61.2773   62.3121 C   0  0  0  0  0  0  0  0  0  0  0  0
  -42.1627   62.5124   63.3874 H   0  0  0  0  0  0  0  0  0  0  0  0
  -41.2342   60.0029   61.4793 C   0  0  0  0  0  0  0  0  0  0  0  0
  -40.9371   59.9431   60.1699 C   0  0  0  0  0  0  0  0  0  0  0  0
  -41.1221   58.6324   59.4074 C   0  0  0  0  0  0  0  0  0  0  0  0
  -39.8047   57.9235   59.0608 C   0  0  0  0  0  0  0  0  0  0  0  0
  -38.5471   58.8121   59.0709 C   0  0  0  0  0  0  0  0  0  0  0  0
  -37.7581   58.6321   60.3902 C   0  0  0  0  0  0  0  0  0  0  0  0
  -38.3116   57.5482   61.3497 C   0  0  0  0  0  0  0  0  0  0  0  0
  -37.7997   57.6689   62.8043 C   0  0  0  0  0  0  0  0  0  0  0  0
  -36.4168   58.3463   62.9181 C   0  0  0  0  0  0  0  0  0  0  0  0
  -35.4109   57.5587   63.7661 C   0  0  0  0  0  0  0  0  0  0  0  0
  -34.5296   58.3840   64.7014 C   0  0  0  0  0  0  0  0  0  0  0  0
  -33.1612   58.7614   64.1009 C   0  0  0  0  0  0  0  0  0  0  0  0
  -33.1215   60.1033   63.3538 C   0  0  0  0  0  0  0  0  0  0  0  0
  -32.2570   60.0055   62.0936 C   0  0  0  0  0  0  0  0  0  0  0  0
  -30.9326   60.7477   62.1243 C   0  0  0  0  0  0  0  0  0  0  0  0
  -38.6770   61.2405   63.3429 C   0  0  0  0  0  0  0  0  0  0  0  0
  -37.9776   61.7824   64.4921 O   0  0  0  0  0  0  0  0  0  0  0  0
  -35.8656   62.4689   66.2936 O   0  0  0  0  0  0  0  0  0  0  0  0
  -33.9060   63.5251   62.7662 O   0  0  0  0  0  0  0  0  0  0  0  0
  -36.9193   63.3634   62.9869 O   0  0  0  0  0  0  0  0  0  0  0  0
  -37.0985   62.9618   64.3669 C   0  0  0  0  0  0  0  0  0  0  0  0
  -35.6876   62.8185   64.9556 C   0  0  0  0  0  0  0  0  0  0  0  0
  -34.8573   64.1197   64.9006 C   0  0  0  0  0  0  0  0  0  0  0  0
  -34.7257   64.4733   63.4450 C   0  0  0  0  0  0  0  0  0  0  0  0
  -36.1018   64.5514   62.8089 C   0  0  0  0  0  0  0  0  0  0  0  0
  -36.3861   61.6522   66.3478 H   0  0  0  0  0  0  0  0  0  0  0  0
  -33.0331   63.4914   63.1882 H   0  0  0  0  0  0  0  0  0  0  0  0
  -35.8032   63.7531   60.5757 O   0  0  0  0  0  0  0  0  0  0  0  0
  -35.7466   64.9027   61.3658 C   0  0  0  0  0  0  0  0  0  0  0  0
  -35.5773   63.9788   59.6598 H   0  0  0  0  0  0  0  0  0  0  0  0
  -33.5097   64.0345   65.4169 O   0  0  0  0  0  0  0  0  0  0  0  0
  -33.4170   65.4498   67.5861 O   0  0  0  0  0  0  0  0  0  0  0  0
  -32.9743   66.5069   65.4470 O   0  0  0  0  0  0  0  0  0  0  0  0
  -31.3105   65.0665   66.4626 O   0  0  0  0  0  0  0  0  0  0  0  0
  -32.7717   65.2717   66.2517 S   0  0  0  0  0  0  0  0  0  0  0  0
  -34.3704   65.5849   67.4688 H   0  0  0  0  0  0  0  0  0  0  0  0
  -31.1693   64.2626   66.9867 H   0  0  0  0  0  0  0  0  0  0  0  0
  2  1  1  0  0  0
  2  4  1  0  0  0
  2  5  1  0  0  0
 41 42  1  0  0  0
 41  1  1  0  0  0
 42 46  1  0  0  0
  1 24  1  0  0  0
 23 24  1  0  0  0
 23 25  1  0  0  0
 24 26  1  0  0  0
  3  4  2  0  0  0
 26 27  2  0  0  0
 27 28  1  0  0  0
 43 47  1  0  0  0
 43 51  1  0  0  0
 28 29  1  0  0  0
 56 48  1  0  0  0
 56 60  1  0  0  0
 29 30  1  0  0  0
 57 60  1  0  0  0
 57 61  1  0  0  0
 30 31  1  0  0  0
 44 49  1  0  0  0
 44 52  1  0  0  0
 31 32  1  0  0  0
 45 46  1  0  0  0
 45 50  1  0  0  0
 32 33  1  0  0  0
 53 54  1  0  0  0
 53 55  1  0  0  0
 33 34  1  0  0  0
 34 35  1  0  0  0
 35 36  1  0  0  0
 58 60  1  0  0  0
 36 37  1  0  0  0
 59 60  1  0  0  0
 59 62  1  0  0  0
 37 38  1  0  0  0
 38 39  1  0  0  0
 39 40  1  0  0  0
  4  6  1  0  0  0
  6  7  1  0  0  0
  7  8  1  0  0  0
  8  9  1  0  0  0
  9 10  1  0  0  0
 10 11  1  0  0  0
 11 12  1  0  0  0
 12 13  1  0  0  0
 13 14  1  0  0  0
 14 15  1  0  0  0
 15 16  1  0  0  0
 16 17  1  0  0  0
 17 18  1  0  0  0
 18 19  1  0  0  0
 19 20  1  0  0  0
 20 21  1  0  0  0
 21 22  1  0  0  0
 46 47  1  0  0  0
 47 48  1  0  0  0
 48 49  1  0  0  0
 49 50  1  0  0  0
 50 54  1  0  0  0
M  CHG 1  58  -1
M  END
> <minimizedAffinity>
-9.41257

> <CNNscore>
0.1502718925

> <CNNaffinity>
6.7154593468

> <CNN_VS>
1.0091447830

> <CNNaffinity_variance>
1.6229130030

$$$$
/media/chris/experiments/cd1a-new-docking/inputs/ligands/1onq_ligand.pdb


 62 62  0  0  0  0  0  0  0  0999 V2000
  -39.4746   60.4417   64.3540 C   0  0  0  0  0  0  0  0  0  0  0  0
  -40.6906   61.0747   64.8252 N   0  0  0  0  0  0  0  0  0  0  0  0
  -42.9137   61.1433   65.2727 O   0  0  0  0  0  0  0  0  0  0  0  0
  -41.9254   60.5568   64.8764 C   0  0  0  0  0  0  0  0  0  0  0  0
  -40.5976   62.0002   65.1478 H   0  0  0  0  0  0  0  0  0  0  0  0
  -42.0450   59.1437   64.3881 C   0  0  0  0  0  0  0  0  0  0  0  0
  -43.5396   58.8660   64.2266 C   0  0  0  0  0  0  0  0  0  0  0  0
  -43.9217   57.6035   64.9955 C   0  0  0  0  0  0  0  0  0  0  0  0
  -45.2295   57.6549   65.7473 C   0  0  0  0  0  0  0  0  0  0  0  0
  -45.7011   59.1054   65.7531 C   0  0  0  0  0  0  0  0  0  0  0  0
  -47.1201   59.2698   65.1926 C   0  0  0  0  0  0  0  0  0  0  0  0
  -47.2817   60.4504   64.2176 C   0  0  0  0  0  0  0  0  0  0  0  0
  -48.7340   60.9704   64.1398 C   0  0  0  0  0  0  0  0  0  0  0  0
  -49.6813   60.0434   64.9069 C   0  0  0  0  0  0  0  0  0  0  0  0
  -51.1141   60.0135   64.3889 C   0  0  0  0  0  0  0  0  0  0  0  0
  -51.1777   59.9005   62.8729 C   0  0  0  0  0  0  0  0  0  0  0  0
  -50.8554   58.5232   62.2887 C   0  0  0  0  0  0  0  0  0  0  0  0
  -49.8124   58.7031   61.1940 C   0  0  0  0  0  0  0  0  0  0  0  0
  -49.6014   57.5749   60.1951 C   0  0  0  0  0  0  0  0  0  0  0  0
  -48.1303   57.4958   59.7573 C   0  0  0  0  0  0  0  0  0  0  0  0
  -47.8377   58.1282   58.3843 C   0  0  0  0  0  0  0  0  0  0  0  0
  -48.3948   57.3188   57.2154 C   0  0  0  0  0  0  0  0  0  0  0  0
  -38.4822   61.3724   66.2367 O   0  0  0  0  0  0  0  0  0  0  0  0
  -38.7496   60.1133   65.6478 C   0  0  0  0  0  0  0  0  0  0  0  0
  -39.3188   61.8267   66.4225 H   0  0  0  0  0  0  0  0  0  0  0  0
  -37.4669   59.3419   65.3284 C   0  0  0  0  0  0  0  0  0  0  0  0
  -37.3826   58.0023   65.3954 C   0  0  0  0  0  0  0  0  0  0  0  0
  -36.0647   57.3058   65.0617 C   0  0  0  0  0  0  0  0  0  0  0  0
  -35.1990   58.0666   64.0467 C   0  0  0  0  0  0  0  0  0  0  0  0
  -35.3995   57.6721   62.5717 C   0  0  0  0  0  0  0  0  0  0  0  0
  -36.7261   58.2512   62.0238 C   0  0  0  0  0  0  0  0  0  0  0  0
  -37.8583   57.2165   61.8021 C   0  0  0  0  0  0  0  0  0  0  0  0
  -39.2235   57.6342   62.3972 C   0  0  0  0  0  0  0  0  0  0  0  0
  -40.3688   56.6539   62.0631 C   0  0  0  0  0  0  0  0  0  0  0  0
  -40.8820   56.7713   60.6229 C   0  0  0  0  0  0  0  0  0  0  0  0
  -41.5920   58.0760   60.2675 C   0  0  0  0  0  0  0  0  0  0  0  0
  -40.6855   59.1135   59.5764 C   0  0  0  0  0  0  0  0  0  0  0  0
  -41.1094   60.5788   59.7596 C   0  0  0  0  0  0  0  0  0  0  0  0
  -41.4769   60.8665   61.2180 C   0  0  0  0  0  0  0  0  0  0  0  0
  -42.5293   61.9361   61.4507 C   0  0  0  0  0  0  0  0  0  0  0  0
  -38.6825   61.2325   63.2882 C   0  0  0  0  0  0  0  0  0  0  0  0
  -37.9705   62.4086   63.7499 O   0  0  0  0  0  0  0  0  0  0  0  0
  -36.3187   63.5153   61.6947 O   0  0  0  0  0  0  0  0  0  0  0  0
  -34.0932   64.8846   64.9459 O   0  0  0  0  0  0  0  0  0  0  0  0
  -35.9712   62.5186   65.1197 O   0  0  0  0  0  0  0  0  0  0  0  0
  -36.4949   62.4508   63.7710 C   0  0  0  0  0  0  0  0  0  0  0  0
  -35.8409   63.6074   63.0013 C   0  0  0  0  0  0  0  0  0  0  0  0
  -34.2988   63.5319   62.9604 C   0  0  0  0  0  0  0  0  0  0  0  0
  -33.8365   63.5975   64.3898 C   0  0  0  0  0  0  0  0  0  0  0  0
  -34.5204   62.5120   65.2012 C   0  0  0  0  0  0  0  0  0  0  0  0
  -37.2876   63.5610   61.7007 H   0  0  0  0  0  0  0  0  0  0  0  0
  -33.6477   65.5618   64.4130 H   0  0  0  0  0  0  0  0  0  0  0  0
  -34.9370   63.1984   67.4526 O   0  0  0  0  0  0  0  0  0  0  0  0
  -33.9324   62.7583   66.5889 C   0  0  0  0  0  0  0  0  0  0  0  0
  -34.5611   63.3540   68.3331 H   0  0  0  0  0  0  0  0  0  0  0  0
  -33.6289   64.6119   62.2714 O   0  0  0  0  0  0  0  0  0  0  0  0
  -31.0612   64.6614   62.6205 O   0  0  0  0  0  0  0  0  0  0  0  0
  -32.0068   65.5358   60.5637 O   0  0  0  0  0  0  0  0  0  0  0  0
  -31.8865   63.1428   60.9296 O   0  0  0  0  0  0  0  0  0  0  0  0
  -32.1190   64.4606   61.5863 S   0  0  0  0  0  0  0  0  0  0  0  0
  -31.1965   65.5157   63.0597 H   0  0  0  0  0  0  0  0  0  0  0  0
  -31.9579   62.4356   61.5896 H   0  0  0  0  0  0  0  0  0  0  0  0
  2  1  1  0  0  0
  2  4  1  0  0  0
  2  5  1  0  0  0
 41 42  1  0  0  0
 41  1  1  0  0  0
 42 46  1  0  0  0
  1 24  1  0  0  0
 23 24  1  0  0  0
 23 25  1  0  0  0
 24 26  1  0  0  0
  3  4  2  0  0  0
 26 27  2  0  0  0
 27 28  1  0  0  0
 43 47  1  0  0  0
 43 51  1  0  0  0
 28 29  1  0  0  0
 56 48  1  0  0  0
 56 60  1  0  0  0
 29 30  1  0  0  0
 57 60  1  0  0  0
 57 61  1  0  0  0
 30 31  1  0  0  0
 44 49  1  0  0  0
 44 52  1  0  0  0
 31 32  1  0  0  0
 45 46  1  0  0  0
 45 50  1  0  0  0
 32 33  1  0  0  0
 53 54  1  0  0  0
 53 55  1  0  0  0
 33 34  1  0  0  0
 34 35  1  0  0  0
 35 36  1  0  0  0
 58 60  1  0  0  0
 36 37  1  0  0  0
 59 60  1  0  0  0
 59 62  1  0  0  0
 37 38  1  0  0  0
 38 39  1  0  0  0
 39 40  1  0  0  0
  4  6  1  0  0  0
  6  7  1  0  0  0
  7  8  1  0  0  0
  8  9  1  0  0  0
  9 10  1  0  0  0
 10 11  1  0  0  0
 11 12  1  0  0  0
 12 13  1  0  0  0
 13 14  1  0  0  0
 14 15  1  0  0  0
 15 16  1  0  0  0
 16 17  1  0  0  0
 17 18  1  0  0  0
 18 19  1  0  0  0
 19 20  1  0  0  0
 20 21  1  0  0  0
 21 22  1  0  0  0
 46 47  1  0  0  0
 47 48  1  0  0  0
 48 49  1  0  0  0
 49 50  1  0  0  0
 50 54  1  0  0  0
M  CHG 1  58  -1
M  END
> <minimizedAffinity>
-9.12695

> <CNNscore>
0.1363775134

> <CNNaffinity>
6.9576387405

> <CNN_VS>
0.9488654733

> <CNNaffinity_variance>
1.5694477558

$$$$
