/media/chris/experiments/cd1a-new-docking/inputs/ligands/1onq_ligand.pdb


 62 62  0  0  0  0  0  0  0  0999 V2000
  -41.4554   60.6760   65.4138 C   0  0  0  0  0  0  0  0  0  0  0  0
  -42.1112   59.6505   66.2006 N   0  0  0  0  0  0  0  0  0  0  0  0
  -42.5404   57.5069   66.8077 O   0  0  0  0  0  0  0  0  0  0  0  0
  -41.9504   58.3222   66.1258 C   0  0  0  0  0  0  0  0  0  0  0  0
  -42.7550   59.9694   66.8737 H   0  0  0  0  0  0  0  0  0  0  0  0
  -40.9600   57.8566   65.1002 C   0  0  0  0  0  0  0  0  0  0  0  0
  -41.6773   56.8082   64.2496 C   0  0  0  0  0  0  0  0  0  0  0  0
  -42.6193   57.4932   63.2625 C   0  0  0  0  0  0  0  0  0  0  0  0
  -41.9810   58.0470   62.0117 C   0  0  0  0  0  0  0  0  0  0  0  0
  -41.4353   56.8685   61.2122 C   0  0  0  0  0  0  0  0  0  0  0  0
  -40.9215   57.2795   59.8259 C   0  0  0  0  0  0  0  0  0  0  0  0
  -41.1362   58.7661   59.4873 C   0  0  0  0  0  0  0  0  0  0  0  0
  -39.8259   59.5832   59.5139 C   0  0  0  0  0  0  0  0  0  0  0  0
  -38.6229   58.6846   59.2134 C   0  0  0  0  0  0  0  0  0  0  0  0
  -37.5462   58.6665   60.2916 C   0  0  0  0  0  0  0  0  0  0  0  0
  -38.1343   58.6064   61.6937 C   0  0  0  0  0  0  0  0  0  0  0  0
  -37.6999   57.4170   62.5532 C   0  0  0  0  0  0  0  0  0  0  0  0
  -37.2682   57.9460   63.9142 C   0  0  0  0  0  0  0  0  0  0  0  0
  -35.7808   58.0767   64.2075 C   0  0  0  0  0  0  0  0  0  0  0  0
  -34.9475   57.8475   62.9366 C   0  0  0  0  0  0  0  0  0  0  0  0
  -33.4521   58.1833   63.0843 C   0  0  0  0  0  0  0  0  0  0  0  0
  -33.0650   58.6069   64.4992 C   0  0  0  0  0  0  0  0  0  0  0  0
  -42.1713   62.2780   63.8917 O   0  0  0  0  0  0  0  0  0  0  0  0
  -42.4799   60.9683   64.3310 C   0  0  0  0  0  0  0  0  0  0  0  0
  -41.2743   62.2923   63.5228 H   0  0  0  0  0  0  0  0  0  0  0  0
  -43.8868   60.8764   64.9264 C   0  0  0  0  0  0  0  0  0  0  0  0
  -44.9498   60.4406   64.2287 C   0  0  0  0  0  0  0  0  0  0  0  0
  -46.3231   60.3790   64.8947 C   0  0  0  0  0  0  0  0  0  0  0  0
  -47.1691   59.1718   64.4643 C   0  0  0  0  0  0  0  0  0  0  0  0
  -48.1061   58.5964   65.5423 C   0  0  0  0  0  0  0  0  0  0  0  0
  -49.0555   59.6912   66.0860 C   0  0  0  0  0  0  0  0  0  0  0  0
  -50.5155   59.6159   65.5723 C   0  0  0  0  0  0  0  0  0  0  0  0
  -50.7864   60.4638   64.3071 C   0  0  0  0  0  0  0  0  0  0  0  0
  -51.4915   59.6810   63.1784 C   0  0  0  0  0  0  0  0  0  0  0  0
  -50.6819   58.4888   62.6542 C   0  0  0  0  0  0  0  0  0  0  0  0
  -49.4828   58.8280   61.7712 C   0  0  0  0  0  0  0  0  0  0  0  0
  -49.4203   58.0170   60.4620 C   0  0  0  0  0  0  0  0  0  0  0  0
  -48.8451   58.7695   59.2525 C   0  0  0  0  0  0  0  0  0  0  0  0
  -48.3491   57.7928   58.1823 C   0  0  0  0  0  0  0  0  0  0  0  0
  -47.0753   58.1806   57.4526 C   0  0  0  0  0  0  0  0  0  0  0  0
  -40.0199   60.3418   64.9483 C   0  0  0  0  0  0  0  0  0  0  0  0
  -39.3329   61.3630   64.1812 O   0  0  0  0  0  0  0  0  0  0  0  0
  -37.4088   61.7134   62.0949 O   0  0  0  0  0  0  0  0  0  0  0  0
  -35.9512   64.6704   64.6504 O   0  0  0  0  0  0  0  0  0  0  0  0
  -37.6444   62.3548   65.6130 O   0  0  0  0  0  0  0  0  0  0  0  0
  -37.8956   61.6341   64.3822 C   0  0  0  0  0  0  0  0  0  0  0  0
  -37.1963   62.4308   63.2714 C   0  0  0  0  0  0  0  0  0  0  0  0
  -35.6734   62.5804   63.4799 C   0  0  0  0  0  0  0  0  0  0  0  0
  -35.4973   63.3247   64.7747 C   0  0  0  0  0  0  0  0  0  0  0  0
  -36.2391   62.6047   65.8861 C   0  0  0  0  0  0  0  0  0  0  0  0
  -38.3618   61.6094   61.9473 H   0  0  0  0  0  0  0  0  0  0  0  0
  -35.4649   65.1109   63.9360 H   0  0  0  0  0  0  0  0  0  0  0  0
  -36.1817   62.8145   68.2665 O   0  0  0  0  0  0  0  0  0  0  0  0
  -35.9458   63.5108   67.0798 C   0  0  0  0  0  0  0  0  0  0  0  0
  -35.9947   63.3921   69.0230 H   0  0  0  0  0  0  0  0  0  0  0  0
  -34.9680   63.3464   62.4771 O   0  0  0  0  0  0  0  0  0  0  0  0
  -32.9666   63.7430   60.8787 O   0  0  0  0  0  0  0  0  0  0  0  0
  -32.9684   61.8027   62.3364 O   0  0  0  0  0  0  0  0  0  0  0  0
  -32.5237   64.0069   63.2410 O   0  0  0  0  0  0  0  0  0  0  0  0
  -33.3232   63.2448   62.2401 S   0  0  0  0  0  0  0  0  0  0  0  0
  -33.4782   63.2575   60.2126 H   0  0  0  0  0  0  0  0  0  0  0  0
  -32.7488   64.9487   63.1852 H   0  0  0  0  0  0  0  0  0  0  0  0
  2  1  1  0  0  0
  2  4  1  0  0  0
  2  5  1  0  0  0
 41 42  1  0  0  0
 41  1  1  0  0  0
 42 46  1  0  0  0
  1 24  1  0  0  0
 23 24  1  0  0  0
 23 25  1  0  0  0
 24 26  1  0  0  0
  3  4  2  0  0  0
 26 27  2  0  0  0
 27 28  1  0  0  0
 43 47  1  0  0  0
 43 51  1  0  0  0
 28 29  1  0  0  0
 56 48  1  0  0  0
 56 60  1  0  0  0
 29 30  1  0  0  0
 57 60  1  0  0  0
 57 61  1  0  0  0
 30 31  1  0  0  0
 44 49  1  0  0  0
 44 52  1  0  0  0
 31 32  1  0  0  0
 45 46  1  0  0  0
 45 50  1  0  0  0
 32 33  1  0  0  0
 53 54  1  0  0  0
 53 55  1  0  0  0
 33 34  1  0  0  0
 34 35  1  0  0  0
 35 36  1  0  0  0
 58 60  1  0  0  0
 36 37  1  0  0  0
 59 60  1  0  0  0
 59 62  1  0  0  0
 37 38  1  0  0  0
 38 39  1  0  0  0
 39 40  1  0  0  0
  4  6  1  0  0  0
  6  7  1  0  0  0
  7  8  1  0  0  0
  8  9  1  0  0  0
  9 10  1  0  0  0
 10 11  1  0  0  0
 11 12  1  0  0  0
 12 13  1  0  0  0
 13 14  1  0  0  0
 14 15  1  0  0  0
 15 16  1  0  0  0
 16 17  1  0  0  0
 17 18  1  0  0  0
 18 19  1  0  0  0
 19 20  1  0  0  0
 20 21  1  0  0  0
 21 22  1  0  0  0
 46 47  1  0  0  0
 47 48  1  0  0  0
 48 49  1  0  0  0
 49 50  1  0  0  0
 50 54  1  0  0  0
M  CHG 1  58  -1
M  END
> <minimizedAffinity>
-9.80644

> <CNNscore>
0.2939220965

> <CNNaffinity>
7.2137746811

> <CNN_VS>
2.1202878952

> <CNNaffinity_variance>
2.1656758785

$$$$
/media/chris/experiments/cd1a-new-docking/inputs/ligands/1onq_ligand.pdb


 62 62  0  0  0  0  0  0  0  0999 V2000
  -40.7693   59.7185   64.2948 C   0  0  0  0  0  0  0  0  0  0  0  0
  -41.1954   60.4219   65.4885 N   0  0  0  0  0  0  0  0  0  0  0  0
  -42.6649   61.6168   66.7375 O   0  0  0  0  0  0  0  0  0  0  0  0
  -42.3679   61.0297   65.7153 C   0  0  0  0  0  0  0  0  0  0  0  0
  -40.5420   60.4575   66.2241 H   0  0  0  0  0  0  0  0  0  0  0  0
  -43.3524   60.9577   64.5861 C   0  0  0  0  0  0  0  0  0  0  0  0
  -44.4473   59.9861   65.0270 C   0  0  0  0  0  0  0  0  0  0  0  0
  -45.8222   60.5839   64.7382 C   0  0  0  0  0  0  0  0  0  0  0  0
  -46.8996   59.6060   64.3365 C   0  0  0  0  0  0  0  0  0  0  0  0
  -47.8446   59.4484   65.5232 C   0  0  0  0  0  0  0  0  0  0  0  0
  -48.9093   58.3675   65.2939 C   0  0  0  0  0  0  0  0  0  0  0  0
  -50.3578   58.8606   65.4649 C   0  0  0  0  0  0  0  0  0  0  0  0
  -50.6439   60.1645   64.6881 C   0  0  0  0  0  0  0  0  0  0  0  0
  -51.1620   59.8524   63.2813 C   0  0  0  0  0  0  0  0  0  0  0  0
  -50.2109   60.2174   62.1480 C   0  0  0  0  0  0  0  0  0  0  0  0
  -49.3317   59.0469   61.7328 C   0  0  0  0  0  0  0  0  0  0  0  0
  -50.0511   57.7159   61.5023 C   0  0  0  0  0  0  0  0  0  0  0  0
  -49.7715   57.2650   60.0750 C   0  0  0  0  0  0  0  0  0  0  0  0
  -48.7074   56.2029   59.8409 C   0  0  0  0  0  0  0  0  0  0  0  0
  -47.7857   56.5954   58.6754 C   0  0  0  0  0  0  0  0  0  0  0  0
  -47.8324   58.0877   58.2989 C   0  0  0  0  0  0  0  0  0  0  0  0
  -46.8965   58.4498   57.1481 C   0  0  0  0  0  0  0  0  0  0  0  0
  -38.9785   58.6567   65.3249 O   0  0  0  0  0  0  0  0  0  0  0  0
  -40.2845   58.3898   64.8488 C   0  0  0  0  0  0  0  0  0  0  0  0
  -39.0208   59.3227   66.0289 H   0  0  0  0  0  0  0  0  0  0  0  0
  -40.2885   57.3432   63.7322 C   0  0  0  0  0  0  0  0  0  0  0  0
  -41.4057   56.7252   63.3123 C   0  0  0  0  0  0  0  0  0  0  0  0
  -41.3267   55.6901   62.1917 C   0  0  0  0  0  0  0  0  0  0  0  0
  -40.9678   56.2835   60.8215 C   0  0  0  0  0  0  0  0  0  0  0  0
  -41.7278   57.5644   60.4303 C   0  0  0  0  0  0  0  0  0  0  0  0
  -40.7418   58.7236   60.1484 C   0  0  0  0  0  0  0  0  0  0  0  0
  -39.8296   58.5303   58.9107 C   0  0  0  0  0  0  0  0  0  0  0  0
  -38.3171   58.6448   59.2144 C   0  0  0  0  0  0  0  0  0  0  0  0
  -38.0079   59.0059   60.6835 C   0  0  0  0  0  0  0  0  0  0  0  0
  -37.3824   57.8570   61.4835 C   0  0  0  0  0  0  0  0  0  0  0  0
  -36.8714   58.2108   62.8786 C   0  0  0  0  0  0  0  0  0  0  0  0
  -35.4605   57.6706   63.1841 C   0  0  0  0  0  0  0  0  0  0  0  0
  -34.3114   58.4016   62.4734 C   0  0  0  0  0  0  0  0  0  0  0  0
  -32.9771   58.1476   63.1808 C   0  0  0  0  0  0  0  0  0  0  0  0
  -32.8682   58.6386   64.6134 C   0  0  0  0  0  0  0  0  0  0  0  0
  -39.7952   60.4927   63.3779 C   0  0  0  0  0  0  0  0  0  0  0  0
  -39.1937   61.6893   63.9346 O   0  0  0  0  0  0  0  0  0  0  0  0
  -37.1727   62.1014   61.9540 O   0  0  0  0  0  0  0  0  0  0  0  0
  -35.4868   64.4951   64.9250 O   0  0  0  0  0  0  0  0  0  0  0  0
  -37.4562   62.2770   65.5223 O   0  0  0  0  0  0  0  0  0  0  0  0
  -37.7430   61.7651   64.1983 C   0  0  0  0  0  0  0  0  0  0  0  0
  -36.9228   62.6219   63.2231 C   0  0  0  0  0  0  0  0  0  0  0  0
  -35.4007   62.5674   63.4787 C   0  0  0  0  0  0  0  0  0  0  0  0
  -35.1882   63.1024   64.8680 C   0  0  0  0  0  0  0  0  0  0  0  0
  -36.0422   62.3257   65.8537 C   0  0  0  0  0  0  0  0  0  0  0  0
  -38.1257   62.1276   61.7757 H   0  0  0  0  0  0  0  0  0  0  0  0
  -34.9308   64.9712   64.2885 H   0  0  0  0  0  0  0  0  0  0  0  0
  -34.3046   63.0841   67.3095 O   0  0  0  0  0  0  0  0  0  0  0  0
  -35.6919   63.0204   67.1677 C   0  0  0  0  0  0  0  0  0  0  0  0
  -34.0848   63.5257   68.1446 H   0  0  0  0  0  0  0  0  0  0  0  0
  -34.5815   63.3784   62.6063 O   0  0  0  0  0  0  0  0  0  0  0  0
  -32.5512   63.6988   61.0274 O   0  0  0  0  0  0  0  0  0  0  0  0
  -32.8452   61.5869   62.1860 O   0  0  0  0  0  0  0  0  0  0  0  0
  -32.0606   63.5388   63.3895 O   0  0  0  0  0  0  0  0  0  0  0  0
  -32.9734   63.0642   62.3111 S   0  0  0  0  0  0  0  0  0  0  0  0
  -33.1352   63.4011   60.3123 H   0  0  0  0  0  0  0  0  0  0  0  0
  -32.1377   64.5017   63.4780 H   0  0  0  0  0  0  0  0  0  0  0  0
  2  1  1  0  0  0
  2  4  1  0  0  0
  2  5  1  0  0  0
 41 42  1  0  0  0
 41  1  1  0  0  0
 42 46  1  0  0  0
  1 24  1  0  0  0
 23 24  1  0  0  0
 23 25  1  0  0  0
 24 26  1  0  0  0
  3  4  2  0  0  0
 26 27  2  0  0  0
 27 28  1  0  0  0
 43 47  1  0  0  0
 43 51  1  0  0  0
 28 29  1  0  0  0
 56 48  1  0  0  0
 56 60  1  0  0  0
 29 30  1  0  0  0
 57 60  1  0  0  0
 57 61  1  0  0  0
 30 31  1  0  0  0
 44 49  1  0  0  0
 44 52  1  0  0  0
 31 32  1  0  0  0
 45 46  1  0  0  0
 45 50  1  0  0  0
 32 33  1  0  0  0
 53 54  1  0  0  0
 53 55  1  0  0  0
 33 34  1  0  0  0
 34 35  1  0  0  0
 35 36  1  0  0  0
 58 60  1  0  0  0
 36 37  1  0  0  0
 59 60  1  0  0  0
 59 62  1  0  0  0
 37 38  1  0  0  0
 38 39  1  0  0  0
 39 40  1  0  0  0
  4  6  1  0  0  0
  6  7  1  0  0  0
  7  8  1  0  0  0
  8  9  1  0  0  0
  9 10  1  0  0  0
 10 11  1  0  0  0
 11 12  1  0  0  0
 12 13  1  0  0  0
 13 14  1  0  0  0
 14 15  1  0  0  0
 15 16  1  0  0  0
 16 17  1  0  0  0
 17 18  1  0  0  0
 18 19  1  0  0  0
 19 20  1  0  0  0
 20 21  1  0  0  0
 21 22  1  0  0  0
 46 47  1  0  0  0
 47 48  1  0  0  0
 48 49  1  0  0  0
 49 50  1  0  0  0
 50 54  1  0  0  0
M  CHG 1  58  -1
M  END
> <minimizedAffinity>
-9.60159

> <CNNscore>
0.2916144729

> <CNNaffinity>
7.1814260483

> <CNN_VS>
2.0942077637

> <CNNaffinity_variance>
1.6747204065

$$$$
/media/chris/experiments/cd1a-new-docking/inputs/ligands/1onq_ligand.pdb


 62 62  0  0  0  0  0  0  0  0999 V2000
  -41.3018   59.3734   65.0769 C   0  0  0  0  0  0  0  0  0  0  0  0
  -42.3772   60.2762   65.4367 N   0  0  0  0  0  0  0  0  0  0  0  0
  -44.1328   61.6407   64.9855 O   0  0  0  0  0  0  0  0  0  0  0  0
  -43.2555   60.8805   64.6248 C   0  0  0  0  0  0  0  0  0  0  0  0
  -42.4745   60.4696   66.3971 H   0  0  0  0  0  0  0  0  0  0  0  0
  -43.0959   60.5672   63.1667 C   0  0  0  0  0  0  0  0  0  0  0  0
  -43.2209   61.8963   62.4216 C   0  0  0  0  0  0  0  0  0  0  0  0
  -42.2212   61.9437   61.2686 C   0  0  0  0  0  0  0  0  0  0  0  0
  -41.1435   60.8869   61.2810 C   0  0  0  0  0  0  0  0  0  0  0  0
  -40.8982   60.4618   59.8371 C   0  0  0  0  0  0  0  0  0  0  0  0
  -39.5622   59.7296   59.6533 C   0  0  0  0  0  0  0  0  0  0  0  0
  -39.7025   58.2431   59.2775 C   0  0  0  0  0  0  0  0  0  0  0  0
  -41.0207   57.6176   59.7839 C   0  0  0  0  0  0  0  0  0  0  0  0
  -40.8958   57.2121   61.2553 C   0  0  0  0  0  0  0  0  0  0  0  0
  -39.5128   56.7299   61.6762 C   0  0  0  0  0  0  0  0  0  0  0  0
  -38.8565   57.6652   62.6811 C   0  0  0  0  0  0  0  0  0  0  0  0
  -37.3278   57.7257   62.6425 C   0  0  0  0  0  0  0  0  0  0  0  0
  -36.8223   57.8982   64.0684 C   0  0  0  0  0  0  0  0  0  0  0  0
  -35.3361   57.7196   64.3419 C   0  0  0  0  0  0  0  0  0  0  0  0
  -34.5585   59.0042   64.0148 C   0  0  0  0  0  0  0  0  0  0  0  0
  -33.5814   58.8757   62.8317 C   0  0  0  0  0  0  0  0  0  0  0  0
  -32.1247   59.1129   63.2228 C   0  0  0  0  0  0  0  0  0  0  0  0
  -41.6999   57.1186   64.6858 O   0  0  0  0  0  0  0  0  0  0  0  0
  -41.7295   58.0714   65.7322 C   0  0  0  0  0  0  0  0  0  0  0  0
  -40.7961   57.0443   64.3416 H   0  0  0  0  0  0  0  0  0  0  0  0
  -43.1321   58.2374   66.3215 C   0  0  0  0  0  0  0  0  0  0  0  0
  -44.1738   57.4690   65.9596 C   0  0  0  0  0  0  0  0  0  0  0  0
  -45.5443   57.6980   66.5940 C   0  0  0  0  0  0  0  0  0  0  0  0
  -46.1312   59.0904   66.3201 C   0  0  0  0  0  0  0  0  0  0  0  0
  -46.6709   59.3177   64.8960 C   0  0  0  0  0  0  0  0  0  0  0  0
  -47.9686   60.1607   64.9285 C   0  0  0  0  0  0  0  0  0  0  0  0
  -48.9938   59.7555   66.0175 C   0  0  0  0  0  0  0  0  0  0  0  0
  -50.4696   59.8432   65.5622 C   0  0  0  0  0  0  0  0  0  0  0  0
  -50.6540   60.5379   64.1956 C   0  0  0  0  0  0  0  0  0  0  0  0
  -51.4494   59.7063   63.1822 C   0  0  0  0  0  0  0  0  0  0  0  0
  -50.8256   58.3747   62.7696 C   0  0  0  0  0  0  0  0  0  0  0  0
  -49.9191   58.4667   61.5265 C   0  0  0  0  0  0  0  0  0  0  0  0
  -49.8321   57.1855   60.6832 C   0  0  0  0  0  0  0  0  0  0  0  0
  -49.4599   57.5061   59.2327 C   0  0  0  0  0  0  0  0  0  0  0  0
  -48.5156   58.6760   59.0207 C   0  0  0  0  0  0  0  0  0  0  0  0
  -39.8752   59.8795   65.3891 C   0  0  0  0  0  0  0  0  0  0  0  0
  -39.3470   60.9094   64.5153 O   0  0  0  0  0  0  0  0  0  0  0  0
  -37.6212   61.3562   62.2793 O   0  0  0  0  0  0  0  0  0  0  0  0
  -36.3033   64.5595   64.6033 O   0  0  0  0  0  0  0  0  0  0  0  0
  -37.6744   62.1314   65.7779 O   0  0  0  0  0  0  0  0  0  0  0  0
  -37.9351   61.3333   64.5979 C   0  0  0  0  0  0  0  0  0  0  0  0
  -37.4024   62.1447   63.4082 C   0  0  0  0  0  0  0  0  0  0  0  0
  -35.8924   62.4568   63.4966 C   0  0  0  0  0  0  0  0  0  0  0  0
  -35.7043   63.2738   64.7450 C   0  0  0  0  0  0  0  0  0  0  0  0
  -36.2871   62.5343   65.9356 C   0  0  0  0  0  0  0  0  0  0  0  0
  -38.5662   61.1498   62.2074 H   0  0  0  0  0  0  0  0  0  0  0  0
  -35.9169   65.0137   63.8382 H   0  0  0  0  0  0  0  0  0  0  0  0
  -36.1771   62.8810   68.2981 O   0  0  0  0  0  0  0  0  0  0  0  0
  -36.0066   63.5193   67.0683 C   0  0  0  0  0  0  0  0  0  0  0  0
  -35.9983   63.5086   69.0157 H   0  0  0  0  0  0  0  0  0  0  0  0
  -35.3429   63.2432   62.4152 O   0  0  0  0  0  0  0  0  0  0  0  0
  -32.9066   62.5846   63.0053 O   0  0  0  0  0  0  0  0  0  0  0  0
  -33.5258   64.9295   62.9210 O   0  0  0  0  0  0  0  0  0  0  0  0
  -33.2390   63.6698   60.8704 O   0  0  0  0  0  0  0  0  0  0  0  0
  -33.7227   63.6017   62.2786 S   0  0  0  0  0  0  0  0  0  0  0  0
  -33.2076   62.5261   63.9256 H   0  0  0  0  0  0  0  0  0  0  0  0
  -33.3637   62.8077   60.4436 H   0  0  0  0  0  0  0  0  0  0  0  0
  2  1  1  0  0  0
  2  4  1  0  0  0
  2  5  1  0  0  0
 41 42  1  0  0  0
 41  1  1  0  0  0
 42 46  1  0  0  0
  1 24  1  0  0  0
 23 24  1  0  0  0
 23 25  1  0  0  0
 24 26  1  0  0  0
  3  4  2  0  0  0
 26 27  2  0  0  0
 27 28  1  0  0  0
 43 47  1  0  0  0
 43 51  1  0  0  0
 28 29  1  0  0  0
 56 48  1  0  0  0
 56 60  1  0  0  0
 29 30  1  0  0  0
 57 60  1  0  0  0
 57 61  1  0  0  0
 30 31  1  0  0  0
 44 49  1  0  0  0
 44 52  1  0  0  0
 31 32  1  0  0  0
 45 46  1  0  0  0
 45 50  1  0  0  0
 32 33  1  0  0  0
 53 54  1  0  0  0
 53 55  1  0  0  0
 33 34  1  0  0  0
 34 35  1  0  0  0
 35 36  1  0  0  0
 58 60  1  0  0  0
 36 37  1  0  0  0
 59 60  1  0  0  0
 59 62  1  0  0  0
 37 38  1  0  0  0
 38 39  1  0  0  0
 39 40  1  0  0  0
  4  6  1  0  0  0
  6  7  1  0  0  0
  7  8  1  0  0  0
  8  9  1  0  0  0
  9 10  1  0  0  0
 10 11  1  0  0  0
 11 12  1  0  0  0
 12 13  1  0  0  0
 13 14  1  0  0  0
 14 15  1  0  0  0
 15 16  1  0  0  0
 16 17  1  0  0  0
 17 18  1  0  0  0
 18 19  1  0  0  0
 19 20  1  0  0  0
 20 21  1  0  0  0
 21 22  1  0  0  0
 46 47  1  0  0  0
 47 48  1  0  0  0
 48 49  1  0  0  0
 49 50  1  0  0  0
 50 54  1  0  0  0
M  CHG 1  58  -1
M  END
> <minimizedAffinity>
-9.61175

> <CNNscore>
0.2216311693

> <CNNaffinity>
7.1271705627

> <CNN_VS>
1.5796031952

> <CNNaffinity_variance>
2.3541176319

$$$$
/media/chris/experiments/cd1a-new-docking/inputs/ligands/1onq_ligand.pdb


 62 62  0  0  0  0  0  0  0  0999 V2000
  -41.0654   59.0701   64.9352 C   0  0  0  0  0  0  0  0  0  0  0  0
  -41.9095   58.3876   65.8959 N   0  0  0  0  0  0  0  0  0  0  0  0
  -43.9020   57.7003   66.7355 O   0  0  0  0  0  0  0  0  0  0  0  0
  -43.2450   58.2782   65.8916 C   0  0  0  0  0  0  0  0  0  0  0  0
  -41.4436   57.9501   66.6447 H   0  0  0  0  0  0  0  0  0  0  0  0
  -43.9357   58.9445   64.7389 C   0  0  0  0  0  0  0  0  0  0  0  0
  -44.4340   60.2948   65.2541 C   0  0  0  0  0  0  0  0  0  0  0  0
  -45.9373   60.4202   65.0188 C   0  0  0  0  0  0  0  0  0  0  0  0
  -46.8012   59.3697   65.6734 C   0  0  0  0  0  0  0  0  0  0  0  0
  -47.7887   58.8666   64.6257 C   0  0  0  0  0  0  0  0  0  0  0  0
  -49.0050   58.1658   65.2454 C   0  0  0  0  0  0  0  0  0  0  0  0
  -50.1014   59.1251   65.7438 C   0  0  0  0  0  0  0  0  0  0  0  0
  -50.2689   60.3666   64.8403 C   0  0  0  0  0  0  0  0  0  0  0  0
  -51.4312   60.1702   63.8628 C   0  0  0  0  0  0  0  0  0  0  0  0
  -51.0229   59.9523   62.4109 C   0  0  0  0  0  0  0  0  0  0  0  0
  -50.9193   58.4763   62.0557 C   0  0  0  0  0  0  0  0  0  0  0  0
  -49.5469   57.9957   61.5785 C   0  0  0  0  0  0  0  0  0  0  0  0
  -49.7172   57.3559   60.2073 C   0  0  0  0  0  0  0  0  0  0  0  0
  -48.7778   56.2278   59.8071 C   0  0  0  0  0  0  0  0  0  0  0  0
  -47.5165   56.7789   59.1234 C   0  0  0  0  0  0  0  0  0  0  0  0
  -47.7121   58.1345   58.4198 C   0  0  0  0  0  0  0  0  0  0  0  0
  -47.1718   58.1574   56.9919 C   0  0  0  0  0  0  0  0  0  0  0  0
  -39.1141   57.9719   64.3169 O   0  0  0  0  0  0  0  0  0  0  0  0
  -40.5130   57.9231   64.1064 C   0  0  0  0  0  0  0  0  0  0  0  0
  -38.9237   57.8331   65.2578 H   0  0  0  0  0  0  0  0  0  0  0  0
  -40.8828   58.1357   62.6366 C   0  0  0  0  0  0  0  0  0  0  0  0
  -40.8322   59.3368   62.0355 C   0  0  0  0  0  0  0  0  0  0  0  0
  -41.2186   59.4672   60.5634 C   0  0  0  0  0  0  0  0  0  0  0  0
  -40.0342   59.7713   59.6344 C   0  0  0  0  0  0  0  0  0  0  0  0
  -39.1016   58.5837   59.3331 C   0  0  0  0  0  0  0  0  0  0  0  0
  -37.7348   58.7666   60.0359 C   0  0  0  0  0  0  0  0  0  0  0  0
  -37.5261   57.9100   61.3103 C   0  0  0  0  0  0  0  0  0  0  0  0
  -36.3545   58.3798   62.2045 C   0  0  0  0  0  0  0  0  0  0  0  0
  -35.8181   57.2810   63.1473 C   0  0  0  0  0  0  0  0  0  0  0  0
  -34.7383   57.7733   64.1185 C   0  0  0  0  0  0  0  0  0  0  0  0
  -34.7113   59.2766   64.3863 C   0  0  0  0  0  0  0  0  0  0  0  0
  -33.4647   59.9897   63.8267 C   0  0  0  0  0  0  0  0  0  0  0  0
  -32.4841   59.0893   63.0600 C   0  0  0  0  0  0  0  0  0  0  0  0
  -31.1781   59.8300   62.7587 C   0  0  0  0  0  0  0  0  0  0  0  0
  -31.1535   60.6679   61.4927 C   0  0  0  0  0  0  0  0  0  0  0  0
  -40.0399   60.0591   65.5344 C   0  0  0  0  0  0  0  0  0  0  0  0
  -39.5030   61.0610   64.6337 O   0  0  0  0  0  0  0  0  0  0  0  0
  -37.8869   61.5245   62.3206 O   0  0  0  0  0  0  0  0  0  0  0  0
  -36.2881   64.5619   64.6906 O   0  0  0  0  0  0  0  0  0  0  0  0
  -37.7052   62.1504   65.8447 O   0  0  0  0  0  0  0  0  0  0  0  0
  -38.0700   61.4163   64.6507 C   0  0  0  0  0  0  0  0  0  0  0  0
  -37.5671   62.2530   63.4656 C   0  0  0  0  0  0  0  0  0  0  0  0
  -36.0414   62.4921   63.4780 C   0  0  0  0  0  0  0  0  0  0  0  0
  -35.7442   63.2453   64.7452 C   0  0  0  0  0  0  0  0  0  0  0  0
  -36.2935   62.4826   65.9371 C   0  0  0  0  0  0  0  0  0  0  0  0
  -38.8432   61.3645   62.2957 H   0  0  0  0  0  0  0  0  0  0  0  0
  -35.9242   65.0304   63.9231 H   0  0  0  0  0  0  0  0  0  0  0  0
  -36.2373   62.8036   68.3051 O   0  0  0  0  0  0  0  0  0  0  0  0
  -35.9027   63.4043   67.0902 C   0  0  0  0  0  0  0  0  0  0  0  0
  -35.9881   63.3908   69.0357 H   0  0  0  0  0  0  0  0  0  0  0  0
  -35.5168   63.2985   62.3989 O   0  0  0  0  0  0  0  0  0  0  0  0
  -33.9282   65.3212   62.7187 O   0  0  0  0  0  0  0  0  0  0  0  0
  -33.4727   63.7068   60.9650 O   0  0  0  0  0  0  0  0  0  0  0  0
  -33.0281   63.1488   63.2813 O   0  0  0  0  0  0  0  0  0  0  0  0
  -33.9540   63.8714   62.3636 S   0  0  0  0  0  0  0  0  0  0  0  0
  -34.5261   65.8087   62.1306 H   0  0  0  0  0  0  0  0  0  0  0  0
  -33.3345   63.2509   64.1960 H   0  0  0  0  0  0  0  0  0  0  0  0
  2  1  1  0  0  0
  2  4  1  0  0  0
  2  5  1  0  0  0
 41 42  1  0  0  0
 41  1  1  0  0  0
 42 46  1  0  0  0
  1 24  1  0  0  0
 23 24  1  0  0  0
 23 25  1  0  0  0
 24 26  1  0  0  0
  3  4  2  0  0  0
 26 27  2  0  0  0
 27 28  1  0  0  0
 43 47  1  0  0  0
 43 51  1  0  0  0
 28 29  1  0  0  0
 56 48  1  0  0  0
 56 60  1  0  0  0
 29 30  1  0  0  0
 57 60  1  0  0  0
 57 61  1  0  0  0
 30 31  1  0  0  0
 44 49  1  0  0  0
 44 52  1  0  0  0
 31 32  1  0  0  0
 45 46  1  0  0  0
 45 50  1  0  0  0
 32 33  1  0  0  0
 53 54  1  0  0  0
 53 55  1  0  0  0
 33 34  1  0  0  0
 34 35  1  0  0  0
 35 36  1  0  0  0
 58 60  1  0  0  0
 36 37  1  0  0  0
 59 60  1  0  0  0
 59 62  1  0  0  0
 37 38  1  0  0  0
 38 39  1  0  0  0
 39 40  1  0  0  0
  4  6  1  0  0  0
  6  7  1  0  0  0
  7  8  1  0  0  0
  8  9  1  0  0  0
  9 10  1  0  0  0
 10 11  1  0  0  0
 11 12  1  0  0  0
 12 13  1  0  0  0
 13 14  1  0  0  0
 14 15  1  0  0  0
 15 16  1  0  0  0
 16 17  1  0  0  0
 17 18  1  0  0  0
 18 19  1  0  0  0
 19 20  1  0  0  0
 20 21  1  0  0  0
 21 22  1  0  0  0
 46 47  1  0  0  0
 47 48  1  0  0  0
 48 49  1  0  0  0
 49 50  1  0  0  0
 50 54  1  0  0  0
M  CHG 1  58  -1
M  END
> <minimizedAffinity>
-9.41572

> <CNNscore>
0.2035746425

> <CNNaffinity>
6.8400878906

> <CNN_VS>
1.3924684525

> <CNNaffinity_variance>
1.8350169659

$$$$
/media/chris/experiments/cd1a-new-docking/inputs/ligands/1onq_ligand.pdb


 62 62  0  0  0  0  0  0  0  0999 V2000
  -41.1576   59.4407   64.7694 C   0  0  0  0  0  0  0  0  0  0  0  0
  -41.6083   58.4568   65.7336 N   0  0  0  0  0  0  0  0  0  0  0  0
  -43.1638   57.4359   67.0321 O   0  0  0  0  0  0  0  0  0  0  0  0
  -42.8470   58.2748   66.2111 C   0  0  0  0  0  0  0  0  0  0  0  0
  -40.9185   57.8463   66.0810 H   0  0  0  0  0  0  0  0  0  0  0  0
  -43.8849   59.2092   65.6642 C   0  0  0  0  0  0  0  0  0  0  0  0
  -44.8644   58.3492   64.8652 C   0  0  0  0  0  0  0  0  0  0  0  0
  -46.0554   59.1937   64.4185 C   0  0  0  0  0  0  0  0  0  0  0  0
  -46.5786   60.1883   65.4263 C   0  0  0  0  0  0  0  0  0  0  0  0
  -47.7113   59.5143   66.1936 C   0  0  0  0  0  0  0  0  0  0  0  0
  -48.4969   58.5147   65.3344 C   0  0  0  0  0  0  0  0  0  0  0  0
  -50.0187   58.7484   65.3250 C   0  0  0  0  0  0  0  0  0  0  0  0
  -50.4025   60.1884   64.9197 C   0  0  0  0  0  0  0  0  0  0  0  0
  -51.1180   60.1959   63.5658 C   0  0  0  0  0  0  0  0  0  0  0  0
  -51.2102   58.8395   62.8776 C   0  0  0  0  0  0  0  0  0  0  0  0
  -50.2931   58.7426   61.6673 C   0  0  0  0  0  0  0  0  0  0  0  0
  -50.7869   57.8580   60.5202 C   0  0  0  0  0  0  0  0  0  0  0  0
  -50.0098   58.2294   59.2645 C   0  0  0  0  0  0  0  0  0  0  0  0
  -48.5269   58.5460   59.3916 C   0  0  0  0  0  0  0  0  0  0  0  0
  -47.6734   57.2934   59.1371 C   0  0  0  0  0  0  0  0  0  0  0  0
  -47.3434   57.0357   57.6554 C   0  0  0  0  0  0  0  0  0  0  0  0
  -46.8503   58.2803   56.9211 C   0  0  0  0  0  0  0  0  0  0  0  0
  -41.5694   57.7573   63.2227 O   0  0  0  0  0  0  0  0  0  0  0  0
  -40.5183   58.5805   63.6929 C   0  0  0  0  0  0  0  0  0  0  0  0
  -42.2691   58.3115   62.8431 H   0  0  0  0  0  0  0  0  0  0  0  0
  -39.3776   57.7653   64.3064 C   0  0  0  0  0  0  0  0  0  0  0  0
  -38.2631   58.3264   64.8057 C   0  0  0  0  0  0  0  0  0  0  0  0
  -37.1681   57.4432   65.4009 C   0  0  0  0  0  0  0  0  0  0  0  0
  -35.8411   57.4935   64.6297 C   0  0  0  0  0  0  0  0  0  0  0  0
  -35.6488   58.7160   63.7133 C   0  0  0  0  0  0  0  0  0  0  0  0
  -35.6606   58.2935   62.2244 C   0  0  0  0  0  0  0  0  0  0  0  0
  -37.0226   57.7798   61.6930 C   0  0  0  0  0  0  0  0  0  0  0  0
  -37.9059   58.8754   61.0508 C   0  0  0  0  0  0  0  0  0  0  0  0
  -38.0065   58.7654   59.5139 C   0  0  0  0  0  0  0  0  0  0  0  0
  -39.4308   58.5145   59.0044 C   0  0  0  0  0  0  0  0  0  0  0  0
  -40.5597   58.8362   59.9814 C   0  0  0  0  0  0  0  0  0  0  0  0
  -41.0267   60.3044   59.9367 C   0  0  0  0  0  0  0  0  0  0  0  0
  -41.1200   61.0037   61.3014 C   0  0  0  0  0  0  0  0  0  0  0  0
  -42.4008   61.8366   61.4061 C   0  0  0  0  0  0  0  0  0  0  0  0
  -43.1397   61.7754   62.7311 C   0  0  0  0  0  0  0  0  0  0  0  0
  -40.3034   60.5935   65.3442 C   0  0  0  0  0  0  0  0  0  0  0  0
  -39.5139   61.3519   64.3930 O   0  0  0  0  0  0  0  0  0  0  0  0
  -37.6381   61.7840   62.2783 O   0  0  0  0  0  0  0  0  0  0  0  0
  -35.9115   64.3837   65.0459 O   0  0  0  0  0  0  0  0  0  0  0  0
  -37.7201   62.0942   65.8478 O   0  0  0  0  0  0  0  0  0  0  0  0
  -38.0563   61.5132   64.5645 C   0  0  0  0  0  0  0  0  0  0  0  0
  -37.3423   62.3694   63.5087 C   0  0  0  0  0  0  0  0  0  0  0  0
  -35.8071   62.4040   63.6728 C   0  0  0  0  0  0  0  0  0  0  0  0
  -35.5422   63.0070   65.0248 C   0  0  0  0  0  0  0  0  0  0  0  0
  -36.2936   62.2294   66.0901 C   0  0  0  0  0  0  0  0  0  0  0  0
  -38.6000   61.7537   62.1576 H   0  0  0  0  0  0  0  0  0  0  0  0
  -35.4205   64.8607   64.3586 H   0  0  0  0  0  0  0  0  0  0  0  0
  -34.5171   63.1418   67.4036 O   0  0  0  0  0  0  0  0  0  0  0  0
  -35.9045   62.9957   67.3524 C   0  0  0  0  0  0  0  0  0  0  0  0
  -34.2726   63.6287   68.2060 H   0  0  0  0  0  0  0  0  0  0  0  0
  -35.0856   63.2188   62.7212 O   0  0  0  0  0  0  0  0  0  0  0  0
  -32.6535   63.8575   63.3491 O   0  0  0  0  0  0  0  0  0  0  0  0
  -33.2399   63.5241   61.0180 O   0  0  0  0  0  0  0  0  0  0  0  0
  -32.9908   61.6201   62.4968 O   0  0  0  0  0  0  0  0  0  0  0  0
  -33.4619   63.0312   62.4045 S   0  0  0  0  0  0  0  0  0  0  0  0
  -32.9465   64.7811   63.3028 H   0  0  0  0  0  0  0  0  0  0  0  0
  -33.1319   61.2905   63.3981 H   0  0  0  0  0  0  0  0  0  0  0  0
  2  1  1  0  0  0
  2  4  1  0  0  0
  2  5  1  0  0  0
 41 42  1  0  0  0
 41  1  1  0  0  0
 42 46  1  0  0  0
  1 24  1  0  0  0
 23 24  1  0  0  0
 23 25  1  0  0  0
 24 26  1  0  0  0
  3  4  2  0  0  0
 26 27  2  0  0  0
 27 28  1  0  0  0
 43 47  1  0  0  0
 43 51  1  0  0  0
 28 29  1  0  0  0
 56 48  1  0  0  0
 56 60  1  0  0  0
 29 30  1  0  0  0
 57 60  1  0  0  0
 57 61  1  0  0  0
 30 31  1  0  0  0
 44 49  1  0  0  0
 44 52  1  0  0  0
 31 32  1  0  0  0
 45 46  1  0  0  0
 45 50  1  0  0  0
 32 33  1  0  0  0
 53 54  1  0  0  0
 53 55  1  0  0  0
 33 34  1  0  0  0
 34 35  1  0  0  0
 35 36  1  0  0  0
 58 60  1  0  0  0
 36 37  1  0  0  0
 59 60  1  0  0  0
 59 62  1  0  0  0
 37 38  1  0  0  0
 38 39  1  0  0  0
 39 40  1  0  0  0
  4  6  1  0  0  0
  6  7  1  0  0  0
  7  8  1  0  0  0
  8  9  1  0  0  0
  9 10  1  0  0  0
 10 11  1  0  0  0
 11 12  1  0  0  0
 12 13  1  0  0  0
 13 14  1  0  0  0
 14 15  1  0  0  0
 15 16  1  0  0  0
 16 17  1  0  0  0
 17 18  1  0  0  0
 18 19  1  0  0  0
 19 20  1  0  0  0
 20 21  1  0  0  0
 21 22  1  0  0  0
 46 47  1  0  0  0
 47 48  1  0  0  0
 48 49  1  0  0  0
 49 50  1  0  0  0
 50 54  1  0  0  0
M  CHG 1  58  -1
M  END
> <minimizedAffinity>
-9.49915

> <CNNscore>
0.1484362185

> <CNNaffinity>
6.9709000587

> <CNN_VS>
1.0347340107

> <CNNaffinity_variance>
1.7978626490

$$$$
/media/chris/experiments/cd1a-new-docking/inputs/ligands/1onq_ligand.pdb


 62 62  0  0  0  0  0  0  0  0999 V2000
  -41.3035   60.6721   62.6178 C   0  0  0  0  0  0  0  0  0  0  0  0
  -41.0261   61.0771   61.2539 N   0  0  0  0  0  0  0  0  0  0  0  0
  -40.8127   60.7217   59.0233 O   0  0  0  0  0  0  0  0  0  0  0  0
  -41.0687   60.3271   60.1443 C   0  0  0  0  0  0  0  0  0  0  0  0
  -40.7753   62.0206   61.1270 H   0  0  0  0  0  0  0  0  0  0  0  0
  -41.4603   58.8950   60.3572 C   0  0  0  0  0  0  0  0  0  0  0  0
  -40.4442   58.0490   59.5897 C   0  0  0  0  0  0  0  0  0  0  0  0
  -39.2012   57.8221   60.4467 C   0  0  0  0  0  0  0  0  0  0  0  0
  -39.4032   57.0195   61.7090 C   0  0  0  0  0  0  0  0  0  0  0  0
  -40.6344   56.1427   61.5055 C   0  0  0  0  0  0  0  0  0  0  0  0
  -41.4016   55.8861   62.8095 C   0  0  0  0  0  0  0  0  0  0  0  0
  -42.2005   57.0984   63.3220 C   0  0  0  0  0  0  0  0  0  0  0  0
  -41.8027   57.5175   64.7543 C   0  0  0  0  0  0  0  0  0  0  0  0
  -40.2921   57.3722   64.9596 C   0  0  0  0  0  0  0  0  0  0  0  0
  -39.5590   58.6660   65.2921 C   0  0  0  0  0  0  0  0  0  0  0  0
  -38.0486   58.4833   65.3186 C   0  0  0  0  0  0  0  0  0  0  0  0
  -37.3655   58.3443   63.9561 C   0  0  0  0  0  0  0  0  0  0  0  0
  -36.0990   57.5194   64.1409 C   0  0  0  0  0  0  0  0  0  0  0  0
  -35.0505   57.5363   63.0383 C   0  0  0  0  0  0  0  0  0  0  0  0
  -34.1356   58.7644   63.1682 C   0  0  0  0  0  0  0  0  0  0  0  0
  -33.8680   59.2110   64.6173 C   0  0  0  0  0  0  0  0  0  0  0  0
  -32.8895   58.3029   65.3583 C   0  0  0  0  0  0  0  0  0  0  0  0
  -42.1648   62.4781   63.7976 O   0  0  0  0  0  0  0  0  0  0  0  0
  -42.5786   61.4338   62.9365 C   0  0  0  0  0  0  0  0  0  0  0  0
  -41.5349   63.0505   63.3323 H   0  0  0  0  0  0  0  0  0  0  0  0
  -43.5770   60.4908   63.6119 C   0  0  0  0  0  0  0  0  0  0  0  0
  -44.0202   60.6716   64.8678 C   0  0  0  0  0  0  0  0  0  0  0  0
  -45.0169   59.6843   65.4720 C   0  0  0  0  0  0  0  0  0  0  0  0
  -46.1519   59.2846   64.5179 C   0  0  0  0  0  0  0  0  0  0  0  0
  -47.5261   59.0584   65.1747 C   0  0  0  0  0  0  0  0  0  0  0  0
  -48.4597   60.2674   64.9253 C   0  0  0  0  0  0  0  0  0  0  0  0
  -48.8347   60.5191   63.4429 C   0  0  0  0  0  0  0  0  0  0  0  0
  -50.2131   59.9493   63.0326 C   0  0  0  0  0  0  0  0  0  0  0  0
  -50.1789   58.4475   62.6754 C   0  0  0  0  0  0  0  0  0  0  0  0
  -50.3266   58.1658   61.1754 C   0  0  0  0  0  0  0  0  0  0  0  0
  -49.6759   59.1781   60.2350 C   0  0  0  0  0  0  0  0  0  0  0  0
  -48.8978   58.5385   59.0683 C   0  0  0  0  0  0  0  0  0  0  0  0
  -48.0255   57.3318   59.4465 C   0  0  0  0  0  0  0  0  0  0  0  0
  -47.0176   57.0131   58.3385 C   0  0  0  0  0  0  0  0  0  0  0  0
  -46.9114   58.0244   57.2109 C   0  0  0  0  0  0  0  0  0  0  0  0
  -40.1285   60.8264   63.6100 C   0  0  0  0  0  0  0  0  0  0  0  0
  -39.2894   61.9976   63.4440 O   0  0  0  0  0  0  0  0  0  0  0  0
  -37.1601   62.3384   61.5660 O   0  0  0  0  0  0  0  0  0  0  0  0
  -35.4432   64.4937   64.6974 O   0  0  0  0  0  0  0  0  0  0  0  0
  -37.5863   62.4006   65.1239 O   0  0  0  0  0  0  0  0  0  0  0  0
  -37.8498   61.9601   63.7696 C   0  0  0  0  0  0  0  0  0  0  0  0
  -36.9303   62.7921   62.8642 C   0  0  0  0  0  0  0  0  0  0  0  0
  -35.4283   62.6200   63.1794 C   0  0  0  0  0  0  0  0  0  0  0  0
  -35.2399   63.0864   64.5967 C   0  0  0  0  0  0  0  0  0  0  0  0
  -36.1881   62.3363   65.5145 C   0  0  0  0  0  0  0  0  0  0  0  0
  -38.1003   62.4390   61.3500 H   0  0  0  0  0  0  0  0  0  0  0  0
  -34.8283   64.9525   64.1038 H   0  0  0  0  0  0  0  0  0  0  0  0
  -36.6185   64.1020   67.0671 O   0  0  0  0  0  0  0  0  0  0  0  0
  -35.8481   62.9548   66.8687 C   0  0  0  0  0  0  0  0  0  0  0  0
  -36.4007   64.4929   67.9277 H   0  0  0  0  0  0  0  0  0  0  0  0
  -34.5174   63.4027   62.3746 O   0  0  0  0  0  0  0  0  0  0  0  0
  -32.7315   61.5371   62.1561 O   0  0  0  0  0  0  0  0  0  0  0  0
  -32.1959   63.5714   63.3661 O   0  0  0  0  0  0  0  0  0  0  0  0
  -32.3000   63.5846   60.9447 O   0  0  0  0  0  0  0  0  0  0  0  0
  -32.9087   63.0192   62.1822 S   0  0  0  0  0  0  0  0  0  0  0  0
  -33.1224   61.1507   62.9554 H   0  0  0  0  0  0  0  0  0  0  0  0
  -32.7590   63.2298   60.1673 H   0  0  0  0  0  0  0  0  0  0  0  0
  2  1  1  0  0  0
  2  4  1  0  0  0
  2  5  1  0  0  0
 41 42  1  0  0  0
 41  1  1  0  0  0
 42 46  1  0  0  0
  1 24  1  0  0  0
 23 24  1  0  0  0
 23 25  1  0  0  0
 24 26  1  0  0  0
  3  4  2  0  0  0
 26 27  2  0  0  0
 27 28  1  0  0  0
 43 47  1  0  0  0
 43 51  1  0  0  0
 28 29  1  0  0  0
 56 48  1  0  0  0
 56 60  1  0  0  0
 29 30  1  0  0  0
 57 60  1  0  0  0
 57 61  1  0  0  0
 30 31  1  0  0  0
 44 49  1  0  0  0
 44 52  1  0  0  0
 31 32  1  0  0  0
 45 46  1  0  0  0
 45 50  1  0  0  0
 32 33  1  0  0  0
 53 54  1  0  0  0
 53 55  1  0  0  0
 33 34  1  0  0  0
 34 35  1  0  0  0
 35 36  1  0  0  0
 58 60  1  0  0  0
 36 37  1  0  0  0
 59 60  1  0  0  0
 59 62  1  0  0  0
 37 38  1  0  0  0
 38 39  1  0  0  0
 39 40  1  0  0  0
  4  6  1  0  0  0
  6  7  1  0  0  0
  7  8  1  0  0  0
  8  9  1  0  0  0
  9 10  1  0  0  0
 10 11  1  0  0  0
 11 12  1  0  0  0
 12 13  1  0  0  0
 13 14  1  0  0  0
 14 15  1  0  0  0
 15 16  1  0  0  0
 16 17  1  0  0  0
 17 18  1  0  0  0
 18 19  1  0  0  0
 19 20  1  0  0  0
 20 21  1  0  0  0
 21 22  1  0  0  0
 46 47  1  0  0  0
 47 48  1  0  0  0
 48 49  1  0  0  0
 49 50  1  0  0  0
 50 54  1  0  0  0
M  CHG 1  58  -1
M  END
> <minimizedAffinity>
-8.68958

> <CNNscore>
0.1345428824

> <CNNaffinity>
7.2063574791

> <CNN_VS>
0.9695640802

> <CNNaffinity_variance>
1.3650906086

$$$$
/media/chris/experiments/cd1a-new-docking/inputs/ligands/1onq_ligand.pdb


 62 62  0  0  0  0  0  0  0  0999 V2000
  -40.9684   59.8840   64.4877 C   0  0  0  0  0  0  0  0  0  0  0  0
  -42.1790   59.4481   63.8200 N   0  0  0  0  0  0  0  0  0  0  0  0
  -43.5878   57.8907   62.9613 O   0  0  0  0  0  0  0  0  0  0  0  0
  -42.5614   58.1954   63.5371 C   0  0  0  0  0  0  0  0  0  0  0  0
  -42.7970   60.1612   63.5394 H   0  0  0  0  0  0  0  0  0  0  0  0
  -41.6104   57.1232   63.9794 C   0  0  0  0  0  0  0  0  0  0  0  0
  -40.6519   56.8855   62.8124 C   0  0  0  0  0  0  0  0  0  0  0  0
  -41.2210   55.8196   61.8790 C   0  0  0  0  0  0  0  0  0  0  0  0
  -41.3083   56.1942   60.4194 C   0  0  0  0  0  0  0  0  0  0  0  0
  -41.1686   57.7099   60.3234 C   0  0  0  0  0  0  0  0  0  0  0  0
  -40.0537   58.1430   59.3621 C   0  0  0  0  0  0  0  0  0  0  0  0
  -39.0540   59.1469   59.9646 C   0  0  0  0  0  0  0  0  0  0  0  0
  -37.6257   58.5721   60.0868 C   0  0  0  0  0  0  0  0  0  0  0  0
  -37.3922   57.9992   61.4877 C   0  0  0  0  0  0  0  0  0  0  0  0
  -36.5755   58.8864   62.4193 C   0  0  0  0  0  0  0  0  0  0  0  0
  -35.8417   58.0843   63.4841 C   0  0  0  0  0  0  0  0  0  0  0  0
  -35.1120   58.8994   64.5543 C   0  0  0  0  0  0  0  0  0  0  0  0
  -33.7218   58.3062   64.7385 C   0  0  0  0  0  0  0  0  0  0  0  0
  -32.7531   58.3401   63.5656 C   0  0  0  0  0  0  0  0  0  0  0  0
  -32.5375   59.7795   63.0719 C   0  0  0  0  0  0  0  0  0  0  0  0
  -31.0934   60.0980   62.6427 C   0  0  0  0  0  0  0  0  0  0  0  0
  -31.0044   60.7724   61.2758 C   0  0  0  0  0  0  0  0  0  0  0  0
  -40.3915   61.0327   66.4224 O   0  0  0  0  0  0  0  0  0  0  0  0
  -41.5022   60.7987   65.5768 C   0  0  0  0  0  0  0  0  0  0  0  0
  -39.6904   61.4765   65.9201 H   0  0  0  0  0  0  0  0  0  0  0  0
  -42.6482   60.0981   66.3105 C   0  0  0  0  0  0  0  0  0  0  0  0
  -43.9431   60.3700   66.0743 C   0  0  0  0  0  0  0  0  0  0  0  0
  -45.0296   59.6276   66.8498 C   0  0  0  0  0  0  0  0  0  0  0  0
  -46.4376   59.7925   66.2594 C   0  0  0  0  0  0  0  0  0  0  0  0
  -46.4983   60.0491   64.7423 C   0  0  0  0  0  0  0  0  0  0  0  0
  -47.8373   59.5439   64.1529 C   0  0  0  0  0  0  0  0  0  0  0  0
  -48.5369   58.4243   64.9644 C   0  0  0  0  0  0  0  0  0  0  0  0
  -50.0199   58.7144   65.2956 C   0  0  0  0  0  0  0  0  0  0  0  0
  -50.5494   60.0206   64.6651 C   0  0  0  0  0  0  0  0  0  0  0  0
  -51.4240   59.7980   63.4254 C   0  0  0  0  0  0  0  0  0  0  0  0
  -50.6873   59.4101   62.1450 C   0  0  0  0  0  0  0  0  0  0  0  0
  -50.9453   57.9605   61.6891 C   0  0  0  0  0  0  0  0  0  0  0  0
  -49.7412   57.2505   61.0517 C   0  0  0  0  0  0  0  0  0  0  0  0
  -49.6552   57.5523   59.5528 C   0  0  0  0  0  0  0  0  0  0  0  0
  -48.6607   58.6209   59.1351 C   0  0  0  0  0  0  0  0  0  0  0  0
  -39.8698   60.4596   63.5654 C   0  0  0  0  0  0  0  0  0  0  0  0
  -39.2128   61.6708   64.0176 O   0  0  0  0  0  0  0  0  0  0  0  0
  -37.1959   62.0405   62.0245 O   0  0  0  0  0  0  0  0  0  0  0  0
  -35.4210   64.3641   64.9993 O   0  0  0  0  0  0  0  0  0  0  0  0
  -37.4475   62.1978   65.5960 O   0  0  0  0  0  0  0  0  0  0  0  0
  -37.7585   61.7039   64.2706 C   0  0  0  0  0  0  0  0  0  0  0  0
  -36.9219   62.5445   63.2953 C   0  0  0  0  0  0  0  0  0  0  0  0
  -35.4001   62.4454   63.5387 C   0  0  0  0  0  0  0  0  0  0  0  0
  -35.1621   62.9640   64.9301 C   0  0  0  0  0  0  0  0  0  0  0  0
  -36.0302   62.2044   65.9168 C   0  0  0  0  0  0  0  0  0  0  0  0
  -38.1491   62.0948   61.8537 H   0  0  0  0  0  0  0  0  0  0  0  0
  -34.8567   64.8291   64.3618 H   0  0  0  0  0  0  0  0  0  0  0  0
  -36.4701   63.9897   67.4441 O   0  0  0  0  0  0  0  0  0  0  0  0
  -35.6507   62.8794   67.2330 C   0  0  0  0  0  0  0  0  0  0  0  0
  -36.2271   64.4165   68.2806 H   0  0  0  0  0  0  0  0  0  0  0  0
  -34.5650   63.2395   62.6657 O   0  0  0  0  0  0  0  0  0  0  0  0
  -35.5917   63.8974   60.3787 O   0  0  0  0  0  0  0  0  0  0  0  0
  -34.0324   65.4039   61.4687 O   0  0  0  0  0  0  0  0  0  0  0  0
  -36.3034   65.1968   62.2895 O   0  0  0  0  0  0  0  0  0  0  0  0
  -35.1564   64.4548   61.6934 S   0  0  0  0  0  0  0  0  0  0  0  0
  -34.8566   63.4100   59.9748 H   0  0  0  0  0  0  0  0  0  0  0  0
  -37.0413   64.5852   62.4394 H   0  0  0  0  0  0  0  0  0  0  0  0
  2  1  1  0  0  0
  2  4  1  0  0  0
  2  5  1  0  0  0
 41 42  1  0  0  0
 41  1  1  0  0  0
 42 46  1  0  0  0
  1 24  1  0  0  0
 23 24  1  0  0  0
 23 25  1  0  0  0
 24 26  1  0  0  0
  3  4  2  0  0  0
 26 27  2  0  0  0
 27 28  1  0  0  0
 43 47  1  0  0  0
 43 51  1  0  0  0
 28 29  1  0  0  0
 56 48  1  0  0  0
 56 60  1  0  0  0
 29 30  1  0  0  0
 57 60  1  0  0  0
 57 61  1  0  0  0
 30 31  1  0  0  0
 44 49  1  0  0  0
 44 52  1  0  0  0
 31 32  1  0  0  0
 45 46  1  0  0  0
 45 50  1  0  0  0
 32 33  1  0  0  0
 53 54  1  0  0  0
 53 55  1  0  0  0
 33 34  1  0  0  0
 34 35  1  0  0  0
 35 36  1  0  0  0
 58 60  1  0  0  0
 36 37  1  0  0  0
 59 60  1  0  0  0
 59 62  1  0  0  0
 37 38  1  0  0  0
 38 39  1  0  0  0
 39 40  1  0  0  0
  4  6  1  0  0  0
  6  7  1  0  0  0
  7  8  1  0  0  0
  8  9  1  0  0  0
  9 10  1  0  0  0
 10 11  1  0  0  0
 11 12  1  0  0  0
 12 13  1  0  0  0
 13 14  1  0  0  0
 14 15  1  0  0  0
 15 16  1  0  0  0
 16 17  1  0  0  0
 17 18  1  0  0  0
 18 19  1  0  0  0
 19 20  1  0  0  0
 20 21  1  0  0  0
 21 22  1  0  0  0
 46 47  1  0  0  0
 47 48  1  0  0  0
 48 49  1  0  0  0
 49 50  1  0  0  0
 50 54  1  0  0  0
M  CHG 1  58  -1
M  END
> <minimizedAffinity>
-9.25074

> <CNNscore>
0.1134380996

> <CNNaffinity>
6.8329987526

> <CNN_VS>
0.7751224041

> <CNNaffinity_variance>
1.7120940685

$$$$
/media/chris/experiments/cd1a-new-docking/inputs/ligands/1onq_ligand.pdb


 62 62  0  0  0  0  0  0  0  0999 V2000
  -38.7619   60.6270   65.2683 C   0  0  0  0  0  0  0  0  0  0  0  0
  -38.1867   59.3600   65.6744 N   0  0  0  0  0  0  0  0  0  0  0  0
  -36.9445   57.4881   65.3573 O   0  0  0  0  0  0  0  0  0  0  0  0
  -37.3886   58.5499   64.9657 C   0  0  0  0  0  0  0  0  0  0  0  0
  -38.4103   59.0569   66.5839 H   0  0  0  0  0  0  0  0  0  0  0  0
  -37.0532   59.0326   63.5858 C   0  0  0  0  0  0  0  0  0  0  0  0
  -37.4960   57.9317   62.6219 C   0  0  0  0  0  0  0  0  0  0  0  0
  -37.1629   58.3305   61.1863 C   0  0  0  0  0  0  0  0  0  0  0  0
  -38.0570   59.3751   60.5635 C   0  0  0  0  0  0  0  0  0  0  0  0
  -38.2288   59.0162   59.0912 C   0  0  0  0  0  0  0  0  0  0  0  0
  -39.5820   58.3553   58.7960 C   0  0  0  0  0  0  0  0  0  0  0  0
  -40.7741   59.0030   59.5240 C   0  0  0  0  0  0  0  0  0  0  0  0
  -41.6076   57.9859   60.3339 C   0  0  0  0  0  0  0  0  0  0  0  0
  -40.7044   57.1551   61.2499 C   0  0  0  0  0  0  0  0  0  0  0  0
  -41.1727   55.7256   61.4933 C   0  0  0  0  0  0  0  0  0  0  0  0
  -41.3930   55.4339   62.9704 C   0  0  0  0  0  0  0  0  0  0  0  0
  -41.3981   56.6489   63.9008 C   0  0  0  0  0  0  0  0  0  0  0  0
  -42.4744   56.4352   64.9566 C   0  0  0  0  0  0  0  0  0  0  0  0
  -43.6811   57.3621   64.9658 C   0  0  0  0  0  0  0  0  0  0  0  0
  -44.1288   57.6675   66.4039 C   0  0  0  0  0  0  0  0  0  0  0  0
  -45.6465   57.5540   66.6381 C   0  0  0  0  0  0  0  0  0  0  0  0
  -46.2237   58.7214   67.4351 C   0  0  0  0  0  0  0  0  0  0  0  0
  -39.6782   61.0287   63.1719 O   0  0  0  0  0  0  0  0  0  0  0  0
  -39.8566   60.2001   64.3055 C   0  0  0  0  0  0  0  0  0  0  0  0
  -38.8037   60.8645   62.7858 H   0  0  0  0  0  0  0  0  0  0  0  0
  -41.2218   60.4106   64.9646 C   0  0  0  0  0  0  0  0  0  0  0  0
  -42.2869   60.8950   64.3034 C   0  0  0  0  0  0  0  0  0  0  0  0
  -43.6165   61.0773   65.0330 C   0  0  0  0  0  0  0  0  0  0  0  0
  -44.8162   60.4554   64.3035 C   0  0  0  0  0  0  0  0  0  0  0  0
  -46.1216   61.2706   64.3526 C   0  0  0  0  0  0  0  0  0  0  0  0
  -47.3506   60.3345   64.4465 C   0  0  0  0  0  0  0  0  0  0  0  0
  -48.5919   60.7888   63.6377 C   0  0  0  0  0  0  0  0  0  0  0  0
  -49.9273   60.6759   64.4101 C   0  0  0  0  0  0  0  0  0  0  0  0
  -51.0395   59.9544   63.6185 C   0  0  0  0  0  0  0  0  0  0  0  0
  -50.6136   59.5201   62.2109 C   0  0  0  0  0  0  0  0  0  0  0  0
  -50.2191   58.0533   62.0517 C   0  0  0  0  0  0  0  0  0  0  0  0
  -50.3170   57.5324   60.6043 C   0  0  0  0  0  0  0  0  0  0  0  0
  -49.9480   58.5512   59.5154 C   0  0  0  0  0  0  0  0  0  0  0  0
  -48.4541   58.4862   59.1850 C   0  0  0  0  0  0  0  0  0  0  0  0
  -47.8160   57.1087   59.2114 C   0  0  0  0  0  0  0  0  0  0  0  0
  -37.7544   61.6831   64.7600 C   0  0  0  0  0  0  0  0  0  0  0  0
  -36.5990   61.9337   65.5999 O   0  0  0  0  0  0  0  0  0  0  0  0
  -33.9802   60.8457   65.2316 O   0  0  0  0  0  0  0  0  0  0  0  0
  -34.0579   63.1951   61.7859 O   0  0  0  0  0  0  0  0  0  0  0  0
  -35.8127   63.7438   64.1890 O   0  0  0  0  0  0  0  0  0  0  0  0
  -35.4294   62.6773   65.0908 C   0  0  0  0  0  0  0  0  0  0  0  0
  -34.3734   61.8481   64.3459 C   0  0  0  0  0  0  0  0  0  0  0  0
  -33.1213   62.6569   63.9419 C   0  0  0  0  0  0  0  0  0  0  0  0
  -33.6020   63.7436   63.0201 C   0  0  0  0  0  0  0  0  0  0  0  0
  -34.7023   64.5413   63.6963 C   0  0  0  0  0  0  0  0  0  0  0  0
  -34.7552   60.3263   65.4968 H   0  0  0  0  0  0  0  0  0  0  0  0
  -33.3404   62.6905   61.3717 H   0  0  0  0  0  0  0  0  0  0  0  0
  -36.2168   65.1704   61.9573 O   0  0  0  0  0  0  0  0  0  0  0  0
  -35.0462   65.5591   62.6111 C   0  0  0  0  0  0  0  0  0  0  0  0
  -36.4331   65.8184   61.2688 H   0  0  0  0  0  0  0  0  0  0  0  0
  -32.1056   61.9315   63.2124 O   0  0  0  0  0  0  0  0  0  0  0  0
  -33.7997   60.1166   62.4685 O   0  0  0  0  0  0  0  0  0  0  0  0
  -31.7455   59.4540   63.5778 O   0  0  0  0  0  0  0  0  0  0  0  0
  -31.7023   60.1853   61.2675 O   0  0  0  0  0  0  0  0  0  0  0  0
  -32.3401   60.4024   62.5971 S   0  0  0  0  0  0  0  0  0  0  0  0
  -34.2325   60.2528   63.3259 H   0  0  0  0  0  0  0  0  0  0  0  0
  -32.0842   60.7999   60.6215 H   0  0  0  0  0  0  0  0  0  0  0  0
  2  1  1  0  0  0
  2  4  1  0  0  0
  2  5  1  0  0  0
 41 42  1  0  0  0
 41  1  1  0  0  0
 42 46  1  0  0  0
  1 24  1  0  0  0
 23 24  1  0  0  0
 23 25  1  0  0  0
 24 26  1  0  0  0
  3  4  2  0  0  0
 26 27  2  0  0  0
 27 28  1  0  0  0
 43 47  1  0  0  0
 43 51  1  0  0  0
 28 29  1  0  0  0
 56 48  1  0  0  0
 56 60  1  0  0  0
 29 30  1  0  0  0
 57 60  1  0  0  0
 57 61  1  0  0  0
 30 31  1  0  0  0
 44 49  1  0  0  0
 44 52  1  0  0  0
 31 32  1  0  0  0
 45 46  1  0  0  0
 45 50  1  0  0  0
 32 33  1  0  0  0
 53 54  1  0  0  0
 53 55  1  0  0  0
 33 34  1  0  0  0
 34 35  1  0  0  0
 35 36  1  0  0  0
 58 60  1  0  0  0
 36 37  1  0  0  0
 59 60  1  0  0  0
 59 62  1  0  0  0
 37 38  1  0  0  0
 38 39  1  0  0  0
 39 40  1  0  0  0
  4  6  1  0  0  0
  6  7  1  0  0  0
  7  8  1  0  0  0
  8  9  1  0  0  0
  9 10  1  0  0  0
 10 11  1  0  0  0
 11 12  1  0  0  0
 12 13  1  0  0  0
 13 14  1  0  0  0
 14 15  1  0  0  0
 15 16  1  0  0  0
 16 17  1  0  0  0
 17 18  1  0  0  0
 18 19  1  0  0  0
 19 20  1  0  0  0
 20 21  1  0  0  0
 21 22  1  0  0  0
 46 47  1  0  0  0
 47 48  1  0  0  0
 48 49  1  0  0  0
 49 50  1  0  0  0
 50 54  1  0  0  0
M  CHG 1  58  -1
M  END
> <minimizedAffinity>
-8.56559

> <CNNscore>
0.1093138084

> <CNNaffinity>
6.8903322220

> <CNN_VS>
0.7532084584

> <CNNaffinity_variance>
1.5429118872

$$$$
/media/chris/experiments/cd1a-new-docking/inputs/ligands/1onq_ligand.pdb


 62 62  0  0  0  0  0  0  0  0999 V2000
  -41.5020   60.7083   62.7651 C   0  0  0  0  0  0  0  0  0  0  0  0
  -41.3718   61.2106   61.4116 N   0  0  0  0  0  0  0  0  0  0  0  0
  -41.0200   60.9957   59.1806 O   0  0  0  0  0  0  0  0  0  0  0  0
  -41.1310   60.5153   60.2917 C   0  0  0  0  0  0  0  0  0  0  0  0
  -41.4729   62.1836   61.3014 H   0  0  0  0  0  0  0  0  0  0  0  0
  -40.9881   59.0340   60.4791 C   0  0  0  0  0  0  0  0  0  0  0  0
  -39.7866   58.6046   59.6371 C   0  0  0  0  0  0  0  0  0  0  0  0
  -38.4953   59.1129   60.2736 C   0  0  0  0  0  0  0  0  0  0  0  0
  -37.7905   58.1533   61.2015 C   0  0  0  0  0  0  0  0  0  0  0  0
  -36.6064   58.8923   61.8160 C   0  0  0  0  0  0  0  0  0  0  0  0
  -35.5863   57.9447   62.4614 C   0  0  0  0  0  0  0  0  0  0  0  0
  -35.8960   57.5852   63.9261 C   0  0  0  0  0  0  0  0  0  0  0  0
  -36.1633   58.8265   64.8054 C   0  0  0  0  0  0  0  0  0  0  0  0
  -37.5814   58.7846   65.3819 C   0  0  0  0  0  0  0  0  0  0  0  0
  -38.4028   57.5637   64.9859 C   0  0  0  0  0  0  0  0  0  0  0  0
  -39.7047   57.9430   64.2956 C   0  0  0  0  0  0  0  0  0  0  0  0
  -40.1423   57.0360   63.1432 C   0  0  0  0  0  0  0  0  0  0  0  0
  -41.6565   56.8874   63.2032 C   0  0  0  0  0  0  0  0  0  0  0  0
  -42.2731   56.1826   64.4024 C   0  0  0  0  0  0  0  0  0  0  0  0
  -43.2412   57.1135   65.1495 C   0  0  0  0  0  0  0  0  0  0  0  0
  -42.7200   57.6206   66.5068 C   0  0  0  0  0  0  0  0  0  0  0  0
  -42.0441   58.9871   66.4219 C   0  0  0  0  0  0  0  0  0  0  0  0
  -42.3395   62.1258   64.4036 O   0  0  0  0  0  0  0  0  0  0  0  0
  -42.7575   61.4070   63.2581 C   0  0  0  0  0  0  0  0  0  0  0  0
  -41.6667   62.7766   64.1494 H   0  0  0  0  0  0  0  0  0  0  0  0
  -43.8228   60.3599   63.5912 C   0  0  0  0  0  0  0  0  0  0  0  0
  -44.9108   60.6326   64.3316 C   0  0  0  0  0  0  0  0  0  0  0  0
  -45.9290   59.5313   64.6213 C   0  0  0  0  0  0  0  0  0  0  0  0
  -47.3894   60.0006   64.5504 C   0  0  0  0  0  0  0  0  0  0  0  0
  -48.4420   58.9753   65.0106 C   0  0  0  0  0  0  0  0  0  0  0  0
  -49.7922   59.6705   65.3091 C   0  0  0  0  0  0  0  0  0  0  0  0
  -50.2993   60.6328   64.2054 C   0  0  0  0  0  0  0  0  0  0  0  0
  -51.4789   60.0769   63.3733 C   0  0  0  0  0  0  0  0  0  0  0  0
  -51.0953   58.8731   62.4857 C   0  0  0  0  0  0  0  0  0  0  0  0
  -50.0387   59.2004   61.4237 C   0  0  0  0  0  0  0  0  0  0  0  0
  -48.8788   58.2140   61.3044 C   0  0  0  0  0  0  0  0  0  0  0  0
  -48.9336   57.3332   60.0407 C   0  0  0  0  0  0  0  0  0  0  0  0
  -49.1819   58.0886   58.7263 C   0  0  0  0  0  0  0  0  0  0  0  0
  -48.2827   57.5555   57.6073 C   0  0  0  0  0  0  0  0  0  0  0  0
  -47.0764   58.4047   57.2480 C   0  0  0  0  0  0  0  0  0  0  0  0
  -40.2383   60.8338   63.6461 C   0  0  0  0  0  0  0  0  0  0  0  0
  -39.3339   61.9228   63.3309 O   0  0  0  0  0  0  0  0  0  0  0  0
  -37.0937   62.2580   61.5854 O   0  0  0  0  0  0  0  0  0  0  0  0
  -35.5686   64.4179   64.8116 O   0  0  0  0  0  0  0  0  0  0  0  0
  -37.7358   62.3275   65.1106 O   0  0  0  0  0  0  0  0  0  0  0  0
  -37.9168   61.8846   63.7437 C   0  0  0  0  0  0  0  0  0  0  0  0
  -36.9430   62.7141   62.8944 C   0  0  0  0  0  0  0  0  0  0  0  0
  -35.4631   62.5412   63.3009 C   0  0  0  0  0  0  0  0  0  0  0  0
  -35.3610   63.0102   64.7261 C   0  0  0  0  0  0  0  0  0  0  0  0
  -36.3641   62.2627   65.5859 C   0  0  0  0  0  0  0  0  0  0  0  0
  -38.0189   62.3590   61.3124 H   0  0  0  0  0  0  0  0  0  0  0  0
  -34.9182   64.8749   64.2557 H   0  0  0  0  0  0  0  0  0  0  0  0
  -36.7558   64.1165   67.0431 O   0  0  0  0  0  0  0  0  0  0  0  0
  -36.1066   62.8836   66.9571 C   0  0  0  0  0  0  0  0  0  0  0  0
  -36.5908   64.5087   67.9147 H   0  0  0  0  0  0  0  0  0  0  0  0
  -34.5041   63.3215   62.5516 O   0  0  0  0  0  0  0  0  0  0  0  0
  -32.8722   61.3306   62.2507 O   0  0  0  0  0  0  0  0  0  0  0  0
  -32.1219   63.3298   63.4036 O   0  0  0  0  0  0  0  0  0  0  0  0
  -32.3679   63.3327   60.9924 O   0  0  0  0  0  0  0  0  0  0  0  0
  -32.9411   62.8217   62.2699 S   0  0  0  0  0  0  0  0  0  0  0  0
  -33.2417   60.9792   63.0760 H   0  0  0  0  0  0  0  0  0  0  0  0
  -32.8962   63.0061   60.2474 H   0  0  0  0  0  0  0  0  0  0  0  0
  2  1  1  0  0  0
  2  4  1  0  0  0
  2  5  1  0  0  0
 41 42  1  0  0  0
 41  1  1  0  0  0
 42 46  1  0  0  0
  1 24  1  0  0  0
 23 24  1  0  0  0
 23 25  1  0  0  0
 24 26  1  0  0  0
  3  4  2  0  0  0
 26 27  2  0  0  0
 27 28  1  0  0  0
 43 47  1  0  0  0
 43 51  1  0  0  0
 28 29  1  0  0  0
 56 48  1  0  0  0
 56 60  1  0  0  0
 29 30  1  0  0  0
 57 60  1  0  0  0
 57 61  1  0  0  0
 30 31  1  0  0  0
 44 49  1  0  0  0
 44 52  1  0  0  0
 31 32  1  0  0  0
 45 46  1  0  0  0
 45 50  1  0  0  0
 32 33  1  0  0  0
 53 54  1  0  0  0
 53 55  1  0  0  0
 33 34  1  0  0  0
 34 35  1  0  0  0
 35 36  1  0  0  0
 58 60  1  0  0  0
 36 37  1  0  0  0
 59 60  1  0  0  0
 59 62  1  0  0  0
 37 38  1  0  0  0
 38 39  1  0  0  0
 39 40  1  0  0  0
  4  6  1  0  0  0
  6  7  1  0  0  0
  7  8  1  0  0  0
  8  9  1  0  0  0
  9 10  1  0  0  0
 10 11  1  0  0  0
 11 12  1  0  0  0
 12 13  1  0  0  0
 13 14  1  0  0  0
 14 15  1  0  0  0
 15 16  1  0  0  0
 16 17  1  0  0  0
 17 18  1  0  0  0
 18 19  1  0  0  0
 19 20  1  0  0  0
 20 21  1  0  0  0
 21 22  1  0  0  0
 46 47  1  0  0  0
 47 48  1  0  0  0
 48 49  1  0  0  0
 49 50  1  0  0  0
 50 54  1  0  0  0
M  CHG 1  58  -1
M  END
> <minimizedAffinity>
-8.70716

> <CNNscore>
0.1084761024

> <CNNaffinity>
7.1237883568

> <CNN_VS>
0.7727608085

> <CNNaffinity_variance>
1.3547880650

$$$$
