/media/chris/experiments/cd1a-new-docking/inputs/ligands/1onq_ligand.pdb


 62 62  0  0  0  0  0  0  0  0999 V2000
  -41.5117   60.0019   65.6902 C   0  0  0  0  0  0  0  0  0  0  0  0
  -41.6976   59.6662   64.2924 N   0  0  0  0  0  0  0  0  0  0  0  0
  -41.2467   61.6388   63.2663 O   0  0  0  0  0  0  0  0  0  0  0  0
  -41.5602   60.4649   63.2254 C   0  0  0  0  0  0  0  0  0  0  0  0
  -41.9570   58.7355   64.1036 H   0  0  0  0  0  0  0  0  0  0  0  0
  -41.8165   59.8093   61.9008 C   0  0  0  0  0  0  0  0  0  0  0  0
  -41.9701   58.3142   62.1799 C   0  0  0  0  0  0  0  0  0  0  0  0
  -41.5897   57.5102   60.9389 C   0  0  0  0  0  0  0  0  0  0  0  0
  -41.2893   58.3116   59.6956 C   0  0  0  0  0  0  0  0  0  0  0  0
  -39.8787   57.9488   59.2431 C   0  0  0  0  0  0  0  0  0  0  0  0
  -38.8469   59.0286   59.5956 C   0  0  0  0  0  0  0  0  0  0  0  0
  -37.6920   58.5329   60.4849 C   0  0  0  0  0  0  0  0  0  0  0  0
  -38.1651   57.5910   61.6138 C   0  0  0  0  0  0  0  0  0  0  0  0
  -37.1859   57.6244   62.7908 C   0  0  0  0  0  0  0  0  0  0  0  0
  -35.7585   58.0188   62.4312 C   0  0  0  0  0  0  0  0  0  0  0  0
  -35.1530   58.9803   63.4431 C   0  0  0  0  0  0  0  0  0  0  0  0
  -34.2311   58.3565   64.4933 C   0  0  0  0  0  0  0  0  0  0  0  0
  -32.8010   58.7752   64.1798 C   0  0  0  0  0  0  0  0  0  0  0  0
  -32.4598   59.1978   62.7584 C   0  0  0  0  0  0  0  0  0  0  0  0
  -31.0559   59.8199   62.6919 C   0  0  0  0  0  0  0  0  0  0  0  0
  -30.9293   61.0076   61.7201 C   0  0  0  0  0  0  0  0  0  0  0  0
  -32.0234   62.0569   61.9028 C   0  0  0  0  0  0  0  0  0  0  0  0
  -42.4748   61.3980   67.2775 O   0  0  0  0  0  0  0  0  0  0  0  0
  -42.7171   60.8788   65.9831 C   0  0  0  0  0  0  0  0  0  0  0  0
  -41.6634   61.9294   67.2660 H   0  0  0  0  0  0  0  0  0  0  0  0
  -43.9878   60.0273   65.9318 C   0  0  0  0  0  0  0  0  0  0  0  0
  -45.0276   60.3118   65.1293 C   0  0  0  0  0  0  0  0  0  0  0  0
  -46.2621   59.4124   65.1368 C   0  0  0  0  0  0  0  0  0  0  0  0
  -47.2633   59.7399   66.2542 C   0  0  0  0  0  0  0  0  0  0  0  0
  -48.6217   60.2969   65.7897 C   0  0  0  0  0  0  0  0  0  0  0  0
  -48.7935   60.1222   64.2616 C   0  0  0  0  0  0  0  0  0  0  0  0
  -50.1447   60.6172   63.6867 C   0  0  0  0  0  0  0  0  0  0  0  0
  -51.1065   59.4823   63.2626 C   0  0  0  0  0  0  0  0  0  0  0  0
  -50.3889   58.2648   62.6406 C   0  0  0  0  0  0  0  0  0  0  0  0
  -51.0760   57.7186   61.3833 C   0  0  0  0  0  0  0  0  0  0  0  0
  -50.5029   58.1875   60.0476 C   0  0  0  0  0  0  0  0  0  0  0  0
  -49.0110   58.5708   60.1068 C   0  0  0  0  0  0  0  0  0  0  0  0
  -48.0365   57.4856   59.6246 C   0  0  0  0  0  0  0  0  0  0  0  0
  -48.0320   57.3901   58.0963 C   0  0  0  0  0  0  0  0  0  0  0  0
  -47.0690   58.3087   57.3652 C   0  0  0  0  0  0  0  0  0  0  0  0
  -40.1236   60.5731   66.0588 C   0  0  0  0  0  0  0  0  0  0  0  0
  -38.9754   59.9300   65.4494 O   0  0  0  0  0  0  0  0  0  0  0  0
  -38.3153   60.8924   62.8388 O   0  0  0  0  0  0  0  0  0  0  0  0
  -37.0083   64.2307   64.9710 O   0  0  0  0  0  0  0  0  0  0  0  0
  -37.2821   61.4877   66.2186 O   0  0  0  0  0  0  0  0  0  0  0  0
  -37.7622   60.6971   65.1040 C   0  0  0  0  0  0  0  0  0  0  0  0
  -37.8893   61.6648   63.9186 C   0  0  0  0  0  0  0  0  0  0  0  0
  -36.5601   62.3491   63.5310 C   0  0  0  0  0  0  0  0  0  0  0  0
  -36.1254   63.1364   64.7362 C   0  0  0  0  0  0  0  0  0  0  0  0
  -36.0596   62.2253   65.9486 C   0  0  0  0  0  0  0  0  0  0  0  0
  -39.1507   60.4541   63.0644 H   0  0  0  0  0  0  0  0  0  0  0  0
  -37.0351   64.7989   64.1852 H   0  0  0  0  0  0  0  0  0  0  0  0
  -36.2009   62.8423   68.2535 O   0  0  0  0  0  0  0  0  0  0  0  0
  -35.6205   63.2032   67.0362 C   0  0  0  0  0  0  0  0  0  0  0  0
  -35.9205   63.4649   68.9426 H   0  0  0  0  0  0  0  0  0  0  0  0
  -36.6275   63.2925   62.4377 O   0  0  0  0  0  0  0  0  0  0  0  0
  -35.9143   65.7081   61.8262 O   0  0  0  0  0  0  0  0  0  0  0  0
  -34.7931   63.8275   60.7795 O   0  0  0  0  0  0  0  0  0  0  0  0
  -34.3157   64.4020   63.0852 O   0  0  0  0  0  0  0  0  0  0  0  0
  -35.3848   64.3301   62.0490 S   0  0  0  0  0  0  0  0  0  0  0  0
  -36.6127   65.6812   61.1535 H   0  0  0  0  0  0  0  0  0  0  0  0
  -34.6930   64.7290   63.9169 H   0  0  0  0  0  0  0  0  0  0  0  0
  2  1  1  0  0  0
  2  4  1  0  0  0
  2  5  1  0  0  0
 41 42  1  0  0  0
 41  1  1  0  0  0
 42 46  1  0  0  0
  1 24  1  0  0  0
 23 24  1  0  0  0
 23 25  1  0  0  0
 24 26  1  0  0  0
  3  4  2  0  0  0
 26 27  2  0  0  0
 27 28  1  0  0  0
 43 47  1  0  0  0
 43 51  1  0  0  0
 28 29  1  0  0  0
 56 48  1  0  0  0
 56 60  1  0  0  0
 29 30  1  0  0  0
 57 60  1  0  0  0
 57 61  1  0  0  0
 30 31  1  0  0  0
 44 49  1  0  0  0
 44 52  1  0  0  0
 31 32  1  0  0  0
 45 46  1  0  0  0
 45 50  1  0  0  0
 32 33  1  0  0  0
 53 54  1  0  0  0
 53 55  1  0  0  0
 33 34  1  0  0  0
 34 35  1  0  0  0
 35 36  1  0  0  0
 58 60  1  0  0  0
 36 37  1  0  0  0
 59 60  1  0  0  0
 59 62  1  0  0  0
 37 38  1  0  0  0
 38 39  1  0  0  0
 39 40  1  0  0  0
  4  6  1  0  0  0
  6  7  1  0  0  0
  7  8  1  0  0  0
  8  9  1  0  0  0
  9 10  1  0  0  0
 10 11  1  0  0  0
 11 12  1  0  0  0
 12 13  1  0  0  0
 13 14  1  0  0  0
 14 15  1  0  0  0
 15 16  1  0  0  0
 16 17  1  0  0  0
 17 18  1  0  0  0
 18 19  1  0  0  0
 19 20  1  0  0  0
 20 21  1  0  0  0
 21 22  1  0  0  0
 46 47  1  0  0  0
 47 48  1  0  0  0
 48 49  1  0  0  0
 49 50  1  0  0  0
 50 54  1  0  0  0
M  CHG 1  58  -1
M  END
> <minimizedAffinity>
-9.61661

> <CNNscore>
0.4046134055

> <CNNaffinity>
7.1185064316

> <CNN_VS>
2.8802430630

> <CNNaffinity_variance>
1.8384799957

$$$$
/media/chris/experiments/cd1a-new-docking/inputs/ligands/1onq_ligand.pdb


 62 62  0  0  0  0  0  0  0  0999 V2000
  -37.2522   59.2238   63.4830 C   0  0  0  0  0  0  0  0  0  0  0  0
  -38.6351   59.4514   63.8532 N   0  0  0  0  0  0  0  0  0  0  0  0
  -38.8136   61.7048   63.6600 O   0  0  0  0  0  0  0  0  0  0  0  0
  -39.2930   60.6171   63.9147 C   0  0  0  0  0  0  0  0  0  0  0  0
  -39.1557   58.6497   64.0887 H   0  0  0  0  0  0  0  0  0  0  0  0
  -40.7316   60.5164   64.3272 C   0  0  0  0  0  0  0  0  0  0  0  0
  -41.5542   60.5379   63.0389 C   0  0  0  0  0  0  0  0  0  0  0  0
  -43.0399   60.4083   63.3665 C   0  0  0  0  0  0  0  0  0  0  0  0
  -43.5995   61.4309   64.3254 C   0  0  0  0  0  0  0  0  0  0  0  0
  -45.0822   61.5964   64.0091 C   0  0  0  0  0  0  0  0  0  0  0  0
  -45.9493   60.4991   64.6406 C   0  0  0  0  0  0  0  0  0  0  0  0
  -47.4436   60.5886   64.2804 C   0  0  0  0  0  0  0  0  0  0  0  0
  -48.3692   60.3276   65.4890 C   0  0  0  0  0  0  0  0  0  0  0  0
  -49.6843   59.6884   65.0338 C   0  0  0  0  0  0  0  0  0  0  0  0
  -50.2603   60.2500   63.7396 C   0  0  0  0  0  0  0  0  0  0  0  0
  -51.1772   59.2590   63.0380 C   0  0  0  0  0  0  0  0  0  0  0  0
  -50.5849   58.5404   61.8236 C   0  0  0  0  0  0  0  0  0  0  0  0
  -49.5869   59.4772   61.1565 C   0  0  0  0  0  0  0  0  0  0  0  0
  -49.1930   59.2134   59.7106 C   0  0  0  0  0  0  0  0  0  0  0  0
  -49.1141   57.7045   59.4289 C   0  0  0  0  0  0  0  0  0  0  0  0
  -47.7936   57.2435   58.7849 C   0  0  0  0  0  0  0  0  0  0  0  0
  -47.2846   58.1940   57.7037 C   0  0  0  0  0  0  0  0  0  0  0  0
  -35.9457   57.4881   62.6607 O   0  0  0  0  0  0  0  0  0  0  0  0
  -37.3027   57.8461   62.8452 C   0  0  0  0  0  0  0  0  0  0  0  0
  -35.5021   57.4471   63.5225 H   0  0  0  0  0  0  0  0  0  0  0  0
  -38.0627   57.9288   61.5193 C   0  0  0  0  0  0  0  0  0  0  0  0
  -37.7180   58.7700   60.5294 C   0  0  0  0  0  0  0  0  0  0  0  0
  -38.5285   58.7935   59.2349 C   0  0  0  0  0  0  0  0  0  0  0  0
  -39.8222   57.9682   59.2964 C   0  0  0  0  0  0  0  0  0  0  0  0
  -41.0345   58.6757   59.9296 C   0  0  0  0  0  0  0  0  0  0  0  0
  -41.9123   57.6682   60.7105 C   0  0  0  0  0  0  0  0  0  0  0  0
  -41.3047   56.2526   60.8785 C   0  0  0  0  0  0  0  0  0  0  0  0
  -41.2777   55.7441   62.3392 C   0  0  0  0  0  0  0  0  0  0  0  0
  -41.3594   56.8744   63.3881 C   0  0  0  0  0  0  0  0  0  0  0  0
  -42.1222   56.4834   64.6596 C   0  0  0  0  0  0  0  0  0  0  0  0
  -42.1488   57.5270   65.7742 C   0  0  0  0  0  0  0  0  0  0  0  0
  -43.5623   58.0320   66.1252 C   0  0  0  0  0  0  0  0  0  0  0  0
  -44.7107   57.3321   65.3827 C   0  0  0  0  0  0  0  0  0  0  0  0
  -45.9852   57.3159   66.2313 C   0  0  0  0  0  0  0  0  0  0  0  0
  -45.9672   58.1607   67.4930 C   0  0  0  0  0  0  0  0  0  0  0  0
  -36.2175   59.4362   64.6113 C   0  0  0  0  0  0  0  0  0  0  0  0
  -34.8736   59.7936   64.1995 O   0  0  0  0  0  0  0  0  0  0  0  0
  -32.7300   61.1417   62.8710 O   0  0  0  0  0  0  0  0  0  0  0  0
  -34.8788   64.5417   63.9763 O   0  0  0  0  0  0  0  0  0  0  0  0
  -35.1635   61.8845   65.3952 O   0  0  0  0  0  0  0  0  0  0  0  0
  -34.2418   61.0480   64.6545 C   0  0  0  0  0  0  0  0  0  0  0  0
  -33.6441   61.9403   63.5571 C   0  0  0  0  0  0  0  0  0  0  0  0
  -32.8952   63.1763   64.1020 C   0  0  0  0  0  0  0  0  0  0  0  0
  -33.9118   63.9827   64.8619 C   0  0  0  0  0  0  0  0  0  0  0  0
  -34.5792   63.1111   65.9104 C   0  0  0  0  0  0  0  0  0  0  0  0
  -33.1835   60.3590   62.5210 H   0  0  0  0  0  0  0  0  0  0  0  0
  -34.4314   65.0939   63.3159 H   0  0  0  0  0  0  0  0  0  0  0  0
  -36.8512   63.8321   66.0891 O   0  0  0  0  0  0  0  0  0  0  0  0
  -35.5581   64.0979   66.5430 C   0  0  0  0  0  0  0  0  0  0  0  0
  -37.4709   64.4600   66.4923 H   0  0  0  0  0  0  0  0  0  0  0  0
  -32.3356   64.0670   63.1103 O   0  0  0  0  0  0  0  0  0  0  0  0
  -31.7413   62.9711   60.8380 O   0  0  0  0  0  0  0  0  0  0  0  0
  -32.4340   65.2961   60.9011 O   0  0  0  0  0  0  0  0  0  0  0  0
  -34.0682   63.5290   61.1858 O   0  0  0  0  0  0  0  0  0  0  0  0
  -32.6687   63.9470   61.4834 S   0  0  0  0  0  0  0  0  0  0  0  0
  -30.8239   63.2273   61.0212 H   0  0  0  0  0  0  0  0  0  0  0  0
  -34.2300   62.6497   61.5622 H   0  0  0  0  0  0  0  0  0  0  0  0
  2  1  1  0  0  0
  2  4  1  0  0  0
  2  5  1  0  0  0
 41 42  1  0  0  0
 41  1  1  0  0  0
 42 46  1  0  0  0
  1 24  1  0  0  0
 23 24  1  0  0  0
 23 25  1  0  0  0
 24 26  1  0  0  0
  3  4  2  0  0  0
 26 27  2  0  0  0
 27 28  1  0  0  0
 43 47  1  0  0  0
 43 51  1  0  0  0
 28 29  1  0  0  0
 56 48  1  0  0  0
 56 60  1  0  0  0
 29 30  1  0  0  0
 57 60  1  0  0  0
 57 61  1  0  0  0
 30 31  1  0  0  0
 44 49  1  0  0  0
 44 52  1  0  0  0
 31 32  1  0  0  0
 45 46  1  0  0  0
 45 50  1  0  0  0
 32 33  1  0  0  0
 53 54  1  0  0  0
 53 55  1  0  0  0
 33 34  1  0  0  0
 34 35  1  0  0  0
 35 36  1  0  0  0
 58 60  1  0  0  0
 36 37  1  0  0  0
 59 60  1  0  0  0
 59 62  1  0  0  0
 37 38  1  0  0  0
 38 39  1  0  0  0
 39 40  1  0  0  0
  4  6  1  0  0  0
  6  7  1  0  0  0
  7  8  1  0  0  0
  8  9  1  0  0  0
  9 10  1  0  0  0
 10 11  1  0  0  0
 11 12  1  0  0  0
 12 13  1  0  0  0
 13 14  1  0  0  0
 14 15  1  0  0  0
 15 16  1  0  0  0
 16 17  1  0  0  0
 17 18  1  0  0  0
 18 19  1  0  0  0
 19 20  1  0  0  0
 20 21  1  0  0  0
 21 22  1  0  0  0
 46 47  1  0  0  0
 47 48  1  0  0  0
 48 49  1  0  0  0
 49 50  1  0  0  0
 50 54  1  0  0  0
M  CHG 1  58  -1
M  END
> <minimizedAffinity>
-9.34336

> <CNNscore>
0.2449870259

> <CNNaffinity>
7.2924985886

> <CNN_VS>
1.7865675688

> <CNNaffinity_variance>
1.1504514217

$$$$
/media/chris/experiments/cd1a-new-docking/inputs/ligands/1onq_ligand.pdb


 62 62  0  0  0  0  0  0  0  0999 V2000
  -40.6111   60.3326   63.9876 C   0  0  0  0  0  0  0  0  0  0  0  0
  -42.0164   60.5989   64.2231 N   0  0  0  0  0  0  0  0  0  0  0  0
  -42.6717   61.4803   62.2379 O   0  0  0  0  0  0  0  0  0  0  0  0
  -42.9102   61.1283   63.3768 C   0  0  0  0  0  0  0  0  0  0  0  0
  -42.3563   60.3612   65.1159 H   0  0  0  0  0  0  0  0  0  0  0  0
  -44.3001   61.2689   63.9230 C   0  0  0  0  0  0  0  0  0  0  0  0
  -44.4123   60.2785   65.0821 C   0  0  0  0  0  0  0  0  0  0  0  0
  -45.2924   59.0985   64.6766 C   0  0  0  0  0  0  0  0  0  0  0  0
  -45.3181   57.9307   65.6327 C   0  0  0  0  0  0  0  0  0  0  0  0
  -46.7500   57.7777   66.1349 C   0  0  0  0  0  0  0  0  0  0  0  0
  -47.7622   58.5607   65.2881 C   0  0  0  0  0  0  0  0  0  0  0  0
  -48.5499   59.6275   66.0705 C   0  0  0  0  0  0  0  0  0  0  0  0
  -50.0795   59.4731   65.9226 C   0  0  0  0  0  0  0  0  0  0  0  0
  -50.4402   58.9938   64.5135 C   0  0  0  0  0  0  0  0  0  0  0  0
  -50.7762   60.1010   63.5219 C   0  0  0  0  0  0  0  0  0  0  0  0
  -50.2094   59.8269   62.1368 C   0  0  0  0  0  0  0  0  0  0  0  0
  -49.4374   58.5155   61.9750 C   0  0  0  0  0  0  0  0  0  0  0  0
  -49.5878   58.0496   60.5331 C   0  0  0  0  0  0  0  0  0  0  0  0
  -48.9682   56.7203   60.1278 C   0  0  0  0  0  0  0  0  0  0  0  0
  -47.8077   56.9323   59.1425 C   0  0  0  0  0  0  0  0  0  0  0  0
  -47.9412   58.1865   58.2592 C   0  0  0  0  0  0  0  0  0  0  0  0
  -46.8784   58.2715   57.1662 C   0  0  0  0  0  0  0  0  0  0  0  0
  -38.9547   59.6331   65.4583 O   0  0  0  0  0  0  0  0  0  0  0  0
  -40.2799   59.3207   65.0710 C   0  0  0  0  0  0  0  0  0  0  0  0
  -38.9263   60.5344   65.8157 H   0  0  0  0  0  0  0  0  0  0  0  0
  -40.3946   57.9068   64.4963 C   0  0  0  0  0  0  0  0  0  0  0  0
  -41.5671   57.3536   64.1423 C   0  0  0  0  0  0  0  0  0  0  0  0
  -41.5984   55.9352   63.5763 C   0  0  0  0  0  0  0  0  0  0  0  0
  -41.1094   55.8343   62.1241 C   0  0  0  0  0  0  0  0  0  0  0  0
  -41.7622   56.8140   61.1315 C   0  0  0  0  0  0  0  0  0  0  0  0
  -40.9343   56.9076   59.8272 C   0  0  0  0  0  0  0  0  0  0  0  0
  -40.5776   58.3451   59.3715 C   0  0  0  0  0  0  0  0  0  0  0  0
  -40.1195   59.2776   60.5175 C   0  0  0  0  0  0  0  0  0  0  0  0
  -38.6423   59.7133   60.4060 C   0  0  0  0  0  0  0  0  0  0  0  0
  -37.6434   58.5672   60.6057 C   0  0  0  0  0  0  0  0  0  0  0  0
  -37.8291   57.7270   61.8674 C   0  0  0  0  0  0  0  0  0  0  0  0
  -36.9192   58.1469   63.0386 C   0  0  0  0  0  0  0  0  0  0  0  0
  -35.4514   57.7106   62.9164 C   0  0  0  0  0  0  0  0  0  0  0  0
  -34.5049   58.8886   63.1642 C   0  0  0  0  0  0  0  0  0  0  0  0
  -33.8551   58.9561   64.5349 C   0  0  0  0  0  0  0  0  0  0  0  0
  -39.7038   61.5803   63.8932 C   0  0  0  0  0  0  0  0  0  0  0  0
  -38.3490   61.3626   63.4238 O   0  0  0  0  0  0  0  0  0  0  0  0
  -36.5686   61.6365   65.6447 O   0  0  0  0  0  0  0  0  0  0  0  0
  -33.8189   62.5786   62.6530 O   0  0  0  0  0  0  0  0  0  0  0  0
  -36.8095   62.8486   62.2805 O   0  0  0  0  0  0  0  0  0  0  0  0
  -37.3135   62.4055   63.5641 C   0  0  0  0  0  0  0  0  0  0  0  0
  -36.0811   62.0263   64.3979 C   0  0  0  0  0  0  0  0  0  0  0  0
  -35.0909   63.1928   64.6074 C   0  0  0  0  0  0  0  0  0  0  0  0
  -34.6242   63.5996   63.2369 C   0  0  0  0  0  0  0  0  0  0  0  0
  -35.8220   63.9118   62.3582 C   0  0  0  0  0  0  0  0  0  0  0  0
  -37.1935   60.9031   65.5326 H   0  0  0  0  0  0  0  0  0  0  0  0
  -33.0608   62.3953   63.2299 H   0  0  0  0  0  0  0  0  0  0  0  0
  -33.9499   64.9612   61.3058 O   0  0  0  0  0  0  0  0  0  0  0  0
  -35.1412   64.2827   61.0425 C   0  0  0  0  0  0  0  0  0  0  0  0
  -33.5195   65.1956   60.4687 H   0  0  0  0  0  0  0  0  0  0  0  0
  -33.8976   62.8841   65.3629 O   0  0  0  0  0  0  0  0  0  0  0  0
  -33.2713   63.2345   67.8534 O   0  0  0  0  0  0  0  0  0  0  0  0
  -34.1421   65.0971   66.5644 O   0  0  0  0  0  0  0  0  0  0  0  0
  -31.8649   64.3393   66.2261 O   0  0  0  0  0  0  0  0  0  0  0  0
  -33.2593   63.9002   66.5171 S   0  0  0  0  0  0  0  0  0  0  0  0
  -34.1724   62.9412   68.0603 H   0  0  0  0  0  0  0  0  0  0  0  0
  -31.2821   63.5647   66.1935 H   0  0  0  0  0  0  0  0  0  0  0  0
  2  1  1  0  0  0
  2  4  1  0  0  0
  2  5  1  0  0  0
 41 42  1  0  0  0
 41  1  1  0  0  0
 42 46  1  0  0  0
  1 24  1  0  0  0
 23 24  1  0  0  0
 23 25  1  0  0  0
 24 26  1  0  0  0
  3  4  2  0  0  0
 26 27  2  0  0  0
 27 28  1  0  0  0
 43 47  1  0  0  0
 43 51  1  0  0  0
 28 29  1  0  0  0
 56 48  1  0  0  0
 56 60  1  0  0  0
 29 30  1  0  0  0
 57 60  1  0  0  0
 57 61  1  0  0  0
 30 31  1  0  0  0
 44 49  1  0  0  0
 44 52  1  0  0  0
 31 32  1  0  0  0
 45 46  1  0  0  0
 45 50  1  0  0  0
 32 33  1  0  0  0
 53 54  1  0  0  0
 53 55  1  0  0  0
 33 34  1  0  0  0
 34 35  1  0  0  0
 35 36  1  0  0  0
 58 60  1  0  0  0
 36 37  1  0  0  0
 59 60  1  0  0  0
 59 62  1  0  0  0
 37 38  1  0  0  0
 38 39  1  0  0  0
 39 40  1  0  0  0
  4  6  1  0  0  0
  6  7  1  0  0  0
  7  8  1  0  0  0
  8  9  1  0  0  0
  9 10  1  0  0  0
 10 11  1  0  0  0
 11 12  1  0  0  0
 12 13  1  0  0  0
 13 14  1  0  0  0
 14 15  1  0  0  0
 15 16  1  0  0  0
 16 17  1  0  0  0
 17 18  1  0  0  0
 18 19  1  0  0  0
 19 20  1  0  0  0
 20 21  1  0  0  0
 21 22  1  0  0  0
 46 47  1  0  0  0
 47 48  1  0  0  0
 48 49  1  0  0  0
 49 50  1  0  0  0
 50 54  1  0  0  0
M  CHG 1  58  -1
M  END
> <minimizedAffinity>
-8.96594

> <CNNscore>
0.2440237105

> <CNNaffinity>
7.2406325340

> <CNN_VS>
1.7668859959

> <CNNaffinity_variance>
1.0736466646

$$$$
/media/chris/experiments/cd1a-new-docking/inputs/ligands/1onq_ligand.pdb


 62 62  0  0  0  0  0  0  0  0999 V2000
  -41.2854   59.8635   65.2067 C   0  0  0  0  0  0  0  0  0  0  0  0
  -41.9833   60.8356   64.3887 N   0  0  0  0  0  0  0  0  0  0  0  0
  -42.8499   59.5365   62.7429 O   0  0  0  0  0  0  0  0  0  0  0  0
  -42.6845   60.6208   63.2673 C   0  0  0  0  0  0  0  0  0  0  0  0
  -41.9361   61.7700   64.6953 H   0  0  0  0  0  0  0  0  0  0  0  0
  -43.2992   61.8445   62.6552 C   0  0  0  0  0  0  0  0  0  0  0  0
  -42.5716   62.0788   61.3313 C   0  0  0  0  0  0  0  0  0  0  0  0
  -41.5208   60.9926   61.1142 C   0  0  0  0  0  0  0  0  0  0  0  0
  -40.9622   60.8798   59.7165 C   0  0  0  0  0  0  0  0  0  0  0  0
  -39.8631   59.8228   59.7434 C   0  0  0  0  0  0  0  0  0  0  0  0
  -40.3242   58.4733   59.1768 C   0  0  0  0  0  0  0  0  0  0  0  0
  -41.4172   57.7784   60.0092 C   0  0  0  0  0  0  0  0  0  0  0  0
  -40.8833   56.5741   60.8154 C   0  0  0  0  0  0  0  0  0  0  0  0
  -40.8092   56.9129   62.3070 C   0  0  0  0  0  0  0  0  0  0  0  0
  -39.5115   57.5748   62.7543 C   0  0  0  0  0  0  0  0  0  0  0  0
  -38.3200   57.1332   61.9175 C   0  0  0  0  0  0  0  0  0  0  0  0
  -37.2464   58.1944   61.6660 C   0  0  0  0  0  0  0  0  0  0  0  0
  -36.3954   58.3173   62.9228 C   0  0  0  0  0  0  0  0  0  0  0  0
  -35.0835   57.5496   62.9932 C   0  0  0  0  0  0  0  0  0  0  0  0
  -33.9050   58.4338   62.5556 C   0  0  0  0  0  0  0  0  0  0  0  0
  -32.7031   58.4179   63.5180 C   0  0  0  0  0  0  0  0  0  0  0  0
  -33.0997   58.5871   64.9828 C   0  0  0  0  0  0  0  0  0  0  0  0
  -42.2691   58.2974   66.6122 O   0  0  0  0  0  0  0  0  0  0  0  0
  -42.2214   59.6947   66.3911 C   0  0  0  0  0  0  0  0  0  0  0  0
  -41.3813   57.9745   66.8326 H   0  0  0  0  0  0  0  0  0  0  0  0
  -43.5950   60.2698   66.0378 C   0  0  0  0  0  0  0  0  0  0  0  0
  -44.7074   59.5187   65.9692 C   0  0  0  0  0  0  0  0  0  0  0  0
  -46.0422   60.1679   65.6086 C   0  0  0  0  0  0  0  0  0  0  0  0
  -47.2628   59.2828   65.8998 C   0  0  0  0  0  0  0  0  0  0  0  0
  -48.5597   60.0324   66.2565 C   0  0  0  0  0  0  0  0  0  0  0  0
  -49.7792   59.3831   65.5589 C   0  0  0  0  0  0  0  0  0  0  0  0
  -50.6249   60.3386   64.6797 C   0  0  0  0  0  0  0  0  0  0  0  0
  -51.0682   59.7301   63.3284 C   0  0  0  0  0  0  0  0  0  0  0  0
  -50.5132   58.3111   63.0784 C   0  0  0  0  0  0  0  0  0  0  0  0
  -49.6801   58.1905   61.7966 C   0  0  0  0  0  0  0  0  0  0  0  0
  -50.4652   57.9905   60.5020 C   0  0  0  0  0  0  0  0  0  0  0  0
  -49.5858   57.9498   59.2367 C   0  0  0  0  0  0  0  0  0  0  0  0
  -48.5551   56.8116   59.1921 C   0  0  0  0  0  0  0  0  0  0  0  0
  -47.2032   57.3136   58.6770 C   0  0  0  0  0  0  0  0  0  0  0  0
  -47.2144   58.0294   57.3378 C   0  0  0  0  0  0  0  0  0  0  0  0
  -39.8092   60.1958   65.5219 C   0  0  0  0  0  0  0  0  0  0  0  0
  -39.1985   61.2473   64.7315 O   0  0  0  0  0  0  0  0  0  0  0  0
  -37.5536   61.6256   62.4231 O   0  0  0  0  0  0  0  0  0  0  0  0
  -35.6767   64.4368   64.8670 O   0  0  0  0  0  0  0  0  0  0  0  0
  -37.3050   62.1336   65.9622 O   0  0  0  0  0  0  0  0  0  0  0  0
  -37.7390   61.4695   64.7504 C   0  0  0  0  0  0  0  0  0  0  0  0
  -37.1652   62.2895   63.5860 C   0  0  0  0  0  0  0  0  0  0  0  0
  -35.6239   62.3879   63.5966 C   0  0  0  0  0  0  0  0  0  0  0  0
  -35.2553   63.0751   64.8824 C   0  0  0  0  0  0  0  0  0  0  0  0
  -35.8687   62.3328   66.0558 C   0  0  0  0  0  0  0  0  0  0  0  0
  -38.5207   61.5544   62.3992 H   0  0  0  0  0  0  0  0  0  0  0  0
  -35.2737   64.8914   64.1107 H   0  0  0  0  0  0  0  0  0  0  0  0
  -36.4002   64.0713   67.6077 O   0  0  0  0  0  0  0  0  0  0  0  0
  -35.3916   63.1824   67.2317 C   0  0  0  0  0  0  0  0  0  0  0  0
  -36.0949   64.6097   68.3546 H   0  0  0  0  0  0  0  0  0  0  0  0
  -35.0310   63.1727   62.5372 O   0  0  0  0  0  0  0  0  0  0  0  0
  -33.1422   63.6561   60.8295 O   0  0  0  0  0  0  0  0  0  0  0  0
  -32.9080   61.8055   62.3818 O   0  0  0  0  0  0  0  0  0  0  0  0
  -32.6265   64.0862   63.1523 O   0  0  0  0  0  0  0  0  0  0  0  0
  -33.3951   63.2033   62.2295 S   0  0  0  0  0  0  0  0  0  0  0  0
  -33.6353   63.0921   60.2133 H   0  0  0  0  0  0  0  0  0  0  0  0
  -32.9379   65.0001   63.0595 H   0  0  0  0  0  0  0  0  0  0  0  0
  2  1  1  0  0  0
  2  4  1  0  0  0
  2  5  1  0  0  0
 41 42  1  0  0  0
 41  1  1  0  0  0
 42 46  1  0  0  0
  1 24  1  0  0  0
 23 24  1  0  0  0
 23 25  1  0  0  0
 24 26  1  0  0  0
  3  4  2  0  0  0
 26 27  2  0  0  0
 27 28  1  0  0  0
 43 47  1  0  0  0
 43 51  1  0  0  0
 28 29  1  0  0  0
 56 48  1  0  0  0
 56 60  1  0  0  0
 29 30  1  0  0  0
 57 60  1  0  0  0
 57 61  1  0  0  0
 30 31  1  0  0  0
 44 49  1  0  0  0
 44 52  1  0  0  0
 31 32  1  0  0  0
 45 46  1  0  0  0
 45 50  1  0  0  0
 32 33  1  0  0  0
 53 54  1  0  0  0
 53 55  1  0  0  0
 33 34  1  0  0  0
 34 35  1  0  0  0
 35 36  1  0  0  0
 58 60  1  0  0  0
 36 37  1  0  0  0
 59 60  1  0  0  0
 59 62  1  0  0  0
 37 38  1  0  0  0
 38 39  1  0  0  0
 39 40  1  0  0  0
  4  6  1  0  0  0
  6  7  1  0  0  0
  7  8  1  0  0  0
  8  9  1  0  0  0
  9 10  1  0  0  0
 10 11  1  0  0  0
 11 12  1  0  0  0
 12 13  1  0  0  0
 13 14  1  0  0  0
 14 15  1  0  0  0
 15 16  1  0  0  0
 16 17  1  0  0  0
 17 18  1  0  0  0
 18 19  1  0  0  0
 19 20  1  0  0  0
 20 21  1  0  0  0
 21 22  1  0  0  0
 46 47  1  0  0  0
 47 48  1  0  0  0
 48 49  1  0  0  0
 49 50  1  0  0  0
 50 54  1  0  0  0
M  CHG 1  58  -1
M  END
> <minimizedAffinity>
-9.87839

> <CNNscore>
0.2232466787

> <CNNaffinity>
7.1172990799

> <CNN_VS>
1.5889133215

> <CNNaffinity_variance>
1.9120419025

$$$$
/media/chris/experiments/cd1a-new-docking/inputs/ligands/1onq_ligand.pdb


 62 62  0  0  0  0  0  0  0  0999 V2000
  -41.2979   59.6731   63.9907 C   0  0  0  0  0  0  0  0  0  0  0  0
  -42.6012   60.2675   64.2123 N   0  0  0  0  0  0  0  0  0  0  0  0
  -42.7395   61.7578   62.5072 O   0  0  0  0  0  0  0  0  0  0  0  0
  -43.2070   61.2224   63.4935 C   0  0  0  0  0  0  0  0  0  0  0  0
  -43.1038   59.9273   64.9875 H   0  0  0  0  0  0  0  0  0  0  0  0
  -44.5688   61.6200   63.9806 C   0  0  0  0  0  0  0  0  0  0  0  0
  -45.0724   60.4666   64.8483 C   0  0  0  0  0  0  0  0  0  0  0  0
  -46.5989   60.4656   64.8799 C   0  0  0  0  0  0  0  0  0  0  0  0
  -47.2748   59.2773   64.2400 C   0  0  0  0  0  0  0  0  0  0  0  0
  -47.9562   58.4823   65.3489 C   0  0  0  0  0  0  0  0  0  0  0  0
  -49.4233   58.1618   65.0333 C   0  0  0  0  0  0  0  0  0  0  0  0
  -50.4255   59.2060   65.5584 C   0  0  0  0  0  0  0  0  0  0  0  0
  -50.7862   60.2754   64.5040 C   0  0  0  0  0  0  0  0  0  0  0  0
  -50.9944   59.6309   63.1306 C   0  0  0  0  0  0  0  0  0  0  0  0
  -50.0972   60.1693   62.0228 C   0  0  0  0  0  0  0  0  0  0  0  0
  -49.4543   59.0563   61.2085 C   0  0  0  0  0  0  0  0  0  0  0  0
  -49.9573   57.6394   61.4940 C   0  0  0  0  0  0  0  0  0  0  0  0
  -49.4278   56.7179   60.4035 C   0  0  0  0  0  0  0  0  0  0  0  0
  -48.6425   57.3273   59.2515 C   0  0  0  0  0  0  0  0  0  0  0  0
  -47.5373   56.3721   58.7734 C   0  0  0  0  0  0  0  0  0  0  0  0
  -47.0075   56.6662   57.3579 C   0  0  0  0  0  0  0  0  0  0  0  0
  -46.9722   58.1556   57.0234 C   0  0  0  0  0  0  0  0  0  0  0  0
  -40.4539   57.8408   65.1423 O   0  0  0  0  0  0  0  0  0  0  0  0
  -41.5421   58.2094   64.3155 C   0  0  0  0  0  0  0  0  0  0  0  0
  -40.4676   58.3749   65.9520 H   0  0  0  0  0  0  0  0  0  0  0  0
  -41.5789   57.4011   63.0163 C   0  0  0  0  0  0  0  0  0  0  0  0
  -41.5914   57.9716   61.7995 C   0  0  0  0  0  0  0  0  0  0  0  0
  -41.6294   57.0950   60.5492 C   0  0  0  0  0  0  0  0  0  0  0  0
  -40.6781   57.5580   59.4361 C   0  0  0  0  0  0  0  0  0  0  0  0
  -40.0370   58.9431   59.6407 C   0  0  0  0  0  0  0  0  0  0  0  0
  -38.5531   58.9319   59.2010 C   0  0  0  0  0  0  0  0  0  0  0  0
  -37.5389   58.5387   60.3047 C   0  0  0  0  0  0  0  0  0  0  0  0
  -38.0476   58.7759   61.7462 C   0  0  0  0  0  0  0  0  0  0  0  0
  -37.7833   57.5888   62.6976 C   0  0  0  0  0  0  0  0  0  0  0  0
  -37.0716   57.9849   63.9968 C   0  0  0  0  0  0  0  0  0  0  0  0
  -35.7073   58.6526   63.8382 C   0  0  0  0  0  0  0  0  0  0  0  0
  -34.6202   58.0846   64.7720 C   0  0  0  0  0  0  0  0  0  0  0  0
  -33.2399   58.7474   64.6490 C   0  0  0  0  0  0  0  0  0  0  0  0
  -32.6439   58.5227   63.2565 C   0  0  0  0  0  0  0  0  0  0  0  0
  -31.4556   59.3909   62.8824 C   0  0  0  0  0  0  0  0  0  0  0  0
  -40.1194   60.3641   64.7135 C   0  0  0  0  0  0  0  0  0  0  0  0
  -39.3345   61.2971   63.9281 O   0  0  0  0  0  0  0  0  0  0  0  0
  -37.3584   62.1839   62.0611 O   0  0  0  0  0  0  0  0  0  0  0  0
  -36.1154   64.5205   65.2850 O   0  0  0  0  0  0  0  0  0  0  0  0
  -37.7390   61.9893   65.6195 O   0  0  0  0  0  0  0  0  0  0  0  0
  -37.9177   61.5632   64.2467 C   0  0  0  0  0  0  0  0  0  0  0  0
  -37.2165   62.6178   63.3785 C   0  0  0  0  0  0  0  0  0  0  0  0
  -35.7091   62.7672   63.6802 C   0  0  0  0  0  0  0  0  0  0  0  0
  -35.6087   63.1988   65.1172 C   0  0  0  0  0  0  0  0  0  0  0  0
  -36.3558   62.2172   66.0018 C   0  0  0  0  0  0  0  0  0  0  0  0
  -38.3006   62.0843   61.8533 H   0  0  0  0  0  0  0  0  0  0  0  0
  -35.6247   65.1302   64.7117 H   0  0  0  0  0  0  0  0  0  0  0  0
  -34.7938   63.1566   67.5481 O   0  0  0  0  0  0  0  0  0  0  0  0
  -36.1417   62.8335   67.3825 C   0  0  0  0  0  0  0  0  0  0  0  0
  -34.6604   63.5478   68.4257 H   0  0  0  0  0  0  0  0  0  0  0  0
  -35.0041   63.7671   62.9101 O   0  0  0  0  0  0  0  0  0  0  0  0
  -33.4940   63.8477   60.8052 O   0  0  0  0  0  0  0  0  0  0  0  0
  -33.1855   62.0743   62.4327 O   0  0  0  0  0  0  0  0  0  0  0  0
  -32.4181   64.3214   62.9181 O   0  0  0  0  0  0  0  0  0  0  0  0
  -33.4905   63.5207   62.2619 S   0  0  0  0  0  0  0  0  0  0  0  0
  -34.1871   63.3350   60.3604 H   0  0  0  0  0  0  0  0  0  0  0  0
  -32.6091   65.2664   62.8114 H   0  0  0  0  0  0  0  0  0  0  0  0
  2  1  1  0  0  0
  2  4  1  0  0  0
  2  5  1  0  0  0
 41 42  1  0  0  0
 41  1  1  0  0  0
 42 46  1  0  0  0
  1 24  1  0  0  0
 23 24  1  0  0  0
 23 25  1  0  0  0
 24 26  1  0  0  0
  3  4  2  0  0  0
 26 27  2  0  0  0
 27 28  1  0  0  0
 43 47  1  0  0  0
 43 51  1  0  0  0
 28 29  1  0  0  0
 56 48  1  0  0  0
 56 60  1  0  0  0
 29 30  1  0  0  0
 57 60  1  0  0  0
 57 61  1  0  0  0
 30 31  1  0  0  0
 44 49  1  0  0  0
 44 52  1  0  0  0
 31 32  1  0  0  0
 45 46  1  0  0  0
 45 50  1  0  0  0
 32 33  1  0  0  0
 53 54  1  0  0  0
 53 55  1  0  0  0
 33 34  1  0  0  0
 34 35  1  0  0  0
 35 36  1  0  0  0
 58 60  1  0  0  0
 36 37  1  0  0  0
 59 60  1  0  0  0
 59 62  1  0  0  0
 37 38  1  0  0  0
 38 39  1  0  0  0
 39 40  1  0  0  0
  4  6  1  0  0  0
  6  7  1  0  0  0
  7  8  1  0  0  0
  8  9  1  0  0  0
  9 10  1  0  0  0
 10 11  1  0  0  0
 11 12  1  0  0  0
 12 13  1  0  0  0
 13 14  1  0  0  0
 14 15  1  0  0  0
 15 16  1  0  0  0
 16 17  1  0  0  0
 17 18  1  0  0  0
 18 19  1  0  0  0
 19 20  1  0  0  0
 20 21  1  0  0  0
 21 22  1  0  0  0
 46 47  1  0  0  0
 47 48  1  0  0  0
 48 49  1  0  0  0
 49 50  1  0  0  0
 50 54  1  0  0  0
M  CHG 1  58  -1
M  END
> <minimizedAffinity>
-9.61060

> <CNNscore>
0.1961508542

> <CNNaffinity>
7.0207901001

> <CNN_VS>
1.3771339655

> <CNNaffinity_variance>
1.5619447231

$$$$
/media/chris/experiments/cd1a-new-docking/inputs/ligands/1onq_ligand.pdb


 62 62  0  0  0  0  0  0  0  0999 V2000
  -36.7969   59.4640   63.4295 C   0  0  0  0  0  0  0  0  0  0  0  0
  -38.2139   59.5923   63.7067 N   0  0  0  0  0  0  0  0  0  0  0  0
  -38.3310   61.6602   64.6327 O   0  0  0  0  0  0  0  0  0  0  0  0
  -38.8567   60.6287   64.2618 C   0  0  0  0  0  0  0  0  0  0  0  0
  -38.7736   58.8223   63.4559 H   0  0  0  0  0  0  0  0  0  0  0  0
  -40.3395   60.4556   64.4073 C   0  0  0  0  0  0  0  0  0  0  0  0
  -40.9287   60.5666   63.0011 C   0  0  0  0  0  0  0  0  0  0  0  0
  -42.2995   61.2364   63.0613 C   0  0  0  0  0  0  0  0  0  0  0  0
  -43.1322   60.9347   64.2836 C   0  0  0  0  0  0  0  0  0  0  0  0
  -44.5635   61.3681   63.9846 C   0  0  0  0  0  0  0  0  0  0  0  0
  -45.5784   60.7897   64.9797 C   0  0  0  0  0  0  0  0  0  0  0  0
  -46.9482   60.4540   64.3624 C   0  0  0  0  0  0  0  0  0  0  0  0
  -48.1065   60.5573   65.3789 C   0  0  0  0  0  0  0  0  0  0  0  0
  -49.2987   59.7090   64.9270 C   0  0  0  0  0  0  0  0  0  0  0  0
  -50.3151   60.4372   64.0559 C   0  0  0  0  0  0  0  0  0  0  0  0
  -51.1779   59.4772   63.2502 C   0  0  0  0  0  0  0  0  0  0  0  0
  -50.4767   58.2205   62.7293 C   0  0  0  0  0  0  0  0  0  0  0  0
  -50.9198   57.9902   61.2908 C   0  0  0  0  0  0  0  0  0  0  0  0
  -49.9178   57.4112   60.3029 C   0  0  0  0  0  0  0  0  0  0  0  0
  -49.5640   58.4366   59.2140 C   0  0  0  0  0  0  0  0  0  0  0  0
  -48.1767   58.2378   58.5763 C   0  0  0  0  0  0  0  0  0  0  0  0
  -47.4213   57.0346   59.1361 C   0  0  0  0  0  0  0  0  0  0  0  0
  -35.4434   58.3188   61.9287 O   0  0  0  0  0  0  0  0  0  0  0  0
  -36.7534   58.2918   62.4643 C   0  0  0  0  0  0  0  0  0  0  0  0
  -34.7993   58.1941   62.6433 H   0  0  0  0  0  0  0  0  0  0  0  0
  -37.8216   58.4837   61.3852 C   0  0  0  0  0  0  0  0  0  0  0  0
  -37.5261   58.6606   60.0861 C   0  0  0  0  0  0  0  0  0  0  0  0
  -38.6506   58.8464   59.0691 C   0  0  0  0  0  0  0  0  0  0  0  0
  -39.8900   59.5546   59.6351 C   0  0  0  0  0  0  0  0  0  0  0  0
  -41.1676   58.6987   59.7165 C   0  0  0  0  0  0  0  0  0  0  0  0
  -40.8216   57.1906   59.6800 C   0  0  0  0  0  0  0  0  0  0  0  0
  -41.4194   56.3464   60.8338 C   0  0  0  0  0  0  0  0  0  0  0  0
  -41.0574   56.8595   62.2475 C   0  0  0  0  0  0  0  0  0  0  0  0
  -42.2877   57.2301   63.1038 C   0  0  0  0  0  0  0  0  0  0  0  0
  -42.2982   56.5708   64.4882 C   0  0  0  0  0  0  0  0  0  0  0  0
  -42.2029   57.5170   65.6832 C   0  0  0  0  0  0  0  0  0  0  0  0
  -43.5428   57.7427   66.4111 C   0  0  0  0  0  0  0  0  0  0  0  0
  -44.7989   57.5032   65.5598 C   0  0  0  0  0  0  0  0  0  0  0  0
  -46.0402   57.3469   66.4428 C   0  0  0  0  0  0  0  0  0  0  0  0
  -46.1669   58.3138   67.6068 C   0  0  0  0  0  0  0  0  0  0  0  0
  -35.8803   59.3836   64.6713 C   0  0  0  0  0  0  0  0  0  0  0  0
  -34.5408   59.9198   64.5241 O   0  0  0  0  0  0  0  0  0  0  0  0
  -35.4436   62.3361   65.7585 O   0  0  0  0  0  0  0  0  0  0  0  0
  -31.7192   63.7451   64.5168 O   0  0  0  0  0  0  0  0  0  0  0  0
  -33.0908   61.3737   63.2322 O   0  0  0  0  0  0  0  0  0  0  0  0
  -34.3149   61.2818   64.0008 C   0  0  0  0  0  0  0  0  0  0  0  0
  -34.2471   62.4046   65.0460 C   0  0  0  0  0  0  0  0  0  0  0  0
  -34.1280   63.8169   64.4325 C   0  0  0  0  0  0  0  0  0  0  0  0
  -32.8456   63.8275   63.6472 C   0  0  0  0  0  0  0  0  0  0  0  0
  -32.8441   62.6823   62.6508 C   0  0  0  0  0  0  0  0  0  0  0  0
  -35.5357   61.4542   66.1518 H   0  0  0  0  0  0  0  0  0  0  0  0
  -31.7401   64.4850   65.1439 H   0  0  0  0  0  0  0  0  0  0  0  0
  -31.6257   63.6448   60.8334 O   0  0  0  0  0  0  0  0  0  0  0  0
  -31.4829   62.8662   61.9834 C   0  0  0  0  0  0  0  0  0  0  0  0
  -30.7599   63.7602   60.4114 H   0  0  0  0  0  0  0  0  0  0  0  0
  -34.0325   64.9110   65.3727 O   0  0  0  0  0  0  0  0  0  0  0  0
  -33.2677   63.4716   67.3878 O   0  0  0  0  0  0  0  0  0  0  0  0
  -35.4575   64.5167   67.4256 O   0  0  0  0  0  0  0  0  0  0  0  0
  -33.4643   65.8496   67.7791 O   0  0  0  0  0  0  0  0  0  0  0  0
  -34.0363   64.6987   67.0240 S   0  0  0  0  0  0  0  0  0  0  0  0
  -33.6263   62.7106   66.9050 H   0  0  0  0  0  0  0  0  0  0  0  0
  -32.5372   65.9755   67.5232 H   0  0  0  0  0  0  0  0  0  0  0  0
  2  1  1  0  0  0
  2  4  1  0  0  0
  2  5  1  0  0  0
 41 42  1  0  0  0
 41  1  1  0  0  0
 42 46  1  0  0  0
  1 24  1  0  0  0
 23 24  1  0  0  0
 23 25  1  0  0  0
 24 26  1  0  0  0
  3  4  2  0  0  0
 26 27  2  0  0  0
 27 28  1  0  0  0
 43 47  1  0  0  0
 43 51  1  0  0  0
 28 29  1  0  0  0
 56 48  1  0  0  0
 56 60  1  0  0  0
 29 30  1  0  0  0
 57 60  1  0  0  0
 57 61  1  0  0  0
 30 31  1  0  0  0
 44 49  1  0  0  0
 44 52  1  0  0  0
 31 32  1  0  0  0
 45 46  1  0  0  0
 45 50  1  0  0  0
 32 33  1  0  0  0
 53 54  1  0  0  0
 53 55  1  0  0  0
 33 34  1  0  0  0
 34 35  1  0  0  0
 35 36  1  0  0  0
 58 60  1  0  0  0
 36 37  1  0  0  0
 59 60  1  0  0  0
 59 62  1  0  0  0
 37 38  1  0  0  0
 38 39  1  0  0  0
 39 40  1  0  0  0
  4  6  1  0  0  0
  6  7  1  0  0  0
  7  8  1  0  0  0
  8  9  1  0  0  0
  9 10  1  0  0  0
 10 11  1  0  0  0
 11 12  1  0  0  0
 12 13  1  0  0  0
 13 14  1  0  0  0
 14 15  1  0  0  0
 15 16  1  0  0  0
 16 17  1  0  0  0
 17 18  1  0  0  0
 18 19  1  0  0  0
 19 20  1  0  0  0
 20 21  1  0  0  0
 21 22  1  0  0  0
 46 47  1  0  0  0
 47 48  1  0  0  0
 48 49  1  0  0  0
 49 50  1  0  0  0
 50 54  1  0  0  0
M  CHG 1  58  -1
M  END
> <minimizedAffinity>
-9.14310

> <CNNscore>
0.1585852504

> <CNNaffinity>
7.0398788452

> <CNN_VS>
1.1164209843

> <CNNaffinity_variance>
0.9895906448

$$$$
/media/chris/experiments/cd1a-new-docking/inputs/ligands/1onq_ligand.pdb


 62 62  0  0  0  0  0  0  0  0999 V2000
  -40.0974   58.4667   59.8853 C   0  0  0  0  0  0  0  0  0  0  0  0
  -40.3030   57.7216   61.1116 N   0  0  0  0  0  0  0  0  0  0  0  0
  -41.7664   56.1178   60.4530 O   0  0  0  0  0  0  0  0  0  0  0  0
  -41.0840   56.6504   61.3066 C   0  0  0  0  0  0  0  0  0  0  0  0
  -39.8072   58.0426   61.8992 H   0  0  0  0  0  0  0  0  0  0  0  0
  -41.0737   56.0991   62.7016 C   0  0  0  0  0  0  0  0  0  0  0  0
  -42.1107   56.8983   63.4909 C   0  0  0  0  0  0  0  0  0  0  0  0
  -41.7913   56.8371   64.9826 C   0  0  0  0  0  0  0  0  0  0  0  0
  -42.7737   57.5238   65.9001 C   0  0  0  0  0  0  0  0  0  0  0  0
  -44.1760   57.2261   65.3796 C   0  0  0  0  0  0  0  0  0  0  0  0
  -45.2737   57.6043   66.3830 C   0  0  0  0  0  0  0  0  0  0  0  0
  -46.7022   57.2793   65.9095 C   0  0  0  0  0  0  0  0  0  0  0  0
  -47.5019   58.5375   65.5061 C   0  0  0  0  0  0  0  0  0  0  0  0
  -48.7849   58.1477   64.7664 C   0  0  0  0  0  0  0  0  0  0  0  0
  -49.9466   59.1196   64.9340 C   0  0  0  0  0  0  0  0  0  0  0  0
  -50.8355   59.1749   63.7004 C   0  0  0  0  0  0  0  0  0  0  0  0
  -50.2646   59.9253   62.4949 C   0  0  0  0  0  0  0  0  0  0  0  0
  -49.9338   58.9060   61.4131 C   0  0  0  0  0  0  0  0  0  0  0  0
  -49.3348   59.3998   60.1045 C   0  0  0  0  0  0  0  0  0  0  0  0
  -49.2335   58.2580   59.0807 C   0  0  0  0  0  0  0  0  0  0  0  0
  -47.7962   57.7915   58.7846 C   0  0  0  0  0  0  0  0  0  0  0  0
  -47.3711   58.0259   57.3370 C   0  0  0  0  0  0  0  0  0  0  0  0
  -38.1159   58.6637   58.6893 O   0  0  0  0  0  0  0  0  0  0  0  0
  -38.6382   58.8762   59.9876 C   0  0  0  0  0  0  0  0  0  0  0  0
  -38.5837   59.2301   58.0558 H   0  0  0  0  0  0  0  0  0  0  0  0
  -37.9409   58.0095   61.0388 C   0  0  0  0  0  0  0  0  0  0  0  0
  -36.9089   58.4468   61.7804 C   0  0  0  0  0  0  0  0  0  0  0  0
  -36.2653   57.5194   62.8095 C   0  0  0  0  0  0  0  0  0  0  0  0
  -34.7558   57.7394   62.9865 C   0  0  0  0  0  0  0  0  0  0  0  0
  -34.3088   58.1961   64.3876 C   0  0  0  0  0  0  0  0  0  0  0  0
  -33.0621   59.1087   64.2960 C   0  0  0  0  0  0  0  0  0  0  0  0
  -33.2697   60.4373   63.5260 C   0  0  0  0  0  0  0  0  0  0  0  0
  -34.4694   61.2773   64.0239 C   0  0  0  0  0  0  0  0  0  0  0  0
  -34.3614   61.6888   65.5083 C   0  0  0  0  0  0  0  0  0  0  0  0
  -34.6402   63.1757   65.7590 C   0  0  0  0  0  0  0  0  0  0  0  0
  -33.4143   64.0808   65.8604 C   0  0  0  0  0  0  0  0  0  0  0  0
  -33.3123   65.1252   64.7312 C   0  0  0  0  0  0  0  0  0  0  0  0
  -34.3293   64.9590   63.5919 C   0  0  0  0  0  0  0  0  0  0  0  0
  -33.6534   65.1056   62.2256 C   0  0  0  0  0  0  0  0  0  0  0  0
  -33.2964   63.8163   61.5071 C   0  0  0  0  0  0  0  0  0  0  0  0
  -41.1227   59.5897   59.6088 C   0  0  0  0  0  0  0  0  0  0  0  0
  -41.2316   60.6297   60.6137 O   0  0  0  0  0  0  0  0  0  0  0  0
  -39.3411   60.5003   62.7553 O   0  0  0  0  0  0  0  0  0  0  0  0
  -42.4282   62.3149   64.8942 O   0  0  0  0  0  0  0  0  0  0  0  0
  -42.8987   60.7072   62.3744 O   0  0  0  0  0  0  0  0  0  0  0  0
  -41.5533   60.3066   62.0179 C   0  0  0  0  0  0  0  0  0  0  0  0
  -40.6303   60.9197   63.0809 C   0  0  0  0  0  0  0  0  0  0  0  0
  -40.9438   60.4520   64.5191 C   0  0  0  0  0  0  0  0  0  0  0  0
  -42.3519   60.8942   64.8075 C   0  0  0  0  0  0  0  0  0  0  0  0
  -43.2859   60.3673   63.7331 C   0  0  0  0  0  0  0  0  0  0  0  0
  -39.1263   60.7857   61.8535 H   0  0  0  0  0  0  0  0  0  0  0  0
  -41.8247   62.6296   65.5855 H   0  0  0  0  0  0  0  0  0  0  0  0
  -44.7378   60.7863   65.5851 O   0  0  0  0  0  0  0  0  0  0  0  0
  -44.6278   60.9267   64.2006 C   0  0  0  0  0  0  0  0  0  0  0  0
  -45.5908   61.1423   65.8795 H   0  0  0  0  0  0  0  0  0  0  0  0
  -40.1222   61.0202   65.5641 O   0  0  0  0  0  0  0  0  0  0  0  0
  -37.8517   61.9415   64.7194 O   0  0  0  0  0  0  0  0  0  0  0  0
  -38.1293   59.5521   65.0406 O   0  0  0  0  0  0  0  0  0  0  0  0
  -37.8720   61.0176   66.9538 O   0  0  0  0  0  0  0  0  0  0  0  0
  -38.4622   60.8941   65.5907 S   0  0  0  0  0  0  0  0  0  0  0  0
  -38.2245   61.8766   63.8263 H   0  0  0  0  0  0  0  0  0  0  0  0
  -38.0844   61.8903   67.3203 H   0  0  0  0  0  0  0  0  0  0  0  0
  2  1  1  0  0  0
  2  4  1  0  0  0
  2  5  1  0  0  0
 41 42  1  0  0  0
 41  1  1  0  0  0
 42 46  1  0  0  0
  1 24  1  0  0  0
 23 24  1  0  0  0
 23 25  1  0  0  0
 24 26  1  0  0  0
  3  4  2  0  0  0
 26 27  2  0  0  0
 27 28  1  0  0  0
 43 47  1  0  0  0
 43 51  1  0  0  0
 28 29  1  0  0  0
 56 48  1  0  0  0
 56 60  1  0  0  0
 29 30  1  0  0  0
 57 60  1  0  0  0
 57 61  1  0  0  0
 30 31  1  0  0  0
 44 49  1  0  0  0
 44 52  1  0  0  0
 31 32  1  0  0  0
 45 46  1  0  0  0
 45 50  1  0  0  0
 32 33  1  0  0  0
 53 54  1  0  0  0
 53 55  1  0  0  0
 33 34  1  0  0  0
 34 35  1  0  0  0
 35 36  1  0  0  0
 58 60  1  0  0  0
 36 37  1  0  0  0
 59 60  1  0  0  0
 59 62  1  0  0  0
 37 38  1  0  0  0
 38 39  1  0  0  0
 39 40  1  0  0  0
  4  6  1  0  0  0
  6  7  1  0  0  0
  7  8  1  0  0  0
  8  9  1  0  0  0
  9 10  1  0  0  0
 10 11  1  0  0  0
 11 12  1  0  0  0
 12 13  1  0  0  0
 13 14  1  0  0  0
 14 15  1  0  0  0
 15 16  1  0  0  0
 16 17  1  0  0  0
 17 18  1  0  0  0
 18 19  1  0  0  0
 19 20  1  0  0  0
 20 21  1  0  0  0
 21 22  1  0  0  0
 46 47  1  0  0  0
 47 48  1  0  0  0
 48 49  1  0  0  0
 49 50  1  0  0  0
 50 54  1  0  0  0
M  CHG 1  58  -1
M  END
> <minimizedAffinity>
-8.41843

> <CNNscore>
0.1485261917

> <CNNaffinity>
6.9820108414

> <CNN_VS>
1.0370115042

> <CNNaffinity_variance>
2.1630554199

$$$$
/media/chris/experiments/cd1a-new-docking/inputs/ligands/1onq_ligand.pdb


 62 62  0  0  0  0  0  0  0  0999 V2000
  -42.5212   58.2296   64.4451 C   0  0  0  0  0  0  0  0  0  0  0  0
  -43.5586   59.0253   65.0712 N   0  0  0  0  0  0  0  0  0  0  0  0
  -44.4905   57.5412   66.5122 O   0  0  0  0  0  0  0  0  0  0  0  0
  -44.4315   58.6494   66.0158 C   0  0  0  0  0  0  0  0  0  0  0  0
  -43.6308   59.9578   64.7642 H   0  0  0  0  0  0  0  0  0  0  0  0
  -45.3827   59.7179   66.4667 C   0  0  0  0  0  0  0  0  0  0  0  0
  -46.1037   60.2133   65.2130 C   0  0  0  0  0  0  0  0  0  0  0  0
  -47.0392   59.1278   64.6860 C   0  0  0  0  0  0  0  0  0  0  0  0
  -47.9859   58.5216   65.6934 C   0  0  0  0  0  0  0  0  0  0  0  0
  -48.9564   59.6143   66.1294 C   0  0  0  0  0  0  0  0  0  0  0  0
  -50.4153   59.2820   65.7888 C   0  0  0  0  0  0  0  0  0  0  0  0
  -51.1376   60.3700   64.9734 C   0  0  0  0  0  0  0  0  0  0  0  0
  -51.1772   60.0599   63.4609 C   0  0  0  0  0  0  0  0  0  0  0  0
  -49.8761   60.5018   62.7848 C   0  0  0  0  0  0  0  0  0  0  0  0
  -49.2906   59.5005   61.7965 C   0  0  0  0  0  0  0  0  0  0  0  0
  -49.6468   58.0642   62.1504 C   0  0  0  0  0  0  0  0  0  0  0  0
  -50.3239   57.2491   61.0463 C   0  0  0  0  0  0  0  0  0  0  0  0
  -50.3824   58.1069   59.7895 C   0  0  0  0  0  0  0  0  0  0  0  0
  -49.5236   57.7127   58.5969 C   0  0  0  0  0  0  0  0  0  0  0  0
  -48.0321   57.9293   58.8979 C   0  0  0  0  0  0  0  0  0  0  0  0
  -47.0779   57.3992   57.8119 C   0  0  0  0  0  0  0  0  0  0  0  0
  -46.5900   58.4840   56.8545 C   0  0  0  0  0  0  0  0  0  0  0  0
  -41.3060   59.8932   65.5182 O   0  0  0  0  0  0  0  0  0  0  0  0
  -41.3204   58.4892   65.3386 C   0  0  0  0  0  0  0  0  0  0  0  0
  -42.1239   60.1711   65.9597 H   0  0  0  0  0  0  0  0  0  0  0  0
  -40.0535   57.9836   64.6446 C   0  0  0  0  0  0  0  0  0  0  0  0
  -38.8169   58.3565   65.0163 C   0  0  0  0  0  0  0  0  0  0  0  0
  -37.6013   57.8077   64.2719 C   0  0  0  0  0  0  0  0  0  0  0  0
  -36.4307   57.4256   65.1894 C   0  0  0  0  0  0  0  0  0  0  0  0
  -35.0519   57.3382   64.5093 C   0  0  0  0  0  0  0  0  0  0  0  0
  -35.1516   57.7247   63.0139 C   0  0  0  0  0  0  0  0  0  0  0  0
  -33.9462   58.5221   62.4548 C   0  0  0  0  0  0  0  0  0  0  0  0
  -32.7092   58.5345   63.3835 C   0  0  0  0  0  0  0  0  0  0  0  0
  -31.6497   59.5854   62.9868 C   0  0  0  0  0  0  0  0  0  0  0  0
  -32.1693   60.6491   62.0122 C   0  0  0  0  0  0  0  0  0  0  0  0
  -31.2945   61.8895   61.8434 C   0  0  0  0  0  0  0  0  0  0  0  0
  -32.0797   63.1635   61.4738 C   0  0  0  0  0  0  0  0  0  0  0  0
  -32.1409   64.2364   62.5714 C   0  0  0  0  0  0  0  0  0  0  0  0
  -31.9489   63.6161   63.9582 C   0  0  0  0  0  0  0  0  0  0  0  0
  -32.6341   64.3224   65.1147 C   0  0  0  0  0  0  0  0  0  0  0  0
  -42.3293   58.4601   62.9289 C   0  0  0  0  0  0  0  0  0  0  0  0
  -42.1303   59.8317   62.5018 O   0  0  0  0  0  0  0  0  0  0  0  0
  -39.8854   61.2820   63.5187 O   0  0  0  0  0  0  0  0  0  0  0  0
  -37.7486   58.6520   61.0865 O   0  0  0  0  0  0  0  0  0  0  0  0
  -40.6706   59.2980   60.6391 O   0  0  0  0  0  0  0  0  0  0  0  0
  -40.9422   60.2247   61.7185 C   0  0  0  0  0  0  0  0  0  0  0  0
  -39.6298   60.3606   62.5039 C   0  0  0  0  0  0  0  0  0  0  0  0
  -38.4511   60.8873   61.6562 C   0  0  0  0  0  0  0  0  0  0  0  0
  -38.2402   59.8814   60.5585 C   0  0  0  0  0  0  0  0  0  0  0  0
  -39.5394   59.6645   59.8039 C   0  0  0  0  0  0  0  0  0  0  0  0
  -40.6243   60.9673   64.0625 H   0  0  0  0  0  0  0  0  0  0  0  0
  -36.9196   58.8135   61.5637 H   0  0  0  0  0  0  0  0  0  0  0  0
  -37.8374   58.9296   58.2950 O   0  0  0  0  0  0  0  0  0  0  0  0
  -39.1155   58.6260   58.7676 C   0  0  0  0  0  0  0  0  0  0  0  0
  -37.5705   58.2687   57.6371 H   0  0  0  0  0  0  0  0  0  0  0  0
  -37.1828   61.0086   62.3393 O   0  0  0  0  0  0  0  0  0  0  0  0
  -35.1293   62.3135   63.2324 O   0  0  0  0  0  0  0  0  0  0  0  0
  -37.3367   62.8082   64.1108 O   0  0  0  0  0  0  0  0  0  0  0  0
  -36.7053   63.5724   61.8991 O   0  0  0  0  0  0  0  0  0  0  0  0
  -36.5731   62.4597   62.8821 S   0  0  0  0  0  0  0  0  0  0  0  0
  -35.0233   61.5923   63.8725 H   0  0  0  0  0  0  0  0  0  0  0  0
  -36.2101   63.3533   61.0943 H   0  0  0  0  0  0  0  0  0  0  0  0
  2  1  1  0  0  0
  2  4  1  0  0  0
  2  5  1  0  0  0
 41 42  1  0  0  0
 41  1  1  0  0  0
 42 46  1  0  0  0
  1 24  1  0  0  0
 23 24  1  0  0  0
 23 25  1  0  0  0
 24 26  1  0  0  0
  3  4  2  0  0  0
 26 27  2  0  0  0
 27 28  1  0  0  0
 43 47  1  0  0  0
 43 51  1  0  0  0
 28 29  1  0  0  0
 56 48  1  0  0  0
 56 60  1  0  0  0
 29 30  1  0  0  0
 57 60  1  0  0  0
 57 61  1  0  0  0
 30 31  1  0  0  0
 44 49  1  0  0  0
 44 52  1  0  0  0
 31 32  1  0  0  0
 45 46  1  0  0  0
 45 50  1  0  0  0
 32 33  1  0  0  0
 53 54  1  0  0  0
 53 55  1  0  0  0
 33 34  1  0  0  0
 34 35  1  0  0  0
 35 36  1  0  0  0
 58 60  1  0  0  0
 36 37  1  0  0  0
 59 60  1  0  0  0
 59 62  1  0  0  0
 37 38  1  0  0  0
 38 39  1  0  0  0
 39 40  1  0  0  0
  4  6  1  0  0  0
  6  7  1  0  0  0
  7  8  1  0  0  0
  8  9  1  0  0  0
  9 10  1  0  0  0
 10 11  1  0  0  0
 11 12  1  0  0  0
 12 13  1  0  0  0
 13 14  1  0  0  0
 14 15  1  0  0  0
 15 16  1  0  0  0
 16 17  1  0  0  0
 17 18  1  0  0  0
 18 19  1  0  0  0
 19 20  1  0  0  0
 20 21  1  0  0  0
 21 22  1  0  0  0
 46 47  1  0  0  0
 47 48  1  0  0  0
 48 49  1  0  0  0
 49 50  1  0  0  0
 50 54  1  0  0  0
M  CHG 1  58  -1
M  END
> <minimizedAffinity>
-8.85992

> <CNNscore>
0.1271726042

> <CNNaffinity>
6.5480756760

> <CNN_VS>
0.8327358365

> <CNNaffinity_variance>
1.2811920643

$$$$
/media/chris/experiments/cd1a-new-docking/inputs/ligands/1onq_ligand.pdb


 62 62  0  0  0  0  0  0  0  0999 V2000
  -39.9918   60.4042   65.0743 C   0  0  0  0  0  0  0  0  0  0  0  0
  -40.7120   59.1992   65.4355 N   0  0  0  0  0  0  0  0  0  0  0  0
  -42.4289   60.0238   66.6681 O   0  0  0  0  0  0  0  0  0  0  0  0
  -41.8267   59.0919   66.1712 C   0  0  0  0  0  0  0  0  0  0  0  0
  -40.3351   58.3546   65.0983 H   0  0  0  0  0  0  0  0  0  0  0  0
  -42.3341   57.6931   66.3599 C   0  0  0  0  0  0  0  0  0  0  0  0
  -43.0336   57.3064   65.0567 C   0  0  0  0  0  0  0  0  0  0  0  0
  -42.2719   56.1741   64.3720 C   0  0  0  0  0  0  0  0  0  0  0  0
  -41.2113   56.5914   63.3823 C   0  0  0  0  0  0  0  0  0  0  0  0
  -41.1487   55.5229   62.2959 C   0  0  0  0  0  0  0  0  0  0  0  0
  -41.4691   56.0762   60.9009 C   0  0  0  0  0  0  0  0  0  0  0  0
  -41.7357   57.5921   60.8681 C   0  0  0  0  0  0  0  0  0  0  0  0
  -41.2158   58.2655   59.5790 C   0  0  0  0  0  0  0  0  0  0  0  0
  -40.8541   59.7300   59.8429 C   0  0  0  0  0  0  0  0  0  0  0  0
  -39.3626   60.0413   59.8131 C   0  0  0  0  0  0  0  0  0  0  0  0
  -38.5165   58.7936   59.6068 C   0  0  0  0  0  0  0  0  0  0  0  0
  -37.4532   58.5200   60.6728 C   0  0  0  0  0  0  0  0  0  0  0  0
  -38.0553   57.5905   61.7179 C   0  0  0  0  0  0  0  0  0  0  0  0
  -37.6428   57.7638   63.1723 C   0  0  0  0  0  0  0  0  0  0  0  0
  -36.3025   58.5084   63.2786 C   0  0  0  0  0  0  0  0  0  0  0  0
  -35.0614   57.5977   63.2417 C   0  0  0  0  0  0  0  0  0  0  0  0
  -33.8516   58.2518   62.5785 C   0  0  0  0  0  0  0  0  0  0  0  0
  -39.4506   61.6067   63.1619 O   0  0  0  0  0  0  0  0  0  0  0  0
  -40.1748   60.4600   63.5673 C   0  0  0  0  0  0  0  0  0  0  0  0
  -38.5136   61.4933   63.3860 H   0  0  0  0  0  0  0  0  0  0  0  0
  -41.6659   60.5746   63.2416 C   0  0  0  0  0  0  0  0  0  0  0  0
  -42.3833   61.6862   63.4781 C   0  0  0  0  0  0  0  0  0  0  0  0
  -43.8691   61.7215   63.1252 C   0  0  0  0  0  0  0  0  0  0  0  0
  -44.7962   61.3922   64.3044 C   0  0  0  0  0  0  0  0  0  0  0  0
  -45.1823   59.9091   64.4545 C   0  0  0  0  0  0  0  0  0  0  0  0
  -46.7097   59.7566   64.6524 C   0  0  0  0  0  0  0  0  0  0  0  0
  -47.5742   60.8752   64.0178 C   0  0  0  0  0  0  0  0  0  0  0  0
  -48.7317   60.3561   63.1326 C   0  0  0  0  0  0  0  0  0  0  0  0
  -48.8897   58.8203   63.1607 C   0  0  0  0  0  0  0  0  0  0  0  0
  -49.3102   58.2178   61.8149 C   0  0  0  0  0  0  0  0  0  0  0  0
  -49.5690   59.2127   60.6854 C   0  0  0  0  0  0  0  0  0  0  0  0
  -48.8731   58.8487   59.3590 C   0  0  0  0  0  0  0  0  0  0  0  0
  -48.1389   57.4993   59.3537 C   0  0  0  0  0  0  0  0  0  0  0  0
  -47.2226   57.3766   58.1330 C   0  0  0  0  0  0  0  0  0  0  0  0
  -47.4079   56.1403   57.2710 C   0  0  0  0  0  0  0  0  0  0  0  0
  -38.5446   60.5003   65.6084 C   0  0  0  0  0  0  0  0  0  0  0  0
  -37.8821   61.7816   65.4586 O   0  0  0  0  0  0  0  0  0  0  0  0
  -36.6973   61.9232   62.8599 O   0  0  0  0  0  0  0  0  0  0  0  0
  -34.1451   64.6310   64.7446 O   0  0  0  0  0  0  0  0  0  0  0  0
  -35.7154   62.5300   66.2529 O   0  0  0  0  0  0  0  0  0  0  0  0
  -36.4340   61.8670   65.1843 C   0  0  0  0  0  0  0  0  0  0  0  0
  -36.0329   62.5885   63.8895 C   0  0  0  0  0  0  0  0  0  0  0  0
  -34.5170   62.5427   63.5977 C   0  0  0  0  0  0  0  0  0  0  0  0
  -33.8458   63.2373   64.7503 C   0  0  0  0  0  0  0  0  0  0  0  0
  -34.2771   62.5973   66.0574 C   0  0  0  0  0  0  0  0  0  0  0  0
  -37.6527   61.9418   63.0265 H   0  0  0  0  0  0  0  0  0  0  0  0
  -33.8616   65.0191   63.9019 H   0  0  0  0  0  0  0  0  0  0  0  0
  -34.2719   64.5500   67.4359 O   0  0  0  0  0  0  0  0  0  0  0  0
  -33.5079   63.4394   67.0728 C   0  0  0  0  0  0  0  0  0  0  0  0
  -33.7813   65.0832   68.0808 H   0  0  0  0  0  0  0  0  0  0  0  0
  -34.0797   63.2309   62.4040 O   0  0  0  0  0  0  0  0  0  0  0  0
  -35.6581   63.8805   60.4536 O   0  0  0  0  0  0  0  0  0  0  0  0
  -34.0027   65.4735   61.2353 O   0  0  0  0  0  0  0  0  0  0  0  0
  -35.9974   65.0468   62.5442 O   0  0  0  0  0  0  0  0  0  0  0  0
  -34.9698   64.4258   61.6610 S   0  0  0  0  0  0  0  0  0  0  0  0
  -35.0039   63.4713   59.8657 H   0  0  0  0  0  0  0  0  0  0  0  0
  -36.6325   64.3703   62.8267 H   0  0  0  0  0  0  0  0  0  0  0  0
  2  1  1  0  0  0
  2  4  1  0  0  0
  2  5  1  0  0  0
 41 42  1  0  0  0
 41  1  1  0  0  0
 42 46  1  0  0  0
  1 24  1  0  0  0
 23 24  1  0  0  0
 23 25  1  0  0  0
 24 26  1  0  0  0
  3  4  2  0  0  0
 26 27  2  0  0  0
 27 28  1  0  0  0
 43 47  1  0  0  0
 43 51  1  0  0  0
 28 29  1  0  0  0
 56 48  1  0  0  0
 56 60  1  0  0  0
 29 30  1  0  0  0
 57 60  1  0  0  0
 57 61  1  0  0  0
 30 31  1  0  0  0
 44 49  1  0  0  0
 44 52  1  0  0  0
 31 32  1  0  0  0
 45 46  1  0  0  0
 45 50  1  0  0  0
 32 33  1  0  0  0
 53 54  1  0  0  0
 53 55  1  0  0  0
 33 34  1  0  0  0
 34 35  1  0  0  0
 35 36  1  0  0  0
 58 60  1  0  0  0
 36 37  1  0  0  0
 59 60  1  0  0  0
 59 62  1  0  0  0
 37 38  1  0  0  0
 38 39  1  0  0  0
 39 40  1  0  0  0
  4  6  1  0  0  0
  6  7  1  0  0  0
  7  8  1  0  0  0
  8  9  1  0  0  0
  9 10  1  0  0  0
 10 11  1  0  0  0
 11 12  1  0  0  0
 12 13  1  0  0  0
 13 14  1  0  0  0
 14 15  1  0  0  0
 15 16  1  0  0  0
 16 17  1  0  0  0
 17 18  1  0  0  0
 18 19  1  0  0  0
 19 20  1  0  0  0
 20 21  1  0  0  0
 21 22  1  0  0  0
 46 47  1  0  0  0
 47 48  1  0  0  0
 48 49  1  0  0  0
 49 50  1  0  0  0
 50 54  1  0  0  0
M  CHG 1  58  -1
M  END
> <minimizedAffinity>
-9.25902

> <CNNscore>
0.1179171652

> <CNNaffinity>
7.0457510948

> <CNN_VS>
0.8308150172

> <CNNaffinity_variance>
1.8159611225

$$$$
