/media/chris/experiments/cd1a-new-docking/inputs/ligands/1onq_ligand.pdb


 62 62  0  0  0  0  0  0  0  0999 V2000
  -41.6242   60.0126   65.8745 C   0  0  0  0  0  0  0  0  0  0  0  0
  -42.0527   58.9550   64.9807 N   0  0  0  0  0  0  0  0  0  0  0  0
  -42.7478   57.3576   66.4342 O   0  0  0  0  0  0  0  0  0  0  0  0
  -42.5608   57.7573   65.3014 C   0  0  0  0  0  0  0  0  0  0  0  0
  -41.9588   59.1396   64.0183 H   0  0  0  0  0  0  0  0  0  0  0  0
  -42.9173   56.8829   64.1360 C   0  0  0  0  0  0  0  0  0  0  0  0
  -41.8233   55.8193   64.0416 C   0  0  0  0  0  0  0  0  0  0  0  0
  -41.2123   55.8223   62.6424 C   0  0  0  0  0  0  0  0  0  0  0  0
  -41.2616   57.1355   61.8998 C   0  0  0  0  0  0  0  0  0  0  0  0
  -41.3968   56.8198   60.4138 C   0  0  0  0  0  0  0  0  0  0  0  0
  -41.3091   58.0721   59.5313 C   0  0  0  0  0  0  0  0  0  0  0  0
  -40.8329   59.3352   60.2717 C   0  0  0  0  0  0  0  0  0  0  0  0
  -39.5100   59.8988   59.7079 C   0  0  0  0  0  0  0  0  0  0  0  0
  -38.4917   58.7753   59.4944 C   0  0  0  0  0  0  0  0  0  0  0  0
  -37.4745   58.6049   60.6163 C   0  0  0  0  0  0  0  0  0  0  0  0
  -37.8565   57.4887   61.5772 C   0  0  0  0  0  0  0  0  0  0  0  0
  -37.8057   57.8385   63.0662 C   0  0  0  0  0  0  0  0  0  0  0  0
  -36.4479   58.4607   63.3627 C   0  0  0  0  0  0  0  0  0  0  0  0
  -35.2119   57.5750   63.3067 C   0  0  0  0  0  0  0  0  0  0  0  0
  -34.0406   58.3074   62.6331 C   0  0  0  0  0  0  0  0  0  0  0  0
  -32.8046   58.4970   63.5315 C   0  0  0  0  0  0  0  0  0  0  0  0
  -33.1409   58.5398   65.0203 C   0  0  0  0  0  0  0  0  0  0  0  0
  -42.2306   62.1925   66.4000 O   0  0  0  0  0  0  0  0  0  0  0  0
  -42.4928   61.1820   65.4440 C   0  0  0  0  0  0  0  0  0  0  0  0
  -41.2922   62.4356   66.3643 H   0  0  0  0  0  0  0  0  0  0  0  0
  -43.9615   60.7512   65.4483 C   0  0  0  0  0  0  0  0  0  0  0  0
  -44.8026   61.0083   64.4322 C   0  0  0  0  0  0  0  0  0  0  0  0
  -46.2560   60.5454   64.5126 C   0  0  0  0  0  0  0  0  0  0  0  0
  -46.4468   59.2260   65.2749 C   0  0  0  0  0  0  0  0  0  0  0  0
  -47.8913   58.6964   65.3395 C   0  0  0  0  0  0  0  0  0  0  0  0
  -48.8713   59.8221   65.7491 C   0  0  0  0  0  0  0  0  0  0  0  0
  -50.3733   59.4971   65.5491 C   0  0  0  0  0  0  0  0  0  0  0  0
  -51.0328   60.2502   64.3698 C   0  0  0  0  0  0  0  0  0  0  0  0
  -50.8530   59.5443   63.0084 C   0  0  0  0  0  0  0  0  0  0  0  0
  -49.7866   60.1887   62.1146 C   0  0  0  0  0  0  0  0  0  0  0  0
  -49.5711   59.5373   60.7503 C   0  0  0  0  0  0  0  0  0  0  0  0
  -49.2727   58.0265   60.8181 C   0  0  0  0  0  0  0  0  0  0  0  0
  -48.2106   57.5237   59.8287 C   0  0  0  0  0  0  0  0  0  0  0  0
  -48.2753   58.3007   58.5106 C   0  0  0  0  0  0  0  0  0  0  0  0
  -47.1377   58.0667   57.5324 C   0  0  0  0  0  0  0  0  0  0  0  0
  -40.0991   60.2570   65.9337 C   0  0  0  0  0  0  0  0  0  0  0  0
  -39.5316   61.0710   64.8761 O   0  0  0  0  0  0  0  0  0  0  0  0
  -37.9897   61.4911   62.5047 O   0  0  0  0  0  0  0  0  0  0  0  0
  -36.2097   64.4706   64.8186 O   0  0  0  0  0  0  0  0  0  0  0  0
  -37.6568   62.1007   66.0208 O   0  0  0  0  0  0  0  0  0  0  0  0
  -38.0886   61.3817   64.8400 C   0  0  0  0  0  0  0  0  0  0  0  0
  -37.6049   62.2060   63.6384 C   0  0  0  0  0  0  0  0  0  0  0  0
  -36.0729   62.3979   63.5939 C   0  0  0  0  0  0  0  0  0  0  0  0
  -35.7054   63.1377   64.8505 C   0  0  0  0  0  0  0  0  0  0  0  0
  -36.2331   62.3888   66.0608 C   0  0  0  0  0  0  0  0  0  0  0  0
  -38.9508   61.3608   62.5155 H   0  0  0  0  0  0  0  0  0  0  0  0
  -35.8607   64.9299   64.0388 H   0  0  0  0  0  0  0  0  0  0  0  0
  -36.2159   62.7795   68.4189 O   0  0  0  0  0  0  0  0  0  0  0  0
  -35.7709   63.2947   67.2000 C   0  0  0  0  0  0  0  0  0  0  0  0
  -35.9212   63.3565   69.1407 H   0  0  0  0  0  0  0  0  0  0  0  0
  -35.5644   63.1907   62.4973 O   0  0  0  0  0  0  0  0  0  0  0  0
  -33.1835   62.1686   62.5570 O   0  0  0  0  0  0  0  0  0  0  0  0
  -33.4917   64.5170   63.0852 O   0  0  0  0  0  0  0  0  0  0  0  0
  -33.6271   63.7561   60.7880 O   0  0  0  0  0  0  0  0  0  0  0  0
  -33.9400   63.4059   62.2025 S   0  0  0  0  0  0  0  0  0  0  0  0
  -33.3750   61.9247   63.4761 H   0  0  0  0  0  0  0  0  0  0  0  0
  -33.9162   63.0366   60.2052 H   0  0  0  0  0  0  0  0  0  0  0  0
  2  1  1  0  0  0
  2  4  1  0  0  0
  2  5  1  0  0  0
 41 42  1  0  0  0
 41  1  1  0  0  0
 42 46  1  0  0  0
  1 24  1  0  0  0
 23 24  1  0  0  0
 23 25  1  0  0  0
 24 26  1  0  0  0
  3  4  2  0  0  0
 26 27  2  0  0  0
 27 28  1  0  0  0
 43 47  1  0  0  0
 43 51  1  0  0  0
 28 29  1  0  0  0
 56 48  1  0  0  0
 56 60  1  0  0  0
 29 30  1  0  0  0
 57 60  1  0  0  0
 57 61  1  0  0  0
 30 31  1  0  0  0
 44 49  1  0  0  0
 44 52  1  0  0  0
 31 32  1  0  0  0
 45 46  1  0  0  0
 45 50  1  0  0  0
 32 33  1  0  0  0
 53 54  1  0  0  0
 53 55  1  0  0  0
 33 34  1  0  0  0
 34 35  1  0  0  0
 35 36  1  0  0  0
 58 60  1  0  0  0
 36 37  1  0  0  0
 59 60  1  0  0  0
 59 62  1  0  0  0
 37 38  1  0  0  0
 38 39  1  0  0  0
 39 40  1  0  0  0
  4  6  1  0  0  0
  6  7  1  0  0  0
  7  8  1  0  0  0
  8  9  1  0  0  0
  9 10  1  0  0  0
 10 11  1  0  0  0
 11 12  1  0  0  0
 12 13  1  0  0  0
 13 14  1  0  0  0
 14 15  1  0  0  0
 15 16  1  0  0  0
 16 17  1  0  0  0
 17 18  1  0  0  0
 18 19  1  0  0  0
 19 20  1  0  0  0
 20 21  1  0  0  0
 21 22  1  0  0  0
 46 47  1  0  0  0
 47 48  1  0  0  0
 48 49  1  0  0  0
 49 50  1  0  0  0
 50 54  1  0  0  0
M  CHG 1  58  -1
M  END
> <minimizedAffinity>
-9.85692

> <CNNscore>
0.3252632320

> <CNNaffinity>
7.2716369629

> <CNN_VS>
2.3651962280

> <CNNaffinity_variance>
2.2293648720

$$$$
/media/chris/experiments/cd1a-new-docking/inputs/ligands/1onq_ligand.pdb


 62 62  0  0  0  0  0  0  0  0999 V2000
  -41.1808   58.9444   64.4713 C   0  0  0  0  0  0  0  0  0  0  0  0
  -42.3298   59.8237   64.3840 N   0  0  0  0  0  0  0  0  0  0  0  0
  -41.9918   61.2220   66.1385 O   0  0  0  0  0  0  0  0  0  0  0  0
  -42.6452   60.8529   65.1820 C   0  0  0  0  0  0  0  0  0  0  0  0
  -42.9564   59.6422   63.6468 H   0  0  0  0  0  0  0  0  0  0  0  0
  -43.9075   61.5775   64.8195 C   0  0  0  0  0  0  0  0  0  0  0  0
  -43.9932   61.5616   63.2933 C   0  0  0  0  0  0  0  0  0  0  0  0
  -42.7901   62.2873   62.6958 C   0  0  0  0  0  0  0  0  0  0  0  0
  -42.4582   61.9521   61.2619 C   0  0  0  0  0  0  0  0  0  0  0  0
  -41.4240   60.8312   61.2782 C   0  0  0  0  0  0  0  0  0  0  0  0
  -40.9622   60.4302   59.8709 C   0  0  0  0  0  0  0  0  0  0  0  0
  -40.9702   58.9126   59.6113 C   0  0  0  0  0  0  0  0  0  0  0  0
  -41.2280   58.0860   60.8903 C   0  0  0  0  0  0  0  0  0  0  0  0
  -40.0863   57.0945   61.1318 C   0  0  0  0  0  0  0  0  0  0  0  0
  -38.6895   57.7037   61.1193 C   0  0  0  0  0  0  0  0  0  0  0  0
  -37.9477   57.4737   62.4277 C   0  0  0  0  0  0  0  0  0  0  0  0
  -36.5430   58.0744   62.5173 C   0  0  0  0  0  0  0  0  0  0  0  0
  -35.9732   57.7489   63.8913 C   0  0  0  0  0  0  0  0  0  0  0  0
  -35.1932   58.8257   64.6311 C   0  0  0  0  0  0  0  0  0  0  0  0
  -34.1084   59.4363   63.7298 C   0  0  0  0  0  0  0  0  0  0  0  0
  -32.7518   58.7099   63.7815 C   0  0  0  0  0  0  0  0  0  0  0  0
  -31.6647   59.4015   62.9622 C   0  0  0  0  0  0  0  0  0  0  0  0
  -41.1372   56.6269   64.6232 O   0  0  0  0  0  0  0  0  0  0  0  0
  -41.7320   57.7546   65.2381 C   0  0  0  0  0  0  0  0  0  0  0  0
  -40.1733   56.6764   64.7206 H   0  0  0  0  0  0  0  0  0  0  0  0
  -43.2579   57.7381   65.1199 C   0  0  0  0  0  0  0  0  0  0  0  0
  -44.0723   57.5852   66.1780 C   0  0  0  0  0  0  0  0  0  0  0  0
  -45.5865   57.5786   65.9772 C   0  0  0  0  0  0  0  0  0  0  0  0
  -46.2036   58.9797   65.8562 C   0  0  0  0  0  0  0  0  0  0  0  0
  -47.4147   59.0953   64.9123 C   0  0  0  0  0  0  0  0  0  0  0  0
  -48.4570   57.9929   65.2185 C   0  0  0  0  0  0  0  0  0  0  0  0
  -49.9217   58.4836   65.3436 C   0  0  0  0  0  0  0  0  0  0  0  0
  -50.1092   59.9944   65.0696 C   0  0  0  0  0  0  0  0  0  0  0  0
  -51.1770   60.2994   63.9968 C   0  0  0  0  0  0  0  0  0  0  0  0
  -50.9082   59.6222   62.6476 C   0  0  0  0  0  0  0  0  0  0  0  0
  -49.5951   59.9914   61.9608 C   0  0  0  0  0  0  0  0  0  0  0  0
  -49.5789   59.7054   60.4462 C   0  0  0  0  0  0  0  0  0  0  0  0
  -49.0104   58.3359   60.0445 C   0  0  0  0  0  0  0  0  0  0  0  0
  -48.2485   58.4243   58.7190 C   0  0  0  0  0  0  0  0  0  0  0  0
  -47.1890   57.3637   58.4773 C   0  0  0  0  0  0  0  0  0  0  0  0
  -39.8873   59.5913   65.0166 C   0  0  0  0  0  0  0  0  0  0  0  0
  -39.4585   60.8209   64.3781 O   0  0  0  0  0  0  0  0  0  0  0  0
  -37.7608   61.3084   62.1293 O   0  0  0  0  0  0  0  0  0  0  0  0
  -36.4849   64.5286   64.4535 O   0  0  0  0  0  0  0  0  0  0  0  0
  -37.7990   62.0705   65.6311 O   0  0  0  0  0  0  0  0  0  0  0  0
  -38.0543   61.2714   64.4504 C   0  0  0  0  0  0  0  0  0  0  0  0
  -37.5476   62.0971   63.2592 C   0  0  0  0  0  0  0  0  0  0  0  0
  -36.0431   62.4380   63.3359 C   0  0  0  0  0  0  0  0  0  0  0  0
  -35.8601   63.2541   64.5856 C   0  0  0  0  0  0  0  0  0  0  0  0
  -36.4185   62.4994   65.7785 C   0  0  0  0  0  0  0  0  0  0  0  0
  -38.7023   61.0840   62.0646 H   0  0  0  0  0  0  0  0  0  0  0  0
  -36.1139   64.9927   63.6868 H   0  0  0  0  0  0  0  0  0  0  0  0
  -36.1797   62.8145   68.1358 O   0  0  0  0  0  0  0  0  0  0  0  0
  -36.1473   63.4858   66.9123 C   0  0  0  0  0  0  0  0  0  0  0  0
  -36.0073   63.4430   68.8543 H   0  0  0  0  0  0  0  0  0  0  0  0
  -35.5180   63.2385   62.2526 O   0  0  0  0  0  0  0  0  0  0  0  0
  -33.5683   63.9243   60.6888 O   0  0  0  0  0  0  0  0  0  0  0  0
  -33.1309   62.4666   62.5790 O   0  0  0  0  0  0  0  0  0  0  0  0
  -33.5195   64.8332   62.9289 O   0  0  0  0  0  0  0  0  0  0  0  0
  -33.9099   63.6468   62.1154 S   0  0  0  0  0  0  0  0  0  0  0  0
  -33.8157   63.1616   60.1429 H   0  0  0  0  0  0  0  0  0  0  0  0
  -34.0229   65.6078   62.6331 H   0  0  0  0  0  0  0  0  0  0  0  0
  2  1  1  0  0  0
  2  4  1  0  0  0
  2  5  1  0  0  0
 41 42  1  0  0  0
 41  1  1  0  0  0
 42 46  1  0  0  0
  1 24  1  0  0  0
 23 24  1  0  0  0
 23 25  1  0  0  0
 24 26  1  0  0  0
  3  4  2  0  0  0
 26 27  2  0  0  0
 27 28  1  0  0  0
 43 47  1  0  0  0
 43 51  1  0  0  0
 28 29  1  0  0  0
 56 48  1  0  0  0
 56 60  1  0  0  0
 29 30  1  0  0  0
 57 60  1  0  0  0
 57 61  1  0  0  0
 30 31  1  0  0  0
 44 49  1  0  0  0
 44 52  1  0  0  0
 31 32  1  0  0  0
 45 46  1  0  0  0
 45 50  1  0  0  0
 32 33  1  0  0  0
 53 54  1  0  0  0
 53 55  1  0  0  0
 33 34  1  0  0  0
 34 35  1  0  0  0
 35 36  1  0  0  0
 58 60  1  0  0  0
 36 37  1  0  0  0
 59 60  1  0  0  0
 59 62  1  0  0  0
 37 38  1  0  0  0
 38 39  1  0  0  0
 39 40  1  0  0  0
  4  6  1  0  0  0
  6  7  1  0  0  0
  7  8  1  0  0  0
  8  9  1  0  0  0
  9 10  1  0  0  0
 10 11  1  0  0  0
 11 12  1  0  0  0
 12 13  1  0  0  0
 13 14  1  0  0  0
 14 15  1  0  0  0
 15 16  1  0  0  0
 16 17  1  0  0  0
 17 18  1  0  0  0
 18 19  1  0  0  0
 19 20  1  0  0  0
 20 21  1  0  0  0
 21 22  1  0  0  0
 46 47  1  0  0  0
 47 48  1  0  0  0
 48 49  1  0  0  0
 49 50  1  0  0  0
 50 54  1  0  0  0
M  CHG 1  58  -1
M  END
> <minimizedAffinity>
-9.51210

> <CNNscore>
0.2604863644

> <CNNaffinity>
7.2210884094

> <CNN_VS>
1.8809950352

> <CNNaffinity_variance>
2.3623013496

$$$$
/media/chris/experiments/cd1a-new-docking/inputs/ligands/1onq_ligand.pdb


 62 62  0  0  0  0  0  0  0  0999 V2000
  -40.7044   59.2429   65.4395 C   0  0  0  0  0  0  0  0  0  0  0  0
  -41.1410   58.9409   64.0907 N   0  0  0  0  0  0  0  0  0  0  0  0
  -40.9833   56.6782   64.0361 O   0  0  0  0  0  0  0  0  0  0  0  0
  -41.2470   57.7399   63.5059 C   0  0  0  0  0  0  0  0  0  0  0  0
  -41.3908   59.7143   63.5353 H   0  0  0  0  0  0  0  0  0  0  0  0
  -41.7410   57.7616   62.0898 C   0  0  0  0  0  0  0  0  0  0  0  0
  -41.3190   56.4326   61.4633 C   0  0  0  0  0  0  0  0  0  0  0  0
  -41.1196   56.6049   59.9594 C   0  0  0  0  0  0  0  0  0  0  0  0
  -41.1031   58.0260   59.4509 C   0  0  0  0  0  0  0  0  0  0  0  0
  -39.6784   58.3399   59.0065 C   0  0  0  0  0  0  0  0  0  0  0  0
  -39.1204   59.6118   59.6589 C   0  0  0  0  0  0  0  0  0  0  0  0
  -38.4667   59.3826   61.0339 C   0  0  0  0  0  0  0  0  0  0  0  0
  -37.9174   57.9494   61.2062 C   0  0  0  0  0  0  0  0  0  0  0  0
  -37.3343   57.7595   62.6093 C   0  0  0  0  0  0  0  0  0  0  0  0
  -35.8128   57.7963   62.6859 C   0  0  0  0  0  0  0  0  0  0  0  0
  -35.3071   57.8043   64.1209 C   0  0  0  0  0  0  0  0  0  0  0  0
  -35.1105   59.1830   64.7555 C   0  0  0  0  0  0  0  0  0  0  0  0
  -33.6358   59.5481   64.6524 C   0  0  0  0  0  0  0  0  0  0  0  0
  -32.6471   58.4750   64.2210 C   0  0  0  0  0  0  0  0  0  0  0  0
  -31.6727   59.0179   63.1637 C   0  0  0  0  0  0  0  0  0  0  0  0
  -32.3196   59.9367   62.1110 C   0  0  0  0  0  0  0  0  0  0  0  0
  -31.6351   61.2965   61.9937 C   0  0  0  0  0  0  0  0  0  0  0  0
  -42.2721   57.9671   66.5844 O   0  0  0  0  0  0  0  0  0  0  0  0
  -42.0148   59.3064   66.2052 C   0  0  0  0  0  0  0  0  0  0  0  0
  -41.5578   57.6511   67.1598 H   0  0  0  0  0  0  0  0  0  0  0  0
  -43.1082   59.8676   65.2931 C   0  0  0  0  0  0  0  0  0  0  0  0
  -44.3245   60.2226   65.7413 C   0  0  0  0  0  0  0  0  0  0  0  0
  -45.3628   60.7746   64.7665 C   0  0  0  0  0  0  0  0  0  0  0  0
  -46.4829   59.7816   64.4233 C   0  0  0  0  0  0  0  0  0  0  0  0
  -47.9116   60.2456   64.7617 C   0  0  0  0  0  0  0  0  0  0  0  0
  -48.7678   60.3682   63.4783 C   0  0  0  0  0  0  0  0  0  0  0  0
  -50.2839   60.5881   63.7128 C   0  0  0  0  0  0  0  0  0  0  0  0
  -51.1738   59.4107   63.2495 C   0  0  0  0  0  0  0  0  0  0  0  0
  -50.3832   58.2643   62.5826 C   0  0  0  0  0  0  0  0  0  0  0  0
  -50.9002   57.8863   61.1894 C   0  0  0  0  0  0  0  0  0  0  0  0
  -49.9221   58.0849   60.0336 C   0  0  0  0  0  0  0  0  0  0  0  0
  -48.5165   57.5098   60.2973 C   0  0  0  0  0  0  0  0  0  0  0  0
  -47.8233   56.8882   59.0753 C   0  0  0  0  0  0  0  0  0  0  0  0
  -48.1342   57.6828   57.8036 C   0  0  0  0  0  0  0  0  0  0  0  0
  -46.9493   58.3190   57.0985 C   0  0  0  0  0  0  0  0  0  0  0  0
  -39.7537   60.4538   65.5760 C   0  0  0  0  0  0  0  0  0  0  0  0
  -38.9900   60.8145   64.3970 O   0  0  0  0  0  0  0  0  0  0  0  0
  -37.6103   62.1954   62.3074 O   0  0  0  0  0  0  0  0  0  0  0  0
  -36.4337   64.6835   65.4417 O   0  0  0  0  0  0  0  0  0  0  0  0
  -37.3440   61.8287   65.8626 O   0  0  0  0  0  0  0  0  0  0  0  0
  -37.6417   61.4057   64.5097 C   0  0  0  0  0  0  0  0  0  0  0  0
  -37.3587   62.6186   63.6119 C   0  0  0  0  0  0  0  0  0  0  0  0
  -35.8992   63.1187   63.6866 C   0  0  0  0  0  0  0  0  0  0  0  0
  -35.6673   63.5267   65.1153 C   0  0  0  0  0  0  0  0  0  0  0  0
  -36.0086   62.3731   66.0410 C   0  0  0  0  0  0  0  0  0  0  0  0
  -38.5242   61.8772   62.2413 H   0  0  0  0  0  0  0  0  0  0  0  0
  -36.2001   65.4068   64.8391 H   0  0  0  0  0  0  0  0  0  0  0  0
  -34.3716   63.3411   67.4890 O   0  0  0  0  0  0  0  0  0  0  0  0
  -35.7202   62.9892   67.4082 C   0  0  0  0  0  0  0  0  0  0  0  0
  -34.1909   63.7320   68.3581 H   0  0  0  0  0  0  0  0  0  0  0  0
  -35.5836   64.2772   62.8814 O   0  0  0  0  0  0  0  0  0  0  0  0
  -33.9137   63.6771   60.9924 O   0  0  0  0  0  0  0  0  0  0  0  0
  -33.0808   64.1391   63.2245 O   0  0  0  0  0  0  0  0  0  0  0  0
  -33.8416   65.9524   61.8075 O   0  0  0  0  0  0  0  0  0  0  0  0
  -34.0861   64.5359   62.2014 S   0  0  0  0  0  0  0  0  0  0  0  0
  -34.0693   62.7496   61.2298 H   0  0  0  0  0  0  0  0  0  0  0  0
  -34.4930   66.2195   61.1403 H   0  0  0  0  0  0  0  0  0  0  0  0
  2  1  1  0  0  0
  2  4  1  0  0  0
  2  5  1  0  0  0
 41 42  1  0  0  0
 41  1  1  0  0  0
 42 46  1  0  0  0
  1 24  1  0  0  0
 23 24  1  0  0  0
 23 25  1  0  0  0
 24 26  1  0  0  0
  3  4  2  0  0  0
 26 27  2  0  0  0
 27 28  1  0  0  0
 43 47  1  0  0  0
 43 51  1  0  0  0
 28 29  1  0  0  0
 56 48  1  0  0  0
 56 60  1  0  0  0
 29 30  1  0  0  0
 57 60  1  0  0  0
 57 61  1  0  0  0
 30 31  1  0  0  0
 44 49  1  0  0  0
 44 52  1  0  0  0
 31 32  1  0  0  0
 45 46  1  0  0  0
 45 50  1  0  0  0
 32 33  1  0  0  0
 53 54  1  0  0  0
 53 55  1  0  0  0
 33 34  1  0  0  0
 34 35  1  0  0  0
 35 36  1  0  0  0
 58 60  1  0  0  0
 36 37  1  0  0  0
 59 60  1  0  0  0
 59 62  1  0  0  0
 37 38  1  0  0  0
 38 39  1  0  0  0
 39 40  1  0  0  0
  4  6  1  0  0  0
  6  7  1  0  0  0
  7  8  1  0  0  0
  8  9  1  0  0  0
  9 10  1  0  0  0
 10 11  1  0  0  0
 11 12  1  0  0  0
 12 13  1  0  0  0
 13 14  1  0  0  0
 14 15  1  0  0  0
 15 16  1  0  0  0
 16 17  1  0  0  0
 17 18  1  0  0  0
 18 19  1  0  0  0
 19 20  1  0  0  0
 20 21  1  0  0  0
 21 22  1  0  0  0
 46 47  1  0  0  0
 47 48  1  0  0  0
 48 49  1  0  0  0
 49 50  1  0  0  0
 50 54  1  0  0  0
M  CHG 1  58  -1
M  END
> <minimizedAffinity>
-9.22200

> <CNNscore>
0.1549267769

> <CNNaffinity>
6.9013023376

> <CNN_VS>
1.0691965818

> <CNNaffinity_variance>
1.6239697933

$$$$
/media/chris/experiments/cd1a-new-docking/inputs/ligands/1onq_ligand.pdb


 62 62  0  0  0  0  0  0  0  0999 V2000
  -41.0393   60.5180   64.0322 C   0  0  0  0  0  0  0  0  0  0  0  0
  -41.7477   59.2819   63.7652 N   0  0  0  0  0  0  0  0  0  0  0  0
  -40.5211   57.7704   64.9307 O   0  0  0  0  0  0  0  0  0  0  0  0
  -41.4581   58.0510   64.2087 C   0  0  0  0  0  0  0  0  0  0  0  0
  -42.5402   59.3559   63.1859 H   0  0  0  0  0  0  0  0  0  0  0  0
  -42.3980   56.9728   63.7571 C   0  0  0  0  0  0  0  0  0  0  0  0
  -41.5296   55.7777   63.3642 C   0  0  0  0  0  0  0  0  0  0  0  0
  -41.0043   55.9597   61.9421 C   0  0  0  0  0  0  0  0  0  0  0  0
  -41.7529   56.9467   61.0797 C   0  0  0  0  0  0  0  0  0  0  0  0
  -40.9419   57.1525   59.8046 C   0  0  0  0  0  0  0  0  0  0  0  0
  -40.9253   58.6155   59.3420 C   0  0  0  0  0  0  0  0  0  0  0  0
  -39.6520   59.3878   59.7328 C   0  0  0  0  0  0  0  0  0  0  0  0
  -38.3661   58.5486   59.5669 C   0  0  0  0  0  0  0  0  0  0  0  0
  -37.5195   58.5998   60.8419 C   0  0  0  0  0  0  0  0  0  0  0  0
  -37.9720   57.6622   61.9547 C   0  0  0  0  0  0  0  0  0  0  0  0
  -37.0010   57.6457   63.1260 C   0  0  0  0  0  0  0  0  0  0  0  0
  -35.5370   57.9366   62.7883 C   0  0  0  0  0  0  0  0  0  0  0  0
  -34.8165   58.3096   64.0769 C   0  0  0  0  0  0  0  0  0  0  0  0
  -33.6641   59.3006   64.0075 C   0  0  0  0  0  0  0  0  0  0  0  0
  -32.5827   58.8188   63.0274 C   0  0  0  0  0  0  0  0  0  0  0  0
  -31.3948   59.7845   62.8619 C   0  0  0  0  0  0  0  0  0  0  0  0
  -31.4563   60.6024   61.5740 C   0  0  0  0  0  0  0  0  0  0  0  0
  -41.9584   61.6821   65.8199 O   0  0  0  0  0  0  0  0  0  0  0  0
  -42.1597   61.4608   64.4364 C   0  0  0  0  0  0  0  0  0  0  0  0
  -41.0950   62.1022   65.9579 H   0  0  0  0  0  0  0  0  0  0  0  0
  -43.5088   60.7978   64.1486 C   0  0  0  0  0  0  0  0  0  0  0  0
  -44.4514   60.6181   65.0896 C   0  0  0  0  0  0  0  0  0  0  0  0
  -45.7733   59.9464   64.7228 C   0  0  0  0  0  0  0  0  0  0  0  0
  -46.8452   60.0441   65.8183 C   0  0  0  0  0  0  0  0  0  0  0  0
  -48.1234   59.2206   65.5754 C   0  0  0  0  0  0  0  0  0  0  0  0
  -49.3313   60.1490   65.3021 C   0  0  0  0  0  0  0  0  0  0  0  0
  -49.5233   60.5667   63.8221 C   0  0  0  0  0  0  0  0  0  0  0  0
  -50.9357   60.2788   63.2608 C   0  0  0  0  0  0  0  0  0  0  0  0
  -51.1472   58.8065   62.8465 C   0  0  0  0  0  0  0  0  0  0  0  0
  -49.8572   58.0914   62.4272 C   0  0  0  0  0  0  0  0  0  0  0  0
  -49.8333   57.5266   61.0085 C   0  0  0  0  0  0  0  0  0  0  0  0
  -49.6209   58.5915   59.9144 C   0  0  0  0  0  0  0  0  0  0  0  0
  -49.2066   58.0446   58.5399 C   0  0  0  0  0  0  0  0  0  0  0  0
  -47.6852   58.0807   58.3695 C   0  0  0  0  0  0  0  0  0  0  0  0
  -47.1648   58.0578   56.9432 C   0  0  0  0  0  0  0  0  0  0  0  0
  -40.0906   60.9973   62.9102 C   0  0  0  0  0  0  0  0  0  0  0  0
  -38.6698   60.8267   63.1457 O   0  0  0  0  0  0  0  0  0  0  0  0
  -37.0138   60.9506   65.4738 O   0  0  0  0  0  0  0  0  0  0  0  0
  -34.3668   62.8249   62.8509 O   0  0  0  0  0  0  0  0  0  0  0  0
  -37.3520   62.7099   62.3697 O   0  0  0  0  0  0  0  0  0  0  0  0
  -37.8142   61.9687   63.5249 C   0  0  0  0  0  0  0  0  0  0  0  0
  -36.5604   61.6308   64.3442 C   0  0  0  0  0  0  0  0  0  0  0  0
  -35.7707   62.8735   64.8109 C   0  0  0  0  0  0  0  0  0  0  0  0
  -35.3374   63.5897   63.5616 C   0  0  0  0  0  0  0  0  0  0  0  0
  -36.5454   63.8759   62.6882 C   0  0  0  0  0  0  0  0  0  0  0  0
  -37.5131   60.1655   65.1996 H   0  0  0  0  0  0  0  0  0  0  0  0
  -33.6051   62.6538   63.4266 H   0  0  0  0  0  0  0  0  0  0  0  0
  -35.6272   63.6485   60.4930 O   0  0  0  0  0  0  0  0  0  0  0  0
  -35.8963   64.5792   61.4981 C   0  0  0  0  0  0  0  0  0  0  0  0
  -35.2150   64.0975   59.7384 H   0  0  0  0  0  0  0  0  0  0  0  0
  -34.5644   62.6127   65.5636 O   0  0  0  0  0  0  0  0  0  0  0  0
  -34.8942   64.6915   67.0758 O   0  0  0  0  0  0  0  0  0  0  0  0
  -32.8561   64.4665   65.7779 O   0  0  0  0  0  0  0  0  0  0  0  0
  -33.1904   63.1206   67.7656 O   0  0  0  0  0  0  0  0  0  0  0  0
  -33.8657   63.7277   66.5837 S   0  0  0  0  0  0  0  0  0  0  0  0
  -35.3452   65.0975   66.3191 H   0  0  0  0  0  0  0  0  0  0  0  0
  -33.8418   62.6366   68.2970 H   0  0  0  0  0  0  0  0  0  0  0  0
  2  1  1  0  0  0
  2  4  1  0  0  0
  2  5  1  0  0  0
 41 42  1  0  0  0
 41  1  1  0  0  0
 42 46  1  0  0  0
  1 24  1  0  0  0
 23 24  1  0  0  0
 23 25  1  0  0  0
 24 26  1  0  0  0
  3  4  2  0  0  0
 26 27  2  0  0  0
 27 28  1  0  0  0
 43 47  1  0  0  0
 43 51  1  0  0  0
 28 29  1  0  0  0
 56 48  1  0  0  0
 56 60  1  0  0  0
 29 30  1  0  0  0
 57 60  1  0  0  0
 57 61  1  0  0  0
 30 31  1  0  0  0
 44 49  1  0  0  0
 44 52  1  0  0  0
 31 32  1  0  0  0
 45 46  1  0  0  0
 45 50  1  0  0  0
 32 33  1  0  0  0
 53 54  1  0  0  0
 53 55  1  0  0  0
 33 34  1  0  0  0
 34 35  1  0  0  0
 35 36  1  0  0  0
 58 60  1  0  0  0
 36 37  1  0  0  0
 59 60  1  0  0  0
 59 62  1  0  0  0
 37 38  1  0  0  0
 38 39  1  0  0  0
 39 40  1  0  0  0
  4  6  1  0  0  0
  6  7  1  0  0  0
  7  8  1  0  0  0
  8  9  1  0  0  0
  9 10  1  0  0  0
 10 11  1  0  0  0
 11 12  1  0  0  0
 12 13  1  0  0  0
 13 14  1  0  0  0
 14 15  1  0  0  0
 15 16  1  0  0  0
 16 17  1  0  0  0
 17 18  1  0  0  0
 18 19  1  0  0  0
 19 20  1  0  0  0
 20 21  1  0  0  0
 21 22  1  0  0  0
 46 47  1  0  0  0
 47 48  1  0  0  0
 48 49  1  0  0  0
 49 50  1  0  0  0
 50 54  1  0  0  0
M  CHG 1  58  -1
M  END
> <minimizedAffinity>
-9.56295

> <CNNscore>
0.1454765201

> <CNNaffinity>
6.9740233421

> <CNN_VS>
1.0145566463

> <CNNaffinity_variance>
1.2399910688

$$$$
/media/chris/experiments/cd1a-new-docking/inputs/ligands/1onq_ligand.pdb


 62 62  0  0  0  0  0  0  0  0999 V2000
  -41.2440   60.0487   66.1677 C   0  0  0  0  0  0  0  0  0  0  0  0
  -42.1212   59.0957   65.5170 N   0  0  0  0  0  0  0  0  0  0  0  0
  -42.4864   57.5828   67.1678 O   0  0  0  0  0  0  0  0  0  0  0  0
  -42.6583   57.9815   66.0322 C   0  0  0  0  0  0  0  0  0  0  0  0
  -42.3508   59.2914   64.5799 H   0  0  0  0  0  0  0  0  0  0  0  0
  -43.5382   57.2062   65.0970 C   0  0  0  0  0  0  0  0  0  0  0  0
  -44.9466   57.2515   65.6897 C   0  0  0  0  0  0  0  0  0  0  0  0
  -45.5994   58.5968   65.3811 C   0  0  0  0  0  0  0  0  0  0  0  0
  -46.2009   59.3275   66.5570 C   0  0  0  0  0  0  0  0  0  0  0  0
  -47.2530   60.2884   66.0132 C   0  0  0  0  0  0  0  0  0  0  0  0
  -47.2057   60.4164   64.4848 C   0  0  0  0  0  0  0  0  0  0  0  0
  -48.5642   60.7361   63.8347 C   0  0  0  0  0  0  0  0  0  0  0  0
  -49.7533   60.5389   64.8005 C   0  0  0  0  0  0  0  0  0  0  0  0
  -51.0437   60.2711   64.0207 C   0  0  0  0  0  0  0  0  0  0  0  0
  -50.8439   59.7959   62.5867 C   0  0  0  0  0  0  0  0  0  0  0  0
  -50.7116   58.2830   62.4930 C   0  0  0  0  0  0  0  0  0  0  0  0
  -50.9309   57.6748   61.1059 C   0  0  0  0  0  0  0  0  0  0  0  0
  -50.0073   58.3835   60.1243 C   0  0  0  0  0  0  0  0  0  0  0  0
  -48.5256   58.0378   60.1375 C   0  0  0  0  0  0  0  0  0  0  0  0
  -48.2451   56.7879   59.2883 C   0  0  0  0  0  0  0  0  0  0  0  0
  -47.0334   56.9144   58.3466 C   0  0  0  0  0  0  0  0  0  0  0  0
  -47.1437   58.0867   57.3746 C   0  0  0  0  0  0  0  0  0  0  0  0
  -42.9174   61.1918   67.3031 O   0  0  0  0  0  0  0  0  0  0  0  0
  -42.0782   61.3182   66.1702 C   0  0  0  0  0  0  0  0  0  0  0  0
  -42.3732   61.1418   68.1046 H   0  0  0  0  0  0  0  0  0  0  0  0
  -42.8770   61.4025   64.8674 C   0  0  0  0  0  0  0  0  0  0  0  0
  -42.4324   62.0502   63.7769 C   0  0  0  0  0  0  0  0  0  0  0  0
  -43.2903   62.0898   62.5137 C   0  0  0  0  0  0  0  0  0  0  0  0
  -42.4887   61.9360   61.2129 C   0  0  0  0  0  0  0  0  0  0  0  0
  -41.4058   60.8414   61.2228 C   0  0  0  0  0  0  0  0  0  0  0  0
  -41.0275   60.4298   59.7796 C   0  0  0  0  0  0  0  0  0  0  0  0
  -41.0008   58.9034   59.5123 C   0  0  0  0  0  0  0  0  0  0  0  0
  -39.6018   58.3469   59.1578 C   0  0  0  0  0  0  0  0  0  0  0  0
  -38.4504   59.3282   59.4667 C   0  0  0  0  0  0  0  0  0  0  0  0
  -38.0053   59.3159   60.9341 C   0  0  0  0  0  0  0  0  0  0  0  0
  -37.4063   58.0065   61.4430 C   0  0  0  0  0  0  0  0  0  0  0  0
  -38.2597   57.3036   62.5171 C   0  0  0  0  0  0  0  0  0  0  0  0
  -39.6438   57.9231   62.7627 C   0  0  0  0  0  0  0  0  0  0  0  0
  -40.7003   56.8373   62.9865 C   0  0  0  0  0  0  0  0  0  0  0  0
  -41.1411   56.0608   61.7582 C   0  0  0  0  0  0  0  0  0  0  0  0
  -39.8175   60.1488   65.5812 C   0  0  0  0  0  0  0  0  0  0  0  0
  -38.8008   60.7202   66.4432 O   0  0  0  0  0  0  0  0  0  0  0  0
  -36.8816   58.9729   65.2430 O   0  0  0  0  0  0  0  0  0  0  0  0
  -36.3533   62.1918   62.6433 O   0  0  0  0  0  0  0  0  0  0  0  0
  -37.5007   62.4982   65.4264 O   0  0  0  0  0  0  0  0  0  0  0  0
  -37.4877   61.1326   65.9088 C   0  0  0  0  0  0  0  0  0  0  0  0
  -36.9276   60.2804   64.7610 C   0  0  0  0  0  0  0  0  0  0  0  0
  -35.5028   60.6869   64.3245 C   0  0  0  0  0  0  0  0  0  0  0  0
  -35.5986   62.1106   63.8499 C   0  0  0  0  0  0  0  0  0  0  0  0
  -36.2185   62.9731   64.9344 C   0  0  0  0  0  0  0  0  0  0  0  0
  -37.7694   58.6999   65.5224 H   0  0  0  0  0  0  0  0  0  0  0  0
  -35.9403   61.6343   61.9654 H   0  0  0  0  0  0  0  0  0  0  0  0
  -34.9574   64.6401   63.7751 O   0  0  0  0  0  0  0  0  0  0  0  0
  -36.2328   64.3423   64.2582 C   0  0  0  0  0  0  0  0  0  0  0  0
  -34.9690   65.5101   63.3462 H   0  0  0  0  0  0  0  0  0  0  0  0
  -34.9366   59.9347   63.2275 O   0  0  0  0  0  0  0  0  0  0  0  0
  -34.1258   57.5464   62.6309 O   0  0  0  0  0  0  0  0  0  0  0  0
  -33.7796   58.4025   64.8751 O   0  0  0  0  0  0  0  0  0  0  0  0
  -32.4045   59.1938   63.0427 O   0  0  0  0  0  0  0  0  0  0  0  0
  -33.7762   58.7581   63.4300 S   0  0  0  0  0  0  0  0  0  0  0  0
  -35.0172   57.2476   62.8698 H   0  0  0  0  0  0  0  0  0  0  0  0
  -32.3932   59.4276   62.1014 H   0  0  0  0  0  0  0  0  0  0  0  0
  2  1  1  0  0  0
  2  4  1  0  0  0
  2  5  1  0  0  0
 41 42  1  0  0  0
 41  1  1  0  0  0
 42 46  1  0  0  0
  1 24  1  0  0  0
 23 24  1  0  0  0
 23 25  1  0  0  0
 24 26  1  0  0  0
  3  4  2  0  0  0
 26 27  2  0  0  0
 27 28  1  0  0  0
 43 47  1  0  0  0
 43 51  1  0  0  0
 28 29  1  0  0  0
 56 48  1  0  0  0
 56 60  1  0  0  0
 29 30  1  0  0  0
 57 60  1  0  0  0
 57 61  1  0  0  0
 30 31  1  0  0  0
 44 49  1  0  0  0
 44 52  1  0  0  0
 31 32  1  0  0  0
 45 46  1  0  0  0
 45 50  1  0  0  0
 32 33  1  0  0  0
 53 54  1  0  0  0
 53 55  1  0  0  0
 33 34  1  0  0  0
 34 35  1  0  0  0
 35 36  1  0  0  0
 58 60  1  0  0  0
 36 37  1  0  0  0
 59 60  1  0  0  0
 59 62  1  0  0  0
 37 38  1  0  0  0
 38 39  1  0  0  0
 39 40  1  0  0  0
  4  6  1  0  0  0
  6  7  1  0  0  0
  7  8  1  0  0  0
  8  9  1  0  0  0
  9 10  1  0  0  0
 10 11  1  0  0  0
 11 12  1  0  0  0
 12 13  1  0  0  0
 13 14  1  0  0  0
 14 15  1  0  0  0
 15 16  1  0  0  0
 16 17  1  0  0  0
 17 18  1  0  0  0
 18 19  1  0  0  0
 19 20  1  0  0  0
 20 21  1  0  0  0
 21 22  1  0  0  0
 46 47  1  0  0  0
 47 48  1  0  0  0
 48 49  1  0  0  0
 49 50  1  0  0  0
 50 54  1  0  0  0
M  CHG 1  58  -1
M  END
> <minimizedAffinity>
-9.19083

> <CNNscore>
0.1425651908

> <CNNaffinity>
7.1551423073

> <CNN_VS>
1.0200742483

> <CNNaffinity_variance>
2.2176268101

$$$$
/media/chris/experiments/cd1a-new-docking/inputs/ligands/1onq_ligand.pdb


 62 62  0  0  0  0  0  0  0  0999 V2000
  -42.7528   59.0069   64.5131 C   0  0  0  0  0  0  0  0  0  0  0  0
  -44.0750   58.7360   65.0417 N   0  0  0  0  0  0  0  0  0  0  0  0
  -43.6153   57.3688   66.7929 O   0  0  0  0  0  0  0  0  0  0  0  0
  -44.4044   57.9737   66.0933 C   0  0  0  0  0  0  0  0  0  0  0  0
  -44.8243   59.1655   64.5692 H   0  0  0  0  0  0  0  0  0  0  0  0
  -45.8722   57.9005   66.3932 C   0  0  0  0  0  0  0  0  0  0  0  0
  -46.5746   58.7415   65.3273 C   0  0  0  0  0  0  0  0  0  0  0  0
  -47.2821   59.9265   65.9803 C   0  0  0  0  0  0  0  0  0  0  0  0
  -48.7716   59.7827   66.1784 C   0  0  0  0  0  0  0  0  0  0  0  0
  -49.1943   58.4585   65.5509 C   0  0  0  0  0  0  0  0  0  0  0  0
  -50.4183   58.5997   64.6362 C   0  0  0  0  0  0  0  0  0  0  0  0
  -50.8138   60.0557   64.3297 C   0  0  0  0  0  0  0  0  0  0  0  0
  -50.8721   60.3561   62.8158 C   0  0  0  0  0  0  0  0  0  0  0  0
  -49.6401   59.7891   62.1048 C   0  0  0  0  0  0  0  0  0  0  0  0
  -49.6250   59.9761   60.5925 C   0  0  0  0  0  0  0  0  0  0  0  0
  -49.5289   58.6525   59.8483 C   0  0  0  0  0  0  0  0  0  0  0  0
  -49.1739   57.4295   60.6971 C   0  0  0  0  0  0  0  0  0  0  0  0
  -48.8226   56.2840   59.7574 C   0  0  0  0  0  0  0  0  0  0  0  0
  -47.5026   56.3384   59.0027 C   0  0  0  0  0  0  0  0  0  0  0  0
  -47.7229   56.1418   57.4944 C   0  0  0  0  0  0  0  0  0  0  0  0
  -47.8234   57.4495   56.6878 C   0  0  0  0  0  0  0  0  0  0  0  0
  -46.8694   58.5363   57.1780 C   0  0  0  0  0  0  0  0  0  0  0  0
  -42.5529   61.3098   64.7422 O   0  0  0  0  0  0  0  0  0  0  0  0
  -42.2499   60.1097   65.4288 C   0  0  0  0  0  0  0  0  0  0  0  0
  -43.5130   61.3800   64.6220 H   0  0  0  0  0  0  0  0  0  0  0  0
  -40.7456   59.9369   65.6517 C   0  0  0  0  0  0  0  0  0  0  0  0
  -40.0707   58.8388   65.2712 C   0  0  0  0  0  0  0  0  0  0  0  0
  -38.5685   58.7417   65.5304 C   0  0  0  0  0  0  0  0  0  0  0  0
  -37.8090   57.9151   64.4825 C   0  0  0  0  0  0  0  0  0  0  0  0
  -36.2947   57.7677   64.7195 C   0  0  0  0  0  0  0  0  0  0  0  0
  -35.5031   58.0836   63.4277 C   0  0  0  0  0  0  0  0  0  0  0  0
  -33.9791   58.2901   63.6192 C   0  0  0  0  0  0  0  0  0  0  0  0
  -33.3122   59.1452   62.5161 C   0  0  0  0  0  0  0  0  0  0  0  0
  -31.9222   59.6885   62.9118 C   0  0  0  0  0  0  0  0  0  0  0  0
  -31.1606   60.3405   61.7515 C   0  0  0  0  0  0  0  0  0  0  0  0
  -31.2827   61.8584   61.6370 C   0  0  0  0  0  0  0  0  0  0  0  0
  -31.7621   62.5472   62.9301 C   0  0  0  0  0  0  0  0  0  0  0  0
  -32.3254   63.9646   62.7469 C   0  0  0  0  0  0  0  0  0  0  0  0
  -32.5660   64.2736   61.2665 C   0  0  0  0  0  0  0  0  0  0  0  0
  -31.8263   65.4718   60.6981 C   0  0  0  0  0  0  0  0  0  0  0  0
  -42.6856   59.2740   62.9923 C   0  0  0  0  0  0  0  0  0  0  0  0
  -42.1986   60.5775   62.5839 O   0  0  0  0  0  0  0  0  0  0  0  0
  -39.7259   61.7036   63.4756 O   0  0  0  0  0  0  0  0  0  0  0  0
  -38.0992   58.6007   61.2117 O   0  0  0  0  0  0  0  0  0  0  0  0
  -40.8851   59.6873   60.7488 O   0  0  0  0  0  0  0  0  0  0  0  0
  -40.9788   60.7163   61.7637 C   0  0  0  0  0  0  0  0  0  0  0  0
  -39.6457   60.6867   62.5249 C   0  0  0  0  0  0  0  0  0  0  0  0
  -38.4148   60.9543   61.6312 C   0  0  0  0  0  0  0  0  0  0  0  0
  -38.3943   59.8560   60.6041 C   0  0  0  0  0  0  0  0  0  0  0  0
  -39.7270   59.8058   59.8791 C   0  0  0  0  0  0  0  0  0  0  0  0
  -40.4948   61.5520   64.0472 H   0  0  0  0  0  0  0  0  0  0  0  0
  -37.2453   58.6553   61.6685 H   0  0  0  0  0  0  0  0  0  0  0  0
  -40.2699   57.5488   59.3088 O   0  0  0  0  0  0  0  0  0  0  0  0
  -39.5004   58.6445   58.9135 C   0  0  0  0  0  0  0  0  0  0  0  0
  -40.1242   56.8127   58.6942 H   0  0  0  0  0  0  0  0  0  0  0  0
  -37.1296   60.9107   62.2919 O   0  0  0  0  0  0  0  0  0  0  0  0
  -37.1296   63.3931   63.0368 O   0  0  0  0  0  0  0  0  0  0  0  0
  -35.1567   62.0306   63.4119 O   0  0  0  0  0  0  0  0  0  0  0  0
  -37.1205   61.7414   64.8027 O   0  0  0  0  0  0  0  0  0  0  0  0
  -36.6449   62.0342   63.4208 S   0  0  0  0  0  0  0  0  0  0  0  0
  -36.8291   63.6016   62.1384 H   0  0  0  0  0  0  0  0  0  0  0  0
  -38.0904   61.7419   64.8177 H   0  0  0  0  0  0  0  0  0  0  0  0
  2  1  1  0  0  0
  2  4  1  0  0  0
  2  5  1  0  0  0
 41 42  1  0  0  0
 41  1  1  0  0  0
 42 46  1  0  0  0
  1 24  1  0  0  0
 23 24  1  0  0  0
 23 25  1  0  0  0
 24 26  1  0  0  0
  3  4  2  0  0  0
 26 27  2  0  0  0
 27 28  1  0  0  0
 43 47  1  0  0  0
 43 51  1  0  0  0
 28 29  1  0  0  0
 56 48  1  0  0  0
 56 60  1  0  0  0
 29 30  1  0  0  0
 57 60  1  0  0  0
 57 61  1  0  0  0
 30 31  1  0  0  0
 44 49  1  0  0  0
 44 52  1  0  0  0
 31 32  1  0  0  0
 45 46  1  0  0  0
 45 50  1  0  0  0
 32 33  1  0  0  0
 53 54  1  0  0  0
 53 55  1  0  0  0
 33 34  1  0  0  0
 34 35  1  0  0  0
 35 36  1  0  0  0
 58 60  1  0  0  0
 36 37  1  0  0  0
 59 60  1  0  0  0
 59 62  1  0  0  0
 37 38  1  0  0  0
 38 39  1  0  0  0
 39 40  1  0  0  0
  4  6  1  0  0  0
  6  7  1  0  0  0
  7  8  1  0  0  0
  8  9  1  0  0  0
  9 10  1  0  0  0
 10 11  1  0  0  0
 11 12  1  0  0  0
 12 13  1  0  0  0
 13 14  1  0  0  0
 14 15  1  0  0  0
 15 16  1  0  0  0
 16 17  1  0  0  0
 17 18  1  0  0  0
 18 19  1  0  0  0
 19 20  1  0  0  0
 20 21  1  0  0  0
 21 22  1  0  0  0
 46 47  1  0  0  0
 47 48  1  0  0  0
 48 49  1  0  0  0
 49 50  1  0  0  0
 50 54  1  0  0  0
M  CHG 1  58  -1
M  END
> <minimizedAffinity>
-8.83038

> <CNNscore>
0.1415845156

> <CNNaffinity>
6.6160368919

> <CNN_VS>
0.9367283583

> <CNNaffinity_variance>
1.3235604763

$$$$
/media/chris/experiments/cd1a-new-docking/inputs/ligands/1onq_ligand.pdb


 62 62  0  0  0  0  0  0  0  0999 V2000
  -41.7115   60.6639   64.5692 C   0  0  0  0  0  0  0  0  0  0  0  0
  -42.5295   59.4687   64.6309 N   0  0  0  0  0  0  0  0  0  0  0  0
  -41.8079   58.4983   66.5506 O   0  0  0  0  0  0  0  0  0  0  0  0
  -42.5253   58.5121   65.5692 C   0  0  0  0  0  0  0  0  0  0  0  0
  -43.1674   59.3444   63.8915 H   0  0  0  0  0  0  0  0  0  0  0  0
  -43.5059   57.3986   65.3490 C   0  0  0  0  0  0  0  0  0  0  0  0
  -44.8095   58.0533   64.8921 C   0  0  0  0  0  0  0  0  0  0  0  0
  -45.7275   58.2799   66.0910 C   0  0  0  0  0  0  0  0  0  0  0  0
  -46.2392   59.6876   66.2778 C   0  0  0  0  0  0  0  0  0  0  0  0
  -47.6088   59.7722   65.6121 C   0  0  0  0  0  0  0  0  0  0  0  0
  -48.1800   58.3938   65.2537 C   0  0  0  0  0  0  0  0  0  0  0  0
  -49.7141   58.3582   65.1288 C   0  0  0  0  0  0  0  0  0  0  0  0
  -50.3867   59.6602   65.6164 C   0  0  0  0  0  0  0  0  0  0  0  0
  -51.1768   60.3178   64.4814 C   0  0  0  0  0  0  0  0  0  0  0  0
  -51.1778   59.5483   63.1660 C   0  0  0  0  0  0  0  0  0  0  0  0
  -50.2223   60.1488   62.1454 C   0  0  0  0  0  0  0  0  0  0  0  0
  -49.1691   59.1981   61.5716 C   0  0  0  0  0  0  0  0  0  0  0  0
  -49.8070   57.8254   61.4063 C   0  0  0  0  0  0  0  0  0  0  0  0
  -49.6469   57.1021   60.0773 C   0  0  0  0  0  0  0  0  0  0  0  0
  -48.9818   58.0121   59.0325 C   0  0  0  0  0  0  0  0  0  0  0  0
  -47.6418   57.4851   58.4869 C   0  0  0  0  0  0  0  0  0  0  0  0
  -47.0757   58.3349   57.3518 C   0  0  0  0  0  0  0  0  0  0  0  0
  -43.7352   61.2622   63.5982 O   0  0  0  0  0  0  0  0  0  0  0  0
  -42.3415   61.4372   63.4235 C   0  0  0  0  0  0  0  0  0  0  0  0
  -44.0041   61.6394   64.4506 H   0  0  0  0  0  0  0  0  0  0  0  0
  -41.8503   60.8619   62.0930 C   0  0  0  0  0  0  0  0  0  0  0  0
  -41.8140   61.5766   60.9554 C   0  0  0  0  0  0  0  0  0  0  0  0
  -41.3107   60.9294   59.6666 C   0  0  0  0  0  0  0  0  0  0  0  0
  -40.2022   59.8893   59.8851 C   0  0  0  0  0  0  0  0  0  0  0  0
  -40.3906   58.5498   59.1494 C   0  0  0  0  0  0  0  0  0  0  0  0
  -41.5529   57.7397   59.7723 C   0  0  0  0  0  0  0  0  0  0  0  0
  -41.1246   56.5682   60.6921 C   0  0  0  0  0  0  0  0  0  0  0  0
  -41.2997   56.8521   62.2025 C   0  0  0  0  0  0  0  0  0  0  0  0
  -40.0317   57.4216   62.8748 C   0  0  0  0  0  0  0  0  0  0  0  0
  -38.7432   57.1579   62.0865 C   0  0  0  0  0  0  0  0  0  0  0  0
  -37.7923   58.3437   61.9379 C   0  0  0  0  0  0  0  0  0  0  0  0
  -36.3084   57.9871   62.1547 C   0  0  0  0  0  0  0  0  0  0  0  0
  -35.7087   58.4617   63.4870 C   0  0  0  0  0  0  0  0  0  0  0  0
  -36.2015   57.5969   64.6508 C   0  0  0  0  0  0  0  0  0  0  0  0
  -37.3993   58.1222   65.4223 C   0  0  0  0  0  0  0  0  0  0  0  0
  -40.1864   60.4238   64.4977 C   0  0  0  0  0  0  0  0  0  0  0  0
  -39.3759   61.5358   64.0395 O   0  0  0  0  0  0  0  0  0  0  0  0
  -37.3108   61.7666   62.0750 O   0  0  0  0  0  0  0  0  0  0  0  0
  -35.6221   64.3195   64.9087 O   0  0  0  0  0  0  0  0  0  0  0  0
  -37.6536   62.1918   65.6171 O   0  0  0  0  0  0  0  0  0  0  0  0
  -37.9287   61.5971   64.3255 C   0  0  0  0  0  0  0  0  0  0  0  0
  -37.0715   62.3668   63.3106 C   0  0  0  0  0  0  0  0  0  0  0  0
  -35.5557   62.2962   63.5986 C   0  0  0  0  0  0  0  0  0  0  0  0
  -35.3555   62.9199   64.9523 C   0  0  0  0  0  0  0  0  0  0  0  0
  -36.2450   62.2315   65.9717 C   0  0  0  0  0  0  0  0  0  0  0  0
  -38.2597   61.8017   61.8769 H   0  0  0  0  0  0  0  0  0  0  0  0
  -35.0440   64.7386   64.2522 H   0  0  0  0  0  0  0  0  0  0  0  0
  -34.5159   63.0551   67.4020 O   0  0  0  0  0  0  0  0  0  0  0  0
  -35.9019   63.0065   67.2421 C   0  0  0  0  0  0  0  0  0  0  0  0
  -34.3006   63.5476   68.2094 H   0  0  0  0  0  0  0  0  0  0  0  0
  -34.7023   63.0272   62.6891 O   0  0  0  0  0  0  0  0  0  0  0  0
  -32.9256   61.1538   62.4639 O   0  0  0  0  0  0  0  0  0  0  0  0
  -32.3252   63.2518   63.5257 O   0  0  0  0  0  0  0  0  0  0  0  0
  -32.5774   63.1321   61.1181 O   0  0  0  0  0  0  0  0  0  0  0  0
  -33.1069   62.6351   62.4196 S   0  0  0  0  0  0  0  0  0  0  0  0
  -33.2652   60.8116   63.3056 H   0  0  0  0  0  0  0  0  0  0  0  0
  -33.0816   62.7348   60.3909 H   0  0  0  0  0  0  0  0  0  0  0  0
  2  1  1  0  0  0
  2  4  1  0  0  0
  2  5  1  0  0  0
 41 42  1  0  0  0
 41  1  1  0  0  0
 42 46  1  0  0  0
  1 24  1  0  0  0
 23 24  1  0  0  0
 23 25  1  0  0  0
 24 26  1  0  0  0
  3  4  2  0  0  0
 26 27  2  0  0  0
 27 28  1  0  0  0
 43 47  1  0  0  0
 43 51  1  0  0  0
 28 29  1  0  0  0
 56 48  1  0  0  0
 56 60  1  0  0  0
 29 30  1  0  0  0
 57 60  1  0  0  0
 57 61  1  0  0  0
 30 31  1  0  0  0
 44 49  1  0  0  0
 44 52  1  0  0  0
 31 32  1  0  0  0
 45 46  1  0  0  0
 45 50  1  0  0  0
 32 33  1  0  0  0
 53 54  1  0  0  0
 53 55  1  0  0  0
 33 34  1  0  0  0
 34 35  1  0  0  0
 35 36  1  0  0  0
 58 60  1  0  0  0
 36 37  1  0  0  0
 59 60  1  0  0  0
 59 62  1  0  0  0
 37 38  1  0  0  0
 38 39  1  0  0  0
 39 40  1  0  0  0
  4  6  1  0  0  0
  6  7  1  0  0  0
  7  8  1  0  0  0
  8  9  1  0  0  0
  9 10  1  0  0  0
 10 11  1  0  0  0
 11 12  1  0  0  0
 12 13  1  0  0  0
 13 14  1  0  0  0
 14 15  1  0  0  0
 15 16  1  0  0  0
 16 17  1  0  0  0
 17 18  1  0  0  0
 18 19  1  0  0  0
 19 20  1  0  0  0
 20 21  1  0  0  0
 21 22  1  0  0  0
 46 47  1  0  0  0
 47 48  1  0  0  0
 48 49  1  0  0  0
 49 50  1  0  0  0
 50 54  1  0  0  0
M  CHG 1  58  -1
M  END
> <minimizedAffinity>
-9.52207

> <CNNscore>
0.1250543743

> <CNNaffinity>
7.0802831650

> <CNN_VS>
0.8854203820

> <CNNaffinity_variance>
1.9048010111

$$$$
/media/chris/experiments/cd1a-new-docking/inputs/ligands/1onq_ligand.pdb


 62 62  0  0  0  0  0  0  0  0999 V2000
  -37.6505   59.2909   64.1065 C   0  0  0  0  0  0  0  0  0  0  0  0
  -38.8865   59.2004   64.8584 N   0  0  0  0  0  0  0  0  0  0  0  0
  -39.1794   61.3413   65.5499 O   0  0  0  0  0  0  0  0  0  0  0  0
  -39.5379   60.1808   65.4987 C   0  0  0  0  0  0  0  0  0  0  0  0
  -39.2986   58.3075   64.9043 H   0  0  0  0  0  0  0  0  0  0  0  0
  -40.8060   59.7633   66.1825 C   0  0  0  0  0  0  0  0  0  0  0  0
  -41.7677   60.9463   66.0718 C   0  0  0  0  0  0  0  0  0  0  0  0
  -43.1210   60.5766   66.6744 C   0  0  0  0  0  0  0  0  0  0  0  0
  -44.3100   60.6838   65.7506 C   0  0  0  0  0  0  0  0  0  0  0  0
  -45.3139   59.6132   66.1655 C   0  0  0  0  0  0  0  0  0  0  0  0
  -46.7636   60.0060   65.8509 C   0  0  0  0  0  0  0  0  0  0  0  0
  -47.1825   59.7599   64.3900 C   0  0  0  0  0  0  0  0  0  0  0  0
  -48.1162   60.8602   63.8395 C   0  0  0  0  0  0  0  0  0  0  0  0
  -49.4824   60.2747   63.4714 C   0  0  0  0  0  0  0  0  0  0  0  0
  -49.4462   58.8624   62.9002 C   0  0  0  0  0  0  0  0  0  0  0  0
  -50.7717   58.4603   62.2704 C   0  0  0  0  0  0  0  0  0  0  0  0
  -50.6890   57.8262   60.8800 C   0  0  0  0  0  0  0  0  0  0  0  0
  -49.5579   58.5011   60.1159 C   0  0  0  0  0  0  0  0  0  0  0  0
  -48.6061   57.6337   59.3053 C   0  0  0  0  0  0  0  0  0  0  0  0
  -47.8197   58.4796   58.2914 C   0  0  0  0  0  0  0  0  0  0  0  0
  -47.3500   57.7083   57.0442 C   0  0  0  0  0  0  0  0  0  0  0  0
  -47.3833   56.1923   57.2235 C   0  0  0  0  0  0  0  0  0  0  0  0
  -36.2780   57.6625   63.1789 O   0  0  0  0  0  0  0  0  0  0  0  0
  -37.6474   57.9930   63.3173 C   0  0  0  0  0  0  0  0  0  0  0  0
  -35.8879   57.5269   64.0567 H   0  0  0  0  0  0  0  0  0  0  0  0
  -38.3252   58.2210   61.9641 C   0  0  0  0  0  0  0  0  0  0  0  0
  -37.6441   58.5278   60.8468 C   0  0  0  0  0  0  0  0  0  0  0  0
  -38.3943   58.7411   59.5335 C   0  0  0  0  0  0  0  0  0  0  0  0
  -39.7285   59.4847   59.6934 C   0  0  0  0  0  0  0  0  0  0  0  0
  -40.9852   58.6940   59.2856 C   0  0  0  0  0  0  0  0  0  0  0  0
  -40.8029   57.1847   59.5757 C   0  0  0  0  0  0  0  0  0  0  0  0
  -41.6431   56.6313   60.7546 C   0  0  0  0  0  0  0  0  0  0  0  0
  -40.8269   55.8200   61.7881 C   0  0  0  0  0  0  0  0  0  0  0  0
  -41.5463   55.6451   63.1431 C   0  0  0  0  0  0  0  0  0  0  0  0
  -41.5901   56.9236   63.9887 C   0  0  0  0  0  0  0  0  0  0  0  0
  -42.9717   57.5358   64.2089 C   0  0  0  0  0  0  0  0  0  0  0  0
  -43.3436   58.6264   63.1850 C   0  0  0  0  0  0  0  0  0  0  0  0
  -42.1751   59.5016   62.7069 C   0  0  0  0  0  0  0  0  0  0  0  0
  -42.5914   60.9725   62.6153 C   0  0  0  0  0  0  0  0  0  0  0  0
  -42.1889   61.7105   61.3507 C   0  0  0  0  0  0  0  0  0  0  0  0
  -36.3871   59.6083   64.9382 C   0  0  0  0  0  0  0  0  0  0  0  0
  -35.2154   60.0375   64.1991 O   0  0  0  0  0  0  0  0  0  0  0  0
  -32.9919   61.1435   62.7814 O   0  0  0  0  0  0  0  0  0  0  0  0
  -34.6890   64.7571   63.9900 O   0  0  0  0  0  0  0  0  0  0  0  0
  -35.2128   62.1383   65.4125 O   0  0  0  0  0  0  0  0  0  0  0  0
  -34.4255   61.2084   64.6295 C   0  0  0  0  0  0  0  0  0  0  0  0
  -33.7783   62.0354   63.5095 C   0  0  0  0  0  0  0  0  0  0  0  0
  -32.8704   63.1740   64.0243 C   0  0  0  0  0  0  0  0  0  0  0  0
  -33.7545   64.0847   64.8307 C   0  0  0  0  0  0  0  0  0  0  0  0
  -34.4707   63.2865   65.9050 C   0  0  0  0  0  0  0  0  0  0  0  0
  -33.5464   60.4201   62.4495 H   0  0  0  0  0  0  0  0  0  0  0  0
  -34.2107   65.2598   63.3122 H   0  0  0  0  0  0  0  0  0  0  0  0
  -36.6516   64.1931   66.2731 O   0  0  0  0  0  0  0  0  0  0  0  0
  -35.3023   64.3732   66.5829 C   0  0  0  0  0  0  0  0  0  0  0  0
  -37.1776   64.8844   66.7047 H   0  0  0  0  0  0  0  0  0  0  0  0
  -32.2565   64.0030   63.0115 O   0  0  0  0  0  0  0  0  0  0  0  0
  -32.2272   65.0846   60.6564 O   0  0  0  0  0  0  0  0  0  0  0  0
  -34.0003   63.5338   61.2395 O   0  0  0  0  0  0  0  0  0  0  0  0
  -31.7723   62.7119   60.7547 O   0  0  0  0  0  0  0  0  0  0  0  0
  -32.5469   63.8198   61.3824 S   0  0  0  0  0  0  0  0  0  0  0  0
  -32.7232   65.8185   61.0517 H   0  0  0  0  0  0  0  0  0  0  0  0
  -30.8230   62.8904   60.8433 H   0  0  0  0  0  0  0  0  0  0  0  0
  2  1  1  0  0  0
  2  4  1  0  0  0
  2  5  1  0  0  0
 41 42  1  0  0  0
 41  1  1  0  0  0
 42 46  1  0  0  0
  1 24  1  0  0  0
 23 24  1  0  0  0
 23 25  1  0  0  0
 24 26  1  0  0  0
  3  4  2  0  0  0
 26 27  2  0  0  0
 27 28  1  0  0  0
 43 47  1  0  0  0
 43 51  1  0  0  0
 28 29  1  0  0  0
 56 48  1  0  0  0
 56 60  1  0  0  0
 29 30  1  0  0  0
 57 60  1  0  0  0
 57 61  1  0  0  0
 30 31  1  0  0  0
 44 49  1  0  0  0
 44 52  1  0  0  0
 31 32  1  0  0  0
 45 46  1  0  0  0
 45 50  1  0  0  0
 32 33  1  0  0  0
 53 54  1  0  0  0
 53 55  1  0  0  0
 33 34  1  0  0  0
 34 35  1  0  0  0
 35 36  1  0  0  0
 58 60  1  0  0  0
 36 37  1  0  0  0
 59 60  1  0  0  0
 59 62  1  0  0  0
 37 38  1  0  0  0
 38 39  1  0  0  0
 39 40  1  0  0  0
  4  6  1  0  0  0
  6  7  1  0  0  0
  7  8  1  0  0  0
  8  9  1  0  0  0
  9 10  1  0  0  0
 10 11  1  0  0  0
 11 12  1  0  0  0
 12 13  1  0  0  0
 13 14  1  0  0  0
 14 15  1  0  0  0
 15 16  1  0  0  0
 16 17  1  0  0  0
 17 18  1  0  0  0
 18 19  1  0  0  0
 19 20  1  0  0  0
 20 21  1  0  0  0
 21 22  1  0  0  0
 46 47  1  0  0  0
 47 48  1  0  0  0
 48 49  1  0  0  0
 49 50  1  0  0  0
 50 54  1  0  0  0
M  CHG 1  58  -1
M  END
> <minimizedAffinity>
-9.30054

> <CNNscore>
0.1175217777

> <CNNaffinity>
7.0067992210

> <CNN_VS>
0.8234515190

> <CNNaffinity_variance>
1.4477882385

$$$$
/media/chris/experiments/cd1a-new-docking/inputs/ligands/1onq_ligand.pdb


 62 62  0  0  0  0  0  0  0  0999 V2000
  -42.9492   60.0388   65.1626 C   0  0  0  0  0  0  0  0  0  0  0  0
  -44.2025   59.5985   65.7427 N   0  0  0  0  0  0  0  0  0  0  0  0
  -44.0294   57.3415   65.5898 O   0  0  0  0  0  0  0  0  0  0  0  0
  -44.6395   58.3430   65.9104 C   0  0  0  0  0  0  0  0  0  0  0  0
  -44.8079   60.3105   66.0519 H   0  0  0  0  0  0  0  0  0  0  0  0
  -45.9880   58.2178   66.5552 C   0  0  0  0  0  0  0  0  0  0  0  0
  -46.6080   59.6151   66.5376 C   0  0  0  0  0  0  0  0  0  0  0  0
  -48.0835   59.5262   66.1553 C   0  0  0  0  0  0  0  0  0  0  0  0
  -48.4533   58.4270   65.1891 C   0  0  0  0  0  0  0  0  0  0  0  0
  -49.9749   58.3931   65.0901 C   0  0  0  0  0  0  0  0  0  0  0  0
  -50.6088   59.7842   65.2225 C   0  0  0  0  0  0  0  0  0  0  0  0
  -51.0551   60.4054   63.8863 C   0  0  0  0  0  0  0  0  0  0  0  0
  -50.8616   59.4521   62.6866 C   0  0  0  0  0  0  0  0  0  0  0  0
  -49.5806   59.7986   61.9225 C   0  0  0  0  0  0  0  0  0  0  0  0
  -49.6510   59.5854   60.4153 C   0  0  0  0  0  0  0  0  0  0  0  0
  -50.1657   58.2005   60.0517 C   0  0  0  0  0  0  0  0  0  0  0  0
  -49.5244   57.0287   60.7986 C   0  0  0  0  0  0  0  0  0  0  0  0
  -48.8292   56.1375   59.7782 C   0  0  0  0  0  0  0  0  0  0  0  0
  -47.4386   56.5259   59.2981 C   0  0  0  0  0  0  0  0  0  0  0  0
  -47.2814   56.2571   57.7930 C   0  0  0  0  0  0  0  0  0  0  0  0
  -47.7839   57.3948   56.8853 C   0  0  0  0  0  0  0  0  0  0  0  0
  -46.9396   58.6633   56.9831 C   0  0  0  0  0  0  0  0  0  0  0  0
  -42.5636   61.5627   66.8728 O   0  0  0  0  0  0  0  0  0  0  0  0
  -42.0967   60.3172   66.3886 C   0  0  0  0  0  0  0  0  0  0  0  0
  -43.4982   61.4836   67.1202 H   0  0  0  0  0  0  0  0  0  0  0  0
  -40.6230   60.3734   65.9793 C   0  0  0  0  0  0  0  0  0  0  0  0
  -39.9979   59.3610   65.3544 C   0  0  0  0  0  0  0  0  0  0  0  0
  -38.5232   59.4939   64.9792 C   0  0  0  0  0  0  0  0  0  0  0  0
  -37.6527   60.1054   66.0867 C   0  0  0  0  0  0  0  0  0  0  0  0
  -37.0804   61.5036   65.7889 C   0  0  0  0  0  0  0  0  0  0  0  0
  -37.2579   61.8629   64.2941 C   0  0  0  0  0  0  0  0  0  0  0  0
  -35.9446   62.1423   63.5201 C   0  0  0  0  0  0  0  0  0  0  0  0
  -34.8547   62.8521   64.3574 C   0  0  0  0  0  0  0  0  0  0  0  0
  -33.4223   62.3688   64.0433 C   0  0  0  0  0  0  0  0  0  0  0  0
  -33.3528   61.3375   62.9106 C   0  0  0  0  0  0  0  0  0  0  0  0
  -32.1877   60.3520   62.9704 C   0  0  0  0  0  0  0  0  0  0  0  0
  -32.5803   58.9484   63.4720 C   0  0  0  0  0  0  0  0  0  0  0  0
  -33.4176   58.9236   64.7597 C   0  0  0  0  0  0  0  0  0  0  0  0
  -34.8778   58.5732   64.4594 C   0  0  0  0  0  0  0  0  0  0  0  0
  -35.1232   57.6703   63.2635 C   0  0  0  0  0  0  0  0  0  0  0  0
  -43.0614   61.1702   64.1155 C   0  0  0  0  0  0  0  0  0  0  0  0
  -42.1950   61.0693   62.9568 O   0  0  0  0  0  0  0  0  0  0  0  0
  -41.0419   60.8126   60.3527 O   0  0  0  0  0  0  0  0  0  0  0  0
  -39.5115   57.2768   61.9514 O   0  0  0  0  0  0  0  0  0  0  0  0
  -41.9643   58.6567   63.0631 O   0  0  0  0  0  0  0  0  0  0  0  0
  -42.0797   59.8100   62.1947 C   0  0  0  0  0  0  0  0  0  0  0  0
  -40.9050   59.7214   61.2100 C   0  0  0  0  0  0  0  0  0  0  0  0
  -40.9049   58.4327   60.3586 C   0  0  0  0  0  0  0  0  0  0  0  0
  -40.7934   57.2885   61.3280 C   0  0  0  0  0  0  0  0  0  0  0  0
  -41.8979   57.3840   62.3649 C   0  0  0  0  0  0  0  0  0  0  0  0
  -41.0440   61.6326   60.8709 H   0  0  0  0  0  0  0  0  0  0  0  0
  -38.8220   57.2155   61.2719 H   0  0  0  0  0  0  0  0  0  0  0  0
  -41.3143   55.0668   62.4209 O   0  0  0  0  0  0  0  0  0  0  0  0
  -41.6003   56.1645   63.2346 C   0  0  0  0  0  0  0  0  0  0  0  0
  -41.1257   54.2936   62.9755 H   0  0  0  0  0  0  0  0  0  0  0  0
  -39.8045   58.2840   59.4329 O   0  0  0  0  0  0  0  0  0  0  0  0
  -38.4325   60.3353   60.2248 O   0  0  0  0  0  0  0  0  0  0  0  0
  -37.6277   59.0031   58.3628 O   0  0  0  0  0  0  0  0  0  0  0  0
  -37.4491   58.1638   60.6296 O   0  0  0  0  0  0  0  0  0  0  0  0
  -38.2995   58.9479   59.6896 S   0  0  0  0  0  0  0  0  0  0  0  0
  -38.9840   60.8617   59.6249 H   0  0  0  0  0  0  0  0  0  0  0  0
  -37.8798   58.1228   61.4977 H   0  0  0  0  0  0  0  0  0  0  0  0
  2  1  1  0  0  0
  2  4  1  0  0  0
  2  5  1  0  0  0
 41 42  1  0  0  0
 41  1  1  0  0  0
 42 46  1  0  0  0
  1 24  1  0  0  0
 23 24  1  0  0  0
 23 25  1  0  0  0
 24 26  1  0  0  0
  3  4  2  0  0  0
 26 27  2  0  0  0
 27 28  1  0  0  0
 43 47  1  0  0  0
 43 51  1  0  0  0
 28 29  1  0  0  0
 56 48  1  0  0  0
 56 60  1  0  0  0
 29 30  1  0  0  0
 57 60  1  0  0  0
 57 61  1  0  0  0
 30 31  1  0  0  0
 44 49  1  0  0  0
 44 52  1  0  0  0
 31 32  1  0  0  0
 45 46  1  0  0  0
 45 50  1  0  0  0
 32 33  1  0  0  0
 53 54  1  0  0  0
 53 55  1  0  0  0
 33 34  1  0  0  0
 34 35  1  0  0  0
 35 36  1  0  0  0
 58 60  1  0  0  0
 36 37  1  0  0  0
 59 60  1  0  0  0
 59 62  1  0  0  0
 37 38  1  0  0  0
 38 39  1  0  0  0
 39 40  1  0  0  0
  4  6  1  0  0  0
  6  7  1  0  0  0
  7  8  1  0  0  0
  8  9  1  0  0  0
  9 10  1  0  0  0
 10 11  1  0  0  0
 11 12  1  0  0  0
 12 13  1  0  0  0
 13 14  1  0  0  0
 14 15  1  0  0  0
 15 16  1  0  0  0
 16 17  1  0  0  0
 17 18  1  0  0  0
 18 19  1  0  0  0
 19 20  1  0  0  0
 20 21  1  0  0  0
 21 22  1  0  0  0
 46 47  1  0  0  0
 47 48  1  0  0  0
 48 49  1  0  0  0
 49 50  1  0  0  0
 50 54  1  0  0  0
M  CHG 1  58  -1
M  END
> <minimizedAffinity>
-9.08820

> <CNNscore>
0.1172937751

> <CNNaffinity>
6.9447832108

> <CNN_VS>
0.8145798445

> <CNNaffinity_variance>
2.0522303581

$$$$
