/media/chris/experiments/cd1a-new-docking/inputs/ligands/1onq_ligand.pdb


 62 62  0  0  0  0  0  0  0  0999 V2000
  -41.0182   59.0724   64.6100 C   0  0  0  0  0  0  0  0  0  0  0  0
  -42.1536   59.9551   64.4288 N   0  0  0  0  0  0  0  0  0  0  0  0
  -42.0250   61.2775   66.2679 O   0  0  0  0  0  0  0  0  0  0  0  0
  -42.5630   60.9496   65.2283 C   0  0  0  0  0  0  0  0  0  0  0  0
  -42.6909   59.8054   63.6175 H   0  0  0  0  0  0  0  0  0  0  0  0
  -43.7786   61.6894   64.7543 C   0  0  0  0  0  0  0  0  0  0  0  0
  -43.8399   61.4962   63.2390 C   0  0  0  0  0  0  0  0  0  0  0  0
  -42.7856   62.3664   62.5592 C   0  0  0  0  0  0  0  0  0  0  0  0
  -42.4040   61.9701   61.1536 C   0  0  0  0  0  0  0  0  0  0  0  0
  -41.3517   60.8708   61.2542 C   0  0  0  0  0  0  0  0  0  0  0  0
  -40.8777   60.3762   59.8810 C   0  0  0  0  0  0  0  0  0  0  0  0
  -41.1314   58.8792   59.6261 C   0  0  0  0  0  0  0  0  0  0  0  0
  -39.8782   58.1367   59.1128 C   0  0  0  0  0  0  0  0  0  0  0  0
  -38.6210   58.9827   59.3332 C   0  0  0  0  0  0  0  0  0  0  0  0
  -37.7378   58.5359   60.4919 C   0  0  0  0  0  0  0  0  0  0  0  0
  -38.4428   57.5452   61.4065 C   0  0  0  0  0  0  0  0  0  0  0  0
  -38.0623   57.6110   62.8874 C   0  0  0  0  0  0  0  0  0  0  0  0
  -36.5669   57.8817   62.9829 C   0  0  0  0  0  0  0  0  0  0  0  0
  -35.9204   57.9275   64.3595 C   0  0  0  0  0  0  0  0  0  0  0  0
  -34.8692   59.0459   64.4364 C   0  0  0  0  0  0  0  0  0  0  0  0
  -33.4465   58.5631   64.7740 C   0  0  0  0  0  0  0  0  0  0  0  0
  -32.4175   58.9202   63.7038 C   0  0  0  0  0  0  0  0  0  0  0  0
  -41.0737   56.7537   64.7387 O   0  0  0  0  0  0  0  0  0  0  0  0
  -41.6271   57.8994   65.3589 C   0  0  0  0  0  0  0  0  0  0  0  0
  -40.1096   56.7616   64.8465 H   0  0  0  0  0  0  0  0  0  0  0  0
  -43.1509   57.9484   65.2250 C   0  0  0  0  0  0  0  0  0  0  0  0
  -43.9846   57.6159   66.2253 C   0  0  0  0  0  0  0  0  0  0  0  0
  -45.4954   57.6903   66.0124 C   0  0  0  0  0  0  0  0  0  0  0  0
  -45.9228   58.7011   64.9381 C   0  0  0  0  0  0  0  0  0  0  0  0
  -47.1015   59.6171   65.3161 C   0  0  0  0  0  0  0  0  0  0  0  0
  -47.4583   60.5644   64.1454 C   0  0  0  0  0  0  0  0  0  0  0  0
  -48.9394   60.5263   63.6913 C   0  0  0  0  0  0  0  0  0  0  0  0
  -49.6223   59.1501   63.8721 C   0  0  0  0  0  0  0  0  0  0  0  0
  -50.9927   59.0436   63.1687 C   0  0  0  0  0  0  0  0  0  0  0  0
  -50.9471   58.2801   61.8396 C   0  0  0  0  0  0  0  0  0  0  0  0
  -49.6599   57.5106   61.5513 C   0  0  0  0  0  0  0  0  0  0  0  0
  -48.7153   58.2197   60.5608 C   0  0  0  0  0  0  0  0  0  0  0  0
  -48.9678   57.9081   59.0779 C   0  0  0  0  0  0  0  0  0  0  0  0
  -47.8340   58.4483   58.2017 C   0  0  0  0  0  0  0  0  0  0  0  0
  -47.4647   57.6162   56.9865 C   0  0  0  0  0  0  0  0  0  0  0  0
  -39.7612   59.7234   65.2303 C   0  0  0  0  0  0  0  0  0  0  0  0
  -39.2922   60.9477   64.6102 O   0  0  0  0  0  0  0  0  0  0  0  0
  -37.6077   61.4554   62.3559 O   0  0  0  0  0  0  0  0  0  0  0  0
  -36.1852   64.5413   64.7751 O   0  0  0  0  0  0  0  0  0  0  0  0
  -37.5721   62.0909   65.8829 O   0  0  0  0  0  0  0  0  0  0  0  0
  -37.8718   61.3448   64.6782 C   0  0  0  0  0  0  0  0  0  0  0  0
  -37.3510   62.1945   63.5100 C   0  0  0  0  0  0  0  0  0  0  0  0
  -35.8344   62.4782   63.5770 C   0  0  0  0  0  0  0  0  0  0  0  0
  -35.6053   63.2414   64.8524 C   0  0  0  0  0  0  0  0  0  0  0  0
  -36.1749   62.4643   66.0254 C   0  0  0  0  0  0  0  0  0  0  0  0
  -38.5575   61.2674   62.2968 H   0  0  0  0  0  0  0  0  0  0  0  0
  -35.8077   65.0194   64.0200 H   0  0  0  0  0  0  0  0  0  0  0  0
  -36.2592   62.8106   68.3890 O   0  0  0  0  0  0  0  0  0  0  0  0
  -35.8532   63.3987   67.1897 C   0  0  0  0  0  0  0  0  0  0  0  0
  -36.0539   63.4059   69.1268 H   0  0  0  0  0  0  0  0  0  0  0  0
  -35.2949   63.2981   62.5156 O   0  0  0  0  0  0  0  0  0  0  0  0
  -33.3298   63.6199   60.8568 O   0  0  0  0  0  0  0  0  0  0  0  0
  -32.9604   62.4160   62.9313 O   0  0  0  0  0  0  0  0  0  0  0  0
  -33.1818   64.8295   62.9452 O   0  0  0  0  0  0  0  0  0  0  0  0
  -33.6653   63.5704   62.3107 S   0  0  0  0  0  0  0  0  0  0  0  0
  -33.6374   62.8070   60.4261 H   0  0  0  0  0  0  0  0  0  0  0  0
  -33.6365   65.5878   62.5462 H   0  0  0  0  0  0  0  0  0  0  0  0
  2  1  1  0  0  0
  2  4  1  0  0  0
  2  5  1  0  0  0
 41 42  1  0  0  0
 41  1  1  0  0  0
 42 46  1  0  0  0
  1 24  1  0  0  0
 23 24  1  0  0  0
 23 25  1  0  0  0
 24 26  1  0  0  0
  3  4  2  0  0  0
 26 27  2  0  0  0
 27 28  1  0  0  0
 43 47  1  0  0  0
 43 51  1  0  0  0
 28 29  1  0  0  0
 56 48  1  0  0  0
 56 60  1  0  0  0
 29 30  1  0  0  0
 57 60  1  0  0  0
 57 61  1  0  0  0
 30 31  1  0  0  0
 44 49  1  0  0  0
 44 52  1  0  0  0
 31 32  1  0  0  0
 45 46  1  0  0  0
 45 50  1  0  0  0
 32 33  1  0  0  0
 53 54  1  0  0  0
 53 55  1  0  0  0
 33 34  1  0  0  0
 34 35  1  0  0  0
 35 36  1  0  0  0
 58 60  1  0  0  0
 36 37  1  0  0  0
 59 60  1  0  0  0
 59 62  1  0  0  0
 37 38  1  0  0  0
 38 39  1  0  0  0
 39 40  1  0  0  0
  4  6  1  0  0  0
  6  7  1  0  0  0
  7  8  1  0  0  0
  8  9  1  0  0  0
  9 10  1  0  0  0
 10 11  1  0  0  0
 11 12  1  0  0  0
 12 13  1  0  0  0
 13 14  1  0  0  0
 14 15  1  0  0  0
 15 16  1  0  0  0
 16 17  1  0  0  0
 17 18  1  0  0  0
 18 19  1  0  0  0
 19 20  1  0  0  0
 20 21  1  0  0  0
 21 22  1  0  0  0
 46 47  1  0  0  0
 47 48  1  0  0  0
 48 49  1  0  0  0
 49 50  1  0  0  0
 50 54  1  0  0  0
M  CHG 1  58  -1
M  END
> <minimizedAffinity>
-9.64668

> <CNNscore>
0.2957068086

> <CNNaffinity>
7.1986322403

> <CNN_VS>
2.1286845207

> <CNNaffinity_variance>
2.4178137779

$$$$
/media/chris/experiments/cd1a-new-docking/inputs/ligands/1onq_ligand.pdb


 62 62  0  0  0  0  0  0  0  0999 V2000
  -41.4346   60.0722   64.0678 C   0  0  0  0  0  0  0  0  0  0  0  0
  -42.2175   59.9421   65.2808 N   0  0  0  0  0  0  0  0  0  0  0  0
  -43.9400   61.3658   64.8891 O   0  0  0  0  0  0  0  0  0  0  0  0
  -43.3609   60.5651   65.5972 C   0  0  0  0  0  0  0  0  0  0  0  0
  -41.8653   59.3183   65.9562 H   0  0  0  0  0  0  0  0  0  0  0  0
  -43.9335   60.2057   66.9361 C   0  0  0  0  0  0  0  0  0  0  0  0
  -45.4381   60.0291   66.7305 C   0  0  0  0  0  0  0  0  0  0  0  0
  -45.7440   58.5885   66.3279 C   0  0  0  0  0  0  0  0  0  0  0  0
  -46.8301   58.4044   65.2960 C   0  0  0  0  0  0  0  0  0  0  0  0
  -46.9251   59.6964   64.4912 C   0  0  0  0  0  0  0  0  0  0  0  0
  -48.2377   60.4527   64.7366 C   0  0  0  0  0  0  0  0  0  0  0  0
  -49.0144   59.9838   65.9805 C   0  0  0  0  0  0  0  0  0  0  0  0
  -50.4378   59.4857   65.6471 C   0  0  0  0  0  0  0  0  0  0  0  0
  -50.4422   58.7055   64.3295 C   0  0  0  0  0  0  0  0  0  0  0  0
  -51.1776   59.3844   63.1803 C   0  0  0  0  0  0  0  0  0  0  0  0
  -50.4577   59.2102   61.8513 C   0  0  0  0  0  0  0  0  0  0  0  0
  -50.6620   57.8661   61.1485 C   0  0  0  0  0  0  0  0  0  0  0  0
  -49.3006   57.3517   60.7006 C   0  0  0  0  0  0  0  0  0  0  0  0
  -49.0505   57.1498   59.2133 C   0  0  0  0  0  0  0  0  0  0  0  0
  -48.1847   58.2839   58.6424 C   0  0  0  0  0  0  0  0  0  0  0  0
  -47.0644   57.8171   57.6948 C   0  0  0  0  0  0  0  0  0  0  0  0
  -47.2551   56.3879   57.1919 C   0  0  0  0  0  0  0  0  0  0  0  0
  -41.3606   57.7643   63.8154 O   0  0  0  0  0  0  0  0  0  0  0  0
  -41.9371   58.9137   63.2236 C   0  0  0  0  0  0  0  0  0  0  0  0
  -41.6744   57.6793   64.7293 H   0  0  0  0  0  0  0  0  0  0  0  0
  -41.4815   59.1067   61.7753 C   0  0  0  0  0  0  0  0  0  0  0  0
  -41.6097   58.1552   60.8348 C   0  0  0  0  0  0  0  0  0  0  0  0
  -41.1291   58.4249   59.4101 C   0  0  0  0  0  0  0  0  0  0  0  0
  -39.6571   58.0585   59.1708 C   0  0  0  0  0  0  0  0  0  0  0  0
  -38.6342   59.1634   59.4936 C   0  0  0  0  0  0  0  0  0  0  0  0
  -37.6288   58.6841   60.5682 C   0  0  0  0  0  0  0  0  0  0  0  0
  -38.0886   57.4653   61.4076 C   0  0  0  0  0  0  0  0  0  0  0  0
  -38.1657   57.7364   62.9286 C   0  0  0  0  0  0  0  0  0  0  0  0
  -36.8164   58.1578   63.5499 C   0  0  0  0  0  0  0  0  0  0  0  0
  -35.6001   57.4914   62.8956 C   0  0  0  0  0  0  0  0  0  0  0  0
  -34.4775   58.4284   62.4547 C   0  0  0  0  0  0  0  0  0  0  0  0
  -33.0624   57.8752   62.7144 C   0  0  0  0  0  0  0  0  0  0  0  0
  -32.3022   58.5393   63.8724 C   0  0  0  0  0  0  0  0  0  0  0  0
  -33.1872   58.6548   65.1167 C   0  0  0  0  0  0  0  0  0  0  0  0
  -33.9026   59.9792   65.3159 C   0  0  0  0  0  0  0  0  0  0  0  0
  -39.9061   60.1803   64.2704 C   0  0  0  0  0  0  0  0  0  0  0  0
  -39.3128   61.4842   64.0440 O   0  0  0  0  0  0  0  0  0  0  0  0
  -37.3695   61.8271   61.9745 O   0  0  0  0  0  0  0  0  0  0  0  0
  -35.8545   64.6988   64.5932 O   0  0  0  0  0  0  0  0  0  0  0  0
  -37.6086   62.4073   65.5031 O   0  0  0  0  0  0  0  0  0  0  0  0
  -37.8704   61.7164   64.2575 C   0  0  0  0  0  0  0  0  0  0  0  0
  -37.1460   62.5168   63.1656 C   0  0  0  0  0  0  0  0  0  0  0  0
  -35.6211   62.6253   63.3845 C   0  0  0  0  0  0  0  0  0  0  0  0
  -35.4341   63.3405   64.6940 C   0  0  0  0  0  0  0  0  0  0  0  0
  -36.1992   62.6176   65.7878 C   0  0  0  0  0  0  0  0  0  0  0  0
  -38.3240   61.7491   61.8202 H   0  0  0  0  0  0  0  0  0  0  0  0
  -35.3539   65.1409   63.8896 H   0  0  0  0  0  0  0  0  0  0  0  0
  -36.2487   62.8199   68.1691 O   0  0  0  0  0  0  0  0  0  0  0  0
  -35.8906   63.4937   67.0000 C   0  0  0  0  0  0  0  0  0  0  0  0
  -36.0518   63.3783   68.9374 H   0  0  0  0  0  0  0  0  0  0  0  0
  -34.8919   63.3927   62.3998 O   0  0  0  0  0  0  0  0  0  0  0  0
  -32.8658   63.7714   60.8289 O   0  0  0  0  0  0  0  0  0  0  0  0
  -32.9119   61.8228   62.2746 O   0  0  0  0  0  0  0  0  0  0  0  0
  -32.4485   64.0154   63.1980 O   0  0  0  0  0  0  0  0  0  0  0  0
  -33.2458   63.2702   62.1827 S   0  0  0  0  0  0  0  0  0  0  0  0
  -33.3755   63.2969   60.1536 H   0  0  0  0  0  0  0  0  0  0  0  0
  -32.6602   64.9605   63.1450 H   0  0  0  0  0  0  0  0  0  0  0  0
  2  1  1  0  0  0
  2  4  1  0  0  0
  2  5  1  0  0  0
 41 42  1  0  0  0
 41  1  1  0  0  0
 42 46  1  0  0  0
  1 24  1  0  0  0
 23 24  1  0  0  0
 23 25  1  0  0  0
 24 26  1  0  0  0
  3  4  2  0  0  0
 26 27  2  0  0  0
 27 28  1  0  0  0
 43 47  1  0  0  0
 43 51  1  0  0  0
 28 29  1  0  0  0
 56 48  1  0  0  0
 56 60  1  0  0  0
 29 30  1  0  0  0
 57 60  1  0  0  0
 57 61  1  0  0  0
 30 31  1  0  0  0
 44 49  1  0  0  0
 44 52  1  0  0  0
 31 32  1  0  0  0
 45 46  1  0  0  0
 45 50  1  0  0  0
 32 33  1  0  0  0
 53 54  1  0  0  0
 53 55  1  0  0  0
 33 34  1  0  0  0
 34 35  1  0  0  0
 35 36  1  0  0  0
 58 60  1  0  0  0
 36 37  1  0  0  0
 59 60  1  0  0  0
 59 62  1  0  0  0
 37 38  1  0  0  0
 38 39  1  0  0  0
 39 40  1  0  0  0
  4  6  1  0  0  0
  6  7  1  0  0  0
  7  8  1  0  0  0
  8  9  1  0  0  0
  9 10  1  0  0  0
 10 11  1  0  0  0
 11 12  1  0  0  0
 12 13  1  0  0  0
 13 14  1  0  0  0
 14 15  1  0  0  0
 15 16  1  0  0  0
 16 17  1  0  0  0
 17 18  1  0  0  0
 18 19  1  0  0  0
 19 20  1  0  0  0
 20 21  1  0  0  0
 21 22  1  0  0  0
 46 47  1  0  0  0
 47 48  1  0  0  0
 48 49  1  0  0  0
 49 50  1  0  0  0
 50 54  1  0  0  0
M  CHG 1  58  -1
M  END
> <minimizedAffinity>
-9.27009

> <CNNscore>
0.2130425125

> <CNNaffinity>
7.0545463562

> <CNN_VS>
1.5029182434

> <CNNaffinity_variance>
1.1385101080

$$$$
/media/chris/experiments/cd1a-new-docking/inputs/ligands/1onq_ligand.pdb


 62 62  0  0  0  0  0  0  0  0999 V2000
  -41.8421   60.6105   64.7903 C   0  0  0  0  0  0  0  0  0  0  0  0
  -42.5725   59.3626   64.6877 N   0  0  0  0  0  0  0  0  0  0  0  0
  -42.0821   58.3618   66.6639 O   0  0  0  0  0  0  0  0  0  0  0  0
  -42.6419   58.3696   65.5849 C   0  0  0  0  0  0  0  0  0  0  0  0
  -43.0807   59.2278   63.8554 H   0  0  0  0  0  0  0  0  0  0  0  0
  -43.4958   57.2044   65.1814 C   0  0  0  0  0  0  0  0  0  0  0  0
  -44.9345   57.7186   65.1306 C   0  0  0  0  0  0  0  0  0  0  0  0
  -45.5245   57.7574   66.5382 C   0  0  0  0  0  0  0  0  0  0  0  0
  -46.3379   58.9814   66.8831 C   0  0  0  0  0  0  0  0  0  0  0  0
  -46.3706   59.8761   65.6485 C   0  0  0  0  0  0  0  0  0  0  0  0
  -47.7984   60.1997   65.1883 C   0  0  0  0  0  0  0  0  0  0  0  0
  -48.8921   59.8096   66.1993 C   0  0  0  0  0  0  0  0  0  0  0  0
  -50.0784   59.0687   65.5444 C   0  0  0  0  0  0  0  0  0  0  0  0
  -50.8560   60.0074   64.6175 C   0  0  0  0  0  0  0  0  0  0  0  0
  -51.0087   59.5166   63.1829 C   0  0  0  0  0  0  0  0  0  0  0  0
  -50.0191   60.1808   62.2371 C   0  0  0  0  0  0  0  0  0  0  0  0
  -49.6787   59.4001   60.9655 C   0  0  0  0  0  0  0  0  0  0  0  0
  -49.7808   57.9133   61.2784 C   0  0  0  0  0  0  0  0  0  0  0  0
  -49.2673   56.9150   60.2513 C   0  0  0  0  0  0  0  0  0  0  0  0
  -47.9931   57.4356   59.5677 C   0  0  0  0  0  0  0  0  0  0  0  0
  -48.1957   57.9133   58.1179 C   0  0  0  0  0  0  0  0  0  0  0  0
  -46.9028   57.9449   57.3061 C   0  0  0  0  0  0  0  0  0  0  0  0
  -43.7456   61.4500   63.7568 O   0  0  0  0  0  0  0  0  0  0  0  0
  -42.3421   61.3867   63.5840 C   0  0  0  0  0  0  0  0  0  0  0  0
  -43.9492   61.9279   64.5761 H   0  0  0  0  0  0  0  0  0  0  0  0
  -41.9516   60.6425   62.3049 C   0  0  0  0  0  0  0  0  0  0  0  0
  -41.5200   61.2686   61.1967 C   0  0  0  0  0  0  0  0  0  0  0  0
  -41.1499   60.4540   59.9586 C   0  0  0  0  0  0  0  0  0  0  0  0
  -39.7612   59.8028   60.0353 C   0  0  0  0  0  0  0  0  0  0  0  0
  -39.6755   58.3535   59.5218 C   0  0  0  0  0  0  0  0  0  0  0  0
  -41.0498   57.6502   59.6304 C   0  0  0  0  0  0  0  0  0  0  0  0
  -41.2404   56.7604   60.8849 C   0  0  0  0  0  0  0  0  0  0  0  0
  -39.9560   56.5662   61.7248 C   0  0  0  0  0  0  0  0  0  0  0  0
  -39.9090   57.4453   62.9933 C   0  0  0  0  0  0  0  0  0  0  0  0
  -38.5095   57.9775   63.3245 C   0  0  0  0  0  0  0  0  0  0  0  0
  -37.3995   57.6025   62.3449 C   0  0  0  0  0  0  0  0  0  0  0  0
  -35.9999   58.0902   62.7684 C   0  0  0  0  0  0  0  0  0  0  0  0
  -35.7893   58.2404   64.2827 C   0  0  0  0  0  0  0  0  0  0  0  0
  -34.5926   59.1470   64.5842 C   0  0  0  0  0  0  0  0  0  0  0  0
  -33.3225   58.4567   65.0486 C   0  0  0  0  0  0  0  0  0  0  0  0
  -40.3109   60.4745   64.9504 C   0  0  0  0  0  0  0  0  0  0  0  0
  -39.4925   61.3035   64.0866 O   0  0  0  0  0  0  0  0  0  0  0  0
  -37.5187   61.8257   62.0845 O   0  0  0  0  0  0  0  0  0  0  0  0
  -35.9708   64.3580   65.0154 O   0  0  0  0  0  0  0  0  0  0  0  0
  -37.7851   62.0219   65.6531 O   0  0  0  0  0  0  0  0  0  0  0  0
  -38.0479   61.4776   64.3370 C   0  0  0  0  0  0  0  0  0  0  0  0
  -37.2936   62.3756   63.3458 C   0  0  0  0  0  0  0  0  0  0  0  0
  -35.7693   62.4243   63.5889 C   0  0  0  0  0  0  0  0  0  0  0  0
  -35.5815   62.9875   64.9706 C   0  0  0  0  0  0  0  0  0  0  0  0
  -36.3747   62.1672   65.9717 C   0  0  0  0  0  0  0  0  0  0  0  0
  -38.4728   61.7871   61.9140 H   0  0  0  0  0  0  0  0  0  0  0  0
  -35.4525   64.8626   64.3690 H   0  0  0  0  0  0  0  0  0  0  0  0
  -34.6970   63.1913   67.3319 O   0  0  0  0  0  0  0  0  0  0  0  0
  -36.0607   62.8981   67.2753 C   0  0  0  0  0  0  0  0  0  0  0  0
  -34.5001   63.6553   68.1606 H   0  0  0  0  0  0  0  0  0  0  0  0
  -35.0123   63.2777   62.7008 O   0  0  0  0  0  0  0  0  0  0  0  0
  -33.0420   61.6000   62.5609 O   0  0  0  0  0  0  0  0  0  0  0  0
  -32.6289   63.8720   63.3068 O   0  0  0  0  0  0  0  0  0  0  0  0
  -33.0254   63.4123   60.9603 O   0  0  0  0  0  0  0  0  0  0  0  0
  -33.4029   63.0334   62.3516 S   0  0  0  0  0  0  0  0  0  0  0  0
  -33.2806   61.3348   63.4629 H   0  0  0  0  0  0  0  0  0  0  0  0
  -33.5257   62.8700   60.3307 H   0  0  0  0  0  0  0  0  0  0  0  0
  2  1  1  0  0  0
  2  4  1  0  0  0
  2  5  1  0  0  0
 41 42  1  0  0  0
 41  1  1  0  0  0
 42 46  1  0  0  0
  1 24  1  0  0  0
 23 24  1  0  0  0
 23 25  1  0  0  0
 24 26  1  0  0  0
  3  4  2  0  0  0
 26 27  2  0  0  0
 27 28  1  0  0  0
 43 47  1  0  0  0
 43 51  1  0  0  0
 28 29  1  0  0  0
 56 48  1  0  0  0
 56 60  1  0  0  0
 29 30  1  0  0  0
 57 60  1  0  0  0
 57 61  1  0  0  0
 30 31  1  0  0  0
 44 49  1  0  0  0
 44 52  1  0  0  0
 31 32  1  0  0  0
 45 46  1  0  0  0
 45 50  1  0  0  0
 32 33  1  0  0  0
 53 54  1  0  0  0
 53 55  1  0  0  0
 33 34  1  0  0  0
 34 35  1  0  0  0
 35 36  1  0  0  0
 58 60  1  0  0  0
 36 37  1  0  0  0
 59 60  1  0  0  0
 59 62  1  0  0  0
 37 38  1  0  0  0
 38 39  1  0  0  0
 39 40  1  0  0  0
  4  6  1  0  0  0
  6  7  1  0  0  0
  7  8  1  0  0  0
  8  9  1  0  0  0
  9 10  1  0  0  0
 10 11  1  0  0  0
 11 12  1  0  0  0
 12 13  1  0  0  0
 13 14  1  0  0  0
 14 15  1  0  0  0
 15 16  1  0  0  0
 16 17  1  0  0  0
 17 18  1  0  0  0
 18 19  1  0  0  0
 19 20  1  0  0  0
 20 21  1  0  0  0
 21 22  1  0  0  0
 46 47  1  0  0  0
 47 48  1  0  0  0
 48 49  1  0  0  0
 49 50  1  0  0  0
 50 54  1  0  0  0
M  CHG 1  58  -1
M  END
> <minimizedAffinity>
-9.62756

> <CNNscore>
0.1945504397

> <CNNaffinity>
7.2029695511

> <CNN_VS>
1.4013408422

> <CNNaffinity_variance>
1.9755203724

$$$$
/media/chris/experiments/cd1a-new-docking/inputs/ligands/1onq_ligand.pdb


 62 62  0  0  0  0  0  0  0  0999 V2000
  -39.8966   59.6295   64.5821 C   0  0  0  0  0  0  0  0  0  0  0  0
  -38.9343   58.9938   63.7042 N   0  0  0  0  0  0  0  0  0  0  0  0
  -37.6009   57.8969   65.1761 O   0  0  0  0  0  0  0  0  0  0  0  0
  -37.9014   58.2089   64.0402 C   0  0  0  0  0  0  0  0  0  0  0  0
  -39.0544   59.1593   62.7411 H   0  0  0  0  0  0  0  0  0  0  0  0
  -37.0899   57.6949   62.8883 C   0  0  0  0  0  0  0  0  0  0  0  0
  -38.0404   57.6059   61.6943 C   0  0  0  0  0  0  0  0  0  0  0  0
  -37.5358   58.4928   60.5587 C   0  0  0  0  0  0  0  0  0  0  0  0
  -38.5378   58.8223   59.4788 C   0  0  0  0  0  0  0  0  0  0  0  0
  -39.3191   60.0504   59.9343 C   0  0  0  0  0  0  0  0  0  0  0  0
  -40.8296   59.7937   60.0207 C   0  0  0  0  0  0  0  0  0  0  0  0
  -41.2440   58.3455   59.7022 C   0  0  0  0  0  0  0  0  0  0  0  0
  -41.7419   57.5763   60.9454 C   0  0  0  0  0  0  0  0  0  0  0  0
  -41.2537   56.1252   60.9140 C   0  0  0  0  0  0  0  0  0  0  0  0
  -41.2491   55.4169   62.2633 C   0  0  0  0  0  0  0  0  0  0  0  0
  -41.3145   56.3934   63.4282 C   0  0  0  0  0  0  0  0  0  0  0  0
  -42.6296   56.4177   64.2105 C   0  0  0  0  0  0  0  0  0  0  0  0
  -42.4821   57.4072   65.3585 C   0  0  0  0  0  0  0  0  0  0  0  0
  -43.6554   57.6040   66.3071 C   0  0  0  0  0  0  0  0  0  0  0  0
  -44.9758   57.1821   65.6434 C   0  0  0  0  0  0  0  0  0  0  0  0
  -46.2289   57.4204   66.5060 C   0  0  0  0  0  0  0  0  0  0  0  0
  -46.0750   58.5801   67.4874 C   0  0  0  0  0  0  0  0  0  0  0  0
  -40.0914   61.5001   63.2188 O   0  0  0  0  0  0  0  0  0  0  0  0
  -40.8134   60.3455   63.6052 C   0  0  0  0  0  0  0  0  0  0  0  0
  -39.2683   61.2347   62.7794 H   0  0  0  0  0  0  0  0  0  0  0  0
  -42.1279   60.6953   64.3069 C   0  0  0  0  0  0  0  0  0  0  0  0
  -43.3082   60.7469   63.6662 C   0  0  0  0  0  0  0  0  0  0  0  0
  -44.5770   61.1050   64.4379 C   0  0  0  0  0  0  0  0  0  0  0  0
  -45.7308   60.1127   64.2318 C   0  0  0  0  0  0  0  0  0  0  0  0
  -47.1411   60.6621   64.5155 C   0  0  0  0  0  0  0  0  0  0  0  0
  -48.2176   59.8015   63.8115 C   0  0  0  0  0  0  0  0  0  0  0  0
  -49.1816   60.5792   62.8801 C   0  0  0  0  0  0  0  0  0  0  0  0
  -50.5940   59.9583   62.7694 C   0  0  0  0  0  0  0  0  0  0  0  0
  -50.5936   58.4144   62.7947 C   0  0  0  0  0  0  0  0  0  0  0  0
  -51.0581   57.7749   61.4807 C   0  0  0  0  0  0  0  0  0  0  0  0
  -50.0708   57.8386   60.3173 C   0  0  0  0  0  0  0  0  0  0  0  0
  -49.1443   56.6110   60.2148 C   0  0  0  0  0  0  0  0  0  0  0  0
  -48.4080   56.4564   58.8754 C   0  0  0  0  0  0  0  0  0  0  0  0
  -47.4447   57.6231   58.6396 C   0  0  0  0  0  0  0  0  0  0  0  0
  -47.1811   57.9992   57.1924 C   0  0  0  0  0  0  0  0  0  0  0  0
  -39.2955   60.4753   65.7276 C   0  0  0  0  0  0  0  0  0  0  0  0
  -38.6273   61.7041   65.3443 O   0  0  0  0  0  0  0  0  0  0  0  0
  -37.0871   61.3972   62.9545 O   0  0  0  0  0  0  0  0  0  0  0  0
  -34.8380   64.4840   64.6315 O   0  0  0  0  0  0  0  0  0  0  0  0
  -36.5979   62.6523   66.2757 O   0  0  0  0  0  0  0  0  0  0  0  0
  -37.1552   61.7812   65.2617 C   0  0  0  0  0  0  0  0  0  0  0  0
  -36.5777   62.2619   63.9226 C   0  0  0  0  0  0  0  0  0  0  0  0
  -35.0357   62.2089   63.8572 C   0  0  0  0  0  0  0  0  0  0  0  0
  -34.5371   63.1253   64.9402 C   0  0  0  0  0  0  0  0  0  0  0  0
  -35.1465   62.7258   66.2719 C   0  0  0  0  0  0  0  0  0  0  0  0
  -38.0566   61.4174   62.9809 H   0  0  0  0  0  0  0  0  0  0  0  0
  -34.4398   64.7175   63.7783 H   0  0  0  0  0  0  0  0  0  0  0  0
  -33.2951   63.3091   67.6667 O   0  0  0  0  0  0  0  0  0  0  0  0
  -34.5322   63.7647   67.2075 C   0  0  0  0  0  0  0  0  0  0  0  0
  -32.9071   63.9705   68.2607 H   0  0  0  0  0  0  0  0  0  0  0  0
  -34.4365   62.6768   62.6275 O   0  0  0  0  0  0  0  0  0  0  0  0
  -32.2077   61.3807   62.8902 O   0  0  0  0  0  0  0  0  0  0  0  0
  -32.2103   63.8022   63.0499 O   0  0  0  0  0  0  0  0  0  0  0  0
  -32.4410   62.7224   60.8923 O   0  0  0  0  0  0  0  0  0  0  0  0
  -32.7977   62.6354   62.3369 S   0  0  0  0  0  0  0  0  0  0  0  0
  -32.4297   61.3066   63.8315 H   0  0  0  0  0  0  0  0  0  0  0  0
  -32.8203   61.9651   60.4196 H   0  0  0  0  0  0  0  0  0  0  0  0
  2  1  1  0  0  0
  2  4  1  0  0  0
  2  5  1  0  0  0
 41 42  1  0  0  0
 41  1  1  0  0  0
 42 46  1  0  0  0
  1 24  1  0  0  0
 23 24  1  0  0  0
 23 25  1  0  0  0
 24 26  1  0  0  0
  3  4  2  0  0  0
 26 27  2  0  0  0
 27 28  1  0  0  0
 43 47  1  0  0  0
 43 51  1  0  0  0
 28 29  1  0  0  0
 56 48  1  0  0  0
 56 60  1  0  0  0
 29 30  1  0  0  0
 57 60  1  0  0  0
 57 61  1  0  0  0
 30 31  1  0  0  0
 44 49  1  0  0  0
 44 52  1  0  0  0
 31 32  1  0  0  0
 45 46  1  0  0  0
 45 50  1  0  0  0
 32 33  1  0  0  0
 53 54  1  0  0  0
 53 55  1  0  0  0
 33 34  1  0  0  0
 34 35  1  0  0  0
 35 36  1  0  0  0
 58 60  1  0  0  0
 36 37  1  0  0  0
 59 60  1  0  0  0
 59 62  1  0  0  0
 37 38  1  0  0  0
 38 39  1  0  0  0
 39 40  1  0  0  0
  4  6  1  0  0  0
  6  7  1  0  0  0
  7  8  1  0  0  0
  8  9  1  0  0  0
  9 10  1  0  0  0
 10 11  1  0  0  0
 11 12  1  0  0  0
 12 13  1  0  0  0
 13 14  1  0  0  0
 14 15  1  0  0  0
 15 16  1  0  0  0
 16 17  1  0  0  0
 17 18  1  0  0  0
 18 19  1  0  0  0
 19 20  1  0  0  0
 20 21  1  0  0  0
 21 22  1  0  0  0
 46 47  1  0  0  0
 47 48  1  0  0  0
 48 49  1  0  0  0
 49 50  1  0  0  0
 50 54  1  0  0  0
M  CHG 1  58  -1
M  END
> <minimizedAffinity>
-9.49875

> <CNNscore>
0.1618675143

> <CNNaffinity>
7.2455568314

> <CNN_VS>
1.1728203297

> <CNNaffinity_variance>
1.1786282063

$$$$
/media/chris/experiments/cd1a-new-docking/inputs/ligands/1onq_ligand.pdb


 62 62  0  0  0  0  0  0  0  0999 V2000
  -40.5066   61.3427   63.2719 C   0  0  0  0  0  0  0  0  0  0  0  0
  -41.2183   60.4163   64.1301 N   0  0  0  0  0  0  0  0  0  0  0  0
  -40.7237   61.2088   66.1976 O   0  0  0  0  0  0  0  0  0  0  0  0
  -41.2780   60.4092   65.4688 C   0  0  0  0  0  0  0  0  0  0  0  0
  -41.7203   59.7036   63.6725 H   0  0  0  0  0  0  0  0  0  0  0  0
  -42.1128   59.3145   66.0641 C   0  0  0  0  0  0  0  0  0  0  0  0
  -43.5577   59.8137   66.0472 C   0  0  0  0  0  0  0  0  0  0  0  0
  -44.4100   58.9138   65.1558 C   0  0  0  0  0  0  0  0  0  0  0  0
  -45.5646   59.5817   64.4491 C   0  0  0  0  0  0  0  0  0  0  0  0
  -46.5229   60.0973   65.5176 C   0  0  0  0  0  0  0  0  0  0  0  0
  -47.6389   59.0965   65.8459 C   0  0  0  0  0  0  0  0  0  0  0  0
  -48.9927   59.7475   66.1836 C   0  0  0  0  0  0  0  0  0  0  0  0
  -50.1761   59.0937   65.4371 C   0  0  0  0  0  0  0  0  0  0  0  0
  -51.1188   60.1630   64.8777 C   0  0  0  0  0  0  0  0  0  0  0  0
  -50.9678   60.4400   63.3869 C   0  0  0  0  0  0  0  0  0  0  0  0
  -49.9212   59.5472   62.7369 C   0  0  0  0  0  0  0  0  0  0  0  0
  -49.5698   59.8735   61.2836 C   0  0  0  0  0  0  0  0  0  0  0  0
  -49.3877   58.5617   60.5321 C   0  0  0  0  0  0  0  0  0  0  0  0
  -48.8289   58.6031   59.1174 C   0  0  0  0  0  0  0  0  0  0  0  0
  -48.4985   57.1887   58.6151 C   0  0  0  0  0  0  0  0  0  0  0  0
  -47.8090   57.1445   57.2390 C   0  0  0  0  0  0  0  0  0  0  0  0
  -46.8575   58.3152   57.0023 C   0  0  0  0  0  0  0  0  0  0  0  0
  -42.5454   60.8280   62.2848 O   0  0  0  0  0  0  0  0  0  0  0  0
  -41.2163   61.1715   61.9397 C   0  0  0  0  0  0  0  0  0  0  0  0
  -42.9453   61.5520   62.7917 H   0  0  0  0  0  0  0  0  0  0  0  0
  -40.5256   60.0676   61.1355 C   0  0  0  0  0  0  0  0  0  0  0  0
  -41.1582   59.3383   60.2005 C   0  0  0  0  0  0  0  0  0  0  0  0
  -40.3985   58.2525   59.4406 C   0  0  0  0  0  0  0  0  0  0  0  0
  -40.9688   56.8404   59.6386 C   0  0  0  0  0  0  0  0  0  0  0  0
  -41.5875   56.5592   61.0205 C   0  0  0  0  0  0  0  0  0  0  0  0
  -40.4918   56.1815   62.0462 C   0  0  0  0  0  0  0  0  0  0  0  0
  -40.2925   57.1923   63.2039 C   0  0  0  0  0  0  0  0  0  0  0  0
  -38.8328   57.6724   63.3815 C   0  0  0  0  0  0  0  0  0  0  0  0
  -38.5007   58.1193   64.8217 C   0  0  0  0  0  0  0  0  0  0  0  0
  -37.0079   58.3767   65.0599 C   0  0  0  0  0  0  0  0  0  0  0  0
  -36.1725   58.6802   63.8180 C   0  0  0  0  0  0  0  0  0  0  0  0
  -34.6600   58.7925   64.0934 C   0  0  0  0  0  0  0  0  0  0  0  0
  -33.7549   58.5950   62.8679 C   0  0  0  0  0  0  0  0  0  0  0  0
  -32.2906   58.8795   63.2142 C   0  0  0  0  0  0  0  0  0  0  0  0
  -31.7075   60.1723   62.6718 C   0  0  0  0  0  0  0  0  0  0  0  0
  -38.9677   61.1998   63.2695 C   0  0  0  0  0  0  0  0  0  0  0  0
  -38.2023   62.4317   63.2656 O   0  0  0  0  0  0  0  0  0  0  0  0
  -35.9640   63.3678   61.7520 O   0  0  0  0  0  0  0  0  0  0  0  0
  -34.8128   64.9671   65.4284 O   0  0  0  0  0  0  0  0  0  0  0  0
  -36.7220   62.6332   65.1770 O   0  0  0  0  0  0  0  0  0  0  0  0
  -36.8048   62.4661   63.7408 C   0  0  0  0  0  0  0  0  0  0  0  0
  -35.9109   63.5564   63.1325 C   0  0  0  0  0  0  0  0  0  0  0  0
  -34.4348   63.4682   63.5777 C   0  0  0  0  0  0  0  0  0  0  0  0
  -34.4351   63.6397   65.0717 C   0  0  0  0  0  0  0  0  0  0  0  0
  -35.3682   62.6236   65.7051 C   0  0  0  0  0  0  0  0  0  0  0  0
  -36.8856   63.4200   61.4537 H   0  0  0  0  0  0  0  0  0  0  0  0
  -34.2046   65.5989   65.0136 H   0  0  0  0  0  0  0  0  0  0  0  0
  -36.2347   63.8701   67.5514 O   0  0  0  0  0  0  0  0  0  0  0  0
  -35.2309   62.9713   67.1858 C   0  0  0  0  0  0  0  0  0  0  0  0
  -36.1453   64.0895   68.4920 H   0  0  0  0  0  0  0  0  0  0  0  0
  -33.5529   64.4883   63.0563 O   0  0  0  0  0  0  0  0  0  0  0  0
  -33.0061   63.1016   60.9363 O   0  0  0  0  0  0  0  0  0  0  0  0
  -31.1999   63.8670   62.3649 O   0  0  0  0  0  0  0  0  0  0  0  0
  -32.3405   65.4258   60.9008 O   0  0  0  0  0  0  0  0  0  0  0  0
  -32.5174   64.2336   61.7778 S   0  0  0  0  0  0  0  0  0  0  0  0
  -33.1273   62.3151   61.4910 H   0  0  0  0  0  0  0  0  0  0  0  0
  -33.1952   65.6719   60.5137 H   0  0  0  0  0  0  0  0  0  0  0  0
  2  1  1  0  0  0
  2  4  1  0  0  0
  2  5  1  0  0  0
 41 42  1  0  0  0
 41  1  1  0  0  0
 42 46  1  0  0  0
  1 24  1  0  0  0
 23 24  1  0  0  0
 23 25  1  0  0  0
 24 26  1  0  0  0
  3  4  2  0  0  0
 26 27  2  0  0  0
 27 28  1  0  0  0
 43 47  1  0  0  0
 43 51  1  0  0  0
 28 29  1  0  0  0
 56 48  1  0  0  0
 56 60  1  0  0  0
 29 30  1  0  0  0
 57 60  1  0  0  0
 57 61  1  0  0  0
 30 31  1  0  0  0
 44 49  1  0  0  0
 44 52  1  0  0  0
 31 32  1  0  0  0
 45 46  1  0  0  0
 45 50  1  0  0  0
 32 33  1  0  0  0
 53 54  1  0  0  0
 53 55  1  0  0  0
 33 34  1  0  0  0
 34 35  1  0  0  0
 35 36  1  0  0  0
 58 60  1  0  0  0
 36 37  1  0  0  0
 59 60  1  0  0  0
 59 62  1  0  0  0
 37 38  1  0  0  0
 38 39  1  0  0  0
 39 40  1  0  0  0
  4  6  1  0  0  0
  6  7  1  0  0  0
  7  8  1  0  0  0
  8  9  1  0  0  0
  9 10  1  0  0  0
 10 11  1  0  0  0
 11 12  1  0  0  0
 12 13  1  0  0  0
 13 14  1  0  0  0
 14 15  1  0  0  0
 15 16  1  0  0  0
 16 17  1  0  0  0
 17 18  1  0  0  0
 18 19  1  0  0  0
 19 20  1  0  0  0
 20 21  1  0  0  0
 21 22  1  0  0  0
 46 47  1  0  0  0
 47 48  1  0  0  0
 48 49  1  0  0  0
 49 50  1  0  0  0
 50 54  1  0  0  0
M  CHG 1  58  -1
M  END
> <minimizedAffinity>
-8.66857

> <CNNscore>
0.1455237567

> <CNNaffinity>
7.1248450279

> <CNN_VS>
1.0368342400

> <CNNaffinity_variance>
1.0190656185

$$$$
/media/chris/experiments/cd1a-new-docking/inputs/ligands/1onq_ligand.pdb


 62 62  0  0  0  0  0  0  0  0999 V2000
  -40.7001   60.0907   63.8014 C   0  0  0  0  0  0  0  0  0  0  0  0
  -41.9841   60.6097   64.2294 N   0  0  0  0  0  0  0  0  0  0  0  0
  -42.8129   61.4742   62.3025 O   0  0  0  0  0  0  0  0  0  0  0  0
  -42.9102   61.2359   63.4906 C   0  0  0  0  0  0  0  0  0  0  0  0
  -42.2030   60.4868   65.1814 H   0  0  0  0  0  0  0  0  0  0  0  0
  -44.1472   61.6465   64.2327 C   0  0  0  0  0  0  0  0  0  0  0  0
  -44.5428   60.4567   65.1073 C   0  0  0  0  0  0  0  0  0  0  0  0
  -45.4703   59.5247   64.3314 C   0  0  0  0  0  0  0  0  0  0  0  0
  -46.5835   58.8849   65.1251 C   0  0  0  0  0  0  0  0  0  0  0  0
  -46.8372   59.7579   66.3496 C   0  0  0  0  0  0  0  0  0  0  0  0
  -48.2755   60.2896   66.4111 C   0  0  0  0  0  0  0  0  0  0  0  0
  -49.3475   59.2609   66.0074 C   0  0  0  0  0  0  0  0  0  0  0  0
  -50.5069   59.8867   65.2016 C   0  0  0  0  0  0  0  0  0  0  0  0
  -50.0236   60.3351   63.8194 C   0  0  0  0  0  0  0  0  0  0  0  0
  -50.9749   60.0224   62.6707 C   0  0  0  0  0  0  0  0  0  0  0  0
  -51.0104   58.5380   62.3385 C   0  0  0  0  0  0  0  0  0  0  0  0
  -49.6516   57.8604   62.1473 C   0  0  0  0  0  0  0  0  0  0  0  0
  -49.6482   57.1765   60.7868 C   0  0  0  0  0  0  0  0  0  0  0  0
  -49.9855   58.0027   59.5543 C   0  0  0  0  0  0  0  0  0  0  0  0
  -48.7273   58.6737   58.9810 C   0  0  0  0  0  0  0  0  0  0  0  0
  -47.5935   57.6980   58.6154 C   0  0  0  0  0  0  0  0  0  0  0  0
  -47.3624   57.5769   57.1109 C   0  0  0  0  0  0  0  0  0  0  0  0
  -39.6884   58.2892   64.8631 O   0  0  0  0  0  0  0  0  0  0  0  0
  -40.8310   58.6050   64.0894 C   0  0  0  0  0  0  0  0  0  0  0  0
  -39.7066   58.7978   65.6889 H   0  0  0  0  0  0  0  0  0  0  0  0
  -40.8638   57.8334   62.7679 C   0  0  0  0  0  0  0  0  0  0  0  0
  -41.4987   58.2846   61.6726 C   0  0  0  0  0  0  0  0  0  0  0  0
  -41.4861   57.4544   60.3905 C   0  0  0  0  0  0  0  0  0  0  0  0
  -40.3536   57.8243   59.4215 C   0  0  0  0  0  0  0  0  0  0  0  0
  -39.9951   59.3204   59.3553 C   0  0  0  0  0  0  0  0  0  0  0  0
  -38.5530   59.5626   59.8621 C   0  0  0  0  0  0  0  0  0  0  0  0
  -37.8992   58.3639   60.5950 C   0  0  0  0  0  0  0  0  0  0  0  0
  -37.0363   58.7619   61.8156 C   0  0  0  0  0  0  0  0  0  0  0  0
  -36.7585   57.5913   62.7835 C   0  0  0  0  0  0  0  0  0  0  0  0
  -35.2993   57.5058   63.2468 C   0  0  0  0  0  0  0  0  0  0  0  0
  -34.9165   58.3961   64.4271 C   0  0  0  0  0  0  0  0  0  0  0  0
  -33.3988   58.6222   64.5741 C   0  0  0  0  0  0  0  0  0  0  0  0
  -32.5718   58.3586   63.3067 C   0  0  0  0  0  0  0  0  0  0  0  0
  -32.3677   59.6475   62.5054 C   0  0  0  0  0  0  0  0  0  0  0  0
  -30.9837   60.2690   62.5671 C   0  0  0  0  0  0  0  0  0  0  0  0
  -39.4631   60.8111   64.3843 C   0  0  0  0  0  0  0  0  0  0  0  0
  -38.4009   61.1333   63.4508 O   0  0  0  0  0  0  0  0  0  0  0  0
  -36.4898   61.3022   65.5713 O   0  0  0  0  0  0  0  0  0  0  0  0
  -34.1285   63.0360   62.6019 O   0  0  0  0  0  0  0  0  0  0  0  0
  -37.1503   62.9635   62.4650 O   0  0  0  0  0  0  0  0  0  0  0  0
  -37.4901   62.2703   63.6904 C   0  0  0  0  0  0  0  0  0  0  0  0
  -36.1568   61.9355   64.3745 C   0  0  0  0  0  0  0  0  0  0  0  0
  -35.3000   63.1772   64.7049 C   0  0  0  0  0  0  0  0  0  0  0  0
  -34.9999   63.8429   63.3903 C   0  0  0  0  0  0  0  0  0  0  0  0
  -36.2947   64.1235   62.6493 C   0  0  0  0  0  0  0  0  0  0  0  0
  -37.0292   60.5183   65.3831 H   0  0  0  0  0  0  0  0  0  0  0  0
  -33.3091   62.8693   63.0937 H   0  0  0  0  0  0  0  0  0  0  0  0
  -35.5861   63.7972   60.3898 O   0  0  0  0  0  0  0  0  0  0  0  0
  -35.7738   64.7739   61.3695 C   0  0  0  0  0  0  0  0  0  0  0  0
  -35.2552   64.2127   59.5782 H   0  0  0  0  0  0  0  0  0  0  0  0
  -34.0202   62.9180   65.3255 O   0  0  0  0  0  0  0  0  0  0  0  0
  -33.3164   63.1806   67.8059 O   0  0  0  0  0  0  0  0  0  0  0  0
  -34.2570   65.0781   66.6211 O   0  0  0  0  0  0  0  0  0  0  0  0
  -31.9814   64.3707   66.1787 O   0  0  0  0  0  0  0  0  0  0  0  0
  -33.3586   63.8981   66.4974 S   0  0  0  0  0  0  0  0  0  0  0  0
  -34.2058   62.8651   68.0305 H   0  0  0  0  0  0  0  0  0  0  0  0
  -31.3887   63.6072   66.0963 H   0  0  0  0  0  0  0  0  0  0  0  0
  2  1  1  0  0  0
  2  4  1  0  0  0
  2  5  1  0  0  0
 41 42  1  0  0  0
 41  1  1  0  0  0
 42 46  1  0  0  0
  1 24  1  0  0  0
 23 24  1  0  0  0
 23 25  1  0  0  0
 24 26  1  0  0  0
  3  4  2  0  0  0
 26 27  2  0  0  0
 27 28  1  0  0  0
 43 47  1  0  0  0
 43 51  1  0  0  0
 28 29  1  0  0  0
 56 48  1  0  0  0
 56 60  1  0  0  0
 29 30  1  0  0  0
 57 60  1  0  0  0
 57 61  1  0  0  0
 30 31  1  0  0  0
 44 49  1  0  0  0
 44 52  1  0  0  0
 31 32  1  0  0  0
 45 46  1  0  0  0
 45 50  1  0  0  0
 32 33  1  0  0  0
 53 54  1  0  0  0
 53 55  1  0  0  0
 33 34  1  0  0  0
 34 35  1  0  0  0
 35 36  1  0  0  0
 58 60  1  0  0  0
 36 37  1  0  0  0
 59 60  1  0  0  0
 59 62  1  0  0  0
 37 38  1  0  0  0
 38 39  1  0  0  0
 39 40  1  0  0  0
  4  6  1  0  0  0
  6  7  1  0  0  0
  7  8  1  0  0  0
  8  9  1  0  0  0
  9 10  1  0  0  0
 10 11  1  0  0  0
 11 12  1  0  0  0
 12 13  1  0  0  0
 13 14  1  0  0  0
 14 15  1  0  0  0
 15 16  1  0  0  0
 16 17  1  0  0  0
 17 18  1  0  0  0
 18 19  1  0  0  0
 19 20  1  0  0  0
 20 21  1  0  0  0
 21 22  1  0  0  0
 46 47  1  0  0  0
 47 48  1  0  0  0
 48 49  1  0  0  0
 49 50  1  0  0  0
 50 54  1  0  0  0
M  CHG 1  58  -1
M  END
> <minimizedAffinity>
-9.66774

> <CNNscore>
0.1212182045

> <CNNaffinity>
6.6942405701

> <CNN_VS>
0.8114638329

> <CNNaffinity_variance>
1.4196618795

$$$$
/media/chris/experiments/cd1a-new-docking/inputs/ligands/1onq_ligand.pdb


 62 62  0  0  0  0  0  0  0  0999 V2000
  -39.8725   60.2302   64.1119 C   0  0  0  0  0  0  0  0  0  0  0  0
  -41.1797   60.7637   64.4403 N   0  0  0  0  0  0  0  0  0  0  0  0
  -42.4314   60.0706   62.6796 O   0  0  0  0  0  0  0  0  0  0  0  0
  -42.3165   60.6552   63.7392 C   0  0  0  0  0  0  0  0  0  0  0  0
  -41.2398   61.2685   65.2834 H   0  0  0  0  0  0  0  0  0  0  0  0
  -43.5123   61.3170   64.3570 C   0  0  0  0  0  0  0  0  0  0  0  0
  -43.8553   60.5100   65.6093 C   0  0  0  0  0  0  0  0  0  0  0  0
  -45.3356   60.1365   65.5999 C   0  0  0  0  0  0  0  0  0  0  0  0
  -45.7507   59.0951   64.5890 C   0  0  0  0  0  0  0  0  0  0  0  0
  -47.2279   58.7932   64.8183 C   0  0  0  0  0  0  0  0  0  0  0  0
  -48.0636   60.0601   65.0460 C   0  0  0  0  0  0  0  0  0  0  0  0
  -49.2275   59.8799   66.0376 C   0  0  0  0  0  0  0  0  0  0  0  0
  -50.5167   59.3626   65.3626 C   0  0  0  0  0  0  0  0  0  0  0  0
  -51.0815   60.4122   64.4012 C   0  0  0  0  0  0  0  0  0  0  0  0
  -51.1775   59.9690   62.9464 C   0  0  0  0  0  0  0  0  0  0  0  0
  -50.8276   58.4993   62.7663 C   0  0  0  0  0  0  0  0  0  0  0  0
  -49.5393   58.2059   61.9941 C   0  0  0  0  0  0  0  0  0  0  0  0
  -49.8327   58.3501   60.5068 C   0  0  0  0  0  0  0  0  0  0  0  0
  -48.6639   58.4971   59.5438 C   0  0  0  0  0  0  0  0  0  0  0  0
  -47.8795   57.1808   59.4261 C   0  0  0  0  0  0  0  0  0  0  0  0
  -46.9475   57.0998   58.2030 C   0  0  0  0  0  0  0  0  0  0  0  0
  -47.1783   58.2211   57.1925 C   0  0  0  0  0  0  0  0  0  0  0  0
  -39.0900   61.3296   66.0026 O   0  0  0  0  0  0  0  0  0  0  0  0
  -39.2462   60.0233   65.4802 C   0  0  0  0  0  0  0  0  0  0  0  0
  -39.9601   61.7499   66.0877 H   0  0  0  0  0  0  0  0  0  0  0  0
  -37.9057   59.3020   65.3204 C   0  0  0  0  0  0  0  0  0  0  0  0
  -37.7899   57.9630   65.3256 C   0  0  0  0  0  0  0  0  0  0  0  0
  -36.4150   57.3182   65.1611 C   0  0  0  0  0  0  0  0  0  0  0  0
  -35.4850   58.0737   64.2005 C   0  0  0  0  0  0  0  0  0  0  0  0
  -35.5890   57.6711   62.7177 C   0  0  0  0  0  0  0  0  0  0  0  0
  -36.5051   58.6507   61.9456 C   0  0  0  0  0  0  0  0  0  0  0  0
  -37.7210   58.0010   61.2377 C   0  0  0  0  0  0  0  0  0  0  0  0
  -38.1469   58.7108   59.9310 C   0  0  0  0  0  0  0  0  0  0  0  0
  -39.5034   58.2233   59.3773 C   0  0  0  0  0  0  0  0  0  0  0  0
  -40.6128   58.1543   60.4336 C   0  0  0  0  0  0  0  0  0  0  0  0
  -41.4035   56.8490   60.4923 C   0  0  0  0  0  0  0  0  0  0  0  0
  -41.4300   56.1955   61.8881 C   0  0  0  0  0  0  0  0  0  0  0  0
  -40.5484   56.8757   62.9463 C   0  0  0  0  0  0  0  0  0  0  0  0
  -41.3162   57.0749   64.2562 C   0  0  0  0  0  0  0  0  0  0  0  0
  -42.6441   56.3487   64.3776 C   0  0  0  0  0  0  0  0  0  0  0  0
  -39.0580   61.0492   63.0850 C   0  0  0  0  0  0  0  0  0  0  0  0
  -37.6502   61.2386   63.3771 O   0  0  0  0  0  0  0  0  0  0  0  0
  -36.1224   62.1517   65.6152 O   0  0  0  0  0  0  0  0  0  0  0  0
  -33.8786   64.0384   62.6479 O   0  0  0  0  0  0  0  0  0  0  0  0
  -36.7536   63.1865   62.2424 O   0  0  0  0  0  0  0  0  0  0  0  0
  -37.0736   62.5901   63.5228 C   0  0  0  0  0  0  0  0  0  0  0  0
  -35.7982   62.6927   64.3717 C   0  0  0  0  0  0  0  0  0  0  0  0
  -35.3103   64.1422   64.5855 C   0  0  0  0  0  0  0  0  0  0  0  0
  -35.0104   64.6911   63.2179 C   0  0  0  0  0  0  0  0  0  0  0  0
  -36.2286   64.5390   62.3250 C   0  0  0  0  0  0  0  0  0  0  0  0
  -36.4315   61.2395   65.5004 H   0  0  0  0  0  0  0  0  0  0  0  0
  -33.1132   64.1479   63.2337 H   0  0  0  0  0  0  0  0  0  0  0  0
  -35.3425   64.1052   60.1478 O   0  0  0  0  0  0  0  0  0  0  0  0
  -35.7170   65.1334   61.0146 C   0  0  0  0  0  0  0  0  0  0  0  0
  -35.0179   64.4852   59.3165 H   0  0  0  0  0  0  0  0  0  0  0  0
  -34.0962   64.2958   65.3552 O   0  0  0  0  0  0  0  0  0  0  0  0
  -35.4761   64.5482   67.5344 O   0  0  0  0  0  0  0  0  0  0  0  0
  -33.3760   65.7418   67.3023 O   0  0  0  0  0  0  0  0  0  0  0  0
  -33.3816   63.3546   67.7213 O   0  0  0  0  0  0  0  0  0  0  0  0
  -34.0803   64.4635   67.0115 S   0  0  0  0  0  0  0  0  0  0  0  0
  -35.9474   65.2660   67.0833 H   0  0  0  0  0  0  0  0  0  0  0  0
  -33.8345   62.5169   67.5371 H   0  0  0  0  0  0  0  0  0  0  0  0
  2  1  1  0  0  0
  2  4  1  0  0  0
  2  5  1  0  0  0
 41 42  1  0  0  0
 41  1  1  0  0  0
 42 46  1  0  0  0
  1 24  1  0  0  0
 23 24  1  0  0  0
 23 25  1  0  0  0
 24 26  1  0  0  0
  3  4  2  0  0  0
 26 27  2  0  0  0
 27 28  1  0  0  0
 43 47  1  0  0  0
 43 51  1  0  0  0
 28 29  1  0  0  0
 56 48  1  0  0  0
 56 60  1  0  0  0
 29 30  1  0  0  0
 57 60  1  0  0  0
 57 61  1  0  0  0
 30 31  1  0  0  0
 44 49  1  0  0  0
 44 52  1  0  0  0
 31 32  1  0  0  0
 45 46  1  0  0  0
 45 50  1  0  0  0
 32 33  1  0  0  0
 53 54  1  0  0  0
 53 55  1  0  0  0
 33 34  1  0  0  0
 34 35  1  0  0  0
 35 36  1  0  0  0
 58 60  1  0  0  0
 36 37  1  0  0  0
 59 60  1  0  0  0
 59 62  1  0  0  0
 37 38  1  0  0  0
 38 39  1  0  0  0
 39 40  1  0  0  0
  4  6  1  0  0  0
  6  7  1  0  0  0
  7  8  1  0  0  0
  8  9  1  0  0  0
  9 10  1  0  0  0
 10 11  1  0  0  0
 11 12  1  0  0  0
 12 13  1  0  0  0
 13 14  1  0  0  0
 14 15  1  0  0  0
 15 16  1  0  0  0
 16 17  1  0  0  0
 17 18  1  0  0  0
 18 19  1  0  0  0
 19 20  1  0  0  0
 20 21  1  0  0  0
 21 22  1  0  0  0
 46 47  1  0  0  0
 47 48  1  0  0  0
 48 49  1  0  0  0
 49 50  1  0  0  0
 50 54  1  0  0  0
M  CHG 1  58  -1
M  END
> <minimizedAffinity>
-9.59735

> <CNNscore>
0.1147382632

> <CNNaffinity>
6.9633498192

> <CNN_VS>
0.7989626527

> <CNNaffinity_variance>
1.1591905355

$$$$
/media/chris/experiments/cd1a-new-docking/inputs/ligands/1onq_ligand.pdb


 62 62  0  0  0  0  0  0  0  0999 V2000
  -41.9117   58.3402   64.2381 C   0  0  0  0  0  0  0  0  0  0  0  0
  -42.9757   57.9498   65.1419 N   0  0  0  0  0  0  0  0  0  0  0  0
  -43.7548   59.9582   65.8536 O   0  0  0  0  0  0  0  0  0  0  0  0
  -43.7870   58.7430   65.8548 C   0  0  0  0  0  0  0  0  0  0  0  0
  -43.1202   56.9814   65.2447 H   0  0  0  0  0  0  0  0  0  0  0  0
  -44.8006   58.0266   66.6968 C   0  0  0  0  0  0  0  0  0  0  0  0
  -46.0298   58.9333   66.7602 C   0  0  0  0  0  0  0  0  0  0  0  0
  -47.1028   58.4253   65.8002 C   0  0  0  0  0  0  0  0  0  0  0  0
  -46.9893   58.8944   64.3699 C   0  0  0  0  0  0  0  0  0  0  0  0
  -47.3752   60.3695   64.3367 C   0  0  0  0  0  0  0  0  0  0  0  0
  -48.6388   60.6333   63.5069 C   0  0  0  0  0  0  0  0  0  0  0  0
  -49.8779   61.0037   64.3423 C   0  0  0  0  0  0  0  0  0  0  0  0
  -50.9845   59.9280   64.2846 C   0  0  0  0  0  0  0  0  0  0  0  0
  -50.4690   58.6589   63.5999 C   0  0  0  0  0  0  0  0  0  0  0  0
  -51.1183   58.3404   62.2587 C   0  0  0  0  0  0  0  0  0  0  0  0
  -50.1636   57.6327   61.3087 C   0  0  0  0  0  0  0  0  0  0  0  0
  -49.6793   58.4521   60.1102 C   0  0  0  0  0  0  0  0  0  0  0  0
  -49.3054   57.4866   58.9936 C   0  0  0  0  0  0  0  0  0  0  0  0
  -48.2792   56.4006   59.2817 C   0  0  0  0  0  0  0  0  0  0  0  0
  -47.2809   56.2656   58.1211 C   0  0  0  0  0  0  0  0  0  0  0  0
  -47.5505   57.2085   56.9339 C   0  0  0  0  0  0  0  0  0  0  0  0
  -46.6737   58.4587   56.9443 C   0  0  0  0  0  0  0  0  0  0  0  0
  -41.6774   56.2731   63.2045 O   0  0  0  0  0  0  0  0  0  0  0  0
  -42.2397   57.5528   62.9811 C   0  0  0  0  0  0  0  0  0  0  0  0
  -42.0968   55.8664   63.9788 H   0  0  0  0  0  0  0  0  0  0  0  0
  -41.6195   58.2516   61.7689 C   0  0  0  0  0  0  0  0  0  0  0  0
  -41.8183   57.8391   60.5053 C   0  0  0  0  0  0  0  0  0  0  0  0
  -41.1626   58.5905   59.3482 C   0  0  0  0  0  0  0  0  0  0  0  0
  -39.7491   58.0963   59.0076 C   0  0  0  0  0  0  0  0  0  0  0  0
  -38.6065   59.0824   59.3135 C   0  0  0  0  0  0  0  0  0  0  0  0
  -37.5856   58.4535   60.2920 C   0  0  0  0  0  0  0  0  0  0  0  0
  -38.2022   57.6704   61.4786 C   0  0  0  0  0  0  0  0  0  0  0  0
  -37.3248   57.6561   62.7524 C   0  0  0  0  0  0  0  0  0  0  0  0
  -35.8242   57.8867   62.4712 C   0  0  0  0  0  0  0  0  0  0  0  0
  -34.9244   57.6554   63.6912 C   0  0  0  0  0  0  0  0  0  0  0  0
  -33.4405   57.9609   63.4984 C   0  0  0  0  0  0  0  0  0  0  0  0
  -33.1637   59.1576   62.5671 C   0  0  0  0  0  0  0  0  0  0  0  0
  -31.8052   59.8453   62.7708 C   0  0  0  0  0  0  0  0  0  0  0  0
  -31.3396   60.5347   61.4851 C   0  0  0  0  0  0  0  0  0  0  0  0
  -31.3172   62.0528   61.5029 C   0  0  0  0  0  0  0  0  0  0  0  0
  -40.4779   58.2008   64.7981 C   0  0  0  0  0  0  0  0  0  0  0  0
  -40.0299   59.2445   65.6999 O   0  0  0  0  0  0  0  0  0  0  0  0
  -38.1142   60.7691   67.1774 O   0  0  0  0  0  0  0  0  0  0  0  0
  -36.1640   60.9116   63.4929 O   0  0  0  0  0  0  0  0  0  0  0  0
  -39.1334   60.3957   63.7618 O   0  0  0  0  0  0  0  0  0  0  0  0
  -39.3165   60.4357   65.1978 C   0  0  0  0  0  0  0  0  0  0  0  0
  -37.9268   60.6938   65.7978 C   0  0  0  0  0  0  0  0  0  0  0  0
  -37.2817   62.0143   65.3231 C   0  0  0  0  0  0  0  0  0  0  0  0
  -37.1356   61.8984   63.8309 C   0  0  0  0  0  0  0  0  0  0  0  0
  -38.4799   61.5693   63.2073 C   0  0  0  0  0  0  0  0  0  0  0  0
  -38.5194   59.9466   67.4941 H   0  0  0  0  0  0  0  0  0  0  0  0
  -35.3145   61.1412   63.9011 H   0  0  0  0  0  0  0  0  0  0  0  0
  -37.1914   62.4890   61.4163 O   0  0  0  0  0  0  0  0  0  0  0  0
  -38.1127   61.4872   61.7272 C   0  0  0  0  0  0  0  0  0  0  0  0
  -36.9599   62.4349   60.4759 H   0  0  0  0  0  0  0  0  0  0  0  0
  -35.9593   62.2944   65.8358 O   0  0  0  0  0  0  0  0  0  0  0  0
  -36.3382   64.6428   66.8645 O   0  0  0  0  0  0  0  0  0  0  0  0
  -34.2010   63.5338   67.1674 O   0  0  0  0  0  0  0  0  0  0  0  0
  -36.1413   62.8058   68.4243 O   0  0  0  0  0  0  0  0  0  0  0  0
  -35.6738   63.3285   67.1090 S   0  0  0  0  0  0  0  0  0  0  0  0
  -36.0455   64.9993   66.0112 H   0  0  0  0  0  0  0  0  0  0  0  0
  -37.1012   62.6689   68.3950 H   0  0  0  0  0  0  0  0  0  0  0  0
  2  1  1  0  0  0
  2  4  1  0  0  0
  2  5  1  0  0  0
 41 42  1  0  0  0
 41  1  1  0  0  0
 42 46  1  0  0  0
  1 24  1  0  0  0
 23 24  1  0  0  0
 23 25  1  0  0  0
 24 26  1  0  0  0
  3  4  2  0  0  0
 26 27  2  0  0  0
 27 28  1  0  0  0
 43 47  1  0  0  0
 43 51  1  0  0  0
 28 29  1  0  0  0
 56 48  1  0  0  0
 56 60  1  0  0  0
 29 30  1  0  0  0
 57 60  1  0  0  0
 57 61  1  0  0  0
 30 31  1  0  0  0
 44 49  1  0  0  0
 44 52  1  0  0  0
 31 32  1  0  0  0
 45 46  1  0  0  0
 45 50  1  0  0  0
 32 33  1  0  0  0
 53 54  1  0  0  0
 53 55  1  0  0  0
 33 34  1  0  0  0
 34 35  1  0  0  0
 35 36  1  0  0  0
 58 60  1  0  0  0
 36 37  1  0  0  0
 59 60  1  0  0  0
 59 62  1  0  0  0
 37 38  1  0  0  0
 38 39  1  0  0  0
 39 40  1  0  0  0
  4  6  1  0  0  0
  6  7  1  0  0  0
  7  8  1  0  0  0
  8  9  1  0  0  0
  9 10  1  0  0  0
 10 11  1  0  0  0
 11 12  1  0  0  0
 12 13  1  0  0  0
 13 14  1  0  0  0
 14 15  1  0  0  0
 15 16  1  0  0  0
 16 17  1  0  0  0
 17 18  1  0  0  0
 18 19  1  0  0  0
 19 20  1  0  0  0
 20 21  1  0  0  0
 21 22  1  0  0  0
 46 47  1  0  0  0
 47 48  1  0  0  0
 48 49  1  0  0  0
 49 50  1  0  0  0
 50 54  1  0  0  0
M  CHG 1  58  -1
M  END
> <minimizedAffinity>
-9.17046

> <CNNscore>
0.1121351123

> <CNNaffinity>
6.9310684204

> <CNN_VS>
0.7772161365

> <CNNaffinity_variance>
1.0998561382

$$$$
/media/chris/experiments/cd1a-new-docking/inputs/ligands/1onq_ligand.pdb


 62 62  0  0  0  0  0  0  0  0999 V2000
  -37.0681   59.2188   63.7853 C   0  0  0  0  0  0  0  0  0  0  0  0
  -38.3189   59.3475   64.5064 N   0  0  0  0  0  0  0  0  0  0  0  0
  -38.2597   61.5142   65.1767 O   0  0  0  0  0  0  0  0  0  0  0  0
  -38.8091   60.4311   65.1239 C   0  0  0  0  0  0  0  0  0  0  0  0
  -38.8780   58.5382   64.5475 H   0  0  0  0  0  0  0  0  0  0  0  0
  -40.1456   60.2422   65.7781 C   0  0  0  0  0  0  0  0  0  0  0  0
  -41.1967   60.5954   64.7257 C   0  0  0  0  0  0  0  0  0  0  0  0
  -42.4456   61.1543   65.4031 C   0  0  0  0  0  0  0  0  0  0  0  0
  -43.3058   62.0652   64.5611 C   0  0  0  0  0  0  0  0  0  0  0  0
  -44.3397   61.1970   63.8518 C   0  0  0  0  0  0  0  0  0  0  0  0
  -45.5348   60.8462   64.7483 C   0  0  0  0  0  0  0  0  0  0  0  0
  -46.9041   61.2177   64.1504 C   0  0  0  0  0  0  0  0  0  0  0  0
  -48.0583   60.3613   64.7158 C   0  0  0  0  0  0  0  0  0  0  0  0
  -48.1631   59.0317   63.9634 C   0  0  0  0  0  0  0  0  0  0  0  0
  -49.5844   58.5663   63.6709 C   0  0  0  0  0  0  0  0  0  0  0  0
  -50.4092   59.6356   62.9701 C   0  0  0  0  0  0  0  0  0  0  0  0
  -49.9105   60.0708   61.5902 C   0  0  0  0  0  0  0  0  0  0  0  0
  -49.6882   58.8212   60.7488 C   0  0  0  0  0  0  0  0  0  0  0  0
  -49.1050   58.9767   59.3520 C   0  0  0  0  0  0  0  0  0  0  0  0
  -48.8878   57.6063   58.6912 C   0  0  0  0  0  0  0  0  0  0  0  0
  -47.4259   57.3040   58.3134 C   0  0  0  0  0  0  0  0  0  0  0  0
  -46.9034   58.1771   57.1748 C   0  0  0  0  0  0  0  0  0  0  0  0
  -35.9923   57.4705   62.6982 O   0  0  0  0  0  0  0  0  0  0  0  0
  -37.2928   57.9678   62.9535 C   0  0  0  0  0  0  0  0  0  0  0  0
  -35.5611   57.2467   63.5379 H   0  0  0  0  0  0  0  0  0  0  0  0
  -38.0305   58.3412   61.6655 C   0  0  0  0  0  0  0  0  0  0  0  0
  -38.2199   59.6125   61.2729 C   0  0  0  0  0  0  0  0  0  0  0  0
  -38.9680   59.9033   59.9732 C   0  0  0  0  0  0  0  0  0  0  0  0
  -39.4006   58.6431   59.2096 C   0  0  0  0  0  0  0  0  0  0  0  0
  -40.8647   58.2108   59.4120 C   0  0  0  0  0  0  0  0  0  0  0  0
  -40.9397   56.7669   59.9640 C   0  0  0  0  0  0  0  0  0  0  0  0
  -41.4241   56.6437   61.4308 C   0  0  0  0  0  0  0  0  0  0  0  0
  -41.6835   57.9998   62.1284 C   0  0  0  0  0  0  0  0  0  0  0  0
  -42.9014   57.9830   63.0774 C   0  0  0  0  0  0  0  0  0  0  0  0
  -42.7576   57.0052   64.2498 C   0  0  0  0  0  0  0  0  0  0  0  0
  -42.6137   57.6335   65.6343 C   0  0  0  0  0  0  0  0  0  0  0  0
  -43.8097   57.3676   66.5696 C   0  0  0  0  0  0  0  0  0  0  0  0
  -45.1939   57.5054   65.9179 C   0  0  0  0  0  0  0  0  0  0  0  0
  -46.2144   58.0722   66.9090 C   0  0  0  0  0  0  0  0  0  0  0  0
  -45.9264   57.8399   68.3816 C   0  0  0  0  0  0  0  0  0  0  0  0
  -35.7910   59.2621   64.6548 C   0  0  0  0  0  0  0  0  0  0  0  0
  -34.6111   59.8447   64.0451 O   0  0  0  0  0  0  0  0  0  0  0  0
  -32.5374   61.3389   62.7626 O   0  0  0  0  0  0  0  0  0  0  0  0
  -34.8389   64.5924   63.9944 O   0  0  0  0  0  0  0  0  0  0  0  0
  -34.9942   61.8751   65.3164 O   0  0  0  0  0  0  0  0  0  0  0  0
  -34.0370   61.1101   64.5443 C   0  0  0  0  0  0  0  0  0  0  0  0
  -33.4854   62.0686   63.4789 C   0  0  0  0  0  0  0  0  0  0  0  0
  -32.7932   63.3176   64.0669 C   0  0  0  0  0  0  0  0  0  0  0  0
  -33.8438   64.0476   64.8575 C   0  0  0  0  0  0  0  0  0  0  0  0
  -34.4660   63.1083   65.8748 C   0  0  0  0  0  0  0  0  0  0  0  0
  -32.9550   60.5489   62.3852 H   0  0  0  0  0  0  0  0  0  0  0  0
  -34.4200   65.1883   63.3537 H   0  0  0  0  0  0  0  0  0  0  0  0
  -36.7098   63.9326   65.8758 O   0  0  0  0  0  0  0  0  0  0  0  0
  -35.4878   64.0247   66.5445 C   0  0  0  0  0  0  0  0  0  0  0  0
  -37.3568   64.5154   66.3028 H   0  0  0  0  0  0  0  0  0  0  0  0
  -32.2793   64.2689   63.1072 O   0  0  0  0  0  0  0  0  0  0  0  0
  -33.8794   63.6159   61.1760 O   0  0  0  0  0  0  0  0  0  0  0  0
  -31.5114   63.1195   60.9883 O   0  0  0  0  0  0  0  0  0  0  0  0
  -32.3062   65.3927   60.7132 O   0  0  0  0  0  0  0  0  0  0  0  0
  -32.5044   64.1206   61.4643 S   0  0  0  0  0  0  0  0  0  0  0  0
  -34.0270   62.7867   61.6572 H   0  0  0  0  0  0  0  0  0  0  0  0
  -32.9499   66.0514   61.0176 H   0  0  0  0  0  0  0  0  0  0  0  0
  2  1  1  0  0  0
  2  4  1  0  0  0
  2  5  1  0  0  0
 41 42  1  0  0  0
 41  1  1  0  0  0
 42 46  1  0  0  0
  1 24  1  0  0  0
 23 24  1  0  0  0
 23 25  1  0  0  0
 24 26  1  0  0  0
  3  4  2  0  0  0
 26 27  2  0  0  0
 27 28  1  0  0  0
 43 47  1  0  0  0
 43 51  1  0  0  0
 28 29  1  0  0  0
 56 48  1  0  0  0
 56 60  1  0  0  0
 29 30  1  0  0  0
 57 60  1  0  0  0
 57 61  1  0  0  0
 30 31  1  0  0  0
 44 49  1  0  0  0
 44 52  1  0  0  0
 31 32  1  0  0  0
 45 46  1  0  0  0
 45 50  1  0  0  0
 32 33  1  0  0  0
 53 54  1  0  0  0
 53 55  1  0  0  0
 33 34  1  0  0  0
 34 35  1  0  0  0
 35 36  1  0  0  0
 58 60  1  0  0  0
 36 37  1  0  0  0
 59 60  1  0  0  0
 59 62  1  0  0  0
 37 38  1  0  0  0
 38 39  1  0  0  0
 39 40  1  0  0  0
  4  6  1  0  0  0
  6  7  1  0  0  0
  7  8  1  0  0  0
  8  9  1  0  0  0
  9 10  1  0  0  0
 10 11  1  0  0  0
 11 12  1  0  0  0
 12 13  1  0  0  0
 13 14  1  0  0  0
 14 15  1  0  0  0
 15 16  1  0  0  0
 16 17  1  0  0  0
 17 18  1  0  0  0
 18 19  1  0  0  0
 19 20  1  0  0  0
 20 21  1  0  0  0
 21 22  1  0  0  0
 46 47  1  0  0  0
 47 48  1  0  0  0
 48 49  1  0  0  0
 49 50  1  0  0  0
 50 54  1  0  0  0
M  CHG 1  58  -1
M  END
> <minimizedAffinity>
-8.55011

> <CNNscore>
0.1066561267

> <CNNaffinity>
7.0933241844

> <CNN_VS>
0.7565464973

> <CNNaffinity_variance>
1.1752294302

$$$$
