/media/chris/experiments/cd1a-new-docking/inputs/ligands/1onq_ligand.pdb


 62 62  0  0  0  0  0  0  0  0999 V2000
  -41.6597   60.5109   64.6942 C   0  0  0  0  0  0  0  0  0  0  0  0
  -42.4398   59.2899   64.6547 N   0  0  0  0  0  0  0  0  0  0  0  0
  -41.9696   58.3607   66.6704 O   0  0  0  0  0  0  0  0  0  0  0  0
  -42.5395   58.3422   65.5968 C   0  0  0  0  0  0  0  0  0  0  0  0
  -42.9612   59.1379   63.8336 H   0  0  0  0  0  0  0  0  0  0  0  0
  -43.4427   57.1948   65.2539 C   0  0  0  0  0  0  0  0  0  0  0  0
  -44.8539   57.7723   65.1430 C   0  0  0  0  0  0  0  0  0  0  0  0
  -45.5283   57.7678   66.5127 C   0  0  0  0  0  0  0  0  0  0  0  0
  -46.2427   59.0385   66.9046 C   0  0  0  0  0  0  0  0  0  0  0  0
  -46.3595   59.9055   65.6553 C   0  0  0  0  0  0  0  0  0  0  0  0
  -47.7938   59.9758   65.1143 C   0  0  0  0  0  0  0  0  0  0  0  0
  -48.8825   59.9334   66.2021 C   0  0  0  0  0  0  0  0  0  0  0  0
  -50.2170   59.3453   65.6935 C   0  0  0  0  0  0  0  0  0  0  0  0
  -50.8652   60.2825   64.6705 C   0  0  0  0  0  0  0  0  0  0  0  0
  -51.2606   59.6255   63.3536 C   0  0  0  0  0  0  0  0  0  0  0  0
  -50.2340   59.8671   62.2568 C   0  0  0  0  0  0  0  0  0  0  0  0
  -49.3124   58.6900   61.9290 C   0  0  0  0  0  0  0  0  0  0  0  0
  -49.7661   58.0844   60.6076 C   0  0  0  0  0  0  0  0  0  0  0  0
  -49.0621   56.8356   60.0977 C   0  0  0  0  0  0  0  0  0  0  0  0
  -47.7380   57.1949   59.4051 C   0  0  0  0  0  0  0  0  0  0  0  0
  -47.8485   58.3217   58.3615 C   0  0  0  0  0  0  0  0  0  0  0  0
  -47.1147   58.0123   57.0586 C   0  0  0  0  0  0  0  0  0  0  0  0
  -43.6437   60.9832   63.5822 O   0  0  0  0  0  0  0  0  0  0  0  0
  -42.2716   61.3311   63.5715 C   0  0  0  0  0  0  0  0  0  0  0  0
  -44.0336   61.2313   64.4351 H   0  0  0  0  0  0  0  0  0  0  0  0
  -41.5941   60.9650   62.2489 C   0  0  0  0  0  0  0  0  0  0  0  0
  -42.0049   61.4391   61.0603 C   0  0  0  0  0  0  0  0  0  0  0  0
  -41.2758   61.0252   59.7835 C   0  0  0  0  0  0  0  0  0  0  0  0
  -40.4916   59.7113   59.9135 C   0  0  0  0  0  0  0  0  0  0  0  0
  -41.1462   58.4775   59.2650 C   0  0  0  0  0  0  0  0  0  0  0  0
  -40.9037   57.2123   60.1229 C   0  0  0  0  0  0  0  0  0  0  0  0
  -41.3637   57.3156   61.5991 C   0  0  0  0  0  0  0  0  0  0  0  0
  -40.2315   57.1047   62.6317 C   0  0  0  0  0  0  0  0  0  0  0  0
  -38.8165   57.1558   62.0157 C   0  0  0  0  0  0  0  0  0  0  0  0
  -37.9133   58.2313   62.6312 C   0  0  0  0  0  0  0  0  0  0  0  0
  -36.4267   58.1321   62.2953 C   0  0  0  0  0  0  0  0  0  0  0  0
  -35.5411   57.7251   63.4895 C   0  0  0  0  0  0  0  0  0  0  0  0
  -35.0561   58.8863   64.3708 C   0  0  0  0  0  0  0  0  0  0  0  0
  -33.6563   58.6077   64.9259 C   0  0  0  0  0  0  0  0  0  0  0  0
  -32.5247   58.5664   63.9143 C   0  0  0  0  0  0  0  0  0  0  0  0
  -40.1259   60.3222   64.6684 C   0  0  0  0  0  0  0  0  0  0  0  0
  -39.3532   61.3788   64.0440 O   0  0  0  0  0  0  0  0  0  0  0  0
  -37.3420   61.8837   62.0748 O   0  0  0  0  0  0  0  0  0  0  0  0
  -35.8136   64.3924   65.0362 O   0  0  0  0  0  0  0  0  0  0  0  0
  -37.6632   62.0749   65.6393 O   0  0  0  0  0  0  0  0  0  0  0  0
  -37.9109   61.5363   64.3178 C   0  0  0  0  0  0  0  0  0  0  0  0
  -37.1313   62.4283   63.3410 C   0  0  0  0  0  0  0  0  0  0  0  0
  -35.6104   62.4598   63.6085 C   0  0  0  0  0  0  0  0  0  0  0  0
  -35.4387   63.0177   64.9943 C   0  0  0  0  0  0  0  0  0  0  0  0
  -36.2567   62.2040   65.9808 C   0  0  0  0  0  0  0  0  0  0  0  0
  -38.2937   61.8559   61.8892 H   0  0  0  0  0  0  0  0  0  0  0  0
  -35.2796   64.8927   64.3994 H   0  0  0  0  0  0  0  0  0  0  0  0
  -34.5817   63.1511   67.3988 O   0  0  0  0  0  0  0  0  0  0  0  0
  -35.9556   62.9286   67.2909 C   0  0  0  0  0  0  0  0  0  0  0  0
  -34.3931   63.6113   68.2316 H   0  0  0  0  0  0  0  0  0  0  0  0
  -34.8300   63.3068   62.7346 O   0  0  0  0  0  0  0  0  0  0  0  0
  -32.5102   64.3883   63.1417 O   0  0  0  0  0  0  0  0  0  0  0  0
  -32.8955   63.1084   61.1162 O   0  0  0  0  0  0  0  0  0  0  0  0
  -32.6018   61.9741   63.2379 O   0  0  0  0  0  0  0  0  0  0  0  0
  -33.1777   63.1788   62.5757 S   0  0  0  0  0  0  0  0  0  0  0  0
  -32.8729   65.1840   62.7218 H   0  0  0  0  0  0  0  0  0  0  0  0
  -32.7813   62.0118   64.1904 H   0  0  0  0  0  0  0  0  0  0  0  0
  2  1  1  0  0  0
  2  4  1  0  0  0
  2  5  1  0  0  0
 41 42  1  0  0  0
 41  1  1  0  0  0
 42 46  1  0  0  0
  1 24  1  0  0  0
 23 24  1  0  0  0
 23 25  1  0  0  0
 24 26  1  0  0  0
  3  4  2  0  0  0
 26 27  2  0  0  0
 27 28  1  0  0  0
 43 47  1  0  0  0
 43 51  1  0  0  0
 28 29  1  0  0  0
 56 48  1  0  0  0
 56 60  1  0  0  0
 29 30  1  0  0  0
 57 60  1  0  0  0
 57 61  1  0  0  0
 30 31  1  0  0  0
 44 49  1  0  0  0
 44 52  1  0  0  0
 31 32  1  0  0  0
 45 46  1  0  0  0
 45 50  1  0  0  0
 32 33  1  0  0  0
 53 54  1  0  0  0
 53 55  1  0  0  0
 33 34  1  0  0  0
 34 35  1  0  0  0
 35 36  1  0  0  0
 58 60  1  0  0  0
 36 37  1  0  0  0
 59 60  1  0  0  0
 59 62  1  0  0  0
 37 38  1  0  0  0
 38 39  1  0  0  0
 39 40  1  0  0  0
  4  6  1  0  0  0
  6  7  1  0  0  0
  7  8  1  0  0  0
  8  9  1  0  0  0
  9 10  1  0  0  0
 10 11  1  0  0  0
 11 12  1  0  0  0
 12 13  1  0  0  0
 13 14  1  0  0  0
 14 15  1  0  0  0
 15 16  1  0  0  0
 16 17  1  0  0  0
 17 18  1  0  0  0
 18 19  1  0  0  0
 19 20  1  0  0  0
 20 21  1  0  0  0
 21 22  1  0  0  0
 46 47  1  0  0  0
 47 48  1  0  0  0
 48 49  1  0  0  0
 49 50  1  0  0  0
 50 54  1  0  0  0
M  CHG 1  58  -1
M  END
> <minimizedAffinity>
-9.65971

> <CNNscore>
0.2247024328

> <CNNaffinity>
7.1898446083

> <CNN_VS>
1.6155755520

> <CNNaffinity_variance>
1.8123182058

$$$$
/media/chris/experiments/cd1a-new-docking/inputs/ligands/1onq_ligand.pdb


 62 62  0  0  0  0  0  0  0  0999 V2000
  -40.1093   60.9564   64.6817 C   0  0  0  0  0  0  0  0  0  0  0  0
  -41.3435   60.4737   65.2689 N   0  0  0  0  0  0  0  0  0  0  0  0
  -42.8177   62.0918   64.6720 O   0  0  0  0  0  0  0  0  0  0  0  0
  -42.5559   61.0431   65.2283 C   0  0  0  0  0  0  0  0  0  0  0  0
  -41.2837   59.6217   65.7584 H   0  0  0  0  0  0  0  0  0  0  0  0
  -43.6409   60.2836   65.9324 C   0  0  0  0  0  0  0  0  0  0  0  0
  -43.9657   59.0762   65.0527 C   0  0  0  0  0  0  0  0  0  0  0  0
  -45.3856   59.1973   64.5046 C   0  0  0  0  0  0  0  0  0  0  0  0
  -46.1606   60.4192   64.9341 C   0  0  0  0  0  0  0  0  0  0  0  0
  -47.6139   60.2121   64.5208 C   0  0  0  0  0  0  0  0  0  0  0  0
  -48.4390   59.4910   65.5952 C   0  0  0  0  0  0  0  0  0  0  0  0
  -49.9520   59.4555   65.3124 C   0  0  0  0  0  0  0  0  0  0  0  0
  -50.3943   60.5129   64.2772 C   0  0  0  0  0  0  0  0  0  0  0  0
  -51.0370   59.8415   63.0602 C   0  0  0  0  0  0  0  0  0  0  0  0
  -50.7411   58.3538   62.9132 C   0  0  0  0  0  0  0  0  0  0  0  0
  -50.1304   58.0177   61.5607 C   0  0  0  0  0  0  0  0  0  0  0  0
  -49.7651   59.2104   60.6741 C   0  0  0  0  0  0  0  0  0  0  0  0
  -49.1365   58.6767   59.3940 C   0  0  0  0  0  0  0  0  0  0  0  0
  -48.0700   57.5967   59.5004 C   0  0  0  0  0  0  0  0  0  0  0  0
  -48.1855   56.5939   58.3414 C   0  0  0  0  0  0  0  0  0  0  0  0
  -47.1409   56.7841   57.2260 C   0  0  0  0  0  0  0  0  0  0  0  0
  -46.7010   58.2359   57.0518 C   0  0  0  0  0  0  0  0  0  0  0  0
  -40.7906   61.1416   62.4687 O   0  0  0  0  0  0  0  0  0  0  0  0
  -40.0920   60.2624   63.3305 C   0  0  0  0  0  0  0  0  0  0  0  0
  -40.3207   61.9888   62.4211 H   0  0  0  0  0  0  0  0  0  0  0  0
  -40.7832   58.9021   63.4504 C   0  0  0  0  0  0  0  0  0  0  0  0
  -40.4319   57.9806   64.3634 C   0  0  0  0  0  0  0  0  0  0  0  0
  -41.1707   56.6448   64.4185 C   0  0  0  0  0  0  0  0  0  0  0  0
  -41.9583   56.3168   63.1417 C   0  0  0  0  0  0  0  0  0  0  0  0
  -41.2194   55.4470   62.1078 C   0  0  0  0  0  0  0  0  0  0  0  0
  -41.2634   56.1028   60.7066 C   0  0  0  0  0  0  0  0  0  0  0  0
  -41.6287   57.6087   60.6919 C   0  0  0  0  0  0  0  0  0  0  0  0
  -41.2074   58.3501   59.4014 C   0  0  0  0  0  0  0  0  0  0  0  0
  -39.9924   59.2833   59.5939 C   0  0  0  0  0  0  0  0  0  0  0  0
  -38.6419   58.5951   59.3618 C   0  0  0  0  0  0  0  0  0  0  0  0
  -37.6620   58.6274   60.5328 C   0  0  0  0  0  0  0  0  0  0  0  0
  -37.9974   57.6278   61.6573 C   0  0  0  0  0  0  0  0  0  0  0  0
  -37.0038   57.6025   62.8287 C   0  0  0  0  0  0  0  0  0  0  0  0
  -35.6729   58.2497   62.4349 C   0  0  0  0  0  0  0  0  0  0  0  0
  -34.7037   58.5430   63.5664 C   0  0  0  0  0  0  0  0  0  0  0  0
  -38.8488   60.8049   65.5634 C   0  0  0  0  0  0  0  0  0  0  0  0
  -38.0033   61.9762   65.6920 O   0  0  0  0  0  0  0  0  0  0  0  0
  -36.7640   61.6413   63.1367 O   0  0  0  0  0  0  0  0  0  0  0  0
  -34.0202   64.3705   64.6931 O   0  0  0  0  0  0  0  0  0  0  0  0
  -35.7943   62.6479   66.4370 O   0  0  0  0  0  0  0  0  0  0  0  0
  -36.5484   61.8998   65.4523 C   0  0  0  0  0  0  0  0  0  0  0  0
  -36.0630   62.3906   64.0808 C   0  0  0  0  0  0  0  0  0  0  0  0
  -34.5517   62.1768   63.8446 C   0  0  0  0  0  0  0  0  0  0  0  0
  -33.8436   62.9722   64.9064 C   0  0  0  0  0  0  0  0  0  0  0  0
  -34.3523   62.5660   66.2777 C   0  0  0  0  0  0  0  0  0  0  0  0
  -37.7170   61.7635   63.2700 H   0  0  0  0  0  0  0  0  0  0  0  0
  -33.6892   64.6077   63.8128 H   0  0  0  0  0  0  0  0  0  0  0  0
  -34.2394   64.6566   67.4308 O   0  0  0  0  0  0  0  0  0  0  0  0
  -33.5313   63.4789   67.1856 C   0  0  0  0  0  0  0  0  0  0  0  0
  -33.7159   65.2346   68.0076 H   0  0  0  0  0  0  0  0  0  0  0  0
  -34.0347   62.6464   62.5788 O   0  0  0  0  0  0  0  0  0  0  0  0
  -31.7890   61.3826   62.8552 O   0  0  0  0  0  0  0  0  0  0  0  0
  -31.7802   63.7945   62.5872 O   0  0  0  0  0  0  0  0  0  0  0  0
  -32.2128   62.3578   60.6837 O   0  0  0  0  0  0  0  0  0  0  0  0
  -32.4308   62.5301   62.1480 S   0  0  0  0  0  0  0  0  0  0  0  0
  -31.9207   61.4776   63.8115 H   0  0  0  0  0  0  0  0  0  0  0  0
  -32.6339   61.5353   60.3887 H   0  0  0  0  0  0  0  0  0  0  0  0
  2  1  1  0  0  0
  2  4  1  0  0  0
  2  5  1  0  0  0
 41 42  1  0  0  0
 41  1  1  0  0  0
 42 46  1  0  0  0
  1 24  1  0  0  0
 23 24  1  0  0  0
 23 25  1  0  0  0
 24 26  1  0  0  0
  3  4  2  0  0  0
 26 27  2  0  0  0
 27 28  1  0  0  0
 43 47  1  0  0  0
 43 51  1  0  0  0
 28 29  1  0  0  0
 56 48  1  0  0  0
 56 60  1  0  0  0
 29 30  1  0  0  0
 57 60  1  0  0  0
 57 61  1  0  0  0
 30 31  1  0  0  0
 44 49  1  0  0  0
 44 52  1  0  0  0
 31 32  1  0  0  0
 45 46  1  0  0  0
 45 50  1  0  0  0
 32 33  1  0  0  0
 53 54  1  0  0  0
 53 55  1  0  0  0
 33 34  1  0  0  0
 34 35  1  0  0  0
 35 36  1  0  0  0
 58 60  1  0  0  0
 36 37  1  0  0  0
 59 60  1  0  0  0
 59 62  1  0  0  0
 37 38  1  0  0  0
 38 39  1  0  0  0
 39 40  1  0  0  0
  4  6  1  0  0  0
  6  7  1  0  0  0
  7  8  1  0  0  0
  8  9  1  0  0  0
  9 10  1  0  0  0
 10 11  1  0  0  0
 11 12  1  0  0  0
 12 13  1  0  0  0
 13 14  1  0  0  0
 14 15  1  0  0  0
 15 16  1  0  0  0
 16 17  1  0  0  0
 17 18  1  0  0  0
 18 19  1  0  0  0
 19 20  1  0  0  0
 20 21  1  0  0  0
 21 22  1  0  0  0
 46 47  1  0  0  0
 47 48  1  0  0  0
 48 49  1  0  0  0
 49 50  1  0  0  0
 50 54  1  0  0  0
M  CHG 1  58  -1
M  END
> <minimizedAffinity>
-9.21136

> <CNNscore>
0.2006017715

> <CNNaffinity>
7.0930085182

> <CNN_VS>
1.4228700399

> <CNNaffinity_variance>
1.2439224720

$$$$
/media/chris/experiments/cd1a-new-docking/inputs/ligands/1onq_ligand.pdb


 62 62  0  0  0  0  0  0  0  0999 V2000
  -41.2035   59.7204   64.1409 C   0  0  0  0  0  0  0  0  0  0  0  0
  -42.5375   60.1522   64.5084 N   0  0  0  0  0  0  0  0  0  0  0  0
  -43.0972   61.4973   62.7691 O   0  0  0  0  0  0  0  0  0  0  0  0
  -43.3564   60.9706   63.8337 C   0  0  0  0  0  0  0  0  0  0  0  0
  -42.8852   59.8004   65.3596 H   0  0  0  0  0  0  0  0  0  0  0  0
  -44.6867   61.2173   64.4811 C   0  0  0  0  0  0  0  0  0  0  0  0
  -45.3578   59.8514   64.6267 C   0  0  0  0  0  0  0  0  0  0  0  0
  -46.8759   60.0143   64.6336 C   0  0  0  0  0  0  0  0  0  0  0  0
  -47.6175   59.2752   65.7208 C   0  0  0  0  0  0  0  0  0  0  0  0
  -48.7795   60.1563   66.1671 C   0  0  0  0  0  0  0  0  0  0  0  0
  -50.1350   59.6580   65.6481 C   0  0  0  0  0  0  0  0  0  0  0  0
  -50.7711   60.5597   64.5745 C   0  0  0  0  0  0  0  0  0  0  0  0
  -51.3322   59.7628   63.3764 C   0  0  0  0  0  0  0  0  0  0  0  0
  -50.5724   58.4448   63.2012 C   0  0  0  0  0  0  0  0  0  0  0  0
  -49.3658   58.5144   62.2730 C   0  0  0  0  0  0  0  0  0  0  0  0
  -49.5886   59.4662   61.1070 C   0  0  0  0  0  0  0  0  0  0  0  0
  -49.3042   58.8994   59.7141 C   0  0  0  0  0  0  0  0  0  0  0  0
  -49.7158   57.4333   59.7040 C   0  0  0  0  0  0  0  0  0  0  0  0
  -48.6329   56.3727   59.5718 C   0  0  0  0  0  0  0  0  0  0  0  0
  -47.3437   56.9728   58.9889 C   0  0  0  0  0  0  0  0  0  0  0  0
  -47.3059   57.0329   57.4506 C   0  0  0  0  0  0  0  0  0  0  0  0
  -46.8568   58.3885   56.9101 C   0  0  0  0  0  0  0  0  0  0  0  0
  -40.2465   57.8485   65.1286 O   0  0  0  0  0  0  0  0  0  0  0  0
  -41.3013   58.2089   64.2562 C   0  0  0  0  0  0  0  0  0  0  0  0
  -40.3860   58.2645   65.9938 H   0  0  0  0  0  0  0  0  0  0  0  0
  -41.1413   57.5832   62.8686 C   0  0  0  0  0  0  0  0  0  0  0  0
  -41.8227   58.0084   61.7911 C   0  0  0  0  0  0  0  0  0  0  0  0
  -41.6077   57.3303   60.4393 C   0  0  0  0  0  0  0  0  0  0  0  0
  -40.9484   58.2348   59.3879 C   0  0  0  0  0  0  0  0  0  0  0  0
  -40.6874   59.6873   59.8278 C   0  0  0  0  0  0  0  0  0  0  0  0
  -39.1746   59.9320   60.0448 C   0  0  0  0  0  0  0  0  0  0  0  0
  -38.2646   58.6999   59.8100 C   0  0  0  0  0  0  0  0  0  0  0  0
  -38.0354   57.8324   61.0700 C   0  0  0  0  0  0  0  0  0  0  0  0
  -37.0611   58.4655   62.0868 C   0  0  0  0  0  0  0  0  0  0  0  0
  -37.3048   58.0225   63.5344 C   0  0  0  0  0  0  0  0  0  0  0  0
  -36.2985   58.5236   64.5683 C   0  0  0  0  0  0  0  0  0  0  0  0
  -34.9702   57.7417   64.5789 C   0  0  0  0  0  0  0  0  0  0  0  0
  -33.7260   58.5696   64.9351 C   0  0  0  0  0  0  0  0  0  0  0  0
  -32.7565   58.6418   63.7519 C   0  0  0  0  0  0  0  0  0  0  0  0
  -33.3467   58.3769   62.3782 C   0  0  0  0  0  0  0  0  0  0  0  0
  -40.0478   60.4080   64.9027 C   0  0  0  0  0  0  0  0  0  0  0  0
  -39.3513   61.4702   64.2026 O   0  0  0  0  0  0  0  0  0  0  0  0
  -37.4919   61.9153   62.0761 O   0  0  0  0  0  0  0  0  0  0  0  0
  -35.8253   64.6022   64.7969 O   0  0  0  0  0  0  0  0  0  0  0  0
  -37.5735   62.2810   65.6405 O   0  0  0  0  0  0  0  0  0  0  0  0
  -37.8979   61.6709   64.3675 C   0  0  0  0  0  0  0  0  0  0  0  0
  -37.2083   62.5278   63.2962 C   0  0  0  0  0  0  0  0  0  0  0  0
  -35.6739   62.6040   63.4556 C   0  0  0  0  0  0  0  0  0  0  0  0
  -35.4215   63.2352   64.7970 C   0  0  0  0  0  0  0  0  0  0  0  0
  -36.1505   62.4562   65.8768 C   0  0  0  0  0  0  0  0  0  0  0  0
  -38.4531   61.8586   61.9585 H   0  0  0  0  0  0  0  0  0  0  0  0
  -35.3483   65.0804   64.1007 H   0  0  0  0  0  0  0  0  0  0  0  0
  -36.3176   62.6338   68.2546 O   0  0  0  0  0  0  0  0  0  0  0  0
  -35.7780   63.2524   67.1255 C   0  0  0  0  0  0  0  0  0  0  0  0
  -36.0797   63.1414   69.0462 H   0  0  0  0  0  0  0  0  0  0  0  0
  -34.9755   63.4213   62.4890 O   0  0  0  0  0  0  0  0  0  0  0  0
  -33.0080   63.7845   60.8416 O   0  0  0  0  0  0  0  0  0  0  0  0
  -32.9741   61.8803   62.3456 O   0  0  0  0  0  0  0  0  0  0  0  0
  -32.5187   64.1071   63.1874 O   0  0  0  0  0  0  0  0  0  0  0  0
  -33.3355   63.3186   62.2217 S   0  0  0  0  0  0  0  0  0  0  0  0
  -33.5312   63.2817   60.1980 H   0  0  0  0  0  0  0  0  0  0  0  0
  -32.7480   65.0467   63.1133 H   0  0  0  0  0  0  0  0  0  0  0  0
  2  1  1  0  0  0
  2  4  1  0  0  0
  2  5  1  0  0  0
 41 42  1  0  0  0
 41  1  1  0  0  0
 42 46  1  0  0  0
  1 24  1  0  0  0
 23 24  1  0  0  0
 23 25  1  0  0  0
 24 26  1  0  0  0
  3  4  2  0  0  0
 26 27  2  0  0  0
 27 28  1  0  0  0
 43 47  1  0  0  0
 43 51  1  0  0  0
 28 29  1  0  0  0
 56 48  1  0  0  0
 56 60  1  0  0  0
 29 30  1  0  0  0
 57 60  1  0  0  0
 57 61  1  0  0  0
 30 31  1  0  0  0
 44 49  1  0  0  0
 44 52  1  0  0  0
 31 32  1  0  0  0
 45 46  1  0  0  0
 45 50  1  0  0  0
 32 33  1  0  0  0
 53 54  1  0  0  0
 53 55  1  0  0  0
 33 34  1  0  0  0
 34 35  1  0  0  0
 35 36  1  0  0  0
 58 60  1  0  0  0
 36 37  1  0  0  0
 59 60  1  0  0  0
 59 62  1  0  0  0
 37 38  1  0  0  0
 38 39  1  0  0  0
 39 40  1  0  0  0
  4  6  1  0  0  0
  6  7  1  0  0  0
  7  8  1  0  0  0
  8  9  1  0  0  0
  9 10  1  0  0  0
 10 11  1  0  0  0
 11 12  1  0  0  0
 12 13  1  0  0  0
 13 14  1  0  0  0
 14 15  1  0  0  0
 15 16  1  0  0  0
 16 17  1  0  0  0
 17 18  1  0  0  0
 18 19  1  0  0  0
 19 20  1  0  0  0
 20 21  1  0  0  0
 21 22  1  0  0  0
 46 47  1  0  0  0
 47 48  1  0  0  0
 48 49  1  0  0  0
 49 50  1  0  0  0
 50 54  1  0  0  0
M  CHG 1  58  -1
M  END
> <minimizedAffinity>
-9.89474

> <CNNscore>
0.1996905357

> <CNNaffinity>
6.9732551575

> <CNN_VS>
1.3924930096

> <CNNaffinity_variance>
1.8957138062

$$$$
/media/chris/experiments/cd1a-new-docking/inputs/ligands/1onq_ligand.pdb


 62 62  0  0  0  0  0  0  0  0999 V2000
  -42.8062   58.4401   64.4938 C   0  0  0  0  0  0  0  0  0  0  0  0
  -43.8537   59.2419   65.0945 N   0  0  0  0  0  0  0  0  0  0  0  0
  -44.9259   57.7243   66.3963 O   0  0  0  0  0  0  0  0  0  0  0  0
  -44.7975   58.8526   65.9624 C   0  0  0  0  0  0  0  0  0  0  0  0
  -43.8743   60.1906   64.8322 H   0  0  0  0  0  0  0  0  0  0  0  0
  -45.7385   59.9323   66.4079 C   0  0  0  0  0  0  0  0  0  0  0  0
  -47.1026   59.2681   66.5954 C   0  0  0  0  0  0  0  0  0  0  0  0
  -47.9035   59.3460   65.2978 C   0  0  0  0  0  0  0  0  0  0  0  0
  -48.6735   58.1047   64.9179 C   0  0  0  0  0  0  0  0  0  0  0  0
  -50.1438   58.3602   65.2322 C   0  0  0  0  0  0  0  0  0  0  0  0
  -50.4716   59.8538   65.3617 C   0  0  0  0  0  0  0  0  0  0  0  0
  -51.3394   60.4119   64.2189 C   0  0  0  0  0  0  0  0  0  0  0  0
  -51.2214   59.5880   62.9179 C   0  0  0  0  0  0  0  0  0  0  0  0
  -50.0724   60.1100   62.0505 C   0  0  0  0  0  0  0  0  0  0  0  0
  -49.5091   59.1048   61.0532 C   0  0  0  0  0  0  0  0  0  0  0  0
  -49.9025   57.6743   61.3907 C   0  0  0  0  0  0  0  0  0  0  0  0
  -49.3486   56.5894   60.4642 C   0  0  0  0  0  0  0  0  0  0  0  0
  -48.2054   57.1909   59.6577 C   0  0  0  0  0  0  0  0  0  0  0  0
  -47.2815   56.2551   58.8923 C   0  0  0  0  0  0  0  0  0  0  0  0
  -47.7136   56.1371   57.4221 C   0  0  0  0  0  0  0  0  0  0  0  0
  -47.9235   57.4851   56.7080 C   0  0  0  0  0  0  0  0  0  0  0  0
  -46.7870   58.4772   56.9444 C   0  0  0  0  0  0  0  0  0  0  0  0
  -41.5345   60.0885   65.5241 O   0  0  0  0  0  0  0  0  0  0  0  0
  -41.6305   58.6797   65.4255 C   0  0  0  0  0  0  0  0  0  0  0  0
  -42.3511   60.4420   65.9104 H   0  0  0  0  0  0  0  0  0  0  0  0
  -40.3698   58.0566   64.8214 C   0  0  0  0  0  0  0  0  0  0  0  0
  -39.1315   58.5058   65.0881 C   0  0  0  0  0  0  0  0  0  0  0  0
  -37.9225   57.8300   64.4441 C   0  0  0  0  0  0  0  0  0  0  0  0
  -36.5805   58.4859   64.8006 C   0  0  0  0  0  0  0  0  0  0  0  0
  -35.3233   57.6994   64.3856 C   0  0  0  0  0  0  0  0  0  0  0  0
  -34.3591   58.5951   63.5710 C   0  0  0  0  0  0  0  0  0  0  0  0
  -32.9259   58.7196   64.1471 C   0  0  0  0  0  0  0  0  0  0  0  0
  -31.8690   59.1892   63.1199 C   0  0  0  0  0  0  0  0  0  0  0  0
  -32.2962   60.4403   62.3223 C   0  0  0  0  0  0  0  0  0  0  0  0
  -31.1213   61.2199   61.7197 C   0  0  0  0  0  0  0  0  0  0  0  0
  -30.7264   62.5051   62.4442 C   0  0  0  0  0  0  0  0  0  0  0  0
  -31.9157   63.2644   63.0648 C   0  0  0  0  0  0  0  0  0  0  0  0
  -31.5380   64.4635   63.9477 C   0  0  0  0  0  0  0  0  0  0  0  0
  -32.2077   64.3673   65.3215 C   0  0  0  0  0  0  0  0  0  0  0  0
  -32.6555   65.6763   65.9475 C   0  0  0  0  0  0  0  0  0  0  0  0
  -42.5657   58.6803   62.9861 C   0  0  0  0  0  0  0  0  0  0  0  0
  -42.2444   60.0377   62.5891 O   0  0  0  0  0  0  0  0  0  0  0  0
  -39.9214   61.4232   63.5173 O   0  0  0  0  0  0  0  0  0  0  0  0
  -37.9398   58.5800   61.1958 O   0  0  0  0  0  0  0  0  0  0  0  0
  -40.8317   59.3461   60.7421 O   0  0  0  0  0  0  0  0  0  0  0  0
  -41.0468   60.3349   61.7783 C   0  0  0  0  0  0  0  0  0  0  0  0
  -39.7213   60.4435   62.5455 C   0  0  0  0  0  0  0  0  0  0  0  0
  -38.5274   60.8714   61.6640 C   0  0  0  0  0  0  0  0  0  0  0  0
  -38.3770   59.8056   60.6138 C   0  0  0  0  0  0  0  0  0  0  0  0
  -39.6930   59.6170   59.8811 C   0  0  0  0  0  0  0  0  0  0  0  0
  -40.6689   61.1709   64.0816 H   0  0  0  0  0  0  0  0  0  0  0  0
  -37.0991   58.7232   61.6580 H   0  0  0  0  0  0  0  0  0  0  0  0
  -38.1322   58.8294   58.2510 O   0  0  0  0  0  0  0  0  0  0  0  0
  -39.3307   58.5112   58.8920 C   0  0  0  0  0  0  0  0  0  0  0  0
  -37.9043   58.1257   57.6235 H   0  0  0  0  0  0  0  0  0  0  0  0
  -37.2476   60.9627   62.3301 O   0  0  0  0  0  0  0  0  0  0  0  0
  -37.5081   62.9383   63.9872 O   0  0  0  0  0  0  0  0  0  0  0  0
  -36.5980   63.3439   61.7744 O   0  0  0  0  0  0  0  0  0  0  0  0
  -35.2453   62.2615   63.4695 O   0  0  0  0  0  0  0  0  0  0  0  0
  -36.6235   62.3903   62.9167 S   0  0  0  0  0  0  0  0  0  0  0  0
  -38.4112   63.0293   63.6452 H   0  0  0  0  0  0  0  0  0  0  0  0
  -35.2527   61.6413   64.2152 H   0  0  0  0  0  0  0  0  0  0  0  0
  2  1  1  0  0  0
  2  4  1  0  0  0
  2  5  1  0  0  0
 41 42  1  0  0  0
 41  1  1  0  0  0
 42 46  1  0  0  0
  1 24  1  0  0  0
 23 24  1  0  0  0
 23 25  1  0  0  0
 24 26  1  0  0  0
  3  4  2  0  0  0
 26 27  2  0  0  0
 27 28  1  0  0  0
 43 47  1  0  0  0
 43 51  1  0  0  0
 28 29  1  0  0  0
 56 48  1  0  0  0
 56 60  1  0  0  0
 29 30  1  0  0  0
 57 60  1  0  0  0
 57 61  1  0  0  0
 30 31  1  0  0  0
 44 49  1  0  0  0
 44 52  1  0  0  0
 31 32  1  0  0  0
 45 46  1  0  0  0
 45 50  1  0  0  0
 32 33  1  0  0  0
 53 54  1  0  0  0
 53 55  1  0  0  0
 33 34  1  0  0  0
 34 35  1  0  0  0
 35 36  1  0  0  0
 58 60  1  0  0  0
 36 37  1  0  0  0
 59 60  1  0  0  0
 59 62  1  0  0  0
 37 38  1  0  0  0
 38 39  1  0  0  0
 39 40  1  0  0  0
  4  6  1  0  0  0
  6  7  1  0  0  0
  7  8  1  0  0  0
  8  9  1  0  0  0
  9 10  1  0  0  0
 10 11  1  0  0  0
 11 12  1  0  0  0
 12 13  1  0  0  0
 13 14  1  0  0  0
 14 15  1  0  0  0
 15 16  1  0  0  0
 16 17  1  0  0  0
 17 18  1  0  0  0
 18 19  1  0  0  0
 19 20  1  0  0  0
 20 21  1  0  0  0
 21 22  1  0  0  0
 46 47  1  0  0  0
 47 48  1  0  0  0
 48 49  1  0  0  0
 49 50  1  0  0  0
 50 54  1  0  0  0
M  CHG 1  58  -1
M  END
> <minimizedAffinity>
-9.18808

> <CNNscore>
0.1984255761

> <CNNaffinity>
6.6024961472

> <CNN_VS>
1.3101041317

> <CNNaffinity_variance>
1.2674909830

$$$$
/media/chris/experiments/cd1a-new-docking/inputs/ligands/1onq_ligand.pdb


 62 62  0  0  0  0  0  0  0  0999 V2000
  -39.9459   60.4574   63.6767 C   0  0  0  0  0  0  0  0  0  0  0  0
  -41.3105   60.9450   63.7101 N   0  0  0  0  0  0  0  0  0  0  0  0
  -41.7164   61.3705   61.5188 O   0  0  0  0  0  0  0  0  0  0  0  0
  -42.0689   61.3493   62.6820 C   0  0  0  0  0  0  0  0  0  0  0  0
  -41.7327   60.9840   64.5986 H   0  0  0  0  0  0  0  0  0  0  0  0
  -43.4544   61.7928   63.0474 C   0  0  0  0  0  0  0  0  0  0  0  0
  -43.6198   61.5112   64.5409 C   0  0  0  0  0  0  0  0  0  0  0  0
  -45.0214   60.9727   64.8181 C   0  0  0  0  0  0  0  0  0  0  0  0
  -45.2770   59.5440   64.4037 C   0  0  0  0  0  0  0  0  0  0  0  0
  -46.2890   58.9548   65.3808 C   0  0  0  0  0  0  0  0  0  0  0  0
  -47.0889   60.0312   66.1269 C   0  0  0  0  0  0  0  0  0  0  0  0
  -48.6143   59.8260   66.0876 C   0  0  0  0  0  0  0  0  0  0  0  0
  -49.2740   60.4624   64.8445 C   0  0  0  0  0  0  0  0  0  0  0  0
  -50.7832   60.2029   64.8416 C   0  0  0  0  0  0  0  0  0  0  0  0
  -51.3881   59.9306   63.4697 C   0  0  0  0  0  0  0  0  0  0  0  0
  -50.5854   58.9094   62.6773 C   0  0  0  0  0  0  0  0  0  0  0  0
  -49.6889   59.4718   61.5717 C   0  0  0  0  0  0  0  0  0  0  0  0
  -49.4828   58.3835   60.5267 C   0  0  0  0  0  0  0  0  0  0  0  0
  -48.7687   58.7417   59.2318 C   0  0  0  0  0  0  0  0  0  0  0  0
  -48.8433   57.5834   58.2243 C   0  0  0  0  0  0  0  0  0  0  0  0
  -47.7099   57.5699   57.1819 C   0  0  0  0  0  0  0  0  0  0  0  0
  -47.0016   56.2212   57.0773 C   0  0  0  0  0  0  0  0  0  0  0  0
  -39.3798   60.7535   65.9100 O   0  0  0  0  0  0  0  0  0  0  0  0
  -39.8150   59.7481   65.0137 C   0  0  0  0  0  0  0  0  0  0  0  0
  -40.0497   61.4532   65.9612 H   0  0  0  0  0  0  0  0  0  0  0  0
  -38.7997   58.6100   64.8865 C   0  0  0  0  0  0  0  0  0  0  0  0
  -37.5889   58.6409   65.4688 C   0  0  0  0  0  0  0  0  0  0  0  0
  -36.6306   57.4644   65.2935 C   0  0  0  0  0  0  0  0  0  0  0  0
  -35.5253   57.7120   64.2566 C   0  0  0  0  0  0  0  0  0  0  0  0
  -35.8578   57.2886   62.8139 C   0  0  0  0  0  0  0  0  0  0  0  0
  -36.5825   58.4294   62.0598 C   0  0  0  0  0  0  0  0  0  0  0  0
  -37.8738   58.0122   61.3115 C   0  0  0  0  0  0  0  0  0  0  0  0
  -38.0537   58.6895   59.9325 C   0  0  0  0  0  0  0  0  0  0  0  0
  -39.3753   58.3143   59.2278 C   0  0  0  0  0  0  0  0  0  0  0  0
  -40.6127   58.4477   60.1236 C   0  0  0  0  0  0  0  0  0  0  0  0
  -41.5423   57.2368   60.1689 C   0  0  0  0  0  0  0  0  0  0  0  0
  -41.2402   56.2586   61.3214 C   0  0  0  0  0  0  0  0  0  0  0  0
  -41.0190   56.9123   62.6939 C   0  0  0  0  0  0  0  0  0  0  0  0
  -42.3422   57.4018   63.2894 C   0  0  0  0  0  0  0  0  0  0  0  0
  -42.6382   56.9773   64.7169 C   0  0  0  0  0  0  0  0  0  0  0  0
  -38.8699   61.5131   63.3353 C   0  0  0  0  0  0  0  0  0  0  0  0
  -37.9299   61.8448   64.3888 O   0  0  0  0  0  0  0  0  0  0  0  0
  -35.2675   60.8496   64.0752 O   0  0  0  0  0  0  0  0  0  0  0  0
  -35.0962   63.7489   61.0813 O   0  0  0  0  0  0  0  0  0  0  0  0
  -37.0624   63.8723   63.3780 O   0  0  0  0  0  0  0  0  0  0  0  0
  -36.7364   62.6705   64.1176 C   0  0  0  0  0  0  0  0  0  0  0  0
  -35.6035   61.9856   63.3398 C   0  0  0  0  0  0  0  0  0  0  0  0
  -34.3379   62.8582   63.1899 C   0  0  0  0  0  0  0  0  0  0  0  0
  -34.7597   64.0827   62.4257 C   0  0  0  0  0  0  0  0  0  0  0  0
  -35.9303   64.7480   63.1267 C   0  0  0  0  0  0  0  0  0  0  0  0
  -36.0517   60.2884   64.1797 H   0  0  0  0  0  0  0  0  0  0  0  0
  -34.3356   63.3259   60.6530 H   0  0  0  0  0  0  0  0  0  0  0  0
  -34.9961   66.5638   61.8842 O   0  0  0  0  0  0  0  0  0  0  0  0
  -36.2002   65.9332   62.2023 C   0  0  0  0  0  0  0  0  0  0  0  0
  -35.1703   67.3161   61.2972 H   0  0  0  0  0  0  0  0  0  0  0  0
  -33.2486   62.2726   62.4413 O   0  0  0  0  0  0  0  0  0  0  0  0
  -31.1361   60.7734   62.3607 O   0  0  0  0  0  0  0  0  0  0  0  0
  -33.3302   59.7641   62.1223 O   0  0  0  0  0  0  0  0  0  0  0  0
  -32.5634   60.5155   64.2953 O   0  0  0  0  0  0  0  0  0  0  0  0
  -32.5512   60.8130   62.8349 S   0  0  0  0  0  0  0  0  0  0  0  0
  -31.1081   60.9650   61.4103 H   0  0  0  0  0  0  0  0  0  0  0  0
  -32.0574   61.1948   64.7679 H   0  0  0  0  0  0  0  0  0  0  0  0
  2  1  1  0  0  0
  2  4  1  0  0  0
  2  5  1  0  0  0
 41 42  1  0  0  0
 41  1  1  0  0  0
 42 46  1  0  0  0
  1 24  1  0  0  0
 23 24  1  0  0  0
 23 25  1  0  0  0
 24 26  1  0  0  0
  3  4  2  0  0  0
 26 27  2  0  0  0
 27 28  1  0  0  0
 43 47  1  0  0  0
 43 51  1  0  0  0
 28 29  1  0  0  0
 56 48  1  0  0  0
 56 60  1  0  0  0
 29 30  1  0  0  0
 57 60  1  0  0  0
 57 61  1  0  0  0
 30 31  1  0  0  0
 44 49  1  0  0  0
 44 52  1  0  0  0
 31 32  1  0  0  0
 45 46  1  0  0  0
 45 50  1  0  0  0
 32 33  1  0  0  0
 53 54  1  0  0  0
 53 55  1  0  0  0
 33 34  1  0  0  0
 34 35  1  0  0  0
 35 36  1  0  0  0
 58 60  1  0  0  0
 36 37  1  0  0  0
 59 60  1  0  0  0
 59 62  1  0  0  0
 37 38  1  0  0  0
 38 39  1  0  0  0
 39 40  1  0  0  0
  4  6  1  0  0  0
  6  7  1  0  0  0
  7  8  1  0  0  0
  8  9  1  0  0  0
  9 10  1  0  0  0
 10 11  1  0  0  0
 11 12  1  0  0  0
 12 13  1  0  0  0
 13 14  1  0  0  0
 14 15  1  0  0  0
 15 16  1  0  0  0
 16 17  1  0  0  0
 17 18  1  0  0  0
 18 19  1  0  0  0
 19 20  1  0  0  0
 20 21  1  0  0  0
 21 22  1  0  0  0
 46 47  1  0  0  0
 47 48  1  0  0  0
 48 49  1  0  0  0
 49 50  1  0  0  0
 50 54  1  0  0  0
M  CHG 1  58  -1
M  END
> <minimizedAffinity>
-8.89647

> <CNNscore>
0.1917112619

> <CNNaffinity>
7.1223449707

> <CNN_VS>
1.3654336929

> <CNNaffinity_variance>
1.1270320415

$$$$
/media/chris/experiments/cd1a-new-docking/inputs/ligands/1onq_ligand.pdb


 62 62  0  0  0  0  0  0  0  0999 V2000
  -39.4920   60.9200   65.2311 C   0  0  0  0  0  0  0  0  0  0  0  0
  -40.6428   60.3445   65.8986 N   0  0  0  0  0  0  0  0  0  0  0  0
  -42.2429   61.9074   65.5183 O   0  0  0  0  0  0  0  0  0  0  0  0
  -41.8805   60.8491   65.9943 C   0  0  0  0  0  0  0  0  0  0  0  0
  -40.4970   59.4747   66.3361 H   0  0  0  0  0  0  0  0  0  0  0  0
  -42.8586   60.0000   66.7506 C   0  0  0  0  0  0  0  0  0  0  0  0
  -44.2416   60.3241   66.1855 C   0  0  0  0  0  0  0  0  0  0  0  0
  -44.9786   59.0330   65.8379 C   0  0  0  0  0  0  0  0  0  0  0  0
  -45.6134   58.9793   64.4695 C   0  0  0  0  0  0  0  0  0  0  0  0
  -46.9904   59.6264   64.5744 C   0  0  0  0  0  0  0  0  0  0  0  0
  -47.8458   59.0216   65.6958 C   0  0  0  0  0  0  0  0  0  0  0  0
  -49.0383   59.8967   66.1231 C   0  0  0  0  0  0  0  0  0  0  0  0
  -50.3904   59.3681   65.5959 C   0  0  0  0  0  0  0  0  0  0  0  0
  -50.9976   60.3484   64.5882 C   0  0  0  0  0  0  0  0  0  0  0  0
  -51.3647   59.7418   63.2393 C   0  0  0  0  0  0  0  0  0  0  0  0
  -50.5640   58.4844   62.9347 C   0  0  0  0  0  0  0  0  0  0  0  0
  -50.8779   57.7944   61.6052 C   0  0  0  0  0  0  0  0  0  0  0  0
  -49.6831   57.9794   60.6795 C   0  0  0  0  0  0  0  0  0  0  0  0
  -48.9966   56.7427   60.1186 C   0  0  0  0  0  0  0  0  0  0  0  0
  -47.7787   57.1296   59.2646 C   0  0  0  0  0  0  0  0  0  0  0  0
  -48.1178   57.9353   57.9969 C   0  0  0  0  0  0  0  0  0  0  0  0
  -46.8952   58.2563   57.1403 C   0  0  0  0  0  0  0  0  0  0  0  0
  -40.2184   61.4045   63.0786 O   0  0  0  0  0  0  0  0  0  0  0  0
  -39.6136   60.3634   63.8229 C   0  0  0  0  0  0  0  0  0  0  0  0
  -39.6420   62.1847   63.0865 H   0  0  0  0  0  0  0  0  0  0  0  0
  -40.4749   59.0986   63.8504 C   0  0  0  0  0  0  0  0  0  0  0  0
  -41.5951   58.9599   63.1209 C   0  0  0  0  0  0  0  0  0  0  0  0
  -42.4013   57.6652   63.2043 C   0  0  0  0  0  0  0  0  0  0  0  0
  -41.5378   56.4032   63.3462 C   0  0  0  0  0  0  0  0  0  0  0  0
  -40.8314   55.9311   62.0619 C   0  0  0  0  0  0  0  0  0  0  0  0
  -41.6261   56.3652   60.8067 C   0  0  0  0  0  0  0  0  0  0  0  0
  -40.7949   57.0815   59.7124 C   0  0  0  0  0  0  0  0  0  0  0  0
  -40.0776   58.3627   60.1988 C   0  0  0  0  0  0  0  0  0  0  0  0
  -38.6362   58.5044   59.6638 C   0  0  0  0  0  0  0  0  0  0  0  0
  -37.5816   58.6672   60.7650 C   0  0  0  0  0  0  0  0  0  0  0  0
  -37.6432   57.6564   61.9082 C   0  0  0  0  0  0  0  0  0  0  0  0
  -36.7461   58.0147   63.1094 C   0  0  0  0  0  0  0  0  0  0  0  0
  -35.2350   57.9229   62.8484 C   0  0  0  0  0  0  0  0  0  0  0  0
  -34.4743   58.9896   63.6415 C   0  0  0  0  0  0  0  0  0  0  0  0
  -33.7226   58.5093   64.8703 C   0  0  0  0  0  0  0  0  0  0  0  0
  -38.1377   60.7209   65.9488 C   0  0  0  0  0  0  0  0  0  0  0  0
  -36.9446   60.9615   65.1601 O   0  0  0  0  0  0  0  0  0  0  0  0
  -34.6904   62.0635   66.5316 O   0  0  0  0  0  0  0  0  0  0  0  0
  -33.8958   63.7369   62.7943 O   0  0  0  0  0  0  0  0  0  0  0  0
  -36.6562   62.8244   63.6331 O   0  0  0  0  0  0  0  0  0  0  0  0
  -36.4142   62.3265   64.9714 C   0  0  0  0  0  0  0  0  0  0  0  0
  -34.9117   62.5091   65.2290 C   0  0  0  0  0  0  0  0  0  0  0  0
  -34.4392   63.9763   65.1314 C   0  0  0  0  0  0  0  0  0  0  0  0
  -34.7326   64.4196   63.7247 C   0  0  0  0  0  0  0  0  0  0  0  0
  -36.1983   64.1849   63.4071 C   0  0  0  0  0  0  0  0  0  0  0  0
  -34.9817   61.1418   66.6120 H   0  0  0  0  0  0  0  0  0  0  0  0
  -32.9656   63.9003   63.0155 H   0  0  0  0  0  0  0  0  0  0  0  0
  -36.0264   63.6215   61.0905 O   0  0  0  0  0  0  0  0  0  0  0  0
  -36.2766   64.6806   61.9648 C   0  0  0  0  0  0  0  0  0  0  0  0
  -36.0767   63.9390   60.1753 H   0  0  0  0  0  0  0  0  0  0  0  0
  -33.0265   64.2030   65.3379 O   0  0  0  0  0  0  0  0  0  0  0  0
  -33.1204   65.5188   67.5687 O   0  0  0  0  0  0  0  0  0  0  0  0
  -32.7216   66.7098   65.4923 O   0  0  0  0  0  0  0  0  0  0  0  0
  -30.9593   65.3804   66.4932 O   0  0  0  0  0  0  0  0  0  0  0  0
  -32.4272   65.4619   66.2477 S   0  0  0  0  0  0  0  0  0  0  0  0
  -34.0787   65.5722   67.4289 H   0  0  0  0  0  0  0  0  0  0  0  0
  -30.7583   64.5693   66.9856 H   0  0  0  0  0  0  0  0  0  0  0  0
  2  1  1  0  0  0
  2  4  1  0  0  0
  2  5  1  0  0  0
 41 42  1  0  0  0
 41  1  1  0  0  0
 42 46  1  0  0  0
  1 24  1  0  0  0
 23 24  1  0  0  0
 23 25  1  0  0  0
 24 26  1  0  0  0
  3  4  2  0  0  0
 26 27  2  0  0  0
 27 28  1  0  0  0
 43 47  1  0  0  0
 43 51  1  0  0  0
 28 29  1  0  0  0
 56 48  1  0  0  0
 56 60  1  0  0  0
 29 30  1  0  0  0
 57 60  1  0  0  0
 57 61  1  0  0  0
 30 31  1  0  0  0
 44 49  1  0  0  0
 44 52  1  0  0  0
 31 32  1  0  0  0
 45 46  1  0  0  0
 45 50  1  0  0  0
 32 33  1  0  0  0
 53 54  1  0  0  0
 53 55  1  0  0  0
 33 34  1  0  0  0
 34 35  1  0  0  0
 35 36  1  0  0  0
 58 60  1  0  0  0
 36 37  1  0  0  0
 59 60  1  0  0  0
 59 62  1  0  0  0
 37 38  1  0  0  0
 38 39  1  0  0  0
 39 40  1  0  0  0
  4  6  1  0  0  0
  6  7  1  0  0  0
  7  8  1  0  0  0
  8  9  1  0  0  0
  9 10  1  0  0  0
 10 11  1  0  0  0
 11 12  1  0  0  0
 12 13  1  0  0  0
 13 14  1  0  0  0
 14 15  1  0  0  0
 15 16  1  0  0  0
 16 17  1  0  0  0
 17 18  1  0  0  0
 18 19  1  0  0  0
 19 20  1  0  0  0
 20 21  1  0  0  0
 21 22  1  0  0  0
 46 47  1  0  0  0
 47 48  1  0  0  0
 48 49  1  0  0  0
 49 50  1  0  0  0
 50 54  1  0  0  0
M  CHG 1  58  -1
M  END
> <minimizedAffinity>
-9.33519

> <CNNscore>
0.1880138218

> <CNNaffinity>
7.0461411476

> <CNN_VS>
1.3247718811

> <CNNaffinity_variance>
1.0244860649

$$$$
/media/chris/experiments/cd1a-new-docking/inputs/ligands/1onq_ligand.pdb


 62 62  0  0  0  0  0  0  0  0999 V2000
  -41.5949   60.1864   64.8072 C   0  0  0  0  0  0  0  0  0  0  0  0
  -41.5242   58.7977   64.3977 N   0  0  0  0  0  0  0  0  0  0  0  0
  -42.2034   57.7148   66.2721 O   0  0  0  0  0  0  0  0  0  0  0  0
  -41.8179   57.7074   65.1193 C   0  0  0  0  0  0  0  0  0  0  0  0
  -41.2229   58.6353   63.4746 H   0  0  0  0  0  0  0  0  0  0  0  0
  -41.6487   56.4021   64.4000 C   0  0  0  0  0  0  0  0  0  0  0  0
  -42.0404   56.6556   62.9441 C   0  0  0  0  0  0  0  0  0  0  0  0
  -41.1690   55.8134   62.0154 C   0  0  0  0  0  0  0  0  0  0  0  0
  -41.0224   56.3215   60.6016 C   0  0  0  0  0  0  0  0  0  0  0  0
  -41.7686   57.6483   60.5090 C   0  0  0  0  0  0  0  0  0  0  0  0
  -41.0803   58.6518   59.5741 C   0  0  0  0  0  0  0  0  0  0  0  0
  -39.7109   58.1869   59.0457 C   0  0  0  0  0  0  0  0  0  0  0  0
  -38.5542   59.1151   59.4769 C   0  0  0  0  0  0  0  0  0  0  0  0
  -37.7737   58.4998   60.6419 C   0  0  0  0  0  0  0  0  0  0  0  0
  -38.4663   58.5816   61.9968 C   0  0  0  0  0  0  0  0  0  0  0  0
  -38.0104   57.4828   62.9455 C   0  0  0  0  0  0  0  0  0  0  0  0
  -37.6541   57.9275   64.3659 C   0  0  0  0  0  0  0  0  0  0  0  0
  -36.1601   57.7151   64.5701 C   0  0  0  0  0  0  0  0  0  0  0  0
  -35.2435   57.7673   63.3568 C   0  0  0  0  0  0  0  0  0  0  0  0
  -34.2095   58.8957   63.4970 C   0  0  0  0  0  0  0  0  0  0  0  0
  -32.7432   58.4278   63.4487 C   0  0  0  0  0  0  0  0  0  0  0  0
  -31.7777   59.5144   62.9809 C   0  0  0  0  0  0  0  0  0  0  0  0
  -42.0874   62.2321   63.8231 O   0  0  0  0  0  0  0  0  0  0  0  0
  -42.2879   60.8447   63.6266 C   0  0  0  0  0  0  0  0  0  0  0  0
  -41.1371   62.4264   63.8102 H   0  0  0  0  0  0  0  0  0  0  0  0
  -43.7717   60.4694   63.6361 C   0  0  0  0  0  0  0  0  0  0  0  0
  -44.6483   60.9731   64.5214 C   0  0  0  0  0  0  0  0  0  0  0  0
  -46.1143   60.5476   64.4661 C   0  0  0  0  0  0  0  0  0  0  0  0
  -46.5908   59.7948   65.7169 C   0  0  0  0  0  0  0  0  0  0  0  0
  -47.9113   59.0174   65.5641 C   0  0  0  0  0  0  0  0  0  0  0  0
  -49.0915   59.8151   66.1694 C   0  0  0  0  0  0  0  0  0  0  0  0
  -50.4821   59.5038   65.5605 C   0  0  0  0  0  0  0  0  0  0  0  0
  -50.8361   60.3578   64.3204 C   0  0  0  0  0  0  0  0  0  0  0  0
  -51.3457   59.5266   63.1231 C   0  0  0  0  0  0  0  0  0  0  0  0
  -50.2982   58.5661   62.5472 C   0  0  0  0  0  0  0  0  0  0  0  0
  -50.7784   57.6388   61.4327 C   0  0  0  0  0  0  0  0  0  0  0  0
  -50.5537   58.1972   60.0137 C   0  0  0  0  0  0  0  0  0  0  0  0
  -49.4279   57.5223   59.2153 C   0  0  0  0  0  0  0  0  0  0  0  0
  -48.3273   58.5263   58.8605 C   0  0  0  0  0  0  0  0  0  0  0  0
  -47.3724   58.1180   57.7527 C   0  0  0  0  0  0  0  0  0  0  0  0
  -40.2607   60.8115   65.2741 C   0  0  0  0  0  0  0  0  0  0  0  0
  -39.3525   61.2532   64.2333 O   0  0  0  0  0  0  0  0  0  0  0  0
  -37.3516   61.7120   62.2424 O   0  0  0  0  0  0  0  0  0  0  0  0
  -35.8058   64.2860   65.1379 O   0  0  0  0  0  0  0  0  0  0  0  0
  -37.6535   61.9841   65.8033 O   0  0  0  0  0  0  0  0  0  0  0  0
  -37.9086   61.4159   64.4957 C   0  0  0  0  0  0  0  0  0  0  0  0
  -37.1337   62.2849   63.4948 C   0  0  0  0  0  0  0  0  0  0  0  0
  -35.6114   62.3214   63.7533 C   0  0  0  0  0  0  0  0  0  0  0  0
  -35.4320   62.9105   65.1252 C   0  0  0  0  0  0  0  0  0  0  0  0
  -36.2452   62.1200   66.1342 C   0  0  0  0  0  0  0  0  0  0  0  0
  -38.3043   61.6806   62.0625 H   0  0  0  0  0  0  0  0  0  0  0  0
  -35.2749   64.7714   64.4871 H   0  0  0  0  0  0  0  0  0  0  0  0
  -34.5845   63.2199   67.4555 O   0  0  0  0  0  0  0  0  0  0  0  0
  -35.9365   62.8738   67.4259 C   0  0  0  0  0  0  0  0  0  0  0  0
  -34.3911   63.6984   68.2768 H   0  0  0  0  0  0  0  0  0  0  0  0
  -34.8353   63.1478   62.8563 O   0  0  0  0  0  0  0  0  0  0  0  0
  -35.9808   63.9011   60.6570 O   0  0  0  0  0  0  0  0  0  0  0  0
  -34.3867   65.3745   61.7419 O   0  0  0  0  0  0  0  0  0  0  0  0
  -36.6120   65.0970   62.6613 O   0  0  0  0  0  0  0  0  0  0  0  0
  -35.4875   64.4004   61.9746 S   0  0  0  0  0  0  0  0  0  0  0  0
  -35.2612   63.4439   60.1945 H   0  0  0  0  0  0  0  0  0  0  0  0
  -37.3347   64.4689   62.8170 H   0  0  0  0  0  0  0  0  0  0  0  0
  2  1  1  0  0  0
  2  4  1  0  0  0
  2  5  1  0  0  0
 41 42  1  0  0  0
 41  1  1  0  0  0
 42 46  1  0  0  0
  1 24  1  0  0  0
 23 24  1  0  0  0
 23 25  1  0  0  0
 24 26  1  0  0  0
  3  4  2  0  0  0
 26 27  2  0  0  0
 27 28  1  0  0  0
 43 47  1  0  0  0
 43 51  1  0  0  0
 28 29  1  0  0  0
 56 48  1  0  0  0
 56 60  1  0  0  0
 29 30  1  0  0  0
 57 60  1  0  0  0
 57 61  1  0  0  0
 30 31  1  0  0  0
 44 49  1  0  0  0
 44 52  1  0  0  0
 31 32  1  0  0  0
 45 46  1  0  0  0
 45 50  1  0  0  0
 32 33  1  0  0  0
 53 54  1  0  0  0
 53 55  1  0  0  0
 33 34  1  0  0  0
 34 35  1  0  0  0
 35 36  1  0  0  0
 58 60  1  0  0  0
 36 37  1  0  0  0
 59 60  1  0  0  0
 59 62  1  0  0  0
 37 38  1  0  0  0
 38 39  1  0  0  0
 39 40  1  0  0  0
  4  6  1  0  0  0
  6  7  1  0  0  0
  7  8  1  0  0  0
  8  9  1  0  0  0
  9 10  1  0  0  0
 10 11  1  0  0  0
 11 12  1  0  0  0
 12 13  1  0  0  0
 13 14  1  0  0  0
 14 15  1  0  0  0
 15 16  1  0  0  0
 16 17  1  0  0  0
 17 18  1  0  0  0
 18 19  1  0  0  0
 19 20  1  0  0  0
 20 21  1  0  0  0
 21 22  1  0  0  0
 46 47  1  0  0  0
 47 48  1  0  0  0
 48 49  1  0  0  0
 49 50  1  0  0  0
 50 54  1  0  0  0
M  CHG 1  58  -1
M  END
> <minimizedAffinity>
-9.82521

> <CNNscore>
0.1839860678

> <CNNaffinity>
7.0645484924

> <CNN_VS>
1.2997784615

> <CNNaffinity_variance>
1.6296741962

$$$$
/media/chris/experiments/cd1a-new-docking/inputs/ligands/1onq_ligand.pdb


 62 62  0  0  0  0  0  0  0  0999 V2000
  -40.7500   59.8394   63.9321 C   0  0  0  0  0  0  0  0  0  0  0  0
  -41.9878   60.4322   64.3986 N   0  0  0  0  0  0  0  0  0  0  0  0
  -43.5474   59.1026   63.4253 O   0  0  0  0  0  0  0  0  0  0  0  0
  -43.2422   60.0456   64.1291 C   0  0  0  0  0  0  0  0  0  0  0  0
  -41.8954   61.2165   64.9865 H   0  0  0  0  0  0  0  0  0  0  0  0
  -44.3160   60.8685   64.7768 C   0  0  0  0  0  0  0  0  0  0  0  0
  -44.9098   60.0066   65.8911 C   0  0  0  0  0  0  0  0  0  0  0  0
  -46.2782   59.4777   65.4683 C   0  0  0  0  0  0  0  0  0  0  0  0
  -46.9995   60.2754   64.4092 C   0  0  0  0  0  0  0  0  0  0  0  0
  -48.2996   60.7855   65.0220 C   0  0  0  0  0  0  0  0  0  0  0  0
  -48.9630   59.7564   65.9471 C   0  0  0  0  0  0  0  0  0  0  0  0
  -50.3983   59.3746   65.5415 C   0  0  0  0  0  0  0  0  0  0  0  0
  -51.0657   60.4288   64.6313 C   0  0  0  0  0  0  0  0  0  0  0  0
  -51.5330   59.7916   63.3196 C   0  0  0  0  0  0  0  0  0  0  0  0
  -50.4508   59.6320   62.2587 C   0  0  0  0  0  0  0  0  0  0  0  0
  -49.9706   58.1934   62.1358 C   0  0  0  0  0  0  0  0  0  0  0  0
  -50.3615   57.4629   60.8490 C   0  0  0  0  0  0  0  0  0  0  0  0
  -50.0934   58.3932   59.6737 C   0  0  0  0  0  0  0  0  0  0  0  0
  -48.6552   58.6051   59.2245 C   0  0  0  0  0  0  0  0  0  0  0  0
  -47.8834   57.2761   59.2064 C   0  0  0  0  0  0  0  0  0  0  0  0
  -46.9390   57.1025   58.0025 C   0  0  0  0  0  0  0  0  0  0  0  0
  -46.9563   58.2918   57.0450 C   0  0  0  0  0  0  0  0  0  0  0  0
  -39.8630   60.3225   66.0239 O   0  0  0  0  0  0  0  0  0  0  0  0
  -40.1828   59.2188   65.1973 C   0  0  0  0  0  0  0  0  0  0  0  0
  -40.6704   60.8218   66.2233 H   0  0  0  0  0  0  0  0  0  0  0  0
  -38.9482   58.3861   64.8440 C   0  0  0  0  0  0  0  0  0  0  0  0
  -37.7859   58.4806   65.5120 C   0  0  0  0  0  0  0  0  0  0  0  0
  -36.5979   57.6149   65.0971 C   0  0  0  0  0  0  0  0  0  0  0  0
  -35.6777   58.2771   64.0613 C   0  0  0  0  0  0  0  0  0  0  0  0
  -35.8901   57.8346   62.6017 C   0  0  0  0  0  0  0  0  0  0  0  0
  -36.9128   58.7544   61.8922 C   0  0  0  0  0  0  0  0  0  0  0  0
  -38.0490   58.0208   61.1355 C   0  0  0  0  0  0  0  0  0  0  0  0
  -38.3623   58.6082   59.7393 C   0  0  0  0  0  0  0  0  0  0  0  0
  -39.7475   58.1987   59.1937 C   0  0  0  0  0  0  0  0  0  0  0  0
  -40.9219   58.7919   59.9813 C   0  0  0  0  0  0  0  0  0  0  0  0
  -41.7565   57.8009   60.7900 C   0  0  0  0  0  0  0  0  0  0  0  0
  -41.3395   56.3293   60.5991 C   0  0  0  0  0  0  0  0  0  0  0  0
  -41.3156   55.4839   61.8816 C   0  0  0  0  0  0  0  0  0  0  0  0
  -41.1656   56.3700   63.1215 C   0  0  0  0  0  0  0  0  0  0  0  0
  -42.1668   56.1414   64.2400 C   0  0  0  0  0  0  0  0  0  0  0  0
  -39.8192   60.7819   63.1357 C   0  0  0  0  0  0  0  0  0  0  0  0
  -39.1844   61.8500   63.8838 O   0  0  0  0  0  0  0  0  0  0  0  0
  -37.1142   62.2069   61.9436 O   0  0  0  0  0  0  0  0  0  0  0  0
  -35.3312   64.3928   65.0163 O   0  0  0  0  0  0  0  0  0  0  0  0
  -37.4378   62.2780   65.5122 O   0  0  0  0  0  0  0  0  0  0  0  0
  -37.7356   61.8294   64.1676 C   0  0  0  0  0  0  0  0  0  0  0  0
  -36.8520   62.6680   63.2331 C   0  0  0  0  0  0  0  0  0  0  0  0
  -35.3395   62.5136   63.5052 C   0  0  0  0  0  0  0  0  0  0  0  0
  -35.1155   62.9873   64.9147 C   0  0  0  0  0  0  0  0  0  0  0  0
  -36.0283   62.2304   65.8624 C   0  0  0  0  0  0  0  0  0  0  0  0
  -38.0614   62.2962   61.7546 H   0  0  0  0  0  0  0  0  0  0  0  0
  -34.7389   64.8560   64.4035 H   0  0  0  0  0  0  0  0  0  0  0  0
  -36.4613   63.9736   67.4394 O   0  0  0  0  0  0  0  0  0  0  0  0
  -35.6561   62.8579   67.2039 C   0  0  0  0  0  0  0  0  0  0  0  0
  -36.2229   64.3703   68.2919 H   0  0  0  0  0  0  0  0  0  0  0  0
  -34.4611   63.3031   62.6714 O   0  0  0  0  0  0  0  0  0  0  0  0
  -33.9032   65.4648   61.3551 O   0  0  0  0  0  0  0  0  0  0  0  0
  -36.0921   65.2139   62.3725 O   0  0  0  0  0  0  0  0  0  0  0  0
  -35.5376   63.9898   60.3554 O   0  0  0  0  0  0  0  0  0  0  0  0
  -35.0041   64.5005   61.6501 S   0  0  0  0  0  0  0  0  0  0  0  0
  -33.5428   65.8084   62.1875 H   0  0  0  0  0  0  0  0  0  0  0  0
  -34.8343   63.5229   59.8775 H   0  0  0  0  0  0  0  0  0  0  0  0
  2  1  1  0  0  0
  2  4  1  0  0  0
  2  5  1  0  0  0
 41 42  1  0  0  0
 41  1  1  0  0  0
 42 46  1  0  0  0
  1 24  1  0  0  0
 23 24  1  0  0  0
 23 25  1  0  0  0
 24 26  1  0  0  0
  3  4  2  0  0  0
 26 27  2  0  0  0
 27 28  1  0  0  0
 43 47  1  0  0  0
 43 51  1  0  0  0
 28 29  1  0  0  0
 56 48  1  0  0  0
 56 60  1  0  0  0
 29 30  1  0  0  0
 57 60  1  0  0  0
 57 61  1  0  0  0
 30 31  1  0  0  0
 44 49  1  0  0  0
 44 52  1  0  0  0
 31 32  1  0  0  0
 45 46  1  0  0  0
 45 50  1  0  0  0
 32 33  1  0  0  0
 53 54  1  0  0  0
 53 55  1  0  0  0
 33 34  1  0  0  0
 34 35  1  0  0  0
 35 36  1  0  0  0
 58 60  1  0  0  0
 36 37  1  0  0  0
 59 60  1  0  0  0
 59 62  1  0  0  0
 37 38  1  0  0  0
 38 39  1  0  0  0
 39 40  1  0  0  0
  4  6  1  0  0  0
  6  7  1  0  0  0
  7  8  1  0  0  0
  8  9  1  0  0  0
  9 10  1  0  0  0
 10 11  1  0  0  0
 11 12  1  0  0  0
 12 13  1  0  0  0
 13 14  1  0  0  0
 14 15  1  0  0  0
 15 16  1  0  0  0
 16 17  1  0  0  0
 17 18  1  0  0  0
 18 19  1  0  0  0
 19 20  1  0  0  0
 20 21  1  0  0  0
 21 22  1  0  0  0
 46 47  1  0  0  0
 47 48  1  0  0  0
 48 49  1  0  0  0
 49 50  1  0  0  0
 50 54  1  0  0  0
M  CHG 1  58  -1
M  END
> <minimizedAffinity>
-9.90339

> <CNNscore>
0.1411036104

> <CNNaffinity>
7.0159339905

> <CNN_VS>
0.9899736047

> <CNNaffinity_variance>
1.4876190424

$$$$
/media/chris/experiments/cd1a-new-docking/inputs/ligands/1onq_ligand.pdb


 62 62  0  0  0  0  0  0  0  0999 V2000
  -40.6935   60.0353   64.0748 C   0  0  0  0  0  0  0  0  0  0  0  0
  -41.9736   60.5468   64.5229 N   0  0  0  0  0  0  0  0  0  0  0  0
  -42.8289   61.4245   62.6135 O   0  0  0  0  0  0  0  0  0  0  0  0
  -42.9107   61.1759   63.8007 C   0  0  0  0  0  0  0  0  0  0  0  0
  -42.1804   60.4155   65.4765 H   0  0  0  0  0  0  0  0  0  0  0  0
  -44.1397   61.5767   64.5614 C   0  0  0  0  0  0  0  0  0  0  0  0
  -44.9251   60.2917   64.8241 C   0  0  0  0  0  0  0  0  0  0  0  0
  -46.3866   60.4831   64.4257 C   0  0  0  0  0  0  0  0  0  0  0  0
  -47.3510   59.4304   64.9156 C   0  0  0  0  0  0  0  0  0  0  0  0
  -48.4224   60.1354   65.7409 C   0  0  0  0  0  0  0  0  0  0  0  0
  -49.8405   59.6521   65.4086 C   0  0  0  0  0  0  0  0  0  0  0  0
  -50.6330   60.6012   64.4912 C   0  0  0  0  0  0  0  0  0  0  0  0
  -50.5820   60.1819   63.0056 C   0  0  0  0  0  0  0  0  0  0  0  0
  -51.2803   58.8345   62.8006 C   0  0  0  0  0  0  0  0  0  0  0  0
  -50.8409   58.0622   61.5625 C   0  0  0  0  0  0  0  0  0  0  0  0
  -49.3398   57.8147   61.5391 C   0  0  0  0  0  0  0  0  0  0  0  0
  -48.6704   57.8784   60.1643 C   0  0  0  0  0  0  0  0  0  0  0  0
  -48.1740   56.4827   59.8118 C   0  0  0  0  0  0  0  0  0  0  0  0
  -47.2256   56.3219   58.6329 C   0  0  0  0  0  0  0  0  0  0  0  0
  -47.9950   56.3355   57.3025 C   0  0  0  0  0  0  0  0  0  0  0  0
  -47.8477   57.6370   56.4929 C   0  0  0  0  0  0  0  0  0  0  0  0
  -46.8347   58.6097   57.0922 C   0  0  0  0  0  0  0  0  0  0  0  0
  -39.6350   58.2253   65.0745 O   0  0  0  0  0  0  0  0  0  0  0  0
  -40.8133   58.5480   64.3595 C   0  0  0  0  0  0  0  0  0  0  0  0
  -39.6117   58.7287   65.9034 H   0  0  0  0  0  0  0  0  0  0  0  0
  -40.9122   57.7850   63.0365 C   0  0  0  0  0  0  0  0  0  0  0  0
  -41.6864   58.1888   62.0148 C   0  0  0  0  0  0  0  0  0  0  0  0
  -41.7318   57.3707   60.7257 C   0  0  0  0  0  0  0  0  0  0  0  0
  -41.1580   58.1032   59.5040 C   0  0  0  0  0  0  0  0  0  0  0  0
  -41.0028   59.6280   59.6534 C   0  0  0  0  0  0  0  0  0  0  0  0
  -39.5386   60.0008   59.9887 C   0  0  0  0  0  0  0  0  0  0  0  0
  -38.4590   59.1341   59.2925 C   0  0  0  0  0  0  0  0  0  0  0  0
  -37.4413   58.4897   60.2629 C   0  0  0  0  0  0  0  0  0  0  0  0
  -38.0998   57.6681   61.3923 C   0  0  0  0  0  0  0  0  0  0  0  0
  -37.2822   57.6342   62.6891 C   0  0  0  0  0  0  0  0  0  0  0  0
  -36.0193   58.4929   62.7091 C   0  0  0  0  0  0  0  0  0  0  0  0
  -34.7279   57.7002   62.9914 C   0  0  0  0  0  0  0  0  0  0  0  0
  -33.4207   58.4515   62.6966 C   0  0  0  0  0  0  0  0  0  0  0  0
  -32.8962   59.1555   63.9513 C   0  0  0  0  0  0  0  0  0  0  0  0
  -33.1309   58.4446   65.2724 C   0  0  0  0  0  0  0  0  0  0  0  0
  -39.4517   60.7596   64.6424 C   0  0  0  0  0  0  0  0  0  0  0  0
  -38.3833   61.0462   63.7045 O   0  0  0  0  0  0  0  0  0  0  0  0
  -36.3812   61.2807   65.7327 O   0  0  0  0  0  0  0  0  0  0  0  0
  -34.2025   63.0437   62.6433 O   0  0  0  0  0  0  0  0  0  0  0  0
  -37.2248   62.8969   62.6471 O   0  0  0  0  0  0  0  0  0  0  0  0
  -37.4906   62.2071   63.8925 C   0  0  0  0  0  0  0  0  0  0  0  0
  -36.1194   61.9108   64.5167 C   0  0  0  0  0  0  0  0  0  0  0  0
  -35.2789   63.1760   64.7970 C   0  0  0  0  0  0  0  0  0  0  0  0
  -35.0563   63.8365   63.4645 C   0  0  0  0  0  0  0  0  0  0  0  0
  -36.3904   64.0789   62.7820 C   0  0  0  0  0  0  0  0  0  0  0  0
  -36.9093   60.4823   65.5761 H   0  0  0  0  0  0  0  0  0  0  0  0
  -33.3575   62.9014   63.0979 H   0  0  0  0  0  0  0  0  0  0  0  0
  -35.7368   63.7451   60.5071 O   0  0  0  0  0  0  0  0  0  0  0  0
  -35.9452   64.7299   61.4742 C   0  0  0  0  0  0  0  0  0  0  0  0
  -35.4542   64.1610   59.6777 H   0  0  0  0  0  0  0  0  0  0  0  0
  -33.9660   62.9535   65.3597 O   0  0  0  0  0  0  0  0  0  0  0  0
  -33.3212   63.2440   67.8530 O   0  0  0  0  0  0  0  0  0  0  0  0
  -34.1454   65.1516   66.5996 O   0  0  0  0  0  0  0  0  0  0  0  0
  -31.8911   64.3376   66.2391 O   0  0  0  0  0  0  0  0  0  0  0  0
  -33.2958   63.9319   66.5283 S   0  0  0  0  0  0  0  0  0  0  0  0
  -34.2292   62.9720   68.0587 H   0  0  0  0  0  0  0  0  0  0  0  0
  -31.3298   63.5480   66.1908 H   0  0  0  0  0  0  0  0  0  0  0  0
  2  1  1  0  0  0
  2  4  1  0  0  0
  2  5  1  0  0  0
 41 42  1  0  0  0
 41  1  1  0  0  0
 42 46  1  0  0  0
  1 24  1  0  0  0
 23 24  1  0  0  0
 23 25  1  0  0  0
 24 26  1  0  0  0
  3  4  2  0  0  0
 26 27  2  0  0  0
 27 28  1  0  0  0
 43 47  1  0  0  0
 43 51  1  0  0  0
 28 29  1  0  0  0
 56 48  1  0  0  0
 56 60  1  0  0  0
 29 30  1  0  0  0
 57 60  1  0  0  0
 57 61  1  0  0  0
 30 31  1  0  0  0
 44 49  1  0  0  0
 44 52  1  0  0  0
 31 32  1  0  0  0
 45 46  1  0  0  0
 45 50  1  0  0  0
 32 33  1  0  0  0
 53 54  1  0  0  0
 53 55  1  0  0  0
 33 34  1  0  0  0
 34 35  1  0  0  0
 35 36  1  0  0  0
 58 60  1  0  0  0
 36 37  1  0  0  0
 59 60  1  0  0  0
 59 62  1  0  0  0
 37 38  1  0  0  0
 38 39  1  0  0  0
 39 40  1  0  0  0
  4  6  1  0  0  0
  6  7  1  0  0  0
  7  8  1  0  0  0
  8  9  1  0  0  0
  9 10  1  0  0  0
 10 11  1  0  0  0
 11 12  1  0  0  0
 12 13  1  0  0  0
 13 14  1  0  0  0
 14 15  1  0  0  0
 15 16  1  0  0  0
 16 17  1  0  0  0
 17 18  1  0  0  0
 18 19  1  0  0  0
 19 20  1  0  0  0
 20 21  1  0  0  0
 21 22  1  0  0  0
 46 47  1  0  0  0
 47 48  1  0  0  0
 48 49  1  0  0  0
 49 50  1  0  0  0
 50 54  1  0  0  0
M  CHG 1  58  -1
M  END
> <minimizedAffinity>
-9.71531

> <CNNscore>
0.1404672563

> <CNNaffinity>
6.6694083214

> <CNN_VS>
0.9368335009

> <CNNaffinity_variance>
1.5679546595

$$$$
