/media/chris/experiments/cd1a-new-docking/inputs/ligands/1onq_ligand.pdb


 62 62  0  0  0  0  0  0  0  0999 V2000
  -41.3537   59.7662   65.1554 C   0  0  0  0  0  0  0  0  0  0  0  0
  -41.5820   59.3302   63.7920 N   0  0  0  0  0  0  0  0  0  0  0  0
  -41.4747   57.0727   63.9911 O   0  0  0  0  0  0  0  0  0  0  0  0
  -41.6256   58.0762   63.3217 C   0  0  0  0  0  0  0  0  0  0  0  0
  -41.7225   60.0443   63.1290 H   0  0  0  0  0  0  0  0  0  0  0  0
  -41.8919   57.9558   61.8506 C   0  0  0  0  0  0  0  0  0  0  0  0
  -41.5375   59.3090   61.2338 C   0  0  0  0  0  0  0  0  0  0  0  0
  -41.0295   59.1148   59.8073 C   0  0  0  0  0  0  0  0  0  0  0  0
  -39.9838   58.0431   59.6156 C   0  0  0  0  0  0  0  0  0  0  0  0
  -38.6350   58.7380   59.4603 C   0  0  0  0  0  0  0  0  0  0  0  0
  -37.6926   58.4741   60.6424 C   0  0  0  0  0  0  0  0  0  0  0  0
  -38.2311   57.4572   61.6654 C   0  0  0  0  0  0  0  0  0  0  0  0
  -37.7785   57.7620   63.1103 C   0  0  0  0  0  0  0  0  0  0  0  0
  -36.4338   58.4946   63.1116 C   0  0  0  0  0  0  0  0  0  0  0  0
  -35.2123   57.6006   63.2876 C   0  0  0  0  0  0  0  0  0  0  0  0
  -34.0428   58.0440   62.4212 C   0  0  0  0  0  0  0  0  0  0  0  0
  -32.8302   58.6058   63.1671 C   0  0  0  0  0  0  0  0  0  0  0  0
  -32.1991   59.6883   62.3018 C   0  0  0  0  0  0  0  0  0  0  0  0
  -30.7972   60.1705   62.6440 C   0  0  0  0  0  0  0  0  0  0  0  0
  -30.1949   60.9779   61.4834 C   0  0  0  0  0  0  0  0  0  0  0  0
  -28.7691   61.4995   61.7405 C   0  0  0  0  0  0  0  0  0  0  0  0
  -27.7757   60.3942   62.0916 C   0  0  0  0  0  0  0  0  0  0  0  0
  -41.9156   61.7014   66.3109 O   0  0  0  0  0  0  0  0  0  0  0  0
  -42.4494   60.7981   65.3608 C   0  0  0  0  0  0  0  0  0  0  0  0
  -41.1193   62.1196   65.9477 H   0  0  0  0  0  0  0  0  0  0  0  0
  -43.7122   60.1016   65.8732 C   0  0  0  0  0  0  0  0  0  0  0  0
  -44.9007   60.1913   65.2522 C   0  0  0  0  0  0  0  0  0  0  0  0
  -46.1159   59.4665   65.8278 C   0  0  0  0  0  0  0  0  0  0  0  0
  -47.4609   60.0188   65.3335 C   0  0  0  0  0  0  0  0  0  0  0  0
  -48.6296   59.9189   66.3311 C   0  0  0  0  0  0  0  0  0  0  0  0
  -49.9853   59.8709   65.5860 C   0  0  0  0  0  0  0  0  0  0  0  0
  -50.0651   60.7337   64.3012 C   0  0  0  0  0  0  0  0  0  0  0  0
  -50.7230   60.0184   63.0978 C   0  0  0  0  0  0  0  0  0  0  0  0
  -49.9491   58.7694   62.6233 C   0  0  0  0  0  0  0  0  0  0  0  0
  -50.7865   57.8124   61.7665 C   0  0  0  0  0  0  0  0  0  0  0  0
  -50.0617   57.1494   60.5970 C   0  0  0  0  0  0  0  0  0  0  0  0
  -49.0835   58.0829   59.8568 C   0  0  0  0  0  0  0  0  0  0  0  0
  -47.8514   57.3932   59.2518 C   0  0  0  0  0  0  0  0  0  0  0  0
  -47.8491   57.5115   57.7251 C   0  0  0  0  0  0  0  0  0  0  0  0
  -46.9294   58.5635   57.1307 C   0  0  0  0  0  0  0  0  0  0  0  0
  -39.9079   60.2051   65.4808 C   0  0  0  0  0  0  0  0  0  0  0  0
  -39.3286   61.2178   64.6195 O   0  0  0  0  0  0  0  0  0  0  0  0
  -37.6901   61.6278   62.3120 O   0  0  0  0  0  0  0  0  0  0  0  0
  -35.9491   64.5593   64.7149 O   0  0  0  0  0  0  0  0  0  0  0  0
  -37.4815   62.2065   65.8426 O   0  0  0  0  0  0  0  0  0  0  0  0
  -37.8801   61.5035   64.6408 C   0  0  0  0  0  0  0  0  0  0  0  0
  -37.3366   62.3278   63.4648 C   0  0  0  0  0  0  0  0  0  0  0  0
  -35.8011   62.4932   63.4803 C   0  0  0  0  0  0  0  0  0  0  0  0
  -35.4692   63.2176   64.7556 C   0  0  0  0  0  0  0  0  0  0  0  0
  -36.0556   62.4694   65.9390 C   0  0  0  0  0  0  0  0  0  0  0  0
  -38.6530   61.5142   62.2851 H   0  0  0  0  0  0  0  0  0  0  0  0
  -35.5625   65.0179   63.9526 H   0  0  0  0  0  0  0  0  0  0  0  0
  -36.2614   62.9460   68.2723 O   0  0  0  0  0  0  0  0  0  0  0  0
  -35.6217   63.3589   67.1021 C   0  0  0  0  0  0  0  0  0  0  0  0
  -35.9842   63.5123   69.0094 H   0  0  0  0  0  0  0  0  0  0  0  0
  -35.2376   63.2848   62.4100 O   0  0  0  0  0  0  0  0  0  0  0  0
  -32.8438   62.8958   63.3240 O   0  0  0  0  0  0  0  0  0  0  0  0
  -33.5175   65.1255   62.6428 O   0  0  0  0  0  0  0  0  0  0  0  0
  -33.0216   63.4387   60.9745 O   0  0  0  0  0  0  0  0  0  0  0  0
  -33.6221   63.6771   62.3177 S   0  0  0  0  0  0  0  0  0  0  0  0
  -33.2206   63.0388   64.2062 H   0  0  0  0  0  0  0  0  0  0  0  0
  -33.0856   62.4961   60.7544 H   0  0  0  0  0  0  0  0  0  0  0  0
  2  1  1  0  0  0
  2  4  1  0  0  0
  2  5  1  0  0  0
 41 42  1  0  0  0
 41  1  1  0  0  0
 42 46  1  0  0  0
  1 24  1  0  0  0
 23 24  1  0  0  0
 23 25  1  0  0  0
 24 26  1  0  0  0
  3  4  2  0  0  0
 26 27  2  0  0  0
 27 28  1  0  0  0
 43 47  1  0  0  0
 43 51  1  0  0  0
 28 29  1  0  0  0
 56 48  1  0  0  0
 56 60  1  0  0  0
 29 30  1  0  0  0
 57 60  1  0  0  0
 57 61  1  0  0  0
 30 31  1  0  0  0
 44 49  1  0  0  0
 44 52  1  0  0  0
 31 32  1  0  0  0
 45 46  1  0  0  0
 45 50  1  0  0  0
 32 33  1  0  0  0
 53 54  1  0  0  0
 53 55  1  0  0  0
 33 34  1  0  0  0
 34 35  1  0  0  0
 35 36  1  0  0  0
 58 60  1  0  0  0
 36 37  1  0  0  0
 59 60  1  0  0  0
 59 62  1  0  0  0
 37 38  1  0  0  0
 38 39  1  0  0  0
 39 40  1  0  0  0
  4  6  1  0  0  0
  6  7  1  0  0  0
  7  8  1  0  0  0
  8  9  1  0  0  0
  9 10  1  0  0  0
 10 11  1  0  0  0
 11 12  1  0  0  0
 12 13  1  0  0  0
 13 14  1  0  0  0
 14 15  1  0  0  0
 15 16  1  0  0  0
 16 17  1  0  0  0
 17 18  1  0  0  0
 18 19  1  0  0  0
 19 20  1  0  0  0
 20 21  1  0  0  0
 21 22  1  0  0  0
 46 47  1  0  0  0
 47 48  1  0  0  0
 48 49  1  0  0  0
 49 50  1  0  0  0
 50 54  1  0  0  0
M  CHG 1  58  -1
M  END
> <minimizedAffinity>
-9.84269

> <CNNscore>
0.3525725603

> <CNNaffinity>
6.9417963028

> <CNN_VS>
2.4474868774

> <CNNaffinity_variance>
1.5003454685

$$$$
/media/chris/experiments/cd1a-new-docking/inputs/ligands/1onq_ligand.pdb


 62 62  0  0  0  0  0  0  0  0999 V2000
  -41.6183   59.9460   65.3561 C   0  0  0  0  0  0  0  0  0  0  0  0
  -41.7234   58.6214   64.7770 N   0  0  0  0  0  0  0  0  0  0  0  0
  -42.5697   57.4149   66.5021 O   0  0  0  0  0  0  0  0  0  0  0  0
  -42.1693   57.4989   65.3573 C   0  0  0  0  0  0  0  0  0  0  0  0
  -41.4307   58.5357   63.8410 H   0  0  0  0  0  0  0  0  0  0  0  0
  -42.1608   56.2814   64.4813 C   0  0  0  0  0  0  0  0  0  0  0  0
  -41.9798   56.7804   63.0476 C   0  0  0  0  0  0  0  0  0  0  0  0
  -41.2983   55.7061   62.2037 C   0  0  0  0  0  0  0  0  0  0  0  0
  -41.2305   55.9724   60.7193 C   0  0  0  0  0  0  0  0  0  0  0  0
  -41.7091   57.4014   60.4853 C   0  0  0  0  0  0  0  0  0  0  0  0
  -40.8906   58.1327   59.4128 C   0  0  0  0  0  0  0  0  0  0  0  0
  -40.6010   59.6099   59.7365 C   0  0  0  0  0  0  0  0  0  0  0  0
  -39.0905   59.9238   59.8082 C   0  0  0  0  0  0  0  0  0  0  0  0
  -38.2690   58.6315   59.7907 C   0  0  0  0  0  0  0  0  0  0  0  0
  -37.4096   58.3968   61.0271 C   0  0  0  0  0  0  0  0  0  0  0  0
  -37.9955   57.3332   61.9439 C   0  0  0  0  0  0  0  0  0  0  0  0
  -38.4552   57.8144   63.3220 C   0  0  0  0  0  0  0  0  0  0  0  0
  -37.2617   58.4424   64.0291 C   0  0  0  0  0  0  0  0  0  0  0  0
  -36.0017   57.6096   64.2127 C   0  0  0  0  0  0  0  0  0  0  0  0
  -34.7429   58.4824   64.0883 C   0  0  0  0  0  0  0  0  0  0  0  0
  -33.7333   58.0001   63.0304 C   0  0  0  0  0  0  0  0  0  0  0  0
  -32.9493   59.1380   62.3806 C   0  0  0  0  0  0  0  0  0  0  0  0
  -42.3841   62.0990   64.9391 O   0  0  0  0  0  0  0  0  0  0  0  0
  -42.4463   60.7906   64.4028 C   0  0  0  0  0  0  0  0  0  0  0  0
  -41.4625   62.4016   64.9473 H   0  0  0  0  0  0  0  0  0  0  0  0
  -43.8782   60.2518   64.3615 C   0  0  0  0  0  0  0  0  0  0  0  0
  -44.9608   61.0425   64.4568 C   0  0  0  0  0  0  0  0  0  0  0  0
  -46.3582   60.4275   64.4081 C   0  0  0  0  0  0  0  0  0  0  0  0
  -46.4046   58.9545   64.8399 C   0  0  0  0  0  0  0  0  0  0  0  0
  -47.6565   58.5308   65.6301 C   0  0  0  0  0  0  0  0  0  0  0  0
  -48.8464   58.2701   64.6754 C   0  0  0  0  0  0  0  0  0  0  0  0
  -50.2199   58.7870   65.1735 C   0  0  0  0  0  0  0  0  0  0  0  0
  -50.8438   59.8867   64.2823 C   0  0  0  0  0  0  0  0  0  0  0  0
  -50.9552   59.4869   62.7951 C   0  0  0  0  0  0  0  0  0  0  0  0
  -49.9031   60.1485   61.8971 C   0  0  0  0  0  0  0  0  0  0  0  0
  -49.6188   59.4500   60.5690 C   0  0  0  0  0  0  0  0  0  0  0  0
  -50.1158   57.9921   60.5098 C   0  0  0  0  0  0  0  0  0  0  0  0
  -49.0329   56.9426   60.2164 C   0  0  0  0  0  0  0  0  0  0  0  0
  -48.1153   57.4022   59.0798 C   0  0  0  0  0  0  0  0  0  0  0  0
  -47.2070   56.3456   58.4762 C   0  0  0  0  0  0  0  0  0  0  0  0
  -40.1811   60.4305   65.6535 C   0  0  0  0  0  0  0  0  0  0  0  0
  -39.5133   61.1661   64.5969 O   0  0  0  0  0  0  0  0  0  0  0  0
  -37.7892   61.5555   62.3490 O   0  0  0  0  0  0  0  0  0  0  0  0
  -36.1820   64.5528   64.7640 O   0  0  0  0  0  0  0  0  0  0  0  0
  -37.7290   62.2009   65.8738 O   0  0  0  0  0  0  0  0  0  0  0  0
  -38.0705   61.4711   64.6704 C   0  0  0  0  0  0  0  0  0  0  0  0
  -37.4907   62.2809   63.5017 C   0  0  0  0  0  0  0  0  0  0  0  0
  -35.9593   62.4667   63.5751 C   0  0  0  0  0  0  0  0  0  0  0  0
  -35.6875   63.2185   64.8487 C   0  0  0  0  0  0  0  0  0  0  0  0
  -36.3114   62.4842   66.0218 C   0  0  0  0  0  0  0  0  0  0  0  0
  -38.7488   61.4288   62.2861 H   0  0  0  0  0  0  0  0  0  0  0  0
  -35.7710   65.0025   64.0092 H   0  0  0  0  0  0  0  0  0  0  0  0
  -36.2607   62.7819   68.3930 O   0  0  0  0  0  0  0  0  0  0  0  0
  -35.9354   63.4003   67.1843 C   0  0  0  0  0  0  0  0  0  0  0  0
  -36.0209   63.3656   69.1296 H   0  0  0  0  0  0  0  0  0  0  0  0
  -35.3633   63.2461   62.5134 O   0  0  0  0  0  0  0  0  0  0  0  0
  -33.4689   64.9302   63.0538 O   0  0  0  0  0  0  0  0  0  0  0  0
  -33.3781   63.6458   60.9968 O   0  0  0  0  0  0  0  0  0  0  0  0
  -32.8743   62.5874   63.1182 O   0  0  0  0  0  0  0  0  0  0  0  0
  -33.7371   63.5960   62.4401 S   0  0  0  0  0  0  0  0  0  0  0  0
  -34.0225   65.6009   62.6244 H   0  0  0  0  0  0  0  0  0  0  0  0
  -33.1019   62.5484   64.0603 H   0  0  0  0  0  0  0  0  0  0  0  0
  2  1  1  0  0  0
  2  4  1  0  0  0
  2  5  1  0  0  0
 41 42  1  0  0  0
 41  1  1  0  0  0
 42 46  1  0  0  0
  1 24  1  0  0  0
 23 24  1  0  0  0
 23 25  1  0  0  0
 24 26  1  0  0  0
  3  4  2  0  0  0
 26 27  2  0  0  0
 27 28  1  0  0  0
 43 47  1  0  0  0
 43 51  1  0  0  0
 28 29  1  0  0  0
 56 48  1  0  0  0
 56 60  1  0  0  0
 29 30  1  0  0  0
 57 60  1  0  0  0
 57 61  1  0  0  0
 30 31  1  0  0  0
 44 49  1  0  0  0
 44 52  1  0  0  0
 31 32  1  0  0  0
 45 46  1  0  0  0
 45 50  1  0  0  0
 32 33  1  0  0  0
 53 54  1  0  0  0
 53 55  1  0  0  0
 33 34  1  0  0  0
 34 35  1  0  0  0
 35 36  1  0  0  0
 58 60  1  0  0  0
 36 37  1  0  0  0
 59 60  1  0  0  0
 59 62  1  0  0  0
 37 38  1  0  0  0
 38 39  1  0  0  0
 39 40  1  0  0  0
  4  6  1  0  0  0
  6  7  1  0  0  0
  7  8  1  0  0  0
  8  9  1  0  0  0
  9 10  1  0  0  0
 10 11  1  0  0  0
 11 12  1  0  0  0
 12 13  1  0  0  0
 13 14  1  0  0  0
 14 15  1  0  0  0
 15 16  1  0  0  0
 16 17  1  0  0  0
 17 18  1  0  0  0
 18 19  1  0  0  0
 19 20  1  0  0  0
 20 21  1  0  0  0
 21 22  1  0  0  0
 46 47  1  0  0  0
 47 48  1  0  0  0
 48 49  1  0  0  0
 49 50  1  0  0  0
 50 54  1  0  0  0
M  CHG 1  58  -1
M  END
> <minimizedAffinity>
-9.69599

> <CNNscore>
0.2886869609

> <CNNaffinity>
7.2311630249

> <CNN_VS>
2.0875425339

> <CNNaffinity_variance>
2.1837353706

$$$$
/media/chris/experiments/cd1a-new-docking/inputs/ligands/1onq_ligand.pdb


 62 62  0  0  0  0  0  0  0  0999 V2000
  -36.1782   61.9093   63.7226 C   0  0  0  0  0  0  0  0  0  0  0  0
  -37.1356   61.0077   64.3324 N   0  0  0  0  0  0  0  0  0  0  0  0
  -37.3696   61.8960   66.4069 O   0  0  0  0  0  0  0  0  0  0  0  0
  -37.6436   61.0566   65.5714 C   0  0  0  0  0  0  0  0  0  0  0  0
  -37.4520   60.2675   63.7657 H   0  0  0  0  0  0  0  0  0  0  0  0
  -38.6278   59.9736   65.9001 C   0  0  0  0  0  0  0  0  0  0  0  0
  -39.6710   59.9822   64.7826 C   0  0  0  0  0  0  0  0  0  0  0  0
  -40.5905   58.7710   64.9181 C   0  0  0  0  0  0  0  0  0  0  0  0
  -41.8926   59.0047   65.6451 C   0  0  0  0  0  0  0  0  0  0  0  0
  -42.5934   57.6569   65.7797 C   0  0  0  0  0  0  0  0  0  0  0  0
  -44.1219   57.7734   65.7063 C   0  0  0  0  0  0  0  0  0  0  0  0
  -44.6391   58.5371   64.4735 C   0  0  0  0  0  0  0  0  0  0  0  0
  -45.7124   59.5901   64.8263 C   0  0  0  0  0  0  0  0  0  0  0  0
  -46.8643   58.9473   65.6043 C   0  0  0  0  0  0  0  0  0  0  0  0
  -47.8246   59.9298   66.2636 C   0  0  0  0  0  0  0  0  0  0  0  0
  -49.2777   59.6331   65.9234 C   0  0  0  0  0  0  0  0  0  0  0  0
  -49.5152   58.4917   64.9320 C   0  0  0  0  0  0  0  0  0  0  0  0
  -50.5163   58.9686   63.8884 C   0  0  0  0  0  0  0  0  0  0  0  0
  -50.1463   60.1558   63.0118 C   0  0  0  0  0  0  0  0  0  0  0  0
  -49.7256   59.6928   61.6080 C   0  0  0  0  0  0  0  0  0  0  0  0
  -50.2985   58.3266   61.1878 C   0  0  0  0  0  0  0  0  0  0  0  0
  -50.3146   58.1179   59.6753 C   0  0  0  0  0  0  0  0  0  0  0  0
  -34.3041   63.0866   64.4277 O   0  0  0  0  0  0  0  0  0  0  0  0
  -35.0428   61.9182   64.7318 C   0  0  0  0  0  0  0  0  0  0  0  0
  -34.8690   63.8662   64.5457 H   0  0  0  0  0  0  0  0  0  0  0  0
  -34.2064   60.6474   64.5651 C   0  0  0  0  0  0  0  0  0  0  0  0
  -33.6134   60.3081   63.4077 C   0  0  0  0  0  0  0  0  0  0  0  0
  -32.7951   59.0211   63.3214 C   0  0  0  0  0  0  0  0  0  0  0  0
  -33.5815   57.8196   62.7771 C   0  0  0  0  0  0  0  0  0  0  0  0
  -35.0198   57.6696   63.3062 C   0  0  0  0  0  0  0  0  0  0  0  0
  -36.0465   58.1359   62.2461 C   0  0  0  0  0  0  0  0  0  0  0  0
  -37.4626   57.5211   62.3811 C   0  0  0  0  0  0  0  0  0  0  0  0
  -38.5828   58.3603   61.7224 C   0  0  0  0  0  0  0  0  0  0  0  0
  -38.5999   58.2662   60.1813 C   0  0  0  0  0  0  0  0  0  0  0  0
  -40.0066   58.3264   59.5743 C   0  0  0  0  0  0  0  0  0  0  0  0
  -41.0442   59.1237   60.3619 C   0  0  0  0  0  0  0  0  0  0  0  0
  -40.8860   60.6519   60.2368 C   0  0  0  0  0  0  0  0  0  0  0  0
  -41.9602   61.4823   60.9556 C   0  0  0  0  0  0  0  0  0  0  0  0
  -42.2638   60.9069   62.3418 C   0  0  0  0  0  0  0  0  0  0  0  0
  -43.1647   61.7402   63.2363 C   0  0  0  0  0  0  0  0  0  0  0  0
  -36.7398   63.2819   63.2876 C   0  0  0  0  0  0  0  0  0  0  0  0
  -36.5175   63.6651   61.9067 O   0  0  0  0  0  0  0  0  0  0  0  0
  -36.0209   66.4699   62.1584 O   0  0  0  0  0  0  0  0  0  0  0  0
  -32.1979   65.1680   63.2016 O   0  0  0  0  0  0  0  0  0  0  0  0
  -34.1205   63.4873   61.5785 O   0  0  0  0  0  0  0  0  0  0  0  0
  -35.2783   64.3531   61.4931 C   0  0  0  0  0  0  0  0  0  0  0  0
  -34.9183   65.6246   62.2751 C   0  0  0  0  0  0  0  0  0  0  0  0
  -33.6799   66.3634   61.7219 C   0  0  0  0  0  0  0  0  0  0  0  0
  -32.5305   65.4004   61.8351 C   0  0  0  0  0  0  0  0  0  0  0  0
  -32.8794   64.0995   61.1349 C   0  0  0  0  0  0  0  0  0  0  0  0
  -36.8097   66.0218   62.5017 H   0  0  0  0  0  0  0  0  0  0  0  0
  -31.9788   66.0109   63.6288 H   0  0  0  0  0  0  0  0  0  0  0  0
  -30.5407   63.8672   60.6990 O   0  0  0  0  0  0  0  0  0  0  0  0
  -31.6129   63.2803   61.3736 C   0  0  0  0  0  0  0  0  0  0  0  0
  -29.7376   63.3452   60.8522 H   0  0  0  0  0  0  0  0  0  0  0  0
  -33.2790   67.5536   62.4379 O   0  0  0  0  0  0  0  0  0  0  0  0
  -34.8511   69.0470   61.0183 O   0  0  0  0  0  0  0  0  0  0  0  0
  -32.5055   69.6340   61.2237 O   0  0  0  0  0  0  0  0  0  0  0  0
  -34.0230   70.0101   63.0757 O   0  0  0  0  0  0  0  0  0  0  0  0
  -33.6859   69.0927   61.9504 S   0  0  0  0  0  0  0  0  0  0  0  0
  -34.6499   68.4536   60.2779 H   0  0  0  0  0  0  0  0  0  0  0  0
  -34.7921   69.6645   63.5553 H   0  0  0  0  0  0  0  0  0  0  0  0
  2  1  1  0  0  0
  2  4  1  0  0  0
  2  5  1  0  0  0
 41 42  1  0  0  0
 41  1  1  0  0  0
 42 46  1  0  0  0
  1 24  1  0  0  0
 23 24  1  0  0  0
 23 25  1  0  0  0
 24 26  1  0  0  0
  3  4  2  0  0  0
 26 27  2  0  0  0
 27 28  1  0  0  0
 43 47  1  0  0  0
 43 51  1  0  0  0
 28 29  1  0  0  0
 56 48  1  0  0  0
 56 60  1  0  0  0
 29 30  1  0  0  0
 57 60  1  0  0  0
 57 61  1  0  0  0
 30 31  1  0  0  0
 44 49  1  0  0  0
 44 52  1  0  0  0
 31 32  1  0  0  0
 45 46  1  0  0  0
 45 50  1  0  0  0
 32 33  1  0  0  0
 53 54  1  0  0  0
 53 55  1  0  0  0
 33 34  1  0  0  0
 34 35  1  0  0  0
 35 36  1  0  0  0
 58 60  1  0  0  0
 36 37  1  0  0  0
 59 60  1  0  0  0
 59 62  1  0  0  0
 37 38  1  0  0  0
 38 39  1  0  0  0
 39 40  1  0  0  0
  4  6  1  0  0  0
  6  7  1  0  0  0
  7  8  1  0  0  0
  8  9  1  0  0  0
  9 10  1  0  0  0
 10 11  1  0  0  0
 11 12  1  0  0  0
 12 13  1  0  0  0
 13 14  1  0  0  0
 14 15  1  0  0  0
 15 16  1  0  0  0
 16 17  1  0  0  0
 17 18  1  0  0  0
 18 19  1  0  0  0
 19 20  1  0  0  0
 20 21  1  0  0  0
 21 22  1  0  0  0
 46 47  1  0  0  0
 47 48  1  0  0  0
 48 49  1  0  0  0
 49 50  1  0  0  0
 50 54  1  0  0  0
M  CHG 1  58  -1
M  END
> <minimizedAffinity>
-8.58531

> <CNNscore>
0.2842518091

> <CNNaffinity>
6.8648962975

> <CNN_VS>
1.9513591528

> <CNNaffinity_variance>
1.2402051687

$$$$
/media/chris/experiments/cd1a-new-docking/inputs/ligands/1onq_ligand.pdb


 62 62  0  0  0  0  0  0  0  0999 V2000
  -36.0087   61.8449   63.9368 C   0  0  0  0  0  0  0  0  0  0  0  0
  -36.9708   60.8118   64.2660 N   0  0  0  0  0  0  0  0  0  0  0  0
  -38.1717   61.7919   65.9227 O   0  0  0  0  0  0  0  0  0  0  0  0
  -37.9404   60.8498   65.1901 C   0  0  0  0  0  0  0  0  0  0  0  0
  -36.9034   59.9787   63.7459 H   0  0  0  0  0  0  0  0  0  0  0  0
  -38.7825   59.6120   65.2820 C   0  0  0  0  0  0  0  0  0  0  0  0
  -40.1836   60.0053   64.8135 C   0  0  0  0  0  0  0  0  0  0  0  0
  -41.0690   58.7651   64.7186 C   0  0  0  0  0  0  0  0  0  0  0  0
  -42.0444   58.5581   65.8519 C   0  0  0  0  0  0  0  0  0  0  0  0
  -43.0884   57.5502   65.3828 C   0  0  0  0  0  0  0  0  0  0  0  0
  -44.5086   57.9125   65.8376 C   0  0  0  0  0  0  0  0  0  0  0  0
  -45.2961   58.7689   64.8291 C   0  0  0  0  0  0  0  0  0  0  0  0
  -46.3728   59.6492   65.5007 C   0  0  0  0  0  0  0  0  0  0  0  0
  -47.7183   58.9190   65.5423 C   0  0  0  0  0  0  0  0  0  0  0  0
  -48.9018   59.7724   65.9820 C   0  0  0  0  0  0  0  0  0  0  0  0
  -50.2228   59.2539   65.4331 C   0  0  0  0  0  0  0  0  0  0  0  0
  -51.0932   60.2776   64.7005 C   0  0  0  0  0  0  0  0  0  0  0  0
  -51.2276   59.8360   63.2494 C   0  0  0  0  0  0  0  0  0  0  0  0
  -50.6179   58.5059   62.8323 C   0  0  0  0  0  0  0  0  0  0  0  0
  -49.3232   58.7213   62.0326 C   0  0  0  0  0  0  0  0  0  0  0  0
  -49.5060   59.5071   60.7210 C   0  0  0  0  0  0  0  0  0  0  0  0
  -49.2132   58.6766   59.4735 C   0  0  0  0  0  0  0  0  0  0  0  0
  -34.2047   62.8988   64.9521 O   0  0  0  0  0  0  0  0  0  0  0  0
  -35.0078   61.7396   65.0747 C   0  0  0  0  0  0  0  0  0  0  0  0
  -34.7581   63.6882   65.0589 H   0  0  0  0  0  0  0  0  0  0  0  0
  -34.1928   60.4540   64.9156 C   0  0  0  0  0  0  0  0  0  0  0  0
  -33.3559   60.2407   63.8859 C   0  0  0  0  0  0  0  0  0  0  0  0
  -32.5777   58.9291   63.7976 C   0  0  0  0  0  0  0  0  0  0  0  0
  -33.2233   57.8840   62.8762 C   0  0  0  0  0  0  0  0  0  0  0  0
  -34.6291   57.4095   63.2885 C   0  0  0  0  0  0  0  0  0  0  0  0
  -35.7123   58.0587   62.3938 C   0  0  0  0  0  0  0  0  0  0  0  0
  -37.1621   57.5780   62.6556 C   0  0  0  0  0  0  0  0  0  0  0  0
  -38.2310   58.2910   61.7943 C   0  0  0  0  0  0  0  0  0  0  0  0
  -37.7496   58.6274   60.3663 C   0  0  0  0  0  0  0  0  0  0  0  0
  -38.8183   59.3001   59.4966 C   0  0  0  0  0  0  0  0  0  0  0  0
  -39.8139   58.3651   58.8130 C   0  0  0  0  0  0  0  0  0  0  0  0
  -41.1256   58.1658   59.5978 C   0  0  0  0  0  0  0  0  0  0  0  0
  -41.3011   56.7806   60.2386 C   0  0  0  0  0  0  0  0  0  0  0  0
  -41.5690   56.8999   61.7415 C   0  0  0  0  0  0  0  0  0  0  0  0
  -41.2772   55.6675   62.5793 C   0  0  0  0  0  0  0  0  0  0  0  0
  -36.6037   63.2430   63.6541 C   0  0  0  0  0  0  0  0  0  0  0  0
  -35.9852   64.0072   62.5879 O   0  0  0  0  0  0  0  0  0  0  0  0
  -33.4431   62.9612   61.8001 O   0  0  0  0  0  0  0  0  0  0  0  0
  -32.7215   66.9323   60.7474 O   0  0  0  0  0  0  0  0  0  0  0  0
  -34.8159   66.1245   62.7763 O   0  0  0  0  0  0  0  0  0  0  0  0
  -34.6866   64.6820   62.7837 C   0  0  0  0  0  0  0  0  0  0  0  0
  -33.5903   64.3471   61.7621 C   0  0  0  0  0  0  0  0  0  0  0  0
  -32.2235   64.9892   62.0858 C   0  0  0  0  0  0  0  0  0  0  0  0
  -32.4433   66.4767   62.0691 C   0  0  0  0  0  0  0  0  0  0  0  0
  -33.5737   66.8396   63.0151 C   0  0  0  0  0  0  0  0  0  0  0  0
  -34.2934   62.5400   61.5988 H   0  0  0  0  0  0  0  0  0  0  0  0
  -31.9878   66.6903   60.1609 H   0  0  0  0  0  0  0  0  0  0  0  0
  -34.7989   68.7006   62.1495 O   0  0  0  0  0  0  0  0  0  0  0  0
  -33.6364   68.3555   62.8413 C   0  0  0  0  0  0  0  0  0  0  0  0
  -34.8364   69.6637   62.0404 H   0  0  0  0  0  0  0  0  0  0  0  0
  -31.1608   64.7294   61.1407 O   0  0  0  0  0  0  0  0  0  0  0  0
  -29.3450   64.5248   62.9786 O   0  0  0  0  0  0  0  0  0  0  0  0
  -28.6784   64.7129   60.6528 O   0  0  0  0  0  0  0  0  0  0  0  0
  -29.5902   62.6312   61.4952 O   0  0  0  0  0  0  0  0  0  0  0  0
  -29.6767   64.1167   61.5814 S   0  0  0  0  0  0  0  0  0  0  0  0
  -29.3961   65.4904   63.0542 H   0  0  0  0  0  0  0  0  0  0  0  0
  -30.2382   62.2341   62.0979 H   0  0  0  0  0  0  0  0  0  0  0  0
  2  1  1  0  0  0
  2  4  1  0  0  0
  2  5  1  0  0  0
 41 42  1  0  0  0
 41  1  1  0  0  0
 42 46  1  0  0  0
  1 24  1  0  0  0
 23 24  1  0  0  0
 23 25  1  0  0  0
 24 26  1  0  0  0
  3  4  2  0  0  0
 26 27  2  0  0  0
 27 28  1  0  0  0
 43 47  1  0  0  0
 43 51  1  0  0  0
 28 29  1  0  0  0
 56 48  1  0  0  0
 56 60  1  0  0  0
 29 30  1  0  0  0
 57 60  1  0  0  0
 57 61  1  0  0  0
 30 31  1  0  0  0
 44 49  1  0  0  0
 44 52  1  0  0  0
 31 32  1  0  0  0
 45 46  1  0  0  0
 45 50  1  0  0  0
 32 33  1  0  0  0
 53 54  1  0  0  0
 53 55  1  0  0  0
 33 34  1  0  0  0
 34 35  1  0  0  0
 35 36  1  0  0  0
 58 60  1  0  0  0
 36 37  1  0  0  0
 59 60  1  0  0  0
 59 62  1  0  0  0
 37 38  1  0  0  0
 38 39  1  0  0  0
 39 40  1  0  0  0
  4  6  1  0  0  0
  6  7  1  0  0  0
  7  8  1  0  0  0
  8  9  1  0  0  0
  9 10  1  0  0  0
 10 11  1  0  0  0
 11 12  1  0  0  0
 12 13  1  0  0  0
 13 14  1  0  0  0
 14 15  1  0  0  0
 15 16  1  0  0  0
 16 17  1  0  0  0
 17 18  1  0  0  0
 18 19  1  0  0  0
 19 20  1  0  0  0
 20 21  1  0  0  0
 21 22  1  0  0  0
 46 47  1  0  0  0
 47 48  1  0  0  0
 48 49  1  0  0  0
 49 50  1  0  0  0
 50 54  1  0  0  0
M  CHG 1  58  -1
M  END
> <minimizedAffinity>
-8.66565

> <CNNscore>
0.2397007644

> <CNNaffinity>
6.6822690964

> <CNN_VS>
1.6017450094

> <CNNaffinity_variance>
1.0053097010

$$$$
/media/chris/experiments/cd1a-new-docking/inputs/ligands/1onq_ligand.pdb


 62 62  0  0  0  0  0  0  0  0999 V2000
  -41.4990   60.1710   65.3563 C   0  0  0  0  0  0  0  0  0  0  0  0
  -41.6452   60.3631   63.9270 N   0  0  0  0  0  0  0  0  0  0  0  0
  -42.4568   62.4787   63.8128 O   0  0  0  0  0  0  0  0  0  0  0  0
  -42.0917   61.4485   63.2805 C   0  0  0  0  0  0  0  0  0  0  0  0
  -41.3840   59.6012   63.3608 H   0  0  0  0  0  0  0  0  0  0  0  0
  -42.1155   61.3352   61.7851 C   0  0  0  0  0  0  0  0  0  0  0  0
  -41.6951   59.9036   61.4522 C   0  0  0  0  0  0  0  0  0  0  0  0
  -40.8895   59.8848   60.1555 C   0  0  0  0  0  0  0  0  0  0  0  0
  -41.1197   58.7002   59.2485 C   0  0  0  0  0  0  0  0  0  0  0  0
  -40.5029   57.4783   59.9210 C   0  0  0  0  0  0  0  0  0  0  0  0
  -41.5576   56.4958   60.4478 C   0  0  0  0  0  0  0  0  0  0  0  0
  -41.1748   55.8064   61.7702 C   0  0  0  0  0  0  0  0  0  0  0  0
  -41.4593   56.6839   63.0090 C   0  0  0  0  0  0  0  0  0  0  0  0
  -40.1555   57.0423   63.7278 C   0  0  0  0  0  0  0  0  0  0  0  0
  -39.2466   58.0049   62.9731 C   0  0  0  0  0  0  0  0  0  0  0  0
  -37.9242   57.3626   62.5808 C   0  0  0  0  0  0  0  0  0  0  0  0
  -36.7149   57.7377   63.4404 C   0  0  0  0  0  0  0  0  0  0  0  0
  -35.8730   58.7419   62.6647 C   0  0  0  0  0  0  0  0  0  0  0  0
  -34.5844   59.2525   63.2923 C   0  0  0  0  0  0  0  0  0  0  0  0
  -33.3572   58.6017   62.6349 C   0  0  0  0  0  0  0  0  0  0  0  0
  -32.0048   59.0690   63.2039 C   0  0  0  0  0  0  0  0  0  0  0  0
  -31.3697   60.2008   62.3993 C   0  0  0  0  0  0  0  0  0  0  0  0
  -42.4500   61.3614   67.1096 O   0  0  0  0  0  0  0  0  0  0  0  0
  -42.8071   60.7198   65.8995 C   0  0  0  0  0  0  0  0  0  0  0  0
  -41.8307   62.0840   66.9220 H   0  0  0  0  0  0  0  0  0  0  0  0
  -43.7860   59.5654   66.1259 C   0  0  0  0  0  0  0  0  0  0  0  0
  -44.7954   59.2859   65.2836 C   0  0  0  0  0  0  0  0  0  0  0  0
  -45.7314   58.1158   65.5804 C   0  0  0  0  0  0  0  0  0  0  0  0
  -47.2221   58.4732   65.4883 C   0  0  0  0  0  0  0  0  0  0  0  0
  -47.6754   59.6678   66.3478 C   0  0  0  0  0  0  0  0  0  0  0  0
  -49.1973   59.9060   66.1981 C   0  0  0  0  0  0  0  0  0  0  0  0
  -49.6587   60.3758   64.7953 C   0  0  0  0  0  0  0  0  0  0  0  0
  -51.1777   60.2253   64.5448 C   0  0  0  0  0  0  0  0  0  0  0  0
  -51.5298   59.8589   63.0868 C   0  0  0  0  0  0  0  0  0  0  0  0
  -50.4365   59.0580   62.3698 C   0  0  0  0  0  0  0  0  0  0  0  0
  -50.9164   57.9080   61.4867 C   0  0  0  0  0  0  0  0  0  0  0  0
  -50.3733   57.9575   60.0449 C   0  0  0  0  0  0  0  0  0  0  0  0
  -48.8704   57.6734   59.9013 C   0  0  0  0  0  0  0  0  0  0  0  0
  -48.2547   58.5213   58.7847 C   0  0  0  0  0  0  0  0  0  0  0  0
  -47.4809   57.7705   57.7153 C   0  0  0  0  0  0  0  0  0  0  0  0
  -40.1956   60.7278   65.9729 C   0  0  0  0  0  0  0  0  0  0  0  0
  -38.9703   60.0266   65.6408 O   0  0  0  0  0  0  0  0  0  0  0  0
  -38.4868   61.1786   63.0686 O   0  0  0  0  0  0  0  0  0  0  0  0
  -36.8121   64.2512   65.3389 O   0  0  0  0  0  0  0  0  0  0  0  0
  -37.1310   61.4268   66.3769 O   0  0  0  0  0  0  0  0  0  0  0  0
  -37.7503   60.7606   65.2499 C   0  0  0  0  0  0  0  0  0  0  0  0
  -37.9252   61.8326   64.1645 C   0  0  0  0  0  0  0  0  0  0  0  0
  -36.5982   62.4820   63.7143 C   0  0  0  0  0  0  0  0  0  0  0  0
  -36.0164   63.1394   64.9352 C   0  0  0  0  0  0  0  0  0  0  0  0
  -35.8969   62.1243   66.0576 C   0  0  0  0  0  0  0  0  0  0  0  0
  -39.3227   60.7638   63.3331 H   0  0  0  0  0  0  0  0  0  0  0  0
  -36.8751   64.8859   64.6082 H   0  0  0  0  0  0  0  0  0  0  0  0
  -36.2225   63.0663   68.2302 O   0  0  0  0  0  0  0  0  0  0  0  0
  -35.3101   62.9815   67.1770 C   0  0  0  0  0  0  0  0  0  0  0  0
  -35.8475   63.6110   68.9398 H   0  0  0  0  0  0  0  0  0  0  0  0
  -36.7072   63.5189   62.7129 O   0  0  0  0  0  0  0  0  0  0  0  0
  -34.1770   63.3155   62.1901 O   0  0  0  0  0  0  0  0  0  0  0  0
  -35.2189   65.5068   62.2292 O   0  0  0  0  0  0  0  0  0  0  0  0
  -35.5993   64.0092   60.3620 O   0  0  0  0  0  0  0  0  0  0  0  0
  -35.4078   64.0835   61.8382 S   0  0  0  0  0  0  0  0  0  0  0  0
  -34.0357   63.3526   63.1489 H   0  0  0  0  0  0  0  0  0  0  0  0
  -35.7233   63.0840   60.0982 H   0  0  0  0  0  0  0  0  0  0  0  0
  2  1  1  0  0  0
  2  4  1  0  0  0
  2  5  1  0  0  0
 41 42  1  0  0  0
 41  1  1  0  0  0
 42 46  1  0  0  0
  1 24  1  0  0  0
 23 24  1  0  0  0
 23 25  1  0  0  0
 24 26  1  0  0  0
  3  4  2  0  0  0
 26 27  2  0  0  0
 27 28  1  0  0  0
 43 47  1  0  0  0
 43 51  1  0  0  0
 28 29  1  0  0  0
 56 48  1  0  0  0
 56 60  1  0  0  0
 29 30  1  0  0  0
 57 60  1  0  0  0
 57 61  1  0  0  0
 30 31  1  0  0  0
 44 49  1  0  0  0
 44 52  1  0  0  0
 31 32  1  0  0  0
 45 46  1  0  0  0
 45 50  1  0  0  0
 32 33  1  0  0  0
 53 54  1  0  0  0
 53 55  1  0  0  0
 33 34  1  0  0  0
 34 35  1  0  0  0
 35 36  1  0  0  0
 58 60  1  0  0  0
 36 37  1  0  0  0
 59 60  1  0  0  0
 59 62  1  0  0  0
 37 38  1  0  0  0
 38 39  1  0  0  0
 39 40  1  0  0  0
  4  6  1  0  0  0
  6  7  1  0  0  0
  7  8  1  0  0  0
  8  9  1  0  0  0
  9 10  1  0  0  0
 10 11  1  0  0  0
 11 12  1  0  0  0
 12 13  1  0  0  0
 13 14  1  0  0  0
 14 15  1  0  0  0
 15 16  1  0  0  0
 16 17  1  0  0  0
 17 18  1  0  0  0
 18 19  1  0  0  0
 19 20  1  0  0  0
 20 21  1  0  0  0
 21 22  1  0  0  0
 46 47  1  0  0  0
 47 48  1  0  0  0
 48 49  1  0  0  0
 49 50  1  0  0  0
 50 54  1  0  0  0
M  CHG 1  58  -1
M  END
> <minimizedAffinity>
-9.25757

> <CNNscore>
0.2340923846

> <CNNaffinity>
7.2426490784

> <CNN_VS>
1.6954489946

> <CNNaffinity_variance>
1.3925613165

$$$$
/media/chris/experiments/cd1a-new-docking/inputs/ligands/1onq_ligand.pdb


 62 62  0  0  0  0  0  0  0  0999 V2000
  -35.5664   61.6330   64.1186 C   0  0  0  0  0  0  0  0  0  0  0  0
  -35.7679   60.4006   63.3826 N   0  0  0  0  0  0  0  0  0  0  0  0
  -34.5640   58.9156   64.6044 O   0  0  0  0  0  0  0  0  0  0  0  0
  -35.2790   59.1839   63.6585 C   0  0  0  0  0  0  0  0  0  0  0  0
  -36.3345   60.4657   62.5801 H   0  0  0  0  0  0  0  0  0  0  0  0
  -35.6813   58.1026   62.7000 C   0  0  0  0  0  0  0  0  0  0  0  0
  -37.1452   57.7801   63.0001 C   0  0  0  0  0  0  0  0  0  0  0  0
  -37.9295   57.6551   61.6963 C   0  0  0  0  0  0  0  0  0  0  0  0
  -37.5682   58.6368   60.6080 C   0  0  0  0  0  0  0  0  0  0  0  0
  -38.5313   58.4127   59.4469 C   0  0  0  0  0  0  0  0  0  0  0  0
  -39.6604   59.4511   59.4043 C   0  0  0  0  0  0  0  0  0  0  0  0
  -41.0758   58.8492   59.4755 C   0  0  0  0  0  0  0  0  0  0  0  0
  -41.0732   57.3527   59.8575 C   0  0  0  0  0  0  0  0  0  0  0  0
  -41.5860   57.1596   61.2875 C   0  0  0  0  0  0  0  0  0  0  0  0
  -41.2287   55.8227   61.9257 C   0  0  0  0  0  0  0  0  0  0  0  0
  -41.4262   55.8322   63.4344 C   0  0  0  0  0  0  0  0  0  0  0  0
  -41.3655   57.2038   64.1105 C   0  0  0  0  0  0  0  0  0  0  0  0
  -42.4133   57.2364   65.2151 C   0  0  0  0  0  0  0  0  0  0  0  0
  -42.4790   58.4561   66.1222 C   0  0  0  0  0  0  0  0  0  0  0  0
  -41.1188   59.1688   66.1846 C   0  0  0  0  0  0  0  0  0  0  0  0
  -41.2057   60.6973   66.3504 C   0  0  0  0  0  0  0  0  0  0  0  0
  -42.5374   61.1671   66.9313 C   0  0  0  0  0  0  0  0  0  0  0  0
  -37.3245   62.7345   65.1634 O   0  0  0  0  0  0  0  0  0  0  0  0
  -36.8648   62.3820   63.8719 C   0  0  0  0  0  0  0  0  0  0  0  0
  -36.6746   63.3138   65.5910 H   0  0  0  0  0  0  0  0  0  0  0  0
  -37.8477   61.4650   63.1403 C   0  0  0  0  0  0  0  0  0  0  0  0
  -39.0908   61.2188   63.5880 C   0  0  0  0  0  0  0  0  0  0  0  0
  -40.0126   60.2898   62.8001 C   0  0  0  0  0  0  0  0  0  0  0  0
  -41.2883   60.9713   62.2838 C   0  0  0  0  0  0  0  0  0  0  0  0
  -42.5962   60.5527   62.9806 C   0  0  0  0  0  0  0  0  0  0  0  0
  -43.4513   61.7932   63.3346 C   0  0  0  0  0  0  0  0  0  0  0  0
  -44.7846   61.4914   64.0646 C   0  0  0  0  0  0  0  0  0  0  0  0
  -45.0185   59.9915   64.3617 C   0  0  0  0  0  0  0  0  0  0  0  0
  -46.2312   59.7257   65.2799 C   0  0  0  0  0  0  0  0  0  0  0  0
  -47.4871   59.2694   64.5278 C   0  0  0  0  0  0  0  0  0  0  0  0
  -48.3420   58.2144   65.2267 C   0  0  0  0  0  0  0  0  0  0  0  0
  -49.8556   58.3731   64.9823 C   0  0  0  0  0  0  0  0  0  0  0  0
  -50.4543   59.7144   65.4323 C   0  0  0  0  0  0  0  0  0  0  0  0
  -51.3052   60.3370   64.3217 C   0  0  0  0  0  0  0  0  0  0  0  0
  -50.8637   60.0580   62.8959 C   0  0  0  0  0  0  0  0  0  0  0  0
  -34.2530   62.3865   63.8085 C   0  0  0  0  0  0  0  0  0  0  0  0
  -34.0663   62.8271   62.4395 O   0  0  0  0  0  0  0  0  0  0  0  0
  -32.5438   65.2174   62.0573 O   0  0  0  0  0  0  0  0  0  0  0  0
  -29.3732   62.7556   63.1912 O   0  0  0  0  0  0  0  0  0  0  0  0
  -31.9632   61.6808   62.0543 O   0  0  0  0  0  0  0  0  0  0  0  0
  -32.7214   62.8950   61.8339 C   0  0  0  0  0  0  0  0  0  0  0  0
  -31.8251   64.0488   62.3062 C   0  0  0  0  0  0  0  0  0  0  0  0
  -30.4795   64.1373   61.5534 C   0  0  0  0  0  0  0  0  0  0  0  0
  -29.7614   62.8437   61.8224 C   0  0  0  0  0  0  0  0  0  0  0  0
  -30.6483   61.6739   61.4357 C   0  0  0  0  0  0  0  0  0  0  0  0
  -33.3938   65.1796   62.5231 H   0  0  0  0  0  0  0  0  0  0  0  0
  -28.8083   63.5114   63.4162 H   0  0  0  0  0  0  0  0  0  0  0  0
  -28.4500   60.7383   61.3593 O   0  0  0  0  0  0  0  0  0  0  0  0
  -29.7539   60.4881   61.7909 C   0  0  0  0  0  0  0  0  0  0  0  0
  -27.8840   59.9839   61.5860 H   0  0  0  0  0  0  0  0  0  0  0  0
  -29.5836   65.1898   61.9772 O   0  0  0  0  0  0  0  0  0  0  0  0
  -28.4885   67.5367   61.8775 O   0  0  0  0  0  0  0  0  0  0  0  0
  -30.6629   67.1859   60.8585 O   0  0  0  0  0  0  0  0  0  0  0  0
  -28.6618   66.3421   59.7824 O   0  0  0  0  0  0  0  0  0  0  0  0
  -29.3252   66.5786   61.0960 S   0  0  0  0  0  0  0  0  0  0  0  0
  -28.9053   67.7032   62.7374 H   0  0  0  0  0  0  0  0  0  0  0  0
  -27.7884   65.9460   59.9280 H   0  0  0  0  0  0  0  0  0  0  0  0
  2  1  1  0  0  0
  2  4  1  0  0  0
  2  5  1  0  0  0
 41 42  1  0  0  0
 41  1  1  0  0  0
 42 46  1  0  0  0
  1 24  1  0  0  0
 23 24  1  0  0  0
 23 25  1  0  0  0
 24 26  1  0  0  0
  3  4  2  0  0  0
 26 27  2  0  0  0
 27 28  1  0  0  0
 43 47  1  0  0  0
 43 51  1  0  0  0
 28 29  1  0  0  0
 56 48  1  0  0  0
 56 60  1  0  0  0
 29 30  1  0  0  0
 57 60  1  0  0  0
 57 61  1  0  0  0
 30 31  1  0  0  0
 44 49  1  0  0  0
 44 52  1  0  0  0
 31 32  1  0  0  0
 45 46  1  0  0  0
 45 50  1  0  0  0
 32 33  1  0  0  0
 53 54  1  0  0  0
 53 55  1  0  0  0
 33 34  1  0  0  0
 34 35  1  0  0  0
 35 36  1  0  0  0
 58 60  1  0  0  0
 36 37  1  0  0  0
 59 60  1  0  0  0
 59 62  1  0  0  0
 37 38  1  0  0  0
 38 39  1  0  0  0
 39 40  1  0  0  0
  4  6  1  0  0  0
  6  7  1  0  0  0
  7  8  1  0  0  0
  8  9  1  0  0  0
  9 10  1  0  0  0
 10 11  1  0  0  0
 11 12  1  0  0  0
 12 13  1  0  0  0
 13 14  1  0  0  0
 14 15  1  0  0  0
 15 16  1  0  0  0
 16 17  1  0  0  0
 17 18  1  0  0  0
 18 19  1  0  0  0
 19 20  1  0  0  0
 20 21  1  0  0  0
 21 22  1  0  0  0
 46 47  1  0  0  0
 47 48  1  0  0  0
 48 49  1  0  0  0
 49 50  1  0  0  0
 50 54  1  0  0  0
M  CHG 1  58  -1
M  END
> <minimizedAffinity>
-8.63595

> <CNNscore>
0.2190733552

> <CNNaffinity>
6.7157468796

> <CNN_VS>
1.4712412357

> <CNNaffinity_variance>
1.3161805868

$$$$
/media/chris/experiments/cd1a-new-docking/inputs/ligands/1onq_ligand.pdb


 62 62  0  0  0  0  0  0  0  0999 V2000
  -42.8616   58.1302   63.4521 C   0  0  0  0  0  0  0  0  0  0  0  0
  -43.8790   57.7183   64.3989 N   0  0  0  0  0  0  0  0  0  0  0  0
  -43.3156   58.9062   66.2479 O   0  0  0  0  0  0  0  0  0  0  0  0
  -44.0326   58.1125   65.6703 C   0  0  0  0  0  0  0  0  0  0  0  0
  -44.5392   57.0682   64.0664 H   0  0  0  0  0  0  0  0  0  0  0  0
  -45.1994   57.5039   66.3901 C   0  0  0  0  0  0  0  0  0  0  0  0
  -45.8527   58.6322   67.1883 C   0  0  0  0  0  0  0  0  0  0  0  0
  -47.0002   59.2415   66.3865 C   0  0  0  0  0  0  0  0  0  0  0  0
  -47.7914   58.2843   65.5282 C   0  0  0  0  0  0  0  0  0  0  0  0
  -47.9266   58.9106   64.1442 C   0  0  0  0  0  0  0  0  0  0  0  0
  -47.8428   60.4426   64.1759 C   0  0  0  0  0  0  0  0  0  0  0  0
  -49.2087   61.1490   64.2525 C   0  0  0  0  0  0  0  0  0  0  0  0
  -50.3540   60.1983   64.6646 C   0  0  0  0  0  0  0  0  0  0  0  0
  -51.3945   60.0897   63.5463 C   0  0  0  0  0  0  0  0  0  0  0  0
  -50.8397   59.6830   62.1865 C   0  0  0  0  0  0  0  0  0  0  0  0
  -50.9381   58.1835   61.9480 C   0  0  0  0  0  0  0  0  0  0  0  0
  -50.5683   57.7017   60.5432 C   0  0  0  0  0  0  0  0  0  0  0  0
  -49.4467   56.6797   60.6707 C   0  0  0  0  0  0  0  0  0  0  0  0
  -48.4098   56.5925   59.5607 C   0  0  0  0  0  0  0  0  0  0  0  0
  -48.0882   57.9860   58.9981 C   0  0  0  0  0  0  0  0  0  0  0  0
  -47.4986   57.9799   57.5756 C   0  0  0  0  0  0  0  0  0  0  0  0
  -47.0291   56.5994   57.1222 C   0  0  0  0  0  0  0  0  0  0  0  0
  -42.4195   56.0260   64.3310 O   0  0  0  0  0  0  0  0  0  0  0  0
  -41.7713   57.0946   63.6665 C   0  0  0  0  0  0  0  0  0  0  0  0
  -43.1196   55.6689   63.7625 H   0  0  0  0  0  0  0  0  0  0  0  0
  -40.6514   57.7052   64.5123 C   0  0  0  0  0  0  0  0  0  0  0  0
  -39.3590   57.6786   64.1446 C   0  0  0  0  0  0  0  0  0  0  0  0
  -38.2991   58.3099   65.0454 C   0  0  0  0  0  0  0  0  0  0  0  0
  -36.9361   57.6046   64.9903 C   0  0  0  0  0  0  0  0  0  0  0  0
  -35.7763   58.4397   64.4169 C   0  0  0  0  0  0  0  0  0  0  0  0
  -35.1045   57.7056   63.2315 C   0  0  0  0  0  0  0  0  0  0  0  0
  -33.9698   58.4897   62.5250 C   0  0  0  0  0  0  0  0  0  0  0  0
  -32.5958   58.3866   63.2281 C   0  0  0  0  0  0  0  0  0  0  0  0
  -31.6804   59.6043   62.9764 C   0  0  0  0  0  0  0  0  0  0  0  0
  -31.8568   60.2335   61.5893 C   0  0  0  0  0  0  0  0  0  0  0  0
  -31.1526   61.5698   61.3637 C   0  0  0  0  0  0  0  0  0  0  0  0
  -30.3313   62.0566   62.5739 C   0  0  0  0  0  0  0  0  0  0  0  0
  -28.8790   62.4499   62.2640 C   0  0  0  0  0  0  0  0  0  0  0  0
  -27.9023   61.3761   62.7519 C   0  0  0  0  0  0  0  0  0  0  0  0
  -27.8426   60.0968   61.9361 C   0  0  0  0  0  0  0  0  0  0  0  0
  -42.4421   59.6158   63.5299 C   0  0  0  0  0  0  0  0  0  0  0  0
  -42.3689   60.3354   62.2729 O   0  0  0  0  0  0  0  0  0  0  0  0
  -40.0347   61.5035   63.4409 O   0  0  0  0  0  0  0  0  0  0  0  0
  -38.0906   58.5344   61.2493 O   0  0  0  0  0  0  0  0  0  0  0  0
  -40.8529   59.5516   60.5488 O   0  0  0  0  0  0  0  0  0  0  0  0
  -41.0801   60.5404   61.5823 C   0  0  0  0  0  0  0  0  0  0  0  0
  -39.8275   60.5243   62.4703 C   0  0  0  0  0  0  0  0  0  0  0  0
  -38.5249   60.8608   61.7119 C   0  0  0  0  0  0  0  0  0  0  0  0
  -38.3670   59.8010   60.6567 C   0  0  0  0  0  0  0  0  0  0  0  0
  -39.6200   59.7362   59.8022 C   0  0  0  0  0  0  0  0  0  0  0  0
  -40.8502   61.3083   63.9284 H   0  0  0  0  0  0  0  0  0  0  0  0
  -37.2877   58.5986   61.7897 H   0  0  0  0  0  0  0  0  0  0  0  0
  -37.9348   58.7622   58.4146 O   0  0  0  0  0  0  0  0  0  0  0  0
  -39.2610   58.6177   58.8264 C   0  0  0  0  0  0  0  0  0  0  0  0
  -37.7093   58.0507   57.7951 H   0  0  0  0  0  0  0  0  0  0  0  0
  -37.3098   60.8327   62.4946 O   0  0  0  0  0  0  0  0  0  0  0  0
  -37.5520   62.5751   64.3978 O   0  0  0  0  0  0  0  0  0  0  0  0
  -36.6748   63.2689   62.2442 O   0  0  0  0  0  0  0  0  0  0  0  0
  -35.2950   61.9819   63.7653 O   0  0  0  0  0  0  0  0  0  0  0  0
  -36.6813   62.1751   63.2531 S   0  0  0  0  0  0  0  0  0  0  0  0
  -38.4601   62.7057   64.0832 H   0  0  0  0  0  0  0  0  0  0  0  0
  -35.2900   61.2699   64.4241 H   0  0  0  0  0  0  0  0  0  0  0  0
  2  1  1  0  0  0
  2  4  1  0  0  0
  2  5  1  0  0  0
 41 42  1  0  0  0
 41  1  1  0  0  0
 42 46  1  0  0  0
  1 24  1  0  0  0
 23 24  1  0  0  0
 23 25  1  0  0  0
 24 26  1  0  0  0
  3  4  2  0  0  0
 26 27  2  0  0  0
 27 28  1  0  0  0
 43 47  1  0  0  0
 43 51  1  0  0  0
 28 29  1  0  0  0
 56 48  1  0  0  0
 56 60  1  0  0  0
 29 30  1  0  0  0
 57 60  1  0  0  0
 57 61  1  0  0  0
 30 31  1  0  0  0
 44 49  1  0  0  0
 44 52  1  0  0  0
 31 32  1  0  0  0
 45 46  1  0  0  0
 45 50  1  0  0  0
 32 33  1  0  0  0
 53 54  1  0  0  0
 53 55  1  0  0  0
 33 34  1  0  0  0
 34 35  1  0  0  0
 35 36  1  0  0  0
 58 60  1  0  0  0
 36 37  1  0  0  0
 59 60  1  0  0  0
 59 62  1  0  0  0
 37 38  1  0  0  0
 38 39  1  0  0  0
 39 40  1  0  0  0
  4  6  1  0  0  0
  6  7  1  0  0  0
  7  8  1  0  0  0
  8  9  1  0  0  0
  9 10  1  0  0  0
 10 11  1  0  0  0
 11 12  1  0  0  0
 12 13  1  0  0  0
 13 14  1  0  0  0
 14 15  1  0  0  0
 15 16  1  0  0  0
 16 17  1  0  0  0
 17 18  1  0  0  0
 18 19  1  0  0  0
 19 20  1  0  0  0
 20 21  1  0  0  0
 21 22  1  0  0  0
 46 47  1  0  0  0
 47 48  1  0  0  0
 48 49  1  0  0  0
 49 50  1  0  0  0
 50 54  1  0  0  0
M  CHG 1  58  -1
M  END
> <minimizedAffinity>
-9.51661

> <CNNscore>
0.1952649206

> <CNNaffinity>
6.6499571800

> <CNN_VS>
1.2985033989

> <CNNaffinity_variance>
1.2119637728

$$$$
/media/chris/experiments/cd1a-new-docking/inputs/ligands/1onq_ligand.pdb


 62 62  0  0  0  0  0  0  0  0999 V2000
  -42.3867   58.8113   64.8272 C   0  0  0  0  0  0  0  0  0  0  0  0
  -40.9845   58.8188   65.1947 N   0  0  0  0  0  0  0  0  0  0  0  0
  -40.0820   57.4208   63.6524 O   0  0  0  0  0  0  0  0  0  0  0  0
  -39.9744   58.1573   64.6136 C   0  0  0  0  0  0  0  0  0  0  0  0
  -40.7444   59.3798   65.9672 H   0  0  0  0  0  0  0  0  0  0  0  0
  -38.6259   58.3833   65.2299 C   0  0  0  0  0  0  0  0  0  0  0  0
  -37.5973   57.8687   64.2227 C   0  0  0  0  0  0  0  0  0  0  0  0
  -36.2977   57.5124   64.9403 C   0  0  0  0  0  0  0  0  0  0  0  0
  -35.0555   58.2179   64.4524 C   0  0  0  0  0  0  0  0  0  0  0  0
  -35.0705   58.1757   62.9280 C   0  0  0  0  0  0  0  0  0  0  0  0
  -33.7043   58.5066   62.3122 C   0  0  0  0  0  0  0  0  0  0  0  0
  -32.5368   58.4851   63.3157 C   0  0  0  0  0  0  0  0  0  0  0  0
  -31.5852   59.6910   63.1556 C   0  0  0  0  0  0  0  0  0  0  0  0
  -31.8303   60.3985   61.8197 C   0  0  0  0  0  0  0  0  0  0  0  0
  -30.5818   60.9558   61.1466 C   0  0  0  0  0  0  0  0  0  0  0  0
  -29.3024   60.4789   61.8179 C   0  0  0  0  0  0  0  0  0  0  0  0
  -28.2949   61.5682   62.1926 C   0  0  0  0  0  0  0  0  0  0  0  0
  -28.9055   62.9199   61.8478 C   0  0  0  0  0  0  0  0  0  0  0  0
  -28.5950   64.1102   62.7431 C   0  0  0  0  0  0  0  0  0  0  0  0
  -29.7229   64.3415   63.7612 C   0  0  0  0  0  0  0  0  0  0  0  0
  -31.1273   64.4633   63.1416 C   0  0  0  0  0  0  0  0  0  0  0  0
  -32.1432   63.5017   63.7540 C   0  0  0  0  0  0  0  0  0  0  0  0
  -43.0033   56.6022   64.4593 O   0  0  0  0  0  0  0  0  0  0  0  0
  -42.8994   57.5517   65.5040 C   0  0  0  0  0  0  0  0  0  0  0  0
  -42.1264   56.4477   64.0745 H   0  0  0  0  0  0  0  0  0  0  0  0
  -44.2531   57.8419   66.1563 C   0  0  0  0  0  0  0  0  0  0  0  0
  -45.3878   57.9921   65.4518 C   0  0  0  0  0  0  0  0  0  0  0  0
  -46.7005   58.2815   66.1773 C   0  0  0  0  0  0  0  0  0  0  0  0
  -47.7092   59.0830   65.3416 C   0  0  0  0  0  0  0  0  0  0  0  0
  -48.8606   59.7336   66.1304 C   0  0  0  0  0  0  0  0  0  0  0  0
  -50.2308   59.3352   65.5312 C   0  0  0  0  0  0  0  0  0  0  0  0
  -50.8055   60.3198   64.4815 C   0  0  0  0  0  0  0  0  0  0  0  0
  -51.4645   59.6324   63.2625 C   0  0  0  0  0  0  0  0  0  0  0  0
  -50.4662   58.8551   62.3774 C   0  0  0  0  0  0  0  0  0  0  0  0
  -49.5279   59.7566   61.5664 C   0  0  0  0  0  0  0  0  0  0  0  0
  -49.5201   59.5315   60.0558 C   0  0  0  0  0  0  0  0  0  0  0  0
  -49.7927   58.0727   59.6391 C   0  0  0  0  0  0  0  0  0  0  0  0
  -48.5521   57.2678   59.2233 C   0  0  0  0  0  0  0  0  0  0  0  0
  -48.2559   57.4455   57.7314 C   0  0  0  0  0  0  0  0  0  0  0  0
  -47.0871   58.3482   57.3779 C   0  0  0  0  0  0  0  0  0  0  0  0
  -42.6801   58.9647   63.3175 C   0  0  0  0  0  0  0  0  0  0  0  0
  -42.4392   60.2730   62.7400 O   0  0  0  0  0  0  0  0  0  0  0  0
  -40.0366   61.4969   63.6922 O   0  0  0  0  0  0  0  0  0  0  0  0
  -38.2327   58.6527   61.2315 O   0  0  0  0  0  0  0  0  0  0  0  0
  -41.0855   59.5855   60.8478 O   0  0  0  0  0  0  0  0  0  0  0  0
  -41.2369   60.5408   61.9259 C   0  0  0  0  0  0  0  0  0  0  0  0
  -39.8989   60.5490   62.6791 C   0  0  0  0  0  0  0  0  0  0  0  0
  -38.6943   60.9503   61.7998 C   0  0  0  0  0  0  0  0  0  0  0  0
  -38.6116   59.9222   60.7054 C   0  0  0  0  0  0  0  0  0  0  0  0
  -39.9439   59.8323   59.9833 C   0  0  0  0  0  0  0  0  0  0  0  0
  -40.7899   61.2608   64.2558 H   0  0  0  0  0  0  0  0  0  0  0  0
  -37.3805   58.7331   61.6877 H   0  0  0  0  0  0  0  0  0  0  0  0
  -40.2917   57.5653   59.3100 O   0  0  0  0  0  0  0  0  0  0  0  0
  -39.6511   58.7509   58.9455 C   0  0  0  0  0  0  0  0  0  0  0  0
  -40.1043   56.8802   58.6494 H   0  0  0  0  0  0  0  0  0  0  0  0
  -37.4041   60.9477   62.4519 O   0  0  0  0  0  0  0  0  0  0  0  0
  -35.3348   62.0821   63.5232 O   0  0  0  0  0  0  0  0  0  0  0  0
  -37.5044   62.2991   64.5883 O   0  0  0  0  0  0  0  0  0  0  0  0
  -37.0010   63.5584   62.5796 O   0  0  0  0  0  0  0  0  0  0  0  0
  -36.7970   62.2585   63.2797 S   0  0  0  0  0  0  0  0  0  0  0  0
  -35.1821   61.2397   63.9791 H   0  0  0  0  0  0  0  0  0  0  0  0
  -36.5428   63.5407   61.7248 H   0  0  0  0  0  0  0  0  0  0  0  0
  2  1  1  0  0  0
  2  4  1  0  0  0
  2  5  1  0  0  0
 41 42  1  0  0  0
 41  1  1  0  0  0
 42 46  1  0  0  0
  1 24  1  0  0  0
 23 24  1  0  0  0
 23 25  1  0  0  0
 24 26  1  0  0  0
  3  4  2  0  0  0
 26 27  2  0  0  0
 27 28  1  0  0  0
 43 47  1  0  0  0
 43 51  1  0  0  0
 28 29  1  0  0  0
 56 48  1  0  0  0
 56 60  1  0  0  0
 29 30  1  0  0  0
 57 60  1  0  0  0
 57 61  1  0  0  0
 30 31  1  0  0  0
 44 49  1  0  0  0
 44 52  1  0  0  0
 31 32  1  0  0  0
 45 46  1  0  0  0
 45 50  1  0  0  0
 32 33  1  0  0  0
 53 54  1  0  0  0
 53 55  1  0  0  0
 33 34  1  0  0  0
 34 35  1  0  0  0
 35 36  1  0  0  0
 58 60  1  0  0  0
 36 37  1  0  0  0
 59 60  1  0  0  0
 59 62  1  0  0  0
 37 38  1  0  0  0
 38 39  1  0  0  0
 39 40  1  0  0  0
  4  6  1  0  0  0
  6  7  1  0  0  0
  7  8  1  0  0  0
  8  9  1  0  0  0
  9 10  1  0  0  0
 10 11  1  0  0  0
 11 12  1  0  0  0
 12 13  1  0  0  0
 13 14  1  0  0  0
 14 15  1  0  0  0
 15 16  1  0  0  0
 16 17  1  0  0  0
 17 18  1  0  0  0
 18 19  1  0  0  0
 19 20  1  0  0  0
 20 21  1  0  0  0
 21 22  1  0  0  0
 46 47  1  0  0  0
 47 48  1  0  0  0
 48 49  1  0  0  0
 49 50  1  0  0  0
 50 54  1  0  0  0
M  CHG 1  58  -1
M  END
> <minimizedAffinity>
-9.26250

> <CNNscore>
0.1624716818

> <CNNaffinity>
6.4078164101

> <CNN_VS>
1.0410887003

> <CNNaffinity_variance>
0.9935759306

$$$$
/media/chris/experiments/cd1a-new-docking/inputs/ligands/1onq_ligand.pdb


 62 62  0  0  0  0  0  0  0  0999 V2000
  -40.6788   59.9168   63.8451 C   0  0  0  0  0  0  0  0  0  0  0  0
  -41.8897   60.6111   64.2359 N   0  0  0  0  0  0  0  0  0  0  0  0
  -42.8012   61.1429   62.2274 O   0  0  0  0  0  0  0  0  0  0  0  0
  -42.8248   61.1516   63.4428 C   0  0  0  0  0  0  0  0  0  0  0  0
  -42.0444   60.6961   65.2044 H   0  0  0  0  0  0  0  0  0  0  0  0
  -43.9728   61.7983   64.1596 C   0  0  0  0  0  0  0  0  0  0  0  0
  -44.5940   60.7184   65.0456 C   0  0  0  0  0  0  0  0  0  0  0  0
  -45.8764   60.1926   64.4054 C   0  0  0  0  0  0  0  0  0  0  0  0
  -46.5272   59.0166   65.0927 C   0  0  0  0  0  0  0  0  0  0  0  0
  -47.0771   59.5095   66.4271 C   0  0  0  0  0  0  0  0  0  0  0  0
  -48.4641   60.1531   66.2954 C   0  0  0  0  0  0  0  0  0  0  0  0
  -49.5850   59.1675   65.9176 C   0  0  0  0  0  0  0  0  0  0  0  0
  -50.8975   59.8760   65.5168 C   0  0  0  0  0  0  0  0  0  0  0  0
  -50.6904   60.7255   64.2596 C   0  0  0  0  0  0  0  0  0  0  0  0
  -50.9438   60.0012   62.9429 C   0  0  0  0  0  0  0  0  0  0  0  0
  -49.6561   59.5138   62.2952 C   0  0  0  0  0  0  0  0  0  0  0  0
  -49.7206   59.2503   60.7890 C   0  0  0  0  0  0  0  0  0  0  0  0
  -48.7854   58.0921   60.4683 C   0  0  0  0  0  0  0  0  0  0  0  0
  -48.6855   57.6128   59.0277 C   0  0  0  0  0  0  0  0  0  0  0  0
  -47.7622   58.5270   58.2069 C   0  0  0  0  0  0  0  0  0  0  0  0
  -46.9198   57.7964   57.1450 C   0  0  0  0  0  0  0  0  0  0  0  0
  -47.1396   56.2854   57.1343 C   0  0  0  0  0  0  0  0  0  0  0  0
  -39.8454   60.4096   65.9566 O   0  0  0  0  0  0  0  0  0  0  0  0
  -40.2123   59.3029   65.1540 C   0  0  0  0  0  0  0  0  0  0  0  0
  -40.6208   60.9735   66.1036 H   0  0  0  0  0  0  0  0  0  0  0  0
  -39.0298   58.3698   64.8831 C   0  0  0  0  0  0  0  0  0  0  0  0
  -37.7945   58.5958   65.3619 C   0  0  0  0  0  0  0  0  0  0  0  0
  -36.6656   57.6165   65.0459 C   0  0  0  0  0  0  0  0  0  0  0  0
  -35.6186   58.1692   64.0679 C   0  0  0  0  0  0  0  0  0  0  0  0
  -35.7894   57.7434   62.5979 C   0  0  0  0  0  0  0  0  0  0  0  0
  -36.8102   58.6562   61.8768 C   0  0  0  0  0  0  0  0  0  0  0  0
  -38.0368   57.9281   61.2711 C   0  0  0  0  0  0  0  0  0  0  0  0
  -38.4996   58.4937   59.9078 C   0  0  0  0  0  0  0  0  0  0  0  0
  -39.9167   58.0370   59.4987 C   0  0  0  0  0  0  0  0  0  0  0  0
  -41.0089   58.4456   60.4942 C   0  0  0  0  0  0  0  0  0  0  0  0
  -41.8008   57.3039   61.1282 C   0  0  0  0  0  0  0  0  0  0  0  0
  -40.9864   56.4549   62.1242 C   0  0  0  0  0  0  0  0  0  0  0  0
  -41.7085   56.1128   63.4362 C   0  0  0  0  0  0  0  0  0  0  0  0
  -42.7899   57.1490   63.7552 C   0  0  0  0  0  0  0  0  0  0  0  0
  -43.3144   57.1609   65.1802 C   0  0  0  0  0  0  0  0  0  0  0  0
  -39.6495   60.7629   63.0618 C   0  0  0  0  0  0  0  0  0  0  0  0
  -39.0525   61.8778   63.7716 O   0  0  0  0  0  0  0  0  0  0  0  0
  -37.0199   62.3985   61.8288 O   0  0  0  0  0  0  0  0  0  0  0  0
  -35.3246   64.5796   64.9541 O   0  0  0  0  0  0  0  0  0  0  0  0
  -37.3161   62.3456   65.4000 O   0  0  0  0  0  0  0  0  0  0  0  0
  -37.6021   61.9230   64.0446 C   0  0  0  0  0  0  0  0  0  0  0  0
  -36.7704   62.8335   63.1297 C   0  0  0  0  0  0  0  0  0  0  0  0
  -35.2498   62.7488   63.3864 C   0  0  0  0  0  0  0  0  0  0  0  0
  -35.0382   63.1908   64.8081 C   0  0  0  0  0  0  0  0  0  0  0  0
  -35.9031   62.3598   65.7386 C   0  0  0  0  0  0  0  0  0  0  0  0
  -37.9720   62.4449   61.6492 H   0  0  0  0  0  0  0  0  0  0  0  0
  -34.7619   65.0907   64.3516 H   0  0  0  0  0  0  0  0  0  0  0  0
  -36.4218   64.0195   67.3788 O   0  0  0  0  0  0  0  0  0  0  0  0
  -35.5518   62.9648   67.0960 C   0  0  0  0  0  0  0  0  0  0  0  0
  -36.1967   64.4019   68.2413 H   0  0  0  0  0  0  0  0  0  0  0  0
  -34.4201   63.6070   62.5710 O   0  0  0  0  0  0  0  0  0  0  0  0
  -32.4894   63.8528   60.8597 O   0  0  0  0  0  0  0  0  0  0  0  0
  -32.7623   61.7641   62.0647 O   0  0  0  0  0  0  0  0  0  0  0  0
  -31.8501   63.7089   63.1871 O   0  0  0  0  0  0  0  0  0  0  0  0
  -32.8433   63.2457   62.1768 S   0  0  0  0  0  0  0  0  0  0  0  0
  -33.1260   63.5621   60.1881 H   0  0  0  0  0  0  0  0  0  0  0  0
  -31.8962   64.6746   63.2666 H   0  0  0  0  0  0  0  0  0  0  0  0
  2  1  1  0  0  0
  2  4  1  0  0  0
  2  5  1  0  0  0
 41 42  1  0  0  0
 41  1  1  0  0  0
 42 46  1  0  0  0
  1 24  1  0  0  0
 23 24  1  0  0  0
 23 25  1  0  0  0
 24 26  1  0  0  0
  3  4  2  0  0  0
 26 27  2  0  0  0
 27 28  1  0  0  0
 43 47  1  0  0  0
 43 51  1  0  0  0
 28 29  1  0  0  0
 56 48  1  0  0  0
 56 60  1  0  0  0
 29 30  1  0  0  0
 57 60  1  0  0  0
 57 61  1  0  0  0
 30 31  1  0  0  0
 44 49  1  0  0  0
 44 52  1  0  0  0
 31 32  1  0  0  0
 45 46  1  0  0  0
 45 50  1  0  0  0
 32 33  1  0  0  0
 53 54  1  0  0  0
 53 55  1  0  0  0
 33 34  1  0  0  0
 34 35  1  0  0  0
 35 36  1  0  0  0
 58 60  1  0  0  0
 36 37  1  0  0  0
 59 60  1  0  0  0
 59 62  1  0  0  0
 37 38  1  0  0  0
 38 39  1  0  0  0
 39 40  1  0  0  0
  4  6  1  0  0  0
  6  7  1  0  0  0
  7  8  1  0  0  0
  8  9  1  0  0  0
  9 10  1  0  0  0
 10 11  1  0  0  0
 11 12  1  0  0  0
 12 13  1  0  0  0
 13 14  1  0  0  0
 14 15  1  0  0  0
 15 16  1  0  0  0
 16 17  1  0  0  0
 17 18  1  0  0  0
 18 19  1  0  0  0
 19 20  1  0  0  0
 20 21  1  0  0  0
 21 22  1  0  0  0
 46 47  1  0  0  0
 47 48  1  0  0  0
 48 49  1  0  0  0
 49 50  1  0  0  0
 50 54  1  0  0  0
M  CHG 1  58  -1
M  END
> <minimizedAffinity>
-9.55575

> <CNNscore>
0.1345751286

> <CNNaffinity>
7.1541566849

> <CNN_VS>
0.9627715349

> <CNNaffinity_variance>
1.3749088049

$$$$
