/media/chris/experiments/cd1a-new-docking/inputs/ligands/1onq_ligand.pdb


 62 62  0  0  0  0  0  0  0  0999 V2000
  -41.6648   59.9625   64.9245 C   0  0  0  0  0  0  0  0  0  0  0  0
  -41.6306   58.5797   64.4912 N   0  0  0  0  0  0  0  0  0  0  0  0
  -43.0265   57.5824   65.9760 O   0  0  0  0  0  0  0  0  0  0  0  0
  -42.2802   57.5325   65.0177 C   0  0  0  0  0  0  0  0  0  0  0  0
  -41.0591   58.3857   63.7135 H   0  0  0  0  0  0  0  0  0  0  0  0
  -42.0399   56.2216   64.3296 C   0  0  0  0  0  0  0  0  0  0  0  0
  -41.0098   56.4905   63.2325 C   0  0  0  0  0  0  0  0  0  0  0  0
  -41.2932   55.6037   62.0223 C   0  0  0  0  0  0  0  0  0  0  0  0
  -41.3301   56.3002   60.6837 C   0  0  0  0  0  0  0  0  0  0  0  0
  -41.7641   57.7420   60.9261 C   0  0  0  0  0  0  0  0  0  0  0  0
  -40.9609   58.7508   60.0943 C   0  0  0  0  0  0  0  0  0  0  0  0
  -40.0048   58.1086   59.0725 C   0  0  0  0  0  0  0  0  0  0  0  0
  -38.5803   58.7029   59.1272 C   0  0  0  0  0  0  0  0  0  0  0  0
  -38.2417   59.1643   60.5475 C   0  0  0  0  0  0  0  0  0  0  0  0
  -37.1767   58.3373   61.2576 C   0  0  0  0  0  0  0  0  0  0  0  0
  -37.7640   57.4537   62.3482 C   0  0  0  0  0  0  0  0  0  0  0  0
  -37.6413   57.9827   63.7791 C   0  0  0  0  0  0  0  0  0  0  0  0
  -36.2175   57.7330   64.2579 C   0  0  0  0  0  0  0  0  0  0  0  0
  -35.2591   58.9118   64.3422 C   0  0  0  0  0  0  0  0  0  0  0  0
  -33.8840   58.4661   64.8643 C   0  0  0  0  0  0  0  0  0  0  0  0
  -32.7186   58.7186   63.8901 C   0  0  0  0  0  0  0  0  0  0  0  0
  -33.1764   58.9994   62.4607 C   0  0  0  0  0  0  0  0  0  0  0  0
  -42.1896   62.0304   64.0057 O   0  0  0  0  0  0  0  0  0  0  0  0
  -42.4002   60.6481   63.7857 C   0  0  0  0  0  0  0  0  0  0  0  0
  -41.2401   62.2239   63.9616 H   0  0  0  0  0  0  0  0  0  0  0  0
  -43.8832   60.2744   63.8424 C   0  0  0  0  0  0  0  0  0  0  0  0
  -44.7744   60.9296   64.6058 C   0  0  0  0  0  0  0  0  0  0  0  0
  -46.2387   60.4946   64.6083 C   0  0  0  0  0  0  0  0  0  0  0  0
  -46.5236   59.2756   65.4977 C   0  0  0  0  0  0  0  0  0  0  0  0
  -47.9663   58.7395   65.4514 C   0  0  0  0  0  0  0  0  0  0  0  0
  -48.9473   59.7458   66.0997 C   0  0  0  0  0  0  0  0  0  0  0  0
  -50.4295   59.5933   65.6736 C   0  0  0  0  0  0  0  0  0  0  0  0
  -50.8467   60.5041   64.4950 C   0  0  0  0  0  0  0  0  0  0  0  0
  -51.4312   59.7302   63.2935 C   0  0  0  0  0  0  0  0  0  0  0  0
  -50.4249   58.7946   62.6127 C   0  0  0  0  0  0  0  0  0  0  0  0
  -50.9877   57.8776   61.5288 C   0  0  0  0  0  0  0  0  0  0  0  0
  -49.9250   57.3388   60.5509 C   0  0  0  0  0  0  0  0  0  0  0  0
  -49.5781   58.2724   59.3812 C   0  0  0  0  0  0  0  0  0  0  0  0
  -48.6547   57.5762   58.3773 C   0  0  0  0  0  0  0  0  0  0  0  0
  -47.6945   56.5460   58.9450 C   0  0  0  0  0  0  0  0  0  0  0  0
  -40.3031   60.5633   65.3415 C   0  0  0  0  0  0  0  0  0  0  0  0
  -39.5052   61.1558   64.2852 O   0  0  0  0  0  0  0  0  0  0  0  0
  -37.6655   61.8359   62.2044 O   0  0  0  0  0  0  0  0  0  0  0  0
  -36.1603   64.4333   65.1005 O   0  0  0  0  0  0  0  0  0  0  0  0
  -37.7804   61.9708   65.7840 O   0  0  0  0  0  0  0  0  0  0  0  0
  -38.0658   61.4254   64.4730 C   0  0  0  0  0  0  0  0  0  0  0  0
  -37.4207   62.3848   63.4626 C   0  0  0  0  0  0  0  0  0  0  0  0
  -35.8935   62.5350   63.6375 C   0  0  0  0  0  0  0  0  0  0  0  0
  -35.6813   63.0932   65.0176 C   0  0  0  0  0  0  0  0  0  0  0  0
  -36.3702   62.2086   66.0411 C   0  0  0  0  0  0  0  0  0  0  0  0
  -38.6216   61.7339   62.0766 H   0  0  0  0  0  0  0  0  0  0  0  0
  -35.7078   64.9799   64.4392 H   0  0  0  0  0  0  0  0  0  0  0  0
  -34.6747   63.1897   67.4109 O   0  0  0  0  0  0  0  0  0  0  0  0
  -36.0470   62.9437   67.3400 C   0  0  0  0  0  0  0  0  0  0  0  0
  -34.4721   63.6566   68.2366 H   0  0  0  0  0  0  0  0  0  0  0  0
  -35.2378   63.4489   62.7292 O   0  0  0  0  0  0  0  0  0  0  0  0
  -33.0771   64.8399   63.0660 O   0  0  0  0  0  0  0  0  0  0  0  0
  -33.3070   63.4437   61.0944 O   0  0  0  0  0  0  0  0  0  0  0  0
  -32.8499   62.4399   63.2525 O   0  0  0  0  0  0  0  0  0  0  0  0
  -33.5843   63.5325   62.5538 S   0  0  0  0  0  0  0  0  0  0  0  0
  -33.5445   65.5644   62.6217 H   0  0  0  0  0  0  0  0  0  0  0  0
  -33.0251   62.4903   64.2053 H   0  0  0  0  0  0  0  0  0  0  0  0
  2  1  1  0  0  0
  2  4  1  0  0  0
  2  5  1  0  0  0
 41 42  1  0  0  0
 41  1  1  0  0  0
 42 46  1  0  0  0
  1 24  1  0  0  0
 23 24  1  0  0  0
 23 25  1  0  0  0
 24 26  1  0  0  0
  3  4  2  0  0  0
 26 27  2  0  0  0
 27 28  1  0  0  0
 43 47  1  0  0  0
 43 51  1  0  0  0
 28 29  1  0  0  0
 56 48  1  0  0  0
 56 60  1  0  0  0
 29 30  1  0  0  0
 57 60  1  0  0  0
 57 61  1  0  0  0
 30 31  1  0  0  0
 44 49  1  0  0  0
 44 52  1  0  0  0
 31 32  1  0  0  0
 45 46  1  0  0  0
 45 50  1  0  0  0
 32 33  1  0  0  0
 53 54  1  0  0  0
 53 55  1  0  0  0
 33 34  1  0  0  0
 34 35  1  0  0  0
 35 36  1  0  0  0
 58 60  1  0  0  0
 36 37  1  0  0  0
 59 60  1  0  0  0
 59 62  1  0  0  0
 37 38  1  0  0  0
 38 39  1  0  0  0
 39 40  1  0  0  0
  4  6  1  0  0  0
  6  7  1  0  0  0
  7  8  1  0  0  0
  8  9  1  0  0  0
  9 10  1  0  0  0
 10 11  1  0  0  0
 11 12  1  0  0  0
 12 13  1  0  0  0
 13 14  1  0  0  0
 14 15  1  0  0  0
 15 16  1  0  0  0
 16 17  1  0  0  0
 17 18  1  0  0  0
 18 19  1  0  0  0
 19 20  1  0  0  0
 20 21  1  0  0  0
 21 22  1  0  0  0
 46 47  1  0  0  0
 47 48  1  0  0  0
 48 49  1  0  0  0
 49 50  1  0  0  0
 50 54  1  0  0  0
M  CHG 1  58  -1
M  END
> <minimizedAffinity>
-9.87931

> <CNNscore>
0.3632822931

> <CNNaffinity>
7.2372426987

> <CNN_VS>
2.6291620731

> <CNNaffinity_variance>
1.8599586487

$$$$
/media/chris/experiments/cd1a-new-docking/inputs/ligands/1onq_ligand.pdb


 62 62  0  0  0  0  0  0  0  0999 V2000
  -38.4233   60.9949   62.6570 C   0  0  0  0  0  0  0  0  0  0  0  0
  -39.6289   60.7323   63.4177 N   0  0  0  0  0  0  0  0  0  0  0  0
  -41.2552   61.2960   61.9397 O   0  0  0  0  0  0  0  0  0  0  0  0
  -40.9017   60.8916   63.0302 C   0  0  0  0  0  0  0  0  0  0  0  0
  -39.4960   60.3951   64.3331 H   0  0  0  0  0  0  0  0  0  0  0  0
  -41.9317   60.5203   64.0555 C   0  0  0  0  0  0  0  0  0  0  0  0
  -43.2778   60.9969   63.5096 C   0  0  0  0  0  0  0  0  0  0  0  0
  -44.3112   61.0374   64.6328 C   0  0  0  0  0  0  0  0  0  0  0  0
  -45.7550   61.1311   64.2028 C   0  0  0  0  0  0  0  0  0  0  0  0
  -46.5875   60.3425   65.2082 C   0  0  0  0  0  0  0  0  0  0  0  0
  -48.0789   60.3110   64.8481 C   0  0  0  0  0  0  0  0  0  0  0  0
  -49.0017   59.9048   66.0117 C   0  0  0  0  0  0  0  0  0  0  0  0
  -50.4330   59.5547   65.5488 C   0  0  0  0  0  0  0  0  0  0  0  0
  -50.8244   60.3889   64.3258 C   0  0  0  0  0  0  0  0  0  0  0  0
  -51.4535   59.6016   63.1826 C   0  0  0  0  0  0  0  0  0  0  0  0
  -50.4136   59.0657   62.2099 C   0  0  0  0  0  0  0  0  0  0  0  0
  -50.8271   57.8385   61.3943 C   0  0  0  0  0  0  0  0  0  0  0  0
  -50.3166   58.0192   59.9711 C   0  0  0  0  0  0  0  0  0  0  0  0
  -48.9643   57.4282   59.6008 C   0  0  0  0  0  0  0  0  0  0  0  0
  -48.2278   58.3279   58.5955 C   0  0  0  0  0  0  0  0  0  0  0  0
  -47.1213   57.6176   57.7943 C   0  0  0  0  0  0  0  0  0  0  0  0
  -47.5004   56.2021   57.3650 C   0  0  0  0  0  0  0  0  0  0  0  0
  -36.3411   59.9857   62.8609 O   0  0  0  0  0  0  0  0  0  0  0  0
  -37.7078   59.6555   62.6979 C   0  0  0  0  0  0  0  0  0  0  0  0
  -36.2208   60.4604   63.6982 H   0  0  0  0  0  0  0  0  0  0  0  0
  -37.9672   58.9021   61.3912 C   0  0  0  0  0  0  0  0  0  0  0  0
  -38.3662   59.5116   60.2618 C   0  0  0  0  0  0  0  0  0  0  0  0
  -38.6053   58.6885   58.9974 C   0  0  0  0  0  0  0  0  0  0  0  0
  -39.9936   58.0354   58.9340 C   0  0  0  0  0  0  0  0  0  0  0  0
  -41.1172   58.7849   59.6735 C   0  0  0  0  0  0  0  0  0  0  0  0
  -41.7203   57.9039   60.7939 C   0  0  0  0  0  0  0  0  0  0  0  0
  -41.3768   56.3953   60.7068 C   0  0  0  0  0  0  0  0  0  0  0  0
  -40.8840   55.7800   62.0378 C   0  0  0  0  0  0  0  0  0  0  0  0
  -40.8922   56.7749   63.2185 C   0  0  0  0  0  0  0  0  0  0  0  0
  -41.9013   56.4210   64.3175 C   0  0  0  0  0  0  0  0  0  0  0  0
  -42.6403   57.5961   64.9541 C   0  0  0  0  0  0  0  0  0  0  0  0
  -44.1070   57.2907   65.3168 C   0  0  0  0  0  0  0  0  0  0  0  0
  -44.4893   57.5591   66.7803 C   0  0  0  0  0  0  0  0  0  0  0  0
  -46.0103   57.5977   66.9531 C   0  0  0  0  0  0  0  0  0  0  0  0
  -46.8229   56.7766   65.9676 C   0  0  0  0  0  0  0  0  0  0  0  0
  -37.6141   62.2354   63.0990 C   0  0  0  0  0  0  0  0  0  0  0  0
  -36.8280   62.8953   62.0744 O   0  0  0  0  0  0  0  0  0  0  0  0
  -36.4537   64.1593   64.6120 O   0  0  0  0  0  0  0  0  0  0  0  0
  -32.4516   63.2233   63.9005 O   0  0  0  0  0  0  0  0  0  0  0  0
  -34.5015   63.4641   61.6879 O   0  0  0  0  0  0  0  0  0  0  0  0
  -35.7048   63.7865   62.4268 C   0  0  0  0  0  0  0  0  0  0  0  0
  -35.3014   63.8117   63.9080 C   0  0  0  0  0  0  0  0  0  0  0  0
  -34.2028   64.8471   64.2344 C   0  0  0  0  0  0  0  0  0  0  0  0
  -32.9984   64.4511   63.4256 C   0  0  0  0  0  0  0  0  0  0  0  0
  -33.3768   64.3432   61.9595 C   0  0  0  0  0  0  0  0  0  0  0  0
  -37.1561   63.5188   64.4190 H   0  0  0  0  0  0  0  0  0  0  0  0
  -32.2173   63.3145   64.8373 H   0  0  0  0  0  0  0  0  0  0  0  0
  -32.0331   62.5502   61.1271 O   0  0  0  0  0  0  0  0  0  0  0  0
  -32.0458   63.9305   61.3349 C   0  0  0  0  0  0  0  0  0  0  0  0
  -31.1868   62.2906   60.7304 H   0  0  0  0  0  0  0  0  0  0  0  0
  -33.7645   64.8945   65.6112 O   0  0  0  0  0  0  0  0  0  0  0  0
  -33.2042   63.6594   67.8196 O   0  0  0  0  0  0  0  0  0  0  0  0
  -34.4014   62.4881   66.0635 O   0  0  0  0  0  0  0  0  0  0  0  0
  -35.5397   64.1418   67.4213 O   0  0  0  0  0  0  0  0  0  0  0  0
  -34.2493   63.7933   66.7620 S   0  0  0  0  0  0  0  0  0  0  0  0
  -32.3555   63.4322   67.4087 H   0  0  0  0  0  0  0  0  0  0  0  0
  -35.4495   64.9920   67.8794 H   0  0  0  0  0  0  0  0  0  0  0  0
  2  1  1  0  0  0
  2  4  1  0  0  0
  2  5  1  0  0  0
 41 42  1  0  0  0
 41  1  1  0  0  0
 42 46  1  0  0  0
  1 24  1  0  0  0
 23 24  1  0  0  0
 23 25  1  0  0  0
 24 26  1  0  0  0
  3  4  2  0  0  0
 26 27  2  0  0  0
 27 28  1  0  0  0
 43 47  1  0  0  0
 43 51  1  0  0  0
 28 29  1  0  0  0
 56 48  1  0  0  0
 56 60  1  0  0  0
 29 30  1  0  0  0
 57 60  1  0  0  0
 57 61  1  0  0  0
 30 31  1  0  0  0
 44 49  1  0  0  0
 44 52  1  0  0  0
 31 32  1  0  0  0
 45 46  1  0  0  0
 45 50  1  0  0  0
 32 33  1  0  0  0
 53 54  1  0  0  0
 53 55  1  0  0  0
 33 34  1  0  0  0
 34 35  1  0  0  0
 35 36  1  0  0  0
 58 60  1  0  0  0
 36 37  1  0  0  0
 59 60  1  0  0  0
 59 62  1  0  0  0
 37 38  1  0  0  0
 38 39  1  0  0  0
 39 40  1  0  0  0
  4  6  1  0  0  0
  6  7  1  0  0  0
  7  8  1  0  0  0
  8  9  1  0  0  0
  9 10  1  0  0  0
 10 11  1  0  0  0
 11 12  1  0  0  0
 12 13  1  0  0  0
 13 14  1  0  0  0
 14 15  1  0  0  0
 15 16  1  0  0  0
 16 17  1  0  0  0
 17 18  1  0  0  0
 18 19  1  0  0  0
 19 20  1  0  0  0
 20 21  1  0  0  0
 21 22  1  0  0  0
 46 47  1  0  0  0
 47 48  1  0  0  0
 48 49  1  0  0  0
 49 50  1  0  0  0
 50 54  1  0  0  0
M  CHG 1  58  -1
M  END
> <minimizedAffinity>
-9.68669

> <CNNscore>
0.1906671077

> <CNNaffinity>
7.0931396484

> <CNN_VS>
1.3524284363

> <CNNaffinity_variance>
0.5286489725

$$$$
/media/chris/experiments/cd1a-new-docking/inputs/ligands/1onq_ligand.pdb


 62 62  0  0  0  0  0  0  0  0999 V2000
  -40.6205   60.2869   63.7788 C   0  0  0  0  0  0  0  0  0  0  0  0
  -42.0693   60.3322   63.7860 N   0  0  0  0  0  0  0  0  0  0  0  0
  -42.4849   61.9998   65.2672 O   0  0  0  0  0  0  0  0  0  0  0  0
  -42.8672   61.1438   64.4933 C   0  0  0  0  0  0  0  0  0  0  0  0
  -42.5237   59.6862   63.1981 H   0  0  0  0  0  0  0  0  0  0  0  0
  -44.3372   60.9456   64.2705 C   0  0  0  0  0  0  0  0  0  0  0  0
  -44.6080   59.4539   64.4670 C   0  0  0  0  0  0  0  0  0  0  0  0
  -45.8039   59.2588   65.3960 C   0  0  0  0  0  0  0  0  0  0  0  0
  -47.1348   59.0240   64.7236 C   0  0  0  0  0  0  0  0  0  0  0  0
  -48.0594   60.1707   65.1188 C   0  0  0  0  0  0  0  0  0  0  0  0
  -49.1480   59.7396   66.1107 C   0  0  0  0  0  0  0  0  0  0  0  0
  -50.5708   59.7287   65.5225 C   0  0  0  0  0  0  0  0  0  0  0  0
  -50.6784   60.5133   64.1965 C   0  0  0  0  0  0  0  0  0  0  0  0
  -51.4271   59.6927   63.1426 C   0  0  0  0  0  0  0  0  0  0  0  0
  -50.6832   58.4637   62.6340 C   0  0  0  0  0  0  0  0  0  0  0  0
  -49.4142   58.8288   61.8781 C   0  0  0  0  0  0  0  0  0  0  0  0
  -49.6132   59.5187   60.5266 C   0  0  0  0  0  0  0  0  0  0  0  0
  -50.1262   58.4831   59.5350 C   0  0  0  0  0  0  0  0  0  0  0  0
  -49.1224   57.5608   58.8589 C   0  0  0  0  0  0  0  0  0  0  0  0
  -47.8699   58.3371   58.4222 C   0  0  0  0  0  0  0  0  0  0  0  0
  -47.1795   57.7794   57.1639 C   0  0  0  0  0  0  0  0  0  0  0  0
  -47.1600   56.2534   57.1119 C   0  0  0  0  0  0  0  0  0  0  0  0
  -39.7922   60.7768   65.8929 O   0  0  0  0  0  0  0  0  0  0  0  0
  -40.3012   59.6920   65.1395 C   0  0  0  0  0  0  0  0  0  0  0  0
  -40.4736   61.4623   65.9737 H   0  0  0  0  0  0  0  0  0  0  0  0
  -39.2720   58.5715   64.9740 C   0  0  0  0  0  0  0  0  0  0  0  0
  -37.9877   58.6960   65.3500 C   0  0  0  0  0  0  0  0  0  0  0  0
  -37.0206   57.5305   65.1502 C   0  0  0  0  0  0  0  0  0  0  0  0
  -35.6609   57.9437   64.5684 C   0  0  0  0  0  0  0  0  0  0  0  0
  -35.3994   57.5121   63.1136 C   0  0  0  0  0  0  0  0  0  0  0  0
  -36.1171   58.4593   62.1222 C   0  0  0  0  0  0  0  0  0  0  0  0
  -37.4548   57.9271   61.5489 C   0  0  0  0  0  0  0  0  0  0  0  0
  -38.3147   59.0028   60.8444 C   0  0  0  0  0  0  0  0  0  0  0  0
  -38.4875   58.7605   59.3294 C   0  0  0  0  0  0  0  0  0  0  0  0
  -39.8609   58.1959   58.9468 C   0  0  0  0  0  0  0  0  0  0  0  0
  -40.9323   58.2418   60.0341 C   0  0  0  0  0  0  0  0  0  0  0  0
  -41.3137   56.8580   60.5959 C   0  0  0  0  0  0  0  0  0  0  0  0
  -40.8930   56.6034   62.0513 C   0  0  0  0  0  0  0  0  0  0  0  0
  -42.0555   56.8642   63.0134 C   0  0  0  0  0  0  0  0  0  0  0  0
  -41.9478   56.2317   64.3896 C   0  0  0  0  0  0  0  0  0  0  0  0
  -39.9149   61.6117   63.4102 C   0  0  0  0  0  0  0  0  0  0  0  0
  -38.6446   61.4992   62.7196 O   0  0  0  0  0  0  0  0  0  0  0  0
  -36.5761   63.1388   61.6193 O   0  0  0  0  0  0  0  0  0  0  0  0
  -36.3449   64.5642   65.5326 O   0  0  0  0  0  0  0  0  0  0  0  0
  -37.5123   61.8613   64.8344 O   0  0  0  0  0  0  0  0  0  0  0  0
  -37.3749   61.8380   63.3927 C   0  0  0  0  0  0  0  0  0  0  0  0
  -36.7411   63.1811   63.0032 C   0  0  0  0  0  0  0  0  0  0  0  0
  -35.3595   63.4257   63.6491 C   0  0  0  0  0  0  0  0  0  0  0  0
  -35.5847   63.4255   65.1359 C   0  0  0  0  0  0  0  0  0  0  0  0
  -36.2790   62.1408   65.5503 C   0  0  0  0  0  0  0  0  0  0  0  0
  -37.4352   62.9855   61.1958 H   0  0  0  0  0  0  0  0  0  0  0  0
  -35.8839   65.3724   65.2584 H   0  0  0  0  0  0  0  0  0  0  0  0
  -35.2969   63.0206   67.5440 O   0  0  0  0  0  0  0  0  0  0  0  0
  -36.4182   62.3467   67.0570 C   0  0  0  0  0  0  0  0  0  0  0  0
  -35.3878   63.1501   68.5010 H   0  0  0  0  0  0  0  0  0  0  0  0
  -34.7287   64.6888   63.3383 O   0  0  0  0  0  0  0  0  0  0  0  0
  -33.9202   63.9008   61.0054 O   0  0  0  0  0  0  0  0  0  0  0  0
  -33.0297   65.9504   61.9516 O   0  0  0  0  0  0  0  0  0  0  0  0
  -35.2799   65.8996   61.0526 O   0  0  0  0  0  0  0  0  0  0  0  0
  -34.2547   65.1188   61.8013 S   0  0  0  0  0  0  0  0  0  0  0  0
  -33.2530   63.3789   61.4779 H   0  0  0  0  0  0  0  0  0  0  0  0
  -36.0825   65.3646   60.9499 H   0  0  0  0  0  0  0  0  0  0  0  0
  2  1  1  0  0  0
  2  4  1  0  0  0
  2  5  1  0  0  0
 41 42  1  0  0  0
 41  1  1  0  0  0
 42 46  1  0  0  0
  1 24  1  0  0  0
 23 24  1  0  0  0
 23 25  1  0  0  0
 24 26  1  0  0  0
  3  4  2  0  0  0
 26 27  2  0  0  0
 27 28  1  0  0  0
 43 47  1  0  0  0
 43 51  1  0  0  0
 28 29  1  0  0  0
 56 48  1  0  0  0
 56 60  1  0  0  0
 29 30  1  0  0  0
 57 60  1  0  0  0
 57 61  1  0  0  0
 30 31  1  0  0  0
 44 49  1  0  0  0
 44 52  1  0  0  0
 31 32  1  0  0  0
 45 46  1  0  0  0
 45 50  1  0  0  0
 32 33  1  0  0  0
 53 54  1  0  0  0
 53 55  1  0  0  0
 33 34  1  0  0  0
 34 35  1  0  0  0
 35 36  1  0  0  0
 58 60  1  0  0  0
 36 37  1  0  0  0
 59 60  1  0  0  0
 59 62  1  0  0  0
 37 38  1  0  0  0
 38 39  1  0  0  0
 39 40  1  0  0  0
  4  6  1  0  0  0
  6  7  1  0  0  0
  7  8  1  0  0  0
  8  9  1  0  0  0
  9 10  1  0  0  0
 10 11  1  0  0  0
 11 12  1  0  0  0
 12 13  1  0  0  0
 13 14  1  0  0  0
 14 15  1  0  0  0
 15 16  1  0  0  0
 16 17  1  0  0  0
 17 18  1  0  0  0
 18 19  1  0  0  0
 19 20  1  0  0  0
 20 21  1  0  0  0
 21 22  1  0  0  0
 46 47  1  0  0  0
 47 48  1  0  0  0
 48 49  1  0  0  0
 49 50  1  0  0  0
 50 54  1  0  0  0
M  CHG 1  58  -1
M  END
> <minimizedAffinity>
-9.45859

> <CNNscore>
0.1841698140

> <CNNaffinity>
7.1307258606

> <CNN_VS>
1.3132644892

> <CNNaffinity_variance>
1.2992247343

$$$$
/media/chris/experiments/cd1a-new-docking/inputs/ligands/1onq_ligand.pdb


 62 62  0  0  0  0  0  0  0  0999 V2000
  -41.5791   60.6127   64.5641 C   0  0  0  0  0  0  0  0  0  0  0  0
  -42.3402   59.3809   64.6317 N   0  0  0  0  0  0  0  0  0  0  0  0
  -41.8827   58.6547   66.7319 O   0  0  0  0  0  0  0  0  0  0  0  0
  -42.4380   58.5252   65.6583 C   0  0  0  0  0  0  0  0  0  0  0  0
  -42.8485   59.1434   63.8227 H   0  0  0  0  0  0  0  0  0  0  0  0
  -43.3194   57.3361   65.4155 C   0  0  0  0  0  0  0  0  0  0  0  0
  -44.6985   57.8862   65.0514 C   0  0  0  0  0  0  0  0  0  0  0  0
  -45.4879   58.1968   66.3209 C   0  0  0  0  0  0  0  0  0  0  0  0
  -46.1650   59.5450   66.3678 C   0  0  0  0  0  0  0  0  0  0  0  0
  -46.5882   59.8980   64.9457 C   0  0  0  0  0  0  0  0  0  0  0  0
  -48.0564   60.3348   64.8552 C   0  0  0  0  0  0  0  0  0  0  0  0
  -48.9547   59.7671   65.9693 C   0  0  0  0  0  0  0  0  0  0  0  0
  -50.3182   59.2662   65.4446 C   0  0  0  0  0  0  0  0  0  0  0  0
  -50.8958   60.2466   64.4198 C   0  0  0  0  0  0  0  0  0  0  0  0
  -51.2282   59.6391   63.0623 C   0  0  0  0  0  0  0  0  0  0  0  0
  -50.4842   58.3350   62.8157 C   0  0  0  0  0  0  0  0  0  0  0  0
  -49.2362   58.4306   61.9350 C   0  0  0  0  0  0  0  0  0  0  0  0
  -49.5715   59.2949   60.7270 C   0  0  0  0  0  0  0  0  0  0  0  0
  -49.4021   58.7016   59.3361 C   0  0  0  0  0  0  0  0  0  0  0  0
  -48.2372   57.6995   59.3041 C   0  0  0  0  0  0  0  0  0  0  0  0
  -47.7645   57.3150   57.8900 C   0  0  0  0  0  0  0  0  0  0  0  0
  -46.9633   58.4170   57.2006 C   0  0  0  0  0  0  0  0  0  0  0  0
  -43.5720   61.3320   63.6119 O   0  0  0  0  0  0  0  0  0  0  0  0
  -42.1803   61.3073   63.3544 C   0  0  0  0  0  0  0  0  0  0  0  0
  -43.7427   61.8449   64.4173 H   0  0  0  0  0  0  0  0  0  0  0  0
  -41.8415   60.5108   62.0922 C   0  0  0  0  0  0  0  0  0  0  0  0
  -41.3525   61.0797   60.9770 C   0  0  0  0  0  0  0  0  0  0  0  0
  -41.0400   60.2155   59.7569 C   0  0  0  0  0  0  0  0  0  0  0  0
  -41.2795   58.7152   59.9799 C   0  0  0  0  0  0  0  0  0  0  0  0
  -40.1388   57.7840   59.5295 C   0  0  0  0  0  0  0  0  0  0  0  0
  -38.9283   58.6040   59.0221 C   0  0  0  0  0  0  0  0  0  0  0  0
  -37.7282   58.6861   59.9991 C   0  0  0  0  0  0  0  0  0  0  0  0
  -37.9170   57.8769   61.3038 C   0  0  0  0  0  0  0  0  0  0  0  0
  -37.3820   58.5975   62.5603 C   0  0  0  0  0  0  0  0  0  0  0  0
  -37.4195   57.7369   63.8289 C   0  0  0  0  0  0  0  0  0  0  0  0
  -36.3366   58.0237   64.8669 C   0  0  0  0  0  0  0  0  0  0  0  0
  -35.1957   58.9219   64.3495 C   0  0  0  0  0  0  0  0  0  0  0  0
  -33.7992   58.5855   64.8940 C   0  0  0  0  0  0  0  0  0  0  0  0
  -32.7860   58.4376   63.7553 C   0  0  0  0  0  0  0  0  0  0  0  0
  -33.1549   59.0895   62.4345 C   0  0  0  0  0  0  0  0  0  0  0  0
  -40.0425   60.4478   64.5856 C   0  0  0  0  0  0  0  0  0  0  0  0
  -39.2616   61.5928   64.1585 O   0  0  0  0  0  0  0  0  0  0  0  0
  -37.2973   61.9704   62.1150 O   0  0  0  0  0  0  0  0  0  0  0  0
  -35.4864   64.3484   65.0244 O   0  0  0  0  0  0  0  0  0  0  0  0
  -37.4676   62.1603   65.6898 O   0  0  0  0  0  0  0  0  0  0  0  0
  -37.8025   61.6487   64.3769 C   0  0  0  0  0  0  0  0  0  0  0  0
  -37.0009   62.4909   63.3741 C   0  0  0  0  0  0  0  0  0  0  0  0
  -35.4724   62.4156   63.5826 C   0  0  0  0  0  0  0  0  0  0  0  0
  -35.2095   62.9514   64.9629 C   0  0  0  0  0  0  0  0  0  0  0  0
  -36.0435   62.1898   65.9771 C   0  0  0  0  0  0  0  0  0  0  0  0
  -38.2550   62.0096   61.9661 H   0  0  0  0  0  0  0  0  0  0  0  0
  -34.9439   64.8148   64.3694 H   0  0  0  0  0  0  0  0  0  0  0  0
  -36.4596   63.9959   67.4865 O   0  0  0  0  0  0  0  0  0  0  0  0
  -35.6429   62.8833   67.2774 C   0  0  0  0  0  0  0  0  0  0  0  0
  -36.2032   64.4345   68.3128 H   0  0  0  0  0  0  0  0  0  0  0  0
  -34.6693   63.2123   62.6824 O   0  0  0  0  0  0  0  0  0  0  0  0
  -35.6757   63.9105   60.3985 O   0  0  0  0  0  0  0  0  0  0  0  0
  -34.2090   65.4418   61.5788 O   0  0  0  0  0  0  0  0  0  0  0  0
  -36.4853   65.1040   62.3391 O   0  0  0  0  0  0  0  0  0  0  0  0
  -35.2938   64.4364   61.7425 S   0  0  0  0  0  0  0  0  0  0  0  0
  -34.9112   63.4716   59.9938 H   0  0  0  0  0  0  0  0  0  0  0  0
  -37.1980   64.4553   62.4495 H   0  0  0  0  0  0  0  0  0  0  0  0
  2  1  1  0  0  0
  2  4  1  0  0  0
  2  5  1  0  0  0
 41 42  1  0  0  0
 41  1  1  0  0  0
 42 46  1  0  0  0
  1 24  1  0  0  0
 23 24  1  0  0  0
 23 25  1  0  0  0
 24 26  1  0  0  0
  3  4  2  0  0  0
 26 27  2  0  0  0
 27 28  1  0  0  0
 43 47  1  0  0  0
 43 51  1  0  0  0
 28 29  1  0  0  0
 56 48  1  0  0  0
 56 60  1  0  0  0
 29 30  1  0  0  0
 57 60  1  0  0  0
 57 61  1  0  0  0
 30 31  1  0  0  0
 44 49  1  0  0  0
 44 52  1  0  0  0
 31 32  1  0  0  0
 45 46  1  0  0  0
 45 50  1  0  0  0
 32 33  1  0  0  0
 53 54  1  0  0  0
 53 55  1  0  0  0
 33 34  1  0  0  0
 34 35  1  0  0  0
 35 36  1  0  0  0
 58 60  1  0  0  0
 36 37  1  0  0  0
 59 60  1  0  0  0
 59 62  1  0  0  0
 37 38  1  0  0  0
 38 39  1  0  0  0
 39 40  1  0  0  0
  4  6  1  0  0  0
  6  7  1  0  0  0
  7  8  1  0  0  0
  8  9  1  0  0  0
  9 10  1  0  0  0
 10 11  1  0  0  0
 11 12  1  0  0  0
 12 13  1  0  0  0
 13 14  1  0  0  0
 14 15  1  0  0  0
 15 16  1  0  0  0
 16 17  1  0  0  0
 17 18  1  0  0  0
 18 19  1  0  0  0
 19 20  1  0  0  0
 20 21  1  0  0  0
 21 22  1  0  0  0
 46 47  1  0  0  0
 47 48  1  0  0  0
 48 49  1  0  0  0
 49 50  1  0  0  0
 50 54  1  0  0  0
M  CHG 1  58  -1
M  END
> <minimizedAffinity>
-9.74393

> <CNNscore>
0.1703165621

> <CNNaffinity>
7.0656280518

> <CNN_VS>
1.2033934593

> <CNNaffinity_variance>
1.5726410151

$$$$
/media/chris/experiments/cd1a-new-docking/inputs/ligands/1onq_ligand.pdb


 62 62  0  0  0  0  0  0  0  0999 V2000
  -39.3369   61.3190   63.8415 C   0  0  0  0  0  0  0  0  0  0  0  0
  -40.1306   60.2898   64.4833 N   0  0  0  0  0  0  0  0  0  0  0  0
  -40.8441   61.3430   66.3620 O   0  0  0  0  0  0  0  0  0  0  0  0
  -40.7987   60.3642   65.6425 C   0  0  0  0  0  0  0  0  0  0  0  0
  -40.1857   59.4291   64.0086 H   0  0  0  0  0  0  0  0  0  0  0  0
  -41.5378   59.1189   66.0335 C   0  0  0  0  0  0  0  0  0  0  0  0
  -42.7597   59.0350   65.1185 C   0  0  0  0  0  0  0  0  0  0  0  0
  -44.0091   58.7346   65.9430 C   0  0  0  0  0  0  0  0  0  0  0  0
  -45.0560   59.8213   65.9808 C   0  0  0  0  0  0  0  0  0  0  0  0
  -45.8479   59.7439   64.6797 C   0  0  0  0  0  0  0  0  0  0  0  0
  -47.3571   59.9219   64.8926 C   0  0  0  0  0  0  0  0  0  0  0  0
  -48.1588   58.6078   64.8645 C   0  0  0  0  0  0  0  0  0  0  0  0
  -49.5670   58.7502   65.4825 C   0  0  0  0  0  0  0  0  0  0  0  0
  -50.2473   60.0296   64.9874 C   0  0  0  0  0  0  0  0  0  0  0  0
  -51.2525   59.8305   63.8594 C   0  0  0  0  0  0  0  0  0  0  0  0
  -50.6293   60.0398   62.4872 C   0  0  0  0  0  0  0  0  0  0  0  0
  -50.4630   58.7848   61.6273 C   0  0  0  0  0  0  0  0  0  0  0  0
  -49.2840   59.0041   60.6888 C   0  0  0  0  0  0  0  0  0  0  0  0
  -49.3881   58.5001   59.2569 C   0  0  0  0  0  0  0  0  0  0  0  0
  -48.6872   57.1412   59.1001 C   0  0  0  0  0  0  0  0  0  0  0  0
  -47.2340   57.2265   58.5982 C   0  0  0  0  0  0  0  0  0  0  0  0
  -47.1112   57.8393   57.2050 C   0  0  0  0  0  0  0  0  0  0  0  0
  -41.3781   61.1974   62.7397 O   0  0  0  0  0  0  0  0  0  0  0  0
  -40.0103   61.4599   62.4872 C   0  0  0  0  0  0  0  0  0  0  0  0
  -41.7246   61.8566   63.3611 H   0  0  0  0  0  0  0  0  0  0  0  0
  -39.4004   60.4519   61.5104 C   0  0  0  0  0  0  0  0  0  0  0  0
  -39.9326   60.1865   60.3051 C   0  0  0  0  0  0  0  0  0  0  0  0
  -39.2640   59.1651   59.3870 C   0  0  0  0  0  0  0  0  0  0  0  0
  -40.1422   57.9462   59.0692 C   0  0  0  0  0  0  0  0  0  0  0  0
  -41.2835   57.6691   60.0652 C   0  0  0  0  0  0  0  0  0  0  0  0
  -41.2763   56.1869   60.5104 C   0  0  0  0  0  0  0  0  0  0  0  0
  -40.9744   55.9481   62.0115 C   0  0  0  0  0  0  0  0  0  0  0  0
  -40.6150   57.2311   62.7973 C   0  0  0  0  0  0  0  0  0  0  0  0
  -39.1405   57.2837   63.2525 C   0  0  0  0  0  0  0  0  0  0  0  0
  -38.1353   57.2581   62.0948 C   0  0  0  0  0  0  0  0  0  0  0  0
  -36.6944   57.6198   62.4486 C   0  0  0  0  0  0  0  0  0  0  0  0
  -36.4498   57.8113   63.9584 C   0  0  0  0  0  0  0  0  0  0  0  0
  -34.9766   57.9523   64.3705 C   0  0  0  0  0  0  0  0  0  0  0  0
  -34.0548   57.8787   63.1499 C   0  0  0  0  0  0  0  0  0  0  0  0
  -32.6272   58.3552   63.3523 C   0  0  0  0  0  0  0  0  0  0  0  0
  -37.8098   61.0800   63.8432 C   0  0  0  0  0  0  0  0  0  0  0  0
  -37.0126   61.9878   64.6453 O   0  0  0  0  0  0  0  0  0  0  0  0
  -34.4439   61.2902   63.6002 O   0  0  0  0  0  0  0  0  0  0  0  0
  -35.5034   64.0014   60.6125 O   0  0  0  0  0  0  0  0  0  0  0  0
  -36.7356   64.0366   63.3760 O   0  0  0  0  0  0  0  0  0  0  0  0
  -36.0615   62.9280   64.0197 C   0  0  0  0  0  0  0  0  0  0  0  0
  -35.1178   62.3326   62.9650 C   0  0  0  0  0  0  0  0  0  0  0  0
  -34.0699   63.3350   62.4334 C   0  0  0  0  0  0  0  0  0  0  0  0
  -34.8449   64.4535   61.7933 C   0  0  0  0  0  0  0  0  0  0  0  0
  -35.8437   65.0204   62.7859 C   0  0  0  0  0  0  0  0  0  0  0  0
  -35.0873   60.6495   63.9412 H   0  0  0  0  0  0  0  0  0  0  0  0
  -34.8480   63.6438   59.9934 H   0  0  0  0  0  0  0  0  0  0  0  0
  -35.5403   66.8822   61.3179 O   0  0  0  0  0  0  0  0  0  0  0  0
  -36.5148   66.1077   61.9495 C   0  0  0  0  0  0  0  0  0  0  0  0
  -35.9690   67.5719   60.7875 H   0  0  0  0  0  0  0  0  0  0  0  0
  -33.1721   62.8348   61.4168 O   0  0  0  0  0  0  0  0  0  0  0  0
  -31.1627   61.3065   60.8307 O   0  0  0  0  0  0  0  0  0  0  0  0
  -31.5255   61.9759   63.1349 O   0  0  0  0  0  0  0  0  0  0  0  0
  -30.6310   63.5585   61.5320 O   0  0  0  0  0  0  0  0  0  0  0  0
  -31.5858   62.4295   61.7188 S   0  0  0  0  0  0  0  0  0  0  0  0
  -31.7737   60.5610   60.9388 H   0  0  0  0  0  0  0  0  0  0  0  0
  -30.6637   63.8607   60.6108 H   0  0  0  0  0  0  0  0  0  0  0  0
  2  1  1  0  0  0
  2  4  1  0  0  0
  2  5  1  0  0  0
 41 42  1  0  0  0
 41  1  1  0  0  0
 42 46  1  0  0  0
  1 24  1  0  0  0
 23 24  1  0  0  0
 23 25  1  0  0  0
 24 26  1  0  0  0
  3  4  2  0  0  0
 26 27  2  0  0  0
 27 28  1  0  0  0
 43 47  1  0  0  0
 43 51  1  0  0  0
 28 29  1  0  0  0
 56 48  1  0  0  0
 56 60  1  0  0  0
 29 30  1  0  0  0
 57 60  1  0  0  0
 57 61  1  0  0  0
 30 31  1  0  0  0
 44 49  1  0  0  0
 44 52  1  0  0  0
 31 32  1  0  0  0
 45 46  1  0  0  0
 45 50  1  0  0  0
 32 33  1  0  0  0
 53 54  1  0  0  0
 53 55  1  0  0  0
 33 34  1  0  0  0
 34 35  1  0  0  0
 35 36  1  0  0  0
 58 60  1  0  0  0
 36 37  1  0  0  0
 59 60  1  0  0  0
 59 62  1  0  0  0
 37 38  1  0  0  0
 38 39  1  0  0  0
 39 40  1  0  0  0
  4  6  1  0  0  0
  6  7  1  0  0  0
  7  8  1  0  0  0
  8  9  1  0  0  0
  9 10  1  0  0  0
 10 11  1  0  0  0
 11 12  1  0  0  0
 12 13  1  0  0  0
 13 14  1  0  0  0
 14 15  1  0  0  0
 15 16  1  0  0  0
 16 17  1  0  0  0
 17 18  1  0  0  0
 18 19  1  0  0  0
 19 20  1  0  0  0
 20 21  1  0  0  0
 21 22  1  0  0  0
 46 47  1  0  0  0
 47 48  1  0  0  0
 48 49  1  0  0  0
 49 50  1  0  0  0
 50 54  1  0  0  0
M  CHG 1  58  -1
M  END
> <minimizedAffinity>
-8.50681

> <CNNscore>
0.1641061306

> <CNNaffinity>
7.1004090309

> <CNN_VS>
1.1652206182

> <CNNaffinity_variance>
1.0483287573

$$$$
/media/chris/experiments/cd1a-new-docking/inputs/ligands/1onq_ligand.pdb


 62 62  0  0  0  0  0  0  0  0999 V2000
  -38.4966   61.3783   62.5423 C   0  0  0  0  0  0  0  0  0  0  0  0
  -39.6321   61.0784   63.3919 N   0  0  0  0  0  0  0  0  0  0  0  0
  -41.3649   61.2122   61.9334 O   0  0  0  0  0  0  0  0  0  0  0  0
  -40.9265   61.0177   63.0505 C   0  0  0  0  0  0  0  0  0  0  0  0
  -39.4268   60.8965   64.3374 H   0  0  0  0  0  0  0  0  0  0  0  0
  -41.8652   60.6715   64.1679 C   0  0  0  0  0  0  0  0  0  0  0  0
  -43.1385   60.1350   63.5136 C   0  0  0  0  0  0  0  0  0  0  0  0
  -44.1056   59.6375   64.5852 C   0  0  0  0  0  0  0  0  0  0  0  0
  -45.5395   59.4536   64.1509 C   0  0  0  0  0  0  0  0  0  0  0  0
  -46.4299   59.8188   65.3340 C   0  0  0  0  0  0  0  0  0  0  0  0
  -47.8672   60.1535   64.9133 C   0  0  0  0  0  0  0  0  0  0  0  0
  -48.8957   60.0713   66.0561 C   0  0  0  0  0  0  0  0  0  0  0  0
  -50.2939   59.6256   65.5746 C   0  0  0  0  0  0  0  0  0  0  0  0
  -50.7168   60.4193   64.3352 C   0  0  0  0  0  0  0  0  0  0  0  0
  -51.3159   59.5858   63.2089 C   0  0  0  0  0  0  0  0  0  0  0  0
  -50.4317   58.4069   62.8301 C   0  0  0  0  0  0  0  0  0  0  0  0
  -50.6546   57.8225   61.4333 C   0  0  0  0  0  0  0  0  0  0  0  0
  -49.9209   58.6999   60.4280 C   0  0  0  0  0  0  0  0  0  0  0  0
  -49.3668   58.0560   59.1657 C   0  0  0  0  0  0  0  0  0  0  0  0
  -48.0077   57.3921   59.4383 C   0  0  0  0  0  0  0  0  0  0  0  0
  -47.2370   56.9721   58.1731 C   0  0  0  0  0  0  0  0  0  0  0  0
  -46.9198   58.1410   57.2432 C   0  0  0  0  0  0  0  0  0  0  0  0
  -36.3580   60.4961   62.7508 O   0  0  0  0  0  0  0  0  0  0  0  0
  -37.7019   60.0844   62.5830 C   0  0  0  0  0  0  0  0  0  0  0  0
  -36.2690   60.9755   63.5893 H   0  0  0  0  0  0  0  0  0  0  0  0
  -37.9115   59.3194   61.2742 C   0  0  0  0  0  0  0  0  0  0  0  0
  -38.6082   59.8178   60.2386 C   0  0  0  0  0  0  0  0  0  0  0  0
  -38.7736   58.9906   58.9651 C   0  0  0  0  0  0  0  0  0  0  0  0
  -39.9752   58.0350   58.9962 C   0  0  0  0  0  0  0  0  0  0  0  0
  -41.1216   58.4362   59.9428 C   0  0  0  0  0  0  0  0  0  0  0  0
  -41.7517   57.1864   60.6031 C   0  0  0  0  0  0  0  0  0  0  0  0
  -40.9886   56.6316   61.8325 C   0  0  0  0  0  0  0  0  0  0  0  0
  -41.8222   56.6022   63.1352 C   0  0  0  0  0  0  0  0  0  0  0  0
  -41.0601   57.1342   64.3682 C   0  0  0  0  0  0  0  0  0  0  0  0
  -39.6165   57.5551   64.0678 C   0  0  0  0  0  0  0  0  0  0  0  0
  -38.9270   58.3995   65.1374 C   0  0  0  0  0  0  0  0  0  0  0  0
  -37.4733   57.9769   65.4276 C   0  0  0  0  0  0  0  0  0  0  0  0
  -36.6971   57.4290   64.2204 C   0  0  0  0  0  0  0  0  0  0  0  0
  -35.1909   57.6471   64.3900 C   0  0  0  0  0  0  0  0  0  0  0  0
  -34.3868   57.8264   63.1145 C   0  0  0  0  0  0  0  0  0  0  0  0
  -37.7353   62.6794   62.8835 C   0  0  0  0  0  0  0  0  0  0  0  0
  -36.7023   63.0893   61.9516 O   0  0  0  0  0  0  0  0  0  0  0  0
  -35.8826   63.4398   64.6687 O   0  0  0  0  0  0  0  0  0  0  0  0
  -32.0692   63.0925   63.0145 O   0  0  0  0  0  0  0  0  0  0  0  0
  -34.4911   63.9218   61.4012 O   0  0  0  0  0  0  0  0  0  0  0  0
  -35.5421   63.8863   62.3972 C   0  0  0  0  0  0  0  0  0  0  0  0
  -34.8751   63.4361   63.7048 C   0  0  0  0  0  0  0  0  0  0  0  0
  -33.7452   64.3755   64.1805 C   0  0  0  0  0  0  0  0  0  0  0  0
  -32.7052   64.3657   63.0944 C   0  0  0  0  0  0  0  0  0  0  0  0
  -33.3441   64.7351   61.7679 C   0  0  0  0  0  0  0  0  0  0  0  0
  -36.6023   62.8540   64.3864 H   0  0  0  0  0  0  0  0  0  0  0  0
  -31.6686   62.8768   63.8711 H   0  0  0  0  0  0  0  0  0  0  0  0
  -31.0570   65.3197   61.3929 O   0  0  0  0  0  0  0  0  0  0  0  0
  -32.1457   64.6562   60.8246 C   0  0  0  0  0  0  0  0  0  0  0  0
  -30.2973   65.2682   60.7919 H   0  0  0  0  0  0  0  0  0  0  0  0
  -33.0632   63.9840   65.3936 O   0  0  0  0  0  0  0  0  0  0  0  0
  -35.0436   64.6966   66.9058 O   0  0  0  0  0  0  0  0  0  0  0  0
  -32.8569   65.6915   67.2490 O   0  0  0  0  0  0  0  0  0  0  0  0
  -33.2878   63.4171   67.9670 O   0  0  0  0  0  0  0  0  0  0  0  0
  -33.5744   64.4316   66.9135 S   0  0  0  0  0  0  0  0  0  0  0  0
  -35.2497   65.3560   66.2250 H   0  0  0  0  0  0  0  0  0  0  0  0
  -33.7520   62.5919   67.7560 H   0  0  0  0  0  0  0  0  0  0  0  0
  2  1  1  0  0  0
  2  4  1  0  0  0
  2  5  1  0  0  0
 41 42  1  0  0  0
 41  1  1  0  0  0
 42 46  1  0  0  0
  1 24  1  0  0  0
 23 24  1  0  0  0
 23 25  1  0  0  0
 24 26  1  0  0  0
  3  4  2  0  0  0
 26 27  2  0  0  0
 27 28  1  0  0  0
 43 47  1  0  0  0
 43 51  1  0  0  0
 28 29  1  0  0  0
 56 48  1  0  0  0
 56 60  1  0  0  0
 29 30  1  0  0  0
 57 60  1  0  0  0
 57 61  1  0  0  0
 30 31  1  0  0  0
 44 49  1  0  0  0
 44 52  1  0  0  0
 31 32  1  0  0  0
 45 46  1  0  0  0
 45 50  1  0  0  0
 32 33  1  0  0  0
 53 54  1  0  0  0
 53 55  1  0  0  0
 33 34  1  0  0  0
 34 35  1  0  0  0
 35 36  1  0  0  0
 58 60  1  0  0  0
 36 37  1  0  0  0
 59 60  1  0  0  0
 59 62  1  0  0  0
 37 38  1  0  0  0
 38 39  1  0  0  0
 39 40  1  0  0  0
  4  6  1  0  0  0
  6  7  1  0  0  0
  7  8  1  0  0  0
  8  9  1  0  0  0
  9 10  1  0  0  0
 10 11  1  0  0  0
 11 12  1  0  0  0
 12 13  1  0  0  0
 13 14  1  0  0  0
 14 15  1  0  0  0
 15 16  1  0  0  0
 16 17  1  0  0  0
 17 18  1  0  0  0
 18 19  1  0  0  0
 19 20  1  0  0  0
 20 21  1  0  0  0
 21 22  1  0  0  0
 46 47  1  0  0  0
 47 48  1  0  0  0
 48 49  1  0  0  0
 49 50  1  0  0  0
 50 54  1  0  0  0
M  CHG 1  58  -1
M  END
> <minimizedAffinity>
-8.86206

> <CNNscore>
0.1538846642

> <CNNaffinity>
6.7290620804

> <CNN_VS>
1.0354994535

> <CNNaffinity_variance>
0.6720143557

$$$$
/media/chris/experiments/cd1a-new-docking/inputs/ligands/1onq_ligand.pdb


 62 62  0  0  0  0  0  0  0  0999 V2000
  -37.9113   59.2766   64.3249 C   0  0  0  0  0  0  0  0  0  0  0  0
  -39.1427   59.1969   65.0854 N   0  0  0  0  0  0  0  0  0  0  0  0
  -39.4086   61.3390   65.7842 O   0  0  0  0  0  0  0  0  0  0  0  0
  -39.7793   60.1824   65.7328 C   0  0  0  0  0  0  0  0  0  0  0  0
  -39.5637   58.3082   65.1321 H   0  0  0  0  0  0  0  0  0  0  0  0
  -41.0467   59.7762   66.4246 C   0  0  0  0  0  0  0  0  0  0  0  0
  -42.0293   60.9334   66.2433 C   0  0  0  0  0  0  0  0  0  0  0  0
  -43.4586   60.4429   66.4617 C   0  0  0  0  0  0  0  0  0  0  0  0
  -44.4522   60.7920   65.3803 C   0  0  0  0  0  0  0  0  0  0  0  0
  -45.5562   59.7402   65.4119 C   0  0  0  0  0  0  0  0  0  0  0  0
  -46.8562   60.2255   64.7568 C   0  0  0  0  0  0  0  0  0  0  0  0
  -48.0800   60.2066   65.6908 C   0  0  0  0  0  0  0  0  0  0  0  0
  -49.3153   59.5379   65.0486 C   0  0  0  0  0  0  0  0  0  0  0  0
  -50.0337   60.5153   64.1139 C   0  0  0  0  0  0  0  0  0  0  0  0
  -51.3064   59.9763   63.4720 C   0  0  0  0  0  0  0  0  0  0  0  0
  -51.0225   58.8667   62.4704 C   0  0  0  0  0  0  0  0  0  0  0  0
  -49.9556   59.1710   61.4163 C   0  0  0  0  0  0  0  0  0  0  0  0
  -49.8362   57.9623   60.4978 C   0  0  0  0  0  0  0  0  0  0  0  0
  -48.4556   57.5545   60.0047 C   0  0  0  0  0  0  0  0  0  0  0  0
  -48.1679   58.1530   58.6186 C   0  0  0  0  0  0  0  0  0  0  0  0
  -47.0169   57.4720   57.8555 C   0  0  0  0  0  0  0  0  0  0  0  0
  -47.4137   56.1366   57.2302 C   0  0  0  0  0  0  0  0  0  0  0  0
  -36.5065   57.5284   63.7198 O   0  0  0  0  0  0  0  0  0  0  0  0
  -37.8623   57.9256   63.6320 C   0  0  0  0  0  0  0  0  0  0  0  0
  -36.2551   57.4406   64.6525 H   0  0  0  0  0  0  0  0  0  0  0  0
  -38.3243   58.0829   62.1814 C   0  0  0  0  0  0  0  0  0  0  0  0
  -37.5669   58.6553   61.2300 C   0  0  0  0  0  0  0  0  0  0  0  0
  -38.1005   58.7760   59.8038 C   0  0  0  0  0  0  0  0  0  0  0  0
  -39.3034   59.7208   59.6680 C   0  0  0  0  0  0  0  0  0  0  0  0
  -40.6725   59.0367   59.4986 C   0  0  0  0  0  0  0  0  0  0  0  0
  -40.5265   57.4966   59.5454 C   0  0  0  0  0  0  0  0  0  0  0  0
  -41.5481   56.7621   60.4501 C   0  0  0  0  0  0  0  0  0  0  0  0
  -40.9058   55.8213   61.4966 C   0  0  0  0  0  0  0  0  0  0  0  0
  -41.6910   55.7464   62.8239 C   0  0  0  0  0  0  0  0  0  0  0  0
  -41.4338   56.9322   63.7616 C   0  0  0  0  0  0  0  0  0  0  0  0
  -42.5992   57.8999   63.9554 C   0  0  0  0  0  0  0  0  0  0  0  0
  -42.7817   58.9001   62.7968 C   0  0  0  0  0  0  0  0  0  0  0  0
  -41.6769   59.9595   62.6661 C   0  0  0  0  0  0  0  0  0  0  0  0
  -42.2691   61.3715   62.6427 C   0  0  0  0  0  0  0  0  0  0  0  0
  -42.4558   62.0028   61.2744 C   0  0  0  0  0  0  0  0  0  0  0  0
  -36.6594   59.6984   65.1273 C   0  0  0  0  0  0  0  0  0  0  0  0
  -35.4971   60.0930   64.3549 O   0  0  0  0  0  0  0  0  0  0  0  0
  -33.2541   61.1084   62.9005 O   0  0  0  0  0  0  0  0  0  0  0  0
  -34.7199   64.7808   64.2287 O   0  0  0  0  0  0  0  0  0  0  0  0
  -35.3485   62.1633   65.6107 O   0  0  0  0  0  0  0  0  0  0  0  0
  -34.6336   61.2097   64.7877 C   0  0  0  0  0  0  0  0  0  0  0  0
  -33.9717   62.0252   63.6678 C   0  0  0  0  0  0  0  0  0  0  0  0
  -32.9900   63.1015   64.1811 C   0  0  0  0  0  0  0  0  0  0  0  0
  -33.8020   64.0406   65.0297 C   0  0  0  0  0  0  0  0  0  0  0  0
  -34.5325   63.2587   66.1064 C   0  0  0  0  0  0  0  0  0  0  0  0
  -33.8556   60.4234   62.5689 H   0  0  0  0  0  0  0  0  0  0  0  0
  -34.2328   65.2717   63.5486 H   0  0  0  0  0  0  0  0  0  0  0  0
  -36.6401   64.3173   66.4950 O   0  0  0  0  0  0  0  0  0  0  0  0
  -35.2858   64.3735   66.8288 C   0  0  0  0  0  0  0  0  0  0  0  0
  -37.1162   65.0262   66.9550 H   0  0  0  0  0  0  0  0  0  0  0  0
  -32.3584   63.9183   63.1693 O   0  0  0  0  0  0  0  0  0  0  0  0
  -34.1645   63.5693   61.3437 O   0  0  0  0  0  0  0  0  0  0  0  0
  -31.9609   62.5963   61.0492 O   0  0  0  0  0  0  0  0  0  0  0  0
  -32.2921   64.9782   60.7472 O   0  0  0  0  0  0  0  0  0  0  0  0
  -32.7015   63.7879   61.5454 S   0  0  0  0  0  0  0  0  0  0  0  0
  -34.4498   62.7971   61.8565 H   0  0  0  0  0  0  0  0  0  0  0  0
  -32.7705   65.7602   61.0643 H   0  0  0  0  0  0  0  0  0  0  0  0
  2  1  1  0  0  0
  2  4  1  0  0  0
  2  5  1  0  0  0
 41 42  1  0  0  0
 41  1  1  0  0  0
 42 46  1  0  0  0
  1 24  1  0  0  0
 23 24  1  0  0  0
 23 25  1  0  0  0
 24 26  1  0  0  0
  3  4  2  0  0  0
 26 27  2  0  0  0
 27 28  1  0  0  0
 43 47  1  0  0  0
 43 51  1  0  0  0
 28 29  1  0  0  0
 56 48  1  0  0  0
 56 60  1  0  0  0
 29 30  1  0  0  0
 57 60  1  0  0  0
 57 61  1  0  0  0
 30 31  1  0  0  0
 44 49  1  0  0  0
 44 52  1  0  0  0
 31 32  1  0  0  0
 45 46  1  0  0  0
 45 50  1  0  0  0
 32 33  1  0  0  0
 53 54  1  0  0  0
 53 55  1  0  0  0
 33 34  1  0  0  0
 34 35  1  0  0  0
 35 36  1  0  0  0
 58 60  1  0  0  0
 36 37  1  0  0  0
 59 60  1  0  0  0
 59 62  1  0  0  0
 37 38  1  0  0  0
 38 39  1  0  0  0
 39 40  1  0  0  0
  4  6  1  0  0  0
  6  7  1  0  0  0
  7  8  1  0  0  0
  8  9  1  0  0  0
  9 10  1  0  0  0
 10 11  1  0  0  0
 11 12  1  0  0  0
 12 13  1  0  0  0
 13 14  1  0  0  0
 14 15  1  0  0  0
 15 16  1  0  0  0
 16 17  1  0  0  0
 17 18  1  0  0  0
 18 19  1  0  0  0
 19 20  1  0  0  0
 20 21  1  0  0  0
 21 22  1  0  0  0
 46 47  1  0  0  0
 47 48  1  0  0  0
 48 49  1  0  0  0
 49 50  1  0  0  0
 50 54  1  0  0  0
M  CHG 1  58  -1
M  END
> <minimizedAffinity>
-9.33565

> <CNNscore>
0.1533853412

> <CNNaffinity>
7.0015144348

> <CNN_VS>
1.0739296675

> <CNNaffinity_variance>
1.6235383749

$$$$
/media/chris/experiments/cd1a-new-docking/inputs/ligands/1onq_ligand.pdb


 62 62  0  0  0  0  0  0  0  0999 V2000
  -41.4755   60.6324   64.6205 C   0  0  0  0  0  0  0  0  0  0  0  0
  -42.1901   59.4230   64.9777 N   0  0  0  0  0  0  0  0  0  0  0  0
  -43.4709   60.1237   66.7145 O   0  0  0  0  0  0  0  0  0  0  0  0
  -43.0952   59.2550   65.9515 C   0  0  0  0  0  0  0  0  0  0  0  0
  -41.9851   58.6257   64.4377 H   0  0  0  0  0  0  0  0  0  0  0  0
  -43.6643   57.8716   66.0614 C   0  0  0  0  0  0  0  0  0  0  0  0
  -44.9904   57.8869   65.3008 C   0  0  0  0  0  0  0  0  0  0  0  0
  -46.1552   57.7708   66.2810 C   0  0  0  0  0  0  0  0  0  0  0  0
  -46.7999   59.0691   66.7019 C   0  0  0  0  0  0  0  0  0  0  0  0
  -46.8618   59.9721   65.4744 C   0  0  0  0  0  0  0  0  0  0  0  0
  -48.2698   60.5241   65.2148 C   0  0  0  0  0  0  0  0  0  0  0  0
  -49.3698   59.8830   66.0805 C   0  0  0  0  0  0  0  0  0  0  0  0
  -50.4936   59.2361   65.2415 C   0  0  0  0  0  0  0  0  0  0  0  0
  -51.0234   60.2222   64.1966 C   0  0  0  0  0  0  0  0  0  0  0  0
  -51.3130   59.6179   62.8279 C   0  0  0  0  0  0  0  0  0  0  0  0
  -50.6231   58.2761   62.6317 C   0  0  0  0  0  0  0  0  0  0  0  0
  -49.3181   58.3029   61.8327 C   0  0  0  0  0  0  0  0  0  0  0  0
  -49.6661   58.4627   60.3588 C   0  0  0  0  0  0  0  0  0  0  0  0
  -48.8817   57.6581   59.3329 C   0  0  0  0  0  0  0  0  0  0  0  0
  -48.0377   58.5808   58.4392 C   0  0  0  0  0  0  0  0  0  0  0  0
  -47.0503   57.8454   57.5144 C   0  0  0  0  0  0  0  0  0  0  0  0
  -47.1833   56.3255   57.5755 C   0  0  0  0  0  0  0  0  0  0  0  0
  -43.6085   60.8974   63.7399 O   0  0  0  0  0  0  0  0  0  0  0  0
  -42.2512   61.1309   63.4133 C   0  0  0  0  0  0  0  0  0  0  0  0
  -43.8438   61.4094   64.5294 H   0  0  0  0  0  0  0  0  0  0  0  0
  -41.8141   60.3497   62.1720 C   0  0  0  0  0  0  0  0  0  0  0  0
  -41.5375   60.9389   60.9961 C   0  0  0  0  0  0  0  0  0  0  0  0
  -41.1079   60.0886   59.8021 C   0  0  0  0  0  0  0  0  0  0  0  0
  -41.2644   58.5776   60.0265 C   0  0  0  0  0  0  0  0  0  0  0  0
  -40.0814   57.7087   59.5613 C   0  0  0  0  0  0  0  0  0  0  0  0
  -39.0747   58.5470   58.7373 C   0  0  0  0  0  0  0  0  0  0  0  0
  -37.7497   58.8917   59.4635 C   0  0  0  0  0  0  0  0  0  0  0  0
  -37.8538   58.8883   61.0068 C   0  0  0  0  0  0  0  0  0  0  0  0
  -36.5952   58.3347   61.7094 C   0  0  0  0  0  0  0  0  0  0  0  0
  -36.8933   57.5984   63.0210 C   0  0  0  0  0  0  0  0  0  0  0  0
  -38.2204   57.9391   63.6955 C   0  0  0  0  0  0  0  0  0  0  0  0
  -39.4515   57.3242   63.0011 C   0  0  0  0  0  0  0  0  0  0  0  0
  -40.5942   56.9095   63.9405 C   0  0  0  0  0  0  0  0  0  0  0  0
  -41.7532   56.2883   63.1557 C   0  0  0  0  0  0  0  0  0  0  0  0
  -41.3752   55.3796   61.9994 C   0  0  0  0  0  0  0  0  0  0  0  0
  -39.9464   60.4782   64.4560 C   0  0  0  0  0  0  0  0  0  0  0  0
  -39.2158   61.6623   64.0469 O   0  0  0  0  0  0  0  0  0  0  0  0
  -37.2517   62.0570   62.0063 O   0  0  0  0  0  0  0  0  0  0  0  0
  -35.5559   64.5851   64.8580 O   0  0  0  0  0  0  0  0  0  0  0  0
  -37.4567   62.3420   65.5730 O   0  0  0  0  0  0  0  0  0  0  0  0
  -37.7616   61.7806   64.2732 C   0  0  0  0  0  0  0  0  0  0  0  0
  -36.9853   62.6242   63.2519 C   0  0  0  0  0  0  0  0  0  0  0  0
  -35.4566   62.6140   63.4725 C   0  0  0  0  0  0  0  0  0  0  0  0
  -35.2251   63.1986   64.8385 C   0  0  0  0  0  0  0  0  0  0  0  0
  -36.0370   62.4346   65.8687 C   0  0  0  0  0  0  0  0  0  0  0  0
  -38.2091   62.0549   61.8501 H   0  0  0  0  0  0  0  0  0  0  0  0
  -35.0267   65.0532   64.1934 H   0  0  0  0  0  0  0  0  0  0  0  0
  -34.2866   63.1907   67.3102 O   0  0  0  0  0  0  0  0  0  0  0  0
  -35.6734   63.1799   67.1511 C   0  0  0  0  0  0  0  0  0  0  0  0
  -34.0582   63.6645   68.1252 H   0  0  0  0  0  0  0  0  0  0  0  0
  -34.6778   63.4151   62.5551 O   0  0  0  0  0  0  0  0  0  0  0  0
  -32.7254   63.6315   60.8646 O   0  0  0  0  0  0  0  0  0  0  0  0
  -32.8945   61.6466   62.2506 O   0  0  0  0  0  0  0  0  0  0  0  0
  -32.1355   63.7403   63.2069 O   0  0  0  0  0  0  0  0  0  0  0  0
  -33.0722   63.1239   62.2251 S   0  0  0  0  0  0  0  0  0  0  0  0
  -33.3257   63.2404   60.2108 H   0  0  0  0  0  0  0  0  0  0  0  0
  -32.2447   64.7041   63.1969 H   0  0  0  0  0  0  0  0  0  0  0  0
  2  1  1  0  0  0
  2  4  1  0  0  0
  2  5  1  0  0  0
 41 42  1  0  0  0
 41  1  1  0  0  0
 42 46  1  0  0  0
  1 24  1  0  0  0
 23 24  1  0  0  0
 23 25  1  0  0  0
 24 26  1  0  0  0
  3  4  2  0  0  0
 26 27  2  0  0  0
 27 28  1  0  0  0
 43 47  1  0  0  0
 43 51  1  0  0  0
 28 29  1  0  0  0
 56 48  1  0  0  0
 56 60  1  0  0  0
 29 30  1  0  0  0
 57 60  1  0  0  0
 57 61  1  0  0  0
 30 31  1  0  0  0
 44 49  1  0  0  0
 44 52  1  0  0  0
 31 32  1  0  0  0
 45 46  1  0  0  0
 45 50  1  0  0  0
 32 33  1  0  0  0
 53 54  1  0  0  0
 53 55  1  0  0  0
 33 34  1  0  0  0
 34 35  1  0  0  0
 35 36  1  0  0  0
 58 60  1  0  0  0
 36 37  1  0  0  0
 59 60  1  0  0  0
 59 62  1  0  0  0
 37 38  1  0  0  0
 38 39  1  0  0  0
 39 40  1  0  0  0
  4  6  1  0  0  0
  6  7  1  0  0  0
  7  8  1  0  0  0
  8  9  1  0  0  0
  9 10  1  0  0  0
 10 11  1  0  0  0
 11 12  1  0  0  0
 12 13  1  0  0  0
 13 14  1  0  0  0
 14 15  1  0  0  0
 15 16  1  0  0  0
 16 17  1  0  0  0
 17 18  1  0  0  0
 18 19  1  0  0  0
 19 20  1  0  0  0
 20 21  1  0  0  0
 21 22  1  0  0  0
 46 47  1  0  0  0
 47 48  1  0  0  0
 48 49  1  0  0  0
 49 50  1  0  0  0
 50 54  1  0  0  0
M  CHG 1  58  -1
M  END
> <minimizedAffinity>
-9.32733

> <CNNscore>
0.1526214480

> <CNNaffinity>
7.1705384254

> <CNN_VS>
1.0943779945

> <CNNaffinity_variance>
1.1396588087

$$$$
/media/chris/experiments/cd1a-new-docking/inputs/ligands/1onq_ligand.pdb


 62 62  0  0  0  0  0  0  0  0999 V2000
  -40.5865   60.0387   63.5823 C   0  0  0  0  0  0  0  0  0  0  0  0
  -42.0290   60.1719   63.6341 N   0  0  0  0  0  0  0  0  0  0  0  0
  -42.2932   61.9270   65.0473 O   0  0  0  0  0  0  0  0  0  0  0  0
  -42.7523   61.0616   64.3276 C   0  0  0  0  0  0  0  0  0  0  0  0
  -42.5409   59.5286   63.0925 H   0  0  0  0  0  0  0  0  0  0  0  0
  -44.2384   60.9428   64.1620 C   0  0  0  0  0  0  0  0  0  0  0  0
  -44.7615   60.2569   65.4242 C   0  0  0  0  0  0  0  0  0  0  0  0
  -46.2481   59.9451   65.2702 C   0  0  0  0  0  0  0  0  0  0  0  0
  -46.7071   58.6151   65.8171 C   0  0  0  0  0  0  0  0  0  0  0  0
  -48.1666   58.4304   65.4152 C   0  0  0  0  0  0  0  0  0  0  0  0
  -49.0359   59.6460   65.7635 C   0  0  0  0  0  0  0  0  0  0  0  0
  -50.5224   59.4865   65.3954 C   0  0  0  0  0  0  0  0  0  0  0  0
  -50.9778   60.4709   64.2959 C   0  0  0  0  0  0  0  0  0  0  0  0
  -51.5090   59.7112   63.0771 C   0  0  0  0  0  0  0  0  0  0  0  0
  -50.7114   58.4709   62.6922 C   0  0  0  0  0  0  0  0  0  0  0  0
  -49.4151   58.8178   61.9750 C   0  0  0  0  0  0  0  0  0  0  0  0
  -49.5632   59.4382   60.5839 C   0  0  0  0  0  0  0  0  0  0  0  0
  -50.1665   58.3909   59.6577 C   0  0  0  0  0  0  0  0  0  0  0  0
  -49.2464   57.6455   58.7021 C   0  0  0  0  0  0  0  0  0  0  0  0
  -47.9416   58.4253   58.4748 C   0  0  0  0  0  0  0  0  0  0  0  0
  -47.0740   57.8949   57.3186 C   0  0  0  0  0  0  0  0  0  0  0  0
  -47.1533   56.3793   57.1501 C   0  0  0  0  0  0  0  0  0  0  0  0
  -39.7933   60.6999   65.6630 O   0  0  0  0  0  0  0  0  0  0  0  0
  -40.2491   59.5473   64.9795 C   0  0  0  0  0  0  0  0  0  0  0  0
  -40.5050   61.3580   65.6974 H   0  0  0  0  0  0  0  0  0  0  0  0
  -39.1700   58.4657   64.8896 C   0  0  0  0  0  0  0  0  0  0  0  0
  -37.9238   58.6339   65.3639 C   0  0  0  0  0  0  0  0  0  0  0  0
  -36.9025   57.5054   65.2349 C   0  0  0  0  0  0  0  0  0  0  0  0
  -35.7364   57.8273   64.2890 C   0  0  0  0  0  0  0  0  0  0  0  0
  -35.9386   57.4180   62.8184 C   0  0  0  0  0  0  0  0  0  0  0  0
  -36.6753   58.5310   62.0348 C   0  0  0  0  0  0  0  0  0  0  0  0
  -37.8821   58.0555   61.1868 C   0  0  0  0  0  0  0  0  0  0  0  0
  -38.2495   59.0032   60.0207 C   0  0  0  0  0  0  0  0  0  0  0  0
  -39.2612   58.3945   59.0257 C   0  0  0  0  0  0  0  0  0  0  0  0
  -40.7040   58.3770   59.5449 C   0  0  0  0  0  0  0  0  0  0  0  0
  -41.1918   57.0524   60.1277 C   0  0  0  0  0  0  0  0  0  0  0  0
  -41.4947   57.1069   61.6381 C   0  0  0  0  0  0  0  0  0  0  0  0
  -41.2852   55.7872   62.3961 C   0  0  0  0  0  0  0  0  0  0  0  0
  -41.5740   55.9593   63.8901 C   0  0  0  0  0  0  0  0  0  0  0  0
  -42.7587   56.8376   64.2519 C   0  0  0  0  0  0  0  0  0  0  0  0
  -39.8212   61.2810   63.0726 C   0  0  0  0  0  0  0  0  0  0  0  0
  -38.3734   61.1950   63.0714 O   0  0  0  0  0  0  0  0  0  0  0  0
  -36.7808   61.5541   65.4191 O   0  0  0  0  0  0  0  0  0  0  0  0
  -34.0784   63.1975   62.6997 O   0  0  0  0  0  0  0  0  0  0  0  0
  -37.0488   63.0090   62.1547 O   0  0  0  0  0  0  0  0  0  0  0  0
  -37.5364   62.3759   63.3627 C   0  0  0  0  0  0  0  0  0  0  0  0
  -36.3024   62.1289   64.2423 C   0  0  0  0  0  0  0  0  0  0  0  0
  -35.5342   63.4176   64.6094 C   0  0  0  0  0  0  0  0  0  0  0  0
  -35.0729   64.0167   63.3095 C   0  0  0  0  0  0  0  0  0  0  0  0
  -36.2593   64.2076   62.3821 C   0  0  0  0  0  0  0  0  0  0  0  0
  -37.2671   60.7419   65.2077 H   0  0  0  0  0  0  0  0  0  0  0  0
  -33.3310   63.0888   63.3084 H   0  0  0  0  0  0  0  0  0  0  0  0
  -35.4305   63.8120   60.1752 O   0  0  0  0  0  0  0  0  0  0  0  0
  -35.5838   64.8015   61.1479 C   0  0  0  0  0  0  0  0  0  0  0  0
  -35.0013   64.1917   59.3926 H   0  0  0  0  0  0  0  0  0  0  0  0
  -34.3464   63.2406   65.4143 O   0  0  0  0  0  0  0  0  0  0  0  0
  -35.3639   64.5051   67.4349 O   0  0  0  0  0  0  0  0  0  0  0  0
  -33.2804   65.2816   66.4625 O   0  0  0  0  0  0  0  0  0  0  0  0
  -33.3127   63.2933   67.8481 O   0  0  0  0  0  0  0  0  0  0  0  0
  -34.0694   64.0741   66.8286 S   0  0  0  0  0  0  0  0  0  0  0  0
  -35.8712   65.0158   66.7848 H   0  0  0  0  0  0  0  0  0  0  0  0
  -33.8202   62.5037   68.0927 H   0  0  0  0  0  0  0  0  0  0  0  0
  2  1  1  0  0  0
  2  4  1  0  0  0
  2  5  1  0  0  0
 41 42  1  0  0  0
 41  1  1  0  0  0
 42 46  1  0  0  0
  1 24  1  0  0  0
 23 24  1  0  0  0
 23 25  1  0  0  0
 24 26  1  0  0  0
  3  4  2  0  0  0
 26 27  2  0  0  0
 27 28  1  0  0  0
 43 47  1  0  0  0
 43 51  1  0  0  0
 28 29  1  0  0  0
 56 48  1  0  0  0
 56 60  1  0  0  0
 29 30  1  0  0  0
 57 60  1  0  0  0
 57 61  1  0  0  0
 30 31  1  0  0  0
 44 49  1  0  0  0
 44 52  1  0  0  0
 31 32  1  0  0  0
 45 46  1  0  0  0
 45 50  1  0  0  0
 32 33  1  0  0  0
 53 54  1  0  0  0
 53 55  1  0  0  0
 33 34  1  0  0  0
 34 35  1  0  0  0
 35 36  1  0  0  0
 58 60  1  0  0  0
 36 37  1  0  0  0
 59 60  1  0  0  0
 59 62  1  0  0  0
 37 38  1  0  0  0
 38 39  1  0  0  0
 39 40  1  0  0  0
  4  6  1  0  0  0
  6  7  1  0  0  0
  7  8  1  0  0  0
  8  9  1  0  0  0
  9 10  1  0  0  0
 10 11  1  0  0  0
 11 12  1  0  0  0
 12 13  1  0  0  0
 13 14  1  0  0  0
 14 15  1  0  0  0
 15 16  1  0  0  0
 16 17  1  0  0  0
 17 18  1  0  0  0
 18 19  1  0  0  0
 19 20  1  0  0  0
 20 21  1  0  0  0
 21 22  1  0  0  0
 46 47  1  0  0  0
 47 48  1  0  0  0
 48 49  1  0  0  0
 49 50  1  0  0  0
 50 54  1  0  0  0
M  CHG 1  58  -1
M  END
> <minimizedAffinity>
-10.07191

> <CNNscore>
0.1505770832

> <CNNaffinity>
7.0710740089

> <CNN_VS>
1.0647417307

> <CNNaffinity_variance>
1.1060249805

$$$$
