/media/chris/experiments/cd1a-new-docking/inputs/ligands/1onq_ligand.pdb


 62 62  0  0  0  0  0  0  0  0999 V2000
  -35.9898   61.2513   65.1052 C   0  0  0  0  0  0  0  0  0  0  0  0
  -37.1947   60.5661   65.5294 N   0  0  0  0  0  0  0  0  0  0  0  0
  -38.7983   61.6471   64.3431 O   0  0  0  0  0  0  0  0  0  0  0  0
  -38.4564   60.7962   65.1412 C   0  0  0  0  0  0  0  0  0  0  0  0
  -37.0707   59.8416   66.1844 H   0  0  0  0  0  0  0  0  0  0  0  0
  -39.4880   59.9021   65.7626 C   0  0  0  0  0  0  0  0  0  0  0  0
  -40.7552   60.7436   65.9156 C   0  0  0  0  0  0  0  0  0  0  0  0
  -41.9437   59.8421   66.2409 C   0  0  0  0  0  0  0  0  0  0  0  0
  -43.3030   60.4975   66.2042 C   0  0  0  0  0  0  0  0  0  0  0  0
  -44.3106   59.4437   65.7568 C   0  0  0  0  0  0  0  0  0  0  0  0
  -45.7569   59.8210   66.1040 C   0  0  0  0  0  0  0  0  0  0  0  0
  -46.8141   58.8464   65.5534 C   0  0  0  0  0  0  0  0  0  0  0  0
  -47.8740   59.5448   64.6735 C   0  0  0  0  0  0  0  0  0  0  0  0
  -48.8480   58.5197   64.0854 C   0  0  0  0  0  0  0  0  0  0  0  0
  -50.2918   58.9937   63.9711 C   0  0  0  0  0  0  0  0  0  0  0  0
  -50.8846   58.7128   62.5983 C   0  0  0  0  0  0  0  0  0  0  0  0
  -49.9347   58.8806   61.4100 C   0  0  0  0  0  0  0  0  0  0  0  0
  -50.3977   57.9514   60.2961 C   0  0  0  0  0  0  0  0  0  0  0  0
  -49.5084   57.7784   59.0737 C   0  0  0  0  0  0  0  0  0  0  0  0
  -48.3734   56.7813   59.3561 C   0  0  0  0  0  0  0  0  0  0  0  0
  -47.1234   56.9710   58.4771 C   0  0  0  0  0  0  0  0  0  0  0  0
  -47.2588   58.1131   57.4727 C   0  0  0  0  0  0  0  0  0  0  0  0
  -34.0128   60.6354   64.0529 O   0  0  0  0  0  0  0  0  0  0  0  0
  -35.0111   60.1068   64.9058 C   0  0  0  0  0  0  0  0  0  0  0  0
  -33.5762   61.3829   64.4905 H   0  0  0  0  0  0  0  0  0  0  0  0
  -35.7411   58.9199   64.2729 C   0  0  0  0  0  0  0  0  0  0  0  0
  -35.8766   58.7678   62.9445 C   0  0  0  0  0  0  0  0  0  0  0  0
  -36.6208   57.5546   62.3900 C   0  0  0  0  0  0  0  0  0  0  0  0
  -37.8364   57.9137   61.5231 C   0  0  0  0  0  0  0  0  0  0  0  0
  -38.0427   59.4158   61.2541 C   0  0  0  0  0  0  0  0  0  0  0  0
  -38.8139   59.6360   59.9304 C   0  0  0  0  0  0  0  0  0  0  0  0
  -39.4669   58.3670   59.3262 C   0  0  0  0  0  0  0  0  0  0  0  0
  -41.0136   58.3825   59.3403 C   0  0  0  0  0  0  0  0  0  0  0  0
  -41.6351   57.2401   60.1725 C   0  0  0  0  0  0  0  0  0  0  0  0
  -41.0624   57.1263   61.5903 C   0  0  0  0  0  0  0  0  0  0  0  0
  -42.0145   57.4833   62.7298 C   0  0  0  0  0  0  0  0  0  0  0  0
  -42.5606   58.9231   62.6613 C   0  0  0  0  0  0  0  0  0  0  0  0
  -41.4942   60.0233   62.5504 C   0  0  0  0  0  0  0  0  0  0  0  0
  -42.1283   61.4144   62.6369 C   0  0  0  0  0  0  0  0  0  0  0  0
  -42.5348   62.0541   61.3211 C   0  0  0  0  0  0  0  0  0  0  0  0
  -35.5314   62.4153   66.0128 C   0  0  0  0  0  0  0  0  0  0  0  0
  -34.9659   63.5727   65.3466 O   0  0  0  0  0  0  0  0  0  0  0  0
  -33.6927   63.0331   62.8435 O   0  0  0  0  0  0  0  0  0  0  0  0
  -31.3825   66.3412   63.9009 O   0  0  0  0  0  0  0  0  0  0  0  0
  -32.8804   64.6671   65.9281 O   0  0  0  0  0  0  0  0  0  0  0  0
  -33.5160   63.6740   65.0870 C   0  0  0  0  0  0  0  0  0  0  0  0
  -33.1097   64.0133   63.6456 C   0  0  0  0  0  0  0  0  0  0  0  0
  -31.5837   63.9890   63.4091 C   0  0  0  0  0  0  0  0  0  0  0  0
  -31.0004   65.0334   64.3203 C   0  0  0  0  0  0  0  0  0  0  0  0
  -31.4422   64.7734   65.7491 C   0  0  0  0  0  0  0  0  0  0  0  0
  -34.6532   63.0336   62.9791 H   0  0  0  0  0  0  0  0  0  0  0  0
  -31.0909   66.4857   62.9871 H   0  0  0  0  0  0  0  0  0  0  0  0
  -31.5493   66.3107   67.5763 O   0  0  0  0  0  0  0  0  0  0  0  0
  -30.7647   65.9255   66.4879 C   0  0  0  0  0  0  0  0  0  0  0  0
  -31.1170   67.0424   68.0437 H   0  0  0  0  0  0  0  0  0  0  0  0
  -31.1430   64.3285   62.0748 O   0  0  0  0  0  0  0  0  0  0  0  0
  -33.1927   64.2817   60.4893 O   0  0  0  0  0  0  0  0  0  0  0  0
  -31.2059   65.5152   59.8412 O   0  0  0  0  0  0  0  0  0  0  0  0
  -32.6930   66.4029   61.5368 O   0  0  0  0  0  0  0  0  0  0  0  0
  -32.0893   65.1572   60.9840 S   0  0  0  0  0  0  0  0  0  0  0  0
  -32.8183   63.4643   60.1251 H   0  0  0  0  0  0  0  0  0  0  0  0
  -33.2709   66.1786   62.2828 H   0  0  0  0  0  0  0  0  0  0  0  0
  2  1  1  0  0  0
  2  4  1  0  0  0
  2  5  1  0  0  0
 41 42  1  0  0  0
 41  1  1  0  0  0
 42 46  1  0  0  0
  1 24  1  0  0  0
 23 24  1  0  0  0
 23 25  1  0  0  0
 24 26  1  0  0  0
  3  4  2  0  0  0
 26 27  2  0  0  0
 27 28  1  0  0  0
 43 47  1  0  0  0
 43 51  1  0  0  0
 28 29  1  0  0  0
 56 48  1  0  0  0
 56 60  1  0  0  0
 29 30  1  0  0  0
 57 60  1  0  0  0
 57 61  1  0  0  0
 30 31  1  0  0  0
 44 49  1  0  0  0
 44 52  1  0  0  0
 31 32  1  0  0  0
 45 46  1  0  0  0
 45 50  1  0  0  0
 32 33  1  0  0  0
 53 54  1  0  0  0
 53 55  1  0  0  0
 33 34  1  0  0  0
 34 35  1  0  0  0
 35 36  1  0  0  0
 58 60  1  0  0  0
 36 37  1  0  0  0
 59 60  1  0  0  0
 59 62  1  0  0  0
 37 38  1  0  0  0
 38 39  1  0  0  0
 39 40  1  0  0  0
  4  6  1  0  0  0
  6  7  1  0  0  0
  7  8  1  0  0  0
  8  9  1  0  0  0
  9 10  1  0  0  0
 10 11  1  0  0  0
 11 12  1  0  0  0
 12 13  1  0  0  0
 13 14  1  0  0  0
 14 15  1  0  0  0
 15 16  1  0  0  0
 16 17  1  0  0  0
 17 18  1  0  0  0
 18 19  1  0  0  0
 19 20  1  0  0  0
 20 21  1  0  0  0
 21 22  1  0  0  0
 46 47  1  0  0  0
 47 48  1  0  0  0
 48 49  1  0  0  0
 49 50  1  0  0  0
 50 54  1  0  0  0
M  CHG 1  58  -1
M  END
> <minimizedAffinity>
-8.20904

> <CNNscore>
0.2962048054

> <CNNaffinity>
6.9370889664

> <CNN_VS>
2.0547990799

> <CNNaffinity_variance>
0.9886673093

$$$$
/media/chris/experiments/cd1a-new-docking/inputs/ligands/1onq_ligand.pdb


 62 62  0  0  0  0  0  0  0  0999 V2000
  -41.7234   59.9658   65.0149 C   0  0  0  0  0  0  0  0  0  0  0  0
  -41.7308   58.5966   64.5391 N   0  0  0  0  0  0  0  0  0  0  0  0
  -42.8823   57.5307   66.1778 O   0  0  0  0  0  0  0  0  0  0  0  0
  -42.2813   57.5225   65.1211 C   0  0  0  0  0  0  0  0  0  0  0  0
  -41.2745   58.4358   63.6817 H   0  0  0  0  0  0  0  0  0  0  0  0
  -42.1227   56.2363   64.3657 C   0  0  0  0  0  0  0  0  0  0  0  0
  -41.0997   56.5055   63.2620 C   0  0  0  0  0  0  0  0  0  0  0  0
  -41.3557   55.5784   62.0763 C   0  0  0  0  0  0  0  0  0  0  0  0
  -41.4202   56.2382   60.7202 C   0  0  0  0  0  0  0  0  0  0  0  0
  -41.8403   57.6888   60.9331 C   0  0  0  0  0  0  0  0  0  0  0  0
  -41.1242   58.6590   59.9840 C   0  0  0  0  0  0  0  0  0  0  0  0
  -39.9299   58.0425   59.2327 C   0  0  0  0  0  0  0  0  0  0  0  0
  -38.7024   58.9787   59.1857 C   0  0  0  0  0  0  0  0  0  0  0  0
  -37.7202   58.6382   60.3103 C   0  0  0  0  0  0  0  0  0  0  0  0
  -38.2374   57.6381   61.3373 C   0  0  0  0  0  0  0  0  0  0  0  0
  -37.3318   57.5419   62.5561 C   0  0  0  0  0  0  0  0  0  0  0  0
  -37.9408   58.0022   63.8827 C   0  0  0  0  0  0  0  0  0  0  0  0
  -36.8742   57.8825   64.9627 C   0  0  0  0  0  0  0  0  0  0  0  0
  -35.4375   57.6106   64.5419 C   0  0  0  0  0  0  0  0  0  0  0  0
  -34.5952   58.8949   64.5994 C   0  0  0  0  0  0  0  0  0  0  0  0
  -33.0773   58.6589   64.7061 C   0  0  0  0  0  0  0  0  0  0  0  0
  -32.3793   58.5933   63.3496 C   0  0  0  0  0  0  0  0  0  0  0  0
  -42.2732   62.0761   64.2149 O   0  0  0  0  0  0  0  0  0  0  0  0
  -42.4475   60.7063   63.9036 C   0  0  0  0  0  0  0  0  0  0  0  0
  -41.3276   62.2919   64.2063 H   0  0  0  0  0  0  0  0  0  0  0  0
  -43.9227   60.2987   63.9003 C   0  0  0  0  0  0  0  0  0  0  0  0
  -44.8672   60.9633   64.5877 C   0  0  0  0  0  0  0  0  0  0  0  0
  -46.3194   60.4926   64.5339 C   0  0  0  0  0  0  0  0  0  0  0  0
  -46.5143   59.0284   64.9536 C   0  0  0  0  0  0  0  0  0  0  0  0
  -47.9739   58.5418   65.0170 C   0  0  0  0  0  0  0  0  0  0  0  0
  -48.8560   59.5503   65.7918 C   0  0  0  0  0  0  0  0  0  0  0  0
  -50.3846   59.3571   65.6246 C   0  0  0  0  0  0  0  0  0  0  0  0
  -51.0432   60.3451   64.6332 C   0  0  0  0  0  0  0  0  0  0  0  0
  -51.1949   59.7779   63.2051 C   0  0  0  0  0  0  0  0  0  0  0  0
  -50.0461   60.1588   62.2637 C   0  0  0  0  0  0  0  0  0  0  0  0
  -49.3721   59.0042   61.5253 C   0  0  0  0  0  0  0  0  0  0  0  0
  -49.3113   59.1897   59.9963 C   0  0  0  0  0  0  0  0  0  0  0  0
  -49.7621   57.9750   59.1709 C   0  0  0  0  0  0  0  0  0  0  0  0
  -48.7098   57.6011   58.1231 C   0  0  0  0  0  0  0  0  0  0  0  0
  -47.3502   57.1801   58.6522 C   0  0  0  0  0  0  0  0  0  0  0  0
  -40.3427   60.5156   65.4395 C   0  0  0  0  0  0  0  0  0  0  0  0
  -39.5434   61.1337   64.3993 O   0  0  0  0  0  0  0  0  0  0  0  0
  -37.6693   61.5423   62.2783 O   0  0  0  0  0  0  0  0  0  0  0  0
  -36.0296   64.2857   64.9585 O   0  0  0  0  0  0  0  0  0  0  0  0
  -37.7783   61.9769   65.8341 O   0  0  0  0  0  0  0  0  0  0  0  0
  -38.0917   61.3414   64.5710 C   0  0  0  0  0  0  0  0  0  0  0  0
  -37.3962   62.1791   63.4883 C   0  0  0  0  0  0  0  0  0  0  0  0
  -35.8634   62.2623   63.6575 C   0  0  0  0  0  0  0  0  0  0  0  0
  -35.6223   62.9200   64.9881 C   0  0  0  0  0  0  0  0  0  0  0  0
  -36.3574   62.1602   66.0774 C   0  0  0  0  0  0  0  0  0  0  0  0
  -38.6295   61.4810   62.1548 H   0  0  0  0  0  0  0  0  0  0  0  0
  -35.5484   64.7515   64.2568 H   0  0  0  0  0  0  0  0  0  0  0  0
  -34.6128   63.1608   67.3692 O   0  0  0  0  0  0  0  0  0  0  0  0
  -35.9961   62.9814   67.3132 C   0  0  0  0  0  0  0  0  0  0  0  0
  -34.3859   63.6825   68.1548 H   0  0  0  0  0  0  0  0  0  0  0  0
  -35.1598   63.0624   62.6804 O   0  0  0  0  0  0  0  0  0  0  0  0
  -33.1321   64.4738   63.4634 O   0  0  0  0  0  0  0  0  0  0  0  0
  -33.1013   63.4527   61.2622 O   0  0  0  0  0  0  0  0  0  0  0  0
  -32.7632   62.0946   63.2410 O   0  0  0  0  0  0  0  0  0  0  0  0
  -33.5065   63.2588   62.6809 S   0  0  0  0  0  0  0  0  0  0  0  0
  -33.6071   65.2434   63.1127 H   0  0  0  0  0  0  0  0  0  0  0  0
  -33.0214   61.9609   64.1663 H   0  0  0  0  0  0  0  0  0  0  0  0
  2  1  1  0  0  0
  2  4  1  0  0  0
  2  5  1  0  0  0
 41 42  1  0  0  0
 41  1  1  0  0  0
 42 46  1  0  0  0
  1 24  1  0  0  0
 23 24  1  0  0  0
 23 25  1  0  0  0
 24 26  1  0  0  0
  3  4  2  0  0  0
 26 27  2  0  0  0
 27 28  1  0  0  0
 43 47  1  0  0  0
 43 51  1  0  0  0
 28 29  1  0  0  0
 56 48  1  0  0  0
 56 60  1  0  0  0
 29 30  1  0  0  0
 57 60  1  0  0  0
 57 61  1  0  0  0
 30 31  1  0  0  0
 44 49  1  0  0  0
 44 52  1  0  0  0
 31 32  1  0  0  0
 45 46  1  0  0  0
 45 50  1  0  0  0
 32 33  1  0  0  0
 53 54  1  0  0  0
 53 55  1  0  0  0
 33 34  1  0  0  0
 34 35  1  0  0  0
 35 36  1  0  0  0
 58 60  1  0  0  0
 36 37  1  0  0  0
 59 60  1  0  0  0
 59 62  1  0  0  0
 37 38  1  0  0  0
 38 39  1  0  0  0
 39 40  1  0  0  0
  4  6  1  0  0  0
  6  7  1  0  0  0
  7  8  1  0  0  0
  8  9  1  0  0  0
  9 10  1  0  0  0
 10 11  1  0  0  0
 11 12  1  0  0  0
 12 13  1  0  0  0
 13 14  1  0  0  0
 14 15  1  0  0  0
 15 16  1  0  0  0
 16 17  1  0  0  0
 17 18  1  0  0  0
 18 19  1  0  0  0
 19 20  1  0  0  0
 20 21  1  0  0  0
 21 22  1  0  0  0
 46 47  1  0  0  0
 47 48  1  0  0  0
 48 49  1  0  0  0
 49 50  1  0  0  0
 50 54  1  0  0  0
M  CHG 1  58  -1
M  END
> <minimizedAffinity>
-9.89238

> <CNNscore>
0.2825875282

> <CNNaffinity>
7.1386198997

> <CNN_VS>
2.0172848701

> <CNNaffinity_variance>
2.1286695004

$$$$
/media/chris/experiments/cd1a-new-docking/inputs/ligands/1onq_ligand.pdb


 62 62  0  0  0  0  0  0  0  0999 V2000
  -41.4993   60.5180   64.7426 C   0  0  0  0  0  0  0  0  0  0  0  0
  -42.2115   59.2562   64.7866 N   0  0  0  0  0  0  0  0  0  0  0  0
  -41.8744   58.5954   66.9308 O   0  0  0  0  0  0  0  0  0  0  0  0
  -42.3463   58.4192   65.8244 C   0  0  0  0  0  0  0  0  0  0  0  0
  -42.6508   58.9798   63.9501 H   0  0  0  0  0  0  0  0  0  0  0  0
  -43.1582   57.1883   65.5495 C   0  0  0  0  0  0  0  0  0  0  0  0
  -44.5318   57.6707   65.0828 C   0  0  0  0  0  0  0  0  0  0  0  0
  -45.3589   58.1282   66.2817 C   0  0  0  0  0  0  0  0  0  0  0  0
  -45.9047   59.5339   66.2135 C   0  0  0  0  0  0  0  0  0  0  0  0
  -46.9677   59.5629   65.1203 C   0  0  0  0  0  0  0  0  0  0  0  0
  -48.1288   58.5983   65.3963 C   0  0  0  0  0  0  0  0  0  0  0  0
  -49.4430   59.2905   65.8017 C   0  0  0  0  0  0  0  0  0  0  0  0
  -49.7953   60.4890   64.8934 C   0  0  0  0  0  0  0  0  0  0  0  0
  -51.2066   60.3347   64.3192 C   0  0  0  0  0  0  0  0  0  0  0  0
  -51.2653   59.9931   62.8353 C   0  0  0  0  0  0  0  0  0  0  0  0
  -50.8979   58.5421   62.5620 C   0  0  0  0  0  0  0  0  0  0  0  0
  -49.5125   58.3030   61.9570 C   0  0  0  0  0  0  0  0  0  0  0  0
  -49.4990   58.8910   60.5525 C   0  0  0  0  0  0  0  0  0  0  0  0
  -50.1920   58.1259   59.4348 C   0  0  0  0  0  0  0  0  0  0  0  0
  -49.1837   57.6885   58.3605 C   0  0  0  0  0  0  0  0  0  0  0  0
  -47.8597   58.4746   58.3695 C   0  0  0  0  0  0  0  0  0  0  0  0
  -46.9178   58.0847   57.2327 C   0  0  0  0  0  0  0  0  0  0  0  0
  -43.4479   61.3494   63.7902 O   0  0  0  0  0  0  0  0  0  0  0  0
  -42.0729   61.1786   63.5008 C   0  0  0  0  0  0  0  0  0  0  0  0
  -43.5465   61.9310   64.5602 H   0  0  0  0  0  0  0  0  0  0  0  0
  -41.8468   60.2680   62.2918 C   0  0  0  0  0  0  0  0  0  0  0  0
  -41.0720   60.6140   61.2495 C   0  0  0  0  0  0  0  0  0  0  0  0
  -40.8970   59.6487   60.0786 C   0  0  0  0  0  0  0  0  0  0  0  0
  -39.5078   59.7071   59.4270 C   0  0  0  0  0  0  0  0  0  0  0  0
  -38.5190   58.6114   59.8661 C   0  0  0  0  0  0  0  0  0  0  0  0
  -39.1746   57.6606   60.8964 C   0  0  0  0  0  0  0  0  0  0  0  0
  -38.2399   57.1671   62.0298 C   0  0  0  0  0  0  0  0  0  0  0  0
  -37.2173   58.2228   62.5122 C   0  0  0  0  0  0  0  0  0  0  0  0
  -36.8040   58.0521   63.9900 C   0  0  0  0  0  0  0  0  0  0  0  0
  -35.2911   57.9116   64.1962 C   0  0  0  0  0  0  0  0  0  0  0  0
  -34.4263   58.0615   62.9463 C   0  0  0  0  0  0  0  0  0  0  0  0
  -32.9120   57.9661   63.2179 C   0  0  0  0  0  0  0  0  0  0  0  0
  -32.1826   59.3126   63.3399 C   0  0  0  0  0  0  0  0  0  0  0  0
  -32.2483   60.0947   62.0250 C   0  0  0  0  0  0  0  0  0  0  0  0
  -30.9471   60.7079   61.5385 C   0  0  0  0  0  0  0  0  0  0  0  0
  -39.9597   60.4169   64.8348 C   0  0  0  0  0  0  0  0  0  0  0  0
  -39.2011   61.4708   64.1890 O   0  0  0  0  0  0  0  0  0  0  0  0
  -37.1661   61.7737   62.2029 O   0  0  0  0  0  0  0  0  0  0  0  0
  -35.6714   64.5713   64.9118 O   0  0  0  0  0  0  0  0  0  0  0  0
  -37.5298   62.3263   65.7253 O   0  0  0  0  0  0  0  0  0  0  0  0
  -37.7621   61.6560   64.4626 C   0  0  0  0  0  0  0  0  0  0  0  0
  -36.9700   62.4443   63.4096 C   0  0  0  0  0  0  0  0  0  0  0  0
  -35.4526   62.5035   63.6906 C   0  0  0  0  0  0  0  0  0  0  0  0
  -35.2970   63.1997   65.0144 C   0  0  0  0  0  0  0  0  0  0  0  0
  -36.1274   62.4902   66.0687 C   0  0  0  0  0  0  0  0  0  0  0  0
  -38.1156   61.7268   62.0097 H   0  0  0  0  0  0  0  0  0  0  0  0
  -35.1294   65.0045   64.2339 H   0  0  0  0  0  0  0  0  0  0  0  0
  -36.2690   62.6715   68.4478 O   0  0  0  0  0  0  0  0  0  0  0  0
  -35.8413   63.3443   67.3019 C   0  0  0  0  0  0  0  0  0  0  0  0
  -36.0863   63.2160   69.2295 H   0  0  0  0  0  0  0  0  0  0  0  0
  -34.6612   63.2576   62.7446 O   0  0  0  0  0  0  0  0  0  0  0  0
  -36.5803   64.9540   62.3493 O   0  0  0  0  0  0  0  0  0  0  0  0
  -35.5530   63.8450   60.4510 O   0  0  0  0  0  0  0  0  0  0  0  0
  -34.3811   65.6267   61.6027 O   0  0  0  0  0  0  0  0  0  0  0  0
  -35.2914   64.4599   61.7806 S   0  0  0  0  0  0  0  0  0  0  0  0
  -37.1868   64.2072   62.4723 H   0  0  0  0  0  0  0  0  0  0  0  0
  -34.2051   66.0339   62.4652 H   0  0  0  0  0  0  0  0  0  0  0  0
  2  1  1  0  0  0
  2  4  1  0  0  0
  2  5  1  0  0  0
 41 42  1  0  0  0
 41  1  1  0  0  0
 42 46  1  0  0  0
  1 24  1  0  0  0
 23 24  1  0  0  0
 23 25  1  0  0  0
 24 26  1  0  0  0
  3  4  2  0  0  0
 26 27  2  0  0  0
 27 28  1  0  0  0
 43 47  1  0  0  0
 43 51  1  0  0  0
 28 29  1  0  0  0
 56 48  1  0  0  0
 56 60  1  0  0  0
 29 30  1  0  0  0
 57 60  1  0  0  0
 57 61  1  0  0  0
 30 31  1  0  0  0
 44 49  1  0  0  0
 44 52  1  0  0  0
 31 32  1  0  0  0
 45 46  1  0  0  0
 45 50  1  0  0  0
 32 33  1  0  0  0
 53 54  1  0  0  0
 53 55  1  0  0  0
 33 34  1  0  0  0
 34 35  1  0  0  0
 35 36  1  0  0  0
 58 60  1  0  0  0
 36 37  1  0  0  0
 59 60  1  0  0  0
 59 62  1  0  0  0
 37 38  1  0  0  0
 38 39  1  0  0  0
 39 40  1  0  0  0
  4  6  1  0  0  0
  6  7  1  0  0  0
  7  8  1  0  0  0
  8  9  1  0  0  0
  9 10  1  0  0  0
 10 11  1  0  0  0
 11 12  1  0  0  0
 12 13  1  0  0  0
 13 14  1  0  0  0
 14 15  1  0  0  0
 15 16  1  0  0  0
 16 17  1  0  0  0
 17 18  1  0  0  0
 18 19  1  0  0  0
 19 20  1  0  0  0
 20 21  1  0  0  0
 21 22  1  0  0  0
 46 47  1  0  0  0
 47 48  1  0  0  0
 48 49  1  0  0  0
 49 50  1  0  0  0
 50 54  1  0  0  0
M  CHG 1  58  -1
M  END
> <minimizedAffinity>
-9.56049

> <CNNscore>
0.2518782914

> <CNNaffinity>
7.0891847610

> <CNN_VS>
1.7856117487

> <CNNaffinity_variance>
1.3826332092

$$$$
/media/chris/experiments/cd1a-new-docking/inputs/ligands/1onq_ligand.pdb


 62 62  0  0  0  0  0  0  0  0999 V2000
  -41.6364   60.0692   65.7053 C   0  0  0  0  0  0  0  0  0  0  0  0
  -41.8343   59.8407   64.2876 N   0  0  0  0  0  0  0  0  0  0  0  0
  -41.4870   61.9083   63.4205 O   0  0  0  0  0  0  0  0  0  0  0  0
  -41.7512   60.7291   63.2879 C   0  0  0  0  0  0  0  0  0  0  0  0
  -42.0575   58.9180   64.0268 H   0  0  0  0  0  0  0  0  0  0  0  0
  -42.0043   60.1731   61.9180 C   0  0  0  0  0  0  0  0  0  0  0  0
  -41.6885   61.2958   60.9296 C   0  0  0  0  0  0  0  0  0  0  0  0
  -41.0050   60.7228   59.6905 C   0  0  0  0  0  0  0  0  0  0  0  0
  -39.8518   59.7824   59.9441 C   0  0  0  0  0  0  0  0  0  0  0  0
  -40.1323   58.4928   59.1799 C   0  0  0  0  0  0  0  0  0  0  0  0
  -41.1688   57.6028   59.8788 C   0  0  0  0  0  0  0  0  0  0  0  0
  -40.5645   56.5688   60.8464 C   0  0  0  0  0  0  0  0  0  0  0  0
  -40.6809   56.9925   62.3271 C   0  0  0  0  0  0  0  0  0  0  0  0
  -39.3471   57.5465   62.8366 C   0  0  0  0  0  0  0  0  0  0  0  0
  -38.1357   57.2016   61.9788 C   0  0  0  0  0  0  0  0  0  0  0  0
  -36.8818   57.9367   62.4286 C   0  0  0  0  0  0  0  0  0  0  0  0
  -36.4785   57.7423   63.8922 C   0  0  0  0  0  0  0  0  0  0  0  0
  -35.0256   58.1711   64.0461 C   0  0  0  0  0  0  0  0  0  0  0  0
  -34.0696   57.9385   62.8856 C   0  0  0  0  0  0  0  0  0  0  0  0
  -32.6721   58.4929   63.2048 C   0  0  0  0  0  0  0  0  0  0  0  0
  -32.2901   59.7566   62.4122 C   0  0  0  0  0  0  0  0  0  0  0  0
  -30.8209   60.1438   62.5640 C   0  0  0  0  0  0  0  0  0  0  0  0
  -42.5968   61.3268   67.4058 O   0  0  0  0  0  0  0  0  0  0  0  0
  -42.8481   60.9062   66.0779 C   0  0  0  0  0  0  0  0  0  0  0  0
  -41.7916   61.8672   67.4269 H   0  0  0  0  0  0  0  0  0  0  0  0
  -44.1097   60.0459   65.9744 C   0  0  0  0  0  0  0  0  0  0  0  0
  -45.1279   60.3365   65.1467 C   0  0  0  0  0  0  0  0  0  0  0  0
  -46.3547   59.4276   65.1022 C   0  0  0  0  0  0  0  0  0  0  0  0
  -47.2396   59.5159   66.3541 C   0  0  0  0  0  0  0  0  0  0  0  0
  -48.6618   60.0612   66.1279 C   0  0  0  0  0  0  0  0  0  0  0  0
  -48.9575   60.2145   64.6165 C   0  0  0  0  0  0  0  0  0  0  0  0
  -50.3639   60.7656   64.2700 C   0  0  0  0  0  0  0  0  0  0  0  0
  -51.1121   59.9556   63.1851 C   0  0  0  0  0  0  0  0  0  0  0  0
  -50.5108   58.5556   62.9352 C   0  0  0  0  0  0  0  0  0  0  0  0
  -51.0653   57.8589   61.6869 C   0  0  0  0  0  0  0  0  0  0  0  0
  -50.0467   57.5126   60.6028 C   0  0  0  0  0  0  0  0  0  0  0  0
  -49.5414   58.7318   59.8065 C   0  0  0  0  0  0  0  0  0  0  0  0
  -48.4224   58.4360   58.7964 C   0  0  0  0  0  0  0  0  0  0  0  0
  -47.6435   57.1781   59.1914 C   0  0  0  0  0  0  0  0  0  0  0  0
  -47.1116   56.3276   58.0516 C   0  0  0  0  0  0  0  0  0  0  0  0
  -40.2507   60.6265   66.1027 C   0  0  0  0  0  0  0  0  0  0  0  0
  -39.0952   59.9359   65.5633 O   0  0  0  0  0  0  0  0  0  0  0  0
  -38.5340   61.0029   62.9702 O   0  0  0  0  0  0  0  0  0  0  0  0
  -36.9734   64.1728   65.1872 O   0  0  0  0  0  0  0  0  0  0  0  0
  -37.2981   61.3829   66.3127 O   0  0  0  0  0  0  0  0  0  0  0  0
  -37.8702   60.6703   65.1892 C   0  0  0  0  0  0  0  0  0  0  0  0
  -38.0184   61.7015   64.0612 C   0  0  0  0  0  0  0  0  0  0  0  0
  -36.6836   62.3506   63.6347 C   0  0  0  0  0  0  0  0  0  0  0  0
  -36.1521   63.0573   64.8510 C   0  0  0  0  0  0  0  0  0  0  0  0
  -36.0611   62.0836   66.0120 C   0  0  0  0  0  0  0  0  0  0  0  0
  -39.3743   60.5876   63.2200 H   0  0  0  0  0  0  0  0  0  0  0  0
  -37.0176   64.7808   64.4327 H   0  0  0  0  0  0  0  0  0  0  0  0
  -36.3472   62.8923   68.2431 O   0  0  0  0  0  0  0  0  0  0  0  0
  -35.5232   62.9864   67.1201 C   0  0  0  0  0  0  0  0  0  0  0  0
  -36.0036   63.4665   68.9453 H   0  0  0  0  0  0  0  0  0  0  0  0
  -36.7684   63.3504   62.5940 O   0  0  0  0  0  0  0  0  0  0  0  0
  -35.5650   63.9676   60.3832 O   0  0  0  0  0  0  0  0  0  0  0  0
  -34.2613   63.2102   62.2847 O   0  0  0  0  0  0  0  0  0  0  0  0
  -35.1924   65.4477   62.2585 O   0  0  0  0  0  0  0  0  0  0  0  0
  -35.4321   64.0291   61.8689 S   0  0  0  0  0  0  0  0  0  0  0  0
  -35.7217   63.0501   60.1103 H   0  0  0  0  0  0  0  0  0  0  0  0
  -35.9514   65.9892   61.9910 H   0  0  0  0  0  0  0  0  0  0  0  0
  2  1  1  0  0  0
  2  4  1  0  0  0
  2  5  1  0  0  0
 41 42  1  0  0  0
 41  1  1  0  0  0
 42 46  1  0  0  0
  1 24  1  0  0  0
 23 24  1  0  0  0
 23 25  1  0  0  0
 24 26  1  0  0  0
  3  4  2  0  0  0
 26 27  2  0  0  0
 27 28  1  0  0  0
 43 47  1  0  0  0
 43 51  1  0  0  0
 28 29  1  0  0  0
 56 48  1  0  0  0
 56 60  1  0  0  0
 29 30  1  0  0  0
 57 60  1  0  0  0
 57 61  1  0  0  0
 30 31  1  0  0  0
 44 49  1  0  0  0
 44 52  1  0  0  0
 31 32  1  0  0  0
 45 46  1  0  0  0
 45 50  1  0  0  0
 32 33  1  0  0  0
 53 54  1  0  0  0
 53 55  1  0  0  0
 33 34  1  0  0  0
 34 35  1  0  0  0
 35 36  1  0  0  0
 58 60  1  0  0  0
 36 37  1  0  0  0
 59 60  1  0  0  0
 59 62  1  0  0  0
 37 38  1  0  0  0
 38 39  1  0  0  0
 39 40  1  0  0  0
  4  6  1  0  0  0
  6  7  1  0  0  0
  7  8  1  0  0  0
  8  9  1  0  0  0
  9 10  1  0  0  0
 10 11  1  0  0  0
 11 12  1  0  0  0
 12 13  1  0  0  0
 13 14  1  0  0  0
 14 15  1  0  0  0
 15 16  1  0  0  0
 16 17  1  0  0  0
 17 18  1  0  0  0
 18 19  1  0  0  0
 19 20  1  0  0  0
 20 21  1  0  0  0
 21 22  1  0  0  0
 46 47  1  0  0  0
 47 48  1  0  0  0
 48 49  1  0  0  0
 49 50  1  0  0  0
 50 54  1  0  0  0
M  CHG 1  58  -1
M  END
> <minimizedAffinity>
-9.58336

> <CNNscore>
0.2282548249

> <CNNaffinity>
7.1513051987

> <CNN_VS>
1.6323199272

> <CNNaffinity_variance>
1.7115424871

$$$$
/media/chris/experiments/cd1a-new-docking/inputs/ligands/1onq_ligand.pdb


 62 62  0  0  0  0  0  0  0  0999 V2000
  -41.1280   59.8640   64.1119 C   0  0  0  0  0  0  0  0  0  0  0  0
  -42.4253   60.4749   64.3236 N   0  0  0  0  0  0  0  0  0  0  0  0
  -42.8432   61.4147   62.3013 O   0  0  0  0  0  0  0  0  0  0  0  0
  -43.1615   61.1750   63.4498 C   0  0  0  0  0  0  0  0  0  0  0  0
  -42.8138   60.3616   65.2210 H   0  0  0  0  0  0  0  0  0  0  0  0
  -44.4750   61.6720   63.9767 C   0  0  0  0  0  0  0  0  0  0  0  0
  -45.1202   60.4962   64.7105 C   0  0  0  0  0  0  0  0  0  0  0  0
  -46.6355   60.5357   64.5279 C   0  0  0  0  0  0  0  0  0  0  0  0
  -47.3159   59.2014   64.3399 C   0  0  0  0  0  0  0  0  0  0  0  0
  -47.9836   58.8345   65.6611 C   0  0  0  0  0  0  0  0  0  0  0  0
  -49.1521   59.7646   66.0134 C   0  0  0  0  0  0  0  0  0  0  0  0
  -50.4834   59.3918   65.3357 C   0  0  0  0  0  0  0  0  0  0  0  0
  -51.0069   60.4969   64.3922 C   0  0  0  0  0  0  0  0  0  0  0  0
  -51.2583   59.9352   62.9898 C   0  0  0  0  0  0  0  0  0  0  0  0
  -50.8265   58.4878   62.7879 C   0  0  0  0  0  0  0  0  0  0  0  0
  -49.6017   58.3703   61.8929 C   0  0  0  0  0  0  0  0  0  0  0  0
  -49.6946   59.0674   60.5335 C   0  0  0  0  0  0  0  0  0  0  0  0
  -49.8684   57.9995   59.4622 C   0  0  0  0  0  0  0  0  0  0  0  0
  -49.0138   56.7430   59.5394 C   0  0  0  0  0  0  0  0  0  0  0  0
  -47.5370   57.0644   59.2598 C   0  0  0  0  0  0  0  0  0  0  0  0
  -47.1438   57.0168   57.7718 C   0  0  0  0  0  0  0  0  0  0  0  0
  -46.9380   58.3991   57.1567 C   0  0  0  0  0  0  0  0  0  0  0  0
  -40.2493   57.9461   65.0843 O   0  0  0  0  0  0  0  0  0  0  0  0
  -41.4021   58.3975   64.3981 C   0  0  0  0  0  0  0  0  0  0  0  0
  -40.1517   58.4410   65.9128 H   0  0  0  0  0  0  0  0  0  0  0  0
  -41.6149   57.6544   63.0771 C   0  0  0  0  0  0  0  0  0  0  0  0
  -40.9692   56.5179   62.7644 C   0  0  0  0  0  0  0  0  0  0  0  0
  -41.2362   55.8360   61.4238 C   0  0  0  0  0  0  0  0  0  0  0  0
  -41.7699   56.7836   60.3397 C   0  0  0  0  0  0  0  0  0  0  0  0
  -40.7002   57.4892   59.4858 C   0  0  0  0  0  0  0  0  0  0  0  0
  -40.8078   59.0264   59.6303 C   0  0  0  0  0  0  0  0  0  0  0  0
  -39.4962   59.7464   60.0339 C   0  0  0  0  0  0  0  0  0  0  0  0
  -38.2085   58.9923   59.6265 C   0  0  0  0  0  0  0  0  0  0  0  0
  -37.3627   58.5202   60.8290 C   0  0  0  0  0  0  0  0  0  0  0  0
  -38.1461   58.4482   62.1451 C   0  0  0  0  0  0  0  0  0  0  0  0
  -37.3497   58.0272   63.3784 C   0  0  0  0  0  0  0  0  0  0  0  0
  -35.9330   58.6309   63.4446 C   0  0  0  0  0  0  0  0  0  0  0  0
  -34.7918   57.6105   63.5726 C   0  0  0  0  0  0  0  0  0  0  0  0
  -33.5870   58.0236   62.7224 C   0  0  0  0  0  0  0  0  0  0  0  0
  -32.4226   58.6562   63.4639 C   0  0  0  0  0  0  0  0  0  0  0  0
  -39.9520   60.5183   64.8720 C   0  0  0  0  0  0  0  0  0  0  0  0
  -39.2137   61.5458   64.1632 O   0  0  0  0  0  0  0  0  0  0  0  0
  -37.2937   61.8853   62.0714 O   0  0  0  0  0  0  0  0  0  0  0  0
  -35.6268   64.6081   64.7559 O   0  0  0  0  0  0  0  0  0  0  0  0
  -37.4513   62.3546   65.6210 O   0  0  0  0  0  0  0  0  0  0  0  0
  -37.7601   61.7163   64.3581 C   0  0  0  0  0  0  0  0  0  0  0  0
  -37.0242   62.5254   63.2804 C   0  0  0  0  0  0  0  0  0  0  0  0
  -35.4928   62.5693   63.4752 C   0  0  0  0  0  0  0  0  0  0  0  0
  -35.2567   63.2323   64.8042 C   0  0  0  0  0  0  0  0  0  0  0  0
  -36.0303   62.5022   65.8871 C   0  0  0  0  0  0  0  0  0  0  0  0
  -38.2529   61.8485   61.9319 H   0  0  0  0  0  0  0  0  0  0  0  0
  -35.1215   65.0545   64.0586 H   0  0  0  0  0  0  0  0  0  0  0  0
  -36.2863   62.7775   68.2476 O   0  0  0  0  0  0  0  0  0  0  0  0
  -35.6681   63.3245   67.1219 C   0  0  0  0  0  0  0  0  0  0  0  0
  -36.0547   63.3015   69.0304 H   0  0  0  0  0  0  0  0  0  0  0  0
  -34.7516   63.3416   62.5036 O   0  0  0  0  0  0  0  0  0  0  0  0
  -32.7067   63.8478   60.9939 O   0  0  0  0  0  0  0  0  0  0  0  0
  -32.8459   61.7164   62.1458 O   0  0  0  0  0  0  0  0  0  0  0  0
  -32.2837   63.7303   63.3716 O   0  0  0  0  0  0  0  0  0  0  0  0
  -33.1124   63.1757   62.2637 S   0  0  0  0  0  0  0  0  0  0  0  0
  -33.2364   63.4989   60.2599 H   0  0  0  0  0  0  0  0  0  0  0  0
  -32.4513   64.6820   63.4555 H   0  0  0  0  0  0  0  0  0  0  0  0
  2  1  1  0  0  0
  2  4  1  0  0  0
  2  5  1  0  0  0
 41 42  1  0  0  0
 41  1  1  0  0  0
 42 46  1  0  0  0
  1 24  1  0  0  0
 23 24  1  0  0  0
 23 25  1  0  0  0
 24 26  1  0  0  0
  3  4  2  0  0  0
 26 27  2  0  0  0
 27 28  1  0  0  0
 43 47  1  0  0  0
 43 51  1  0  0  0
 28 29  1  0  0  0
 56 48  1  0  0  0
 56 60  1  0  0  0
 29 30  1  0  0  0
 57 60  1  0  0  0
 57 61  1  0  0  0
 30 31  1  0  0  0
 44 49  1  0  0  0
 44 52  1  0  0  0
 31 32  1  0  0  0
 45 46  1  0  0  0
 45 50  1  0  0  0
 32 33  1  0  0  0
 53 54  1  0  0  0
 53 55  1  0  0  0
 33 34  1  0  0  0
 34 35  1  0  0  0
 35 36  1  0  0  0
 58 60  1  0  0  0
 36 37  1  0  0  0
 59 60  1  0  0  0
 59 62  1  0  0  0
 37 38  1  0  0  0
 38 39  1  0  0  0
 39 40  1  0  0  0
  4  6  1  0  0  0
  6  7  1  0  0  0
  7  8  1  0  0  0
  8  9  1  0  0  0
  9 10  1  0  0  0
 10 11  1  0  0  0
 11 12  1  0  0  0
 12 13  1  0  0  0
 13 14  1  0  0  0
 14 15  1  0  0  0
 15 16  1  0  0  0
 16 17  1  0  0  0
 17 18  1  0  0  0
 18 19  1  0  0  0
 19 20  1  0  0  0
 20 21  1  0  0  0
 21 22  1  0  0  0
 46 47  1  0  0  0
 47 48  1  0  0  0
 48 49  1  0  0  0
 49 50  1  0  0  0
 50 54  1  0  0  0
M  CHG 1  58  -1
M  END
> <minimizedAffinity>
-9.74683

> <CNNscore>
0.2038131207

> <CNNaffinity>
7.0812044144

> <CNN_VS>
1.4432423115

> <CNNaffinity_variance>
1.6753151417

$$$$
/media/chris/experiments/cd1a-new-docking/inputs/ligands/1onq_ligand.pdb


 62 62  0  0  0  0  0  0  0  0999 V2000
  -39.6349   60.3093   64.0426 C   0  0  0  0  0  0  0  0  0  0  0  0
  -40.9474   60.9135   63.9274 N   0  0  0  0  0  0  0  0  0  0  0  0
  -41.1998   61.0756   61.6786 O   0  0  0  0  0  0  0  0  0  0  0  0
  -41.6113   61.2410   62.8104 C   0  0  0  0  0  0  0  0  0  0  0  0
  -41.4086   61.1075   64.7753 H   0  0  0  0  0  0  0  0  0  0  0  0
  -42.9656   61.8478   63.0282 C   0  0  0  0  0  0  0  0  0  0  0  0
  -43.4868   61.2813   64.3491 C   0  0  0  0  0  0  0  0  0  0  0  0
  -45.0133   61.2555   64.3393 C   0  0  0  0  0  0  0  0  0  0  0  0
  -45.6560   59.9188   64.6195 C   0  0  0  0  0  0  0  0  0  0  0  0
  -45.9857   59.8689   66.1077 C   0  0  0  0  0  0  0  0  0  0  0  0
  -47.4121   59.3744   66.3829 C   0  0  0  0  0  0  0  0  0  0  0  0
  -48.5103   60.1808   65.6657 C   0  0  0  0  0  0  0  0  0  0  0  0
  -49.6529   59.2921   65.1273 C   0  0  0  0  0  0  0  0  0  0  0  0
  -50.7603   60.1513   64.5104 C   0  0  0  0  0  0  0  0  0  0  0  0
  -51.3124   59.6382   63.1859 C   0  0  0  0  0  0  0  0  0  0  0  0
  -50.2206   59.0901   62.2790 C   0  0  0  0  0  0  0  0  0  0  0  0
  -49.7977   59.9921   61.1171 C   0  0  0  0  0  0  0  0  0  0  0  0
  -49.2344   59.1102   60.0110 C   0  0  0  0  0  0  0  0  0  0  0  0
  -48.7517   57.7120   60.3675 C   0  0  0  0  0  0  0  0  0  0  0  0
  -47.8635   57.1361   59.2532 C   0  0  0  0  0  0  0  0  0  0  0  0
  -48.1621   57.6904   57.8480 C   0  0  0  0  0  0  0  0  0  0  0  0
  -46.9739   58.4143   57.2190 C   0  0  0  0  0  0  0  0  0  0  0  0
  -38.5212   59.0855   65.6728 O   0  0  0  0  0  0  0  0  0  0  0  0
  -39.8262   59.3156   65.1755 C   0  0  0  0  0  0  0  0  0  0  0  0
  -38.1522   59.9170   66.0096 H   0  0  0  0  0  0  0  0  0  0  0  0
  -40.4677   58.0389   64.6269 C   0  0  0  0  0  0  0  0  0  0  0  0
  -41.7589   57.7242   64.8271 C   0  0  0  0  0  0  0  0  0  0  0  0
  -42.3247   56.4294   64.2469 C   0  0  0  0  0  0  0  0  0  0  0  0
  -41.2798   55.5589   63.5339 C   0  0  0  0  0  0  0  0  0  0  0  0
  -41.4222   55.4657   62.0035 C   0  0  0  0  0  0  0  0  0  0  0  0
  -40.6784   56.6327   61.3104 C   0  0  0  0  0  0  0  0  0  0  0  0
  -41.5803   57.7934   60.8194 C   0  0  0  0  0  0  0  0  0  0  0  0
  -41.2072   58.3372   59.4202 C   0  0  0  0  0  0  0  0  0  0  0  0
  -39.7033   58.2171   59.0918 C   0  0  0  0  0  0  0  0  0  0  0  0
  -38.8888   59.4625   59.4614 C   0  0  0  0  0  0  0  0  0  0  0  0
  -38.2540   59.4618   60.8505 C   0  0  0  0  0  0  0  0  0  0  0  0
  -37.2581   58.3086   61.0829 C   0  0  0  0  0  0  0  0  0  0  0  0
  -37.2574   57.7200   62.5019 C   0  0  0  0  0  0  0  0  0  0  0  0
  -35.8284   57.5431   63.0231 C   0  0  0  0  0  0  0  0  0  0  0  0
  -35.6506   57.5772   64.5307 C   0  0  0  0  0  0  0  0  0  0  0  0
  -38.4551   61.2996   64.1710 C   0  0  0  0  0  0  0  0  0  0  0  0
  -37.1307   60.7663   63.9166 O   0  0  0  0  0  0  0  0  0  0  0  0
  -34.4654   60.6900   62.8831 O   0  0  0  0  0  0  0  0  0  0  0  0
  -34.3000   64.5450   64.4675 O   0  0  0  0  0  0  0  0  0  0  0  0
  -36.2678   62.4566   65.4277 O   0  0  0  0  0  0  0  0  0  0  0  0
  -35.9391   61.3246   64.5863 C   0  0  0  0  0  0  0  0  0  0  0  0
  -34.8039   61.7938   63.6650 C   0  0  0  0  0  0  0  0  0  0  0  0
  -33.5407   62.2567   64.4232 C   0  0  0  0  0  0  0  0  0  0  0  0
  -33.9651   63.4201   65.2764 C   0  0  0  0  0  0  0  0  0  0  0  0
  -35.1378   63.0149   66.1510 C   0  0  0  0  0  0  0  0  0  0  0  0
  -35.2483   60.3848   62.3985 H   0  0  0  0  0  0  0  0  0  0  0  0
  -33.5380   64.7864   63.9179 H   0  0  0  0  0  0  0  0  0  0  0  0
  -36.4251   64.1048   67.8447 O   0  0  0  0  0  0  0  0  0  0  0  0
  -35.4102   64.3124   66.9089 C   0  0  0  0  0  0  0  0  0  0  0  0
  -36.5962   64.9302   68.3246 H   0  0  0  0  0  0  0  0  0  0  0  0
  -32.4494   62.7356   63.6049 O   0  0  0  0  0  0  0  0  0  0  0  0
  -32.3719   64.9682   62.2910 O   0  0  0  0  0  0  0  0  0  0  0  0
  -34.1080   63.3468   61.7949 O   0  0  0  0  0  0  0  0  0  0  0  0
  -31.8353   62.9679   61.0429 O   0  0  0  0  0  0  0  0  0  0  0  0
  -32.6723   63.5126   62.1494 S   0  0  0  0  0  0  0  0  0  0  0  0
  -32.9085   65.3408   63.0079 H   0  0  0  0  0  0  0  0  0  0  0  0
  -30.8970   63.0721   61.2659 H   0  0  0  0  0  0  0  0  0  0  0  0
  2  1  1  0  0  0
  2  4  1  0  0  0
  2  5  1  0  0  0
 41 42  1  0  0  0
 41  1  1  0  0  0
 42 46  1  0  0  0
  1 24  1  0  0  0
 23 24  1  0  0  0
 23 25  1  0  0  0
 24 26  1  0  0  0
  3  4  2  0  0  0
 26 27  2  0  0  0
 27 28  1  0  0  0
 43 47  1  0  0  0
 43 51  1  0  0  0
 28 29  1  0  0  0
 56 48  1  0  0  0
 56 60  1  0  0  0
 29 30  1  0  0  0
 57 60  1  0  0  0
 57 61  1  0  0  0
 30 31  1  0  0  0
 44 49  1  0  0  0
 44 52  1  0  0  0
 31 32  1  0  0  0
 45 46  1  0  0  0
 45 50  1  0  0  0
 32 33  1  0  0  0
 53 54  1  0  0  0
 53 55  1  0  0  0
 33 34  1  0  0  0
 34 35  1  0  0  0
 35 36  1  0  0  0
 58 60  1  0  0  0
 36 37  1  0  0  0
 59 60  1  0  0  0
 59 62  1  0  0  0
 37 38  1  0  0  0
 38 39  1  0  0  0
 39 40  1  0  0  0
  4  6  1  0  0  0
  6  7  1  0  0  0
  7  8  1  0  0  0
  8  9  1  0  0  0
  9 10  1  0  0  0
 10 11  1  0  0  0
 11 12  1  0  0  0
 12 13  1  0  0  0
 13 14  1  0  0  0
 14 15  1  0  0  0
 15 16  1  0  0  0
 16 17  1  0  0  0
 17 18  1  0  0  0
 18 19  1  0  0  0
 19 20  1  0  0  0
 20 21  1  0  0  0
 21 22  1  0  0  0
 46 47  1  0  0  0
 47 48  1  0  0  0
 48 49  1  0  0  0
 49 50  1  0  0  0
 50 54  1  0  0  0
M  CHG 1  58  -1
M  END
> <minimizedAffinity>
-9.33335

> <CNNscore>
0.1994574368

> <CNNaffinity>
7.1487951279

> <CNN_VS>
1.4258803129

> <CNNaffinity_variance>
1.1078935862

$$$$
/media/chris/experiments/cd1a-new-docking/inputs/ligands/1onq_ligand.pdb


 62 62  0  0  0  0  0  0  0  0999 V2000
  -39.5018   60.5154   64.0344 C   0  0  0  0  0  0  0  0  0  0  0  0
  -40.8827   60.9160   63.8510 N   0  0  0  0  0  0  0  0  0  0  0  0
  -41.0556   61.0033   61.5905 O   0  0  0  0  0  0  0  0  0  0  0  0
  -41.5371   61.1236   62.7002 C   0  0  0  0  0  0  0  0  0  0  0  0
  -41.4049   61.0527   64.6743 H   0  0  0  0  0  0  0  0  0  0  0  0
  -42.9746   61.5257   62.8476 C   0  0  0  0  0  0  0  0  0  0  0  0
  -43.3375   61.3060   64.3164 C   0  0  0  0  0  0  0  0  0  0  0  0
  -44.8327   61.0264   64.4479 C   0  0  0  0  0  0  0  0  0  0  0  0
  -45.2109   59.6316   64.8840 C   0  0  0  0  0  0  0  0  0  0  0  0
  -46.3914   59.7527   65.8419 C   0  0  0  0  0  0  0  0  0  0  0  0
  -47.7465   59.6693   65.1267 C   0  0  0  0  0  0  0  0  0  0  0  0
  -48.9598   59.9275   66.0388 C   0  0  0  0  0  0  0  0  0  0  0  0
  -50.2924   59.4635   65.4109 C   0  0  0  0  0  0  0  0  0  0  0  0
  -50.7889   60.4839   64.3825 C   0  0  0  0  0  0  0  0  0  0  0  0
  -51.5475   59.8917   63.2009 C   0  0  0  0  0  0  0  0  0  0  0  0
  -50.7378   58.8330   62.4672 C   0  0  0  0  0  0  0  0  0  0  0  0
  -49.4111   59.3010   61.8644 C   0  0  0  0  0  0  0  0  0  0  0  0
  -49.6282   59.5597   60.3797 C   0  0  0  0  0  0  0  0  0  0  0  0
  -49.7553   58.3678   59.4426 C   0  0  0  0  0  0  0  0  0  0  0  0
  -48.4581   57.5438   59.4219 C   0  0  0  0  0  0  0  0  0  0  0  0
  -47.9103   57.2505   58.0130 C   0  0  0  0  0  0  0  0  0  0  0  0
  -47.0983   58.4040   57.4284 C   0  0  0  0  0  0  0  0  0  0  0  0
  -38.3615   59.3741   65.7055 O   0  0  0  0  0  0  0  0  0  0  0  0
  -39.6154   59.3907   65.0490 C   0  0  0  0  0  0  0  0  0  0  0  0
  -38.2200   60.2225   66.1539 H   0  0  0  0  0  0  0  0  0  0  0  0
  -39.9016   58.0763   64.3189 C   0  0  0  0  0  0  0  0  0  0  0  0
  -41.1151   57.7548   63.8391 C   0  0  0  0  0  0  0  0  0  0  0  0
  -41.3205   56.4217   63.1221 C   0  0  0  0  0  0  0  0  0  0  0  0
  -40.7810   56.3995   61.6846 C   0  0  0  0  0  0  0  0  0  0  0  0
  -41.4673   57.3643   60.7001 C   0  0  0  0  0  0  0  0  0  0  0  0
  -40.5046   57.7557   59.5532 C   0  0  0  0  0  0  0  0  0  0  0  0
  -39.4987   58.8854   59.8902 C   0  0  0  0  0  0  0  0  0  0  0  0
  -38.0603   58.3901   60.1700 C   0  0  0  0  0  0  0  0  0  0  0  0
  -37.7359   58.2526   61.6733 C   0  0  0  0  0  0  0  0  0  0  0  0
  -36.3491   58.7823   62.0571 C   0  0  0  0  0  0  0  0  0  0  0  0
  -35.2778   57.7272   62.3248 C   0  0  0  0  0  0  0  0  0  0  0  0
  -34.3154   58.0898   63.4729 C   0  0  0  0  0  0  0  0  0  0  0  0
  -34.9463   58.1137   64.8734 C   0  0  0  0  0  0  0  0  0  0  0  0
  -36.1138   57.1272   64.9673 C   0  0  0  0  0  0  0  0  0  0  0  0
  -36.0565   56.1194   66.1016 C   0  0  0  0  0  0  0  0  0  0  0  0
  -38.5150   61.6587   64.3631 C   0  0  0  0  0  0  0  0  0  0  0  0
  -37.1445   61.4783   63.9245 O   0  0  0  0  0  0  0  0  0  0  0  0
  -34.3702   61.4994   64.6174 O   0  0  0  0  0  0  0  0  0  0  0  0
  -34.0464   63.7208   61.1019 O   0  0  0  0  0  0  0  0  0  0  0  0
  -36.6259   63.4863   62.6660 O   0  0  0  0  0  0  0  0  0  0  0  0
  -36.2338   62.6294   63.7658 C   0  0  0  0  0  0  0  0  0  0  0  0
  -34.7531   62.2931   63.5369 C   0  0  0  0  0  0  0  0  0  0  0  0
  -33.8342   63.5336   63.4966 C   0  0  0  0  0  0  0  0  0  0  0  0
  -34.3098   64.3719   62.3423 C   0  0  0  0  0  0  0  0  0  0  0  0
  -35.7916   64.6638   62.4956 C   0  0  0  0  0  0  0  0  0  0  0  0
  -34.9377   60.7137   64.6586 H   0  0  0  0  0  0  0  0  0  0  0  0
  -33.0957   63.5441   61.0249 H   0  0  0  0  0  0  0  0  0  0  0  0
  -36.0512   66.8530   61.5717 O   0  0  0  0  0  0  0  0  0  0  0  0
  -36.0652   65.4959   61.2447 C   0  0  0  0  0  0  0  0  0  0  0  0
  -36.2252   67.3792   60.7757 H   0  0  0  0  0  0  0  0  0  0  0  0
  -32.4320   63.2769   63.2559 O   0  0  0  0  0  0  0  0  0  0  0  0
  -32.8816   60.9823   62.1379 O   0  0  0  0  0  0  0  0  0  0  0  0
  -30.6239   61.5639   62.8114 O   0  0  0  0  0  0  0  0  0  0  0  0
  -31.6079   62.5776   60.8420 O   0  0  0  0  0  0  0  0  0  0  0  0
  -31.8852   62.0908   62.2233 S   0  0  0  0  0  0  0  0  0  0  0  0
  -33.0749   60.6520   63.0292 H   0  0  0  0  0  0  0  0  0  0  0  0
  -32.4254   62.9230   60.4507 H   0  0  0  0  0  0  0  0  0  0  0  0
  2  1  1  0  0  0
  2  4  1  0  0  0
  2  5  1  0  0  0
 41 42  1  0  0  0
 41  1  1  0  0  0
 42 46  1  0  0  0
  1 24  1  0  0  0
 23 24  1  0  0  0
 23 25  1  0  0  0
 24 26  1  0  0  0
  3  4  2  0  0  0
 26 27  2  0  0  0
 27 28  1  0  0  0
 43 47  1  0  0  0
 43 51  1  0  0  0
 28 29  1  0  0  0
 56 48  1  0  0  0
 56 60  1  0  0  0
 29 30  1  0  0  0
 57 60  1  0  0  0
 57 61  1  0  0  0
 30 31  1  0  0  0
 44 49  1  0  0  0
 44 52  1  0  0  0
 31 32  1  0  0  0
 45 46  1  0  0  0
 45 50  1  0  0  0
 32 33  1  0  0  0
 53 54  1  0  0  0
 53 55  1  0  0  0
 33 34  1  0  0  0
 34 35  1  0  0  0
 35 36  1  0  0  0
 58 60  1  0  0  0
 36 37  1  0  0  0
 59 60  1  0  0  0
 59 62  1  0  0  0
 37 38  1  0  0  0
 38 39  1  0  0  0
 39 40  1  0  0  0
  4  6  1  0  0  0
  6  7  1  0  0  0
  7  8  1  0  0  0
  8  9  1  0  0  0
  9 10  1  0  0  0
 10 11  1  0  0  0
 11 12  1  0  0  0
 12 13  1  0  0  0
 13 14  1  0  0  0
 14 15  1  0  0  0
 15 16  1  0  0  0
 16 17  1  0  0  0
 17 18  1  0  0  0
 18 19  1  0  0  0
 19 20  1  0  0  0
 20 21  1  0  0  0
 21 22  1  0  0  0
 46 47  1  0  0  0
 47 48  1  0  0  0
 48 49  1  0  0  0
 49 50  1  0  0  0
 50 54  1  0  0  0
M  CHG 1  58  -1
M  END
> <minimizedAffinity>
-8.63508

> <CNNscore>
0.1958733946

> <CNNaffinity>
6.9397497177

> <CNN_VS>
1.3593122959

> <CNNaffinity_variance>
0.8583642244

$$$$
/media/chris/experiments/cd1a-new-docking/inputs/ligands/1onq_ligand.pdb


 62 62  0  0  0  0  0  0  0  0999 V2000
  -42.7412   58.1686   63.7115 C   0  0  0  0  0  0  0  0  0  0  0  0
  -43.6266   57.7015   64.7598 N   0  0  0  0  0  0  0  0  0  0  0  0
  -43.6563   59.4708   66.1797 O   0  0  0  0  0  0  0  0  0  0  0  0
  -44.0076   58.3492   65.8693 C   0  0  0  0  0  0  0  0  0  0  0  0
  -43.9937   56.7956   64.6421 H   0  0  0  0  0  0  0  0  0  0  0  0
  -44.9469   57.5909   66.7596 C   0  0  0  0  0  0  0  0  0  0  0  0
  -46.3243   57.6663   66.1005 C   0  0  0  0  0  0  0  0  0  0  0  0
  -46.9652   59.0223   66.3854 C   0  0  0  0  0  0  0  0  0  0  0  0
  -47.9030   59.5485   65.3261 C   0  0  0  0  0  0  0  0  0  0  0  0
  -49.0697   58.5724   65.2175 C   0  0  0  0  0  0  0  0  0  0  0  0
  -50.4302   59.2476   65.4370 C   0  0  0  0  0  0  0  0  0  0  0  0
  -50.6912   60.4567   64.5201 C   0  0  0  0  0  0  0  0  0  0  0  0
  -51.5528   60.1012   63.2886 C   0  0  0  0  0  0  0  0  0  0  0  0
  -50.7908   59.1618   62.3494 C   0  0  0  0  0  0  0  0  0  0  0  0
  -49.6327   59.8038   61.5953 C   0  0  0  0  0  0  0  0  0  0  0  0
  -49.5432   59.3209   60.1552 C   0  0  0  0  0  0  0  0  0  0  0  0
  -50.2771   58.0157   59.8383 C   0  0  0  0  0  0  0  0  0  0  0  0
  -49.3008   56.8628   60.0286 C   0  0  0  0  0  0  0  0  0  0  0  0
  -47.8164   57.1218   59.8182 C   0  0  0  0  0  0  0  0  0  0  0  0
  -47.3355   56.5171   58.4895 C   0  0  0  0  0  0  0  0  0  0  0  0
  -47.7767   57.2961   57.2367 C   0  0  0  0  0  0  0  0  0  0  0  0
  -46.8417   58.4503   56.8826 C   0  0  0  0  0  0  0  0  0  0  0  0
  -42.0926   56.0533   64.4187 O   0  0  0  0  0  0  0  0  0  0  0  0
  -41.5566   57.2257   63.8342 C   0  0  0  0  0  0  0  0  0  0  0  0
  -42.7659   55.6774   63.8303 H   0  0  0  0  0  0  0  0  0  0  0  0
  -40.4843   57.8709   64.7151 C   0  0  0  0  0  0  0  0  0  0  0  0
  -39.1747   57.8411   64.4144 C   0  0  0  0  0  0  0  0  0  0  0  0
  -38.1652   58.5085   65.3466 C   0  0  0  0  0  0  0  0  0  0  0  0
  -36.8283   58.8503   64.6728 C   0  0  0  0  0  0  0  0  0  0  0  0
  -35.8524   57.6728   64.4927 C   0  0  0  0  0  0  0  0  0  0  0  0
  -35.4273   57.5332   63.0111 C   0  0  0  0  0  0  0  0  0  0  0  0
  -34.2314   58.4194   62.5796 C   0  0  0  0  0  0  0  0  0  0  0  0
  -33.1399   58.5820   63.6636 C   0  0  0  0  0  0  0  0  0  0  0  0
  -31.8233   59.1856   63.1286 C   0  0  0  0  0  0  0  0  0  0  0  0
  -32.0175   60.1404   61.9447 C   0  0  0  0  0  0  0  0  0  0  0  0
  -30.8850   61.1328   61.6896 C   0  0  0  0  0  0  0  0  0  0  0  0
  -31.3613   62.5116   61.1917 C   0  0  0  0  0  0  0  0  0  0  0  0
  -32.5117   63.1364   61.9955 C   0  0  0  0  0  0  0  0  0  0  0  0
  -33.0316   64.4061   61.3153 C   0  0  0  0  0  0  0  0  0  0  0  0
  -33.7544   65.4013   62.2056 C   0  0  0  0  0  0  0  0  0  0  0  0
  -42.4352   59.6836   63.7245 C   0  0  0  0  0  0  0  0  0  0  0  0
  -42.4471   60.3583   62.4409 O   0  0  0  0  0  0  0  0  0  0  0  0
  -40.0456   61.6294   63.3324 O   0  0  0  0  0  0  0  0  0  0  0  0
  -38.2372   58.4904   61.2648 O   0  0  0  0  0  0  0  0  0  0  0  0
  -41.0524   59.4352   60.6836 O   0  0  0  0  0  0  0  0  0  0  0  0
  -41.2136   60.5078   61.6433 C   0  0  0  0  0  0  0  0  0  0  0  0
  -39.9000   60.5715   62.4359 C   0  0  0  0  0  0  0  0  0  0  0  0
  -38.6590   60.8464   61.5588 C   0  0  0  0  0  0  0  0  0  0  0  0
  -38.5677   59.7011   60.5886 C   0  0  0  0  0  0  0  0  0  0  0  0
  -39.8785   59.5595   59.8362 C   0  0  0  0  0  0  0  0  0  0  0  0
  -40.8219   61.4737   63.8929 H   0  0  0  0  0  0  0  0  0  0  0  0
  -37.3980   58.6031   61.7379 H   0  0  0  0  0  0  0  0  0  0  0  0
  -38.4329   58.6173   58.1821 O   0  0  0  0  0  0  0  0  0  0  0  0
  -39.5804   58.3630   58.9353 C   0  0  0  0  0  0  0  0  0  0  0  0
  -38.2458   57.8561   57.6108 H   0  0  0  0  0  0  0  0  0  0  0  0
  -37.3902   60.8892   62.2505 O   0  0  0  0  0  0  0  0  0  0  0  0
  -36.5646   63.3146   61.8599 O   0  0  0  0  0  0  0  0  0  0  0  0
  -35.4353   61.9132   63.4876 O   0  0  0  0  0  0  0  0  0  0  0  0
  -37.6056   62.8649   63.9954 O   0  0  0  0  0  0  0  0  0  0  0  0
  -36.7601   62.2787   62.9170 S   0  0  0  0  0  0  0  0  0  0  0  0
  -36.0155   62.9505   61.1480 H   0  0  0  0  0  0  0  0  0  0  0  0
  -38.4719   63.1063   63.6318 H   0  0  0  0  0  0  0  0  0  0  0  0
  2  1  1  0  0  0
  2  4  1  0  0  0
  2  5  1  0  0  0
 41 42  1  0  0  0
 41  1  1  0  0  0
 42 46  1  0  0  0
  1 24  1  0  0  0
 23 24  1  0  0  0
 23 25  1  0  0  0
 24 26  1  0  0  0
  3  4  2  0  0  0
 26 27  2  0  0  0
 27 28  1  0  0  0
 43 47  1  0  0  0
 43 51  1  0  0  0
 28 29  1  0  0  0
 56 48  1  0  0  0
 56 60  1  0  0  0
 29 30  1  0  0  0
 57 60  1  0  0  0
 57 61  1  0  0  0
 30 31  1  0  0  0
 44 49  1  0  0  0
 44 52  1  0  0  0
 31 32  1  0  0  0
 45 46  1  0  0  0
 45 50  1  0  0  0
 32 33  1  0  0  0
 53 54  1  0  0  0
 53 55  1  0  0  0
 33 34  1  0  0  0
 34 35  1  0  0  0
 35 36  1  0  0  0
 58 60  1  0  0  0
 36 37  1  0  0  0
 59 60  1  0  0  0
 59 62  1  0  0  0
 37 38  1  0  0  0
 38 39  1  0  0  0
 39 40  1  0  0  0
  4  6  1  0  0  0
  6  7  1  0  0  0
  7  8  1  0  0  0
  8  9  1  0  0  0
  9 10  1  0  0  0
 10 11  1  0  0  0
 11 12  1  0  0  0
 12 13  1  0  0  0
 13 14  1  0  0  0
 14 15  1  0  0  0
 15 16  1  0  0  0
 16 17  1  0  0  0
 17 18  1  0  0  0
 18 19  1  0  0  0
 19 20  1  0  0  0
 20 21  1  0  0  0
 21 22  1  0  0  0
 46 47  1  0  0  0
 47 48  1  0  0  0
 48 49  1  0  0  0
 49 50  1  0  0  0
 50 54  1  0  0  0
M  CHG 1  58  -1
M  END
> <minimizedAffinity>
-9.36502

> <CNNscore>
0.1911764145

> <CNNaffinity>
6.8189020157

> <CNN_VS>
1.3036131859

> <CNNaffinity_variance>
1.4028418064

$$$$
/media/chris/experiments/cd1a-new-docking/inputs/ligands/1onq_ligand.pdb


 62 62  0  0  0  0  0  0  0  0999 V2000
  -41.8910   60.3162   65.6022 C   0  0  0  0  0  0  0  0  0  0  0  0
  -42.9013   59.3320   65.2679 N   0  0  0  0  0  0  0  0  0  0  0  0
  -42.5418   57.7314   66.8352 O   0  0  0  0  0  0  0  0  0  0  0  0
  -43.1490   58.1631   65.8746 C   0  0  0  0  0  0  0  0  0  0  0  0
  -43.4772   59.5492   64.4996 H   0  0  0  0  0  0  0  0  0  0  0  0
  -44.2780   57.3676   65.2895 C   0  0  0  0  0  0  0  0  0  0  0  0
  -45.4735   57.5611   66.2227 C   0  0  0  0  0  0  0  0  0  0  0  0
  -46.0828   58.9447   66.0095 C   0  0  0  0  0  0  0  0  0  0  0  0
  -46.6507   59.2153   64.6373 C   0  0  0  0  0  0  0  0  0  0  0  0
  -47.9003   60.0710   64.8164 C   0  0  0  0  0  0  0  0  0  0  0  0
  -48.8013   59.5740   65.9548 C   0  0  0  0  0  0  0  0  0  0  0  0
  -50.3037   59.5735   65.6177 C   0  0  0  0  0  0  0  0  0  0  0  0
  -50.6702   60.5830   64.5077 C   0  0  0  0  0  0  0  0  0  0  0  0
  -51.3834   59.8778   63.3504 C   0  0  0  0  0  0  0  0  0  0  0  0
  -50.8484   58.4916   63.0122 C   0  0  0  0  0  0  0  0  0  0  0  0
  -49.7004   58.5433   62.0150 C   0  0  0  0  0  0  0  0  0  0  0  0
  -49.6291   59.7957   61.1381 C   0  0  0  0  0  0  0  0  0  0  0  0
  -49.3122   59.3615   59.7136 C   0  0  0  0  0  0  0  0  0  0  0  0
  -49.6360   57.9344   59.2969 C   0  0  0  0  0  0  0  0  0  0  0  0
  -48.3623   57.1794   58.8847 C   0  0  0  0  0  0  0  0  0  0  0  0
  -48.0815   57.1799   57.3707 C   0  0  0  0  0  0  0  0  0  0  0  0
  -46.9692   58.1432   56.9628 C   0  0  0  0  0  0  0  0  0  0  0  0
  -43.7985   61.4895   64.9854 O   0  0  0  0  0  0  0  0  0  0  0  0
  -42.3884   61.5584   64.8831 C   0  0  0  0  0  0  0  0  0  0  0  0
  -44.0564   61.5125   65.9202 H   0  0  0  0  0  0  0  0  0  0  0  0
  -41.9134   61.5265   63.4286 C   0  0  0  0  0  0  0  0  0  0  0  0
  -42.7310   61.7539   62.3864 C   0  0  0  0  0  0  0  0  0  0  0  0
  -42.1801   61.7031   60.9626 C   0  0  0  0  0  0  0  0  0  0  0  0
  -41.0337   60.6988   60.7751 C   0  0  0  0  0  0  0  0  0  0  0  0
  -40.8118   60.2019   59.3346 C   0  0  0  0  0  0  0  0  0  0  0  0
  -40.4962   58.6868   59.3185 C   0  0  0  0  0  0  0  0  0  0  0  0
  -41.6354   57.7682   59.8284 C   0  0  0  0  0  0  0  0  0  0  0  0
  -41.1688   56.6630   60.8049 C   0  0  0  0  0  0  0  0  0  0  0  0
  -41.2020   57.0941   62.2871 C   0  0  0  0  0  0  0  0  0  0  0  0
  -39.8638   57.6367   62.8028 C   0  0  0  0  0  0  0  0  0  0  0  0
  -38.6137   57.1355   62.0826 C   0  0  0  0  0  0  0  0  0  0  0  0
  -37.3603   57.9976   62.3311 C   0  0  0  0  0  0  0  0  0  0  0  0
  -36.8004   57.9423   63.7606 C   0  0  0  0  0  0  0  0  0  0  0  0
  -35.2862   57.7140   63.7496 C   0  0  0  0  0  0  0  0  0  0  0  0
  -34.5417   58.1835   62.5123 C   0  0  0  0  0  0  0  0  0  0  0  0
  -40.4303   59.8885   65.3333 C   0  0  0  0  0  0  0  0  0  0  0  0
  -39.4158   60.4728   66.1892 O   0  0  0  0  0  0  0  0  0  0  0  0
  -38.8830   60.9722   63.4244 O   0  0  0  0  0  0  0  0  0  0  0  0
  -36.7680   64.2237   64.9584 O   0  0  0  0  0  0  0  0  0  0  0  0
  -37.3948   61.7536   66.5897 O   0  0  0  0  0  0  0  0  0  0  0  0
  -38.1291   60.9441   65.6394 C   0  0  0  0  0  0  0  0  0  0  0  0
  -38.2085   61.7703   64.3475 C   0  0  0  0  0  0  0  0  0  0  0  0
  -36.8282   62.1334   63.7576 C   0  0  0  0  0  0  0  0  0  0  0  0
  -36.1287   62.9592   64.8017 C   0  0  0  0  0  0  0  0  0  0  0  0
  -36.0961   62.2033   66.1177 C   0  0  0  0  0  0  0  0  0  0  0  0
  -39.7540   60.7338   63.7786 H   0  0  0  0  0  0  0  0  0  0  0  0
  -36.7778   64.6887   64.1072 H   0  0  0  0  0  0  0  0  0  0  0  0
  -36.3048   63.9504   67.7355 O   0  0  0  0  0  0  0  0  0  0  0  0
  -35.3708   63.2000   67.0191 C   0  0  0  0  0  0  0  0  0  0  0  0
  -35.8418   64.5826   68.3072 H   0  0  0  0  0  0  0  0  0  0  0  0
  -36.8434   62.9352   62.5548 O   0  0  0  0  0  0  0  0  0  0  0  0
  -35.5763   63.8109   60.4704 O   0  0  0  0  0  0  0  0  0  0  0  0
  -34.3246   62.8715   62.3250 O   0  0  0  0  0  0  0  0  0  0  0  0
  -35.3001   65.0826   62.5083 O   0  0  0  0  0  0  0  0  0  0  0  0
  -35.4968   63.7114   61.9579 S   0  0  0  0  0  0  0  0  0  0  0  0
  -35.7046   62.9264   60.0936 H   0  0  0  0  0  0  0  0  0  0  0  0
  -36.0603   65.6374   62.2734 H   0  0  0  0  0  0  0  0  0  0  0  0
  2  1  1  0  0  0
  2  4  1  0  0  0
  2  5  1  0  0  0
 41 42  1  0  0  0
 41  1  1  0  0  0
 42 46  1  0  0  0
  1 24  1  0  0  0
 23 24  1  0  0  0
 23 25  1  0  0  0
 24 26  1  0  0  0
  3  4  2  0  0  0
 26 27  2  0  0  0
 27 28  1  0  0  0
 43 47  1  0  0  0
 43 51  1  0  0  0
 28 29  1  0  0  0
 56 48  1  0  0  0
 56 60  1  0  0  0
 29 30  1  0  0  0
 57 60  1  0  0  0
 57 61  1  0  0  0
 30 31  1  0  0  0
 44 49  1  0  0  0
 44 52  1  0  0  0
 31 32  1  0  0  0
 45 46  1  0  0  0
 45 50  1  0  0  0
 32 33  1  0  0  0
 53 54  1  0  0  0
 53 55  1  0  0  0
 33 34  1  0  0  0
 34 35  1  0  0  0
 35 36  1  0  0  0
 58 60  1  0  0  0
 36 37  1  0  0  0
 59 60  1  0  0  0
 59 62  1  0  0  0
 37 38  1  0  0  0
 38 39  1  0  0  0
 39 40  1  0  0  0
  4  6  1  0  0  0
  6  7  1  0  0  0
  7  8  1  0  0  0
  8  9  1  0  0  0
  9 10  1  0  0  0
 10 11  1  0  0  0
 11 12  1  0  0  0
 12 13  1  0  0  0
 13 14  1  0  0  0
 14 15  1  0  0  0
 15 16  1  0  0  0
 16 17  1  0  0  0
 17 18  1  0  0  0
 18 19  1  0  0  0
 19 20  1  0  0  0
 20 21  1  0  0  0
 21 22  1  0  0  0
 46 47  1  0  0  0
 47 48  1  0  0  0
 48 49  1  0  0  0
 49 50  1  0  0  0
 50 54  1  0  0  0
M  CHG 1  58  -1
M  END
> <minimizedAffinity>
-9.51338

> <CNNscore>
0.1638565958

> <CNNaffinity>
7.0977821350

> <CNN_VS>
1.1630184650

> <CNNaffinity_variance>
2.1133296490

$$$$
