/media/chris/experiments/cd1a-new-docking/inputs/ligands/4x6e_ligand.pdb


 37 36  0  0  0  0  0  0  0  0999 V2000
  -40.1900   59.1952   65.7654 O   0  0  0  0  0  0  0  0  0  0  0  0
  -40.9760   58.3578   65.3972 C   0  0  0  0  0  0  0  0  0  0  0  0
  -42.4405   58.3459   65.7115 C   0  0  0  0  0  0  0  0  0  0  0  0
  -42.8974   59.5766   66.4856 C   0  0  0  0  0  0  0  0  0  0  0  0
  -44.2837   59.4530   67.0944 C   0  0  0  0  0  0  0  0  0  0  0  0
  -45.1459   58.3974   66.4248 C   0  0  0  0  0  0  0  0  0  0  0  0
  -46.5896   58.4258   66.8966 C   0  0  0  0  0  0  0  0  0  0  0  0
  -47.4490   57.4156   66.1695 C   0  0  0  0  0  0  0  0  0  0  0  0
  -48.2875   57.9879   65.0446 C   0  0  0  0  0  0  0  0  0  0  0  0
  -49.6401   58.4223   65.4614 C   0  0  0  0  0  0  0  0  0  0  0  0
  -50.3979   59.3026   64.8404 C   0  0  0  0  0  0  0  0  0  0  0  0
  -50.0878   60.0235   63.5689 C   0  0  0  0  0  0  0  0  0  0  0  0
  -51.0096   59.5372   62.4495 C   0  0  0  0  0  0  0  0  0  0  0  0
  -50.8658   58.0684   62.0782 C   0  0  0  0  0  0  0  0  0  0  0  0
  -49.6170   57.7263   61.2747 C   0  0  0  0  0  0  0  0  0  0  0  0
  -49.6722   58.2078   59.8286 C   0  0  0  0  0  0  0  0  0  0  0  0
  -49.3017   57.1390   58.8127 C   0  0  0  0  0  0  0  0  0  0  0  0
  -48.1222   57.4761   57.9130 C   0  0  0  0  0  0  0  0  0  0  0  0
  -47.6408   56.2985   57.1226 C   0  0  0  0  0  0  0  0  0  0  0  0
  -40.6540   57.3095   64.6335 O   0  0  0  0  0  0  0  0  0  0  0  0
  -41.6711   56.7759   63.7573 C   0  0  0  0  0  0  0  0  0  0  0  0
  -41.0749   56.2222   62.4806 C   0  0  0  0  0  0  0  0  0  0  0  0
  -41.3857   54.8306   62.3277 O   0  0  0  0  0  0  0  0  0  0  0  0
  -42.3461   54.7206   62.2481 H   0  0  0  0  0  0  0  0  0  0  0  0
  -41.5296   56.9765   61.2532 C   0  0  0  0  0  0  0  0  0  0  0  0
  -40.4946   57.8533   60.7461 O   0  0  0  0  0  0  0  0  0  0  0  0
  -39.8567   59.2125   61.3133 P   0  0  0  0  0  0  0  0  0  0  0  0
  -40.9759   60.0369   61.9473 O   0  0  0  0  0  0  0  0  0  0  0  0
  -39.2910   59.9788   60.1814 O   0  0  0  0  0  0  0  0  0  0  0  0
  -39.9849   60.1444   59.5241 H   0  0  0  0  0  0  0  0  0  0  0  0
  -38.7105   58.9096   62.4532 O   0  0  0  0  0  0  0  0  0  0  0  0
  -37.6570   57.9125   62.3593 C   0  0  0  0  0  0  0  0  0  0  0  0
  -36.3490   58.4887   62.8420 C   0  0  0  0  0  0  0  0  0  0  0  0
  -36.1314   58.5094   64.3437 N   0  0  0  0  0  0  0  0  0  0  0  0
  -36.3430   59.8870   64.8847 C   0  0  0  0  0  0  0  0  0  0  0  0
  -34.7277   58.0864   64.6286 C   0  0  0  0  0  0  0  0  0  0  0  0
  -37.0828   57.5688   65.0266 C   0  0  0  0  0  0  0  0  0  0  0  0
 34 33  1  0  0  0
 34 35  1  0  0  0
 34 36  1  0  0  0
 34 37  1  0  0  0
 22 23  1  0  0  0
 22 25  1  0  0  0
 22 21  1  0  0  0
 23 24  1  0  0  0
 27 26  1  0  0  0
 27 28  2  0  0  0
 27 31  1  0  0  0
 27 29  1  0  0  0
 25 26  1  0  0  0
 32 33  1  0  0  0
 32 31  1  0  0  0
 29 30  1  0  0  0
 20 21  1  0  0  0
 20  2  1  0  0  0
  1  2  2  0  0  0
  2  3  1  0  0  0
  3  4  1  0  0  0
  4  5  1  0  0  0
  5  6  1  0  0  0
  6  7  1  0  0  0
  7  8  1  0  0  0
  8  9  1  0  0  0
  9 10  1  0  0  0
 10 11  2  0  0  0
 11 12  1  0  0  0
 12 13  1  0  0  0
 13 14  1  0  0  0
 14 15  1  0  0  0
 15 16  1  0  0  0
 16 17  1  0  0  0
 17 18  1  0  0  0
 18 19  1  0  0  0
M  CHG 1  28  -1
M  END
> <minimizedAffinity>
-7.63592

> <CNNscore>
0.7803235054

> <CNNaffinity>
7.1709852219

> <CNN_VS>
5.5956883430

> <CNNaffinity_variance>
0.2298332453

$$$$
/media/chris/experiments/cd1a-new-docking/inputs/ligands/4x6e_ligand.pdb


 37 36  0  0  0  0  0  0  0  0999 V2000
  -40.8671   56.4793   63.3930 O   0  0  0  0  0  0  0  0  0  0  0  0
  -41.3170   57.0433   64.3596 C   0  0  0  0  0  0  0  0  0  0  0  0
  -42.6182   56.7167   65.0258 C   0  0  0  0  0  0  0  0  0  0  0  0
  -42.9578   57.6606   66.1731 C   0  0  0  0  0  0  0  0  0  0  0  0
  -44.3471   58.2695   66.0913 C   0  0  0  0  0  0  0  0  0  0  0  0
  -45.4438   57.3408   66.5821 C   0  0  0  0  0  0  0  0  0  0  0  0
  -46.8089   57.6826   66.0102 C   0  0  0  0  0  0  0  0  0  0  0  0
  -46.9153   59.1388   65.6152 C   0  0  0  0  0  0  0  0  0  0  0  0
  -48.2797   59.7590   65.8381 C   0  0  0  0  0  0  0  0  0  0  0  0
  -49.4066   58.8131   65.6726 C   0  0  0  0  0  0  0  0  0  0  0  0
  -50.4604   58.9891   64.9024 C   0  0  0  0  0  0  0  0  0  0  0  0
  -50.7363   60.1481   64.0005 C   0  0  0  0  0  0  0  0  0  0  0  0
  -50.6338   59.7132   62.5378 C   0  0  0  0  0  0  0  0  0  0  0  0
  -50.8246   58.2248   62.2851 C   0  0  0  0  0  0  0  0  0  0  0  0
  -49.7883   57.5891   61.3663 C   0  0  0  0  0  0  0  0  0  0  0  0
  -50.1677   57.6439   59.8901 C   0  0  0  0  0  0  0  0  0  0  0  0
  -48.9836   57.4976   58.9477 C   0  0  0  0  0  0  0  0  0  0  0  0
  -48.1514   56.2383   59.1377 C   0  0  0  0  0  0  0  0  0  0  0  0
  -47.2307   55.9727   57.9865 C   0  0  0  0  0  0  0  0  0  0  0  0
  -40.7067   58.0482   64.9947 O   0  0  0  0  0  0  0  0  0  0  0  0
  -40.1019   59.0853   64.1913 C   0  0  0  0  0  0  0  0  0  0  0  0
  -39.5467   60.2036   65.0475 C   0  0  0  0  0  0  0  0  0  0  0  0
  -40.5024   60.6230   66.0310 O   0  0  0  0  0  0  0  0  0  0  0  0
  -40.6895   59.8871   66.6346 H   0  0  0  0  0  0  0  0  0  0  0  0
  -38.2548   59.8234   65.7323 C   0  0  0  0  0  0  0  0  0  0  0  0
  -37.6826   60.9377   66.4590 O   0  0  0  0  0  0  0  0  0  0  0  0
  -36.5751   62.0303   66.0642 P   0  0  0  0  0  0  0  0  0  0  0  0
  -36.2118   62.8177   67.3219 O   0  0  0  0  0  0  0  0  0  0  0  0
  -37.1610   62.9637   65.0773 O   0  0  0  0  0  0  0  0  0  0  0  0
  -37.9603   63.3680   65.4497 H   0  0  0  0  0  0  0  0  0  0  0  0
  -35.2147   61.3212   65.4714 O   0  0  0  0  0  0  0  0  0  0  0  0
  -34.3639   61.8542   64.4201 C   0  0  0  0  0  0  0  0  0  0  0  0
  -33.6854   63.1176   64.8887 C   0  0  0  0  0  0  0  0  0  0  0  0
  -32.6273   63.6988   63.9692 N   0  0  0  0  0  0  0  0  0  0  0  0
  -32.8766   65.1547   63.7381 C   0  0  0  0  0  0  0  0  0  0  0  0
  -32.6865   62.9822   62.6602 C   0  0  0  0  0  0  0  0  0  0  0  0
  -31.2597   63.5301   64.5674 C   0  0  0  0  0  0  0  0  0  0  0  0
 34 33  1  0  0  0
 34 35  1  0  0  0
 34 36  1  0  0  0
 34 37  1  0  0  0
 22 23  1  0  0  0
 22 25  1  0  0  0
 22 21  1  0  0  0
 23 24  1  0  0  0
 27 26  1  0  0  0
 27 28  2  0  0  0
 27 31  1  0  0  0
 27 29  1  0  0  0
 25 26  1  0  0  0
 32 33  1  0  0  0
 32 31  1  0  0  0
 29 30  1  0  0  0
 20 21  1  0  0  0
 20  2  1  0  0  0
  1  2  2  0  0  0
  2  3  1  0  0  0
  3  4  1  0  0  0
  4  5  1  0  0  0
  5  6  1  0  0  0
  6  7  1  0  0  0
  7  8  1  0  0  0
  8  9  1  0  0  0
  9 10  1  0  0  0
 10 11  2  0  0  0
 11 12  1  0  0  0
 12 13  1  0  0  0
 13 14  1  0  0  0
 14 15  1  0  0  0
 15 16  1  0  0  0
 16 17  1  0  0  0
 17 18  1  0  0  0
 18 19  1  0  0  0
M  CHG 1  28  -1
M  END
> <minimizedAffinity>
-7.89650

> <CNNscore>
0.7337909341

> <CNNaffinity>
6.3179121017

> <CNN_VS>
4.6360268593

> <CNNaffinity_variance>
0.2117963284

$$$$
/media/chris/experiments/cd1a-new-docking/inputs/ligands/4x6e_ligand.pdb


 37 36  0  0  0  0  0  0  0  0999 V2000
  -42.7899   60.2401   64.3481 O   0  0  0  0  0  0  0  0  0  0  0  0
  -42.6366   59.1152   64.7552 C   0  0  0  0  0  0  0  0  0  0  0  0
  -43.4956   57.9405   64.4005 C   0  0  0  0  0  0  0  0  0  0  0  0
  -44.5482   57.6268   65.4570 C   0  0  0  0  0  0  0  0  0  0  0  0
  -44.7265   58.7133   66.5035 C   0  0  0  0  0  0  0  0  0  0  0  0
  -46.1281   58.7675   67.0857 C   0  0  0  0  0  0  0  0  0  0  0  0
  -46.9902   57.5899   66.6641 C   0  0  0  0  0  0  0  0  0  0  0  0
  -48.1771   58.0193   65.8308 C   0  0  0  0  0  0  0  0  0  0  0  0
  -48.5947   59.4638   66.0176 C   0  0  0  0  0  0  0  0  0  0  0  0
  -48.4435   60.2973   64.8033 C   0  0  0  0  0  0  0  0  0  0  0  0
  -49.3800   60.5452   63.9110 C   0  0  0  0  0  0  0  0  0  0  0  0
  -50.8005   60.0827   63.9406 C   0  0  0  0  0  0  0  0  0  0  0  0
  -51.1775   59.4534   62.5985 C   0  0  0  0  0  0  0  0  0  0  0  0
  -50.5325   58.1066   62.3057 C   0  0  0  0  0  0  0  0  0  0  0  0
  -50.6922   57.6136   60.8727 C   0  0  0  0  0  0  0  0  0  0  0  0
  -49.4518   56.9133   60.3276 C   0  0  0  0  0  0  0  0  0  0  0  0
  -48.9604   57.4796   59.0049 C   0  0  0  0  0  0  0  0  0  0  0  0
  -48.0806   56.5486   58.1842 C   0  0  0  0  0  0  0  0  0  0  0  0
  -47.5872   57.1822   56.9198 C   0  0  0  0  0  0  0  0  0  0  0  0
  -41.6567   58.7434   65.5843 O   0  0  0  0  0  0  0  0  0  0  0  0
  -40.3538   58.4863   65.0158 C   0  0  0  0  0  0  0  0  0  0  0  0
  -39.4768   59.7199   65.0471 C   0  0  0  0  0  0  0  0  0  0  0  0
  -40.0399   60.7314   65.8936 O   0  0  0  0  0  0  0  0  0  0  0  0
  -40.0798   60.4042   66.8058 H   0  0  0  0  0  0  0  0  0  0  0  0
  -38.0661   59.4177   65.4953 C   0  0  0  0  0  0  0  0  0  0  0  0
  -37.3897   58.5242   64.5780 O   0  0  0  0  0  0  0  0  0  0  0  0
  -36.4899   58.7913   63.2760 P   0  0  0  0  0  0  0  0  0  0  0  0
  -37.4221   59.1148   62.1097 O   0  0  0  0  0  0  0  0  0  0  0  0
  -35.7443   57.5549   62.9536 O   0  0  0  0  0  0  0  0  0  0  0  0
  -36.3696   56.8245   62.8252 H   0  0  0  0  0  0  0  0  0  0  0  0
  -35.4648   60.0573   63.5021 O   0  0  0  0  0  0  0  0  0  0  0  0
  -35.7201   61.2238   64.3311 C   0  0  0  0  0  0  0  0  0  0  0  0
  -34.4536   62.0240   64.5097 C   0  0  0  0  0  0  0  0  0  0  0  0
  -34.5543   63.2667   65.3748 N   0  0  0  0  0  0  0  0  0  0  0  0
  -33.6795   64.3526   64.8354 C   0  0  0  0  0  0  0  0  0  0  0  0
  -34.1057   62.9236   66.7573 C   0  0  0  0  0  0  0  0  0  0  0  0
  -35.9713   63.7633   65.4203 C   0  0  0  0  0  0  0  0  0  0  0  0
 34 33  1  0  0  0
 34 35  1  0  0  0
 34 36  1  0  0  0
 34 37  1  0  0  0
 22 23  1  0  0  0
 22 25  1  0  0  0
 22 21  1  0  0  0
 23 24  1  0  0  0
 27 26  1  0  0  0
 27 28  2  0  0  0
 27 31  1  0  0  0
 27 29  1  0  0  0
 25 26  1  0  0  0
 32 33  1  0  0  0
 32 31  1  0  0  0
 29 30  1  0  0  0
 20 21  1  0  0  0
 20  2  1  0  0  0
  1  2  2  0  0  0
  2  3  1  0  0  0
  3  4  1  0  0  0
  4  5  1  0  0  0
  5  6  1  0  0  0
  6  7  1  0  0  0
  7  8  1  0  0  0
  8  9  1  0  0  0
  9 10  1  0  0  0
 10 11  2  0  0  0
 11 12  1  0  0  0
 12 13  1  0  0  0
 13 14  1  0  0  0
 14 15  1  0  0  0
 15 16  1  0  0  0
 16 17  1  0  0  0
 17 18  1  0  0  0
 18 19  1  0  0  0
M  CHG 1  28  -1
M  END
> <minimizedAffinity>
-7.76568

> <CNNscore>
0.6799219847

> <CNNaffinity>
6.5803270340

> <CNN_VS>
4.4741091728

> <CNNaffinity_variance>
0.3185393810

$$$$
/media/chris/experiments/cd1a-new-docking/inputs/ligands/4x6e_ligand.pdb


 37 36  0  0  0  0  0  0  0  0999 V2000
  -42.8423   60.7899   61.3402 O   0  0  0  0  0  0  0  0  0  0  0  0
  -42.5630   60.2414   62.3774 C   0  0  0  0  0  0  0  0  0  0  0  0
  -43.5184   59.9694   63.4985 C   0  0  0  0  0  0  0  0  0  0  0  0
  -43.9680   58.5147   63.5635 C   0  0  0  0  0  0  0  0  0  0  0  0
  -43.4121   57.7409   64.7466 C   0  0  0  0  0  0  0  0  0  0  0  0
  -44.0557   58.1155   66.0701 C   0  0  0  0  0  0  0  0  0  0  0  0
  -45.5665   57.9567   66.0595 C   0  0  0  0  0  0  0  0  0  0  0  0
  -46.2653   59.0843   66.7861 C   0  0  0  0  0  0  0  0  0  0  0  0
  -47.4332   59.6942   66.0379 C   0  0  0  0  0  0  0  0  0  0  0  0
  -48.6651   58.8736   66.0704 C   0  0  0  0  0  0  0  0  0  0  0  0
  -49.7878   59.1341   65.4328 C   0  0  0  0  0  0  0  0  0  0  0  0
  -50.0582   60.2787   64.5112 C   0  0  0  0  0  0  0  0  0  0  0  0
  -51.1771   59.9149   63.5339 C   0  0  0  0  0  0  0  0  0  0  0  0
  -50.7180   59.4767   62.1509 C   0  0  0  0  0  0  0  0  0  0  0  0
  -50.6984   57.9697   61.9259 C   0  0  0  0  0  0  0  0  0  0  0  0
  -50.8122   57.5713   60.4581 C   0  0  0  0  0  0  0  0  0  0  0  0
  -49.4746   57.4922   59.7396 C   0  0  0  0  0  0  0  0  0  0  0  0
  -48.7250   56.1783   59.9013 C   0  0  0  0  0  0  0  0  0  0  0  0
  -47.7107   55.9530   58.8224 C   0  0  0  0  0  0  0  0  0  0  0  0
  -41.3463   59.7778   62.6781 O   0  0  0  0  0  0  0  0  0  0  0  0
  -40.3803   59.6759   61.6089 C   0  0  0  0  0  0  0  0  0  0  0  0
  -38.9615   59.7918   62.1242 C   0  0  0  0  0  0  0  0  0  0  0  0
  -38.2148   60.7536   61.3666 O   0  0  0  0  0  0  0  0  0  0  0  0
  -38.6146   61.6308   61.4742 H   0  0  0  0  0  0  0  0  0  0  0  0
  -38.9043   60.1528   63.5901 C   0  0  0  0  0  0  0  0  0  0  0  0
  -38.4398   61.5094   63.7926 O   0  0  0  0  0  0  0  0  0  0  0  0
  -37.0251   62.1089   64.2566 P   0  0  0  0  0  0  0  0  0  0  0  0
  -36.0665   60.9428   64.4919 O   0  0  0  0  0  0  0  0  0  0  0  0
  -37.2123   62.8297   65.5348 O   0  0  0  0  0  0  0  0  0  0  0  0
  -37.5901   62.2264   66.1938 H   0  0  0  0  0  0  0  0  0  0  0  0
  -36.3850   63.0979   63.1090 O   0  0  0  0  0  0  0  0  0  0  0  0
  -35.5020   64.2267   63.3521 C   0  0  0  0  0  0  0  0  0  0  0  0
  -34.0607   63.7877   63.2743 C   0  0  0  0  0  0  0  0  0  0  0  0
  -33.1446   64.2717   64.3831 N   0  0  0  0  0  0  0  0  0  0  0  0
  -33.3211   65.7397   64.6048 C   0  0  0  0  0  0  0  0  0  0  0  0
  -31.7302   64.0078   63.9831 C   0  0  0  0  0  0  0  0  0  0  0  0
  -33.4423   63.5484   65.6655 C   0  0  0  0  0  0  0  0  0  0  0  0
 34 33  1  0  0  0
 34 35  1  0  0  0
 34 36  1  0  0  0
 34 37  1  0  0  0
 22 23  1  0  0  0
 22 25  1  0  0  0
 22 21  1  0  0  0
 23 24  1  0  0  0
 27 26  1  0  0  0
 27 28  2  0  0  0
 27 31  1  0  0  0
 27 29  1  0  0  0
 25 26  1  0  0  0
 32 33  1  0  0  0
 32 31  1  0  0  0
 29 30  1  0  0  0
 20 21  1  0  0  0
 20  2  1  0  0  0
  1  2  2  0  0  0
  2  3  1  0  0  0
  3  4  1  0  0  0
  4  5  1  0  0  0
  5  6  1  0  0  0
  6  7  1  0  0  0
  7  8  1  0  0  0
  8  9  1  0  0  0
  9 10  1  0  0  0
 10 11  2  0  0  0
 11 12  1  0  0  0
 12 13  1  0  0  0
 13 14  1  0  0  0
 14 15  1  0  0  0
 15 16  1  0  0  0
 16 17  1  0  0  0
 17 18  1  0  0  0
 18 19  1  0  0  0
M  CHG 1  28  -1
M  END
> <minimizedAffinity>
-7.65936

> <CNNscore>
0.6746319532

> <CNNaffinity>
6.4215898514

> <CNN_VS>
4.3322095871

> <CNNaffinity_variance>
0.3418456912

$$$$
/media/chris/experiments/cd1a-new-docking/inputs/ligands/4x6e_ligand.pdb


 37 36  0  0  0  0  0  0  0  0999 V2000
  -41.0757   60.9273   66.2252 O   0  0  0  0  0  0  0  0  0  0  0  0
  -41.5917   60.3990   65.2715 C   0  0  0  0  0  0  0  0  0  0  0  0
  -42.9642   59.7994   65.2502 C   0  0  0  0  0  0  0  0  0  0  0  0
  -43.3672   59.1770   66.5816 C   0  0  0  0  0  0  0  0  0  0  0  0
  -43.9757   57.7901   66.4646 C   0  0  0  0  0  0  0  0  0  0  0  0
  -45.1368   57.7199   65.4882 C   0  0  0  0  0  0  0  0  0  0  0  0
  -46.4750   58.0303   66.1366 C   0  0  0  0  0  0  0  0  0  0  0  0
  -47.0999   59.2917   65.5833 C   0  0  0  0  0  0  0  0  0  0  0  0
  -48.4872   59.5970   66.1105 C   0  0  0  0  0  0  0  0  0  0  0  0
  -49.5027   58.5771   65.7629 C   0  0  0  0  0  0  0  0  0  0  0  0
  -50.4413   58.6977   64.8469 C   0  0  0  0  0  0  0  0  0  0  0  0
  -50.6676   59.8581   63.9332 C   0  0  0  0  0  0  0  0  0  0  0  0
  -51.0585   59.3629   62.5399 C   0  0  0  0  0  0  0  0  0  0  0  0
  -50.4333   58.0411   62.1184 C   0  0  0  0  0  0  0  0  0  0  0  0
  -50.8343   57.5516   60.7322 C   0  0  0  0  0  0  0  0  0  0  0  0
  -49.8952   58.0202   59.6255 C   0  0  0  0  0  0  0  0  0  0  0  0
  -48.9097   56.9568   59.1677 C   0  0  0  0  0  0  0  0  0  0  0  0
  -48.2107   57.2416   57.8468 C   0  0  0  0  0  0  0  0  0  0  0  0
  -47.2791   56.1434   57.4353 C   0  0  0  0  0  0  0  0  0  0  0  0
  -41.0118   60.2802   64.0735 O   0  0  0  0  0  0  0  0  0  0  0  0
  -41.3684   59.1394   63.2620 C   0  0  0  0  0  0  0  0  0  0  0  0
  -40.3710   58.9137   62.1456 C   0  0  0  0  0  0  0  0  0  0  0  0
  -40.2756   60.0670   61.2986 O   0  0  0  0  0  0  0  0  0  0  0  0
  -39.9415   60.8188   61.8124 H   0  0  0  0  0  0  0  0  0  0  0  0
  -38.9970   58.5525   62.6595 C   0  0  0  0  0  0  0  0  0  0  0  0
  -38.1426   59.7160   62.7751 O   0  0  0  0  0  0  0  0  0  0  0  0
  -37.4197   60.4049   64.0317 P   0  0  0  0  0  0  0  0  0  0  0  0
  -37.1403   59.3231   65.0737 O   0  0  0  0  0  0  0  0  0  0  0  0
  -38.3417   61.3999   64.6218 O   0  0  0  0  0  0  0  0  0  0  0  0
  -39.1725   60.9643   64.8686 H   0  0  0  0  0  0  0  0  0  0  0  0
  -35.9953   61.1036   63.5980 O   0  0  0  0  0  0  0  0  0  0  0  0
  -34.7305   60.9691   64.3016 C   0  0  0  0  0  0  0  0  0  0  0  0
  -33.9070   62.2226   64.1382 C   0  0  0  0  0  0  0  0  0  0  0  0
  -34.0740   63.2865   65.2073 N   0  0  0  0  0  0  0  0  0  0  0  0
  -33.8933   62.6944   66.5682 C   0  0  0  0  0  0  0  0  0  0  0  0
  -35.4512   63.8549   65.1042 C   0  0  0  0  0  0  0  0  0  0  0  0
  -33.0669   64.3850   65.0189 C   0  0  0  0  0  0  0  0  0  0  0  0
 34 33  1  0  0  0
 34 35  1  0  0  0
 34 36  1  0  0  0
 34 37  1  0  0  0
 22 23  1  0  0  0
 22 25  1  0  0  0
 22 21  1  0  0  0
 23 24  1  0  0  0
 27 26  1  0  0  0
 27 28  2  0  0  0
 27 31  1  0  0  0
 27 29  1  0  0  0
 25 26  1  0  0  0
 32 33  1  0  0  0
 32 31  1  0  0  0
 29 30  1  0  0  0
 20 21  1  0  0  0
 20  2  1  0  0  0
  1  2  2  0  0  0
  2  3  1  0  0  0
  3  4  1  0  0  0
  4  5  1  0  0  0
  5  6  1  0  0  0
  6  7  1  0  0  0
  7  8  1  0  0  0
  8  9  1  0  0  0
  9 10  1  0  0  0
 10 11  2  0  0  0
 11 12  1  0  0  0
 12 13  1  0  0  0
 13 14  1  0  0  0
 14 15  1  0  0  0
 15 16  1  0  0  0
 16 17  1  0  0  0
 17 18  1  0  0  0
 18 19  1  0  0  0
M  CHG 1  28  -1
M  END
> <minimizedAffinity>
-7.79648

> <CNNscore>
0.6715547442

> <CNNaffinity>
6.5353865623

> <CNN_VS>
4.3888697624

> <CNNaffinity_variance>
0.4027013183

$$$$
/media/chris/experiments/cd1a-new-docking/inputs/ligands/4x6e_ligand.pdb


 37 36  0  0  0  0  0  0  0  0999 V2000
  -42.9666   56.2340   64.8426 O   0  0  0  0  0  0  0  0  0  0  0  0
  -42.9422   57.4286   64.6783 C   0  0  0  0  0  0  0  0  0  0  0  0
  -43.8483   58.4144   65.3499 C   0  0  0  0  0  0  0  0  0  0  0  0
  -44.6263   59.2803   64.3662 C   0  0  0  0  0  0  0  0  0  0  0  0
  -46.1314   59.0800   64.4118 C   0  0  0  0  0  0  0  0  0  0  0  0
  -46.8570   60.1345   65.2290 C   0  0  0  0  0  0  0  0  0  0  0  0
  -47.8753   59.5427   66.1884 C   0  0  0  0  0  0  0  0  0  0  0  0
  -48.5494   58.3137   65.6206 C   0  0  0  0  0  0  0  0  0  0  0  0
  -50.0520   58.4294   65.4630 C   0  0  0  0  0  0  0  0  0  0  0  0
  -50.5016   59.7223   64.8988 C   0  0  0  0  0  0  0  0  0  0  0  0
  -50.4455   60.0772   63.6317 C   0  0  0  0  0  0  0  0  0  0  0  0
  -49.9607   59.2529   62.4836 C   0  0  0  0  0  0  0  0  0  0  0  0
  -51.0205   58.2226   62.0904 C   0  0  0  0  0  0  0  0  0  0  0  0
  -50.8212   57.5682   60.7312 C   0  0  0  0  0  0  0  0  0  0  0  0
  -49.8903   58.3176   59.7856 C   0  0  0  0  0  0  0  0  0  0  0  0
  -49.1712   57.4103   58.7926 C   0  0  0  0  0  0  0  0  0  0  0  0
  -48.4766   56.2229   59.4401 C   0  0  0  0  0  0  0  0  0  0  0  0
  -47.1427   55.8319   58.8219 C   0  0  0  0  0  0  0  0  0  0  0  0
  -47.1785   55.8216   57.3246 C   0  0  0  0  0  0  0  0  0  0  0  0
  -42.0833   58.0586   63.8715 O   0  0  0  0  0  0  0  0  0  0  0  0
  -41.3379   57.2609   62.9255 C   0  0  0  0  0  0  0  0  0  0  0  0
  -39.8635   57.6046   62.9435 C   0  0  0  0  0  0  0  0  0  0  0  0
  -39.1333   56.7912   62.0153 O   0  0  0  0  0  0  0  0  0  0  0  0
  -39.4425   56.9720   61.1139 H   0  0  0  0  0  0  0  0  0  0  0  0
  -39.6041   59.0629   62.6462 C   0  0  0  0  0  0  0  0  0  0  0  0
  -38.7967   59.6864   63.6741 O   0  0  0  0  0  0  0  0  0  0  0  0
  -39.1446   60.2129   65.1498 P   0  0  0  0  0  0  0  0  0  0  0  0
  -38.7892   59.1106   66.1461 O   0  0  0  0  0  0  0  0  0  0  0  0
  -40.5992   60.4694   65.2307 O   0  0  0  0  0  0  0  0  0  0  0  0
  -41.0833   59.6595   65.0055 H   0  0  0  0  0  0  0  0  0  0  0  0
  -38.2848   61.5638   65.5251 O   0  0  0  0  0  0  0  0  0  0  0  0
  -36.8413   61.6407   65.6787 C   0  0  0  0  0  0  0  0  0  0  0  0
  -36.4099   63.0772   65.8409 C   0  0  0  0  0  0  0  0  0  0  0  0
  -34.9764   63.4005   65.4623 N   0  0  0  0  0  0  0  0  0  0  0  0
  -34.9402   64.3074   64.2743 C   0  0  0  0  0  0  0  0  0  0  0  0
  -34.2736   62.1273   65.1226 C   0  0  0  0  0  0  0  0  0  0  0  0
  -34.2681   64.0701   66.6053 C   0  0  0  0  0  0  0  0  0  0  0  0
 34 33  1  0  0  0
 34 35  1  0  0  0
 34 36  1  0  0  0
 34 37  1  0  0  0
 22 23  1  0  0  0
 22 25  1  0  0  0
 22 21  1  0  0  0
 23 24  1  0  0  0
 27 26  1  0  0  0
 27 28  2  0  0  0
 27 31  1  0  0  0
 27 29  1  0  0  0
 25 26  1  0  0  0
 32 33  1  0  0  0
 32 31  1  0  0  0
 29 30  1  0  0  0
 20 21  1  0  0  0
 20  2  1  0  0  0
  1  2  2  0  0  0
  2  3  1  0  0  0
  3  4  1  0  0  0
  4  5  1  0  0  0
  5  6  1  0  0  0
  6  7  1  0  0  0
  7  8  1  0  0  0
  8  9  1  0  0  0
  9 10  1  0  0  0
 10 11  2  0  0  0
 11 12  1  0  0  0
 12 13  1  0  0  0
 13 14  1  0  0  0
 14 15  1  0  0  0
 15 16  1  0  0  0
 16 17  1  0  0  0
 17 18  1  0  0  0
 18 19  1  0  0  0
M  CHG 1  28  -1
M  END
> <minimizedAffinity>
-7.87753

> <CNNscore>
0.6108464003

> <CNNaffinity>
6.4818596840

> <CNN_VS>
3.9594206810

> <CNNaffinity_variance>
0.2201247662

$$$$
/media/chris/experiments/cd1a-new-docking/inputs/ligands/4x6e_ligand.pdb


 37 36  0  0  0  0  0  0  0  0999 V2000
  -39.9824   60.5374   61.2599 O   0  0  0  0  0  0  0  0  0  0  0  0
  -40.7755   59.6993   61.6109 C   0  0  0  0  0  0  0  0  0  0  0  0
  -42.2485   59.7332   61.3413 C   0  0  0  0  0  0  0  0  0  0  0  0
  -42.8263   61.1434   61.3448 C   0  0  0  0  0  0  0  0  0  0  0  0
  -43.5884   61.5035   62.6085 C   0  0  0  0  0  0  0  0  0  0  0  0
  -44.2279   60.3068   63.2904 C   0  0  0  0  0  0  0  0  0  0  0  0
  -45.4191   60.6844   64.1542 C   0  0  0  0  0  0  0  0  0  0  0  0
  -46.4852   59.6115   64.1589 C   0  0  0  0  0  0  0  0  0  0  0  0
  -47.7385   59.9652   64.9336 C   0  0  0  0  0  0  0  0  0  0  0  0
  -48.7489   60.7032   64.1420 C   0  0  0  0  0  0  0  0  0  0  0  0
  -49.8130   60.1838   63.5652 C   0  0  0  0  0  0  0  0  0  0  0  0
  -50.2603   58.7589   63.6114 C   0  0  0  0  0  0  0  0  0  0  0  0
  -50.7848   58.3269   62.2411 C   0  0  0  0  0  0  0  0  0  0  0  0
  -50.1233   59.0006   61.0477 C   0  0  0  0  0  0  0  0  0  0  0  0
  -49.7861   58.0711   59.8882 C   0  0  0  0  0  0  0  0  0  0  0  0
  -49.2666   56.7075   60.3320 C   0  0  0  0  0  0  0  0  0  0  0  0
  -48.2197   56.1182   59.4001 C   0  0  0  0  0  0  0  0  0  0  0  0
  -48.1235   56.7739   58.0306 C   0  0  0  0  0  0  0  0  0  0  0  0
  -47.0035   56.2240   57.2020 C   0  0  0  0  0  0  0  0  0  0  0  0
  -40.4507   58.5956   62.2907 O   0  0  0  0  0  0  0  0  0  0  0  0
  -39.8572   58.7588   63.5976 C   0  0  0  0  0  0  0  0  0  0  0  0
  -38.4921   58.1089   63.6768 C   0  0  0  0  0  0  0  0  0  0  0  0
  -38.3066   57.1677   62.6109 O   0  0  0  0  0  0  0  0  0  0  0  0
  -38.3362   57.6327   61.7601 H   0  0  0  0  0  0  0  0  0  0  0  0
  -37.3674   59.1174   63.6582 C   0  0  0  0  0  0  0  0  0  0  0  0
  -37.1667   59.7239   64.9578 O   0  0  0  0  0  0  0  0  0  0  0  0
  -37.5864   61.1511   65.5603 P   0  0  0  0  0  0  0  0  0  0  0  0
  -38.9713   61.0146   66.1908 O   0  0  0  0  0  0  0  0  0  0  0  0
  -37.6680   62.1277   64.4522 O   0  0  0  0  0  0  0  0  0  0  0  0
  -38.2980   61.8096   63.7867 H   0  0  0  0  0  0  0  0  0  0  0  0
  -36.5263   61.6530   66.7132 O   0  0  0  0  0  0  0  0  0  0  0  0
  -35.8192   62.9230   66.7267 C   0  0  0  0  0  0  0  0  0  0  0  0
  -34.3573   62.7092   66.4216 C   0  0  0  0  0  0  0  0  0  0  0  0
  -33.8830   63.1388   65.0455 N   0  0  0  0  0  0  0  0  0  0  0  0
  -33.9357   61.9893   64.0910 C   0  0  0  0  0  0  0  0  0  0  0  0
  -32.4718   63.6153   65.1542 C   0  0  0  0  0  0  0  0  0  0  0  0
  -34.7438   64.2496   64.5149 C   0  0  0  0  0  0  0  0  0  0  0  0
 34 33  1  0  0  0
 34 35  1  0  0  0
 34 36  1  0  0  0
 34 37  1  0  0  0
 22 23  1  0  0  0
 22 25  1  0  0  0
 22 21  1  0  0  0
 23 24  1  0  0  0
 27 26  1  0  0  0
 27 28  2  0  0  0
 27 31  1  0  0  0
 27 29  1  0  0  0
 25 26  1  0  0  0
 32 33  1  0  0  0
 32 31  1  0  0  0
 29 30  1  0  0  0
 20 21  1  0  0  0
 20  2  1  0  0  0
  1  2  2  0  0  0
  2  3  1  0  0  0
  3  4  1  0  0  0
  4  5  1  0  0  0
  5  6  1  0  0  0
  6  7  1  0  0  0
  7  8  1  0  0  0
  8  9  1  0  0  0
  9 10  1  0  0  0
 10 11  2  0  0  0
 11 12  1  0  0  0
 12 13  1  0  0  0
 13 14  1  0  0  0
 14 15  1  0  0  0
 15 16  1  0  0  0
 16 17  1  0  0  0
 17 18  1  0  0  0
 18 19  1  0  0  0
M  CHG 1  28  -1
M  END
> <minimizedAffinity>
-7.99650

> <CNNscore>
0.6023323536

> <CNNaffinity>
6.3435149193

> <CNN_VS>
3.8209042549

> <CNNaffinity_variance>
0.2153417766

$$$$
/media/chris/experiments/cd1a-new-docking/inputs/ligands/4x6e_ligand.pdb


 37 36  0  0  0  0  0  0  0  0999 V2000
  -40.0404   58.6942   65.7710 O   0  0  0  0  0  0  0  0  0  0  0  0
  -40.3090   59.8305   66.0735 C   0  0  0  0  0  0  0  0  0  0  0  0
  -41.6772   60.3362   66.4139 C   0  0  0  0  0  0  0  0  0  0  0  0
  -42.5871   59.2599   66.9937 C   0  0  0  0  0  0  0  0  0  0  0  0
  -44.0047   59.2792   66.4481 C   0  0  0  0  0  0  0  0  0  0  0  0
  -44.2343   58.2813   65.3267 C   0  0  0  0  0  0  0  0  0  0  0  0
  -45.2022   58.7888   64.2716 C   0  0  0  0  0  0  0  0  0  0  0  0
  -45.8120   60.1207   64.6481 C   0  0  0  0  0  0  0  0  0  0  0  0
  -47.3094   60.2158   64.4369 C   0  0  0  0  0  0  0  0  0  0  0  0
  -47.9713   58.9103   64.2141 C   0  0  0  0  0  0  0  0  0  0  0  0
  -49.2403   58.7251   63.9138 C   0  0  0  0  0  0  0  0  0  0  0  0
  -50.2784   59.7765   63.6917 C   0  0  0  0  0  0  0  0  0  0  0  0
  -51.1338   59.4231   62.4740 C   0  0  0  0  0  0  0  0  0  0  0  0
  -50.9651   58.0052   61.9480 C   0  0  0  0  0  0  0  0  0  0  0  0
  -50.5359   57.9059   60.4892 C   0  0  0  0  0  0  0  0  0  0  0  0
  -49.2223   57.1567   60.2903 C   0  0  0  0  0  0  0  0  0  0  0  0
  -48.7899   57.0545   58.8363 C   0  0  0  0  0  0  0  0  0  0  0  0
  -47.7436   55.9902   58.5410 C   0  0  0  0  0  0  0  0  0  0  0  0
  -47.0145   56.2349   57.2557 C   0  0  0  0  0  0  0  0  0  0  0  0
  -39.4114   60.8163   66.1629 O   0  0  0  0  0  0  0  0  0  0  0  0
  -38.0379   60.4556   66.4281 C   0  0  0  0  0  0  0  0  0  0  0  0
  -37.0733   61.4845   65.8776 C   0  0  0  0  0  0  0  0  0  0  0  0
  -36.2898   62.0697   66.9265 O   0  0  0  0  0  0  0  0  0  0  0  0
  -35.7454   61.3843   67.3443 H   0  0  0  0  0  0  0  0  0  0  0  0
  -36.1546   60.9128   64.8233 C   0  0  0  0  0  0  0  0  0  0  0  0
  -36.8865   60.4685   63.6553 O   0  0  0  0  0  0  0  0  0  0  0  0
  -37.9243   61.2127   62.6831 P   0  0  0  0  0  0  0  0  0  0  0  0
  -37.3567   62.5897   62.3431 O   0  0  0  0  0  0  0  0  0  0  0  0
  -39.2024   61.3957   63.4053 O   0  0  0  0  0  0  0  0  0  0  0  0
  -39.0433   61.8925   64.2232 H   0  0  0  0  0  0  0  0  0  0  0  0
  -38.1497   60.3729   61.2871 O   0  0  0  0  0  0  0  0  0  0  0  0
  -37.9409   58.9456   61.1073 C   0  0  0  0  0  0  0  0  0  0  0  0
  -39.0290   58.3647   60.2386 C   0  0  0  0  0  0  0  0  0  0  0  0
  -40.3706   58.1226   60.9053 N   0  0  0  0  0  0  0  0  0  0  0  0
  -41.2012   59.3655   60.8773 C   0  0  0  0  0  0  0  0  0  0  0  0
  -40.1335   57.7290   62.3263 C   0  0  0  0  0  0  0  0  0  0  0  0
  -41.1171   57.0246   60.2028 C   0  0  0  0  0  0  0  0  0  0  0  0
 34 33  1  0  0  0
 34 35  1  0  0  0
 34 36  1  0  0  0
 34 37  1  0  0  0
 22 23  1  0  0  0
 22 25  1  0  0  0
 22 21  1  0  0  0
 23 24  1  0  0  0
 27 26  1  0  0  0
 27 28  2  0  0  0
 27 31  1  0  0  0
 27 29  1  0  0  0
 25 26  1  0  0  0
 32 33  1  0  0  0
 32 31  1  0  0  0
 29 30  1  0  0  0
 20 21  1  0  0  0
 20  2  1  0  0  0
  1  2  2  0  0  0
  2  3  1  0  0  0
  3  4  1  0  0  0
  4  5  1  0  0  0
  5  6  1  0  0  0
  6  7  1  0  0  0
  7  8  1  0  0  0
  8  9  1  0  0  0
  9 10  1  0  0  0
 10 11  2  0  0  0
 11 12  1  0  0  0
 12 13  1  0  0  0
 13 14  1  0  0  0
 14 15  1  0  0  0
 15 16  1  0  0  0
 16 17  1  0  0  0
 17 18  1  0  0  0
 18 19  1  0  0  0
M  CHG 1  28  -1
M  END
> <minimizedAffinity>
-8.06693

> <CNNscore>
0.5999941826

> <CNNaffinity>
6.7737565041

> <CNN_VS>
4.0642147064

> <CNNaffinity_variance>
0.0791955069

$$$$
/media/chris/experiments/cd1a-new-docking/inputs/ligands/4x6e_ligand.pdb


 37 36  0  0  0  0  0  0  0  0999 V2000
  -42.3775   55.4122   64.9426 O   0  0  0  0  0  0  0  0  0  0  0  0
  -42.5900   56.5947   65.0480 C   0  0  0  0  0  0  0  0  0  0  0  0
  -42.9434   57.3017   66.3204 C   0  0  0  0  0  0  0  0  0  0  0  0
  -44.4308   57.6114   66.4408 C   0  0  0  0  0  0  0  0  0  0  0  0
  -44.7438   59.0671   66.7413 C   0  0  0  0  0  0  0  0  0  0  0  0
  -45.3454   59.8118   65.5624 C   0  0  0  0  0  0  0  0  0  0  0  0
  -46.8539   59.6575   65.4722 C   0  0  0  0  0  0  0  0  0  0  0  0
  -47.4583   60.5531   64.4138 C   0  0  0  0  0  0  0  0  0  0  0  0
  -48.9646   60.4543   64.2830 C   0  0  0  0  0  0  0  0  0  0  0  0
  -49.4939   59.0793   64.4290 C   0  0  0  0  0  0  0  0  0  0  0  0
  -50.4164   58.5189   63.6743 C   0  0  0  0  0  0  0  0  0  0  0  0
  -51.1009   59.1192   62.4895 C   0  0  0  0  0  0  0  0  0  0  0  0
  -50.1057   59.3004   61.3423 C   0  0  0  0  0  0  0  0  0  0  0  0
  -50.2678   58.3324   60.1794 C   0  0  0  0  0  0  0  0  0  0  0  0
  -49.6855   56.9434   60.4113 C   0  0  0  0  0  0  0  0  0  0  0  0
  -48.5933   56.5667   59.4157 C   0  0  0  0  0  0  0  0  0  0  0  0
  -48.5805   57.4308   58.1648 C   0  0  0  0  0  0  0  0  0  0  0  0
  -47.5885   57.0087   57.0914 C   0  0  0  0  0  0  0  0  0  0  0  0
  -47.2949   55.5402   57.1186 C   0  0  0  0  0  0  0  0  0  0  0  0
  -42.5283   57.4624   64.0336 O   0  0  0  0  0  0  0  0  0  0  0  0
  -41.2219   57.8252   63.5352 C   0  0  0  0  0  0  0  0  0  0  0  0
  -40.8644   57.0481   62.2859 C   0  0  0  0  0  0  0  0  0  0  0  0
  -41.6669   57.4644   61.1727 O   0  0  0  0  0  0  0  0  0  0  0  0
  -41.4850   58.3961   60.9734 H   0  0  0  0  0  0  0  0  0  0  0  0
  -39.4025   57.1702   61.9252 C   0  0  0  0  0  0  0  0  0  0  0  0
  -38.9056   58.5134   62.1395 O   0  0  0  0  0  0  0  0  0  0  0  0
  -38.8023   59.7934   61.1767 P   0  0  0  0  0  0  0  0  0  0  0  0
  -40.1663   60.0111   60.5239 O   0  0  0  0  0  0  0  0  0  0  0  0
  -37.8123   59.5089   60.1148 O   0  0  0  0  0  0  0  0  0  0  0  0
  -38.0744   58.7077   59.6348 H   0  0  0  0  0  0  0  0  0  0  0  0
  -38.3946   61.1473   62.0168 O   0  0  0  0  0  0  0  0  0  0  0  0
  -38.3367   61.2675   63.4643 C   0  0  0  0  0  0  0  0  0  0  0  0
  -37.0315   61.8975   63.8835 C   0  0  0  0  0  0  0  0  0  0  0  0
  -36.1390   61.0679   64.7880 N   0  0  0  0  0  0  0  0  0  0  0  0
  -34.7464   61.0175   64.2465 C   0  0  0  0  0  0  0  0  0  0  0  0
  -36.6848   59.6793   64.8539 C   0  0  0  0  0  0  0  0  0  0  0  0
  -36.1007   61.6535   66.1708 C   0  0  0  0  0  0  0  0  0  0  0  0
 34 33  1  0  0  0
 34 35  1  0  0  0
 34 36  1  0  0  0
 34 37  1  0  0  0
 22 23  1  0  0  0
 22 25  1  0  0  0
 22 21  1  0  0  0
 23 24  1  0  0  0
 27 26  1  0  0  0
 27 28  2  0  0  0
 27 31  1  0  0  0
 27 29  1  0  0  0
 25 26  1  0  0  0
 32 33  1  0  0  0
 32 31  1  0  0  0
 29 30  1  0  0  0
 20 21  1  0  0  0
 20  2  1  0  0  0
  1  2  2  0  0  0
  2  3  1  0  0  0
  3  4  1  0  0  0
  4  5  1  0  0  0
  5  6  1  0  0  0
  6  7  1  0  0  0
  7  8  1  0  0  0
  8  9  1  0  0  0
  9 10  1  0  0  0
 10 11  2  0  0  0
 11 12  1  0  0  0
 12 13  1  0  0  0
 13 14  1  0  0  0
 14 15  1  0  0  0
 15 16  1  0  0  0
 16 17  1  0  0  0
 17 18  1  0  0  0
 18 19  1  0  0  0
M  CHG 1  28  -1
M  END
> <minimizedAffinity>
-8.07923

> <CNNscore>
0.5871685743

> <CNNaffinity>
6.7016172409

> <CNN_VS>
3.9349789619

> <CNNaffinity_variance>
0.3223283291

$$$$
