/media/chris/experiments/cd1a-new-docking/inputs/ligands/4x6e_ligand.pdb


 37 36  0  0  0  0  0  0  0  0999 V2000
  -42.4995   60.2422   66.7750 O   0  0  0  0  0  0  0  0  0  0  0  0
  -41.6521   59.5968   66.2093 C   0  0  0  0  0  0  0  0  0  0  0  0
  -41.9105   58.4338   65.3014 C   0  0  0  0  0  0  0  0  0  0  0  0
  -43.3664   58.3269   64.8638 C   0  0  0  0  0  0  0  0  0  0  0  0
  -44.1697   57.2793   65.6153 C   0  0  0  0  0  0  0  0  0  0  0  0
  -45.1443   57.8702   66.6188 C   0  0  0  0  0  0  0  0  0  0  0  0
  -46.4986   57.1822   66.6046 C   0  0  0  0  0  0  0  0  0  0  0  0
  -47.6380   58.1651   66.4525 C   0  0  0  0  0  0  0  0  0  0  0  0
  -48.8398   57.6321   65.6990 C   0  0  0  0  0  0  0  0  0  0  0  0
  -50.0278   58.5139   65.7570 C   0  0  0  0  0  0  0  0  0  0  0  0
  -50.4262   59.3417   64.8133 C   0  0  0  0  0  0  0  0  0  0  0  0
  -49.8034   59.5477   63.4708 C   0  0  0  0  0  0  0  0  0  0  0  0
  -50.5518   58.7351   62.4128 C   0  0  0  0  0  0  0  0  0  0  0  0
  -50.1109   58.9726   60.9759 C   0  0  0  0  0  0  0  0  0  0  0  0
  -50.3981   57.8246   60.0158 C   0  0  0  0  0  0  0  0  0  0  0  0
  -49.1947   57.4231   59.1690 C   0  0  0  0  0  0  0  0  0  0  0  0
  -48.5964   56.0792   59.5536 C   0  0  0  0  0  0  0  0  0  0  0  0
  -47.2156   55.7935   58.9824 C   0  0  0  0  0  0  0  0  0  0  0  0
  -47.1294   56.0639   57.5117 C   0  0  0  0  0  0  0  0  0  0  0  0
  -40.3403   59.8352   66.3005 O   0  0  0  0  0  0  0  0  0  0  0  0
  -39.4643   59.1437   65.3832 C   0  0  0  0  0  0  0  0  0  0  0  0
  -38.6413   60.1112   64.5592 C   0  0  0  0  0  0  0  0  0  0  0  0
  -39.4838   60.9667   63.7750 O   0  0  0  0  0  0  0  0  0  0  0  0
  -40.0307   61.5097   64.3640 H   0  0  0  0  0  0  0  0  0  0  0  0
  -37.7175   60.9547   65.4062 C   0  0  0  0  0  0  0  0  0  0  0  0
  -36.5805   61.4345   64.6483 O   0  0  0  0  0  0  0  0  0  0  0  0
  -36.3538   62.7500   63.7571 P   0  0  0  0  0  0  0  0  0  0  0  0
  -36.5866   63.9727   64.6431 O   0  0  0  0  0  0  0  0  0  0  0  0
  -37.3535   62.7618   62.6668 O   0  0  0  0  0  0  0  0  0  0  0  0
  -38.2456   62.7234   63.0456 H   0  0  0  0  0  0  0  0  0  0  0  0
  -34.8240   62.8141   63.1567 O   0  0  0  0  0  0  0  0  0  0  0  0
  -33.8763   63.8989   63.3513 C   0  0  0  0  0  0  0  0  0  0  0  0
  -33.1836   63.7536   64.6836 C   0  0  0  0  0  0  0  0  0  0  0  0
  -32.9120   65.0354   65.4488 N   0  0  0  0  0  0  0  0  0  0  0  0
  -33.2718   66.2265   64.6200 C   0  0  0  0  0  0  0  0  0  0  0  0
  -31.4567   65.0952   65.7787 C   0  0  0  0  0  0  0  0  0  0  0  0
  -33.7119   65.0696   66.7198 C   0  0  0  0  0  0  0  0  0  0  0  0
 34 33  1  0  0  0
 34 35  1  0  0  0
 34 36  1  0  0  0
 34 37  1  0  0  0
 22 23  1  0  0  0
 22 25  1  0  0  0
 22 21  1  0  0  0
 23 24  1  0  0  0
 27 26  1  0  0  0
 27 28  2  0  0  0
 27 31  1  0  0  0
 27 29  1  0  0  0
 25 26  1  0  0  0
 32 33  1  0  0  0
 32 31  1  0  0  0
 29 30  1  0  0  0
 20 21  1  0  0  0
 20  2  1  0  0  0
  1  2  2  0  0  0
  2  3  1  0  0  0
  3  4  1  0  0  0
  4  5  1  0  0  0
  5  6  1  0  0  0
  6  7  1  0  0  0
  7  8  1  0  0  0
  8  9  1  0  0  0
  9 10  1  0  0  0
 10 11  2  0  0  0
 11 12  1  0  0  0
 12 13  1  0  0  0
 13 14  1  0  0  0
 14 15  1  0  0  0
 15 16  1  0  0  0
 16 17  1  0  0  0
 17 18  1  0  0  0
 18 19  1  0  0  0
M  CHG 1  28  -1
M  END
> <minimizedAffinity>
-7.67580

> <CNNscore>
0.7439160943

> <CNNaffinity>
6.3526749611

> <CNN_VS>
4.7258572578

> <CNNaffinity_variance>
0.3086557984

$$$$
/media/chris/experiments/cd1a-new-docking/inputs/ligands/4x6e_ligand.pdb


 37 36  0  0  0  0  0  0  0  0999 V2000
  -41.1639   60.8542   64.5321 O   0  0  0  0  0  0  0  0  0  0  0  0
  -40.7171   60.2821   65.4953 C   0  0  0  0  0  0  0  0  0  0  0  0
  -41.2272   58.9866   66.0476 C   0  0  0  0  0  0  0  0  0  0  0  0
  -42.2546   59.1714   67.1580 C   0  0  0  0  0  0  0  0  0  0  0  0
  -43.6473   59.5288   66.6677 C   0  0  0  0  0  0  0  0  0  0  0  0
  -44.5247   58.3177   66.4046 C   0  0  0  0  0  0  0  0  0  0  0  0
  -45.9400   58.4865   66.9297 C   0  0  0  0  0  0  0  0  0  0  0  0
  -46.8101   57.2876   66.6250 C   0  0  0  0  0  0  0  0  0  0  0  0
  -48.0886   57.6049   65.8761 C   0  0  0  0  0  0  0  0  0  0  0  0
  -47.8841   58.3967   64.6419 C   0  0  0  0  0  0  0  0  0  0  0  0
  -48.8286   58.8282   63.8317 C   0  0  0  0  0  0  0  0  0  0  0  0
  -50.3041   58.6555   63.9918 C   0  0  0  0  0  0  0  0  0  0  0  0
  -51.0072   58.8625   62.6492 C   0  0  0  0  0  0  0  0  0  0  0  0
  -50.1577   59.5008   61.5599 C   0  0  0  0  0  0  0  0  0  0  0  0
  -50.0154   58.6751   60.2871 C   0  0  0  0  0  0  0  0  0  0  0  0
  -50.2499   57.1831   60.4995 C   0  0  0  0  0  0  0  0  0  0  0  0
  -49.0640   56.3152   60.1090 C   0  0  0  0  0  0  0  0  0  0  0  0
  -48.3443   56.7308   58.8347 C   0  0  0  0  0  0  0  0  0  0  0  0
  -47.1677   55.8580   58.5226 C   0  0  0  0  0  0  0  0  0  0  0  0
  -39.6789   60.7193   66.2142 O   0  0  0  0  0  0  0  0  0  0  0  0
  -38.3767   60.1653   65.9237 C   0  0  0  0  0  0  0  0  0  0  0  0
  -37.4746   61.1795   65.2531 C   0  0  0  0  0  0  0  0  0  0  0  0
  -37.4103   62.3941   66.0127 O   0  0  0  0  0  0  0  0  0  0  0  0
  -37.0157   62.2124   66.8800 H   0  0  0  0  0  0  0  0  0  0  0  0
  -36.0766   60.6530   65.0276 C   0  0  0  0  0  0  0  0  0  0  0  0
  -35.9342   60.0467   63.7202 O   0  0  0  0  0  0  0  0  0  0  0  0
  -36.1480   58.5445   63.1970 P   0  0  0  0  0  0  0  0  0  0  0  0
  -36.3737   57.6440   64.4104 O   0  0  0  0  0  0  0  0  0  0  0  0
  -34.9164   58.1035   62.5063 O   0  0  0  0  0  0  0  0  0  0  0  0
  -34.1619   58.1783   63.1113 H   0  0  0  0  0  0  0  0  0  0  0  0
  -37.4543   58.4331   62.2039 O   0  0  0  0  0  0  0  0  0  0  0  0
  -38.4320   57.3574   62.1985 C   0  0  0  0  0  0  0  0  0  0  0  0
  -39.7952   57.8899   62.5650 C   0  0  0  0  0  0  0  0  0  0  0  0
  -40.6866   58.3180   61.4141 N   0  0  0  0  0  0  0  0  0  0  0  0
  -40.5265   57.3889   60.2538 C   0  0  0  0  0  0  0  0  0  0  0  0
  -40.2923   59.6950   60.9915 C   0  0  0  0  0  0  0  0  0  0  0  0
  -42.1280   58.3210   61.8374 C   0  0  0  0  0  0  0  0  0  0  0  0
 34 33  1  0  0  0
 34 35  1  0  0  0
 34 36  1  0  0  0
 34 37  1  0  0  0
 22 23  1  0  0  0
 22 25  1  0  0  0
 22 21  1  0  0  0
 23 24  1  0  0  0
 27 26  1  0  0  0
 27 28  2  0  0  0
 27 31  1  0  0  0
 27 29  1  0  0  0
 25 26  1  0  0  0
 32 33  1  0  0  0
 32 31  1  0  0  0
 29 30  1  0  0  0
 20 21  1  0  0  0
 20  2  1  0  0  0
  1  2  2  0  0  0
  2  3  1  0  0  0
  3  4  1  0  0  0
  4  5  1  0  0  0
  5  6  1  0  0  0
  6  7  1  0  0  0
  7  8  1  0  0  0
  8  9  1  0  0  0
  9 10  1  0  0  0
 10 11  2  0  0  0
 11 12  1  0  0  0
 12 13  1  0  0  0
 13 14  1  0  0  0
 14 15  1  0  0  0
 15 16  1  0  0  0
 16 17  1  0  0  0
 17 18  1  0  0  0
 18 19  1  0  0  0
M  CHG 1  28  -1
M  END
> <minimizedAffinity>
-8.06178

> <CNNscore>
0.7207901478

> <CNNaffinity>
7.0411119461

> <CNN_VS>
5.0751643181

> <CNNaffinity_variance>
0.1124851927

$$$$
/media/chris/experiments/cd1a-new-docking/inputs/ligands/4x6e_ligand.pdb


 37 36  0  0  0  0  0  0  0  0999 V2000
  -40.3109   60.9107   66.1133 O   0  0  0  0  0  0  0  0  0  0  0  0
  -41.1235   60.0243   66.0191 C   0  0  0  0  0  0  0  0  0  0  0  0
  -42.3573   59.8872   66.8573 C   0  0  0  0  0  0  0  0  0  0  0  0
  -42.7744   58.4380   67.0774 C   0  0  0  0  0  0  0  0  0  0  0  0
  -44.0817   58.0548   66.4052 C   0  0  0  0  0  0  0  0  0  0  0  0
  -45.2524   58.9296   66.8176 C   0  0  0  0  0  0  0  0  0  0  0  0
  -46.4803   58.7245   65.9472 C   0  0  0  0  0  0  0  0  0  0  0  0
  -47.2436   60.0106   65.7226 C   0  0  0  0  0  0  0  0  0  0  0  0
  -48.6666   60.0036   66.2434 C   0  0  0  0  0  0  0  0  0  0  0  0
  -49.4684   58.8435   65.7923 C   0  0  0  0  0  0  0  0  0  0  0  0
  -50.3753   58.8517   64.8374 C   0  0  0  0  0  0  0  0  0  0  0  0
  -50.7682   60.0069   63.9749 C   0  0  0  0  0  0  0  0  0  0  0  0
  -50.9757   59.5408   62.5329 C   0  0  0  0  0  0  0  0  0  0  0  0
  -50.8883   58.0374   62.3146 C   0  0  0  0  0  0  0  0  0  0  0  0
  -50.8437   57.5997   60.8557 C   0  0  0  0  0  0  0  0  0  0  0  0
  -49.9418   58.4695   59.9861 C   0  0  0  0  0  0  0  0  0  0  0  0
  -49.1488   57.6866   58.9516 C   0  0  0  0  0  0  0  0  0  0  0  0
  -48.3678   56.4982   59.4922 C   0  0  0  0  0  0  0  0  0  0  0  0
  -47.5173   55.8407   58.4492 C   0  0  0  0  0  0  0  0  0  0  0  0
  -41.0482   59.0272   65.1327 O   0  0  0  0  0  0  0  0  0  0  0  0
  -41.1448   59.3627   63.7309 C   0  0  0  0  0  0  0  0  0  0  0  0
  -41.4970   58.1541   62.8897 C   0  0  0  0  0  0  0  0  0  0  0  0
  -42.8420   57.7250   63.1415 O   0  0  0  0  0  0  0  0  0  0  0  0
  -43.4592   58.4261   62.8800 H   0  0  0  0  0  0  0  0  0  0  0  0
  -41.3177   58.4045   61.4107 C   0  0  0  0  0  0  0  0  0  0  0  0
  -40.1100   59.1543   61.1342 O   0  0  0  0  0  0  0  0  0  0  0  0
  -38.5544   58.7717   61.2337 P   0  0  0  0  0  0  0  0  0  0  0  0
  -38.0061   58.6297   59.8147 O   0  0  0  0  0  0  0  0  0  0  0  0
  -38.4303   57.4666   61.9189 O   0  0  0  0  0  0  0  0  0  0  0  0
  -38.9433   56.7986   61.4377 H   0  0  0  0  0  0  0  0  0  0  0  0
  -37.6974   59.9352   62.0191 O   0  0  0  0  0  0  0  0  0  0  0  0
  -37.3226   59.9165   63.4234 C   0  0  0  0  0  0  0  0  0  0  0  0
  -37.5335   61.2781   64.0377 C   0  0  0  0  0  0  0  0  0  0  0  0
  -36.3919   61.8287   64.8720 N   0  0  0  0  0  0  0  0  0  0  0  0
  -36.2746   63.3078   64.6882 C   0  0  0  0  0  0  0  0  0  0  0  0
  -35.1211   61.1821   64.4280 C   0  0  0  0  0  0  0  0  0  0  0  0
  -36.6159   61.5374   66.3285 C   0  0  0  0  0  0  0  0  0  0  0  0
 34 33  1  0  0  0
 34 35  1  0  0  0
 34 36  1  0  0  0
 34 37  1  0  0  0
 22 23  1  0  0  0
 22 25  1  0  0  0
 22 21  1  0  0  0
 23 24  1  0  0  0
 27 26  1  0  0  0
 27 28  2  0  0  0
 27 31  1  0  0  0
 27 29  1  0  0  0
 25 26  1  0  0  0
 32 33  1  0  0  0
 32 31  1  0  0  0
 29 30  1  0  0  0
 20 21  1  0  0  0
 20  2  1  0  0  0
  1  2  2  0  0  0
  2  3  1  0  0  0
  3  4  1  0  0  0
  4  5  1  0  0  0
  5  6  1  0  0  0
  6  7  1  0  0  0
  7  8  1  0  0  0
  8  9  1  0  0  0
  9 10  1  0  0  0
 10 11  2  0  0  0
 11 12  1  0  0  0
 12 13  1  0  0  0
 13 14  1  0  0  0
 14 15  1  0  0  0
 15 16  1  0  0  0
 16 17  1  0  0  0
 17 18  1  0  0  0
 18 19  1  0  0  0
M  CHG 1  28  -1
M  END
> <minimizedAffinity>
-7.87593

> <CNNscore>
0.6215896606

> <CNNaffinity>
6.6632699966

> <CNN_VS>
4.1418199539

> <CNNaffinity_variance>
0.2291451246

$$$$
/media/chris/experiments/cd1a-new-docking/inputs/ligands/4x6e_ligand.pdb


 37 36  0  0  0  0  0  0  0  0999 V2000
  -42.5168   56.9708   64.8044 O   0  0  0  0  0  0  0  0  0  0  0  0
  -43.1203   58.0081   64.9251 C   0  0  0  0  0  0  0  0  0  0  0  0
  -44.4237   58.3345   64.2632 C   0  0  0  0  0  0  0  0  0  0  0  0
  -44.6539   59.8320   64.0986 C   0  0  0  0  0  0  0  0  0  0  0  0
  -45.9576   60.3334   64.6958 C   0  0  0  0  0  0  0  0  0  0  0  0
  -46.2363   59.7855   66.0844 C   0  0  0  0  0  0  0  0  0  0  0  0
  -47.7173   59.5831   66.3547 C   0  0  0  0  0  0  0  0  0  0  0  0
  -48.1489   58.1507   66.1325 C   0  0  0  0  0  0  0  0  0  0  0  0
  -49.4750   57.9908   65.4168 C   0  0  0  0  0  0  0  0  0  0  0  0
  -50.4104   59.1203   65.6206 C   0  0  0  0  0  0  0  0  0  0  0  0
  -50.7760   59.9986   64.7099 C   0  0  0  0  0  0  0  0  0  0  0  0
  -50.3688   60.0320   63.2726 C   0  0  0  0  0  0  0  0  0  0  0  0
  -51.1760   59.0081   62.4727 C   0  0  0  0  0  0  0  0  0  0  0  0
  -50.4909   58.4682   61.2258 C   0  0  0  0  0  0  0  0  0  0  0  0
  -49.3692   57.4706   61.4879 C   0  0  0  0  0  0  0  0  0  0  0  0
  -48.9709   56.6644   60.2560 C   0  0  0  0  0  0  0  0  0  0  0  0
  -49.2514   57.3757   58.9417 C   0  0  0  0  0  0  0  0  0  0  0  0
  -48.1958   57.1895   57.8621 C   0  0  0  0  0  0  0  0  0  0  0  0
  -47.3364   55.9847   58.0932 C   0  0  0  0  0  0  0  0  0  0  0  0
  -42.7156   59.0283   65.6875 O   0  0  0  0  0  0  0  0  0  0  0  0
  -41.3282   59.0612   66.0886 C   0  0  0  0  0  0  0  0  0  0  0  0
  -40.4995   59.9283   65.1646 C   0  0  0  0  0  0  0  0  0  0  0  0
  -41.2148   61.1136   64.7907 O   0  0  0  0  0  0  0  0  0  0  0  0
  -41.3887   61.6489   65.5807 H   0  0  0  0  0  0  0  0  0  0  0  0
  -39.1692   60.3133   65.7682 C   0  0  0  0  0  0  0  0  0  0  0  0
  -38.0782   60.1172   64.8363 O   0  0  0  0  0  0  0  0  0  0  0  0
  -37.4546   58.7994   64.1650 P   0  0  0  0  0  0  0  0  0  0  0  0
  -38.3102   57.6028   64.5778 O   0  0  0  0  0  0  0  0  0  0  0  0
  -36.0857   58.6026   64.6900 O   0  0  0  0  0  0  0  0  0  0  0  0
  -36.1160   58.5433   65.6578 H   0  0  0  0  0  0  0  0  0  0  0  0
  -37.4482   58.9053   62.5237 O   0  0  0  0  0  0  0  0  0  0  0  0
  -38.2906   58.1433   61.6167 C   0  0  0  0  0  0  0  0  0  0  0  0
  -39.6693   58.7522   61.5498 C   0  0  0  0  0  0  0  0  0  0  0  0
  -40.8002   57.8246   61.1460 N   0  0  0  0  0  0  0  0  0  0  0  0
  -40.5662   57.2799   59.7735 C   0  0  0  0  0  0  0  0  0  0  0  0
  -42.0772   58.5988   61.1498 C   0  0  0  0  0  0  0  0  0  0  0  0
  -40.9106   56.6781   62.1103 C   0  0  0  0  0  0  0  0  0  0  0  0
 34 33  1  0  0  0
 34 35  1  0  0  0
 34 36  1  0  0  0
 34 37  1  0  0  0
 22 23  1  0  0  0
 22 25  1  0  0  0
 22 21  1  0  0  0
 23 24  1  0  0  0
 27 26  1  0  0  0
 27 28  2  0  0  0
 27 31  1  0  0  0
 27 29  1  0  0  0
 25 26  1  0  0  0
 32 33  1  0  0  0
 32 31  1  0  0  0
 29 30  1  0  0  0
 20 21  1  0  0  0
 20  2  1  0  0  0
  1  2  2  0  0  0
  2  3  1  0  0  0
  3  4  1  0  0  0
  4  5  1  0  0  0
  5  6  1  0  0  0
  6  7  1  0  0  0
  7  8  1  0  0  0
  8  9  1  0  0  0
  9 10  1  0  0  0
 10 11  2  0  0  0
 11 12  1  0  0  0
 12 13  1  0  0  0
 13 14  1  0  0  0
 14 15  1  0  0  0
 15 16  1  0  0  0
 16 17  1  0  0  0
 17 18  1  0  0  0
 18 19  1  0  0  0
M  CHG 1  28  -1
M  END
> <minimizedAffinity>
-7.61172

> <CNNscore>
0.5539493561

> <CNNaffinity>
6.9169096947

> <CNN_VS>
3.8316175938

> <CNNaffinity_variance>
0.4152005315

$$$$
/media/chris/experiments/cd1a-new-docking/inputs/ligands/4x6e_ligand.pdb


 37 36  0  0  0  0  0  0  0  0999 V2000
  -41.2821   58.2718   64.2260 O   0  0  0  0  0  0  0  0  0  0  0  0
  -41.5801   58.2683   63.0572 C   0  0  0  0  0  0  0  0  0  0  0  0
  -42.9762   58.3364   62.5187 C   0  0  0  0  0  0  0  0  0  0  0  0
  -43.8508   59.3500   63.2468 C   0  0  0  0  0  0  0  0  0  0  0  0
  -44.8607   58.7338   64.1997 C   0  0  0  0  0  0  0  0  0  0  0  0
  -45.7567   59.7570   64.8751 C   0  0  0  0  0  0  0  0  0  0  0  0
  -45.8048   59.5969   66.3849 C   0  0  0  0  0  0  0  0  0  0  0  0
  -47.1234   59.0271   66.8581 C   0  0  0  0  0  0  0  0  0  0  0  0
  -48.3392   59.5326   66.1081 C   0  0  0  0  0  0  0  0  0  0  0  0
  -49.2989   58.4707   65.7293 C   0  0  0  0  0  0  0  0  0  0  0  0
  -50.3583   58.6206   64.9614 C   0  0  0  0  0  0  0  0  0  0  0  0
  -50.8053   59.8691   64.2729 C   0  0  0  0  0  0  0  0  0  0  0  0
  -50.8386   59.6526   62.7590 C   0  0  0  0  0  0  0  0  0  0  0  0
  -50.2605   58.3302   62.2766 C   0  0  0  0  0  0  0  0  0  0  0  0
  -51.0955   57.6067   61.2271 C   0  0  0  0  0  0  0  0  0  0  0  0
  -50.5843   57.7994   59.8031 C   0  0  0  0  0  0  0  0  0  0  0  0
  -49.0948   57.5375   59.6466 C   0  0  0  0  0  0  0  0  0  0  0  0
  -48.6876   56.0716   59.6465 C   0  0  0  0  0  0  0  0  0  0  0  0
  -47.3116   55.8523   59.0969 C   0  0  0  0  0  0  0  0  0  0  0  0
  -40.6960   58.2151   62.0566 O   0  0  0  0  0  0  0  0  0  0  0  0
  -40.2669   59.4632   61.4692 C   0  0  0  0  0  0  0  0  0  0  0  0
  -38.9355   59.9165   62.0297 C   0  0  0  0  0  0  0  0  0  0  0  0
  -38.1041   60.4695   61.0004 O   0  0  0  0  0  0  0  0  0  0  0  0
  -38.5274   61.2616   60.6338 H   0  0  0  0  0  0  0  0  0  0  0  0
  -39.0883   60.9220   63.1468 C   0  0  0  0  0  0  0  0  0  0  0  0
  -37.9495   60.9099   64.0414 O   0  0  0  0  0  0  0  0  0  0  0  0
  -36.9150   62.0527   64.4886 P   0  0  0  0  0  0  0  0  0  0  0  0
  -37.3142   62.5397   65.8806 O   0  0  0  0  0  0  0  0  0  0  0  0
  -37.0238   63.1862   63.5443 O   0  0  0  0  0  0  0  0  0  0  0  0
  -37.9396   63.5055   63.5266 H   0  0  0  0  0  0  0  0  0  0  0  0
  -35.3745   61.4799   64.5490 O   0  0  0  0  0  0  0  0  0  0  0  0
  -34.1667   62.2558   64.3210 C   0  0  0  0  0  0  0  0  0  0  0  0
  -33.8193   63.0542   65.5530 C   0  0  0  0  0  0  0  0  0  0  0  0
  -33.1299   64.3865   65.3243 N   0  0  0  0  0  0  0  0  0  0  0  0
  -33.3658   65.3037   66.4811 C   0  0  0  0  0  0  0  0  0  0  0  0
  -33.6919   65.0089   64.0887 C   0  0  0  0  0  0  0  0  0  0  0  0
  -31.6502   64.1913   65.1543 C   0  0  0  0  0  0  0  0  0  0  0  0
 34 33  1  0  0  0
 34 35  1  0  0  0
 34 36  1  0  0  0
 34 37  1  0  0  0
 22 23  1  0  0  0
 22 25  1  0  0  0
 22 21  1  0  0  0
 23 24  1  0  0  0
 27 26  1  0  0  0
 27 28  2  0  0  0
 27 31  1  0  0  0
 27 29  1  0  0  0
 25 26  1  0  0  0
 32 33  1  0  0  0
 32 31  1  0  0  0
 29 30  1  0  0  0
 20 21  1  0  0  0
 20  2  1  0  0  0
  1  2  2  0  0  0
  2  3  1  0  0  0
  3  4  1  0  0  0
  4  5  1  0  0  0
  5  6  1  0  0  0
  6  7  1  0  0  0
  7  8  1  0  0  0
  8  9  1  0  0  0
  9 10  1  0  0  0
 10 11  2  0  0  0
 11 12  1  0  0  0
 12 13  1  0  0  0
 13 14  1  0  0  0
 14 15  1  0  0  0
 15 16  1  0  0  0
 16 17  1  0  0  0
 17 18  1  0  0  0
 18 19  1  0  0  0
M  CHG 1  28  -1
M  END
> <minimizedAffinity>
-8.04654

> <CNNscore>
0.5162129402

> <CNNaffinity>
6.2216663361

> <CNN_VS>
3.2117047310

> <CNNaffinity_variance>
0.3374603987

$$$$
/media/chris/experiments/cd1a-new-docking/inputs/ligands/4x6e_ligand.pdb


 37 36  0  0  0  0  0  0  0  0999 V2000
  -42.8262   60.8547   60.9248 O   0  0  0  0  0  0  0  0  0  0  0  0
  -42.2486   60.5848   61.9486 C   0  0  0  0  0  0  0  0  0  0  0  0
  -42.8831   60.4879   63.3020 C   0  0  0  0  0  0  0  0  0  0  0  0
  -43.8523   59.3185   63.4274 C   0  0  0  0  0  0  0  0  0  0  0  0
  -44.8858   59.4785   64.5291 C   0  0  0  0  0  0  0  0  0  0  0  0
  -46.2894   59.0862   64.1027 C   0  0  0  0  0  0  0  0  0  0  0  0
  -47.1828   58.7173   65.2744 C   0  0  0  0  0  0  0  0  0  0  0  0
  -48.4192   57.9644   64.8363 C   0  0  0  0  0  0  0  0  0  0  0  0
  -49.7148   58.4631   65.4436 C   0  0  0  0  0  0  0  0  0  0  0  0
  -50.0407   59.8662   65.1012 C   0  0  0  0  0  0  0  0  0  0  0  0
  -50.6456   60.2769   64.0057 C   0  0  0  0  0  0  0  0  0  0  0  0
  -51.1710   59.4298   62.8925 C   0  0  0  0  0  0  0  0  0  0  0  0
  -50.2000   59.4518   61.7107 C   0  0  0  0  0  0  0  0  0  0  0  0
  -50.3806   58.3309   60.6976 C   0  0  0  0  0  0  0  0  0  0  0  0
  -49.6017   57.0567   61.0010 C   0  0  0  0  0  0  0  0  0  0  0  0
  -48.8546   56.4977   59.7946 C   0  0  0  0  0  0  0  0  0  0  0  0
  -48.8746   57.4157   58.5827 C   0  0  0  0  0  0  0  0  0  0  0  0
  -47.8433   57.1006   57.5096 C   0  0  0  0  0  0  0  0  0  0  0  0
  -47.0217   55.8906   57.8327 C   0  0  0  0  0  0  0  0  0  0  0  0
  -40.9418   60.3164   62.0257 O   0  0  0  0  0  0  0  0  0  0  0  0
  -40.2395   60.0268   60.7969 C   0  0  0  0  0  0  0  0  0  0  0  0
  -38.7685   59.7653   61.0418 C   0  0  0  0  0  0  0  0  0  0  0  0
  -38.1781   60.8220   61.8108 O   0  0  0  0  0  0  0  0  0  0  0  0
  -38.5961   60.8577   62.6854 H   0  0  0  0  0  0  0  0  0  0  0  0
  -38.5209   58.4437   61.7305 C   0  0  0  0  0  0  0  0  0  0  0  0
  -37.1069   58.1846   61.9058 O   0  0  0  0  0  0  0  0  0  0  0  0
  -36.1353   58.3098   63.1771 P   0  0  0  0  0  0  0  0  0  0  0  0
  -34.7922   57.6778   62.8155 O   0  0  0  0  0  0  0  0  0  0  0  0
  -36.7253   57.5503   64.3011 O   0  0  0  0  0  0  0  0  0  0  0  0
  -36.8620   56.6284   64.0320 H   0  0  0  0  0  0  0  0  0  0  0  0
  -35.8867   59.8817   63.5924 O   0  0  0  0  0  0  0  0  0  0  0  0
  -34.6098   60.4778   63.9487 C   0  0  0  0  0  0  0  0  0  0  0  0
  -34.6765   61.0616   65.3382 C   0  0  0  0  0  0  0  0  0  0  0  0
  -35.3502   62.4147   65.4725 N   0  0  0  0  0  0  0  0  0  0  0  0
  -35.1904   63.2065   64.2145 C   0  0  0  0  0  0  0  0  0  0  0  0
  -34.7092   63.1575   66.5984 C   0  0  0  0  0  0  0  0  0  0  0  0
  -36.8156   62.2473   65.7572 C   0  0  0  0  0  0  0  0  0  0  0  0
 34 33  1  0  0  0
 34 35  1  0  0  0
 34 36  1  0  0  0
 34 37  1  0  0  0
 22 23  1  0  0  0
 22 25  1  0  0  0
 22 21  1  0  0  0
 23 24  1  0  0  0
 27 26  1  0  0  0
 27 28  2  0  0  0
 27 31  1  0  0  0
 27 29  1  0  0  0
 25 26  1  0  0  0
 32 33  1  0  0  0
 32 31  1  0  0  0
 29 30  1  0  0  0
 20 21  1  0  0  0
 20  2  1  0  0  0
  1  2  2  0  0  0
  2  3  1  0  0  0
  3  4  1  0  0  0
  4  5  1  0  0  0
  5  6  1  0  0  0
  6  7  1  0  0  0
  7  8  1  0  0  0
  8  9  1  0  0  0
  9 10  1  0  0  0
 10 11  2  0  0  0
 11 12  1  0  0  0
 12 13  1  0  0  0
 13 14  1  0  0  0
 14 15  1  0  0  0
 15 16  1  0  0  0
 16 17  1  0  0  0
 17 18  1  0  0  0
 18 19  1  0  0  0
M  CHG 1  28  -1
M  END
> <minimizedAffinity>
-7.81891

> <CNNscore>
0.5093958378

> <CNNaffinity>
6.3941373825

> <CNN_VS>
3.2571470737

> <CNNaffinity_variance>
0.3942026496

$$$$
/media/chris/experiments/cd1a-new-docking/inputs/ligands/4x6e_ligand.pdb


 37 36  0  0  0  0  0  0  0  0999 V2000
  -41.6847   56.1297   64.4881 O   0  0  0  0  0  0  0  0  0  0  0  0
  -42.2129   57.1837   64.7425 C   0  0  0  0  0  0  0  0  0  0  0  0
  -43.6850   57.3941   64.9227 C   0  0  0  0  0  0  0  0  0  0  0  0
  -44.1804   58.7061   64.3263 C   0  0  0  0  0  0  0  0  0  0  0  0
  -44.6605   59.7176   65.3529 C   0  0  0  0  0  0  0  0  0  0  0  0
  -45.0685   59.0904   66.6743 C   0  0  0  0  0  0  0  0  0  0  0  0
  -46.5713   59.1010   66.8957 C   0  0  0  0  0  0  0  0  0  0  0  0
  -47.2129   57.7815   66.5290 C   0  0  0  0  0  0  0  0  0  0  0  0
  -48.3442   57.8826   65.5260 C   0  0  0  0  0  0  0  0  0  0  0  0
  -47.9458   58.4640   64.2239 C   0  0  0  0  0  0  0  0  0  0  0  0
  -48.4411   59.5552   63.6776 C   0  0  0  0  0  0  0  0  0  0  0  0
  -49.4744   60.4661   64.2567 C   0  0  0  0  0  0  0  0  0  0  0  0
  -50.8455   60.1589   63.6522 C   0  0  0  0  0  0  0  0  0  0  0  0
  -50.8222   59.5618   62.2528 C   0  0  0  0  0  0  0  0  0  0  0  0
  -50.9618   58.0454   62.1970 C   0  0  0  0  0  0  0  0  0  0  0  0
  -50.9392   57.4834   60.7793 C   0  0  0  0  0  0  0  0  0  0  0  0
  -50.0865   58.2913   59.8139 C   0  0  0  0  0  0  0  0  0  0  0  0
  -49.0055   57.5064   59.0859 C   0  0  0  0  0  0  0  0  0  0  0  0
  -48.7209   56.1820   59.7250 C   0  0  0  0  0  0  0  0  0  0  0  0
  -41.5527   58.3325   64.9158 O   0  0  0  0  0  0  0  0  0  0  0  0
  -40.2585   58.4674   64.2882 C   0  0  0  0  0  0  0  0  0  0  0  0
  -39.6551   59.8332   64.5390 C   0  0  0  0  0  0  0  0  0  0  0  0
  -40.6419   60.8651   64.4057 O   0  0  0  0  0  0  0  0  0  0  0  0
  -41.3288   60.7445   65.0800 H   0  0  0  0  0  0  0  0  0  0  0  0
  -38.9990   59.9373   65.8958 C   0  0  0  0  0  0  0  0  0  0  0  0
  -38.4076   61.2419   66.1090 O   0  0  0  0  0  0  0  0  0  0  0  0
  -36.9177   61.8002   65.8978 P   0  0  0  0  0  0  0  0  0  0  0  0
  -36.1267   60.7614   65.1044 O   0  0  0  0  0  0  0  0  0  0  0  0
  -36.2811   61.9649   67.2229 O   0  0  0  0  0  0  0  0  0  0  0  0
  -36.2929   61.1175   67.6949 H   0  0  0  0  0  0  0  0  0  0  0  0
  -36.9185   63.2170   65.0626 O   0  0  0  0  0  0  0  0  0  0  0  0
  -36.0581   63.5442   63.9376 C   0  0  0  0  0  0  0  0  0  0  0  0
  -34.8833   64.3690   64.4021 C   0  0  0  0  0  0  0  0  0  0  0  0
  -33.5401   63.6650   64.4538 N   0  0  0  0  0  0  0  0  0  0  0  0
  -33.1789   63.3288   65.8650 C   0  0  0  0  0  0  0  0  0  0  0  0
  -32.5007   64.5778   63.8909 C   0  0  0  0  0  0  0  0  0  0  0  0
  -33.5783   62.3978   63.6481 C   0  0  0  0  0  0  0  0  0  0  0  0
 34 33  1  0  0  0
 34 35  1  0  0  0
 34 36  1  0  0  0
 34 37  1  0  0  0
 22 23  1  0  0  0
 22 25  1  0  0  0
 22 21  1  0  0  0
 23 24  1  0  0  0
 27 26  1  0  0  0
 27 28  2  0  0  0
 27 31  1  0  0  0
 27 29  1  0  0  0
 25 26  1  0  0  0
 32 33  1  0  0  0
 32 31  1  0  0  0
 29 30  1  0  0  0
 20 21  1  0  0  0
 20  2  1  0  0  0
  1  2  2  0  0  0
  2  3  1  0  0  0
  3  4  1  0  0  0
  4  5  1  0  0  0
  5  6  1  0  0  0
  6  7  1  0  0  0
  7  8  1  0  0  0
  8  9  1  0  0  0
  9 10  1  0  0  0
 10 11  2  0  0  0
 11 12  1  0  0  0
 12 13  1  0  0  0
 13 14  1  0  0  0
 14 15  1  0  0  0
 15 16  1  0  0  0
 16 17  1  0  0  0
 17 18  1  0  0  0
 18 19  1  0  0  0
M  CHG 1  28  -1
M  END
> <minimizedAffinity>
-7.84136

> <CNNscore>
0.4659478366

> <CNNaffinity>
6.2018899918

> <CNN_VS>
2.8897571564

> <CNNaffinity_variance>
0.0595207438

$$$$
/media/chris/experiments/cd1a-new-docking/inputs/ligands/4x6e_ligand.pdb


 37 36  0  0  0  0  0  0  0  0999 V2000
  -42.6635   57.0073   64.4882 O   0  0  0  0  0  0  0  0  0  0  0  0
  -43.0848   58.1331   64.3897 C   0  0  0  0  0  0  0  0  0  0  0  0
  -44.4261   58.5115   63.8409 C   0  0  0  0  0  0  0  0  0  0  0  0
  -44.6554   60.0178   63.8036 C   0  0  0  0  0  0  0  0  0  0  0  0
  -45.8229   60.4935   64.6511 C   0  0  0  0  0  0  0  0  0  0  0  0
  -45.9841   59.7187   65.9471 C   0  0  0  0  0  0  0  0  0  0  0  0
  -47.4141   59.2703   66.1949 C   0  0  0  0  0  0  0  0  0  0  0  0
  -47.9314   58.3729   65.0929 C   0  0  0  0  0  0  0  0  0  0  0  0
  -49.4027   58.0252   65.1954 C   0  0  0  0  0  0  0  0  0  0  0  0
  -50.2865   59.1955   65.3984 C   0  0  0  0  0  0  0  0  0  0  0  0
  -50.6001   60.0974   64.4913 C   0  0  0  0  0  0  0  0  0  0  0  0
  -50.1751   60.1233   63.0590 C   0  0  0  0  0  0  0  0  0  0  0  0
  -50.8964   59.0251   62.2758 C   0  0  0  0  0  0  0  0  0  0  0  0
  -50.1695   58.5233   61.0367 C   0  0  0  0  0  0  0  0  0  0  0  0
  -49.3955   57.2243   61.2256 C   0  0  0  0  0  0  0  0  0  0  0  0
  -49.0424   56.5294   59.9147 C   0  0  0  0  0  0  0  0  0  0  0  0
  -49.1122   57.4414   58.7001 C   0  0  0  0  0  0  0  0  0  0  0  0
  -48.0543   57.1911   57.6358 C   0  0  0  0  0  0  0  0  0  0  0  0
  -47.2167   55.9832   57.9239 C   0  0  0  0  0  0  0  0  0  0  0  0
  -42.4128   59.2229   64.7725 O   0  0  0  0  0  0  0  0  0  0  0  0
  -41.4586   59.0833   65.8480 C   0  0  0  0  0  0  0  0  0  0  0  0
  -40.0331   59.1176   65.3389 C   0  0  0  0  0  0  0  0  0  0  0  0
  -39.7087   57.9122   64.6330 O   0  0  0  0  0  0  0  0  0  0  0  0
  -40.2745   57.8345   63.8490 H   0  0  0  0  0  0  0  0  0  0  0  0
  -39.7631   60.3089   64.4499 C   0  0  0  0  0  0  0  0  0  0  0  0
  -38.5363   60.9862   64.8154 O   0  0  0  0  0  0  0  0  0  0  0  0
  -37.2325   61.3900   63.9710 P   0  0  0  0  0  0  0  0  0  0  0  0
  -37.6685   62.3062   62.8287 O   0  0  0  0  0  0  0  0  0  0  0  0
  -36.6444   60.1626   63.3914 O   0  0  0  0  0  0  0  0  0  0  0  0
  -37.3090   59.7109   62.8482 H   0  0  0  0  0  0  0  0  0  0  0  0
  -36.1360   62.1881   64.9015 O   0  0  0  0  0  0  0  0  0  0  0  0
  -35.7742   63.5906   64.7794 C   0  0  0  0  0  0  0  0  0  0  0  0
  -34.3258   63.7225   64.3785 C   0  0  0  0  0  0  0  0  0  0  0  0
  -33.4500   64.5767   65.2761 N   0  0  0  0  0  0  0  0  0  0  0  0
  -32.1147   63.9332   65.4713 C   0  0  0  0  0  0  0  0  0  0  0  0
  -34.1200   64.7169   66.6034 C   0  0  0  0  0  0  0  0  0  0  0  0
  -33.2486   65.9383   64.6742 C   0  0  0  0  0  0  0  0  0  0  0  0
 34 33  1  0  0  0
 34 35  1  0  0  0
 34 36  1  0  0  0
 34 37  1  0  0  0
 22 23  1  0  0  0
 22 25  1  0  0  0
 22 21  1  0  0  0
 23 24  1  0  0  0
 27 26  1  0  0  0
 27 28  2  0  0  0
 27 31  1  0  0  0
 27 29  1  0  0  0
 25 26  1  0  0  0
 32 33  1  0  0  0
 32 31  1  0  0  0
 29 30  1  0  0  0
 20 21  1  0  0  0
 20  2  1  0  0  0
  1  2  2  0  0  0
  2  3  1  0  0  0
  3  4  1  0  0  0
  4  5  1  0  0  0
  5  6  1  0  0  0
  6  7  1  0  0  0
  7  8  1  0  0  0
  8  9  1  0  0  0
  9 10  1  0  0  0
 10 11  2  0  0  0
 11 12  1  0  0  0
 12 13  1  0  0  0
 13 14  1  0  0  0
 14 15  1  0  0  0
 15 16  1  0  0  0
 16 17  1  0  0  0
 17 18  1  0  0  0
 18 19  1  0  0  0
M  CHG 1  28  -1
M  END
> <minimizedAffinity>
-7.76887

> <CNNscore>
0.4641260505

> <CNNaffinity>
6.0839509964

> <CNN_VS>
2.8237202168

> <CNNaffinity_variance>
0.0707725734

$$$$
/media/chris/experiments/cd1a-new-docking/inputs/ligands/4x6e_ligand.pdb


 37 36  0  0  0  0  0  0  0  0999 V2000
  -42.5585   56.8417   64.0173 O   0  0  0  0  0  0  0  0  0  0  0  0
  -42.2099   57.7896   63.3580 C   0  0  0  0  0  0  0  0  0  0  0  0
  -43.0953   58.5857   62.4492 C   0  0  0  0  0  0  0  0  0  0  0  0
  -43.0091   60.0876   62.6928 C   0  0  0  0  0  0  0  0  0  0  0  0
  -43.7608   60.5654   63.9233 C   0  0  0  0  0  0  0  0  0  0  0  0
  -45.2400   60.2227   63.8988 C   0  0  0  0  0  0  0  0  0  0  0  0
  -45.8645   60.1956   65.2832 C   0  0  0  0  0  0  0  0  0  0  0  0
  -45.8611   58.8082   65.8853 C   0  0  0  0  0  0  0  0  0  0  0  0
  -46.8528   57.8447   65.2655 C   0  0  0  0  0  0  0  0  0  0  0  0
  -48.1091   57.6944   66.0344 C   0  0  0  0  0  0  0  0  0  0  0  0
  -49.2486   58.3062   65.7858 C   0  0  0  0  0  0  0  0  0  0  0  0
  -49.5423   59.2468   64.6625 C   0  0  0  0  0  0  0  0  0  0  0  0
  -50.7663   58.7672   63.8804 C   0  0  0  0  0  0  0  0  0  0  0  0
  -51.0891   59.5616   62.6234 C   0  0  0  0  0  0  0  0  0  0  0  0
  -50.0547   59.4535   61.5096 C   0  0  0  0  0  0  0  0  0  0  0  0
  -49.6260   58.0201   61.2135 C   0  0  0  0  0  0  0  0  0  0  0  0
  -50.0084   57.5417   59.8218 C   0  0  0  0  0  0  0  0  0  0  0  0
  -48.8542   57.4034   58.8404 C   0  0  0  0  0  0  0  0  0  0  0  0
  -48.0768   56.1379   59.0345 C   0  0  0  0  0  0  0  0  0  0  0  0
  -40.9684   58.2838   63.3505 O   0  0  0  0  0  0  0  0  0  0  0  0
  -40.2772   58.3891   64.6147 C   0  0  0  0  0  0  0  0  0  0  0  0
  -38.8654   57.8492   64.5267 C   0  0  0  0  0  0  0  0  0  0  0  0
  -38.4225   57.7838   63.1644 O   0  0  0  0  0  0  0  0  0  0  0  0
  -38.3941   58.6784   62.7904 H   0  0  0  0  0  0  0  0  0  0  0  0
  -37.8821   58.6613   65.3366 C   0  0  0  0  0  0  0  0  0  0  0  0
  -37.9653   60.0733   65.0258 O   0  0  0  0  0  0  0  0  0  0  0  0
  -36.8450   61.1754   64.6998 P   0  0  0  0  0  0  0  0  0  0  0  0
  -37.5472   62.5066   64.4369 O   0  0  0  0  0  0  0  0  0  0  0  0
  -36.1264   60.7717   63.4714 O   0  0  0  0  0  0  0  0  0  0  0  0
  -36.7611   60.6665   62.7454 H   0  0  0  0  0  0  0  0  0  0  0  0
  -35.8031   61.3652   65.9582 O   0  0  0  0  0  0  0  0  0  0  0  0
  -35.4176   62.6296   66.5628 C   0  0  0  0  0  0  0  0  0  0  0  0
  -33.9206   62.8047   66.4958 C   0  0  0  0  0  0  0  0  0  0  0  0
  -33.4126   63.9867   65.6912 N   0  0  0  0  0  0  0  0  0  0  0  0
  -33.5037   65.2447   66.4939 C   0  0  0  0  0  0  0  0  0  0  0  0
  -34.2567   64.1294   64.4675 C   0  0  0  0  0  0  0  0  0  0  0  0
  -31.9819   63.7724   65.2865 C   0  0  0  0  0  0  0  0  0  0  0  0
 34 33  1  0  0  0
 34 35  1  0  0  0
 34 36  1  0  0  0
 34 37  1  0  0  0
 22 23  1  0  0  0
 22 25  1  0  0  0
 22 21  1  0  0  0
 23 24  1  0  0  0
 27 26  1  0  0  0
 27 28  2  0  0  0
 27 31  1  0  0  0
 27 29  1  0  0  0
 25 26  1  0  0  0
 32 33  1  0  0  0
 32 31  1  0  0  0
 29 30  1  0  0  0
 20 21  1  0  0  0
 20  2  1  0  0  0
  1  2  2  0  0  0
  2  3  1  0  0  0
  3  4  1  0  0  0
  4  5  1  0  0  0
  5  6  1  0  0  0
  6  7  1  0  0  0
  7  8  1  0  0  0
  8  9  1  0  0  0
  9 10  1  0  0  0
 10 11  2  0  0  0
 11 12  1  0  0  0
 12 13  1  0  0  0
 13 14  1  0  0  0
 14 15  1  0  0  0
 15 16  1  0  0  0
 16 17  1  0  0  0
 17 18  1  0  0  0
 18 19  1  0  0  0
M  CHG 1  28  -1
M  END
> <minimizedAffinity>
-7.48639

> <CNNscore>
0.4160147607

> <CNNaffinity>
6.2071561813

> <CNN_VS>
2.5822684765

> <CNNaffinity_variance>
0.0992712453

$$$$
