/media/chris/experiments/cd1a-new-docking/inputs/ligands/4x6e_ligand.pdb


 37 36  0  0  0  0  0  0  0  0999 V2000
  -40.6792   60.3591   66.2468 O   0  0  0  0  0  0  0  0  0  0  0  0
  -41.1664   59.2602   66.1482 C   0  0  0  0  0  0  0  0  0  0  0  0
  -42.2428   58.7071   67.0310 C   0  0  0  0  0  0  0  0  0  0  0  0
  -42.9723   57.5195   66.4146 C   0  0  0  0  0  0  0  0  0  0  0  0
  -44.4863   57.6418   66.4252 C   0  0  0  0  0  0  0  0  0  0  0  0
  -44.9780   59.0298   66.7966 C   0  0  0  0  0  0  0  0  0  0  0  0
  -46.4922   59.1480   66.7705 C   0  0  0  0  0  0  0  0  0  0  0  0
  -47.1625   57.8368   66.4254 C   0  0  0  0  0  0  0  0  0  0  0  0
  -48.1630   57.9147   65.2900 C   0  0  0  0  0  0  0  0  0  0  0  0
  -49.5449   58.2216   65.7238 C   0  0  0  0  0  0  0  0  0  0  0  0
  -50.4203   58.9527   65.0651 C   0  0  0  0  0  0  0  0  0  0  0  0
  -50.2362   59.5966   63.7294 C   0  0  0  0  0  0  0  0  0  0  0  0
  -50.9496   58.7819   62.6492 C   0  0  0  0  0  0  0  0  0  0  0  0
  -50.2800   58.7830   61.2829 C   0  0  0  0  0  0  0  0  0  0  0  0
  -50.2000   57.4211   60.6036 C   0  0  0  0  0  0  0  0  0  0  0  0
  -49.2768   57.3991   59.3898 C   0  0  0  0  0  0  0  0  0  0  0  0
  -48.2178   56.3096   59.4455 C   0  0  0  0  0  0  0  0  0  0  0  0
  -47.5564   55.9756   58.1167 C   0  0  0  0  0  0  0  0  0  0  0  0
  -47.6561   57.0917   57.1229 C   0  0  0  0  0  0  0  0  0  0  0  0
  -40.8218   58.3665   65.2165 O   0  0  0  0  0  0  0  0  0  0  0  0
  -39.9096   58.7909   64.1799 C   0  0  0  0  0  0  0  0  0  0  0  0
  -38.7032   57.8808   64.0897 C   0  0  0  0  0  0  0  0  0  0  0  0
  -38.1107   57.9380   62.7850 O   0  0  0  0  0  0  0  0  0  0  0  0
  -37.7855   58.8362   62.6167 H   0  0  0  0  0  0  0  0  0  0  0  0
  -37.6565   58.1998   65.1314 C   0  0  0  0  0  0  0  0  0  0  0  0
  -37.7047   59.5898   65.5349 O   0  0  0  0  0  0  0  0  0  0  0  0
  -36.8972   60.8863   65.0421 P   0  0  0  0  0  0  0  0  0  0  0  0
  -37.6463   62.1273   65.5245 O   0  0  0  0  0  0  0  0  0  0  0  0
  -36.8738   60.8960   63.5630 O   0  0  0  0  0  0  0  0  0  0  0  0
  -37.7829   60.8786   63.2252 H   0  0  0  0  0  0  0  0  0  0  0  0
  -35.3721   60.9154   65.6572 O   0  0  0  0  0  0  0  0  0  0  0  0
  -34.6421   62.1022   66.0715 C   0  0  0  0  0  0  0  0  0  0  0  0
  -34.2344   62.9112   64.8651 C   0  0  0  0  0  0  0  0  0  0  0  0
  -33.4186   64.1623   65.1331 N   0  0  0  0  0  0  0  0  0  0  0  0
  -31.9639   63.8297   65.2235 C   0  0  0  0  0  0  0  0  0  0  0  0
  -33.8631   64.7532   66.4306 C   0  0  0  0  0  0  0  0  0  0  0  0
  -33.6190   65.1669   64.0343 C   0  0  0  0  0  0  0  0  0  0  0  0
 34 33  1  0  0  0
 34 35  1  0  0  0
 34 36  1  0  0  0
 34 37  1  0  0  0
 22 23  1  0  0  0
 22 25  1  0  0  0
 22 21  1  0  0  0
 23 24  1  0  0  0
 27 26  1  0  0  0
 27 28  2  0  0  0
 27 31  1  0  0  0
 27 29  1  0  0  0
 25 26  1  0  0  0
 32 33  1  0  0  0
 32 31  1  0  0  0
 29 30  1  0  0  0
 20 21  1  0  0  0
 20  2  1  0  0  0
  1  2  2  0  0  0
  2  3  1  0  0  0
  3  4  1  0  0  0
  4  5  1  0  0  0
  5  6  1  0  0  0
  6  7  1  0  0  0
  7  8  1  0  0  0
  8  9  1  0  0  0
  9 10  1  0  0  0
 10 11  2  0  0  0
 11 12  1  0  0  0
 12 13  1  0  0  0
 13 14  1  0  0  0
 14 15  1  0  0  0
 15 16  1  0  0  0
 16 17  1  0  0  0
 17 18  1  0  0  0
 18 19  1  0  0  0
M  CHG 1  28  -1
M  END
> <minimizedAffinity>
-8.10661

> <CNNscore>
0.8921822906

> <CNNaffinity>
6.6426515579

> <CNN_VS>
5.9264559746

> <CNNaffinity_variance>
0.3306010962

$$$$
/media/chris/experiments/cd1a-new-docking/inputs/ligands/4x6e_ligand.pdb


 37 36  0  0  0  0  0  0  0  0999 V2000
  -42.4082   55.9695   64.6882 O   0  0  0  0  0  0  0  0  0  0  0  0
  -42.6493   57.0609   65.1415 C   0  0  0  0  0  0  0  0  0  0  0  0
  -43.9612   57.7752   65.0297 C   0  0  0  0  0  0  0  0  0  0  0  0
  -44.8607   57.5698   66.2427 C   0  0  0  0  0  0  0  0  0  0  0  0
  -45.8464   58.6993   66.4882 C   0  0  0  0  0  0  0  0  0  0  0  0
  -46.2000   59.4766   65.2325 C   0  0  0  0  0  0  0  0  0  0  0  0
  -47.6637   59.3456   64.8477 C   0  0  0  0  0  0  0  0  0  0  0  0
  -48.3118   58.1284   65.4690 C   0  0  0  0  0  0  0  0  0  0  0  0
  -49.8212   58.2003   65.5811 C   0  0  0  0  0  0  0  0  0  0  0  0
  -50.3825   59.5441   65.3142 C   0  0  0  0  0  0  0  0  0  0  0  0
  -50.8985   59.9569   64.1749 C   0  0  0  0  0  0  0  0  0  0  0  0
  -51.0708   59.1626   62.9212 C   0  0  0  0  0  0  0  0  0  0  0  0
  -50.1262   59.6807   61.8354 C   0  0  0  0  0  0  0  0  0  0  0  0
  -50.0776   58.8488   60.5623 C   0  0  0  0  0  0  0  0  0  0  0  0
  -49.8919   57.3516   60.7777 C   0  0  0  0  0  0  0  0  0  0  0  0
  -48.9428   56.7049   59.7743 C   0  0  0  0  0  0  0  0  0  0  0  0
  -48.8719   57.4329   58.4414 C   0  0  0  0  0  0  0  0  0  0  0  0
  -47.7927   56.9422   57.4878 C   0  0  0  0  0  0  0  0  0  0  0  0
  -47.0175   55.7839   58.0362 C   0  0  0  0  0  0  0  0  0  0  0  0
  -41.7734   57.7985   65.8303 O   0  0  0  0  0  0  0  0  0  0  0  0
  -40.9964   58.7757   65.1037 C   0  0  0  0  0  0  0  0  0  0  0  0
  -39.9522   58.1193   64.2258 C   0  0  0  0  0  0  0  0  0  0  0  0
  -39.8933   58.7469   62.9377 O   0  0  0  0  0  0  0  0  0  0  0  0
  -39.6180   59.6712   63.0408 H   0  0  0  0  0  0  0  0  0  0  0  0
  -38.5777   58.1286   64.8528 C   0  0  0  0  0  0  0  0  0  0  0  0
  -38.3243   59.3575   65.5760 O   0  0  0  0  0  0  0  0  0  0  0  0
  -37.7740   60.7914   65.1099 P   0  0  0  0  0  0  0  0  0  0  0  0
  -37.7633   61.7168   66.3254 O   0  0  0  0  0  0  0  0  0  0  0  0
  -38.7012   61.3497   64.1015 O   0  0  0  0  0  0  0  0  0  0  0  0
  -39.5938   61.4028   64.4774 H   0  0  0  0  0  0  0  0  0  0  0  0
  -36.2457   60.6841   64.5118 O   0  0  0  0  0  0  0  0  0  0  0  0
  -35.0286   61.0677   65.2081 C   0  0  0  0  0  0  0  0  0  0  0  0
  -34.1439   61.8853   64.2998 C   0  0  0  0  0  0  0  0  0  0  0  0
  -33.9485   63.3421   64.6768 N   0  0  0  0  0  0  0  0  0  0  0  0
  -35.1900   63.8924   65.3022 C   0  0  0  0  0  0  0  0  0  0  0  0
  -33.6435   64.1189   63.4383 C   0  0  0  0  0  0  0  0  0  0  0  0
  -32.8113   63.4868   65.6476 C   0  0  0  0  0  0  0  0  0  0  0  0
 34 33  1  0  0  0
 34 35  1  0  0  0
 34 36  1  0  0  0
 34 37  1  0  0  0
 22 23  1  0  0  0
 22 25  1  0  0  0
 22 21  1  0  0  0
 23 24  1  0  0  0
 27 26  1  0  0  0
 27 28  2  0  0  0
 27 31  1  0  0  0
 27 29  1  0  0  0
 25 26  1  0  0  0
 32 33  1  0  0  0
 32 31  1  0  0  0
 29 30  1  0  0  0
 20 21  1  0  0  0
 20  2  1  0  0  0
  1  2  2  0  0  0
  2  3  1  0  0  0
  3  4  1  0  0  0
  4  5  1  0  0  0
  5  6  1  0  0  0
  6  7  1  0  0  0
  7  8  1  0  0  0
  8  9  1  0  0  0
  9 10  1  0  0  0
 10 11  2  0  0  0
 11 12  1  0  0  0
 12 13  1  0  0  0
 13 14  1  0  0  0
 14 15  1  0  0  0
 15 16  1  0  0  0
 16 17  1  0  0  0
 17 18  1  0  0  0
 18 19  1  0  0  0
M  CHG 1  28  -1
M  END
> <minimizedAffinity>
-7.92386

> <CNNscore>
0.8428352475

> <CNNaffinity>
6.6346802711

> <CNN_VS>
5.5919423103

> <CNNaffinity_variance>
0.1933886111

$$$$
/media/chris/experiments/cd1a-new-docking/inputs/ligands/4x6e_ligand.pdb


 37 36  0  0  0  0  0  0  0  0999 V2000
  -42.3640   55.9863   64.3184 O   0  0  0  0  0  0  0  0  0  0  0  0
  -42.8831   57.0749   64.3085 C   0  0  0  0  0  0  0  0  0  0  0  0
  -43.0838   57.9503   65.5073 C   0  0  0  0  0  0  0  0  0  0  0  0
  -44.1711   57.4411   66.4461 C   0  0  0  0  0  0  0  0  0  0  0  0
  -45.5153   57.2085   65.7778 C   0  0  0  0  0  0  0  0  0  0  0  0
  -46.6991   57.5116   66.6795 C   0  0  0  0  0  0  0  0  0  0  0  0
  -48.0356   57.3527   65.9752 C   0  0  0  0  0  0  0  0  0  0  0  0
  -48.8164   58.6473   65.9310 C   0  0  0  0  0  0  0  0  0  0  0  0
  -50.2305   58.5182   65.4024 C   0  0  0  0  0  0  0  0  0  0  0  0
  -50.7175   59.7174   64.6834 C   0  0  0  0  0  0  0  0  0  0  0  0
  -50.5495   59.9756   63.4029 C   0  0  0  0  0  0  0  0  0  0  0  0
  -49.8745   59.1111   62.3883 C   0  0  0  0  0  0  0  0  0  0  0  0
  -50.8502   58.0576   61.8613 C   0  0  0  0  0  0  0  0  0  0  0  0
  -50.5692   57.5554   60.4526 C   0  0  0  0  0  0  0  0  0  0  0  0
  -49.6772   56.3224   60.3742 C   0  0  0  0  0  0  0  0  0  0  0  0
  -48.3954   56.5473   59.5790 C   0  0  0  0  0  0  0  0  0  0  0  0
  -48.5681   57.4785   58.3895 C   0  0  0  0  0  0  0  0  0  0  0  0
  -47.8013   57.0834   57.1363 C   0  0  0  0  0  0  0  0  0  0  0  0
  -47.4253   55.6337   57.1197 C   0  0  0  0  0  0  0  0  0  0  0  0
  -43.3510   57.6742   63.2095 O   0  0  0  0  0  0  0  0  0  0  0  0
  -42.8810   59.0085   62.9172 C   0  0  0  0  0  0  0  0  0  0  0  0
  -41.6322   58.9866   62.0616 C   0  0  0  0  0  0  0  0  0  0  0  0
  -41.9075   59.4584   60.7356 O   0  0  0  0  0  0  0  0  0  0  0  0
  -42.1927   60.3847   60.7748 H   0  0  0  0  0  0  0  0  0  0  0  0
  -40.5051   59.7959   62.6591 C   0  0  0  0  0  0  0  0  0  0  0  0
  -40.8133   60.2375   64.0035 O   0  0  0  0  0  0  0  0  0  0  0  0
  -39.9360   60.3061   65.3457 P   0  0  0  0  0  0  0  0  0  0  0  0
  -39.7425   58.8817   65.8630 O   0  0  0  0  0  0  0  0  0  0  0  0
  -40.6842   61.0782   66.3618 O   0  0  0  0  0  0  0  0  0  0  0  0
  -41.5497   60.6655   66.5088 H   0  0  0  0  0  0  0  0  0  0  0  0
  -38.4591   60.9736   65.0660 O   0  0  0  0  0  0  0  0  0  0  0  0
  -37.1837   60.2790   65.1283 C   0  0  0  0  0  0  0  0  0  0  0  0
  -36.6433   60.0554   63.7376 C   0  0  0  0  0  0  0  0  0  0  0  0
  -36.3653   58.6170   63.3423 N   0  0  0  0  0  0  0  0  0  0  0  0
  -34.8985   58.4006   63.1502 C   0  0  0  0  0  0  0  0  0  0  0  0
  -37.0707   58.3302   62.0576 C   0  0  0  0  0  0  0  0  0  0  0  0
  -36.8598   57.6747   64.4026 C   0  0  0  0  0  0  0  0  0  0  0  0
 34 33  1  0  0  0
 34 35  1  0  0  0
 34 36  1  0  0  0
 34 37  1  0  0  0
 22 23  1  0  0  0
 22 25  1  0  0  0
 22 21  1  0  0  0
 23 24  1  0  0  0
 27 26  1  0  0  0
 27 28  2  0  0  0
 27 31  1  0  0  0
 27 29  1  0  0  0
 25 26  1  0  0  0
 32 33  1  0  0  0
 32 31  1  0  0  0
 29 30  1  0  0  0
 20 21  1  0  0  0
 20  2  1  0  0  0
  1  2  2  0  0  0
  2  3  1  0  0  0
  3  4  1  0  0  0
  4  5  1  0  0  0
  5  6  1  0  0  0
  6  7  1  0  0  0
  7  8  1  0  0  0
  8  9  1  0  0  0
  9 10  1  0  0  0
 10 11  2  0  0  0
 11 12  1  0  0  0
 12 13  1  0  0  0
 13 14  1  0  0  0
 14 15  1  0  0  0
 15 16  1  0  0  0
 16 17  1  0  0  0
 17 18  1  0  0  0
 18 19  1  0  0  0
M  CHG 1  28  -1
M  END
> <minimizedAffinity>
-7.76727

> <CNNscore>
0.7626753449

> <CNNaffinity>
7.0196990967

> <CNN_VS>
5.3537516594

> <CNNaffinity_variance>
0.3046559691

$$$$
/media/chris/experiments/cd1a-new-docking/inputs/ligands/4x6e_ligand.pdb


 37 36  0  0  0  0  0  0  0  0999 V2000
  -40.6175   60.3336   66.1327 O   0  0  0  0  0  0  0  0  0  0  0  0
  -41.1962   59.2861   65.9828 C   0  0  0  0  0  0  0  0  0  0  0  0
  -42.3753   58.8252   66.7835 C   0  0  0  0  0  0  0  0  0  0  0  0
  -43.6371   59.6362   66.5137 C   0  0  0  0  0  0  0  0  0  0  0  0
  -44.9144   58.8144   66.4862 C   0  0  0  0  0  0  0  0  0  0  0  0
  -45.4372   58.5565   65.0840 C   0  0  0  0  0  0  0  0  0  0  0  0
  -46.8024   59.1755   64.8380 C   0  0  0  0  0  0  0  0  0  0  0  0
  -47.3788   59.8044   66.0870 C   0  0  0  0  0  0  0  0  0  0  0  0
  -48.8918   59.8796   66.1199 C   0  0  0  0  0  0  0  0  0  0  0  0
  -49.5673   58.6892   65.5551 C   0  0  0  0  0  0  0  0  0  0  0  0
  -50.3685   58.6751   64.5099 C   0  0  0  0  0  0  0  0  0  0  0  0
  -50.7415   59.8329   63.6422 C   0  0  0  0  0  0  0  0  0  0  0  0
  -50.7409   59.4109   62.1720 C   0  0  0  0  0  0  0  0  0  0  0  0
  -50.4972   57.9305   61.9187 C   0  0  0  0  0  0  0  0  0  0  0  0
  -50.2325   57.5608   60.4641 C   0  0  0  0  0  0  0  0  0  0  0  0
  -49.4269   56.2764   60.2989 C   0  0  0  0  0  0  0  0  0  0  0  0
  -48.2475   56.4112   59.3489 C   0  0  0  0  0  0  0  0  0  0  0  0
  -48.4655   57.3458   58.1684 C   0  0  0  0  0  0  0  0  0  0  0  0
  -47.6244   56.9872   56.9821 C   0  0  0  0  0  0  0  0  0  0  0  0
  -40.8742   58.3753   65.0596 O   0  0  0  0  0  0  0  0  0  0  0  0
  -41.9411   57.5832   64.4930 C   0  0  0  0  0  0  0  0  0  0  0  0
  -41.4936   56.1657   64.2063 C   0  0  0  0  0  0  0  0  0  0  0  0
  -42.3989   55.2132   64.7803 O   0  0  0  0  0  0  0  0  0  0  0  0
  -43.2726   55.3095   64.3700 H   0  0  0  0  0  0  0  0  0  0  0  0
  -41.3464   55.8914   62.7279 C   0  0  0  0  0  0  0  0  0  0  0  0
  -40.3535   56.7508   62.1172 O   0  0  0  0  0  0  0  0  0  0  0  0
  -40.4724   57.9803   61.0924 P   0  0  0  0  0  0  0  0  0  0  0  0
  -41.9539   58.2289   60.8148 O   0  0  0  0  0  0  0  0  0  0  0  0
  -39.8123   57.6045   59.8230 O   0  0  0  0  0  0  0  0  0  0  0  0
  -40.2180   56.7951   59.4749 H   0  0  0  0  0  0  0  0  0  0  0  0
  -39.8130   59.3511   61.7179 O   0  0  0  0  0  0  0  0  0  0  0  0
  -38.4343   59.7836   61.5588 C   0  0  0  0  0  0  0  0  0  0  0  0
  -37.4910   58.6874   61.9887 C   0  0  0  0  0  0  0  0  0  0  0  0
  -36.8251   58.8590   63.3413 N   0  0  0  0  0  0  0  0  0  0  0  0
  -35.3482   58.6563   63.2277 C   0  0  0  0  0  0  0  0  0  0  0  0
  -37.3839   57.8415   64.2809 C   0  0  0  0  0  0  0  0  0  0  0  0
  -37.0854   60.2348   63.8856 C   0  0  0  0  0  0  0  0  0  0  0  0
 34 33  1  0  0  0
 34 35  1  0  0  0
 34 36  1  0  0  0
 34 37  1  0  0  0
 22 23  1  0  0  0
 22 25  1  0  0  0
 22 21  1  0  0  0
 23 24  1  0  0  0
 27 26  1  0  0  0
 27 28  2  0  0  0
 27 31  1  0  0  0
 27 29  1  0  0  0
 25 26  1  0  0  0
 32 33  1  0  0  0
 32 31  1  0  0  0
 29 30  1  0  0  0
 20 21  1  0  0  0
 20  2  1  0  0  0
  1  2  2  0  0  0
  2  3  1  0  0  0
  3  4  1  0  0  0
  4  5  1  0  0  0
  5  6  1  0  0  0
  6  7  1  0  0  0
  7  8  1  0  0  0
  8  9  1  0  0  0
  9 10  1  0  0  0
 10 11  2  0  0  0
 11 12  1  0  0  0
 12 13  1  0  0  0
 13 14  1  0  0  0
 14 15  1  0  0  0
 15 16  1  0  0  0
 16 17  1  0  0  0
 17 18  1  0  0  0
 18 19  1  0  0  0
M  CHG 1  28  -1
M  END
> <minimizedAffinity>
-8.01407

> <CNNscore>
0.7604989409

> <CNNaffinity>
7.1940221786

> <CNN_VS>
5.4710464478

> <CNNaffinity_variance>
0.4190737605

$$$$
/media/chris/experiments/cd1a-new-docking/inputs/ligands/4x6e_ligand.pdb


 37 36  0  0  0  0  0  0  0  0999 V2000
  -40.6913   58.1203   65.5100 O   0  0  0  0  0  0  0  0  0  0  0  0
  -41.7311   58.0177   64.9075 C   0  0  0  0  0  0  0  0  0  0  0  0
  -42.7358   56.9223   65.0930 C   0  0  0  0  0  0  0  0  0  0  0  0
  -44.1723   57.4288   65.1442 C   0  0  0  0  0  0  0  0  0  0  0  0
  -44.6208   57.8986   66.5174 C   0  0  0  0  0  0  0  0  0  0  0  0
  -45.4767   59.1524   66.4774 C   0  0  0  0  0  0  0  0  0  0  0  0
  -45.6236   59.7245   65.0778 C   0  0  0  0  0  0  0  0  0  0  0  0
  -47.0707   59.9534   64.7024 C   0  0  0  0  0  0  0  0  0  0  0  0
  -47.8561   58.6927   64.4031 C   0  0  0  0  0  0  0  0  0  0  0  0
  -49.0250   58.4858   65.2881 C   0  0  0  0  0  0  0  0  0  0  0  0
  -50.2352   58.9705   65.1007 C   0  0  0  0  0  0  0  0  0  0  0  0
  -50.7096   59.7941   63.9478 C   0  0  0  0  0  0  0  0  0  0  0  0
  -51.1555   58.8864   62.8002 C   0  0  0  0  0  0  0  0  0  0  0  0
  -50.3606   59.0279   61.5104 C   0  0  0  0  0  0  0  0  0  0  0  0
  -50.4027   57.8132   60.5912 C   0  0  0  0  0  0  0  0  0  0  0  0
  -49.6747   58.0251   59.2680 C   0  0  0  0  0  0  0  0  0  0  0  0
  -48.6932   56.9159   58.9245 C   0  0  0  0  0  0  0  0  0  0  0  0
  -48.1133   56.9714   57.5190 C   0  0  0  0  0  0  0  0  0  0  0  0
  -46.9808   56.0114   57.3209 C   0  0  0  0  0  0  0  0  0  0  0  0
  -42.1516   58.8848   63.9817 O   0  0  0  0  0  0  0  0  0  0  0  0
  -41.3084   59.1022   62.8292 C   0  0  0  0  0  0  0  0  0  0  0  0
  -40.7783   60.5196   62.7836 C   0  0  0  0  0  0  0  0  0  0  0  0
  -41.3275   61.3099   63.8467 O   0  0  0  0  0  0  0  0  0  0  0  0
  -41.0474   60.9434   64.6999 H   0  0  0  0  0  0  0  0  0  0  0  0
  -39.2697   60.5771   62.8422 C   0  0  0  0  0  0  0  0  0  0  0  0
  -38.8044   61.3733   63.9588 O   0  0  0  0  0  0  0  0  0  0  0  0
  -38.3107   60.9801   65.4345 P   0  0  0  0  0  0  0  0  0  0  0  0
  -37.5413   59.6632   65.3455 O   0  0  0  0  0  0  0  0  0  0  0  0
  -39.4982   60.7743   66.2923 O   0  0  0  0  0  0  0  0  0  0  0  0
  -40.0657   60.0921   65.9004 H   0  0  0  0  0  0  0  0  0  0  0  0
  -37.3195   62.1316   66.0644 O   0  0  0  0  0  0  0  0  0  0  0  0
  -36.1353   62.6803   65.4244 C   0  0  0  0  0  0  0  0  0  0  0  0
  -35.4990   63.7222   66.3108 C   0  0  0  0  0  0  0  0  0  0  0  0
  -34.1215   64.2097   65.9014 N   0  0  0  0  0  0  0  0  0  0  0  0
  -33.6660   65.3112   66.8037 C   0  0  0  0  0  0  0  0  0  0  0  0
  -34.1947   64.7271   64.5024 C   0  0  0  0  0  0  0  0  0  0  0  0
  -33.1252   63.0872   65.9652 C   0  0  0  0  0  0  0  0  0  0  0  0
 34 33  1  0  0  0
 34 35  1  0  0  0
 34 36  1  0  0  0
 34 37  1  0  0  0
 22 23  1  0  0  0
 22 25  1  0  0  0
 22 21  1  0  0  0
 23 24  1  0  0  0
 27 26  1  0  0  0
 27 28  2  0  0  0
 27 31  1  0  0  0
 27 29  1  0  0  0
 25 26  1  0  0  0
 32 33  1  0  0  0
 32 31  1  0  0  0
 29 30  1  0  0  0
 20 21  1  0  0  0
 20  2  1  0  0  0
  1  2  2  0  0  0
  2  3  1  0  0  0
  3  4  1  0  0  0
  4  5  1  0  0  0
  5  6  1  0  0  0
  6  7  1  0  0  0
  7  8  1  0  0  0
  8  9  1  0  0  0
  9 10  1  0  0  0
 10 11  2  0  0  0
 11 12  1  0  0  0
 12 13  1  0  0  0
 13 14  1  0  0  0
 14 15  1  0  0  0
 15 16  1  0  0  0
 16 17  1  0  0  0
 17 18  1  0  0  0
 18 19  1  0  0  0
M  CHG 1  28  -1
M  END
> <minimizedAffinity>
-7.83689

> <CNNscore>
0.6419759989

> <CNNaffinity>
6.3807959557

> <CNN_VS>
4.0963177681

> <CNNaffinity_variance>
0.2007175684

$$$$
/media/chris/experiments/cd1a-new-docking/inputs/ligands/4x6e_ligand.pdb


 37 36  0  0  0  0  0  0  0  0999 V2000
  -41.3140   61.0065   64.6583 O   0  0  0  0  0  0  0  0  0  0  0  0
  -40.8612   60.4468   65.6260 C   0  0  0  0  0  0  0  0  0  0  0  0
  -41.4941   59.2867   66.3313 C   0  0  0  0  0  0  0  0  0  0  0  0
  -43.0172   59.3343   66.3161 C   0  0  0  0  0  0  0  0  0  0  0  0
  -43.6616   58.4058   65.3012 C   0  0  0  0  0  0  0  0  0  0  0  0
  -44.3525   59.1387   64.1646 C   0  0  0  0  0  0  0  0  0  0  0  0
  -45.8673   59.0547   64.2403 C   0  0  0  0  0  0  0  0  0  0  0  0
  -46.4531   60.1024   65.1605 C   0  0  0  0  0  0  0  0  0  0  0  0
  -47.2790   59.5519   66.3053 C   0  0  0  0  0  0  0  0  0  0  0  0
  -48.0194   58.3133   65.9738 C   0  0  0  0  0  0  0  0  0  0  0  0
  -49.3062   58.2268   65.7067 C   0  0  0  0  0  0  0  0  0  0  0  0
  -50.2916   59.3479   65.6375 C   0  0  0  0  0  0  0  0  0  0  0  0
  -50.7964   59.5176   64.2037 C   0  0  0  0  0  0  0  0  0  0  0  0
  -50.2249   58.5365   63.1907 C   0  0  0  0  0  0  0  0  0  0  0  0
  -50.5836   58.8276   61.7385 C   0  0  0  0  0  0  0  0  0  0  0  0
  -50.8062   57.5717   60.9025 C   0  0  0  0  0  0  0  0  0  0  0  0
  -49.5355   57.0200   60.2759 C   0  0  0  0  0  0  0  0  0  0  0  0
  -49.2527   57.4886   58.8563 C   0  0  0  0  0  0  0  0  0  0  0  0
  -48.1190   56.7478   58.2164 C   0  0  0  0  0  0  0  0  0  0  0  0
  -39.7062   60.7757   66.2121 O   0  0  0  0  0  0  0  0  0  0  0  0
  -38.5098   60.0958   65.7728 C   0  0  0  0  0  0  0  0  0  0  0  0
  -37.5218   61.0539   65.1419 C   0  0  0  0  0  0  0  0  0  0  0  0
  -37.4910   62.3017   65.8480 O   0  0  0  0  0  0  0  0  0  0  0  0
  -37.1818   62.1523   66.7551 H   0  0  0  0  0  0  0  0  0  0  0  0
  -36.1250   60.4828   65.0695 C   0  0  0  0  0  0  0  0  0  0  0  0
  -35.8257   59.9575   63.7535 O   0  0  0  0  0  0  0  0  0  0  0  0
  -35.7661   58.4614   63.1755 P   0  0  0  0  0  0  0  0  0  0  0  0
  -36.0248   57.4934   64.3286 O   0  0  0  0  0  0  0  0  0  0  0  0
  -34.4072   58.2115   62.6470 O   0  0  0  0  0  0  0  0  0  0  0  0
  -33.7548   58.3607   63.3492 H   0  0  0  0  0  0  0  0  0  0  0  0
  -36.9053   58.2190   62.0142 O   0  0  0  0  0  0  0  0  0  0  0  0
  -38.1465   57.4805   62.1782 C   0  0  0  0  0  0  0  0  0  0  0  0
  -39.0392   57.6882   60.9798 C   0  0  0  0  0  0  0  0  0  0  0  0
  -40.3388   58.4324   61.2244 N   0  0  0  0  0  0  0  0  0  0  0  0
  -40.7929   58.2435   62.6362 C   0  0  0  0  0  0  0  0  0  0  0  0
  -41.3806   57.8894   60.3024 C   0  0  0  0  0  0  0  0  0  0  0  0
  -40.1612   59.9013   60.9645 C   0  0  0  0  0  0  0  0  0  0  0  0
 34 33  1  0  0  0
 34 35  1  0  0  0
 34 36  1  0  0  0
 34 37  1  0  0  0
 22 23  1  0  0  0
 22 25  1  0  0  0
 22 21  1  0  0  0
 23 24  1  0  0  0
 27 26  1  0  0  0
 27 28  2  0  0  0
 27 31  1  0  0  0
 27 29  1  0  0  0
 25 26  1  0  0  0
 32 33  1  0  0  0
 32 31  1  0  0  0
 29 30  1  0  0  0
 20 21  1  0  0  0
 20  2  1  0  0  0
  1  2  2  0  0  0
  2  3  1  0  0  0
  3  4  1  0  0  0
  4  5  1  0  0  0
  5  6  1  0  0  0
  6  7  1  0  0  0
  7  8  1  0  0  0
  8  9  1  0  0  0
  9 10  1  0  0  0
 10 11  2  0  0  0
 11 12  1  0  0  0
 12 13  1  0  0  0
 13 14  1  0  0  0
 14 15  1  0  0  0
 15 16  1  0  0  0
 16 17  1  0  0  0
 17 18  1  0  0  0
 18 19  1  0  0  0
M  CHG 1  28  -1
M  END
> <minimizedAffinity>
-7.93782

> <CNNscore>
0.6284058094

> <CNNaffinity>
6.8737897873

> <CNN_VS>
4.3195295334

> <CNNaffinity_variance>
0.3213599920

$$$$
/media/chris/experiments/cd1a-new-docking/inputs/ligands/4x6e_ligand.pdb


 37 36  0  0  0  0  0  0  0  0999 V2000
  -43.4253   59.7346   66.4868 O   0  0  0  0  0  0  0  0  0  0  0  0
  -43.7722   59.9166   65.3461 C   0  0  0  0  0  0  0  0  0  0  0  0
  -45.1909   60.0319   64.8796 C   0  0  0  0  0  0  0  0  0  0  0  0
  -45.8445   58.6821   64.6089 C   0  0  0  0  0  0  0  0  0  0  0  0
  -46.1698   57.8831   65.8592 C   0  0  0  0  0  0  0  0  0  0  0  0
  -47.5780   58.1177   66.3770 C   0  0  0  0  0  0  0  0  0  0  0  0
  -48.6506   57.6790   65.3949 C   0  0  0  0  0  0  0  0  0  0  0  0
  -49.9822   58.3422   65.6683 C   0  0  0  0  0  0  0  0  0  0  0  0
  -50.0881   59.7754   65.1882 C   0  0  0  0  0  0  0  0  0  0  0  0
  -49.2112   60.0927   64.0382 C   0  0  0  0  0  0  0  0  0  0  0  0
  -49.5260   59.9688   62.7653 C   0  0  0  0  0  0  0  0  0  0  0  0
  -50.8351   59.5251   62.1978 C   0  0  0  0  0  0  0  0  0  0  0  0
  -50.9076   57.9975   62.1724 C   0  0  0  0  0  0  0  0  0  0  0  0
  -50.6798   57.3566   60.8113 C   0  0  0  0  0  0  0  0  0  0  0  0
  -50.1174   58.2897   59.7458 C   0  0  0  0  0  0  0  0  0  0  0  0
  -49.1613   57.6019   58.7769 C   0  0  0  0  0  0  0  0  0  0  0  0
  -48.3596   56.4732   59.4053 C   0  0  0  0  0  0  0  0  0  0  0  0
  -47.2816   55.8678   58.5186 C   0  0  0  0  0  0  0  0  0  0  0  0
  -47.1963   56.5281   57.1769 C   0  0  0  0  0  0  0  0  0  0  0  0
  -42.9300   60.0566   64.3181 O   0  0  0  0  0  0  0  0  0  0  0  0
  -41.7826   59.1808   64.2624 C   0  0  0  0  0  0  0  0  0  0  0  0
  -40.5159   59.8908   64.6907 C   0  0  0  0  0  0  0  0  0  0  0  0
  -40.4583   60.0268   66.1171 O   0  0  0  0  0  0  0  0  0  0  0  0
  -40.4268   59.1471   66.5248 H   0  0  0  0  0  0  0  0  0  0  0  0
  -39.2672   59.1954   64.2013 C   0  0  0  0  0  0  0  0  0  0  0  0
  -38.0694   59.9303   64.5515 O   0  0  0  0  0  0  0  0  0  0  0  0
  -37.3152   61.1627   63.8526 P   0  0  0  0  0  0  0  0  0  0  0  0
  -38.0233   61.4703   62.5343 O   0  0  0  0  0  0  0  0  0  0  0  0
  -35.9231   60.7597   63.5563 O   0  0  0  0  0  0  0  0  0  0  0  0
  -35.9281   59.9669   62.9974 H   0  0  0  0  0  0  0  0  0  0  0  0
  -37.3521   62.5065   64.8003 O   0  0  0  0  0  0  0  0  0  0  0  0
  -36.2186   63.0873   65.5009 C   0  0  0  0  0  0  0  0  0  0  0  0
  -35.5424   64.1196   64.6329 C   0  0  0  0  0  0  0  0  0  0  0  0
  -34.0364   64.2411   64.7737 N   0  0  0  0  0  0  0  0  0  0  0  0
  -33.3962   62.8906   64.7364 C   0  0  0  0  0  0  0  0  0  0  0  0
  -33.7302   64.8875   66.0847 C   0  0  0  0  0  0  0  0  0  0  0  0
  -33.4695   65.0774   63.6621 C   0  0  0  0  0  0  0  0  0  0  0  0
 34 33  1  0  0  0
 34 35  1  0  0  0
 34 36  1  0  0  0
 34 37  1  0  0  0
 22 23  1  0  0  0
 22 25  1  0  0  0
 22 21  1  0  0  0
 23 24  1  0  0  0
 27 26  1  0  0  0
 27 28  2  0  0  0
 27 31  1  0  0  0
 27 29  1  0  0  0
 25 26  1  0  0  0
 32 33  1  0  0  0
 32 31  1  0  0  0
 29 30  1  0  0  0
 20 21  1  0  0  0
 20  2  1  0  0  0
  1  2  2  0  0  0
  2  3  1  0  0  0
  3  4  1  0  0  0
  4  5  1  0  0  0
  5  6  1  0  0  0
  6  7  1  0  0  0
  7  8  1  0  0  0
  8  9  1  0  0  0
  9 10  1  0  0  0
 10 11  2  0  0  0
 11 12  1  0  0  0
 12 13  1  0  0  0
 13 14  1  0  0  0
 14 15  1  0  0  0
 15 16  1  0  0  0
 16 17  1  0  0  0
 17 18  1  0  0  0
 18 19  1  0  0  0
M  CHG 1  28  -1
M  END
> <minimizedAffinity>
-7.82294

> <CNNscore>
0.6107017994

> <CNNaffinity>
6.2764248848

> <CNN_VS>
3.8330240250

> <CNNaffinity_variance>
0.2292934656

$$$$
/media/chris/experiments/cd1a-new-docking/inputs/ligands/4x6e_ligand.pdb


 37 36  0  0  0  0  0  0  0  0999 V2000
  -43.6415   59.6712   67.4430 O   0  0  0  0  0  0  0  0  0  0  0  0
  -43.5461   59.6212   66.2417 C   0  0  0  0  0  0  0  0  0  0  0  0
  -44.6792   59.7805   65.2751 C   0  0  0  0  0  0  0  0  0  0  0  0
  -45.3496   58.4603   64.9144 C   0  0  0  0  0  0  0  0  0  0  0  0
  -45.6578   57.5698   66.1059 C   0  0  0  0  0  0  0  0  0  0  0  0
  -47.1435   57.3395   66.3201 C   0  0  0  0  0  0  0  0  0  0  0  0
  -47.9986   57.9147   65.2040 C   0  0  0  0  0  0  0  0  0  0  0  0
  -49.3714   58.3249   65.6887 C   0  0  0  0  0  0  0  0  0  0  0  0
  -49.8690   59.6473   65.1413 C   0  0  0  0  0  0  0  0  0  0  0  0
  -49.1073   60.1408   63.9715 C   0  0  0  0  0  0  0  0  0  0  0  0
  -49.4916   60.0782   62.7133 C   0  0  0  0  0  0  0  0  0  0  0  0
  -50.7832   59.5399   62.1891 C   0  0  0  0  0  0  0  0  0  0  0  0
  -50.7673   58.0108   62.2189 C   0  0  0  0  0  0  0  0  0  0  0  0
  -50.8231   57.3316   60.8584 C   0  0  0  0  0  0  0  0  0  0  0  0
  -50.3556   58.1908   59.6898 C   0  0  0  0  0  0  0  0  0  0  0  0
  -48.9829   57.7966   59.1548 C   0  0  0  0  0  0  0  0  0  0  0  0
  -48.6039   56.3531   59.4449 C   0  0  0  0  0  0  0  0  0  0  0  0
  -47.3251   55.8687   58.7780 C   0  0  0  0  0  0  0  0  0  0  0  0
  -47.4683   55.7113   57.2954 C   0  0  0  0  0  0  0  0  0  0  0  0
  -42.3978   59.4261   65.5868 O   0  0  0  0  0  0  0  0  0  0  0  0
  -41.1677   59.5304   66.3369 C   0  0  0  0  0  0  0  0  0  0  0  0
  -40.0187   59.9914   65.4654 C   0  0  0  0  0  0  0  0  0  0  0  0
  -39.2354   60.9911   66.1314 O   0  0  0  0  0  0  0  0  0  0  0  0
  -38.8349   60.6100   66.9284 H   0  0  0  0  0  0  0  0  0  0  0  0
  -39.1222   58.8533   65.0373 C   0  0  0  0  0  0  0  0  0  0  0  0
  -37.8001   59.3176   64.6719 O   0  0  0  0  0  0  0  0  0  0  0  0
  -37.2282   60.0123   63.3428 P   0  0  0  0  0  0  0  0  0  0  0  0
  -36.5450   58.9379   62.4985 O   0  0  0  0  0  0  0  0  0  0  0  0
  -36.2165   61.0189   63.7322 O   0  0  0  0  0  0  0  0  0  0  0  0
  -35.5187   60.5912   64.2529 H   0  0  0  0  0  0  0  0  0  0  0  0
  -38.4321   60.6973   62.4560 O   0  0  0  0  0  0  0  0  0  0  0  0
  -39.0814   60.1049   61.2982 C   0  0  0  0  0  0  0  0  0  0  0  0
  -40.4934   59.7001   61.6425 C   0  0  0  0  0  0  0  0  0  0  0  0
  -40.8367   58.2315   61.4748 N   0  0  0  0  0  0  0  0  0  0  0  0
  -41.6164   57.7382   62.6512 C   0  0  0  0  0  0  0  0  0  0  0  0
  -39.5664   57.4529   61.3733 C   0  0  0  0  0  0  0  0  0  0  0  0
  -41.6508   58.0200   60.2302 C   0  0  0  0  0  0  0  0  0  0  0  0
 34 33  1  0  0  0
 34 35  1  0  0  0
 34 36  1  0  0  0
 34 37  1  0  0  0
 22 23  1  0  0  0
 22 25  1  0  0  0
 22 21  1  0  0  0
 23 24  1  0  0  0
 27 26  1  0  0  0
 27 28  2  0  0  0
 27 31  1  0  0  0
 27 29  1  0  0  0
 25 26  1  0  0  0
 32 33  1  0  0  0
 32 31  1  0  0  0
 29 30  1  0  0  0
 20 21  1  0  0  0
 20  2  1  0  0  0
  1  2  2  0  0  0
  2  3  1  0  0  0
  3  4  1  0  0  0
  4  5  1  0  0  0
  5  6  1  0  0  0
  6  7  1  0  0  0
  7  8  1  0  0  0
  8  9  1  0  0  0
  9 10  1  0  0  0
 10 11  2  0  0  0
 11 12  1  0  0  0
 12 13  1  0  0  0
 13 14  1  0  0  0
 14 15  1  0  0  0
 15 16  1  0  0  0
 16 17  1  0  0  0
 17 18  1  0  0  0
 18 19  1  0  0  0
M  CHG 1  28  -1
M  END
> <minimizedAffinity>
-7.85050

> <CNNscore>
0.6036024094

> <CNNaffinity>
6.9965009689

> <CNN_VS>
4.2231049538

> <CNNaffinity_variance>
0.2411677092

$$$$
/media/chris/experiments/cd1a-new-docking/inputs/ligands/4x6e_ligand.pdb


 37 36  0  0  0  0  0  0  0  0999 V2000
  -45.5746   60.9090   64.0313 O   0  0  0  0  0  0  0  0  0  0  0  0
  -44.6548   60.1330   63.9499 C   0  0  0  0  0  0  0  0  0  0  0  0
  -44.4245   58.9637   64.8573 C   0  0  0  0  0  0  0  0  0  0  0  0
  -43.7919   59.3531   66.1880 C   0  0  0  0  0  0  0  0  0  0  0  0
  -44.7173   59.2136   67.3846 C   0  0  0  0  0  0  0  0  0  0  0  0
  -46.1594   58.9287   67.0035 C   0  0  0  0  0  0  0  0  0  0  0  0
  -46.5183   57.4560   67.1035 C   0  0  0  0  0  0  0  0  0  0  0  0
  -47.5999   57.0629   66.1222 C   0  0  0  0  0  0  0  0  0  0  0  0
  -48.2371   58.2213   65.3819 C   0  0  0  0  0  0  0  0  0  0  0  0
  -49.7129   58.2690   65.4922 C   0  0  0  0  0  0  0  0  0  0  0  0
  -50.5359   58.8476   64.6421 C   0  0  0  0  0  0  0  0  0  0  0  0
  -50.1775   59.5427   63.3690 C   0  0  0  0  0  0  0  0  0  0  0  0
  -50.8680   58.8632   62.1854 C   0  0  0  0  0  0  0  0  0  0  0  0
  -50.0118   58.6976   60.9384 C   0  0  0  0  0  0  0  0  0  0  0  0
  -49.7201   57.2547   60.5443 C   0  0  0  0  0  0  0  0  0  0  0  0
  -49.0626   57.1183   59.1750 C   0  0  0  0  0  0  0  0  0  0  0  0
  -47.9082   56.1293   59.1457 C   0  0  0  0  0  0  0  0  0  0  0  0
  -47.3017   55.8765   57.7735 C   0  0  0  0  0  0  0  0  0  0  0  0
  -47.4435   57.0489   56.8521 C   0  0  0  0  0  0  0  0  0  0  0  0
  -43.6994   60.1956   63.0176 O   0  0  0  0  0  0  0  0  0  0  0  0
  -43.0871   58.9572   62.5957 C   0  0  0  0  0  0  0  0  0  0  0  0
  -41.8239   59.2015   61.7977 C   0  0  0  0  0  0  0  0  0  0  0  0
  -41.5372   60.6033   61.7026 O   0  0  0  0  0  0  0  0  0  0  0  0
  -41.3707   60.9601   62.5891 H   0  0  0  0  0  0  0  0  0  0  0  0
  -40.6264   58.4814   62.3720 C   0  0  0  0  0  0  0  0  0  0  0  0
  -39.8525   59.3371   63.2474 O   0  0  0  0  0  0  0  0  0  0  0  0
  -40.0769   59.8190   64.7618 P   0  0  0  0  0  0  0  0  0  0  0  0
  -40.6145   58.6358   65.5647 O   0  0  0  0  0  0  0  0  0  0  0  0
  -41.0925   60.8945   64.7711 O   0  0  0  0  0  0  0  0  0  0  0  0
  -41.9107   60.5700   64.3635 H   0  0  0  0  0  0  0  0  0  0  0  0
  -38.6706   60.3286   65.4458 O   0  0  0  0  0  0  0  0  0  0  0  0
  -37.3973   60.4846   64.7622 C   0  0  0  0  0  0  0  0  0  0  0  0
  -36.9456   61.9228   64.8229 C   0  0  0  0  0  0  0  0  0  0  0  0
  -35.4505   62.1672   64.7366 N   0  0  0  0  0  0  0  0  0  0  0  0
  -35.1592   63.3157   63.8249 C   0  0  0  0  0  0  0  0  0  0  0  0
  -34.7966   60.9389   64.1942 C   0  0  0  0  0  0  0  0  0  0  0  0
  -34.8874   62.4718   66.0955 C   0  0  0  0  0  0  0  0  0  0  0  0
 34 33  1  0  0  0
 34 35  1  0  0  0
 34 36  1  0  0  0
 34 37  1  0  0  0
 22 23  1  0  0  0
 22 25  1  0  0  0
 22 21  1  0  0  0
 23 24  1  0  0  0
 27 26  1  0  0  0
 27 28  2  0  0  0
 27 31  1  0  0  0
 27 29  1  0  0  0
 25 26  1  0  0  0
 32 33  1  0  0  0
 32 31  1  0  0  0
 29 30  1  0  0  0
 20 21  1  0  0  0
 20  2  1  0  0  0
  1  2  2  0  0  0
  2  3  1  0  0  0
  3  4  1  0  0  0
  4  5  1  0  0  0
  5  6  1  0  0  0
  6  7  1  0  0  0
  7  8  1  0  0  0
  8  9  1  0  0  0
  9 10  1  0  0  0
 10 11  2  0  0  0
 11 12  1  0  0  0
 12 13  1  0  0  0
 13 14  1  0  0  0
 14 15  1  0  0  0
 15 16  1  0  0  0
 16 17  1  0  0  0
 17 18  1  0  0  0
 18 19  1  0  0  0
M  CHG 1  28  -1
M  END
> <minimizedAffinity>
-7.52770

> <CNNscore>
0.5864832997

> <CNNaffinity>
6.5397043228

> <CNN_VS>
3.8354272842

> <CNNaffinity_variance>
0.2239172906

$$$$
