/media/chris/experiments/cd1a-new-docking/inputs/ligands/4x6e_ligand.pdb


 37 36  0  0  0  0  0  0  0  0999 V2000
  -42.3350   60.0693   63.9042 O   0  0  0  0  0  0  0  0  0  0  0  0
  -42.1619   58.9249   64.2437 C   0  0  0  0  0  0  0  0  0  0  0  0
  -41.7747   58.4784   65.6200 C   0  0  0  0  0  0  0  0  0  0  0  0
  -42.9097   58.5969   66.6301 C   0  0  0  0  0  0  0  0  0  0  0  0
  -44.1047   57.7067   66.3348 C   0  0  0  0  0  0  0  0  0  0  0  0
  -45.4322   58.4428   66.3788 C   0  0  0  0  0  0  0  0  0  0  0  0
  -45.5623   59.4946   65.2905 C   0  0  0  0  0  0  0  0  0  0  0  0
  -46.9001   59.4286   64.5881 C   0  0  0  0  0  0  0  0  0  0  0  0
  -47.8507   58.3804   65.1301 C   0  0  0  0  0  0  0  0  0  0  0  0
  -48.9712   58.9346   65.9235 C   0  0  0  0  0  0  0  0  0  0  0  0
  -50.2063   59.1132   65.5020 C   0  0  0  0  0  0  0  0  0  0  0  0
  -50.7616   58.7643   64.1594 C   0  0  0  0  0  0  0  0  0  0  0  0
  -50.5633   59.9294   63.1885 C   0  0  0  0  0  0  0  0  0  0  0  0
  -49.9135   59.5684   61.8607 C   0  0  0  0  0  0  0  0  0  0  0  0
  -49.6775   58.0786   61.6431 C   0  0  0  0  0  0  0  0  0  0  0  0
  -50.5162   57.4875   60.5146 C   0  0  0  0  0  0  0  0  0  0  0  0
  -49.9246   57.7087   59.1315 C   0  0  0  0  0  0  0  0  0  0  0  0
  -48.5429   57.1115   58.9109 C   0  0  0  0  0  0  0  0  0  0  0  0
  -48.1036   57.1796   57.4805 C   0  0  0  0  0  0  0  0  0  0  0  0
  -42.3039   57.8714   63.4339 O   0  0  0  0  0  0  0  0  0  0  0  0
  -42.3294   58.1142   62.0101 C   0  0  0  0  0  0  0  0  0  0  0  0
  -40.9482   58.0052   61.3996 C   0  0  0  0  0  0  0  0  0  0  0  0
  -40.8676   56.8890   60.5029 O   0  0  0  0  0  0  0  0  0  0  0  0
  -41.4808   57.0234   59.7634 H   0  0  0  0  0  0  0  0  0  0  0  0
  -40.5335   59.2637   60.6741 C   0  0  0  0  0  0  0  0  0  0  0  0
  -40.0392   60.2734   61.5872 O   0  0  0  0  0  0  0  0  0  0  0  0
  -38.6765   60.3972   62.4258 P   0  0  0  0  0  0  0  0  0  0  0  0
  -39.0372   60.6712   63.8850 O   0  0  0  0  0  0  0  0  0  0  0  0
  -37.9042   61.5476   61.9080 O   0  0  0  0  0  0  0  0  0  0  0  0
  -38.4446   62.3513   61.9636 H   0  0  0  0  0  0  0  0  0  0  0  0
  -37.7945   59.0110   62.3493 O   0  0  0  0  0  0  0  0  0  0  0  0
  -37.0131   58.4366   63.4320 C   0  0  0  0  0  0  0  0  0  0  0  0
  -35.5421   58.4977   63.1029 C   0  0  0  0  0  0  0  0  0  0  0  0
  -34.6595   59.2472   64.0838 N   0  0  0  0  0  0  0  0  0  0  0  0
  -33.5976   60.0084   63.3570 C   0  0  0  0  0  0  0  0  0  0  0  0
  -34.0102   58.2574   64.9943 C   0  0  0  0  0  0  0  0  0  0  0  0
  -35.4760   60.2105   64.8971 C   0  0  0  0  0  0  0  0  0  0  0  0
 34 33  1  0  0  0
 34 35  1  0  0  0
 34 36  1  0  0  0
 34 37  1  0  0  0
 22 23  1  0  0  0
 22 25  1  0  0  0
 22 21  1  0  0  0
 23 24  1  0  0  0
 27 26  1  0  0  0
 27 28  2  0  0  0
 27 31  1  0  0  0
 27 29  1  0  0  0
 25 26  1  0  0  0
 32 33  1  0  0  0
 32 31  1  0  0  0
 29 30  1  0  0  0
 20 21  1  0  0  0
 20  2  1  0  0  0
  1  2  2  0  0  0
  2  3  1  0  0  0
  3  4  1  0  0  0
  4  5  1  0  0  0
  5  6  1  0  0  0
  6  7  1  0  0  0
  7  8  1  0  0  0
  8  9  1  0  0  0
  9 10  1  0  0  0
 10 11  2  0  0  0
 11 12  1  0  0  0
 12 13  1  0  0  0
 13 14  1  0  0  0
 14 15  1  0  0  0
 15 16  1  0  0  0
 16 17  1  0  0  0
 17 18  1  0  0  0
 18 19  1  0  0  0
M  CHG 1  28  -1
M  END
> <minimizedAffinity>
-7.36462

> <CNNscore>
0.8461426497

> <CNNaffinity>
7.0016336441

> <CNN_VS>
5.9243807793

> <CNNaffinity_variance>
0.1331947446

$$$$
/media/chris/experiments/cd1a-new-docking/inputs/ligands/4x6e_ligand.pdb


 37 36  0  0  0  0  0  0  0  0999 V2000
  -40.3580   58.6423   65.7852 O   0  0  0  0  0  0  0  0  0  0  0  0
  -40.6048   59.8191   65.8801 C   0  0  0  0  0  0  0  0  0  0  0  0
  -41.9196   60.3973   66.3052 C   0  0  0  0  0  0  0  0  0  0  0  0
  -42.8002   59.4005   67.0492 C   0  0  0  0  0  0  0  0  0  0  0  0
  -44.2610   59.4248   66.6332 C   0  0  0  0  0  0  0  0  0  0  0  0
  -44.8852   58.0438   66.5376 C   0  0  0  0  0  0  0  0  0  0  0  0
  -46.4035   58.0810   66.5099 C   0  0  0  0  0  0  0  0  0  0  0  0
  -46.9334   59.3529   65.8860 C   0  0  0  0  0  0  0  0  0  0  0  0
  -48.3907   59.6452   66.1807 C   0  0  0  0  0  0  0  0  0  0  0  0
  -49.3206   58.5806   65.7399 C   0  0  0  0  0  0  0  0  0  0  0  0
  -50.2323   58.6891   64.7955 C   0  0  0  0  0  0  0  0  0  0  0  0
  -50.5054   59.8809   63.9367 C   0  0  0  0  0  0  0  0  0  0  0  0
  -51.0561   59.4376   62.5804 C   0  0  0  0  0  0  0  0  0  0  0  0
  -50.7302   58.0059   62.1808 C   0  0  0  0  0  0  0  0  0  0  0  0
  -50.8713   57.7041   60.6937 C   0  0  0  0  0  0  0  0  0  0  0  0
  -49.6623   58.1317   59.8680 C   0  0  0  0  0  0  0  0  0  0  0  0
  -48.9410   56.9752   59.1941 C   0  0  0  0  0  0  0  0  0  0  0  0
  -48.2428   57.3163   57.8863 C   0  0  0  0  0  0  0  0  0  0  0  0
  -47.2687   56.2625   57.4572 C   0  0  0  0  0  0  0  0  0  0  0  0
  -39.7259   60.7937   65.6284 O   0  0  0  0  0  0  0  0  0  0  0  0
  -38.3321   60.5320   65.9035 C   0  0  0  0  0  0  0  0  0  0  0  0
  -37.4261   61.4932   65.1636 C   0  0  0  0  0  0  0  0  0  0  0  0
  -37.2579   62.7128   65.8990 O   0  0  0  0  0  0  0  0  0  0  0  0
  -36.8197   62.5233   66.7434 H   0  0  0  0  0  0  0  0  0  0  0  0
  -36.0711   60.8974   64.8615 C   0  0  0  0  0  0  0  0  0  0  0  0
  -36.1247   59.9765   63.7450 O   0  0  0  0  0  0  0  0  0  0  0  0
  -35.4593   58.5369   63.4993 P   0  0  0  0  0  0  0  0  0  0  0  0
  -34.5537   58.2204   64.6885 O   0  0  0  0  0  0  0  0  0  0  0  0
  -34.6270   58.6018   62.2782 O   0  0  0  0  0  0  0  0  0  0  0  0
  -33.9629   59.3020   62.3762 H   0  0  0  0  0  0  0  0  0  0  0  0
  -36.6008   57.3594   63.3743 O   0  0  0  0  0  0  0  0  0  0  0  0
  -38.0399   57.5641   63.3668 C   0  0  0  0  0  0  0  0  0  0  0  0
  -38.6275   57.0889   62.0611 C   0  0  0  0  0  0  0  0  0  0  0  0
  -39.1718   58.1599   61.1340 N   0  0  0  0  0  0  0  0  0  0  0  0
  -40.2962   57.6182   60.3110 C   0  0  0  0  0  0  0  0  0  0  0  0
  -38.0749   58.6057   60.2238 C   0  0  0  0  0  0  0  0  0  0  0  0
  -39.6716   59.3357   61.9238 C   0  0  0  0  0  0  0  0  0  0  0  0
 34 33  1  0  0  0
 34 35  1  0  0  0
 34 36  1  0  0  0
 34 37  1  0  0  0
 22 23  1  0  0  0
 22 25  1  0  0  0
 22 21  1  0  0  0
 23 24  1  0  0  0
 27 26  1  0  0  0
 27 28  2  0  0  0
 27 31  1  0  0  0
 27 29  1  0  0  0
 25 26  1  0  0  0
 32 33  1  0  0  0
 32 31  1  0  0  0
 29 30  1  0  0  0
 20 21  1  0  0  0
 20  2  1  0  0  0
  1  2  2  0  0  0
  2  3  1  0  0  0
  3  4  1  0  0  0
  4  5  1  0  0  0
  5  6  1  0  0  0
  6  7  1  0  0  0
  7  8  1  0  0  0
  8  9  1  0  0  0
  9 10  1  0  0  0
 10 11  2  0  0  0
 11 12  1  0  0  0
 12 13  1  0  0  0
 13 14  1  0  0  0
 14 15  1  0  0  0
 15 16  1  0  0  0
 16 17  1  0  0  0
 17 18  1  0  0  0
 18 19  1  0  0  0
M  CHG 1  28  -1
M  END
> <minimizedAffinity>
-8.19616

> <CNNscore>
0.7738292217

> <CNNaffinity>
7.0985841751

> <CNN_VS>
5.4930920601

> <CNNaffinity_variance>
0.3561618924

$$$$
/media/chris/experiments/cd1a-new-docking/inputs/ligands/4x6e_ligand.pdb


 37 36  0  0  0  0  0  0  0  0999 V2000
  -41.4136   60.9397   66.3216 O   0  0  0  0  0  0  0  0  0  0  0  0
  -41.6575   60.2500   65.3627 C   0  0  0  0  0  0  0  0  0  0  0  0
  -41.7887   58.7580   65.3792 C   0  0  0  0  0  0  0  0  0  0  0  0
  -42.5013   58.2326   66.6197 C   0  0  0  0  0  0  0  0  0  0  0  0
  -43.9806   57.9521   66.4190 C   0  0  0  0  0  0  0  0  0  0  0  0
  -44.8716   59.1335   66.7604 C   0  0  0  0  0  0  0  0  0  0  0  0
  -45.6311   59.6690   65.5587 C   0  0  0  0  0  0  0  0  0  0  0  0
  -46.4521   58.5973   64.8768 C   0  0  0  0  0  0  0  0  0  0  0  0
  -47.5930   58.0466   65.7081 C   0  0  0  0  0  0  0  0  0  0  0  0
  -48.5584   59.0730   66.1626 C   0  0  0  0  0  0  0  0  0  0  0  0
  -49.7381   59.3181   65.6303 C   0  0  0  0  0  0  0  0  0  0  0  0
  -50.3805   58.5996   64.4886 C   0  0  0  0  0  0  0  0  0  0  0  0
  -50.8332   59.6005   63.4243 C   0  0  0  0  0  0  0  0  0  0  0  0
  -50.8116   59.0846   61.9928 C   0  0  0  0  0  0  0  0  0  0  0  0
  -49.7512   58.0288   61.7045 C   0  0  0  0  0  0  0  0  0  0  0  0
  -50.0894   57.1344   60.5162 C   0  0  0  0  0  0  0  0  0  0  0  0
  -49.5081   57.6214   59.1984 C   0  0  0  0  0  0  0  0  0  0  0  0
  -48.4624   56.7113   58.5718 C   0  0  0  0  0  0  0  0  0  0  0  0
  -47.7908   57.3311   57.3850 C   0  0  0  0  0  0  0  0  0  0  0  0
  -41.8617   60.7228   64.1296 O   0  0  0  0  0  0  0  0  0  0  0  0
  -42.6844   59.9413   63.2357 C   0  0  0  0  0  0  0  0  0  0  0  0
  -42.1804   60.0085   61.8095 C   0  0  0  0  0  0  0  0  0  0  0  0
  -42.8542   61.0377   61.0726 O   0  0  0  0  0  0  0  0  0  0  0  0
  -42.6586   61.9007   61.4699 H   0  0  0  0  0  0  0  0  0  0  0  0
  -40.6879   60.2293   61.7314 C   0  0  0  0  0  0  0  0  0  0  0  0
  -39.9479   59.0782   62.2056 O   0  0  0  0  0  0  0  0  0  0  0  0
  -39.3477   57.7946   61.4520 P   0  0  0  0  0  0  0  0  0  0  0  0
  -38.7689   58.2536   60.1145 O   0  0  0  0  0  0  0  0  0  0  0  0
  -40.4489   56.8432   61.1864 O   0  0  0  0  0  0  0  0  0  0  0  0
  -41.1396   57.2846   60.6678 H   0  0  0  0  0  0  0  0  0  0  0  0
  -38.1526   57.0846   62.3310 O   0  0  0  0  0  0  0  0  0  0  0  0
  -37.2915   57.7509   63.2940 C   0  0  0  0  0  0  0  0  0  0  0  0
  -35.9902   58.1486   62.6424 C   0  0  0  0  0  0  0  0  0  0  0  0
  -34.9085   58.6841   63.5620 N   0  0  0  0  0  0  0  0  0  0  0  0
  -34.7351   57.7866   64.7451 C   0  0  0  0  0  0  0  0  0  0  0  0
  -35.3143   60.0406   64.0371 C   0  0  0  0  0  0  0  0  0  0  0  0
  -33.5990   58.7836   62.8328 C   0  0  0  0  0  0  0  0  0  0  0  0
 34 33  1  0  0  0
 34 35  1  0  0  0
 34 36  1  0  0  0
 34 37  1  0  0  0
 22 23  1  0  0  0
 22 25  1  0  0  0
 22 21  1  0  0  0
 23 24  1  0  0  0
 27 26  1  0  0  0
 27 28  2  0  0  0
 27 31  1  0  0  0
 27 29  1  0  0  0
 25 26  1  0  0  0
 32 33  1  0  0  0
 32 31  1  0  0  0
 29 30  1  0  0  0
 20 21  1  0  0  0
 20  2  1  0  0  0
  1  2  2  0  0  0
  2  3  1  0  0  0
  3  4  1  0  0  0
  4  5  1  0  0  0
  5  6  1  0  0  0
  6  7  1  0  0  0
  7  8  1  0  0  0
  8  9  1  0  0  0
  9 10  1  0  0  0
 10 11  2  0  0  0
 11 12  1  0  0  0
 12 13  1  0  0  0
 13 14  1  0  0  0
 14 15  1  0  0  0
 15 16  1  0  0  0
 16 17  1  0  0  0
 17 18  1  0  0  0
 18 19  1  0  0  0
M  CHG 1  28  -1
M  END
> <minimizedAffinity>
-7.57577

> <CNNscore>
0.7641042471

> <CNNaffinity>
6.9540710449

> <CNN_VS>
5.3136353493

> <CNNaffinity_variance>
0.4181900918

$$$$
/media/chris/experiments/cd1a-new-docking/inputs/ligands/4x6e_ligand.pdb


 37 36  0  0  0  0  0  0  0  0999 V2000
  -40.8503   61.1593   66.3906 O   0  0  0  0  0  0  0  0  0  0  0  0
  -40.9008   60.0655   65.8848 C   0  0  0  0  0  0  0  0  0  0  0  0
  -41.8242   58.9611   66.2989 C   0  0  0  0  0  0  0  0  0  0  0  0
  -43.0584   58.8475   65.4120 C   0  0  0  0  0  0  0  0  0  0  0  0
  -43.9458   57.6552   65.7256 C   0  0  0  0  0  0  0  0  0  0  0  0
  -45.4268   57.9412   65.5497 C   0  0  0  0  0  0  0  0  0  0  0  0
  -46.2493   57.5789   66.7743 C   0  0  0  0  0  0  0  0  0  0  0  0
  -47.5852   56.9722   66.4072 C   0  0  0  0  0  0  0  0  0  0  0  0
  -48.3388   57.7082   65.3179 C   0  0  0  0  0  0  0  0  0  0  0  0
  -49.6235   58.2940   65.7633 C   0  0  0  0  0  0  0  0  0  0  0  0
  -50.2556   59.3004   65.1952 C   0  0  0  0  0  0  0  0  0  0  0  0
  -49.8479   60.0438   63.9649 C   0  0  0  0  0  0  0  0  0  0  0  0
  -50.8591   59.8004   62.8433 C   0  0  0  0  0  0  0  0  0  0  0  0
  -50.3130   59.0828   61.6175 C   0  0  0  0  0  0  0  0  0  0  0  0
  -49.8480   57.6524   61.8624 C   0  0  0  0  0  0  0  0  0  0  0  0
  -49.6572   56.8462   60.5817 C   0  0  0  0  0  0  0  0  0  0  0  0
  -49.7079   57.6869   59.3158 C   0  0  0  0  0  0  0  0  0  0  0  0
  -48.5537   57.4764   58.3474 C   0  0  0  0  0  0  0  0  0  0  0  0
  -47.7996   56.2093   58.6109 C   0  0  0  0  0  0  0  0  0  0  0  0
  -40.1387   59.6765   64.8584 O   0  0  0  0  0  0  0  0  0  0  0  0
  -39.3918   60.6907   64.1510 C   0  0  0  0  0  0  0  0  0  0  0  0
  -37.9126   60.3702   64.1112 C   0  0  0  0  0  0  0  0  0  0  0  0
  -37.2388   61.1668   63.1275 O   0  0  0  0  0  0  0  0  0  0  0  0
  -37.3065   62.1039   63.3687 H   0  0  0  0  0  0  0  0  0  0  0  0
  -37.2427   60.5550   65.4526 C   0  0  0  0  0  0  0  0  0  0  0  0
  -37.3563   61.9183   65.9279 O   0  0  0  0  0  0  0  0  0  0  0  0
  -36.3175   63.1413   65.9594 P   0  0  0  0  0  0  0  0  0  0  0  0
  -35.1089   62.7196   66.7936 O   0  0  0  0  0  0  0  0  0  0  0  0
  -36.9650   64.2959   66.6195 O   0  0  0  0  0  0  0  0  0  0  0  0
  -37.2573   64.0386   67.5079 H   0  0  0  0  0  0  0  0  0  0  0  0
  -35.8060   63.5359   64.4469 O   0  0  0  0  0  0  0  0  0  0  0  0
  -34.4222   63.6675   64.0220 C   0  0  0  0  0  0  0  0  0  0  0  0
  -33.9744   65.1032   64.1409 C   0  0  0  0  0  0  0  0  0  0  0  0
  -32.6480   65.3433   64.8378 N   0  0  0  0  0  0  0  0  0  0  0  0
  -32.8616   66.0300   66.1485 C   0  0  0  0  0  0  0  0  0  0  0  0
  -31.8016   66.2124   63.9668 C   0  0  0  0  0  0  0  0  0  0  0  0
  -31.9384   64.0421   65.0820 C   0  0  0  0  0  0  0  0  0  0  0  0
 34 33  1  0  0  0
 34 35  1  0  0  0
 34 36  1  0  0  0
 34 37  1  0  0  0
 22 23  1  0  0  0
 22 25  1  0  0  0
 22 21  1  0  0  0
 23 24  1  0  0  0
 27 26  1  0  0  0
 27 28  2  0  0  0
 27 31  1  0  0  0
 27 29  1  0  0  0
 25 26  1  0  0  0
 32 33  1  0  0  0
 32 31  1  0  0  0
 29 30  1  0  0  0
 20 21  1  0  0  0
 20  2  1  0  0  0
  1  2  2  0  0  0
  2  3  1  0  0  0
  3  4  1  0  0  0
  4  5  1  0  0  0
  5  6  1  0  0  0
  6  7  1  0  0  0
  7  8  1  0  0  0
  8  9  1  0  0  0
  9 10  1  0  0  0
 10 11  2  0  0  0
 11 12  1  0  0  0
 12 13  1  0  0  0
 13 14  1  0  0  0
 14 15  1  0  0  0
 15 16  1  0  0  0
 16 17  1  0  0  0
 17 18  1  0  0  0
 18 19  1  0  0  0
M  CHG 1  28  -1
M  END
> <minimizedAffinity>
-7.77197

> <CNNscore>
0.7140990496

> <CNNaffinity>
6.3213901520

> <CNN_VS>
4.5140986443

> <CNNaffinity_variance>
0.3823021650

$$$$
/media/chris/experiments/cd1a-new-docking/inputs/ligands/4x6e_ligand.pdb


 37 36  0  0  0  0  0  0  0  0999 V2000
  -41.4729   57.4889   65.1810 O   0  0  0  0  0  0  0  0  0  0  0  0
  -41.3994   58.5414   65.7655 C   0  0  0  0  0  0  0  0  0  0  0  0
  -42.0727   58.8597   67.0651 C   0  0  0  0  0  0  0  0  0  0  0  0
  -43.4245   59.5411   66.8888 C   0  0  0  0  0  0  0  0  0  0  0  0
  -44.5049   58.6455   66.3075 C   0  0  0  0  0  0  0  0  0  0  0  0
  -45.8522   59.3331   66.1729 C   0  0  0  0  0  0  0  0  0  0  0  0
  -46.5771   58.9689   64.8886 C   0  0  0  0  0  0  0  0  0  0  0  0
  -47.3340   60.1419   64.3065 C   0  0  0  0  0  0  0  0  0  0  0  0
  -48.6648   60.4313   64.9706 C   0  0  0  0  0  0  0  0  0  0  0  0
  -49.5283   59.2401   65.1357 C   0  0  0  0  0  0  0  0  0  0  0  0
  -50.4173   58.8002   64.2690 C   0  0  0  0  0  0  0  0  0  0  0  0
  -50.7244   59.3703   62.9224 C   0  0  0  0  0  0  0  0  0  0  0  0
  -51.0588   58.2475   61.9390 C   0  0  0  0  0  0  0  0  0  0  0  0
  -50.1593   58.1640   60.7144 C   0  0  0  0  0  0  0  0  0  0  0  0
  -49.8565   56.7502   60.2328 C   0  0  0  0  0  0  0  0  0  0  0  0
  -48.5517   56.6396   59.4507 C   0  0  0  0  0  0  0  0  0  0  0  0
  -48.5090   57.5099   58.2046 C   0  0  0  0  0  0  0  0  0  0  0  0
  -48.0022   56.8214   56.9463 C   0  0  0  0  0  0  0  0  0  0  0  0
  -47.1473   55.6278   57.2428 C   0  0  0  0  0  0  0  0  0  0  0  0
  -40.6869   59.5888   65.3402 O   0  0  0  0  0  0  0  0  0  0  0  0
  -39.8168   60.2426   66.2902 C   0  0  0  0  0  0  0  0  0  0  0  0
  -38.3935   59.7372   66.1848 C   0  0  0  0  0  0  0  0  0  0  0  0
  -38.3293   58.5368   65.4029 O   0  0  0  0  0  0  0  0  0  0  0  0
  -38.6174   58.7258   64.4962 H   0  0  0  0  0  0  0  0  0  0  0  0
  -37.4538   60.7670   65.6029 C   0  0  0  0  0  0  0  0  0  0  0  0
  -37.2738   60.5870   64.1771 O   0  0  0  0  0  0  0  0  0  0  0  0
  -38.0802   61.1468   62.9075 P   0  0  0  0  0  0  0  0  0  0  0  0
  -37.4465   62.4715   62.4857 O   0  0  0  0  0  0  0  0  0  0  0  0
  -39.4804   61.4022   63.3104 O   0  0  0  0  0  0  0  0  0  0  0  0
  -39.4943   62.0213   64.0571 H   0  0  0  0  0  0  0  0  0  0  0  0
  -38.0115   60.0995   61.6411 O   0  0  0  0  0  0  0  0  0  0  0  0
  -39.0555   59.8875   60.6522 C   0  0  0  0  0  0  0  0  0  0  0  0
  -39.2296   58.4128   60.3857 C   0  0  0  0  0  0  0  0  0  0  0  0
  -40.2296   57.6800   61.2608 N   0  0  0  0  0  0  0  0  0  0  0  0
  -41.0205   56.7050   60.4489 C   0  0  0  0  0  0  0  0  0  0  0  0
  -41.1618   58.6806   61.8611 C   0  0  0  0  0  0  0  0  0  0  0  0
  -39.5234   56.9367   62.3585 C   0  0  0  0  0  0  0  0  0  0  0  0
 34 33  1  0  0  0
 34 35  1  0  0  0
 34 36  1  0  0  0
 34 37  1  0  0  0
 22 23  1  0  0  0
 22 25  1  0  0  0
 22 21  1  0  0  0
 23 24  1  0  0  0
 27 26  1  0  0  0
 27 28  2  0  0  0
 27 31  1  0  0  0
 27 29  1  0  0  0
 25 26  1  0  0  0
 32 33  1  0  0  0
 32 31  1  0  0  0
 29 30  1  0  0  0
 20 21  1  0  0  0
 20  2  1  0  0  0
  1  2  2  0  0  0
  2  3  1  0  0  0
  3  4  1  0  0  0
  4  5  1  0  0  0
  5  6  1  0  0  0
  6  7  1  0  0  0
  7  8  1  0  0  0
  8  9  1  0  0  0
  9 10  1  0  0  0
 10 11  2  0  0  0
 11 12  1  0  0  0
 12 13  1  0  0  0
 13 14  1  0  0  0
 14 15  1  0  0  0
 15 16  1  0  0  0
 16 17  1  0  0  0
 17 18  1  0  0  0
 18 19  1  0  0  0
M  CHG 1  28  -1
M  END
> <minimizedAffinity>
-7.79593

> <CNNscore>
0.6544818878

> <CNNaffinity>
6.8752999306

> <CNN_VS>
4.4997591972

> <CNNaffinity_variance>
0.1933487505

$$$$
/media/chris/experiments/cd1a-new-docking/inputs/ligands/4x6e_ligand.pdb


 37 36  0  0  0  0  0  0  0  0999 V2000
  -40.3982   57.6747   60.7023 O   0  0  0  0  0  0  0  0  0  0  0  0
  -41.0241   58.6597   61.0070 C   0  0  0  0  0  0  0  0  0  0  0  0
  -42.4199   58.6657   61.5504 C   0  0  0  0  0  0  0  0  0  0  0  0
  -42.8023   59.9873   62.2060 C   0  0  0  0  0  0  0  0  0  0  0  0
  -43.3395   59.8510   63.6204 C   0  0  0  0  0  0  0  0  0  0  0  0
  -44.8182   59.5096   63.6750 C   0  0  0  0  0  0  0  0  0  0  0  0
  -45.5392   60.1834   64.8298 C   0  0  0  0  0  0  0  0  0  0  0  0
  -46.6157   59.3028   65.4241 C   0  0  0  0  0  0  0  0  0  0  0  0
  -48.0076   59.9012   65.4049 C   0  0  0  0  0  0  0  0  0  0  0  0
  -49.0873   58.9261   65.6797 C   0  0  0  0  0  0  0  0  0  0  0  0
  -50.1556   58.7217   64.9368 C   0  0  0  0  0  0  0  0  0  0  0  0
  -50.4973   59.3881   63.6439 C   0  0  0  0  0  0  0  0  0  0  0  0
  -50.8035   58.3378   62.5749 C   0  0  0  0  0  0  0  0  0  0  0  0
  -49.8364   58.3016   61.4006 C   0  0  0  0  0  0  0  0  0  0  0  0
  -50.0241   57.1274   60.4475 C   0  0  0  0  0  0  0  0  0  0  0  0
  -48.7938   56.8311   59.5962 C   0  0  0  0  0  0  0  0  0  0  0  0
  -48.8877   57.3679   58.1767 C   0  0  0  0  0  0  0  0  0  0  0  0
  -47.6572   57.1404   57.3115 C   0  0  0  0  0  0  0  0  0  0  0  0
  -47.2236   55.7069   57.2859 C   0  0  0  0  0  0  0  0  0  0  0  0
  -40.5537   59.9071   60.9151 O   0  0  0  0  0  0  0  0  0  0  0  0
  -39.1867   60.1434   61.3181 C   0  0  0  0  0  0  0  0  0  0  0  0
  -39.0968   60.5661   62.7692 C   0  0  0  0  0  0  0  0  0  0  0  0
  -38.8930   59.4333   63.6245 O   0  0  0  0  0  0  0  0  0  0  0  0
  -38.0440   59.0156   63.4110 H   0  0  0  0  0  0  0  0  0  0  0  0
  -38.0047   61.5816   63.0110 C   0  0  0  0  0  0  0  0  0  0  0  0
  -38.0644   62.1276   64.3510 O   0  0  0  0  0  0  0  0  0  0  0  0
  -36.9615   62.2748   65.5076 P   0  0  0  0  0  0  0  0  0  0  0  0
  -37.3522   61.3509   66.6601 O   0  0  0  0  0  0  0  0  0  0  0  0
  -36.9730   63.6701   65.9986 O   0  0  0  0  0  0  0  0  0  0  0  0
  -37.8638   63.8965   66.3088 H   0  0  0  0  0  0  0  0  0  0  0  0
  -35.4660   61.8496   64.9711 O   0  0  0  0  0  0  0  0  0  0  0  0
  -34.8348   60.5518   65.1448 C   0  0  0  0  0  0  0  0  0  0  0  0
  -35.3857   59.5659   64.1446 C   0  0  0  0  0  0  0  0  0  0  0  0
  -34.5290   58.3480   63.8522 N   0  0  0  0  0  0  0  0  0  0  0  0
  -33.7465   57.9546   65.0639 C   0  0  0  0  0  0  0  0  0  0  0  0
  -33.5796   58.6857   62.7499 C   0  0  0  0  0  0  0  0  0  0  0  0
  -35.3872   57.1890   63.4319 C   0  0  0  0  0  0  0  0  0  0  0  0
 34 33  1  0  0  0
 34 35  1  0  0  0
 34 36  1  0  0  0
 34 37  1  0  0  0
 22 23  1  0  0  0
 22 25  1  0  0  0
 22 21  1  0  0  0
 23 24  1  0  0  0
 27 26  1  0  0  0
 27 28  2  0  0  0
 27 31  1  0  0  0
 27 29  1  0  0  0
 25 26  1  0  0  0
 32 33  1  0  0  0
 32 31  1  0  0  0
 29 30  1  0  0  0
 20 21  1  0  0  0
 20  2  1  0  0  0
  1  2  2  0  0  0
  2  3  1  0  0  0
  3  4  1  0  0  0
  4  5  1  0  0  0
  5  6  1  0  0  0
  6  7  1  0  0  0
  7  8  1  0  0  0
  8  9  1  0  0  0
  9 10  1  0  0  0
 10 11  2  0  0  0
 11 12  1  0  0  0
 12 13  1  0  0  0
 13 14  1  0  0  0
 14 15  1  0  0  0
 15 16  1  0  0  0
 16 17  1  0  0  0
 17 18  1  0  0  0
 18 19  1  0  0  0
M  CHG 1  28  -1
M  END
> <minimizedAffinity>
-7.71301

> <CNNscore>
0.6455156803

> <CNNaffinity>
6.6512670517

> <CNN_VS>
4.2934970856

> <CNNaffinity_variance>
0.3685941100

$$$$
/media/chris/experiments/cd1a-new-docking/inputs/ligands/4x6e_ligand.pdb


 37 36  0  0  0  0  0  0  0  0999 V2000
  -43.0505   59.9187   66.6003 O   0  0  0  0  0  0  0  0  0  0  0  0
  -42.4797   58.8777   66.3872 C   0  0  0  0  0  0  0  0  0  0  0  0
  -43.0572   57.5127   66.6039 C   0  0  0  0  0  0  0  0  0  0  0  0
  -44.3348   57.2692   65.8095 C   0  0  0  0  0  0  0  0  0  0  0  0
  -45.6027   57.7283   66.5088 C   0  0  0  0  0  0  0  0  0  0  0  0
  -46.3395   58.8278   65.7641 C   0  0  0  0  0  0  0  0  0  0  0  0
  -47.7693   59.0116   66.2428 C   0  0  0  0  0  0  0  0  0  0  0  0
  -48.6363   57.8126   65.9290 C   0  0  0  0  0  0  0  0  0  0  0  0
  -50.0665   58.1441   65.5540 C   0  0  0  0  0  0  0  0  0  0  0  0
  -50.2457   59.5076   65.0054 C   0  0  0  0  0  0  0  0  0  0  0  0
  -50.0713   59.8680   63.7506 C   0  0  0  0  0  0  0  0  0  0  0  0
  -49.6982   58.9883   62.6019 C   0  0  0  0  0  0  0  0  0  0  0  0
  -50.9269   58.2282   62.0999 C   0  0  0  0  0  0  0  0  0  0  0  0
  -50.7391   57.4780   60.7894 C   0  0  0  0  0  0  0  0  0  0  0  0
  -50.0763   58.2810   59.6767 C   0  0  0  0  0  0  0  0  0  0  0  0
  -49.1891   57.4405   58.7642 C   0  0  0  0  0  0  0  0  0  0  0  0
  -48.4264   56.3447   59.4919 C   0  0  0  0  0  0  0  0  0  0  0  0
  -47.1947   55.8189   58.7702 C   0  0  0  0  0  0  0  0  0  0  0  0
  -47.3256   55.8813   57.2794 C   0  0  0  0  0  0  0  0  0  0  0  0
  -41.2356   58.7874   65.9080 O   0  0  0  0  0  0  0  0  0  0  0  0
  -40.9210   59.5243   64.7060 C   0  0  0  0  0  0  0  0  0  0  0  0
  -41.0223   58.6519   63.4727 C   0  0  0  0  0  0  0  0  0  0  0  0
  -42.3918   58.3903   63.1374 O   0  0  0  0  0  0  0  0  0  0  0  0
  -42.8355   59.2242   62.9165 H   0  0  0  0  0  0  0  0  0  0  0  0
  -40.3181   59.2517   62.2783 C   0  0  0  0  0  0  0  0  0  0  0  0
  -39.0038   58.6754   62.0829 O   0  0  0  0  0  0  0  0  0  0  0  0
  -37.6191   58.8502   62.8751 P   0  0  0  0  0  0  0  0  0  0  0  0
  -36.5109   58.1996   62.0486 O   0  0  0  0  0  0  0  0  0  0  0  0
  -37.7202   58.1397   64.1686 O   0  0  0  0  0  0  0  0  0  0  0  0
  -37.9380   57.2079   64.0096 H   0  0  0  0  0  0  0  0  0  0  0  0
  -37.2503   60.4372   63.1000 O   0  0  0  0  0  0  0  0  0  0  0  0
  -37.1118   61.1070   64.3826 C   0  0  0  0  0  0  0  0  0  0  0  0
  -35.6546   61.2241   64.7551 C   0  0  0  0  0  0  0  0  0  0  0  0
  -35.1636   62.6069   65.1419 N   0  0  0  0  0  0  0  0  0  0  0  0
  -34.2381   62.5255   66.3132 C   0  0  0  0  0  0  0  0  0  0  0  0
  -36.3425   63.4457   65.5122 C   0  0  0  0  0  0  0  0  0  0  0  0
  -34.4376   63.2482   63.9939 C   0  0  0  0  0  0  0  0  0  0  0  0
 34 33  1  0  0  0
 34 35  1  0  0  0
 34 36  1  0  0  0
 34 37  1  0  0  0
 22 23  1  0  0  0
 22 25  1  0  0  0
 22 21  1  0  0  0
 23 24  1  0  0  0
 27 26  1  0  0  0
 27 28  2  0  0  0
 27 31  1  0  0  0
 27 29  1  0  0  0
 25 26  1  0  0  0
 32 33  1  0  0  0
 32 31  1  0  0  0
 29 30  1  0  0  0
 20 21  1  0  0  0
 20  2  1  0  0  0
  1  2  2  0  0  0
  2  3  1  0  0  0
  3  4  1  0  0  0
  4  5  1  0  0  0
  5  6  1  0  0  0
  6  7  1  0  0  0
  7  8  1  0  0  0
  8  9  1  0  0  0
  9 10  1  0  0  0
 10 11  2  0  0  0
 11 12  1  0  0  0
 12 13  1  0  0  0
 13 14  1  0  0  0
 14 15  1  0  0  0
 15 16  1  0  0  0
 16 17  1  0  0  0
 17 18  1  0  0  0
 18 19  1  0  0  0
M  CHG 1  28  -1
M  END
> <minimizedAffinity>
-7.75197

> <CNNscore>
0.5893571973

> <CNNaffinity>
6.5228285789

> <CNN_VS>
3.8442759514

> <CNNaffinity_variance>
0.4736811519

$$$$
/media/chris/experiments/cd1a-new-docking/inputs/ligands/4x6e_ligand.pdb


 37 36  0  0  0  0  0  0  0  0999 V2000
  -43.6053   59.5146   62.5760 O   0  0  0  0  0  0  0  0  0  0  0  0
  -43.8155   59.9484   63.6817 C   0  0  0  0  0  0  0  0  0  0  0  0
  -45.1665   60.2636   64.2465 C   0  0  0  0  0  0  0  0  0  0  0  0
  -45.8855   59.0390   64.7997 C   0  0  0  0  0  0  0  0  0  0  0  0
  -46.0892   59.0606   66.3049 C   0  0  0  0  0  0  0  0  0  0  0  0
  -47.3518   58.3465   66.7542 C   0  0  0  0  0  0  0  0  0  0  0  0
  -48.1316   57.7401   65.6002 C   0  0  0  0  0  0  0  0  0  0  0  0
  -49.6007   58.0956   65.6530 C   0  0  0  0  0  0  0  0  0  0  0  0
  -49.8947   59.5821   65.6476 C   0  0  0  0  0  0  0  0  0  0  0  0
  -49.4296   60.2846   64.4302 C   0  0  0  0  0  0  0  0  0  0  0  0
  -49.9671   60.1970   63.2309 C   0  0  0  0  0  0  0  0  0  0  0  0
  -51.1767   59.4124   62.8386 C   0  0  0  0  0  0  0  0  0  0  0  0
  -50.7882   58.2963   61.8675 C   0  0  0  0  0  0  0  0  0  0  0  0
  -50.0248   58.7451   60.6300 C   0  0  0  0  0  0  0  0  0  0  0  0
  -50.2436   57.8852   59.3911 C   0  0  0  0  0  0  0  0  0  0  0  0
  -48.9475   57.4472   58.7169 C   0  0  0  0  0  0  0  0  0  0  0  0
  -48.2238   56.3286   59.4497 C   0  0  0  0  0  0  0  0  0  0  0  0
  -47.0431   55.7209   58.7075 C   0  0  0  0  0  0  0  0  0  0  0  0
  -46.9893   56.1319   57.2682 C   0  0  0  0  0  0  0  0  0  0  0  0
  -42.8619   60.2036   64.5824 O   0  0  0  0  0  0  0  0  0  0  0  0
  -42.2598   59.0807   65.2631 C   0  0  0  0  0  0  0  0  0  0  0  0
  -40.9277   58.7039   64.6500 C   0  0  0  0  0  0  0  0  0  0  0  0
  -39.8593   58.8796   65.5902 O   0  0  0  0  0  0  0  0  0  0  0  0
  -39.9897   58.2820   66.3431 H   0  0  0  0  0  0  0  0  0  0  0  0
  -40.9097   57.2865   64.1276 C   0  0  0  0  0  0  0  0  0  0  0  0
  -41.1372   57.2366   62.6982 O   0  0  0  0  0  0  0  0  0  0  0  0
  -40.2941   57.7912   61.4502 P   0  0  0  0  0  0  0  0  0  0  0  0
  -40.7056   59.2417   61.2030 O   0  0  0  0  0  0  0  0  0  0  0  0
  -40.6393   56.9936   60.2533 O   0  0  0  0  0  0  0  0  0  0  0  0
  -41.5960   57.0382   60.0997 H   0  0  0  0  0  0  0  0  0  0  0  0
  -38.6770   57.7423   61.7467 O   0  0  0  0  0  0  0  0  0  0  0  0
  -37.7773   58.8838   61.7587 C   0  0  0  0  0  0  0  0  0  0  0  0
  -37.4757   59.2952   63.1785 C   0  0  0  0  0  0  0  0  0  0  0  0
  -36.2891   58.6204   63.8414 N   0  0  0  0  0  0  0  0  0  0  0  0
  -35.5172   59.6045   64.6605 C   0  0  0  0  0  0  0  0  0  0  0  0
  -35.3976   58.0695   62.7774 C   0  0  0  0  0  0  0  0  0  0  0  0
  -36.7493   57.5026   64.7329 C   0  0  0  0  0  0  0  0  0  0  0  0
 34 33  1  0  0  0
 34 35  1  0  0  0
 34 36  1  0  0  0
 34 37  1  0  0  0
 22 23  1  0  0  0
 22 25  1  0  0  0
 22 21  1  0  0  0
 23 24  1  0  0  0
 27 26  1  0  0  0
 27 28  2  0  0  0
 27 31  1  0  0  0
 27 29  1  0  0  0
 25 26  1  0  0  0
 32 33  1  0  0  0
 32 31  1  0  0  0
 29 30  1  0  0  0
 20 21  1  0  0  0
 20  2  1  0  0  0
  1  2  2  0  0  0
  2  3  1  0  0  0
  3  4  1  0  0  0
  4  5  1  0  0  0
  5  6  1  0  0  0
  6  7  1  0  0  0
  7  8  1  0  0  0
  8  9  1  0  0  0
  9 10  1  0  0  0
 10 11  2  0  0  0
 11 12  1  0  0  0
 12 13  1  0  0  0
 13 14  1  0  0  0
 14 15  1  0  0  0
 15 16  1  0  0  0
 16 17  1  0  0  0
 17 18  1  0  0  0
 18 19  1  0  0  0
M  CHG 1  28  -1
M  END
> <minimizedAffinity>
-7.69112

> <CNNscore>
0.5437832475

> <CNNaffinity>
6.7294135094

> <CNN_VS>
3.6593422890

> <CNNaffinity_variance>
0.2623935342

$$$$
/media/chris/experiments/cd1a-new-docking/inputs/ligands/4x6e_ligand.pdb


 37 36  0  0  0  0  0  0  0  0999 V2000
  -39.8863   58.7936   65.5083 O   0  0  0  0  0  0  0  0  0  0  0  0
  -40.1158   59.9141   65.8910 C   0  0  0  0  0  0  0  0  0  0  0  0
  -41.4554   60.4238   66.3262 C   0  0  0  0  0  0  0  0  0  0  0  0
  -42.6148   59.7781   65.5768 C   0  0  0  0  0  0  0  0  0  0  0  0
  -43.3711   58.7318   66.3772 C   0  0  0  0  0  0  0  0  0  0  0  0
  -44.7772   59.1615   66.7574 C   0  0  0  0  0  0  0  0  0  0  0  0
  -45.5239   59.8236   65.6122 C   0  0  0  0  0  0  0  0  0  0  0  0
  -46.2402   58.8177   64.7388 C   0  0  0  0  0  0  0  0  0  0  0  0
  -47.4797   58.2065   65.3601 C   0  0  0  0  0  0  0  0  0  0  0  0
  -48.3232   59.1730   66.0994 C   0  0  0  0  0  0  0  0  0  0  0  0
  -49.5918   59.4359   65.8617 C   0  0  0  0  0  0  0  0  0  0  0  0
  -50.4689   58.7986   64.8336 C   0  0  0  0  0  0  0  0  0  0  0  0
  -50.9701   59.8511   63.8434 C   0  0  0  0  0  0  0  0  0  0  0  0
  -51.1566   59.3647   62.4136 C   0  0  0  0  0  0  0  0  0  0  0  0
  -50.2887   58.1758   62.0193 C   0  0  0  0  0  0  0  0  0  0  0  0
  -50.7879   57.4421   60.7788 C   0  0  0  0  0  0  0  0  0  0  0  0
  -50.2788   58.0311   59.4727 C   0  0  0  0  0  0  0  0  0  0  0  0
  -48.9750   57.4412   58.9566 C   0  0  0  0  0  0  0  0  0  0  0  0
  -48.6210   56.1466   59.6217 C   0  0  0  0  0  0  0  0  0  0  0  0
  -39.1939   60.8757   65.9963 O   0  0  0  0  0  0  0  0  0  0  0  0
  -37.8666   60.4935   66.4194 C   0  0  0  0  0  0  0  0  0  0  0  0
  -36.8440   61.5579   66.0819 C   0  0  0  0  0  0  0  0  0  0  0  0
  -36.2297   62.0774   67.2690 O   0  0  0  0  0  0  0  0  0  0  0  0
  -35.7441   61.3682   67.7186 H   0  0  0  0  0  0  0  0  0  0  0  0
  -35.7742   61.0568   65.1403 C   0  0  0  0  0  0  0  0  0  0  0  0
  -36.3087   60.1343   64.1601 O   0  0  0  0  0  0  0  0  0  0  0  0
  -35.8447   58.6727   63.6866 P   0  0  0  0  0  0  0  0  0  0  0  0
  -36.2950   57.6638   64.7420 O   0  0  0  0  0  0  0  0  0  0  0  0
  -34.3677   58.6461   63.6102 O   0  0  0  0  0  0  0  0  0  0  0  0
  -33.9948   58.8892   64.4720 H   0  0  0  0  0  0  0  0  0  0  0  0
  -36.5186   58.2655   62.2426 O   0  0  0  0  0  0  0  0  0  0  0  0
  -37.7707   58.7779   61.7111 C   0  0  0  0  0  0  0  0  0  0  0  0
  -38.6203   57.6439   61.1932 C   0  0  0  0  0  0  0  0  0  0  0  0
  -40.1065   57.7213   61.4896 N   0  0  0  0  0  0  0  0  0  0  0  0
  -40.4631   59.0683   62.0316 C   0  0  0  0  0  0  0  0  0  0  0  0
  -40.4448   56.6831   62.5084 C   0  0  0  0  0  0  0  0  0  0  0  0
  -40.9059   57.4734   60.2423 C   0  0  0  0  0  0  0  0  0  0  0  0
 34 33  1  0  0  0
 34 35  1  0  0  0
 34 36  1  0  0  0
 34 37  1  0  0  0
 22 23  1  0  0  0
 22 25  1  0  0  0
 22 21  1  0  0  0
 23 24  1  0  0  0
 27 26  1  0  0  0
 27 28  2  0  0  0
 27 31  1  0  0  0
 27 29  1  0  0  0
 25 26  1  0  0  0
 32 33  1  0  0  0
 32 31  1  0  0  0
 29 30  1  0  0  0
 20 21  1  0  0  0
 20  2  1  0  0  0
  1  2  2  0  0  0
  2  3  1  0  0  0
  3  4  1  0  0  0
  4  5  1  0  0  0
  5  6  1  0  0  0
  6  7  1  0  0  0
  7  8  1  0  0  0
  8  9  1  0  0  0
  9 10  1  0  0  0
 10 11  2  0  0  0
 11 12  1  0  0  0
 12 13  1  0  0  0
 13 14  1  0  0  0
 14 15  1  0  0  0
 15 16  1  0  0  0
 16 17  1  0  0  0
 17 18  1  0  0  0
 18 19  1  0  0  0
M  CHG 1  28  -1
M  END
> <minimizedAffinity>
-7.93290

> <CNNscore>
0.5285895467

> <CNNaffinity>
6.7626471519

> <CNN_VS>
3.5746645927

> <CNNaffinity_variance>
0.1916234046

$$$$
