/media/chris/experiments/cd1a-new-docking/inputs/ligands/4x6e_ligand.pdb


 37 36  0  0  0  0  0  0  0  0999 V2000
  -43.1361   58.4605   63.3065 O   0  0  0  0  0  0  0  0  0  0  0  0
  -42.5316   57.9188   64.1986 C   0  0  0  0  0  0  0  0  0  0  0  0
  -43.0368   56.7686   65.0143 C   0  0  0  0  0  0  0  0  0  0  0  0
  -43.8422   57.2053   66.2321 C   0  0  0  0  0  0  0  0  0  0  0  0
  -45.3151   57.4503   65.9523 C   0  0  0  0  0  0  0  0  0  0  0  0
  -45.7203   58.9082   66.0812 C   0  0  0  0  0  0  0  0  0  0  0  0
  -47.1670   59.0849   66.5092 C   0  0  0  0  0  0  0  0  0  0  0  0
  -48.0478   57.9525   66.0301 C   0  0  0  0  0  0  0  0  0  0  0  0
  -48.8647   58.2638   64.7926 C   0  0  0  0  0  0  0  0  0  0  0  0
  -50.0727   59.0782   65.0563 C   0  0  0  0  0  0  0  0  0  0  0  0
  -50.8003   59.7018   64.1526 C   0  0  0  0  0  0  0  0  0  0  0  0
  -50.6003   59.6967   62.6719 C   0  0  0  0  0  0  0  0  0  0  0  0
  -51.1753   58.4147   62.0672 C   0  0  0  0  0  0  0  0  0  0  0  0
  -50.5606   57.9857   60.7430 C   0  0  0  0  0  0  0  0  0  0  0  0
  -49.1519   57.4131   60.8421 C   0  0  0  0  0  0  0  0  0  0  0  0
  -49.0007   56.0489   60.1771 C   0  0  0  0  0  0  0  0  0  0  0  0
  -48.0661   56.0524   58.9779 C   0  0  0  0  0  0  0  0  0  0  0  0
  -48.2800   57.1881   57.9886 C   0  0  0  0  0  0  0  0  0  0  0  0
  -47.5664   56.9679   56.6901 C   0  0  0  0  0  0  0  0  0  0  0  0
  -41.3000   58.2617   64.5878 O   0  0  0  0  0  0  0  0  0  0  0  0
  -40.9190   59.6504   64.4733 C   0  0  0  0  0  0  0  0  0  0  0  0
  -40.5016   60.2277   65.8093 C   0  0  0  0  0  0  0  0  0  0  0  0
  -41.2469   59.6359   66.8820 O   0  0  0  0  0  0  0  0  0  0  0  0
  -41.0533   58.6864   66.9249 H   0  0  0  0  0  0  0  0  0  0  0  0
  -39.0233   60.0655   66.0749 C   0  0  0  0  0  0  0  0  0  0  0  0
  -38.2995   61.3019   65.8634 O   0  0  0  0  0  0  0  0  0  0  0  0
  -37.1701   61.7250   64.8044 P   0  0  0  0  0  0  0  0  0  0  0  0
  -35.8621   61.0441   65.2039 O   0  0  0  0  0  0  0  0  0  0  0  0
  -36.9788   63.1901   64.8757 O   0  0  0  0  0  0  0  0  0  0  0  0
  -36.7452   63.4420   65.7828 H   0  0  0  0  0  0  0  0  0  0  0  0
  -37.5683   61.2546   63.2796 O   0  0  0  0  0  0  0  0  0  0  0  0
  -37.8527   59.8941   62.8537 C   0  0  0  0  0  0  0  0  0  0  0  0
  -38.3279   59.8846   61.4218 C   0  0  0  0  0  0  0  0  0  0  0  0
  -39.0520   58.6347   60.9571 N   0  0  0  0  0  0  0  0  0  0  0  0
  -38.7830   57.4967   61.8885 C   0  0  0  0  0  0  0  0  0  0  0  0
  -38.5566   58.2746   59.5950 C   0  0  0  0  0  0  0  0  0  0  0  0
  -40.5337   58.8749   60.9002 C   0  0  0  0  0  0  0  0  0  0  0  0
 34 33  1  0  0  0
 34 35  1  0  0  0
 34 36  1  0  0  0
 34 37  1  0  0  0
 22 23  1  0  0  0
 22 25  1  0  0  0
 22 21  1  0  0  0
 23 24  1  0  0  0
 27 26  1  0  0  0
 27 28  2  0  0  0
 27 31  1  0  0  0
 27 29  1  0  0  0
 25 26  1  0  0  0
 32 33  1  0  0  0
 32 31  1  0  0  0
 29 30  1  0  0  0
 20 21  1  0  0  0
 20  2  1  0  0  0
  1  2  2  0  0  0
  2  3  1  0  0  0
  3  4  1  0  0  0
  4  5  1  0  0  0
  5  6  1  0  0  0
  6  7  1  0  0  0
  7  8  1  0  0  0
  8  9  1  0  0  0
  9 10  1  0  0  0
 10 11  2  0  0  0
 11 12  1  0  0  0
 12 13  1  0  0  0
 13 14  1  0  0  0
 14 15  1  0  0  0
 15 16  1  0  0  0
 16 17  1  0  0  0
 17 18  1  0  0  0
 18 19  1  0  0  0
M  CHG 1  28  -1
M  END
> <minimizedAffinity>
-7.80485

> <CNNscore>
0.7861746550

> <CNNaffinity>
7.0250473022

> <CNN_VS>
5.5229139328

> <CNNaffinity_variance>
0.1955001503

$$$$
/media/chris/experiments/cd1a-new-docking/inputs/ligands/4x6e_ligand.pdb


 37 36  0  0  0  0  0  0  0  0999 V2000
  -39.2699   60.7784   65.7864 O   0  0  0  0  0  0  0  0  0  0  0  0
  -40.2836   60.2825   65.3607 C   0  0  0  0  0  0  0  0  0  0  0  0
  -40.7347   58.8772   65.6164 C   0  0  0  0  0  0  0  0  0  0  0  0
  -42.0973   58.7989   66.2944 C   0  0  0  0  0  0  0  0  0  0  0  0
  -42.7098   57.4089   66.3079 C   0  0  0  0  0  0  0  0  0  0  0  0
  -44.2243   57.4148   66.1958 C   0  0  0  0  0  0  0  0  0  0  0  0
  -44.7750   58.7350   65.6848 C   0  0  0  0  0  0  0  0  0  0  0  0
  -45.9988   59.1804   66.4539 C   0  0  0  0  0  0  0  0  0  0  0  0
  -47.1606   59.6315   65.5923 C   0  0  0  0  0  0  0  0  0  0  0  0
  -48.4503   59.7157   66.3147 C   0  0  0  0  0  0  0  0  0  0  0  0
  -49.6332   59.3990   65.8296 C   0  0  0  0  0  0  0  0  0  0  0  0
  -49.9357   58.8514   64.4727 C   0  0  0  0  0  0  0  0  0  0  0  0
  -50.5582   59.9370   63.5933 C   0  0  0  0  0  0  0  0  0  0  0  0
  -50.8468   59.5265   62.1568 C   0  0  0  0  0  0  0  0  0  0  0  0
  -50.9723   58.0250   61.9286 C   0  0  0  0  0  0  0  0  0  0  0  0
  -50.4172   57.5646   60.5848 C   0  0  0  0  0  0  0  0  0  0  0  0
  -49.2981   56.5421   60.7023 C   0  0  0  0  0  0  0  0  0  0  0  0
  -48.4068   56.4082   59.4767 C   0  0  0  0  0  0  0  0  0  0  0  0
  -48.7599   57.3813   58.3941 C   0  0  0  0  0  0  0  0  0  0  0  0
  -41.1721   60.9265   64.5981 O   0  0  0  0  0  0  0  0  0  0  0  0
  -41.0463   60.8012   63.1645 C   0  0  0  0  0  0  0  0  0  0  0  0
  -42.3581   60.4051   62.5205 C   0  0  0  0  0  0  0  0  0  0  0  0
  -43.3137   61.4713   62.5995 O   0  0  0  0  0  0  0  0  0  0  0  0
  -42.9869   62.2360   62.1002 H   0  0  0  0  0  0  0  0  0  0  0  0
  -42.1928   59.9839   61.0791 C   0  0  0  0  0  0  0  0  0  0  0  0
  -40.9376   59.2958   60.8600 O   0  0  0  0  0  0  0  0  0  0  0  0
  -40.5149   57.7527   60.9876 P   0  0  0  0  0  0  0  0  0  0  0  0
  -40.7073   57.0907   59.6242 O   0  0  0  0  0  0  0  0  0  0  0  0
  -41.4131   57.0943   61.9612 O   0  0  0  0  0  0  0  0  0  0  0  0
  -42.3339   57.2010   61.6752 H   0  0  0  0  0  0  0  0  0  0  0  0
  -38.9404   57.5950   61.4359 O   0  0  0  0  0  0  0  0  0  0  0  0
  -38.2900   58.3002   62.5281 C   0  0  0  0  0  0  0  0  0  0  0  0
  -36.7912   58.2483   62.3631 C   0  0  0  0  0  0  0  0  0  0  0  0
  -35.9703   58.2189   63.6389 N   0  0  0  0  0  0  0  0  0  0  0  0
  -34.6883   57.4816   63.4201 C   0  0  0  0  0  0  0  0  0  0  0  0
  -36.7580   57.5192   64.6974 C   0  0  0  0  0  0  0  0  0  0  0  0
  -35.6550   59.6151   64.0945 C   0  0  0  0  0  0  0  0  0  0  0  0
 34 33  1  0  0  0
 34 35  1  0  0  0
 34 36  1  0  0  0
 34 37  1  0  0  0
 22 23  1  0  0  0
 22 25  1  0  0  0
 22 21  1  0  0  0
 23 24  1  0  0  0
 27 26  1  0  0  0
 27 28  2  0  0  0
 27 31  1  0  0  0
 27 29  1  0  0  0
 25 26  1  0  0  0
 32 33  1  0  0  0
 32 31  1  0  0  0
 29 30  1  0  0  0
 20 21  1  0  0  0
 20  2  1  0  0  0
  1  2  2  0  0  0
  2  3  1  0  0  0
  3  4  1  0  0  0
  4  5  1  0  0  0
  5  6  1  0  0  0
  6  7  1  0  0  0
  7  8  1  0  0  0
  8  9  1  0  0  0
  9 10  1  0  0  0
 10 11  2  0  0  0
 11 12  1  0  0  0
 12 13  1  0  0  0
 13 14  1  0  0  0
 14 15  1  0  0  0
 15 16  1  0  0  0
 16 17  1  0  0  0
 17 18  1  0  0  0
 18 19  1  0  0  0
M  CHG 1  28  -1
M  END
> <minimizedAffinity>
-7.54552

> <CNNscore>
0.7077993751

> <CNNaffinity>
7.0100159645

> <CNN_VS>
4.9616847038

> <CNNaffinity_variance>
0.6649989486

$$$$
/media/chris/experiments/cd1a-new-docking/inputs/ligands/4x6e_ligand.pdb


 37 36  0  0  0  0  0  0  0  0999 V2000
  -41.1143   58.7030   62.2545 O   0  0  0  0  0  0  0  0  0  0  0  0
  -41.9291   58.5045   63.1213 C   0  0  0  0  0  0  0  0  0  0  0  0
  -43.4127   58.4535   62.9209 C   0  0  0  0  0  0  0  0  0  0  0  0
  -44.1996   58.8443   64.1662 C   0  0  0  0  0  0  0  0  0  0  0  0
  -45.2815   59.8822   63.9217 C   0  0  0  0  0  0  0  0  0  0  0  0
  -46.1257   60.1759   65.1495 C   0  0  0  0  0  0  0  0  0  0  0  0
  -46.1797   59.0113   66.1232 C   0  0  0  0  0  0  0  0  0  0  0  0
  -47.5766   58.4494   66.2661 C   0  0  0  0  0  0  0  0  0  0  0  0
  -48.6866   59.4765   66.1719 C   0  0  0  0  0  0  0  0  0  0  0  0
  -49.9331   58.9630   65.5597 C   0  0  0  0  0  0  0  0  0  0  0  0
  -50.2996   59.1136   64.3035 C   0  0  0  0  0  0  0  0  0  0  0  0
  -49.5336   59.7916   63.2145 C   0  0  0  0  0  0  0  0  0  0  0  0
  -50.1899   59.5185   61.8601 C   0  0  0  0  0  0  0  0  0  0  0  0
  -51.0061   58.2369   61.7777 C   0  0  0  0  0  0  0  0  0  0  0  0
  -50.7201   57.3682   60.5588 C   0  0  0  0  0  0  0  0  0  0  0  0
  -49.6509   57.9452   59.6369 C   0  0  0  0  0  0  0  0  0  0  0  0
  -48.6574   56.9121   59.1295 C   0  0  0  0  0  0  0  0  0  0  0  0
  -48.2277   57.0787   57.6796 C   0  0  0  0  0  0  0  0  0  0  0  0
  -47.0981   56.1705   57.3018 C   0  0  0  0  0  0  0  0  0  0  0  0
  -41.6236   58.2855   64.4036 O   0  0  0  0  0  0  0  0  0  0  0  0
  -40.2387   58.4051   64.7966 C   0  0  0  0  0  0  0  0  0  0  0  0
  -39.9452   59.7600   65.4054 C   0  0  0  0  0  0  0  0  0  0  0  0
  -41.0084   60.1765   66.2729 O   0  0  0  0  0  0  0  0  0  0  0  0
  -41.0819   59.5562   67.0151 H   0  0  0  0  0  0  0  0  0  0  0  0
  -38.6388   59.7846   66.1637 C   0  0  0  0  0  0  0  0  0  0  0  0
  -38.1187   61.1296   66.2964 O   0  0  0  0  0  0  0  0  0  0  0  0
  -36.7968   61.8380   65.7245 P   0  0  0  0  0  0  0  0  0  0  0  0
  -37.1979   62.7063   64.5332 O   0  0  0  0  0  0  0  0  0  0  0  0
  -35.8652   60.7910   65.2511 O   0  0  0  0  0  0  0  0  0  0  0  0
  -36.3068   60.2430   64.5836 H   0  0  0  0  0  0  0  0  0  0  0  0
  -36.0859   62.7919   66.8602 O   0  0  0  0  0  0  0  0  0  0  0  0
  -35.4310   64.0662   66.6149 C   0  0  0  0  0  0  0  0  0  0  0  0
  -33.9334   63.8858   66.5861 C   0  0  0  0  0  0  0  0  0  0  0  0
  -33.2478   64.1276   65.2542 N   0  0  0  0  0  0  0  0  0  0  0  0
  -31.8393   64.5823   65.4650 C   0  0  0  0  0  0  0  0  0  0  0  0
  -33.9959   65.1902   64.5183 C   0  0  0  0  0  0  0  0  0  0  0  0
  -33.2336   62.8698   64.4332 C   0  0  0  0  0  0  0  0  0  0  0  0
 34 33  1  0  0  0
 34 35  1  0  0  0
 34 36  1  0  0  0
 34 37  1  0  0  0
 22 23  1  0  0  0
 22 25  1  0  0  0
 22 21  1  0  0  0
 23 24  1  0  0  0
 27 26  1  0  0  0
 27 28  2  0  0  0
 27 31  1  0  0  0
 27 29  1  0  0  0
 25 26  1  0  0  0
 32 33  1  0  0  0
 32 31  1  0  0  0
 29 30  1  0  0  0
 20 21  1  0  0  0
 20  2  1  0  0  0
  1  2  2  0  0  0
  2  3  1  0  0  0
  3  4  1  0  0  0
  4  5  1  0  0  0
  5  6  1  0  0  0
  6  7  1  0  0  0
  7  8  1  0  0  0
  8  9  1  0  0  0
  9 10  1  0  0  0
 10 11  2  0  0  0
 11 12  1  0  0  0
 12 13  1  0  0  0
 13 14  1  0  0  0
 14 15  1  0  0  0
 15 16  1  0  0  0
 16 17  1  0  0  0
 17 18  1  0  0  0
 18 19  1  0  0  0
M  CHG 1  28  -1
M  END
> <minimizedAffinity>
-7.94853

> <CNNscore>
0.7046549916

> <CNNaffinity>
6.3030185699

> <CNN_VS>
4.4414534569

> <CNNaffinity_variance>
0.2962878644

$$$$
/media/chris/experiments/cd1a-new-docking/inputs/ligands/4x6e_ligand.pdb


 37 36  0  0  0  0  0  0  0  0999 V2000
  -42.6129   59.8641   67.3958 O   0  0  0  0  0  0  0  0  0  0  0  0
  -42.1012   59.0095   66.7157 C   0  0  0  0  0  0  0  0  0  0  0  0
  -42.6889   57.6615   66.4306 C   0  0  0  0  0  0  0  0  0  0  0  0
  -44.2125   57.6672   66.3947 C   0  0  0  0  0  0  0  0  0  0  0  0
  -44.8051   57.5876   64.9983 C   0  0  0  0  0  0  0  0  0  0  0  0
  -45.4397   58.8876   64.5361 C   0  0  0  0  0  0  0  0  0  0  0  0
  -46.0571   59.6823   65.6739 C   0  0  0  0  0  0  0  0  0  0  0  0
  -47.4083   60.2533   65.3055 C   0  0  0  0  0  0  0  0  0  0  0  0
  -48.5251   59.9155   66.2723 C   0  0  0  0  0  0  0  0  0  0  0  0
  -49.3028   58.7122   65.8989 C   0  0  0  0  0  0  0  0  0  0  0  0
  -50.1060   58.5990   64.8611 C   0  0  0  0  0  0  0  0  0  0  0  0
  -50.3808   59.6300   63.8151 C   0  0  0  0  0  0  0  0  0  0  0  0
  -51.1592   59.0083   62.6545 C   0  0  0  0  0  0  0  0  0  0  0  0
  -50.4268   58.9764   61.3211 C   0  0  0  0  0  0  0  0  0  0  0  0
  -50.4510   57.6316   60.6048 C   0  0  0  0  0  0  0  0  0  0  0  0
  -49.7782   57.6582   59.2363 C   0  0  0  0  0  0  0  0  0  0  0  0
  -48.4578   56.9058   59.1883 C   0  0  0  0  0  0  0  0  0  0  0  0
  -48.1357   56.2395   57.8592 C   0  0  0  0  0  0  0  0  0  0  0  0
  -47.4241   57.1538   56.9098 C   0  0  0  0  0  0  0  0  0  0  0  0
  -40.9243   59.1458   66.0977 O   0  0  0  0  0  0  0  0  0  0  0  0
  -40.0582   60.2195   66.5263 C   0  0  0  0  0  0  0  0  0  0  0  0
  -38.7884   60.2760   65.7035 C   0  0  0  0  0  0  0  0  0  0  0  0
  -37.7710   61.0294   66.3770 O   0  0  0  0  0  0  0  0  0  0  0  0
  -37.5364   60.5859   67.2071 H   0  0  0  0  0  0  0  0  0  0  0  0
  -38.2558   58.9036   65.3639 C   0  0  0  0  0  0  0  0  0  0  0  0
  -37.1666   58.9694   64.4118 O   0  0  0  0  0  0  0  0  0  0  0  0
  -36.9796   58.3567   62.9402 P   0  0  0  0  0  0  0  0  0  0  0  0
  -37.8385   57.0977   62.8346 O   0  0  0  0  0  0  0  0  0  0  0  0
  -35.5614   57.9751   62.7625 O   0  0  0  0  0  0  0  0  0  0  0  0
  -35.3058   57.3481   63.4571 H   0  0  0  0  0  0  0  0  0  0  0  0
  -37.4547   59.4214   61.7801 O   0  0  0  0  0  0  0  0  0  0  0  0
  -38.6209   60.2870   61.8431 C   0  0  0  0  0  0  0  0  0  0  0  0
  -39.5886   59.9391   60.7392 C   0  0  0  0  0  0  0  0  0  0  0  0
  -40.8498   59.2030   61.1516 N   0  0  0  0  0  0  0  0  0  0  0  0
  -40.9334   57.8796   60.4612 C   0  0  0  0  0  0  0  0  0  0  0  0
  -42.0326   60.0282   60.7638 C   0  0  0  0  0  0  0  0  0  0  0  0
  -40.8661   58.9771   62.6365 C   0  0  0  0  0  0  0  0  0  0  0  0
 34 33  1  0  0  0
 34 35  1  0  0  0
 34 36  1  0  0  0
 34 37  1  0  0  0
 22 23  1  0  0  0
 22 25  1  0  0  0
 22 21  1  0  0  0
 23 24  1  0  0  0
 27 26  1  0  0  0
 27 28  2  0  0  0
 27 31  1  0  0  0
 27 29  1  0  0  0
 25 26  1  0  0  0
 32 33  1  0  0  0
 32 31  1  0  0  0
 29 30  1  0  0  0
 20 21  1  0  0  0
 20  2  1  0  0  0
  1  2  2  0  0  0
  2  3  1  0  0  0
  3  4  1  0  0  0
  4  5  1  0  0  0
  5  6  1  0  0  0
  6  7  1  0  0  0
  7  8  1  0  0  0
  8  9  1  0  0  0
  9 10  1  0  0  0
 10 11  2  0  0  0
 11 12  1  0  0  0
 12 13  1  0  0  0
 13 14  1  0  0  0
 14 15  1  0  0  0
 15 16  1  0  0  0
 16 17  1  0  0  0
 17 18  1  0  0  0
 18 19  1  0  0  0
M  CHG 1  28  -1
M  END
> <minimizedAffinity>
-7.73676

> <CNNscore>
0.6515026689

> <CNNaffinity>
6.9913315773

> <CNN_VS>
4.5548710823

> <CNNaffinity_variance>
0.2672650516

$$$$
/media/chris/experiments/cd1a-new-docking/inputs/ligands/4x6e_ligand.pdb


 37 36  0  0  0  0  0  0  0  0999 V2000
  -41.8543   58.0880   65.8345 O   0  0  0  0  0  0  0  0  0  0  0  0
  -42.4899   58.6687   64.9898 C   0  0  0  0  0  0  0  0  0  0  0  0
  -43.9572   58.4997   64.7404 C   0  0  0  0  0  0  0  0  0  0  0  0
  -44.5847   59.6901   64.0250 C   0  0  0  0  0  0  0  0  0  0  0  0
  -45.8801   60.1818   64.6476 C   0  0  0  0  0  0  0  0  0  0  0  0
  -46.3476   59.3348   65.8181 C   0  0  0  0  0  0  0  0  0  0  0  0
  -47.8455   59.4257   66.0537 C   0  0  0  0  0  0  0  0  0  0  0  0
  -48.5718   58.1766   65.6068 C   0  0  0  0  0  0  0  0  0  0  0  0
  -50.0806   58.3048   65.5521 C   0  0  0  0  0  0  0  0  0  0  0  0
  -50.5577   59.6473   65.1492 C   0  0  0  0  0  0  0  0  0  0  0  0
  -50.9725   59.9951   63.9484 C   0  0  0  0  0  0  0  0  0  0  0  0
  -51.0937   59.1171   62.7455 C   0  0  0  0  0  0  0  0  0  0  0  0
  -50.0980   59.5561   61.6705 C   0  0  0  0  0  0  0  0  0  0  0  0
  -49.9692   58.6183   60.4792 C   0  0  0  0  0  0  0  0  0  0  0  0
  -49.3235   57.2724   60.7855 C   0  0  0  0  0  0  0  0  0  0  0  0
  -48.7119   56.5977   59.5621 C   0  0  0  0  0  0  0  0  0  0  0  0
  -48.5926   57.5126   58.3537 C   0  0  0  0  0  0  0  0  0  0  0  0
  -47.9903   56.8749   57.1108 C   0  0  0  0  0  0  0  0  0  0  0  0
  -47.0664   55.7402   57.4312 C   0  0  0  0  0  0  0  0  0  0  0  0
  -41.9743   59.5699   64.1486 O   0  0  0  0  0  0  0  0  0  0  0  0
  -40.5612   59.4911   63.8596 C   0  0  0  0  0  0  0  0  0  0  0  0
  -39.7960   60.6329   64.4947 C   0  0  0  0  0  0  0  0  0  0  0  0
  -39.8347   60.5464   65.9256 O   0  0  0  0  0  0  0  0  0  0  0  0
  -39.3930   59.7319   66.2123 H   0  0  0  0  0  0  0  0  0  0  0  0
  -38.3587   60.6955   64.0335 C   0  0  0  0  0  0  0  0  0  0  0  0
  -37.7302   61.9479   64.3990 O   0  0  0  0  0  0  0  0  0  0  0  0
  -36.7033   62.3405   65.5683 P   0  0  0  0  0  0  0  0  0  0  0  0
  -37.0099   61.4693   66.7853 O   0  0  0  0  0  0  0  0  0  0  0  0
  -36.9227   63.7564   65.9361 O   0  0  0  0  0  0  0  0  0  0  0  0
  -37.8473   63.8821   66.2010 H   0  0  0  0  0  0  0  0  0  0  0  0
  -35.1443   62.0834   65.1117 O   0  0  0  0  0  0  0  0  0  0  0  0
  -34.2751   63.0512   64.4627 C   0  0  0  0  0  0  0  0  0  0  0  0
  -33.1445   63.4368   65.3842 C   0  0  0  0  0  0  0  0  0  0  0  0
  -32.8379   64.9187   65.4963 N   0  0  0  0  0  0  0  0  0  0  0  0
  -33.4019   65.6602   64.3271 C   0  0  0  0  0  0  0  0  0  0  0  0
  -31.3555   65.0992   65.5164 C   0  0  0  0  0  0  0  0  0  0  0  0
  -33.4251   65.4840   66.7581 C   0  0  0  0  0  0  0  0  0  0  0  0
 34 33  1  0  0  0
 34 35  1  0  0  0
 34 36  1  0  0  0
 34 37  1  0  0  0
 22 23  1  0  0  0
 22 25  1  0  0  0
 22 21  1  0  0  0
 23 24  1  0  0  0
 27 26  1  0  0  0
 27 28  2  0  0  0
 27 31  1  0  0  0
 27 29  1  0  0  0
 25 26  1  0  0  0
 32 33  1  0  0  0
 32 31  1  0  0  0
 29 30  1  0  0  0
 20 21  1  0  0  0
 20  2  1  0  0  0
  1  2  2  0  0  0
  2  3  1  0  0  0
  3  4  1  0  0  0
  4  5  1  0  0  0
  5  6  1  0  0  0
  6  7  1  0  0  0
  7  8  1  0  0  0
  8  9  1  0  0  0
  9 10  1  0  0  0
 10 11  2  0  0  0
 11 12  1  0  0  0
 12 13  1  0  0  0
 13 14  1  0  0  0
 14 15  1  0  0  0
 15 16  1  0  0  0
 16 17  1  0  0  0
 17 18  1  0  0  0
 18 19  1  0  0  0
M  CHG 1  28  -1
M  END
> <minimizedAffinity>
-8.11513

> <CNNscore>
0.6123236418

> <CNNaffinity>
6.1173753738

> <CNN_VS>
3.7458136082

> <CNNaffinity_variance>
0.2598782480

$$$$
/media/chris/experiments/cd1a-new-docking/inputs/ligands/4x6e_ligand.pdb


 37 36  0  0  0  0  0  0  0  0999 V2000
  -43.8953   59.6980   67.4840 O   0  0  0  0  0  0  0  0  0  0  0  0
  -43.5816   58.9984   66.5529 C   0  0  0  0  0  0  0  0  0  0  0  0
  -44.5074   58.5229   65.4757 C   0  0  0  0  0  0  0  0  0  0  0  0
  -45.1208   57.1594   65.7711 C   0  0  0  0  0  0  0  0  0  0  0  0
  -46.2214   57.1828   66.8178 C   0  0  0  0  0  0  0  0  0  0  0  0
  -47.5294   56.5827   66.3327 C   0  0  0  0  0  0  0  0  0  0  0  0
  -48.4120   57.5889   65.6144 C   0  0  0  0  0  0  0  0  0  0  0  0
  -48.2910   58.9776   66.2012 C   0  0  0  0  0  0  0  0  0  0  0  0
  -49.2520   59.9968   65.6236 C   0  0  0  0  0  0  0  0  0  0  0  0
  -48.9242   60.4205   64.2433 C   0  0  0  0  0  0  0  0  0  0  0  0
  -49.6589   60.2068   63.1711 C   0  0  0  0  0  0  0  0  0  0  0  0
  -50.9915   59.5340   63.1091 C   0  0  0  0  0  0  0  0  0  0  0  0
  -50.9094   58.2824   62.2337 C   0  0  0  0  0  0  0  0  0  0  0  0
  -49.5090   57.8910   61.7854 C   0  0  0  0  0  0  0  0  0  0  0  0
  -49.4558   56.9251   60.6080 C   0  0  0  0  0  0  0  0  0  0  0  0
  -49.7031   57.5939   59.2598 C   0  0  0  0  0  0  0  0  0  0  0  0
  -48.5324   57.4811   58.2963 C   0  0  0  0  0  0  0  0  0  0  0  0
  -47.6942   56.2192   58.4345 C   0  0  0  0  0  0  0  0  0  0  0  0
  -47.3886   55.5790   57.1152 C   0  0  0  0  0  0  0  0  0  0  0  0
  -42.3422   58.5485   66.3354 O   0  0  0  0  0  0  0  0  0  0  0  0
  -41.3264   59.5140   65.9851 C   0  0  0  0  0  0  0  0  0  0  0  0
  -41.2458   59.7224   64.4876 C   0  0  0  0  0  0  0  0  0  0  0  0
  -40.8798   61.0731   64.1742 O   0  0  0  0  0  0  0  0  0  0  0  0
  -39.9928   61.2566   64.5213 H   0  0  0  0  0  0  0  0  0  0  0  0
  -40.2790   58.7721   63.8208 C   0  0  0  0  0  0  0  0  0  0  0  0
  -39.0362   59.4272   63.4694 O   0  0  0  0  0  0  0  0  0  0  0  0
  -38.5626   60.2092   62.1502 P   0  0  0  0  0  0  0  0  0  0  0  0
  -39.8023   60.5417   61.3215 O   0  0  0  0  0  0  0  0  0  0  0  0
  -37.6919   59.3149   61.3562 O   0  0  0  0  0  0  0  0  0  0  0  0
  -38.1718   58.4982   61.1473 H   0  0  0  0  0  0  0  0  0  0  0  0
  -37.7855   61.6089   62.5267 O   0  0  0  0  0  0  0  0  0  0  0  0
  -37.4033   62.0398   63.8614 C   0  0  0  0  0  0  0  0  0  0  0  0
  -36.0276   62.6588   63.8355 C   0  0  0  0  0  0  0  0  0  0  0  0
  -35.3371   62.8300   65.1758 N   0  0  0  0  0  0  0  0  0  0  0  0
  -35.2203   61.5147   65.8768 C   0  0  0  0  0  0  0  0  0  0  0  0
  -36.1508   63.7578   66.0169 C   0  0  0  0  0  0  0  0  0  0  0  0
  -33.9615   63.4042   64.9899 C   0  0  0  0  0  0  0  0  0  0  0  0
 34 33  1  0  0  0
 34 35  1  0  0  0
 34 36  1  0  0  0
 34 37  1  0  0  0
 22 23  1  0  0  0
 22 25  1  0  0  0
 22 21  1  0  0  0
 23 24  1  0  0  0
 27 26  1  0  0  0
 27 28  2  0  0  0
 27 31  1  0  0  0
 27 29  1  0  0  0
 25 26  1  0  0  0
 32 33  1  0  0  0
 32 31  1  0  0  0
 29 30  1  0  0  0
 20 21  1  0  0  0
 20  2  1  0  0  0
  1  2  2  0  0  0
  2  3  1  0  0  0
  3  4  1  0  0  0
  4  5  1  0  0  0
  5  6  1  0  0  0
  6  7  1  0  0  0
  7  8  1  0  0  0
  8  9  1  0  0  0
  9 10  1  0  0  0
 10 11  2  0  0  0
 11 12  1  0  0  0
 12 13  1  0  0  0
 13 14  1  0  0  0
 14 15  1  0  0  0
 15 16  1  0  0  0
 16 17  1  0  0  0
 17 18  1  0  0  0
 18 19  1  0  0  0
M  CHG 1  28  -1
M  END
> <minimizedAffinity>
-7.71234

> <CNNscore>
0.6078834534

> <CNNaffinity>
6.5584626198

> <CNN_VS>
3.9867808819

> <CNNaffinity_variance>
0.1854387373

$$$$
/media/chris/experiments/cd1a-new-docking/inputs/ligands/4x6e_ligand.pdb


 37 36  0  0  0  0  0  0  0  0999 V2000
  -40.4263   58.6966   65.4876 O   0  0  0  0  0  0  0  0  0  0  0  0
  -40.5679   59.8398   65.8450 C   0  0  0  0  0  0  0  0  0  0  0  0
  -41.8315   60.4251   66.3968 C   0  0  0  0  0  0  0  0  0  0  0  0
  -42.7139   59.3967   67.0942 C   0  0  0  0  0  0  0  0  0  0  0  0
  -43.9964   59.0662   66.3502 C   0  0  0  0  0  0  0  0  0  0  0  0
  -44.1459   59.8188   65.0397 C   0  0  0  0  0  0  0  0  0  0  0  0
  -45.3806   59.4057   64.2573 C   0  0  0  0  0  0  0  0  0  0  0  0
  -46.5175   60.3896   64.4213 C   0  0  0  0  0  0  0  0  0  0  0  0
  -47.9015   59.7751   64.3683 C   0  0  0  0  0  0  0  0  0  0  0  0
  -48.8447   60.4886   63.4776 C   0  0  0  0  0  0  0  0  0  0  0  0
  -49.9300   59.9807   62.9307 C   0  0  0  0  0  0  0  0  0  0  0  0
  -50.4724   58.6006   63.1137 C   0  0  0  0  0  0  0  0  0  0  0  0
  -50.6942   57.9371   61.7535 C   0  0  0  0  0  0  0  0  0  0  0  0
  -49.9964   58.6077   60.5794 C   0  0  0  0  0  0  0  0  0  0  0  0
  -49.6253   57.6755   59.4324 C   0  0  0  0  0  0  0  0  0  0  0  0
  -49.0187   56.3543   59.8933 C   0  0  0  0  0  0  0  0  0  0  0  0
  -47.6787   56.0376   59.2484 C   0  0  0  0  0  0  0  0  0  0  0  0
  -47.7223   55.7765   57.7503 C   0  0  0  0  0  0  0  0  0  0  0  0
  -47.2254   56.9376   56.9449 C   0  0  0  0  0  0  0  0  0  0  0  0
  -39.6015   60.7622   65.8127 O   0  0  0  0  0  0  0  0  0  0  0  0
  -38.3062   60.4002   66.3398 C   0  0  0  0  0  0  0  0  0  0  0  0
  -37.2471   61.4162   65.9674 C   0  0  0  0  0  0  0  0  0  0  0  0
  -36.4662   61.7892   67.1108 O   0  0  0  0  0  0  0  0  0  0  0  0
  -35.9908   61.0126   67.4450 H   0  0  0  0  0  0  0  0  0  0  0  0
  -36.3309   60.9239   64.8717 C   0  0  0  0  0  0  0  0  0  0  0  0
  -36.9493   59.8797   64.0815 O   0  0  0  0  0  0  0  0  0  0  0  0
  -36.4536   58.4162   63.6475 P   0  0  0  0  0  0  0  0  0  0  0  0
  -35.5251   57.8839   64.7377 O   0  0  0  0  0  0  0  0  0  0  0  0
  -35.6846   58.5302   62.3889 O   0  0  0  0  0  0  0  0  0  0  0  0
  -34.9460   59.1461   62.5159 H   0  0  0  0  0  0  0  0  0  0  0  0
  -37.7182   57.3789   63.4753 O   0  0  0  0  0  0  0  0  0  0  0  0
  -38.4106   57.0770   62.2332 C   0  0  0  0  0  0  0  0  0  0  0  0
  -39.5325   58.0606   62.0094 C   0  0  0  0  0  0  0  0  0  0  0  0
  -40.9141   57.4730   61.7896 N   0  0  0  0  0  0  0  0  0  0  0  0
  -41.1519   57.2236   60.3349 C   0  0  0  0  0  0  0  0  0  0  0  0
  -41.9315   58.4463   62.2878 C   0  0  0  0  0  0  0  0  0  0  0  0
  -41.0596   56.1765   62.5340 C   0  0  0  0  0  0  0  0  0  0  0  0
 34 33  1  0  0  0
 34 35  1  0  0  0
 34 36  1  0  0  0
 34 37  1  0  0  0
 22 23  1  0  0  0
 22 25  1  0  0  0
 22 21  1  0  0  0
 23 24  1  0  0  0
 27 26  1  0  0  0
 27 28  2  0  0  0
 27 31  1  0  0  0
 27 29  1  0  0  0
 25 26  1  0  0  0
 32 33  1  0  0  0
 32 31  1  0  0  0
 29 30  1  0  0  0
 20 21  1  0  0  0
 20  2  1  0  0  0
  1  2  2  0  0  0
  2  3  1  0  0  0
  3  4  1  0  0  0
  4  5  1  0  0  0
  5  6  1  0  0  0
  6  7  1  0  0  0
  7  8  1  0  0  0
  8  9  1  0  0  0
  9 10  1  0  0  0
 10 11  2  0  0  0
 11 12  1  0  0  0
 12 13  1  0  0  0
 13 14  1  0  0  0
 14 15  1  0  0  0
 15 16  1  0  0  0
 16 17  1  0  0  0
 17 18  1  0  0  0
 18 19  1  0  0  0
M  CHG 1  28  -1
M  END
> <minimizedAffinity>
-8.01539

> <CNNscore>
0.6008513570

> <CNNaffinity>
6.7829871178

> <CNN_VS>
4.0755672455

> <CNNaffinity_variance>
0.2747601867

$$$$
/media/chris/experiments/cd1a-new-docking/inputs/ligands/4x6e_ligand.pdb


 37 36  0  0  0  0  0  0  0  0999 V2000
  -40.7768   57.1275   63.9322 O   0  0  0  0  0  0  0  0  0  0  0  0
  -41.5800   58.0273   63.9303 C   0  0  0  0  0  0  0  0  0  0  0  0
  -42.9329   57.9798   63.2891 C   0  0  0  0  0  0  0  0  0  0  0  0
  -43.6963   59.2940   63.4023 C   0  0  0  0  0  0  0  0  0  0  0  0
  -45.0728   59.1651   64.0315 C   0  0  0  0  0  0  0  0  0  0  0  0
  -45.0940   58.2750   65.2617 C   0  0  0  0  0  0  0  0  0  0  0  0
  -46.3534   58.4450   66.0939 C   0  0  0  0  0  0  0  0  0  0  0  0
  -46.8943   59.8561   66.0313 C   0  0  0  0  0  0  0  0  0  0  0  0
  -48.4040   59.9611   66.1053 C   0  0  0  0  0  0  0  0  0  0  0  0
  -49.1122   58.6966   65.8022 C   0  0  0  0  0  0  0  0  0  0  0  0
  -49.9406   58.4929   64.7986 C   0  0  0  0  0  0  0  0  0  0  0  0
  -50.3183   59.4643   63.7280 C   0  0  0  0  0  0  0  0  0  0  0  0
  -50.8787   58.7198   62.5151 C   0  0  0  0  0  0  0  0  0  0  0  0
  -49.9131   58.5491   61.3515 C   0  0  0  0  0  0  0  0  0  0  0  0
  -50.1140   57.2827   60.5280 C   0  0  0  0  0  0  0  0  0  0  0  0
  -49.2465   57.2270   59.2749 C   0  0  0  0  0  0  0  0  0  0  0  0
  -48.2170   56.1083   59.2919 C   0  0  0  0  0  0  0  0  0  0  0  0
  -47.3387   56.0123   58.0535 C   0  0  0  0  0  0  0  0  0  0  0  0
  -47.5895   57.1208   57.0777 C   0  0  0  0  0  0  0  0  0  0  0  0
  -41.3836   59.2109   64.5187 O   0  0  0  0  0  0  0  0  0  0  0  0
  -40.4943   59.2590   65.6560 C   0  0  0  0  0  0  0  0  0  0  0  0
  -39.2015   59.9742   65.3251 C   0  0  0  0  0  0  0  0  0  0  0  0
  -38.9370   61.0229   66.2668 O   0  0  0  0  0  0  0  0  0  0  0  0
  -38.8169   60.6413   67.1504 H   0  0  0  0  0  0  0  0  0  0  0  0
  -38.0177   59.0372   65.2707 C   0  0  0  0  0  0  0  0  0  0  0  0
  -37.2686   59.1873   64.0404 O   0  0  0  0  0  0  0  0  0  0  0  0
  -35.6979   59.1200   63.7168 P   0  0  0  0  0  0  0  0  0  0  0  0
  -35.5180   58.4294   62.3660 O   0  0  0  0  0  0  0  0  0  0  0  0
  -35.0348   58.3018   64.7556 O   0  0  0  0  0  0  0  0  0  0  0  0
  -35.4425   57.4221   64.7835 H   0  0  0  0  0  0  0  0  0  0  0  0
  -35.0351   60.6231   63.6362 O   0  0  0  0  0  0  0  0  0  0  0  0
  -35.4129   61.7665   64.4505 C   0  0  0  0  0  0  0  0  0  0  0  0
  -34.9806   63.0481   63.7822 C   0  0  0  0  0  0  0  0  0  0  0  0
  -34.1233   63.9875   64.6099 N   0  0  0  0  0  0  0  0  0  0  0  0
  -32.7402   63.4401   64.7590 C   0  0  0  0  0  0  0  0  0  0  0  0
  -34.7386   64.1272   65.9636 C   0  0  0  0  0  0  0  0  0  0  0  0
  -34.0425   65.3386   63.9583 C   0  0  0  0  0  0  0  0  0  0  0  0
 34 33  1  0  0  0
 34 35  1  0  0  0
 34 36  1  0  0  0
 34 37  1  0  0  0
 22 23  1  0  0  0
 22 25  1  0  0  0
 22 21  1  0  0  0
 23 24  1  0  0  0
 27 26  1  0  0  0
 27 28  2  0  0  0
 27 31  1  0  0  0
 27 29  1  0  0  0
 25 26  1  0  0  0
 32 33  1  0  0  0
 32 31  1  0  0  0
 29 30  1  0  0  0
 20 21  1  0  0  0
 20  2  1  0  0  0
  1  2  2  0  0  0
  2  3  1  0  0  0
  3  4  1  0  0  0
  4  5  1  0  0  0
  5  6  1  0  0  0
  6  7  1  0  0  0
  7  8  1  0  0  0
  8  9  1  0  0  0
  9 10  1  0  0  0
 10 11  2  0  0  0
 11 12  1  0  0  0
 12 13  1  0  0  0
 13 14  1  0  0  0
 14 15  1  0  0  0
 15 16  1  0  0  0
 16 17  1  0  0  0
 17 18  1  0  0  0
 18 19  1  0  0  0
M  CHG 1  28  -1
M  END
> <minimizedAffinity>
-7.71520

> <CNNscore>
0.5943298340

> <CNNaffinity>
6.5223436356

> <CNN_VS>
3.8764233589

> <CNNaffinity_variance>
0.3872087300

$$$$
/media/chris/experiments/cd1a-new-docking/inputs/ligands/4x6e_ligand.pdb


 37 36  0  0  0  0  0  0  0  0999 V2000
  -42.4652   57.0703   63.7159 O   0  0  0  0  0  0  0  0  0  0  0  0
  -42.9018   58.1908   63.8087 C   0  0  0  0  0  0  0  0  0  0  0  0
  -44.3456   58.5710   63.6879 C   0  0  0  0  0  0  0  0  0  0  0  0
  -44.7280   59.7584   64.5635 C   0  0  0  0  0  0  0  0  0  0  0  0
  -46.2250   59.9606   64.7234 C   0  0  0  0  0  0  0  0  0  0  0  0
  -46.6978   59.8616   66.1632 C   0  0  0  0  0  0  0  0  0  0  0  0
  -48.2102   59.7922   66.2862 C   0  0  0  0  0  0  0  0  0  0  0  0
  -48.7710   58.5031   65.7282 C   0  0  0  0  0  0  0  0  0  0  0  0
  -50.2665   58.5143   65.4849 C   0  0  0  0  0  0  0  0  0  0  0  0
  -50.7768   59.7853   64.9225 C   0  0  0  0  0  0  0  0  0  0  0  0
  -51.1347   59.9917   63.6718 C   0  0  0  0  0  0  0  0  0  0  0  0
  -51.1466   58.9942   62.5595 C   0  0  0  0  0  0  0  0  0  0  0  0
  -50.0537   59.3265   61.5423 C   0  0  0  0  0  0  0  0  0  0  0  0
  -49.9712   58.3911   60.3449 C   0  0  0  0  0  0  0  0  0  0  0  0
  -49.2633   57.0677   60.6088 C   0  0  0  0  0  0  0  0  0  0  0  0
  -48.5464   56.5058   59.3856 C   0  0  0  0  0  0  0  0  0  0  0  0
  -48.5787   57.4300   58.1786 C   0  0  0  0  0  0  0  0  0  0  0  0
  -47.6258   57.0625   57.0511 C   0  0  0  0  0  0  0  0  0  0  0  0
  -47.1235   55.6549   57.1523 C   0  0  0  0  0  0  0  0  0  0  0  0
  -42.1530   59.2713   64.0485 O   0  0  0  0  0  0  0  0  0  0  0  0
  -41.4822   59.8888   62.9280 C   0  0  0  0  0  0  0  0  0  0  0  0
  -40.1837   59.1844   62.5962 C   0  0  0  0  0  0  0  0  0  0  0  0
  -40.4103   58.0707   61.7217 O   0  0  0  0  0  0  0  0  0  0  0  0
  -40.7687   58.3894   60.8786 H   0  0  0  0  0  0  0  0  0  0  0  0
  -39.1633   60.1104   61.9768 C   0  0  0  0  0  0  0  0  0  0  0  0
  -38.7201   61.1248   62.9106 O   0  0  0  0  0  0  0  0  0  0  0  0
  -38.0448   61.0345   64.3638 P   0  0  0  0  0  0  0  0  0  0  0  0
  -37.1295   59.8115   64.3896 O   0  0  0  0  0  0  0  0  0  0  0  0
  -39.1115   60.8451   65.3711 O   0  0  0  0  0  0  0  0  0  0  0  0
  -39.6242   60.0509   65.1538 H   0  0  0  0  0  0  0  0  0  0  0  0
  -37.1496   62.3736   64.6958 O   0  0  0  0  0  0  0  0  0  0  0  0
  -35.9173   62.7623   64.0299 C   0  0  0  0  0  0  0  0  0  0  0  0
  -35.4036   64.0611   64.6003 C   0  0  0  0  0  0  0  0  0  0  0  0
  -33.8977   64.2472   64.6112 N   0  0  0  0  0  0  0  0  0  0  0  0
  -33.3985   64.3969   66.0124 C   0  0  0  0  0  0  0  0  0  0  0  0
  -33.5639   65.4832   63.8423 C   0  0  0  0  0  0  0  0  0  0  0  0
  -33.2167   63.0678   63.9773 C   0  0  0  0  0  0  0  0  0  0  0  0
 34 33  1  0  0  0
 34 35  1  0  0  0
 34 36  1  0  0  0
 34 37  1  0  0  0
 22 23  1  0  0  0
 22 25  1  0  0  0
 22 21  1  0  0  0
 23 24  1  0  0  0
 27 26  1  0  0  0
 27 28  2  0  0  0
 27 31  1  0  0  0
 27 29  1  0  0  0
 25 26  1  0  0  0
 32 33  1  0  0  0
 32 31  1  0  0  0
 29 30  1  0  0  0
 20 21  1  0  0  0
 20  2  1  0  0  0
  1  2  2  0  0  0
  2  3  1  0  0  0
  3  4  1  0  0  0
  4  5  1  0  0  0
  5  6  1  0  0  0
  6  7  1  0  0  0
  7  8  1  0  0  0
  8  9  1  0  0  0
  9 10  1  0  0  0
 10 11  2  0  0  0
 11 12  1  0  0  0
 12 13  1  0  0  0
 13 14  1  0  0  0
 14 15  1  0  0  0
 15 16  1  0  0  0
 16 17  1  0  0  0
 17 18  1  0  0  0
 18 19  1  0  0  0
M  CHG 1  28  -1
M  END
> <minimizedAffinity>
-7.98890

> <CNNscore>
0.5861327648

> <CNNaffinity>
6.2653174400

> <CNN_VS>
3.6723077297

> <CNNaffinity_variance>
0.4711026251

$$$$
