/media/chris/experiments/cd1a-new-docking/inputs/ligands/4x6e_ligand.pdb


 37 36  0  0  0  0  0  0  0  0999 V2000
  -41.9999   55.6784   64.8899 O   0  0  0  0  0  0  0  0  0  0  0  0
  -42.2276   56.8068   65.2498 C   0  0  0  0  0  0  0  0  0  0  0  0
  -43.1800   57.1934   66.3394 C   0  0  0  0  0  0  0  0  0  0  0  0
  -44.6325   57.2330   65.8797 C   0  0  0  0  0  0  0  0  0  0  0  0
  -45.6309   57.5237   66.9870 C   0  0  0  0  0  0  0  0  0  0  0  0
  -47.0439   57.0731   66.6605 C   0  0  0  0  0  0  0  0  0  0  0  0
  -47.6468   57.8212   65.4839 C   0  0  0  0  0  0  0  0  0  0  0  0
  -47.7130   59.3124   65.7275 C   0  0  0  0  0  0  0  0  0  0  0  0
  -49.1024   59.8493   66.0050 C   0  0  0  0  0  0  0  0  0  0  0  0
  -50.1932   59.0149   65.4517 C   0  0  0  0  0  0  0  0  0  0  0  0
  -50.7169   59.1213   64.2479 C   0  0  0  0  0  0  0  0  0  0  0  0
  -50.3084   60.0673   63.1658 C   0  0  0  0  0  0  0  0  0  0  0  0
  -50.3342   59.3594   61.8102 C   0  0  0  0  0  0  0  0  0  0  0  0
  -50.5145   57.8495   61.8664 C   0  0  0  0  0  0  0  0  0  0  0  0
  -50.2086   57.1153   60.5665 C   0  0  0  0  0  0  0  0  0  0  0  0
  -49.9468   58.0471   59.3877 C   0  0  0  0  0  0  0  0  0  0  0  0
  -48.7245   57.6676   58.5668 C   0  0  0  0  0  0  0  0  0  0  0  0
  -48.1909   56.2629   58.8042 C   0  0  0  0  0  0  0  0  0  0  0  0
  -47.4461   55.7186   57.6242 C   0  0  0  0  0  0  0  0  0  0  0  0
  -41.6466   57.8926   64.7309 O   0  0  0  0  0  0  0  0  0  0  0  0
  -41.4445   59.0291   65.5994 C   0  0  0  0  0  0  0  0  0  0  0  0
  -40.1546   59.7546   65.2800 C   0  0  0  0  0  0  0  0  0  0  0  0
  -39.8306   60.7048   66.3039 O   0  0  0  0  0  0  0  0  0  0  0  0
  -39.6790   60.2389   67.1411 H   0  0  0  0  0  0  0  0  0  0  0  0
  -38.9914   58.8108   65.0836 C   0  0  0  0  0  0  0  0  0  0  0  0
  -37.7791   59.5177   64.7258 O   0  0  0  0  0  0  0  0  0  0  0  0
  -37.4910   60.7166   63.6985 P   0  0  0  0  0  0  0  0  0  0  0  0
  -36.0116   61.0850   63.7976 O   0  0  0  0  0  0  0  0  0  0  0  0
  -38.2961   61.8902   64.1021 O   0  0  0  0  0  0  0  0  0  0  0  0
  -38.0817   62.1303   65.0171 H   0  0  0  0  0  0  0  0  0  0  0  0
  -37.8248   60.2755   62.1496 O   0  0  0  0  0  0  0  0  0  0  0  0
  -39.1469   60.2005   61.5504 C   0  0  0  0  0  0  0  0  0  0  0  0
  -39.2393   59.0016   60.6392 C   0  0  0  0  0  0  0  0  0  0  0  0
  -40.3243   57.9902   60.9591 N   0  0  0  0  0  0  0  0  0  0  0  0
  -39.8475   57.0191   61.9909 C   0  0  0  0  0  0  0  0  0  0  0  0
  -40.6644   57.2442   59.7107 C   0  0  0  0  0  0  0  0  0  0  0  0
  -41.5535   58.6822   61.4756 C   0  0  0  0  0  0  0  0  0  0  0  0
 34 33  1  0  0  0
 34 35  1  0  0  0
 34 36  1  0  0  0
 34 37  1  0  0  0
 22 23  1  0  0  0
 22 25  1  0  0  0
 22 21  1  0  0  0
 23 24  1  0  0  0
 27 26  1  0  0  0
 27 28  2  0  0  0
 27 31  1  0  0  0
 27 29  1  0  0  0
 25 26  1  0  0  0
 32 33  1  0  0  0
 32 31  1  0  0  0
 29 30  1  0  0  0
 20 21  1  0  0  0
 20  2  1  0  0  0
  1  2  2  0  0  0
  2  3  1  0  0  0
  3  4  1  0  0  0
  4  5  1  0  0  0
  5  6  1  0  0  0
  6  7  1  0  0  0
  7  8  1  0  0  0
  8  9  1  0  0  0
  9 10  1  0  0  0
 10 11  2  0  0  0
 11 12  1  0  0  0
 12 13  1  0  0  0
 13 14  1  0  0  0
 14 15  1  0  0  0
 15 16  1  0  0  0
 16 17  1  0  0  0
 17 18  1  0  0  0
 18 19  1  0  0  0
M  CHG 1  28  -1
M  END
> <minimizedAffinity>
-7.98662

> <CNNscore>
0.8063744903

> <CNNaffinity>
7.1871995926

> <CNN_VS>
5.7955741882

> <CNNaffinity_variance>
0.2292107642

$$$$
/media/chris/experiments/cd1a-new-docking/inputs/ligands/4x6e_ligand.pdb


 37 36  0  0  0  0  0  0  0  0999 V2000
  -41.4690   60.9213   64.8956 O   0  0  0  0  0  0  0  0  0  0  0  0
  -40.9542   60.2978   65.7906 C   0  0  0  0  0  0  0  0  0  0  0  0
  -41.6669   59.3571   66.7131 C   0  0  0  0  0  0  0  0  0  0  0  0
  -43.1665   59.6171   66.7929 C   0  0  0  0  0  0  0  0  0  0  0  0
  -43.9938   58.8124   65.8053 C   0  0  0  0  0  0  0  0  0  0  0  0
  -45.1394   58.0545   66.4529 C   0  0  0  0  0  0  0  0  0  0  0  0
  -46.1318   58.9667   67.1532 C   0  0  0  0  0  0  0  0  0  0  0  0
  -47.1020   59.6066   66.1853 C   0  0  0  0  0  0  0  0  0  0  0  0
  -48.3202   58.7667   65.8591 C   0  0  0  0  0  0  0  0  0  0  0  0
  -49.5931   59.5229   65.8633 C   0  0  0  0  0  0  0  0  0  0  0  0
  -50.5427   59.4484   64.9536 C   0  0  0  0  0  0  0  0  0  0  0  0
  -50.5708   58.5662   63.7478 C   0  0  0  0  0  0  0  0  0  0  0  0
  -50.9085   59.3874   62.5024 C   0  0  0  0  0  0  0  0  0  0  0  0
  -50.1079   59.0404   61.2558 C   0  0  0  0  0  0  0  0  0  0  0  0
  -49.4917   57.6466   61.2530 C   0  0  0  0  0  0  0  0  0  0  0  0
  -49.5472   56.9588   59.8928 C   0  0  0  0  0  0  0  0  0  0  0  0
  -48.8042   57.7071   58.7975 C   0  0  0  0  0  0  0  0  0  0  0  0
  -48.2296   56.8378   57.6891 C   0  0  0  0  0  0  0  0  0  0  0  0
  -47.1591   55.9101   58.1759 C   0  0  0  0  0  0  0  0  0  0  0  0
  -39.6521   60.3454   66.0872 O   0  0  0  0  0  0  0  0  0  0  0  0
  -38.7144   59.9123   65.0773 C   0  0  0  0  0  0  0  0  0  0  0  0
  -38.6609   58.4028   64.9743 C   0  0  0  0  0  0  0  0  0  0  0  0
  -39.3060   57.9446   63.7783 O   0  0  0  0  0  0  0  0  0  0  0  0
  -38.8316   58.2858   63.0041 H   0  0  0  0  0  0  0  0  0  0  0  0
  -37.2488   57.8678   65.0204 C   0  0  0  0  0  0  0  0  0  0  0  0
  -36.4497   58.3619   63.9184 O   0  0  0  0  0  0  0  0  0  0  0  0
  -34.9179   58.8309   63.8199 P   0  0  0  0  0  0  0  0  0  0  0  0
  -34.2741   58.1128   62.6350 O   0  0  0  0  0  0  0  0  0  0  0  0
  -34.2164   58.4210   65.0561 O   0  0  0  0  0  0  0  0  0  0  0  0
  -34.3006   57.4618   65.1728 H   0  0  0  0  0  0  0  0  0  0  0  0
  -34.7995   60.4543   63.5839 O   0  0  0  0  0  0  0  0  0  0  0  0
  -35.5372   61.4771   64.3066 C   0  0  0  0  0  0  0  0  0  0  0  0
  -34.6326   62.1738   65.2928 C   0  0  0  0  0  0  0  0  0  0  0  0
  -34.9230   63.6390   65.5596 N   0  0  0  0  0  0  0  0  0  0  0  0
  -34.4324   64.4847   64.4286 C   0  0  0  0  0  0  0  0  0  0  0  0
  -34.2168   64.0453   66.8113 C   0  0  0  0  0  0  0  0  0  0  0  0
  -36.3992   63.8614   65.7267 C   0  0  0  0  0  0  0  0  0  0  0  0
 34 33  1  0  0  0
 34 35  1  0  0  0
 34 36  1  0  0  0
 34 37  1  0  0  0
 22 23  1  0  0  0
 22 25  1  0  0  0
 22 21  1  0  0  0
 23 24  1  0  0  0
 27 26  1  0  0  0
 27 28  2  0  0  0
 27 31  1  0  0  0
 27 29  1  0  0  0
 25 26  1  0  0  0
 32 33  1  0  0  0
 32 31  1  0  0  0
 29 30  1  0  0  0
 20 21  1  0  0  0
 20  2  1  0  0  0
  1  2  2  0  0  0
  2  3  1  0  0  0
  3  4  1  0  0  0
  4  5  1  0  0  0
  5  6  1  0  0  0
  6  7  1  0  0  0
  7  8  1  0  0  0
  8  9  1  0  0  0
  9 10  1  0  0  0
 10 11  2  0  0  0
 11 12  1  0  0  0
 12 13  1  0  0  0
 13 14  1  0  0  0
 14 15  1  0  0  0
 15 16  1  0  0  0
 16 17  1  0  0  0
 17 18  1  0  0  0
 18 19  1  0  0  0
M  CHG 1  28  -1
M  END
> <minimizedAffinity>
-7.75514

> <CNNscore>
0.7071229815

> <CNNaffinity>
6.5255937576

> <CNN_VS>
4.6143975258

> <CNNaffinity_variance>
0.3810980916

$$$$
/media/chris/experiments/cd1a-new-docking/inputs/ligands/4x6e_ligand.pdb


 37 36  0  0  0  0  0  0  0  0999 V2000
  -40.8708   59.9753   64.6223 O   0  0  0  0  0  0  0  0  0  0  0  0
  -40.7112   60.2396   65.7883 C   0  0  0  0  0  0  0  0  0  0  0  0
  -41.6191   59.8211   66.9038 C   0  0  0  0  0  0  0  0  0  0  0  0
  -42.8733   59.1039   66.4190 C   0  0  0  0  0  0  0  0  0  0  0  0
  -42.7844   57.5882   66.4663 C   0  0  0  0  0  0  0  0  0  0  0  0
  -43.7602   56.8960   65.5310 C   0  0  0  0  0  0  0  0  0  0  0  0
  -45.0323   57.6951   65.3057 C   0  0  0  0  0  0  0  0  0  0  0  0
  -46.1372   57.2914   66.2563 C   0  0  0  0  0  0  0  0  0  0  0  0
  -46.6546   58.4087   67.1394 C   0  0  0  0  0  0  0  0  0  0  0  0
  -46.9951   59.6490   66.4059 C   0  0  0  0  0  0  0  0  0  0  0  0
  -48.1245   59.8905   65.7727 C   0  0  0  0  0  0  0  0  0  0  0  0
  -49.3195   58.9977   65.6852 C   0  0  0  0  0  0  0  0  0  0  0  0
  -50.5541   59.8079   65.2868 C   0  0  0  0  0  0  0  0  0  0  0  0
  -51.0049   59.6419   63.8430 C   0  0  0  0  0  0  0  0  0  0  0  0
  -50.4105   58.4414   63.1165 C   0  0  0  0  0  0  0  0  0  0  0  0
  -50.9306   58.2723   61.6926 C   0  0  0  0  0  0  0  0  0  0  0  0
  -49.9175   58.6457   60.6222 C   0  0  0  0  0  0  0  0  0  0  0  0
  -49.7186   57.6115   59.5244 C   0  0  0  0  0  0  0  0  0  0  0  0
  -48.9338   56.4215   59.9843 C   0  0  0  0  0  0  0  0  0  0  0  0
  -39.6803   60.9438   66.2647 O   0  0  0  0  0  0  0  0  0  0  0  0
  -38.3857   60.3040   66.2997 C   0  0  0  0  0  0  0  0  0  0  0  0
  -37.2911   61.2296   65.8125 C   0  0  0  0  0  0  0  0  0  0  0  0
  -36.4768   61.6833   66.9022 O   0  0  0  0  0  0  0  0  0  0  0  0
  -36.0290   60.9250   67.3087 H   0  0  0  0  0  0  0  0  0  0  0  0
  -36.4142   60.5888   64.7623 C   0  0  0  0  0  0  0  0  0  0  0  0
  -37.0641   59.4562   64.1362 O   0  0  0  0  0  0  0  0  0  0  0  0
  -36.4885   58.1558   63.3922 P   0  0  0  0  0  0  0  0  0  0  0  0
  -35.9922   57.1779   64.4559 O   0  0  0  0  0  0  0  0  0  0  0  0
  -35.3398   58.5601   62.5522 O   0  0  0  0  0  0  0  0  0  0  0  0
  -34.6713   58.9935   63.1054 H   0  0  0  0  0  0  0  0  0  0  0  0
  -37.6479   57.4153   62.4909 O   0  0  0  0  0  0  0  0  0  0  0  0
  -38.2837   57.9619   61.3036 C   0  0  0  0  0  0  0  0  0  0  0  0
  -39.5233   58.7331   61.6840 C   0  0  0  0  0  0  0  0  0  0  0  0
  -40.8515   58.1265   61.2710 N   0  0  0  0  0  0  0  0  0  0  0  0
  -41.8407   59.2004   60.9499 C   0  0  0  0  0  0  0  0  0  0  0  0
  -41.3751   57.3073   62.4047 C   0  0  0  0  0  0  0  0  0  0  0  0
  -40.6773   57.2506   60.0631 C   0  0  0  0  0  0  0  0  0  0  0  0
 34 33  1  0  0  0
 34 35  1  0  0  0
 34 36  1  0  0  0
 34 37  1  0  0  0
 22 23  1  0  0  0
 22 25  1  0  0  0
 22 21  1  0  0  0
 23 24  1  0  0  0
 27 26  1  0  0  0
 27 28  2  0  0  0
 27 31  1  0  0  0
 27 29  1  0  0  0
 25 26  1  0  0  0
 32 33  1  0  0  0
 32 31  1  0  0  0
 29 30  1  0  0  0
 20 21  1  0  0  0
 20  2  1  0  0  0
  1  2  2  0  0  0
  2  3  1  0  0  0
  3  4  1  0  0  0
  4  5  1  0  0  0
  5  6  1  0  0  0
  6  7  1  0  0  0
  7  8  1  0  0  0
  8  9  1  0  0  0
  9 10  1  0  0  0
 10 11  2  0  0  0
 11 12  1  0  0  0
 12 13  1  0  0  0
 13 14  1  0  0  0
 14 15  1  0  0  0
 15 16  1  0  0  0
 16 17  1  0  0  0
 17 18  1  0  0  0
 18 19  1  0  0  0
M  CHG 1  28  -1
M  END
> <minimizedAffinity>
-7.71382

> <CNNscore>
0.6386894584

> <CNNaffinity>
7.0298204422

> <CNN_VS>
4.4898719788

> <CNNaffinity_variance>
0.0756103173

$$$$
/media/chris/experiments/cd1a-new-docking/inputs/ligands/4x6e_ligand.pdb


 37 36  0  0  0  0  0  0  0  0999 V2000
  -42.0799   57.7831   62.8292 O   0  0  0  0  0  0  0  0  0  0  0  0
  -42.0604   58.9869   62.9018 C   0  0  0  0  0  0  0  0  0  0  0  0
  -42.8472   59.8092   63.8757 C   0  0  0  0  0  0  0  0  0  0  0  0
  -44.3489   59.7684   63.6189 C   0  0  0  0  0  0  0  0  0  0  0  0
  -45.1983   60.1657   64.8139 C   0  0  0  0  0  0  0  0  0  0  0  0
  -45.0195   59.2516   66.0133 C   0  0  0  0  0  0  0  0  0  0  0  0
  -46.3013   59.0556   66.8047 C   0  0  0  0  0  0  0  0  0  0  0  0
  -46.8922   57.6779   66.6043 C   0  0  0  0  0  0  0  0  0  0  0  0
  -48.2286   57.6579   65.8907 C   0  0  0  0  0  0  0  0  0  0  0  0
  -49.0416   58.8779   66.0981 C   0  0  0  0  0  0  0  0  0  0  0  0
  -49.5804   59.6209   65.1534 C   0  0  0  0  0  0  0  0  0  0  0  0
  -49.5300   59.3835   63.6789 C   0  0  0  0  0  0  0  0  0  0  0  0
  -50.7315   58.5454   63.2392 C   0  0  0  0  0  0  0  0  0  0  0  0
  -50.7770   58.1977   61.7584 C   0  0  0  0  0  0  0  0  0  0  0  0
  -49.6352   58.7698   60.9269 C   0  0  0  0  0  0  0  0  0  0  0  0
  -49.8120   58.5638   59.4261 C   0  0  0  0  0  0  0  0  0  0  0  0
  -49.4852   57.1543   58.9587 C   0  0  0  0  0  0  0  0  0  0  0  0
  -48.2058   57.0173   58.1471 C   0  0  0  0  0  0  0  0  0  0  0  0
  -47.3033   55.9400   58.6651 C   0  0  0  0  0  0  0  0  0  0  0  0
  -41.3144   59.7746   62.1216 O   0  0  0  0  0  0  0  0  0  0  0  0
  -40.1954   59.1753   61.4320 C   0  0  0  0  0  0  0  0  0  0  0  0
  -38.8786   59.7777   61.8737 C   0  0  0  0  0  0  0  0  0  0  0  0
  -38.0953   60.1885   60.7449 O   0  0  0  0  0  0  0  0  0  0  0  0
  -38.5645   60.8874   60.2629 H   0  0  0  0  0  0  0  0  0  0  0  0
  -39.0614   60.9480   62.8114 C   0  0  0  0  0  0  0  0  0  0  0  0
  -38.0136   61.9348   62.6515 O   0  0  0  0  0  0  0  0  0  0  0  0
  -36.9817   62.5927   63.6899 P   0  0  0  0  0  0  0  0  0  0  0  0
  -37.4610   62.2749   65.1054 O   0  0  0  0  0  0  0  0  0  0  0  0
  -36.9964   64.0606   63.5068 O   0  0  0  0  0  0  0  0  0  0  0  0
  -37.9000   64.3923   63.6260 H   0  0  0  0  0  0  0  0  0  0  0  0
  -35.4646   61.9882   63.4957 O   0  0  0  0  0  0  0  0  0  0  0  0
  -34.8020   61.0460   64.3823 C   0  0  0  0  0  0  0  0  0  0  0  0
  -33.8601   60.1661   63.5983 C   0  0  0  0  0  0  0  0  0  0  0  0
  -34.1710   58.6809   63.5890 N   0  0  0  0  0  0  0  0  0  0  0  0
  -33.1243   57.9313   62.8290 C   0  0  0  0  0  0  0  0  0  0  0  0
  -35.4935   58.4743   62.9265 C   0  0  0  0  0  0  0  0  0  0  0  0
  -34.2282   58.1461   64.9917 C   0  0  0  0  0  0  0  0  0  0  0  0
 34 33  1  0  0  0
 34 35  1  0  0  0
 34 36  1  0  0  0
 34 37  1  0  0  0
 22 23  1  0  0  0
 22 25  1  0  0  0
 22 21  1  0  0  0
 23 24  1  0  0  0
 27 26  1  0  0  0
 27 28  2  0  0  0
 27 31  1  0  0  0
 27 29  1  0  0  0
 25 26  1  0  0  0
 32 33  1  0  0  0
 32 31  1  0  0  0
 29 30  1  0  0  0
 20 21  1  0  0  0
 20  2  1  0  0  0
  1  2  2  0  0  0
  2  3  1  0  0  0
  3  4  1  0  0  0
  4  5  1  0  0  0
  5  6  1  0  0  0
  6  7  1  0  0  0
  7  8  1  0  0  0
  8  9  1  0  0  0
  9 10  1  0  0  0
 10 11  2  0  0  0
 11 12  1  0  0  0
 12 13  1  0  0  0
 13 14  1  0  0  0
 14 15  1  0  0  0
 15 16  1  0  0  0
 16 17  1  0  0  0
 17 18  1  0  0  0
 18 19  1  0  0  0
M  CHG 1  28  -1
M  END
> <minimizedAffinity>
-7.56708

> <CNNscore>
0.5601245761

> <CNNaffinity>
6.4715604782

> <CNN_VS>
3.6248800755

> <CNNaffinity_variance>
0.1110850424

$$$$
/media/chris/experiments/cd1a-new-docking/inputs/ligands/4x6e_ligand.pdb


 37 36  0  0  0  0  0  0  0  0999 V2000
  -40.6863   57.7888   61.5560 O   0  0  0  0  0  0  0  0  0  0  0  0
  -41.4268   58.2814   62.3708 C   0  0  0  0  0  0  0  0  0  0  0  0
  -42.9233   58.2461   62.3149 C   0  0  0  0  0  0  0  0  0  0  0  0
  -43.5797   58.4981   63.6670 C   0  0  0  0  0  0  0  0  0  0  0  0
  -44.4638   59.7326   63.7122 C   0  0  0  0  0  0  0  0  0  0  0  0
  -45.8766   59.4471   64.1903 C   0  0  0  0  0  0  0  0  0  0  0  0
  -46.0757   59.7528   65.6649 C   0  0  0  0  0  0  0  0  0  0  0  0
  -47.4941   60.1764   65.9748 C   0  0  0  0  0  0  0  0  0  0  0  0
  -48.3627   60.4245   64.7583 C   0  0  0  0  0  0  0  0  0  0  0  0
  -49.7655   59.9783   64.9174 C   0  0  0  0  0  0  0  0  0  0  0  0
  -50.3913   59.1014   64.1597 C   0  0  0  0  0  0  0  0  0  0  0  0
  -49.8251   58.3365   63.0077 C   0  0  0  0  0  0  0  0  0  0  0  0
  -50.7570   58.4382   61.7991 C   0  0  0  0  0  0  0  0  0  0  0  0
  -50.5566   57.3742   60.7298 C   0  0  0  0  0  0  0  0  0  0  0  0
  -50.3306   57.9108   59.3215 C   0  0  0  0  0  0  0  0  0  0  0  0
  -48.9874   57.5054   58.7235 C   0  0  0  0  0  0  0  0  0  0  0  0
  -48.2065   56.5229   59.5817 C   0  0  0  0  0  0  0  0  0  0  0  0
  -47.1488   55.7134   58.8467 C   0  0  0  0  0  0  0  0  0  0  0  0
  -47.0661   56.0541   57.3905 C   0  0  0  0  0  0  0  0  0  0  0  0
  -41.0158   58.9295   63.4647 O   0  0  0  0  0  0  0  0  0  0  0  0
  -39.7273   58.5757   64.0136 C   0  0  0  0  0  0  0  0  0  0  0  0
  -38.9669   59.7962   64.4871 C   0  0  0  0  0  0  0  0  0  0  0  0
  -39.7098   60.9965   64.2347 O   0  0  0  0  0  0  0  0  0  0  0  0
  -40.5359   60.9782   64.7428 H   0  0  0  0  0  0  0  0  0  0  0  0
  -38.6101   59.7247   65.9534 C   0  0  0  0  0  0  0  0  0  0  0  0
  -38.0284   60.9635   66.4269 O   0  0  0  0  0  0  0  0  0  0  0  0
  -36.6734   61.7353   66.0470 P   0  0  0  0  0  0  0  0  0  0  0  0
  -35.6868   60.7163   65.4792 O   0  0  0  0  0  0  0  0  0  0  0  0
  -36.0955   62.3131   67.2801 O   0  0  0  0  0  0  0  0  0  0  0  0
  -35.9474   61.6078   67.9292 H   0  0  0  0  0  0  0  0  0  0  0  0
  -36.9408   62.9005   64.9174 O   0  0  0  0  0  0  0  0  0  0  0  0
  -35.9310   63.5186   64.0743 C   0  0  0  0  0  0  0  0  0  0  0  0
  -34.9242   64.2562   64.9218 C   0  0  0  0  0  0  0  0  0  0  0  0
  -33.4647   64.0812   64.5454 N   0  0  0  0  0  0  0  0  0  0  0  0
  -32.5897   64.2566   65.7448 C   0  0  0  0  0  0  0  0  0  0  0  0
  -33.1070   65.1146   63.5282 C   0  0  0  0  0  0  0  0  0  0  0  0
  -33.2298   62.7139   63.9694 C   0  0  0  0  0  0  0  0  0  0  0  0
 34 33  1  0  0  0
 34 35  1  0  0  0
 34 36  1  0  0  0
 34 37  1  0  0  0
 22 23  1  0  0  0
 22 25  1  0  0  0
 22 21  1  0  0  0
 23 24  1  0  0  0
 27 26  1  0  0  0
 27 28  2  0  0  0
 27 31  1  0  0  0
 27 29  1  0  0  0
 25 26  1  0  0  0
 32 33  1  0  0  0
 32 31  1  0  0  0
 29 30  1  0  0  0
 20 21  1  0  0  0
 20  2  1  0  0  0
  1  2  2  0  0  0
  2  3  1  0  0  0
  3  4  1  0  0  0
  4  5  1  0  0  0
  5  6  1  0  0  0
  6  7  1  0  0  0
  7  8  1  0  0  0
  8  9  1  0  0  0
  9 10  1  0  0  0
 10 11  2  0  0  0
 11 12  1  0  0  0
 12 13  1  0  0  0
 13 14  1  0  0  0
 14 15  1  0  0  0
 15 16  1  0  0  0
 16 17  1  0  0  0
 17 18  1  0  0  0
 18 19  1  0  0  0
M  CHG 1  28  -1
M  END
> <minimizedAffinity>
-7.93598

> <CNNscore>
0.5562574267

> <CNNaffinity>
6.2607474327

> <CNN_VS>
3.4825873375

> <CNNaffinity_variance>
0.3528134823

$$$$
/media/chris/experiments/cd1a-new-docking/inputs/ligands/4x6e_ligand.pdb


 37 36  0  0  0  0  0  0  0  0999 V2000
  -40.1312   58.7520   65.8269 O   0  0  0  0  0  0  0  0  0  0  0  0
  -40.4344   59.9123   65.9557 C   0  0  0  0  0  0  0  0  0  0  0  0
  -41.8271   60.4273   66.1526 C   0  0  0  0  0  0  0  0  0  0  0  0
  -42.7307   59.4457   66.8893 C   0  0  0  0  0  0  0  0  0  0  0  0
  -44.1520   59.3838   66.3567 C   0  0  0  0  0  0  0  0  0  0  0  0
  -44.2308   59.4076   64.8403 C   0  0  0  0  0  0  0  0  0  0  0  0
  -45.3790   60.2555   64.3205 C   0  0  0  0  0  0  0  0  0  0  0  0
  -46.6451   60.0583   65.1240 C   0  0  0  0  0  0  0  0  0  0  0  0
  -47.8876   59.7974   64.2971 C   0  0  0  0  0  0  0  0  0  0  0  0
  -48.8049   58.7954   64.8860 C   0  0  0  0  0  0  0  0  0  0  0  0
  -50.0419   58.5559   64.5021 C   0  0  0  0  0  0  0  0  0  0  0  0
  -50.7785   59.2023   63.3741 C   0  0  0  0  0  0  0  0  0  0  0  0
  -50.8811   58.2382   62.1911 C   0  0  0  0  0  0  0  0  0  0  0  0
  -49.6627   58.1914   61.2807 C   0  0  0  0  0  0  0  0  0  0  0  0
  -49.9607   58.3647   59.7963 C   0  0  0  0  0  0  0  0  0  0  0  0
  -49.2018   57.3874   58.9045 C   0  0  0  0  0  0  0  0  0  0  0  0
  -48.5234   56.2613   59.6684 C   0  0  0  0  0  0  0  0  0  0  0  0
  -47.2182   55.7609   59.0683 C   0  0  0  0  0  0  0  0  0  0  0  0
  -47.1264   56.0065   57.5936 C   0  0  0  0  0  0  0  0  0  0  0  0
  -39.5592   60.9221   65.9542 O   0  0  0  0  0  0  0  0  0  0  0  0
  -38.1594   60.6011   66.1095 C   0  0  0  0  0  0  0  0  0  0  0  0
  -37.2799   61.5261   65.2953 C   0  0  0  0  0  0  0  0  0  0  0  0
  -37.0488   62.7601   65.9883 O   0  0  0  0  0  0  0  0  0  0  0  0
  -36.5669   62.5833   66.8113 H   0  0  0  0  0  0  0  0  0  0  0  0
  -35.9548   60.8971   64.9332 C   0  0  0  0  0  0  0  0  0  0  0  0
  -36.0216   60.1900   63.6711 O   0  0  0  0  0  0  0  0  0  0  0  0
  -36.1831   58.6341   63.3117 P   0  0  0  0  0  0  0  0  0  0  0  0
  -36.3824   57.8615   64.6146 O   0  0  0  0  0  0  0  0  0  0  0  0
  -34.9351   58.1636   62.6719 O   0  0  0  0  0  0  0  0  0  0  0  0
  -34.1856   58.3282   63.2651 H   0  0  0  0  0  0  0  0  0  0  0  0
  -37.4817   58.3733   62.3367 O   0  0  0  0  0  0  0  0  0  0  0  0
  -38.6835   57.6386   62.6954 C   0  0  0  0  0  0  0  0  0  0  0  0
  -39.9085   58.3746   62.2120 C   0  0  0  0  0  0  0  0  0  0  0  0
  -40.9823   57.5362   61.5437 N   0  0  0  0  0  0  0  0  0  0  0  0
  -42.3103   58.2168   61.6340 C   0  0  0  0  0  0  0  0  0  0  0  0
  -41.0634   56.2190   62.2430 C   0  0  0  0  0  0  0  0  0  0  0  0
  -40.6499   57.3113   60.0961 C   0  0  0  0  0  0  0  0  0  0  0  0
 34 33  1  0  0  0
 34 35  1  0  0  0
 34 36  1  0  0  0
 34 37  1  0  0  0
 22 23  1  0  0  0
 22 25  1  0  0  0
 22 21  1  0  0  0
 23 24  1  0  0  0
 27 26  1  0  0  0
 27 28  2  0  0  0
 27 31  1  0  0  0
 27 29  1  0  0  0
 25 26  1  0  0  0
 32 33  1  0  0  0
 32 31  1  0  0  0
 29 30  1  0  0  0
 20 21  1  0  0  0
 20  2  1  0  0  0
  1  2  2  0  0  0
  2  3  1  0  0  0
  3  4  1  0  0  0
  4  5  1  0  0  0
  5  6  1  0  0  0
  6  7  1  0  0  0
  7  8  1  0  0  0
  8  9  1  0  0  0
  9 10  1  0  0  0
 10 11  2  0  0  0
 11 12  1  0  0  0
 12 13  1  0  0  0
 13 14  1  0  0  0
 14 15  1  0  0  0
 15 16  1  0  0  0
 16 17  1  0  0  0
 17 18  1  0  0  0
 18 19  1  0  0  0
M  CHG 1  28  -1
M  END
> <minimizedAffinity>
-8.17053

> <CNNscore>
0.5550219417

> <CNNaffinity>
6.8478403091

> <CNN_VS>
3.8007016182

> <CNNaffinity_variance>
0.1755175740

$$$$
/media/chris/experiments/cd1a-new-docking/inputs/ligands/4x6e_ligand.pdb


 37 36  0  0  0  0  0  0  0  0999 V2000
  -39.7871   60.9523   66.2758 O   0  0  0  0  0  0  0  0  0  0  0  0
  -39.9819   59.7780   66.0811 C   0  0  0  0  0  0  0  0  0  0  0  0
  -41.3085   59.0904   66.1870 C   0  0  0  0  0  0  0  0  0  0  0  0
  -42.2478   59.7513   67.1888 C   0  0  0  0  0  0  0  0  0  0  0  0
  -43.7169   59.4293   66.9747 C   0  0  0  0  0  0  0  0  0  0  0  0
  -43.9479   58.2440   66.0539 C   0  0  0  0  0  0  0  0  0  0  0  0
  -45.3557   58.2019   65.4850 C   0  0  0  0  0  0  0  0  0  0  0  0
  -46.0965   59.5038   65.6944 C   0  0  0  0  0  0  0  0  0  0  0  0
  -47.5774   59.3532   65.9775 C   0  0  0  0  0  0  0  0  0  0  0  0
  -48.2379   58.2903   65.1861 C   0  0  0  0  0  0  0  0  0  0  0  0
  -48.8870   58.4573   64.0523 C   0  0  0  0  0  0  0  0  0  0  0  0
  -49.0680   59.7325   63.2947 C   0  0  0  0  0  0  0  0  0  0  0  0
  -50.3126   59.6471   62.4097 C   0  0  0  0  0  0  0  0  0  0  0  0
  -50.8290   58.2404   62.1449 C   0  0  0  0  0  0  0  0  0  0  0  0
  -50.6203   57.7346   60.7226 C   0  0  0  0  0  0  0  0  0  0  0  0
  -49.2011   57.2457   60.4521 C   0  0  0  0  0  0  0  0  0  0  0  0
  -49.0458   56.5202   59.1250 C   0  0  0  0  0  0  0  0  0  0  0  0
  -48.2415   57.2613   58.0676 C   0  0  0  0  0  0  0  0  0  0  0  0
  -47.3006   56.3658   57.3217 C   0  0  0  0  0  0  0  0  0  0  0  0
  -39.0324   58.9078   65.7252 O   0  0  0  0  0  0  0  0  0  0  0  0
  -38.2194   59.2299   64.5754 C   0  0  0  0  0  0  0  0  0  0  0  0
  -37.8257   57.9886   63.8033 C   0  0  0  0  0  0  0  0  0  0  0  0
  -38.9816   57.2302   63.4224 O   0  0  0  0  0  0  0  0  0  0  0  0
  -39.5317   57.7585   62.8232 H   0  0  0  0  0  0  0  0  0  0  0  0
  -37.0049   58.3052   62.5751 C   0  0  0  0  0  0  0  0  0  0  0  0
  -37.6320   57.8118   61.3667 O   0  0  0  0  0  0  0  0  0  0  0  0
  -38.4077   58.5522   60.1724 P   0  0  0  0  0  0  0  0  0  0  0  0
  -39.5484   57.6468   59.7106 O   0  0  0  0  0  0  0  0  0  0  0  0
  -37.4703   58.7408   59.0437 O   0  0  0  0  0  0  0  0  0  0  0  0
  -37.1131   57.8807   58.7728 H   0  0  0  0  0  0  0  0  0  0  0  0
  -39.0377   59.9898   60.6639 O   0  0  0  0  0  0  0  0  0  0  0  0
  -40.4512   60.3194   60.7416 C   0  0  0  0  0  0  0  0  0  0  0  0
  -40.9746   60.0475   62.1301 C   0  0  0  0  0  0  0  0  0  0  0  0
  -42.4012   60.4805   62.4127 N   0  0  0  0  0  0  0  0  0  0  0  0
  -43.2904   59.2882   62.5636 C   0  0  0  0  0  0  0  0  0  0  0  0
  -42.8857   61.3054   61.2657 C   0  0  0  0  0  0  0  0  0  0  0  0
  -42.4644   61.2953   63.6731 C   0  0  0  0  0  0  0  0  0  0  0  0
 34 33  1  0  0  0
 34 35  1  0  0  0
 34 36  1  0  0  0
 34 37  1  0  0  0
 22 23  1  0  0  0
 22 25  1  0  0  0
 22 21  1  0  0  0
 23 24  1  0  0  0
 27 26  1  0  0  0
 27 28  2  0  0  0
 27 31  1  0  0  0
 27 29  1  0  0  0
 25 26  1  0  0  0
 32 33  1  0  0  0
 32 31  1  0  0  0
 29 30  1  0  0  0
 20 21  1  0  0  0
 20  2  1  0  0  0
  1  2  2  0  0  0
  2  3  1  0  0  0
  3  4  1  0  0  0
  4  5  1  0  0  0
  5  6  1  0  0  0
  6  7  1  0  0  0
  7  8  1  0  0  0
  8  9  1  0  0  0
  9 10  1  0  0  0
 10 11  2  0  0  0
 11 12  1  0  0  0
 12 13  1  0  0  0
 13 14  1  0  0  0
 14 15  1  0  0  0
 15 16  1  0  0  0
 16 17  1  0  0  0
 17 18  1  0  0  0
 18 19  1  0  0  0
M  CHG 1  28  -1
M  END
> <minimizedAffinity>
-7.43973

> <CNNscore>
0.5491202474

> <CNNaffinity>
6.9756417274

> <CNN_VS>
3.8304660320

> <CNNaffinity_variance>
0.2779709697

$$$$
/media/chris/experiments/cd1a-new-docking/inputs/ligands/4x6e_ligand.pdb


 37 36  0  0  0  0  0  0  0  0999 V2000
  -41.2921   55.3865   63.0959 O   0  0  0  0  0  0  0  0  0  0  0  0
  -41.7143   56.2694   63.8008 C   0  0  0  0  0  0  0  0  0  0  0  0
  -42.7985   56.1184   64.8233 C   0  0  0  0  0  0  0  0  0  0  0  0
  -43.6097   57.3920   65.0295 C   0  0  0  0  0  0  0  0  0  0  0  0
  -44.0720   57.6141   66.4594 C   0  0  0  0  0  0  0  0  0  0  0  0
  -44.6118   59.0112   66.7100 C   0  0  0  0  0  0  0  0  0  0  0  0
  -46.0912   59.0211   67.0549 C   0  0  0  0  0  0  0  0  0  0  0  0
  -46.6970   57.6359   67.0154 C   0  0  0  0  0  0  0  0  0  0  0  0
  -47.8027   57.4555   65.9951 C   0  0  0  0  0  0  0  0  0  0  0  0
  -47.6438   58.2864   64.7800 C   0  0  0  0  0  0  0  0  0  0  0  0
  -48.6180   58.7511   64.0252 C   0  0  0  0  0  0  0  0  0  0  0  0
  -50.0869   58.5833   64.2421 C   0  0  0  0  0  0  0  0  0  0  0  0
  -50.8533   58.9653   62.9748 C   0  0  0  0  0  0  0  0  0  0  0  0
  -50.0821   59.8192   61.9789 C   0  0  0  0  0  0  0  0  0  0  0  0
  -49.9981   59.2471   60.5690 C   0  0  0  0  0  0  0  0  0  0  0  0
  -49.8528   57.7292   60.5353 C   0  0  0  0  0  0  0  0  0  0  0  0
  -49.1416   57.2094   59.2960 C   0  0  0  0  0  0  0  0  0  0  0  0
  -48.3123   55.9507   59.5006 C   0  0  0  0  0  0  0  0  0  0  0  0
  -47.1172   55.8910   58.5996 C   0  0  0  0  0  0  0  0  0  0  0  0
  -41.2625   57.5269   63.7819 O   0  0  0  0  0  0  0  0  0  0  0  0
  -39.9148   57.7519   63.3131 C   0  0  0  0  0  0  0  0  0  0  0  0
  -39.1737   58.7363   64.1927 C   0  0  0  0  0  0  0  0  0  0  0  0
  -39.7546   58.7960   65.5025 O   0  0  0  0  0  0  0  0  0  0  0  0
  -39.6700   57.9310   65.9333 H   0  0  0  0  0  0  0  0  0  0  0  0
  -37.7019   58.4162   64.3096 C   0  0  0  0  0  0  0  0  0  0  0  0
  -37.0174   59.3428   65.1871 O   0  0  0  0  0  0  0  0  0  0  0  0
  -36.7992   60.9316   65.1219 P   0  0  0  0  0  0  0  0  0  0  0  0
  -38.0065   61.6063   65.7711 O   0  0  0  0  0  0  0  0  0  0  0  0
  -36.7369   61.3435   63.7024 O   0  0  0  0  0  0  0  0  0  0  0  0
  -37.5477   61.0647   63.2489 H   0  0  0  0  0  0  0  0  0  0  0  0
  -35.4402   61.3861   65.9292 O   0  0  0  0  0  0  0  0  0  0  0  0
  -35.0294   62.7526   66.2057 C   0  0  0  0  0  0  0  0  0  0  0  0
  -33.6761   63.0237   65.5966 C   0  0  0  0  0  0  0  0  0  0  0  0
  -33.6556   63.8892   64.3504 N   0  0  0  0  0  0  0  0  0  0  0  0
  -32.7806   65.0837   64.5564 C   0  0  0  0  0  0  0  0  0  0  0  0
  -35.0476   64.3503   64.0666 C   0  0  0  0  0  0  0  0  0  0  0  0
  -33.1410   63.1079   63.1751 C   0  0  0  0  0  0  0  0  0  0  0  0
 34 33  1  0  0  0
 34 35  1  0  0  0
 34 36  1  0  0  0
 34 37  1  0  0  0
 22 23  1  0  0  0
 22 25  1  0  0  0
 22 21  1  0  0  0
 23 24  1  0  0  0
 27 26  1  0  0  0
 27 28  2  0  0  0
 27 31  1  0  0  0
 27 29  1  0  0  0
 25 26  1  0  0  0
 32 33  1  0  0  0
 32 31  1  0  0  0
 29 30  1  0  0  0
 20 21  1  0  0  0
 20  2  1  0  0  0
  1  2  2  0  0  0
  2  3  1  0  0  0
  3  4  1  0  0  0
  4  5  1  0  0  0
  5  6  1  0  0  0
  6  7  1  0  0  0
  7  8  1  0  0  0
  8  9  1  0  0  0
  9 10  1  0  0  0
 10 11  2  0  0  0
 11 12  1  0  0  0
 12 13  1  0  0  0
 13 14  1  0  0  0
 14 15  1  0  0  0
 15 16  1  0  0  0
 16 17  1  0  0  0
 17 18  1  0  0  0
 18 19  1  0  0  0
M  CHG 1  28  -1
M  END
> <minimizedAffinity>
-7.52137

> <CNNscore>
0.5384497643

> <CNNaffinity>
6.2688994408

> <CNN_VS>
3.3754873276

> <CNNaffinity_variance>
0.1342960894

$$$$
/media/chris/experiments/cd1a-new-docking/inputs/ligands/4x6e_ligand.pdb


 37 36  0  0  0  0  0  0  0  0999 V2000
  -42.1034   58.1233   62.7998 O   0  0  0  0  0  0  0  0  0  0  0  0
  -42.1861   59.3170   62.9521 C   0  0  0  0  0  0  0  0  0  0  0  0
  -43.2335   60.0165   63.7629 C   0  0  0  0  0  0  0  0  0  0  0  0
  -44.5970   59.3392   63.6934 C   0  0  0  0  0  0  0  0  0  0  0  0
  -45.6135   59.8772   64.6858 C   0  0  0  0  0  0  0  0  0  0  0  0
  -45.3098   59.5020   66.1256 C   0  0  0  0  0  0  0  0  0  0  0  0
  -46.5134   58.9303   66.8549 C   0  0  0  0  0  0  0  0  0  0  0  0
  -46.7394   57.4707   66.5292 C   0  0  0  0  0  0  0  0  0  0  0  0
  -48.0955   57.1563   65.9309 C   0  0  0  0  0  0  0  0  0  0  0  0
  -49.0168   58.3144   65.8826 C   0  0  0  0  0  0  0  0  0  0  0  0
  -49.5711   58.8200   64.8001 C   0  0  0  0  0  0  0  0  0  0  0  0
  -49.4319   58.3228   63.3979 C   0  0  0  0  0  0  0  0  0  0  0  0
  -50.7268   58.5678   62.6214 C   0  0  0  0  0  0  0  0  0  0  0  0
  -50.9255   57.6928   61.3924 C   0  0  0  0  0  0  0  0  0  0  0  0
  -49.6406   57.2343   60.7134 C   0  0  0  0  0  0  0  0  0  0  0  0
  -49.3117   58.0122   59.4434 C   0  0  0  0  0  0  0  0  0  0  0  0
  -49.1150   57.1318   58.2195 C   0  0  0  0  0  0  0  0  0  0  0  0
  -47.7760   57.2861   57.5144 C   0  0  0  0  0  0  0  0  0  0  0  0
  -47.0027   56.0049   57.4516 C   0  0  0  0  0  0  0  0  0  0  0  0
  -41.3369   60.2026   62.4228 O   0  0  0  0  0  0  0  0  0  0  0  0
  -40.5872   59.8026   61.2546 C   0  0  0  0  0  0  0  0  0  0  0  0
  -39.1018   59.7350   61.5395 C   0  0  0  0  0  0  0  0  0  0  0  0
  -38.3383   60.1248   60.3899 O   0  0  0  0  0  0  0  0  0  0  0  0
  -38.5305   61.0505   60.1729 H   0  0  0  0  0  0  0  0  0  0  0  0
  -38.6987   60.5839   62.7223 C   0  0  0  0  0  0  0  0  0  0  0  0
  -37.2891   60.4492   63.0261 O   0  0  0  0  0  0  0  0  0  0  0  0
  -36.4668   59.3679   63.8809 P   0  0  0  0  0  0  0  0  0  0  0  0
  -35.7587   58.4279   62.9067 O   0  0  0  0  0  0  0  0  0  0  0  0
  -37.4213   58.5769   64.6882 O   0  0  0  0  0  0  0  0  0  0  0  0
  -38.0747   58.1632   64.1028 H   0  0  0  0  0  0  0  0  0  0  0  0
  -35.3391   60.0881   64.8372 O   0  0  0  0  0  0  0  0  0  0  0  0
  -34.5730   61.2777   64.5044 C   0  0  0  0  0  0  0  0  0  0  0  0
  -34.4419   62.1690   65.7146 C   0  0  0  0  0  0  0  0  0  0  0  0
  -35.1257   63.5214   65.6366 N   0  0  0  0  0  0  0  0  0  0  0  0
  -35.4283   64.0352   67.0075 C   0  0  0  0  0  0  0  0  0  0  0  0
  -36.4057   63.3662   64.8828 C   0  0  0  0  0  0  0  0  0  0  0  0
  -34.2488   64.5148   64.9289 C   0  0  0  0  0  0  0  0  0  0  0  0
 34 33  1  0  0  0
 34 35  1  0  0  0
 34 36  1  0  0  0
 34 37  1  0  0  0
 22 23  1  0  0  0
 22 25  1  0  0  0
 22 21  1  0  0  0
 23 24  1  0  0  0
 27 26  1  0  0  0
 27 28  2  0  0  0
 27 31  1  0  0  0
 27 29  1  0  0  0
 25 26  1  0  0  0
 32 33  1  0  0  0
 32 31  1  0  0  0
 29 30  1  0  0  0
 20 21  1  0  0  0
 20  2  1  0  0  0
  1  2  2  0  0  0
  2  3  1  0  0  0
  3  4  1  0  0  0
  4  5  1  0  0  0
  5  6  1  0  0  0
  6  7  1  0  0  0
  7  8  1  0  0  0
  8  9  1  0  0  0
  9 10  1  0  0  0
 10 11  2  0  0  0
 11 12  1  0  0  0
 12 13  1  0  0  0
 13 14  1  0  0  0
 14 15  1  0  0  0
 15 16  1  0  0  0
 16 17  1  0  0  0
 17 18  1  0  0  0
 18 19  1  0  0  0
M  CHG 1  28  -1
M  END
> <minimizedAffinity>
-7.76280

> <CNNscore>
0.5347074866

> <CNNaffinity>
6.4348855019

> <CNN_VS>
3.4407813549

> <CNNaffinity_variance>
0.4382709563

$$$$
