/media/chris/experiments/cd1a-new-docking/inputs/ligands/4x6e_ligand.pdb


 37 36  0  0  0  0  0  0  0  0999 V2000
  -42.0311   54.9833   64.5484 O   0  0  0  0  0  0  0  0  0  0  0  0
  -42.3939   56.1335   64.5508 C   0  0  0  0  0  0  0  0  0  0  0  0
  -43.1880   56.7896   65.6383 C   0  0  0  0  0  0  0  0  0  0  0  0
  -44.4010   57.5518   65.1184 C   0  0  0  0  0  0  0  0  0  0  0  0
  -45.6160   57.4883   66.0280 C   0  0  0  0  0  0  0  0  0  0  0  0
  -46.2067   58.8511   66.3434 C   0  0  0  0  0  0  0  0  0  0  0  0
  -46.9366   59.4678   65.1625 C   0  0  0  0  0  0  0  0  0  0  0  0
  -47.8888   58.4931   64.5063 C   0  0  0  0  0  0  0  0  0  0  0  0
  -49.2134   58.3205   65.2216 C   0  0  0  0  0  0  0  0  0  0  0  0
  -50.0604   59.5350   65.2241 C   0  0  0  0  0  0  0  0  0  0  0  0
  -50.8624   59.9233   64.2543 C   0  0  0  0  0  0  0  0  0  0  0  0
  -51.1291   59.2163   62.9653 C   0  0  0  0  0  0  0  0  0  0  0  0
  -50.2908   59.8318   61.8437 C   0  0  0  0  0  0  0  0  0  0  0  0
  -49.8361   58.8625   60.7624 C   0  0  0  0  0  0  0  0  0  0  0  0
  -49.4805   57.4658   61.2574 C   0  0  0  0  0  0  0  0  0  0  0  0
  -49.4521   56.4164   60.1511 C   0  0  0  0  0  0  0  0  0  0  0  0
  -48.0965   56.2729   59.4777 C   0  0  0  0  0  0  0  0  0  0  0  0
  -48.0147   56.8113   58.0571 C   0  0  0  0  0  0  0  0  0  0  0  0
  -47.2800   55.8922   57.1303 C   0  0  0  0  0  0  0  0  0  0  0  0
  -42.1266   57.0075   63.5758 O   0  0  0  0  0  0  0  0  0  0  0  0
  -40.8391   56.9203   62.9266 C   0  0  0  0  0  0  0  0  0  0  0  0
  -40.4490   58.2323   62.2796 C   0  0  0  0  0  0  0  0  0  0  0  0
  -40.8706   58.2769   60.9096 O   0  0  0  0  0  0  0  0  0  0  0  0
  -41.8386   58.2315   60.8676 H   0  0  0  0  0  0  0  0  0  0  0  0
  -41.0036   59.4296   63.0153 C   0  0  0  0  0  0  0  0  0  0  0  0
  -40.0043   60.0544   63.8572 O   0  0  0  0  0  0  0  0  0  0  0  0
  -39.5028   59.7448   65.3500 P   0  0  0  0  0  0  0  0  0  0  0  0
  -40.5091   58.8006   66.0056 O   0  0  0  0  0  0  0  0  0  0  0  0
  -39.4789   61.0113   66.1140 O   0  0  0  0  0  0  0  0  0  0  0  0
  -40.3609   61.4148   66.0986 H   0  0  0  0  0  0  0  0  0  0  0  0
  -38.0233   59.0263   65.3509 O   0  0  0  0  0  0  0  0  0  0  0  0
  -37.6773   57.7858   64.6771 C   0  0  0  0  0  0  0  0  0  0  0  0
  -36.1792   57.6104   64.6443 C   0  0  0  0  0  0  0  0  0  0  0  0
  -35.4384   58.3220   63.5275 N   0  0  0  0  0  0  0  0  0  0  0  0
  -35.1486   59.7379   63.9100 C   0  0  0  0  0  0  0  0  0  0  0  0
  -36.2967   58.3153   62.3053 C   0  0  0  0  0  0  0  0  0  0  0  0
  -34.1415   57.6255   63.2285 C   0  0  0  0  0  0  0  0  0  0  0  0
 34 33  1  0  0  0
 34 35  1  0  0  0
 34 36  1  0  0  0
 34 37  1  0  0  0
 22 23  1  0  0  0
 22 25  1  0  0  0
 22 21  1  0  0  0
 23 24  1  0  0  0
 27 26  1  0  0  0
 27 28  2  0  0  0
 27 31  1  0  0  0
 27 29  1  0  0  0
 25 26  1  0  0  0
 32 33  1  0  0  0
 32 31  1  0  0  0
 29 30  1  0  0  0
 20 21  1  0  0  0
 20  2  1  0  0  0
  1  2  2  0  0  0
  2  3  1  0  0  0
  3  4  1  0  0  0
  4  5  1  0  0  0
  5  6  1  0  0  0
  6  7  1  0  0  0
  7  8  1  0  0  0
  8  9  1  0  0  0
  9 10  1  0  0  0
 10 11  2  0  0  0
 11 12  1  0  0  0
 12 13  1  0  0  0
 13 14  1  0  0  0
 14 15  1  0  0  0
 15 16  1  0  0  0
 16 17  1  0  0  0
 17 18  1  0  0  0
 18 19  1  0  0  0
M  CHG 1  28  -1
M  END
> <minimizedAffinity>
-7.78722

> <CNNscore>
0.8270964622

> <CNNaffinity>
6.9307126999

> <CNN_VS>
5.7323679924

> <CNNaffinity_variance>
0.2379363328

$$$$
/media/chris/experiments/cd1a-new-docking/inputs/ligands/4x6e_ligand.pdb


 37 36  0  0  0  0  0  0  0  0999 V2000
  -41.3968   56.7094   62.7534 O   0  0  0  0  0  0  0  0  0  0  0  0
  -41.1686   57.5061   63.6296 C   0  0  0  0  0  0  0  0  0  0  0  0
  -42.1165   57.8836   64.7262 C   0  0  0  0  0  0  0  0  0  0  0  0
  -43.1349   56.7940   65.0399 C   0  0  0  0  0  0  0  0  0  0  0  0
  -44.2070   57.2077   66.0333 C   0  0  0  0  0  0  0  0  0  0  0  0
  -44.6461   58.6534   65.8814 C   0  0  0  0  0  0  0  0  0  0  0  0
  -45.6954   59.0637   66.9004 C   0  0  0  0  0  0  0  0  0  0  0  0
  -46.8898   58.1359   66.8967 C   0  0  0  0  0  0  0  0  0  0  0  0
  -47.7410   58.2018   65.6448 C   0  0  0  0  0  0  0  0  0  0  0  0
  -49.1937   58.0635   65.8951 C   0  0  0  0  0  0  0  0  0  0  0  0
  -50.1603   58.5237   65.1279 C   0  0  0  0  0  0  0  0  0  0  0  0
  -50.0151   59.2442   63.8270 C   0  0  0  0  0  0  0  0  0  0  0  0
  -50.6852   58.4477   62.7062 C   0  0  0  0  0  0  0  0  0  0  0  0
  -50.2023   58.7688   61.2994 C   0  0  0  0  0  0  0  0  0  0  0  0
  -50.5260   57.7120   60.2503 C   0  0  0  0  0  0  0  0  0  0  0  0
  -49.4135   57.5088   59.2270 C   0  0  0  0  0  0  0  0  0  0  0  0
  -48.5459   56.2902   59.4995 C   0  0  0  0  0  0  0  0  0  0  0  0
  -47.4197   56.0567   58.5036 C   0  0  0  0  0  0  0  0  0  0  0  0
  -47.6482   56.7517   57.1966 C   0  0  0  0  0  0  0  0  0  0  0  0
  -40.0158   58.1694   63.7603 O   0  0  0  0  0  0  0  0  0  0  0  0
  -39.6030   58.5476   65.0920 C   0  0  0  0  0  0  0  0  0  0  0  0
  -39.1317   59.9855   65.1442 C   0  0  0  0  0  0  0  0  0  0  0  0
  -40.2147   60.8717   65.4575 O   0  0  0  0  0  0  0  0  0  0  0  0
  -40.5552   60.6661   66.3421 H   0  0  0  0  0  0  0  0  0  0  0  0
  -38.0100   60.1928   66.1346 C   0  0  0  0  0  0  0  0  0  0  0  0
  -37.7256   61.5980   66.3395 O   0  0  0  0  0  0  0  0  0  0  0  0
  -36.5849   62.5653   65.7572 P   0  0  0  0  0  0  0  0  0  0  0  0
  -36.8718   63.9862   66.2397 O   0  0  0  0  0  0  0  0  0  0  0  0
  -36.6566   62.5466   64.2797 O   0  0  0  0  0  0  0  0  0  0  0  0
  -37.5451   62.8131   63.9957 H   0  0  0  0  0  0  0  0  0  0  0  0
  -35.0915   62.1187   66.2819 O   0  0  0  0  0  0  0  0  0  0  0  0
  -33.8956   62.9445   66.2540 C   0  0  0  0  0  0  0  0  0  0  0  0
  -33.3656   63.0471   64.8452 C   0  0  0  0  0  0  0  0  0  0  0  0
  -32.6668   64.3429   64.4774 N   0  0  0  0  0  0  0  0  0  0  0  0
  -33.6663   65.4322   64.2549 C   0  0  0  0  0  0  0  0  0  0  0  0
  -31.8946   64.1278   63.2173 C   0  0  0  0  0  0  0  0  0  0  0  0
  -31.7271   64.7632   65.5713 C   0  0  0  0  0  0  0  0  0  0  0  0
 34 33  1  0  0  0
 34 35  1  0  0  0
 34 36  1  0  0  0
 34 37  1  0  0  0
 22 23  1  0  0  0
 22 25  1  0  0  0
 22 21  1  0  0  0
 23 24  1  0  0  0
 27 26  1  0  0  0
 27 28  2  0  0  0
 27 31  1  0  0  0
 27 29  1  0  0  0
 25 26  1  0  0  0
 32 33  1  0  0  0
 32 31  1  0  0  0
 29 30  1  0  0  0
 20 21  1  0  0  0
 20  2  1  0  0  0
  1  2  2  0  0  0
  2  3  1  0  0  0
  3  4  1  0  0  0
  4  5  1  0  0  0
  5  6  1  0  0  0
  6  7  1  0  0  0
  7  8  1  0  0  0
  8  9  1  0  0  0
  9 10  1  0  0  0
 10 11  2  0  0  0
 11 12  1  0  0  0
 12 13  1  0  0  0
 13 14  1  0  0  0
 14 15  1  0  0  0
 15 16  1  0  0  0
 16 17  1  0  0  0
 17 18  1  0  0  0
 18 19  1  0  0  0
M  CHG 1  28  -1
M  END
> <minimizedAffinity>
-8.06469

> <CNNscore>
0.8142482042

> <CNNaffinity>
6.5346727371

> <CNN_VS>
5.3208456039

> <CNNaffinity_variance>
0.3649946749

$$$$
/media/chris/experiments/cd1a-new-docking/inputs/ligands/4x6e_ligand.pdb


 37 36  0  0  0  0  0  0  0  0999 V2000
  -42.4241   60.1454   67.1519 O   0  0  0  0  0  0  0  0  0  0  0  0
  -42.0968   60.2727   65.9981 C   0  0  0  0  0  0  0  0  0  0  0  0
  -42.9440   59.9231   64.8132 C   0  0  0  0  0  0  0  0  0  0  0  0
  -44.0181   58.8890   65.1285 C   0  0  0  0  0  0  0  0  0  0  0  0
  -45.1540   58.8405   64.1211 C   0  0  0  0  0  0  0  0  0  0  0  0
  -46.5309   58.8667   64.7610 C   0  0  0  0  0  0  0  0  0  0  0  0
  -46.7497   60.0823   65.6454 C   0  0  0  0  0  0  0  0  0  0  0  0
  -48.1790   60.1883   66.1284 C   0  0  0  0  0  0  0  0  0  0  0  0
  -49.1234   59.1547   65.5488 C   0  0  0  0  0  0  0  0  0  0  0  0
  -50.4135   59.7111   65.0817 C   0  0  0  0  0  0  0  0  0  0  0  0
  -50.8272   59.7673   63.8325 C   0  0  0  0  0  0  0  0  0  0  0  0
  -50.1180   59.2524   62.6223 C   0  0  0  0  0  0  0  0  0  0  0  0
  -50.7554   57.9425   62.1559 C   0  0  0  0  0  0  0  0  0  0  0  0
  -50.8375   57.7581   60.6477 C   0  0  0  0  0  0  0  0  0  0  0  0
  -49.6592   58.3242   59.8644 C   0  0  0  0  0  0  0  0  0  0  0  0
  -49.0978   57.3585   58.8260 C   0  0  0  0  0  0  0  0  0  0  0  0
  -48.3096   56.2048   59.4255 C   0  0  0  0  0  0  0  0  0  0  0  0
  -47.0229   55.8469   58.6969 C   0  0  0  0  0  0  0  0  0  0  0  0
  -47.1082   56.0824   57.2201 C   0  0  0  0  0  0  0  0  0  0  0  0
  -40.9186   60.7626   65.6011 O   0  0  0  0  0  0  0  0  0  0  0  0
  -39.7342   59.9882   65.8915 C   0  0  0  0  0  0  0  0  0  0  0  0
  -38.8233   59.8862   64.6865 C   0  0  0  0  0  0  0  0  0  0  0  0
  -39.5319   59.3834   63.5458 O   0  0  0  0  0  0  0  0  0  0  0  0
  -40.2350   60.0055   63.3018 H   0  0  0  0  0  0  0  0  0  0  0  0
  -38.1763   61.2054   64.3350 C   0  0  0  0  0  0  0  0  0  0  0  0
  -37.7598   61.9324   65.5162 O   0  0  0  0  0  0  0  0  0  0  0  0
  -36.3328   62.1071   66.2299 P   0  0  0  0  0  0  0  0  0  0  0  0
  -35.4135   60.9901   65.7389 O   0  0  0  0  0  0  0  0  0  0  0  0
  -36.5127   61.9606   67.6909 O   0  0  0  0  0  0  0  0  0  0  0  0
  -36.9166   61.0996   67.8822 H   0  0  0  0  0  0  0  0  0  0  0  0
  -35.6490   63.5568   65.8613 O   0  0  0  0  0  0  0  0  0  0  0  0
  -34.5352   64.1765   66.5599 C   0  0  0  0  0  0  0  0  0  0  0  0
  -33.2265   63.7138   65.9688 C   0  0  0  0  0  0  0  0  0  0  0  0
  -32.4423   64.7406   65.1730 N   0  0  0  0  0  0  0  0  0  0  0  0
  -33.1523   65.0697   63.8992 C   0  0  0  0  0  0  0  0  0  0  0  0
  -31.1012   64.1698   64.8477 C   0  0  0  0  0  0  0  0  0  0  0  0
  -32.2664   66.0018   65.9698 C   0  0  0  0  0  0  0  0  0  0  0  0
 34 33  1  0  0  0
 34 35  1  0  0  0
 34 36  1  0  0  0
 34 37  1  0  0  0
 22 23  1  0  0  0
 22 25  1  0  0  0
 22 21  1  0  0  0
 23 24  1  0  0  0
 27 26  1  0  0  0
 27 28  2  0  0  0
 27 31  1  0  0  0
 27 29  1  0  0  0
 25 26  1  0  0  0
 32 33  1  0  0  0
 32 31  1  0  0  0
 29 30  1  0  0  0
 20 21  1  0  0  0
 20  2  1  0  0  0
  1  2  2  0  0  0
  2  3  1  0  0  0
  3  4  1  0  0  0
  4  5  1  0  0  0
  5  6  1  0  0  0
  6  7  1  0  0  0
  7  8  1  0  0  0
  8  9  1  0  0  0
  9 10  1  0  0  0
 10 11  2  0  0  0
 11 12  1  0  0  0
 12 13  1  0  0  0
 13 14  1  0  0  0
 14 15  1  0  0  0
 15 16  1  0  0  0
 16 17  1  0  0  0
 17 18  1  0  0  0
 18 19  1  0  0  0
M  CHG 1  28  -1
M  END
> <minimizedAffinity>
-8.05950

> <CNNscore>
0.7413915396

> <CNNaffinity>
6.2595014572

> <CNN_VS>
4.6407413483

> <CNNaffinity_variance>
0.4345592856

$$$$
/media/chris/experiments/cd1a-new-docking/inputs/ligands/4x6e_ligand.pdb


 37 36  0  0  0  0  0  0  0  0999 V2000
  -42.4014   55.9389   64.5333 O   0  0  0  0  0  0  0  0  0  0  0  0
  -41.7236   56.9119   64.7534 C   0  0  0  0  0  0  0  0  0  0  0  0
  -42.0420   57.9821   65.7519 C   0  0  0  0  0  0  0  0  0  0  0  0
  -43.4264   58.5894   65.5588 C   0  0  0  0  0  0  0  0  0  0  0  0
  -44.4121   58.2636   66.6677 C   0  0  0  0  0  0  0  0  0  0  0  0
  -45.4629   57.2451   66.2622 C   0  0  0  0  0  0  0  0  0  0  0  0
  -46.8759   57.6820   66.6091 C   0  0  0  0  0  0  0  0  0  0  0  0
  -47.5472   58.4083   65.4649 C   0  0  0  0  0  0  0  0  0  0  0  0
  -49.0038   58.0488   65.2521 C   0  0  0  0  0  0  0  0  0  0  0  0
  -49.9286   59.2017   65.3399 C   0  0  0  0  0  0  0  0  0  0  0  0
  -50.3686   59.9220   64.3288 C   0  0  0  0  0  0  0  0  0  0  0  0
  -50.0725   59.7182   62.8785 C   0  0  0  0  0  0  0  0  0  0  0  0
  -51.0987   58.7674   62.2600 C   0  0  0  0  0  0  0  0  0  0  0  0
  -50.5446   57.7846   61.2390 C   0  0  0  0  0  0  0  0  0  0  0  0
  -49.9123   58.4226   60.0079 C   0  0  0  0  0  0  0  0  0  0  0  0
  -49.3966   57.4078   58.9929 C   0  0  0  0  0  0  0  0  0  0  0  0
  -48.5185   56.3256   59.6007 C   0  0  0  0  0  0  0  0  0  0  0  0
  -47.3128   55.9201   58.7661 C   0  0  0  0  0  0  0  0  0  0  0  0
  -47.4725   56.2565   57.3152 C   0  0  0  0  0  0  0  0  0  0  0  0
  -40.5665   57.1759   64.1392 O   0  0  0  0  0  0  0  0  0  0  0  0
  -39.8015   58.3107   64.6017 C   0  0  0  0  0  0  0  0  0  0  0  0
  -38.3300   58.1628   64.2775 C   0  0  0  0  0  0  0  0  0  0  0  0
  -37.6368   57.4777   65.3294 O   0  0  0  0  0  0  0  0  0  0  0  0
  -37.9872   56.5772   65.4146 H   0  0  0  0  0  0  0  0  0  0  0  0
  -38.0935   57.4454   62.9691 C   0  0  0  0  0  0  0  0  0  0  0  0
  -38.0345   58.3666   61.8531 O   0  0  0  0  0  0  0  0  0  0  0  0
  -39.0838   58.7272   60.6935 P   0  0  0  0  0  0  0  0  0  0  0  0
  -38.5466   58.1741   59.3746 O   0  0  0  0  0  0  0  0  0  0  0  0
  -39.1796   60.1992   60.5823 O   0  0  0  0  0  0  0  0  0  0  0  0
  -38.2993   60.5684   60.4095 H   0  0  0  0  0  0  0  0  0  0  0  0
  -40.5580   58.0598   60.9870 O   0  0  0  0  0  0  0  0  0  0  0  0
  -41.8439   58.6607   60.6734 C   0  0  0  0  0  0  0  0  0  0  0  0
  -42.5630   59.0456   61.9425 C   0  0  0  0  0  0  0  0  0  0  0  0
  -42.6506   60.5294   62.2478 N   0  0  0  0  0  0  0  0  0  0  0  0
  -43.9503   60.8518   62.9123 C   0  0  0  0  0  0  0  0  0  0  0  0
  -42.5608   61.2870   60.9638 C   0  0  0  0  0  0  0  0  0  0  0  0
  -41.5267   60.9481   63.1522 C   0  0  0  0  0  0  0  0  0  0  0  0
 34 33  1  0  0  0
 34 35  1  0  0  0
 34 36  1  0  0  0
 34 37  1  0  0  0
 22 23  1  0  0  0
 22 25  1  0  0  0
 22 21  1  0  0  0
 23 24  1  0  0  0
 27 26  1  0  0  0
 27 28  2  0  0  0
 27 31  1  0  0  0
 27 29  1  0  0  0
 25 26  1  0  0  0
 32 33  1  0  0  0
 32 31  1  0  0  0
 29 30  1  0  0  0
 20 21  1  0  0  0
 20  2  1  0  0  0
  1  2  2  0  0  0
  2  3  1  0  0  0
  3  4  1  0  0  0
  4  5  1  0  0  0
  5  6  1  0  0  0
  6  7  1  0  0  0
  7  8  1  0  0  0
  8  9  1  0  0  0
  9 10  1  0  0  0
 10 11  2  0  0  0
 11 12  1  0  0  0
 12 13  1  0  0  0
 13 14  1  0  0  0
 14 15  1  0  0  0
 15 16  1  0  0  0
 16 17  1  0  0  0
 17 18  1  0  0  0
 18 19  1  0  0  0
M  CHG 1  28  -1
M  END
> <minimizedAffinity>
-7.70764

> <CNNscore>
0.7013975382

> <CNNaffinity>
7.2028512955

> <CNN_VS>
5.0520620346

> <CNNaffinity_variance>
0.3624272943

$$$$
/media/chris/experiments/cd1a-new-docking/inputs/ligands/4x6e_ligand.pdb


 37 36  0  0  0  0  0  0  0  0999 V2000
  -41.8755   55.3473   64.6983 O   0  0  0  0  0  0  0  0  0  0  0  0
  -42.3587   56.4482   64.7934 C   0  0  0  0  0  0  0  0  0  0  0  0
  -43.7842   56.7414   65.1477 C   0  0  0  0  0  0  0  0  0  0  0  0
  -44.1742   58.1953   64.9098 C   0  0  0  0  0  0  0  0  0  0  0  0
  -45.6706   58.4546   64.9430 C   0  0  0  0  0  0  0  0  0  0  0  0
  -46.3061   58.1551   66.2892 C   0  0  0  0  0  0  0  0  0  0  0  0
  -47.7737   57.7783   66.1805 C   0  0  0  0  0  0  0  0  0  0  0  0
  -48.6664   58.9907   66.0372 C   0  0  0  0  0  0  0  0  0  0  0  0
  -50.0655   58.6935   65.5368 C   0  0  0  0  0  0  0  0  0  0  0  0
  -50.6669   59.7880   64.7415 C   0  0  0  0  0  0  0  0  0  0  0  0
  -50.6093   59.9174   63.4321 C   0  0  0  0  0  0  0  0  0  0  0  0
  -49.9688   58.9813   62.4594 C   0  0  0  0  0  0  0  0  0  0  0  0
  -50.9951   57.9680   61.9499 C   0  0  0  0  0  0  0  0  0  0  0  0
  -50.7022   57.3764   60.5789 C   0  0  0  0  0  0  0  0  0  0  0  0
  -49.8871   58.2704   59.6523 C   0  0  0  0  0  0  0  0  0  0  0  0
  -48.9520   57.4979   58.7276 C   0  0  0  0  0  0  0  0  0  0  0  0
  -48.2897   56.2995   59.3886 C   0  0  0  0  0  0  0  0  0  0  0  0
  -47.0625   55.7562   58.6720 C   0  0  0  0  0  0  0  0  0  0  0  0
  -47.1295   55.9402   57.1870 C   0  0  0  0  0  0  0  0  0  0  0  0
  -41.6811   57.5848   64.6063 O   0  0  0  0  0  0  0  0  0  0  0  0
  -40.6271   57.5863   63.6185 C   0  0  0  0  0  0  0  0  0  0  0  0
  -40.3842   58.9732   63.0620 C   0  0  0  0  0  0  0  0  0  0  0  0
  -41.1119   59.9611   63.8042 O   0  0  0  0  0  0  0  0  0  0  0  0
  -40.7931   59.9772   64.7202 H   0  0  0  0  0  0  0  0  0  0  0  0
  -38.9190   59.3406   63.0385 C   0  0  0  0  0  0  0  0  0  0  0  0
  -38.6400   60.4946   63.8680 O   0  0  0  0  0  0  0  0  0  0  0  0
  -37.3717   60.8992   64.7645 P   0  0  0  0  0  0  0  0  0  0  0  0
  -36.7352   59.6168   65.2976 O   0  0  0  0  0  0  0  0  0  0  0  0
  -37.8411   61.7044   65.9133 O   0  0  0  0  0  0  0  0  0  0  0  0
  -38.4998   61.1988   66.4149 H   0  0  0  0  0  0  0  0  0  0  0  0
  -36.2510   61.7215   63.8853 O   0  0  0  0  0  0  0  0  0  0  0  0
  -34.8087   61.6209   64.0345 C   0  0  0  0  0  0  0  0  0  0  0  0
  -34.2861   62.7808   64.8455 C   0  0  0  0  0  0  0  0  0  0  0  0
  -33.1907   63.6144   64.2070 N   0  0  0  0  0  0  0  0  0  0  0  0
  -33.7490   64.8962   63.6775 C   0  0  0  0  0  0  0  0  0  0  0  0
  -32.5985   62.8391   63.0763 C   0  0  0  0  0  0  0  0  0  0  0  0
  -32.1176   63.9305   65.2095 C   0  0  0  0  0  0  0  0  0  0  0  0
 34 33  1  0  0  0
 34 35  1  0  0  0
 34 36  1  0  0  0
 34 37  1  0  0  0
 22 23  1  0  0  0
 22 25  1  0  0  0
 22 21  1  0  0  0
 23 24  1  0  0  0
 27 26  1  0  0  0
 27 28  2  0  0  0
 27 31  1  0  0  0
 27 29  1  0  0  0
 25 26  1  0  0  0
 32 33  1  0  0  0
 32 31  1  0  0  0
 29 30  1  0  0  0
 20 21  1  0  0  0
 20  2  1  0  0  0
  1  2  2  0  0  0
  2  3  1  0  0  0
  3  4  1  0  0  0
  4  5  1  0  0  0
  5  6  1  0  0  0
  6  7  1  0  0  0
  7  8  1  0  0  0
  8  9  1  0  0  0
  9 10  1  0  0  0
 10 11  2  0  0  0
 11 12  1  0  0  0
 12 13  1  0  0  0
 13 14  1  0  0  0
 14 15  1  0  0  0
 15 16  1  0  0  0
 16 17  1  0  0  0
 17 18  1  0  0  0
 18 19  1  0  0  0
M  CHG 1  28  -1
M  END
> <minimizedAffinity>
-7.99659

> <CNNscore>
0.6783190370

> <CNNaffinity>
6.5080657005

> <CNN_VS>
4.4145450592

> <CNNaffinity_variance>
0.5654355288

$$$$
/media/chris/experiments/cd1a-new-docking/inputs/ligands/4x6e_ligand.pdb


 37 36  0  0  0  0  0  0  0  0999 V2000
  -42.9601   57.2395   66.3812 O   0  0  0  0  0  0  0  0  0  0  0  0
  -42.5030   58.3261   66.1264 C   0  0  0  0  0  0  0  0  0  0  0  0
  -43.2710   59.6121   66.1303 C   0  0  0  0  0  0  0  0  0  0  0  0
  -44.7757   59.4112   66.2650 C   0  0  0  0  0  0  0  0  0  0  0  0
  -45.5827   59.9213   65.0835 C   0  0  0  0  0  0  0  0  0  0  0  0
  -46.5791   58.9075   64.5494 C   0  0  0  0  0  0  0  0  0  0  0  0
  -47.0901   57.9588   65.6201 C   0  0  0  0  0  0  0  0  0  0  0  0
  -48.5963   58.0011   65.7503 C   0  0  0  0  0  0  0  0  0  0  0  0
  -49.1774   59.3858   65.9527 C   0  0  0  0  0  0  0  0  0  0  0  0
  -50.5341   59.5595   65.3857 C   0  0  0  0  0  0  0  0  0  0  0  0
  -50.8186   59.9257   64.1529 C   0  0  0  0  0  0  0  0  0  0  0  0
  -49.8522   60.2055   63.0482 C   0  0  0  0  0  0  0  0  0  0  0  0
  -49.5803   58.9291   62.2505 C   0  0  0  0  0  0  0  0  0  0  0  0
  -50.8008   58.0669   61.9637 C   0  0  0  0  0  0  0  0  0  0  0  0
  -50.8297   57.4313   60.5790 C   0  0  0  0  0  0  0  0  0  0  0  0
  -49.7586   57.9726   59.6379 C   0  0  0  0  0  0  0  0  0  0  0  0
  -48.7855   56.9139   59.1440 C   0  0  0  0  0  0  0  0  0  0  0  0
  -48.1590   57.1883   57.7851 C   0  0  0  0  0  0  0  0  0  0  0  0
  -47.2835   56.0681   57.3135 C   0  0  0  0  0  0  0  0  0  0  0  0
  -41.2235   58.5477   65.8107 O   0  0  0  0  0  0  0  0  0  0  0  0
  -40.6640   59.8402   66.1320 C   0  0  0  0  0  0  0  0  0  0  0  0
  -39.3480   60.0725   65.4203 C   0  0  0  0  0  0  0  0  0  0  0  0
  -38.5831   61.0955   66.0721 O   0  0  0  0  0  0  0  0  0  0  0  0
  -38.3580   60.8079   66.9707 H   0  0  0  0  0  0  0  0  0  0  0  0
  -38.5170   58.8154   65.3123 C   0  0  0  0  0  0  0  0  0  0  0  0
  -37.1507   59.1046   64.9288 O   0  0  0  0  0  0  0  0  0  0  0  0
  -36.3970   59.0748   63.5121 P   0  0  0  0  0  0  0  0  0  0  0  0
  -35.7715   57.6925   63.3331 O   0  0  0  0  0  0  0  0  0  0  0  0
  -35.3142   60.0825   63.5302 O   0  0  0  0  0  0  0  0  0  0  0  0
  -34.7141   59.8991   64.2700 H   0  0  0  0  0  0  0  0  0  0  0  0
  -37.4393   59.3498   62.2700 O   0  0  0  0  0  0  0  0  0  0  0  0
  -37.8623   58.3736   61.2796 C   0  0  0  0  0  0  0  0  0  0  0  0
  -38.7635   57.3436   61.9143 C   0  0  0  0  0  0  0  0  0  0  0  0
  -40.2565   57.5501   61.7389 N   0  0  0  0  0  0  0  0  0  0  0  0
  -40.6285   58.9663   62.0405 C   0  0  0  0  0  0  0  0  0  0  0  0
  -40.9778   56.6468   62.6845 C   0  0  0  0  0  0  0  0  0  0  0  0
  -40.6706   57.2295   60.3310 C   0  0  0  0  0  0  0  0  0  0  0  0
 34 33  1  0  0  0
 34 35  1  0  0  0
 34 36  1  0  0  0
 34 37  1  0  0  0
 22 23  1  0  0  0
 22 25  1  0  0  0
 22 21  1  0  0  0
 23 24  1  0  0  0
 27 26  1  0  0  0
 27 28  2  0  0  0
 27 31  1  0  0  0
 27 29  1  0  0  0
 25 26  1  0  0  0
 32 33  1  0  0  0
 32 31  1  0  0  0
 29 30  1  0  0  0
 20 21  1  0  0  0
 20  2  1  0  0  0
  1  2  2  0  0  0
  2  3  1  0  0  0
  3  4  1  0  0  0
  4  5  1  0  0  0
  5  6  1  0  0  0
  6  7  1  0  0  0
  7  8  1  0  0  0
  8  9  1  0  0  0
  9 10  1  0  0  0
 10 11  2  0  0  0
 11 12  1  0  0  0
 12 13  1  0  0  0
 13 14  1  0  0  0
 14 15  1  0  0  0
 15 16  1  0  0  0
 16 17  1  0  0  0
 17 18  1  0  0  0
 18 19  1  0  0  0
M  CHG 1  28  -1
M  END
> <minimizedAffinity>
-8.14370

> <CNNscore>
0.6444426179

> <CNNaffinity>
6.9026842117

> <CNN_VS>
4.4483838081

> <CNNaffinity_variance>
0.3246613145

$$$$
/media/chris/experiments/cd1a-new-docking/inputs/ligands/4x6e_ligand.pdb


 37 36  0  0  0  0  0  0  0  0999 V2000
  -40.2230   58.8469   65.1834 O   0  0  0  0  0  0  0  0  0  0  0  0
  -40.7890   59.9048   65.3064 C   0  0  0  0  0  0  0  0  0  0  0  0
  -41.8117   60.2241   66.3532 C   0  0  0  0  0  0  0  0  0  0  0  0
  -42.2798   58.9978   67.1276 C   0  0  0  0  0  0  0  0  0  0  0  0
  -43.5681   58.3840   66.6070 C   0  0  0  0  0  0  0  0  0  0  0  0
  -44.6789   59.3979   66.3970 C   0  0  0  0  0  0  0  0  0  0  0  0
  -45.1488   59.4709   64.9543 C   0  0  0  0  0  0  0  0  0  0  0  0
  -46.4268   58.6941   64.7290 C   0  0  0  0  0  0  0  0  0  0  0  0
  -47.5332   58.9906   65.7210 C   0  0  0  0  0  0  0  0  0  0  0  0
  -48.6485   58.0172   65.6895 C   0  0  0  0  0  0  0  0  0  0  0  0
  -49.9223   58.3026   65.5149 C   0  0  0  0  0  0  0  0  0  0  0  0
  -50.5208   59.6497   65.2707 C   0  0  0  0  0  0  0  0  0  0  0  0
  -50.9531   59.7769   63.8090 C   0  0  0  0  0  0  0  0  0  0  0  0
  -50.7438   58.5339   62.9567 C   0  0  0  0  0  0  0  0  0  0  0  0
  -50.4316   58.8037   61.4897 C   0  0  0  0  0  0  0  0  0  0  0  0
  -49.9192   57.5781   60.7405 C   0  0  0  0  0  0  0  0  0  0  0  0
  -49.9017   57.7469   59.2296 C   0  0  0  0  0  0  0  0  0  0  0  0
  -48.5896   57.3865   58.5491 C   0  0  0  0  0  0  0  0  0  0  0  0
  -48.0570   56.0560   58.9845 C   0  0  0  0  0  0  0  0  0  0  0  0
  -40.5752   60.9666   64.5236 O   0  0  0  0  0  0  0  0  0  0  0  0
  -40.8206   60.8205   63.1075 C   0  0  0  0  0  0  0  0  0  0  0  0
  -42.2350   60.3574   62.8299 C   0  0  0  0  0  0  0  0  0  0  0  0
  -43.1511   61.4606   62.8461 O   0  0  0  0  0  0  0  0  0  0  0  0
  -42.9243   62.0797   62.1347 H   0  0  0  0  0  0  0  0  0  0  0  0
  -42.3574   59.6218   61.5161 C   0  0  0  0  0  0  0  0  0  0  0  0
  -42.1606   58.1960   61.6771 O   0  0  0  0  0  0  0  0  0  0  0  0
  -40.8984   57.2424   61.4058 P   0  0  0  0  0  0  0  0  0  0  0  0
  -40.7609   57.0501   59.8965 O   0  0  0  0  0  0  0  0  0  0  0  0
  -41.1581   55.9249   62.0263 O   0  0  0  0  0  0  0  0  0  0  0  0
  -41.9812   55.5559   61.6694 H   0  0  0  0  0  0  0  0  0  0  0  0
  -39.5086   57.9044   61.9847 O   0  0  0  0  0  0  0  0  0  0  0  0
  -38.2880   57.1821   62.3029 C   0  0  0  0  0  0  0  0  0  0  0  0
  -37.0917   58.0898   62.1568 C   0  0  0  0  0  0  0  0  0  0  0  0
  -36.3223   58.4055   63.4260 N   0  0  0  0  0  0  0  0  0  0  0  0
  -36.5967   59.8064   63.8701 C   0  0  0  0  0  0  0  0  0  0  0  0
  -34.8622   58.2618   63.1473 C   0  0  0  0  0  0  0  0  0  0  0  0
  -36.7139   57.4622   64.5275 C   0  0  0  0  0  0  0  0  0  0  0  0
 34 33  1  0  0  0
 34 35  1  0  0  0
 34 36  1  0  0  0
 34 37  1  0  0  0
 22 23  1  0  0  0
 22 25  1  0  0  0
 22 21  1  0  0  0
 23 24  1  0  0  0
 27 26  1  0  0  0
 27 28  2  0  0  0
 27 31  1  0  0  0
 27 29  1  0  0  0
 25 26  1  0  0  0
 32 33  1  0  0  0
 32 31  1  0  0  0
 29 30  1  0  0  0
 20 21  1  0  0  0
 20  2  1  0  0  0
  1  2  2  0  0  0
  2  3  1  0  0  0
  3  4  1  0  0  0
  4  5  1  0  0  0
  5  6  1  0  0  0
  6  7  1  0  0  0
  7  8  1  0  0  0
  8  9  1  0  0  0
  9 10  1  0  0  0
 10 11  2  0  0  0
 11 12  1  0  0  0
 12 13  1  0  0  0
 13 14  1  0  0  0
 14 15  1  0  0  0
 15 16  1  0  0  0
 16 17  1  0  0  0
 17 18  1  0  0  0
 18 19  1  0  0  0
M  CHG 1  28  -1
M  END
> <minimizedAffinity>
-7.70344

> <CNNscore>
0.6195734739

> <CNNaffinity>
6.8568930626

> <CNN_VS>
4.2483491898

> <CNNaffinity_variance>
0.3337016702

$$$$
/media/chris/experiments/cd1a-new-docking/inputs/ligands/4x6e_ligand.pdb


 37 36  0  0  0  0  0  0  0  0999 V2000
  -41.2795   60.8988   65.8165 O   0  0  0  0  0  0  0  0  0  0  0  0
  -41.2746   59.7737   66.2511 C   0  0  0  0  0  0  0  0  0  0  0  0
  -42.2898   59.2044   67.1939 C   0  0  0  0  0  0  0  0  0  0  0  0
  -43.5158   58.6405   66.4857 C   0  0  0  0  0  0  0  0  0  0  0  0
  -44.6762   59.6144   66.3741 C   0  0  0  0  0  0  0  0  0  0  0  0
  -45.7009   59.2161   65.3266 C   0  0  0  0  0  0  0  0  0  0  0  0
  -46.0087   60.3334   64.3445 C   0  0  0  0  0  0  0  0  0  0  0  0
  -47.4827   60.6700   64.3047 C   0  0  0  0  0  0  0  0  0  0  0  0
  -48.4066   59.4702   64.2486 C   0  0  0  0  0  0  0  0  0  0  0  0
  -49.8038   59.7660   64.6390 C   0  0  0  0  0  0  0  0  0  0  0  0
  -50.8423   59.8109   63.8302 C   0  0  0  0  0  0  0  0  0  0  0  0
  -50.8554   59.5368   62.3614 C   0  0  0  0  0  0  0  0  0  0  0  0
  -50.9307   58.0304   62.1074 C   0  0  0  0  0  0  0  0  0  0  0  0
  -50.8299   57.6092   60.6487 C   0  0  0  0  0  0  0  0  0  0  0  0
  -49.7852   58.3601   59.8321 C   0  0  0  0  0  0  0  0  0  0  0  0
  -49.0226   57.4721   58.8543 C   0  0  0  0  0  0  0  0  0  0  0  0
  -48.3071   56.3055   59.5166 C   0  0  0  0  0  0  0  0  0  0  0  0
  -47.0597   55.8137   58.7978 C   0  0  0  0  0  0  0  0  0  0  0  0
  -47.1797   55.8949   57.3070 C   0  0  0  0  0  0  0  0  0  0  0  0
  -40.3569   58.8529   65.9417 O   0  0  0  0  0  0  0  0  0  0  0  0
  -40.4138   58.2602   64.6255 C   0  0  0  0  0  0  0  0  0  0  0  0
  -39.2548   58.7077   63.7602 C   0  0  0  0  0  0  0  0  0  0  0  0
  -38.5598   57.5818   63.2071 O   0  0  0  0  0  0  0  0  0  0  0  0
  -39.1574   57.0872   62.6247 H   0  0  0  0  0  0  0  0  0  0  0  0
  -39.6862   59.6299   62.6441 C   0  0  0  0  0  0  0  0  0  0  0  0
  -39.0431   60.9243   62.7364 O   0  0  0  0  0  0  0  0  0  0  0  0
  -37.7607   61.4375   63.5537 P   0  0  0  0  0  0  0  0  0  0  0  0
  -36.6742   60.3679   63.4581 O   0  0  0  0  0  0  0  0  0  0  0  0
  -38.1383   61.5991   64.9749 O   0  0  0  0  0  0  0  0  0  0  0  0
  -38.4795   60.7577   65.3165 H   0  0  0  0  0  0  0  0  0  0  0  0
  -37.1757   62.8443   62.9342 O   0  0  0  0  0  0  0  0  0  0  0  0
  -36.6188   63.9470   63.7002 C   0  0  0  0  0  0  0  0  0  0  0  0
  -35.1805   63.6614   64.0552 C   0  0  0  0  0  0  0  0  0  0  0  0
  -34.8685   63.4891   65.5302 N   0  0  0  0  0  0  0  0  0  0  0  0
  -33.7370   64.3789   65.9338 C   0  0  0  0  0  0  0  0  0  0  0  0
  -34.4789   62.0679   65.7728 C   0  0  0  0  0  0  0  0  0  0  0  0
  -36.0710   63.8249   66.3654 C   0  0  0  0  0  0  0  0  0  0  0  0
 34 33  1  0  0  0
 34 35  1  0  0  0
 34 36  1  0  0  0
 34 37  1  0  0  0
 22 23  1  0  0  0
 22 25  1  0  0  0
 22 21  1  0  0  0
 23 24  1  0  0  0
 27 26  1  0  0  0
 27 28  2  0  0  0
 27 31  1  0  0  0
 27 29  1  0  0  0
 25 26  1  0  0  0
 32 33  1  0  0  0
 32 31  1  0  0  0
 29 30  1  0  0  0
 20 21  1  0  0  0
 20  2  1  0  0  0
  1  2  2  0  0  0
  2  3  1  0  0  0
  3  4  1  0  0  0
  4  5  1  0  0  0
  5  6  1  0  0  0
  6  7  1  0  0  0
  7  8  1  0  0  0
  8  9  1  0  0  0
  9 10  1  0  0  0
 10 11  2  0  0  0
 11 12  1  0  0  0
 12 13  1  0  0  0
 13 14  1  0  0  0
 14 15  1  0  0  0
 15 16  1  0  0  0
 16 17  1  0  0  0
 17 18  1  0  0  0
 18 19  1  0  0  0
M  CHG 1  28  -1
M  END
> <minimizedAffinity>
-8.26081

> <CNNscore>
0.6128708720

> <CNNaffinity>
6.3081474304

> <CNN_VS>
3.8660798073

> <CNNaffinity_variance>
0.1348983198

$$$$
/media/chris/experiments/cd1a-new-docking/inputs/ligands/4x6e_ligand.pdb


 37 36  0  0  0  0  0  0  0  0999 V2000
  -40.3940   58.0918   63.7792 O   0  0  0  0  0  0  0  0  0  0  0  0
  -39.6044   58.6338   64.5123 C   0  0  0  0  0  0  0  0  0  0  0  0
  -39.9442   59.3061   65.8070 C   0  0  0  0  0  0  0  0  0  0  0  0
  -41.4131   59.6985   65.9113 C   0  0  0  0  0  0  0  0  0  0  0  0
  -42.1895   58.9374   66.9722 C   0  0  0  0  0  0  0  0  0  0  0  0
  -42.7927   57.6394   66.4650 C   0  0  0  0  0  0  0  0  0  0  0  0
  -44.3115   57.6401   66.4964 C   0  0  0  0  0  0  0  0  0  0  0  0
  -44.8735   58.9694   66.9487 C   0  0  0  0  0  0  0  0  0  0  0  0
  -46.3724   59.1153   66.7803 C   0  0  0  0  0  0  0  0  0  0  0  0
  -47.0317   57.9275   66.1917 C   0  0  0  0  0  0  0  0  0  0  0  0
  -48.2898   57.8481   65.8101 C   0  0  0  0  0  0  0  0  0  0  0  0
  -49.3143   58.9352   65.8447 C   0  0  0  0  0  0  0  0  0  0  0  0
  -50.4541   58.6157   64.8759 C   0  0  0  0  0  0  0  0  0  0  0  0
  -50.9269   59.7806   64.0186 C   0  0  0  0  0  0  0  0  0  0  0  0
  -51.1667   59.4451   62.5516 C   0  0  0  0  0  0  0  0  0  0  0  0
  -50.6754   58.0564   62.1562 C   0  0  0  0  0  0  0  0  0  0  0  0
  -50.9448   57.7025   60.7022 C   0  0  0  0  0  0  0  0  0  0  0  0
  -49.7079   57.5428   59.8309 C   0  0  0  0  0  0  0  0  0  0  0  0
  -49.0176   56.2299   60.0392 C   0  0  0  0  0  0  0  0  0  0  0  0
  -38.2902   58.7046   64.2805 O   0  0  0  0  0  0  0  0  0  0  0  0
  -37.4282   57.7997   65.0051 C   0  0  0  0  0  0  0  0  0  0  0  0
  -36.2763   57.3184   64.1486 C   0  0  0  0  0  0  0  0  0  0  0  0
  -36.4561   57.7038   62.7791 O   0  0  0  0  0  0  0  0  0  0  0  0
  -36.4569   58.6715   62.7129 H   0  0  0  0  0  0  0  0  0  0  0  0
  -34.9387   57.8197   64.6403 C   0  0  0  0  0  0  0  0  0  0  0  0
  -34.4836   58.9686   63.8851 O   0  0  0  0  0  0  0  0  0  0  0  0
  -34.7293   60.5446   64.0633 P   0  0  0  0  0  0  0  0  0  0  0  0
  -34.5340   60.8946   65.5375 O   0  0  0  0  0  0  0  0  0  0  0  0
  -36.1269   60.8517   63.6879 O   0  0  0  0  0  0  0  0  0  0  0  0
  -36.7314   60.3215   64.2306 H   0  0  0  0  0  0  0  0  0  0  0  0
  -33.6694   61.4244   63.1647 O   0  0  0  0  0  0  0  0  0  0  0  0
  -32.6968   62.3735   63.6804 C   0  0  0  0  0  0  0  0  0  0  0  0
  -33.1812   63.7859   63.4644 C   0  0  0  0  0  0  0  0  0  0  0  0
  -33.1281   64.7112   64.6659 N   0  0  0  0  0  0  0  0  0  0  0  0
  -31.8098   64.5920   65.3609 C   0  0  0  0  0  0  0  0  0  0  0  0
  -34.2141   64.3238   65.6151 C   0  0  0  0  0  0  0  0  0  0  0  0
  -33.3246   66.1384   64.2405 C   0  0  0  0  0  0  0  0  0  0  0  0
 34 33  1  0  0  0
 34 35  1  0  0  0
 34 36  1  0  0  0
 34 37  1  0  0  0
 22 23  1  0  0  0
 22 25  1  0  0  0
 22 21  1  0  0  0
 23 24  1  0  0  0
 27 26  1  0  0  0
 27 28  2  0  0  0
 27 31  1  0  0  0
 27 29  1  0  0  0
 25 26  1  0  0  0
 32 33  1  0  0  0
 32 31  1  0  0  0
 29 30  1  0  0  0
 20 21  1  0  0  0
 20  2  1  0  0  0
  1  2  2  0  0  0
  2  3  1  0  0  0
  3  4  1  0  0  0
  4  5  1  0  0  0
  5  6  1  0  0  0
  6  7  1  0  0  0
  7  8  1  0  0  0
  8  9  1  0  0  0
  9 10  1  0  0  0
 10 11  2  0  0  0
 11 12  1  0  0  0
 12 13  1  0  0  0
 13 14  1  0  0  0
 14 15  1  0  0  0
 15 16  1  0  0  0
 16 17  1  0  0  0
 17 18  1  0  0  0
 18 19  1  0  0  0
M  CHG 1  28  -1
M  END
> <minimizedAffinity>
-7.69629

> <CNNscore>
0.5778754354

> <CNNaffinity>
6.1786317825

> <CNN_VS>
3.5704796314

> <CNNaffinity_variance>
0.3398975134

$$$$
