/media/chris/experiments/cd1a-new-docking/inputs/ligands/4x6e_ligand.pdb


 37 36  0  0  0  0  0  0  0  0999 V2000
  -42.3428   59.6555   66.5718 O   0  0  0  0  0  0  0  0  0  0  0  0
  -42.2590   58.5359   66.1313 C   0  0  0  0  0  0  0  0  0  0  0  0
  -43.0957   57.3703   66.5616 C   0  0  0  0  0  0  0  0  0  0  0  0
  -44.4163   57.2695   65.8076 C   0  0  0  0  0  0  0  0  0  0  0  0
  -45.6451   57.5325   66.6612 C   0  0  0  0  0  0  0  0  0  0  0  0
  -45.9087   59.0084   66.9026 C   0  0  0  0  0  0  0  0  0  0  0  0
  -45.9102   59.8266   65.6227 C   0  0  0  0  0  0  0  0  0  0  0  0
  -47.3107   60.1522   65.1535 C   0  0  0  0  0  0  0  0  0  0  0  0
  -48.4063   59.8176   66.1453 C   0  0  0  0  0  0  0  0  0  0  0  0
  -49.2288   58.6472   65.7635 C   0  0  0  0  0  0  0  0  0  0  0  0
  -50.3074   58.6704   65.0078 C   0  0  0  0  0  0  0  0  0  0  0  0
  -50.9157   59.8598   64.3388 C   0  0  0  0  0  0  0  0  0  0  0  0
  -50.7964   59.7279   62.8196 C   0  0  0  0  0  0  0  0  0  0  0  0
  -50.7250   58.3023   62.2924 C   0  0  0  0  0  0  0  0  0  0  0  0
  -49.5079   57.9951   61.4284 C   0  0  0  0  0  0  0  0  0  0  0  0
  -49.8584   57.6351   59.9884 C   0  0  0  0  0  0  0  0  0  0  0  0
  -48.8121   56.7726   59.3007 C   0  0  0  0  0  0  0  0  0  0  0  0
  -48.3117   57.2975   57.9634 C   0  0  0  0  0  0  0  0  0  0  0  0
  -47.6021   56.2518   57.1591 C   0  0  0  0  0  0  0  0  0  0  0  0
  -41.4041   58.1678   65.1724 O   0  0  0  0  0  0  0  0  0  0  0  0
  -41.5248   58.8041   63.8811 C   0  0  0  0  0  0  0  0  0  0  0  0
  -40.4538   59.8537   63.6726 C   0  0  0  0  0  0  0  0  0  0  0  0
  -40.8375   61.1051   64.2582 O   0  0  0  0  0  0  0  0  0  0  0  0
  -40.9288   60.9984   65.2181 H   0  0  0  0  0  0  0  0  0  0  0  0
  -39.1122   59.4311   64.2238 C   0  0  0  0  0  0  0  0  0  0  0  0
  -38.0796   60.4035   63.9312 O   0  0  0  0  0  0  0  0  0  0  0  0
  -37.2715   61.4335   64.8597 P   0  0  0  0  0  0  0  0  0  0  0  0
  -37.9539   61.4811   66.2259 O   0  0  0  0  0  0  0  0  0  0  0  0
  -37.3449   62.7792   64.2499 O   0  0  0  0  0  0  0  0  0  0  0  0
  -38.2743   63.0341   64.1401 H   0  0  0  0  0  0  0  0  0  0  0  0
  -35.7092   60.9618   65.0639 O   0  0  0  0  0  0  0  0  0  0  0  0
  -34.6969   61.6720   65.8279 C   0  0  0  0  0  0  0  0  0  0  0  0
  -33.8451   62.5132   64.9097 C   0  0  0  0  0  0  0  0  0  0  0  0
  -33.6928   63.9769   65.2797 N   0  0  0  0  0  0  0  0  0  0  0  0
  -32.2614   64.2982   65.5678 C   0  0  0  0  0  0  0  0  0  0  0  0
  -34.5067   64.2475   66.5023 C   0  0  0  0  0  0  0  0  0  0  0  0
  -34.1709   64.8559   64.1591 C   0  0  0  0  0  0  0  0  0  0  0  0
 34 33  1  0  0  0
 34 35  1  0  0  0
 34 36  1  0  0  0
 34 37  1  0  0  0
 22 23  1  0  0  0
 22 25  1  0  0  0
 22 21  1  0  0  0
 23 24  1  0  0  0
 27 26  1  0  0  0
 27 28  2  0  0  0
 27 31  1  0  0  0
 27 29  1  0  0  0
 25 26  1  0  0  0
 32 33  1  0  0  0
 32 31  1  0  0  0
 29 30  1  0  0  0
 20 21  1  0  0  0
 20  2  1  0  0  0
  1  2  2  0  0  0
  2  3  1  0  0  0
  3  4  1  0  0  0
  4  5  1  0  0  0
  5  6  1  0  0  0
  6  7  1  0  0  0
  7  8  1  0  0  0
  8  9  1  0  0  0
  9 10  1  0  0  0
 10 11  2  0  0  0
 11 12  1  0  0  0
 12 13  1  0  0  0
 13 14  1  0  0  0
 14 15  1  0  0  0
 15 16  1  0  0  0
 16 17  1  0  0  0
 17 18  1  0  0  0
 18 19  1  0  0  0
M  CHG 1  28  -1
M  END
> <minimizedAffinity>
-7.99718

> <CNNscore>
0.7689123750

> <CNNaffinity>
6.4099936485

> <CNN_VS>
4.9287233353

> <CNNaffinity_variance>
0.0860181898

$$$$
/media/chris/experiments/cd1a-new-docking/inputs/ligands/4x6e_ligand.pdb


 37 36  0  0  0  0  0  0  0  0999 V2000
  -42.5597   60.2212   67.8100 O   0  0  0  0  0  0  0  0  0  0  0  0
  -42.5123   59.4924   66.8502 C   0  0  0  0  0  0  0  0  0  0  0  0
  -43.6887   58.8138   66.2183 C   0  0  0  0  0  0  0  0  0  0  0  0
  -44.5398   59.7535   65.3726 C   0  0  0  0  0  0  0  0  0  0  0  0
  -45.8022   59.1204   64.8132 C   0  0  0  0  0  0  0  0  0  0  0  0
  -46.2605   57.8982   65.5894 C   0  0  0  0  0  0  0  0  0  0  0  0
  -47.6509   58.0588   66.1797 C   0  0  0  0  0  0  0  0  0  0  0  0
  -48.1186   59.4970   66.1588 C   0  0  0  0  0  0  0  0  0  0  0  0
  -49.5143   59.7026   65.6060 C   0  0  0  0  0  0  0  0  0  0  0  0
  -50.0527   58.5321   64.8765 C   0  0  0  0  0  0  0  0  0  0  0  0
  -50.4342   58.5120   63.6160 C   0  0  0  0  0  0  0  0  0  0  0  0
  -50.3737   59.6383   62.6361 C   0  0  0  0  0  0  0  0  0  0  0  0
  -50.0477   59.1050   61.2401 C   0  0  0  0  0  0  0  0  0  0  0  0
  -50.7279   57.7961   60.8668 C   0  0  0  0  0  0  0  0  0  0  0  0
  -49.7809   56.6570   60.5091 C   0  0  0  0  0  0  0  0  0  0  0  0
  -48.9001   56.9540   59.3000 C   0  0  0  0  0  0  0  0  0  0  0  0
  -47.7594   55.9658   59.1158 C   0  0  0  0  0  0  0  0  0  0  0  0
  -47.0970   55.9835   57.7464 C   0  0  0  0  0  0  0  0  0  0  0  0
  -47.5624   57.1224   56.8920 C   0  0  0  0  0  0  0  0  0  0  0  0
  -41.3894   59.1884   66.1925 O   0  0  0  0  0  0  0  0  0  0  0  0
  -40.8210   60.1963   65.3276 C   0  0  0  0  0  0  0  0  0  0  0  0
  -39.3102   60.1079   65.2835 C   0  0  0  0  0  0  0  0  0  0  0  0
  -38.7143   60.9798   66.2535 O   0  0  0  0  0  0  0  0  0  0  0  0
  -38.9760   60.6993   67.1444 H   0  0  0  0  0  0  0  0  0  0  0  0
  -38.8050   58.7000   65.4955 C   0  0  0  0  0  0  0  0  0  0  0  0
  -37.4849   58.5110   64.9306 O   0  0  0  0  0  0  0  0  0  0  0  0
  -36.9839   58.1843   63.4412 P   0  0  0  0  0  0  0  0  0  0  0  0
  -35.6519   57.4422   63.5377 O   0  0  0  0  0  0  0  0  0  0  0  0
  -36.7612   59.4597   62.7257 O   0  0  0  0  0  0  0  0  0  0  0  0
  -36.1234   59.9996   63.2182 H   0  0  0  0  0  0  0  0  0  0  0  0
  -38.0617   57.2366   62.6379 O   0  0  0  0  0  0  0  0  0  0  0  0
  -38.9913   57.6824   61.6132 C   0  0  0  0  0  0  0  0  0  0  0  0
  -40.1902   58.3424   62.2482 C   0  0  0  0  0  0  0  0  0  0  0  0
  -41.5038   58.2258   61.4975 N   0  0  0  0  0  0  0  0  0  0  0  0
  -41.5046   57.0089   60.6290 C   0  0  0  0  0  0  0  0  0  0  0  0
  -41.6715   59.4357   60.6382 C   0  0  0  0  0  0  0  0  0  0  0  0
  -42.6539   58.1355   62.4596 C   0  0  0  0  0  0  0  0  0  0  0  0
 34 33  1  0  0  0
 34 35  1  0  0  0
 34 36  1  0  0  0
 34 37  1  0  0  0
 22 23  1  0  0  0
 22 25  1  0  0  0
 22 21  1  0  0  0
 23 24  1  0  0  0
 27 26  1  0  0  0
 27 28  2  0  0  0
 27 31  1  0  0  0
 27 29  1  0  0  0
 25 26  1  0  0  0
 32 33  1  0  0  0
 32 31  1  0  0  0
 29 30  1  0  0  0
 20 21  1  0  0  0
 20  2  1  0  0  0
  1  2  2  0  0  0
  2  3  1  0  0  0
  3  4  1  0  0  0
  4  5  1  0  0  0
  5  6  1  0  0  0
  6  7  1  0  0  0
  7  8  1  0  0  0
  8  9  1  0  0  0
  9 10  1  0  0  0
 10 11  2  0  0  0
 11 12  1  0  0  0
 12 13  1  0  0  0
 13 14  1  0  0  0
 14 15  1  0  0  0
 15 16  1  0  0  0
 16 17  1  0  0  0
 17 18  1  0  0  0
 18 19  1  0  0  0
M  CHG 1  28  -1
M  END
> <minimizedAffinity>
-7.93151

> <CNNscore>
0.7353748083

> <CNNaffinity>
7.1107277870

> <CNN_VS>
5.2290501595

> <CNNaffinity_variance>
0.4008718431

$$$$
/media/chris/experiments/cd1a-new-docking/inputs/ligands/4x6e_ligand.pdb


 37 36  0  0  0  0  0  0  0  0999 V2000
  -42.1981   59.5083   65.2239 O   0  0  0  0  0  0  0  0  0  0  0  0
  -42.0734   58.3527   64.9021 C   0  0  0  0  0  0  0  0  0  0  0  0
  -42.9140   57.2182   65.4022 C   0  0  0  0  0  0  0  0  0  0  0  0
  -44.4101   57.4851   65.2883 C   0  0  0  0  0  0  0  0  0  0  0  0
  -45.0611   57.9552   66.5778 C   0  0  0  0  0  0  0  0  0  0  0  0
  -45.6832   59.3365   66.4720 C   0  0  0  0  0  0  0  0  0  0  0  0
  -46.1694   59.6611   65.0699 C   0  0  0  0  0  0  0  0  0  0  0  0
  -47.4847   60.4077   65.0791 C   0  0  0  0  0  0  0  0  0  0  0  0
  -48.4403   59.9967   66.1809 C   0  0  0  0  0  0  0  0  0  0  0  0
  -49.2956   58.8382   65.8366 C   0  0  0  0  0  0  0  0  0  0  0  0
  -50.3450   58.8583   65.0408 C   0  0  0  0  0  0  0  0  0  0  0  0
  -50.8806   60.0285   64.2819 C   0  0  0  0  0  0  0  0  0  0  0  0
  -51.1119   59.6465   62.8190 C   0  0  0  0  0  0  0  0  0  0  0  0
  -50.8327   58.1913   62.4731 C   0  0  0  0  0  0  0  0  0  0  0  0
  -49.6785   57.9696   61.5030 C   0  0  0  0  0  0  0  0  0  0  0  0
  -50.1061   57.3404   60.1812 C   0  0  0  0  0  0  0  0  0  0  0  0
  -49.2676   57.7831   58.9927 C   0  0  0  0  0  0  0  0  0  0  0  0
  -48.2423   56.7703   58.5055 C   0  0  0  0  0  0  0  0  0  0  0  0
  -47.8739   56.9647   57.0666 C   0  0  0  0  0  0  0  0  0  0  0  0
  -41.1624   57.9096   64.0305 O   0  0  0  0  0  0  0  0  0  0  0  0
  -41.3867   58.1742   62.6281 C   0  0  0  0  0  0  0  0  0  0  0  0
  -40.6195   59.3923   62.1592 C   0  0  0  0  0  0  0  0  0  0  0  0
  -41.3296   60.5992   62.4684 O   0  0  0  0  0  0  0  0  0  0  0  0
  -41.4148   60.6867   63.4308 H   0  0  0  0  0  0  0  0  0  0  0  0
  -39.2289   59.4632   62.7452 C   0  0  0  0  0  0  0  0  0  0  0  0
  -39.1279   60.4811   63.7705 O   0  0  0  0  0  0  0  0  0  0  0  0
  -38.5895   60.4422   65.2820 P   0  0  0  0  0  0  0  0  0  0  0  0
  -38.2992   58.9875   65.6480 O   0  0  0  0  0  0  0  0  0  0  0  0
  -39.6525   60.9494   66.1769 O   0  0  0  0  0  0  0  0  0  0  0  0
  -40.4554   60.4182   66.0587 H   0  0  0  0  0  0  0  0  0  0  0  0
  -37.2073   61.3173   65.4513 O   0  0  0  0  0  0  0  0  0  0  0  0
  -36.0722   61.3027   64.5434 C   0  0  0  0  0  0  0  0  0  0  0  0
  -34.9964   60.3842   65.0682 C   0  0  0  0  0  0  0  0  0  0  0  0
  -34.5111   59.3007   64.1232 N   0  0  0  0  0  0  0  0  0  0  0  0
  -33.9653   58.1407   64.8924 C   0  0  0  0  0  0  0  0  0  0  0  0
  -33.4282   59.8663   63.2642 C   0  0  0  0  0  0  0  0  0  0  0  0
  -35.6363   58.8187   63.2524 C   0  0  0  0  0  0  0  0  0  0  0  0
 34 33  1  0  0  0
 34 35  1  0  0  0
 34 36  1  0  0  0
 34 37  1  0  0  0
 22 23  1  0  0  0
 22 25  1  0  0  0
 22 21  1  0  0  0
 23 24  1  0  0  0
 27 26  1  0  0  0
 27 28  2  0  0  0
 27 31  1  0  0  0
 27 29  1  0  0  0
 25 26  1  0  0  0
 32 33  1  0  0  0
 32 31  1  0  0  0
 29 30  1  0  0  0
 20 21  1  0  0  0
 20  2  1  0  0  0
  1  2  2  0  0  0
  2  3  1  0  0  0
  3  4  1  0  0  0
  4  5  1  0  0  0
  5  6  1  0  0  0
  6  7  1  0  0  0
  7  8  1  0  0  0
  8  9  1  0  0  0
  9 10  1  0  0  0
 10 11  2  0  0  0
 11 12  1  0  0  0
 12 13  1  0  0  0
 13 14  1  0  0  0
 14 15  1  0  0  0
 15 16  1  0  0  0
 16 17  1  0  0  0
 17 18  1  0  0  0
 18 19  1  0  0  0
M  CHG 1  28  -1
M  END
> <minimizedAffinity>
-7.59821

> <CNNscore>
0.6980379224

> <CNNaffinity>
6.6355133057

> <CNN_VS>
4.6318397522

> <CNNaffinity_variance>
0.2634321153

$$$$
/media/chris/experiments/cd1a-new-docking/inputs/ligands/4x6e_ligand.pdb


 37 36  0  0  0  0  0  0  0  0999 V2000
  -40.7724   55.6416   62.4451 O   0  0  0  0  0  0  0  0  0  0  0  0
  -41.2726   56.7322   62.3227 C   0  0  0  0  0  0  0  0  0  0  0  0
  -42.0902   57.4326   63.3642 C   0  0  0  0  0  0  0  0  0  0  0  0
  -43.1784   58.3217   62.7743 C   0  0  0  0  0  0  0  0  0  0  0  0
  -44.4322   58.4235   63.6258 C   0  0  0  0  0  0  0  0  0  0  0  0
  -44.4652   59.6594   64.5075 C   0  0  0  0  0  0  0  0  0  0  0  0
  -45.7189   60.4941   64.3102 C   0  0  0  0  0  0  0  0  0  0  0  0
  -46.8840   59.9780   65.1250 C   0  0  0  0  0  0  0  0  0  0  0  0
  -48.2213   60.6060   64.7888 C   0  0  0  0  0  0  0  0  0  0  0  0
  -49.3865   59.8697   65.3297 C   0  0  0  0  0  0  0  0  0  0  0  0
  -50.4393   59.4730   64.6448 C   0  0  0  0  0  0  0  0  0  0  0  0
  -50.6771   59.6365   63.1788 C   0  0  0  0  0  0  0  0  0  0  0  0
  -50.6219   58.2763   62.4814 C   0  0  0  0  0  0  0  0  0  0  0  0
  -50.5216   58.3253   60.9639 C   0  0  0  0  0  0  0  0  0  0  0  0
  -50.0902   57.0210   60.3042 C   0  0  0  0  0  0  0  0  0  0  0  0
  -48.9812   57.1980   59.2724 C   0  0  0  0  0  0  0  0  0  0  0  0
  -48.1281   55.9557   59.0709 C   0  0  0  0  0  0  0  0  0  0  0  0
  -47.1488   56.0193   57.9085 C   0  0  0  0  0  0  0  0  0  0  0  0
  -47.5230   57.0533   56.8913 C   0  0  0  0  0  0  0  0  0  0  0  0
  -41.1594   57.4922   61.2293 O   0  0  0  0  0  0  0  0  0  0  0  0
  -39.8793   57.5247   60.5606 C   0  0  0  0  0  0  0  0  0  0  0  0
  -39.2981   58.9224   60.5331 C   0  0  0  0  0  0  0  0  0  0  0  0
  -40.3273   59.9115   60.6699 O   0  0  0  0  0  0  0  0  0  0  0  0
  -40.7568   59.8138   61.5342 H   0  0  0  0  0  0  0  0  0  0  0  0
  -38.2504   59.1362   61.6004 C   0  0  0  0  0  0  0  0  0  0  0  0
  -38.6916   60.0800   62.6063 O   0  0  0  0  0  0  0  0  0  0  0  0
  -37.8910   61.0658   63.5878 P   0  0  0  0  0  0  0  0  0  0  0  0
  -38.8084   61.4258   64.7553 O   0  0  0  0  0  0  0  0  0  0  0  0
  -37.5609   62.3044   62.8495 O   0  0  0  0  0  0  0  0  0  0  0  0
  -38.3763   62.7055   62.5102 H   0  0  0  0  0  0  0  0  0  0  0  0
  -36.5332   60.3522   64.1813 O   0  0  0  0  0  0  0  0  0  0  0  0
  -35.1936   60.9159   64.1575 C   0  0  0  0  0  0  0  0  0  0  0  0
  -34.8793   61.5697   65.4803 C   0  0  0  0  0  0  0  0  0  0  0  0
  -34.8915   63.0869   65.5054 N   0  0  0  0  0  0  0  0  0  0  0  0
  -33.7878   63.6054   66.3704 C   0  0  0  0  0  0  0  0  0  0  0  0
  -36.1999   63.5446   66.0612 C   0  0  0  0  0  0  0  0  0  0  0  0
  -34.7201   63.6379   64.1184 C   0  0  0  0  0  0  0  0  0  0  0  0
 34 33  1  0  0  0
 34 35  1  0  0  0
 34 36  1  0  0  0
 34 37  1  0  0  0
 22 23  1  0  0  0
 22 25  1  0  0  0
 22 21  1  0  0  0
 23 24  1  0  0  0
 27 26  1  0  0  0
 27 28  2  0  0  0
 27 31  1  0  0  0
 27 29  1  0  0  0
 25 26  1  0  0  0
 32 33  1  0  0  0
 32 31  1  0  0  0
 29 30  1  0  0  0
 20 21  1  0  0  0
 20  2  1  0  0  0
  1  2  2  0  0  0
  2  3  1  0  0  0
  3  4  1  0  0  0
  4  5  1  0  0  0
  5  6  1  0  0  0
  6  7  1  0  0  0
  7  8  1  0  0  0
  8  9  1  0  0  0
  9 10  1  0  0  0
 10 11  2  0  0  0
 11 12  1  0  0  0
 12 13  1  0  0  0
 13 14  1  0  0  0
 14 15  1  0  0  0
 15 16  1  0  0  0
 16 17  1  0  0  0
 17 18  1  0  0  0
 18 19  1  0  0  0
M  CHG 1  28  -1
M  END
> <minimizedAffinity>
-7.79655

> <CNNscore>
0.6432727575

> <CNNaffinity>
6.7013411522

> <CNN_VS>
4.3107900620

> <CNNaffinity_variance>
0.4737051129

$$$$
/media/chris/experiments/cd1a-new-docking/inputs/ligands/4x6e_ligand.pdb


 37 36  0  0  0  0  0  0  0  0999 V2000
  -40.2941   57.8439   61.7308 O   0  0  0  0  0  0  0  0  0  0  0  0
  -40.7699   58.9473   61.6277 C   0  0  0  0  0  0  0  0  0  0  0  0
  -42.2341   59.2635   61.6309 C   0  0  0  0  0  0  0  0  0  0  0  0
  -42.5249   60.7573   61.5488 C   0  0  0  0  0  0  0  0  0  0  0  0
  -43.5405   61.2530   62.5639 C   0  0  0  0  0  0  0  0  0  0  0  0
  -44.1591   60.1409   63.3925 C   0  0  0  0  0  0  0  0  0  0  0  0
  -45.4049   60.5831   64.1409 C   0  0  0  0  0  0  0  0  0  0  0  0
  -46.4510   59.4926   64.2050 C   0  0  0  0  0  0  0  0  0  0  0  0
  -47.8363   59.9643   64.5976 C   0  0  0  0  0  0  0  0  0  0  0  0
  -48.7647   58.8706   64.9639 C   0  0  0  0  0  0  0  0  0  0  0  0
  -50.0395   58.7947   64.6414 C   0  0  0  0  0  0  0  0  0  0  0  0
  -50.8196   59.7600   63.8096 C   0  0  0  0  0  0  0  0  0  0  0  0
  -51.1474   59.1394   62.4506 C   0  0  0  0  0  0  0  0  0  0  0  0
  -50.2531   57.9826   62.0294 C   0  0  0  0  0  0  0  0  0  0  0  0
  -50.2356   57.6934   60.5332 C   0  0  0  0  0  0  0  0  0  0  0  0
  -49.5457   56.3815   60.1744 C   0  0  0  0  0  0  0  0  0  0  0  0
  -48.2498   56.5628   59.4001 C   0  0  0  0  0  0  0  0  0  0  0  0
  -48.3908   57.2339   58.0422 C   0  0  0  0  0  0  0  0  0  0  0  0
  -47.6816   56.4909   56.9519 C   0  0  0  0  0  0  0  0  0  0  0  0
  -40.0509   60.0671   61.5061 O   0  0  0  0  0  0  0  0  0  0  0  0
  -38.6112   59.9485   61.5192 C   0  0  0  0  0  0  0  0  0  0  0  0
  -38.0250   60.3996   62.8403 C   0  0  0  0  0  0  0  0  0  0  0  0
  -36.7101   59.8604   63.0316 O   0  0  0  0  0  0  0  0  0  0  0  0
  -36.1179   60.2002   62.3425 H   0  0  0  0  0  0  0  0  0  0  0  0
  -37.9752   61.9039   62.9694 C   0  0  0  0  0  0  0  0  0  0  0  0
  -37.4345   62.3168   64.2479 O   0  0  0  0  0  0  0  0  0  0  0  0
  -36.5245   63.5651   64.6836 P   0  0  0  0  0  0  0  0  0  0  0  0
  -36.8266   63.8887   66.1459 O   0  0  0  0  0  0  0  0  0  0  0  0
  -36.8959   64.7339   63.8566 O   0  0  0  0  0  0  0  0  0  0  0  0
  -37.8432   64.9153   63.9602 H   0  0  0  0  0  0  0  0  0  0  0  0
  -34.9226   63.2225   64.5367 O   0  0  0  0  0  0  0  0  0  0  0  0
  -34.1725   63.1696   63.2926 C   0  0  0  0  0  0  0  0  0  0  0  0
  -33.1780   62.0358   63.3312 C   0  0  0  0  0  0  0  0  0  0  0  0
  -31.8048   62.3198   62.7512 N   0  0  0  0  0  0  0  0  0  0  0  0
  -30.9856   63.1202   63.7121 C   0  0  0  0  0  0  0  0  0  0  0  0
  -31.9718   63.0997   61.4885 C   0  0  0  0  0  0  0  0  0  0  0  0
  -31.0840   61.0363   62.4515 C   0  0  0  0  0  0  0  0  0  0  0  0
 34 33  1  0  0  0
 34 35  1  0  0  0
 34 36  1  0  0  0
 34 37  1  0  0  0
 22 23  1  0  0  0
 22 25  1  0  0  0
 22 21  1  0  0  0
 23 24  1  0  0  0
 27 26  1  0  0  0
 27 28  2  0  0  0
 27 31  1  0  0  0
 27 29  1  0  0  0
 25 26  1  0  0  0
 32 33  1  0  0  0
 32 31  1  0  0  0
 29 30  1  0  0  0
 20 21  1  0  0  0
 20  2  1  0  0  0
  1  2  2  0  0  0
  2  3  1  0  0  0
  3  4  1  0  0  0
  4  5  1  0  0  0
  5  6  1  0  0  0
  6  7  1  0  0  0
  7  8  1  0  0  0
  8  9  1  0  0  0
  9 10  1  0  0  0
 10 11  2  0  0  0
 11 12  1  0  0  0
 12 13  1  0  0  0
 13 14  1  0  0  0
 14 15  1  0  0  0
 15 16  1  0  0  0
 16 17  1  0  0  0
 17 18  1  0  0  0
 18 19  1  0  0  0
M  CHG 1  28  -1
M  END
> <minimizedAffinity>
-7.97275

> <CNNscore>
0.6348589063

> <CNNaffinity>
6.3076629639

> <CNN_VS>
4.0044760704

> <CNNaffinity_variance>
0.4123478532

$$$$
/media/chris/experiments/cd1a-new-docking/inputs/ligands/4x6e_ligand.pdb


 37 36  0  0  0  0  0  0  0  0999 V2000
  -42.2313   58.3485   60.8384 O   0  0  0  0  0  0  0  0  0  0  0  0
  -41.3909   59.0588   61.3323 C   0  0  0  0  0  0  0  0  0  0  0  0
  -41.6255   60.4405   61.8609 C   0  0  0  0  0  0  0  0  0  0  0  0
  -42.9097   61.0726   61.3375 C   0  0  0  0  0  0  0  0  0  0  0  0
  -43.7880   61.6866   62.4141 C   0  0  0  0  0  0  0  0  0  0  0  0
  -44.4101   60.6604   63.3447 C   0  0  0  0  0  0  0  0  0  0  0  0
  -45.7345   61.1186   63.9307 C   0  0  0  0  0  0  0  0  0  0  0  0
  -46.1668   60.2663   65.1030 C   0  0  0  0  0  0  0  0  0  0  0  0
  -47.5124   59.5903   64.9342 C   0  0  0  0  0  0  0  0  0  0  0  0
  -48.4806   60.3669   64.1269 C   0  0  0  0  0  0  0  0  0  0  0  0
  -49.3325   59.8738   63.2517 C   0  0  0  0  0  0  0  0  0  0  0  0
  -49.5427   58.4351   62.9079 C   0  0  0  0  0  0  0  0  0  0  0  0
  -50.8507   58.2642   62.1336 C   0  0  0  0  0  0  0  0  0  0  0  0
  -50.7008   57.7763   60.7001 C   0  0  0  0  0  0  0  0  0  0  0  0
  -49.6225   56.7204   60.4883 C   0  0  0  0  0  0  0  0  0  0  0  0
  -48.9229   56.8268   59.1373 C   0  0  0  0  0  0  0  0  0  0  0  0
  -47.6920   55.9428   59.0137 C   0  0  0  0  0  0  0  0  0  0  0  0
  -46.9954   55.9812   57.6619 C   0  0  0  0  0  0  0  0  0  0  0  0
  -47.4995   57.0831   56.7812 C   0  0  0  0  0  0  0  0  0  0  0  0
  -40.1115   58.7082   61.4941 O   0  0  0  0  0  0  0  0  0  0  0  0
  -39.3848   59.2985   62.5941 C   0  0  0  0  0  0  0  0  0  0  0  0
  -38.1648   60.0567   62.1157 C   0  0  0  0  0  0  0  0  0  0  0  0
  -38.1392   60.1417   60.6844 O   0  0  0  0  0  0  0  0  0  0  0  0
  -38.9090   60.6454   60.3766 H   0  0  0  0  0  0  0  0  0  0  0  0
  -38.0776   61.4458   62.7033 C   0  0  0  0  0  0  0  0  0  0  0  0
  -38.4935   61.4705   64.0904 O   0  0  0  0  0  0  0  0  0  0  0  0
  -37.6794   61.3179   65.4651 P   0  0  0  0  0  0  0  0  0  0  0  0
  -38.6507   60.8440   66.5450 O   0  0  0  0  0  0  0  0  0  0  0  0
  -37.1538   62.6447   65.8544 O   0  0  0  0  0  0  0  0  0  0  0  0
  -37.8881   63.2739   65.9297 H   0  0  0  0  0  0  0  0  0  0  0  0
  -36.4640   60.2186   65.3261 O   0  0  0  0  0  0  0  0  0  0  0  0
  -35.0790   60.5153   64.9996 C   0  0  0  0  0  0  0  0  0  0  0  0
  -34.7166   59.9109   63.6656 C   0  0  0  0  0  0  0  0  0  0  0  0
  -34.3489   58.4387   63.6669 N   0  0  0  0  0  0  0  0  0  0  0  0
  -33.9901   57.9896   65.0471 C   0  0  0  0  0  0  0  0  0  0  0  0
  -33.1712   58.2400   62.7702 C   0  0  0  0  0  0  0  0  0  0  0  0
  -35.4981   57.6084   63.1703 C   0  0  0  0  0  0  0  0  0  0  0  0
 34 33  1  0  0  0
 34 35  1  0  0  0
 34 36  1  0  0  0
 34 37  1  0  0  0
 22 23  1  0  0  0
 22 25  1  0  0  0
 22 21  1  0  0  0
 23 24  1  0  0  0
 27 26  1  0  0  0
 27 28  2  0  0  0
 27 31  1  0  0  0
 27 29  1  0  0  0
 25 26  1  0  0  0
 32 33  1  0  0  0
 32 31  1  0  0  0
 29 30  1  0  0  0
 20 21  1  0  0  0
 20  2  1  0  0  0
  1  2  2  0  0  0
  2  3  1  0  0  0
  3  4  1  0  0  0
  4  5  1  0  0  0
  5  6  1  0  0  0
  6  7  1  0  0  0
  7  8  1  0  0  0
  8  9  1  0  0  0
  9 10  1  0  0  0
 10 11  2  0  0  0
 11 12  1  0  0  0
 12 13  1  0  0  0
 13 14  1  0  0  0
 14 15  1  0  0  0
 15 16  1  0  0  0
 16 17  1  0  0  0
 17 18  1  0  0  0
 18 19  1  0  0  0
M  CHG 1  28  -1
M  END
> <minimizedAffinity>
-7.99413

> <CNNscore>
0.5856738687

> <CNNaffinity>
6.5076971054

> <CNN_VS>
3.8113882542

> <CNNaffinity_variance>
0.1130298600

$$$$
/media/chris/experiments/cd1a-new-docking/inputs/ligands/4x6e_ligand.pdb


 37 36  0  0  0  0  0  0  0  0999 V2000
  -41.9226   59.6836   64.9100 O   0  0  0  0  0  0  0  0  0  0  0  0
  -41.8165   58.5769   64.4424 C   0  0  0  0  0  0  0  0  0  0  0  0
  -42.5336   57.3566   64.9326 C   0  0  0  0  0  0  0  0  0  0  0  0
  -44.0507   57.4955   64.8908 C   0  0  0  0  0  0  0  0  0  0  0  0
  -44.6631   58.0490   66.1659 C   0  0  0  0  0  0  0  0  0  0  0  0
  -45.4535   59.3278   65.9512 C   0  0  0  0  0  0  0  0  0  0  0  0
  -46.0355   59.4362   64.5522 C   0  0  0  0  0  0  0  0  0  0  0  0
  -47.2932   60.2756   64.5193 C   0  0  0  0  0  0  0  0  0  0  0  0
  -48.2227   60.0731   65.6987 C   0  0  0  0  0  0  0  0  0  0  0  0
  -49.1440   58.9236   65.5502 C   0  0  0  0  0  0  0  0  0  0  0  0
  -50.2947   58.9296   64.9092 C   0  0  0  0  0  0  0  0  0  0  0  0
  -50.9056   60.0695   64.1611 C   0  0  0  0  0  0  0  0  0  0  0  0
  -51.1778   59.6630   62.7119 C   0  0  0  0  0  0  0  0  0  0  0  0
  -50.8515   58.2171   62.3680 C   0  0  0  0  0  0  0  0  0  0  0  0
  -49.6681   58.0300   61.4264 C   0  0  0  0  0  0  0  0  0  0  0  0
  -50.0587   57.4781   60.0594 C   0  0  0  0  0  0  0  0  0  0  0  0
  -49.0823   57.8393   58.9512 C   0  0  0  0  0  0  0  0  0  0  0  0
  -48.2170   56.6944   58.4466 C   0  0  0  0  0  0  0  0  0  0  0  0
  -47.8340   56.8483   57.0067 C   0  0  0  0  0  0  0  0  0  0  0  0
  -41.0424   58.2745   63.3960 O   0  0  0  0  0  0  0  0  0  0  0  0
  -41.4500   58.7529   62.0953 C   0  0  0  0  0  0  0  0  0  0  0  0
  -40.6350   59.9522   61.6598 C   0  0  0  0  0  0  0  0  0  0  0  0
  -40.5751   60.9394   62.6983 O   0  0  0  0  0  0  0  0  0  0  0  0
  -40.1202   60.5688   63.4708 H   0  0  0  0  0  0  0  0  0  0  0  0
  -39.2327   59.5790   61.2397 C   0  0  0  0  0  0  0  0  0  0  0  0
  -38.2642   59.8724   62.2758 O   0  0  0  0  0  0  0  0  0  0  0  0
  -37.4242   58.9304   63.2673 P   0  0  0  0  0  0  0  0  0  0  0  0
  -35.9758   58.8979   62.7820 O   0  0  0  0  0  0  0  0  0  0  0  0
  -37.9746   57.5592   63.1980 O   0  0  0  0  0  0  0  0  0  0  0  0
  -37.9463   57.2455   62.2806 H   0  0  0  0  0  0  0  0  0  0  0  0
  -37.4537   59.5017   64.8093 O   0  0  0  0  0  0  0  0  0  0  0  0
  -37.4816   60.9016   65.1998 C   0  0  0  0  0  0  0  0  0  0  0  0
  -36.0766   61.4200   65.3829 C   0  0  0  0  0  0  0  0  0  0  0  0
  -35.8329   62.8666   64.9950 N   0  0  0  0  0  0  0  0  0  0  0  0
  -34.3894   63.0869   64.6742 C   0  0  0  0  0  0  0  0  0  0  0  0
  -36.2134   63.7399   66.1452 C   0  0  0  0  0  0  0  0  0  0  0  0
  -36.6579   63.2363   63.7953 C   0  0  0  0  0  0  0  0  0  0  0  0
 34 33  1  0  0  0
 34 35  1  0  0  0
 34 36  1  0  0  0
 34 37  1  0  0  0
 22 23  1  0  0  0
 22 25  1  0  0  0
 22 21  1  0  0  0
 23 24  1  0  0  0
 27 26  1  0  0  0
 27 28  2  0  0  0
 27 31  1  0  0  0
 27 29  1  0  0  0
 25 26  1  0  0  0
 32 33  1  0  0  0
 32 31  1  0  0  0
 29 30  1  0  0  0
 20 21  1  0  0  0
 20  2  1  0  0  0
  1  2  2  0  0  0
  2  3  1  0  0  0
  3  4  1  0  0  0
  4  5  1  0  0  0
  5  6  1  0  0  0
  6  7  1  0  0  0
  7  8  1  0  0  0
  8  9  1  0  0  0
  9 10  1  0  0  0
 10 11  2  0  0  0
 11 12  1  0  0  0
 12 13  1  0  0  0
 13 14  1  0  0  0
 14 15  1  0  0  0
 15 16  1  0  0  0
 16 17  1  0  0  0
 17 18  1  0  0  0
 18 19  1  0  0  0
M  CHG 1  28  -1
M  END
> <minimizedAffinity>
-7.47827

> <CNNscore>
0.5841685534

> <CNNaffinity>
6.6569809914

> <CNN_VS>
3.8887989521

> <CNNaffinity_variance>
0.4398065209

$$$$
/media/chris/experiments/cd1a-new-docking/inputs/ligands/4x6e_ligand.pdb


 37 36  0  0  0  0  0  0  0  0999 V2000
  -42.3269   58.0476   63.3787 O   0  0  0  0  0  0  0  0  0  0  0  0
  -41.5103   58.3261   64.2215 C   0  0  0  0  0  0  0  0  0  0  0  0
  -41.7797   58.4196   65.6920 C   0  0  0  0  0  0  0  0  0  0  0  0
  -43.2420   58.1826   66.0497 C   0  0  0  0  0  0  0  0  0  0  0  0
  -44.0393   59.4523   66.2942 C   0  0  0  0  0  0  0  0  0  0  0  0
  -44.9873   59.7985   65.1595 C   0  0  0  0  0  0  0  0  0  0  0  0
  -45.8594   58.6281   64.7387 C   0  0  0  0  0  0  0  0  0  0  0  0
  -47.1204   59.0782   64.0351 C   0  0  0  0  0  0  0  0  0  0  0  0
  -48.0301   59.9607   64.8655 C   0  0  0  0  0  0  0  0  0  0  0  0
  -49.2143   59.2606   65.4130 C   0  0  0  0  0  0  0  0  0  0  0  0
  -50.3875   59.1453   64.8255 C   0  0  0  0  0  0  0  0  0  0  0  0
  -50.7744   59.6517   63.4741 C   0  0  0  0  0  0  0  0  0  0  0  0
  -50.8735   58.4896   62.4846 C   0  0  0  0  0  0  0  0  0  0  0  0
  -50.0057   58.6161   61.2411 C   0  0  0  0  0  0  0  0  0  0  0  0
  -50.3032   57.6033   60.1421 C   0  0  0  0  0  0  0  0  0  0  0  0
  -49.1095   57.3190   59.2364 C   0  0  0  0  0  0  0  0  0  0  0  0
  -48.4133   56.0011   59.5363 C   0  0  0  0  0  0  0  0  0  0  0  0
  -47.0775   55.7962   58.8377 C   0  0  0  0  0  0  0  0  0  0  0  0
  -47.1818   55.8963   57.3467 C   0  0  0  0  0  0  0  0  0  0  0  0
  -40.2243   58.5838   63.9653 O   0  0  0  0  0  0  0  0  0  0  0  0
  -39.2462   58.1732   64.9459 C   0  0  0  0  0  0  0  0  0  0  0  0
  -37.9236   57.8164   64.3012 C   0  0  0  0  0  0  0  0  0  0  0  0
  -38.0805   57.5907   62.8938 O   0  0  0  0  0  0  0  0  0  0  0  0
  -38.3780   58.4090   62.4663 H   0  0  0  0  0  0  0  0  0  0  0  0
  -36.8653   58.8707   64.5264 C   0  0  0  0  0  0  0  0  0  0  0  0
  -36.9977   59.9733   63.5968 O   0  0  0  0  0  0  0  0  0  0  0  0
  -37.8559   61.3288   63.6439 P   0  0  0  0  0  0  0  0  0  0  0  0
  -38.1321   61.6683   65.1077 O   0  0  0  0  0  0  0  0  0  0  0  0
  -39.1482   61.0954   62.9630 O   0  0  0  0  0  0  0  0  0  0  0  0
  -39.6079   60.3540   63.3873 H   0  0  0  0  0  0  0  0  0  0  0  0
  -37.0423   62.5807   62.9540 O   0  0  0  0  0  0  0  0  0  0  0  0
  -36.3604   63.6496   63.6649 C   0  0  0  0  0  0  0  0  0  0  0  0
  -34.9659   63.2166   64.0446 C   0  0  0  0  0  0  0  0  0  0  0  0
  -34.6767   63.0911   65.5289 N   0  0  0  0  0  0  0  0  0  0  0  0
  -34.6761   61.6545   65.9428 C   0  0  0  0  0  0  0  0  0  0  0  0
  -35.7421   63.8139   66.2857 C   0  0  0  0  0  0  0  0  0  0  0  0
  -33.3391   63.6908   65.8574 C   0  0  0  0  0  0  0  0  0  0  0  0
 34 33  1  0  0  0
 34 35  1  0  0  0
 34 36  1  0  0  0
 34 37  1  0  0  0
 22 23  1  0  0  0
 22 25  1  0  0  0
 22 21  1  0  0  0
 23 24  1  0  0  0
 27 26  1  0  0  0
 27 28  2  0  0  0
 27 31  1  0  0  0
 27 29  1  0  0  0
 25 26  1  0  0  0
 32 33  1  0  0  0
 32 31  1  0  0  0
 29 30  1  0  0  0
 20 21  1  0  0  0
 20  2  1  0  0  0
  1  2  2  0  0  0
  2  3  1  0  0  0
  3  4  1  0  0  0
  4  5  1  0  0  0
  5  6  1  0  0  0
  6  7  1  0  0  0
  7  8  1  0  0  0
  8  9  1  0  0  0
  9 10  1  0  0  0
 10 11  2  0  0  0
 11 12  1  0  0  0
 12 13  1  0  0  0
 13 14  1  0  0  0
 14 15  1  0  0  0
 15 16  1  0  0  0
 16 17  1  0  0  0
 17 18  1  0  0  0
 18 19  1  0  0  0
M  CHG 1  28  -1
M  END
> <minimizedAffinity>
-7.70223

> <CNNscore>
0.5566611886

> <CNNaffinity>
6.4175133705

> <CNN_VS>
3.5723805428

> <CNNaffinity_variance>
0.1842568219

$$$$
/media/chris/experiments/cd1a-new-docking/inputs/ligands/4x6e_ligand.pdb


 37 36  0  0  0  0  0  0  0  0999 V2000
  -41.1175   56.8368   64.1783 O   0  0  0  0  0  0  0  0  0  0  0  0
  -41.2958   57.8293   63.5165 C   0  0  0  0  0  0  0  0  0  0  0  0
  -42.4873   58.0884   62.6466 C   0  0  0  0  0  0  0  0  0  0  0  0
  -43.5376   58.9676   63.3149 C   0  0  0  0  0  0  0  0  0  0  0  0
  -44.3510   58.2639   64.3876 C   0  0  0  0  0  0  0  0  0  0  0  0
  -44.5006   59.0755   65.6624 C   0  0  0  0  0  0  0  0  0  0  0  0
  -45.9426   59.4480   65.9613 C   0  0  0  0  0  0  0  0  0  0  0  0
  -46.8048   58.2331   66.2228 C   0  0  0  0  0  0  0  0  0  0  0  0
  -48.0256   58.1177   65.3326 C   0  0  0  0  0  0  0  0  0  0  0  0
  -47.9622   58.9513   64.1107 C   0  0  0  0  0  0  0  0  0  0  0  0
  -48.9548   59.1808   63.2758 C   0  0  0  0  0  0  0  0  0  0  0  0
  -50.3624   58.6931   63.3908 C   0  0  0  0  0  0  0  0  0  0  0  0
  -50.8901   58.2784   62.0163 C   0  0  0  0  0  0  0  0  0  0  0  0
  -50.0519   58.7348   60.8312 C   0  0  0  0  0  0  0  0  0  0  0  0
  -49.8618   57.6917   59.7366 C   0  0  0  0  0  0  0  0  0  0  0  0
  -49.2151   56.4017   60.2303 C   0  0  0  0  0  0  0  0  0  0  0  0
  -48.0415   55.9409   59.3807 C   0  0  0  0  0  0  0  0  0  0  0  0
  -47.8728   56.6666   58.0543 C   0  0  0  0  0  0  0  0  0  0  0  0
  -47.1831   55.8310   57.0200 C   0  0  0  0  0  0  0  0  0  0  0  0
  -40.4508   58.8636   63.4709 O   0  0  0  0  0  0  0  0  0  0  0  0
  -39.9810   59.2935   62.1742 C   0  0  0  0  0  0  0  0  0  0  0  0
  -38.6132   59.9367   62.2600 C   0  0  0  0  0  0  0  0  0  0  0  0
  -38.2409   60.5254   61.0065 O   0  0  0  0  0  0  0  0  0  0  0  0
  -38.8617   61.2376   60.7867 H   0  0  0  0  0  0  0  0  0  0  0  0
  -38.5298   60.9797   63.3497 C   0  0  0  0  0  0  0  0  0  0  0  0
  -37.2177   61.5894   63.4120 O   0  0  0  0  0  0  0  0  0  0  0  0
  -36.6522   62.8557   64.2199 P   0  0  0  0  0  0  0  0  0  0  0  0
  -37.2855   62.8564   65.6103 O   0  0  0  0  0  0  0  0  0  0  0  0
  -37.0631   64.0896   63.5151 O   0  0  0  0  0  0  0  0  0  0  0  0
  -38.0294   64.1079   63.4320 H   0  0  0  0  0  0  0  0  0  0  0  0
  -35.0171   62.7848   64.3824 O   0  0  0  0  0  0  0  0  0  0  0  0
  -34.2793   62.8801   65.6312 C   0  0  0  0  0  0  0  0  0  0  0  0
  -34.1530   64.3230   66.0535 C   0  0  0  0  0  0  0  0  0  0  0  0
  -32.9377   65.0741   65.5423 N   0  0  0  0  0  0  0  0  0  0  0  0
  -33.2380   65.7252   64.2303 C   0  0  0  0  0  0  0  0  0  0  0  0
  -31.8189   64.1024   65.3572 C   0  0  0  0  0  0  0  0  0  0  0  0
  -32.5208   66.1318   66.5241 C   0  0  0  0  0  0  0  0  0  0  0  0
 34 33  1  0  0  0
 34 35  1  0  0  0
 34 36  1  0  0  0
 34 37  1  0  0  0
 22 23  1  0  0  0
 22 25  1  0  0  0
 22 21  1  0  0  0
 23 24  1  0  0  0
 27 26  1  0  0  0
 27 28  2  0  0  0
 27 31  1  0  0  0
 27 29  1  0  0  0
 25 26  1  0  0  0
 32 33  1  0  0  0
 32 31  1  0  0  0
 29 30  1  0  0  0
 20 21  1  0  0  0
 20  2  1  0  0  0
  1  2  2  0  0  0
  2  3  1  0  0  0
  3  4  1  0  0  0
  4  5  1  0  0  0
  5  6  1  0  0  0
  6  7  1  0  0  0
  7  8  1  0  0  0
  8  9  1  0  0  0
  9 10  1  0  0  0
 10 11  2  0  0  0
 11 12  1  0  0  0
 12 13  1  0  0  0
 13 14  1  0  0  0
 14 15  1  0  0  0
 15 16  1  0  0  0
 16 17  1  0  0  0
 17 18  1  0  0  0
 18 19  1  0  0  0
M  CHG 1  28  -1
M  END
> <minimizedAffinity>
-8.00459

> <CNNscore>
0.5513306856

> <CNNaffinity>
6.2803659439

> <CNN_VS>
3.4625585079

> <CNNaffinity_variance>
0.4329853952

$$$$
