/media/chris/experiments/cd1a-new-docking/inputs/ligands/4x6e_ligand.pdb


 37 36  0  0  0  0  0  0  0  0999 V2000
  -41.4064   56.9724   61.4220 O   0  0  0  0  0  0  0  0  0  0  0  0
  -41.8685   58.0829   61.5118 C   0  0  0  0  0  0  0  0  0  0  0  0
  -43.0270   58.4719   62.3779 C   0  0  0  0  0  0  0  0  0  0  0  0
  -43.0553   57.7311   63.7095 C   0  0  0  0  0  0  0  0  0  0  0  0
  -42.3075   58.4318   64.8307 C   0  0  0  0  0  0  0  0  0  0  0  0
  -42.6377   57.8882   66.2095 C   0  0  0  0  0  0  0  0  0  0  0  0
  -44.1319   57.7996   66.4688 C   0  0  0  0  0  0  0  0  0  0  0  0
  -44.7826   59.1633   66.5369 C   0  0  0  0  0  0  0  0  0  0  0  0
  -46.2976   59.1440   66.5471 C   0  0  0  0  0  0  0  0  0  0  0  0
  -46.8977   58.3200   65.4733 C   0  0  0  0  0  0  0  0  0  0  0  0
  -48.1671   58.3082   65.1222 C   0  0  0  0  0  0  0  0  0  0  0  0
  -49.2691   59.1417   65.6907 C   0  0  0  0  0  0  0  0  0  0  0  0
  -50.4484   59.1903   64.7177 C   0  0  0  0  0  0  0  0  0  0  0  0
  -50.2859   58.3580   63.4542 C   0  0  0  0  0  0  0  0  0  0  0  0
  -50.9512   58.9369   62.2115 C   0  0  0  0  0  0  0  0  0  0  0  0
  -50.0048   59.0790   61.0240 C   0  0  0  0  0  0  0  0  0  0  0  0
  -50.3414   58.1614   59.8594 C   0  0  0  0  0  0  0  0  0  0  0  0
  -49.1754   57.3551   59.3071 C   0  0  0  0  0  0  0  0  0  0  0  0
  -48.9503   56.0759   60.0531 C   0  0  0  0  0  0  0  0  0  0  0  0
  -41.4010   59.1468   60.8521 O   0  0  0  0  0  0  0  0  0  0  0  0
  -40.5409   60.0598   61.5687 C   0  0  0  0  0  0  0  0  0  0  0  0
  -39.0904   59.6309   61.5014 C   0  0  0  0  0  0  0  0  0  0  0  0
  -38.2300   60.7564   61.2786 O   0  0  0  0  0  0  0  0  0  0  0  0
  -38.2971   61.3680   62.0285 H   0  0  0  0  0  0  0  0  0  0  0  0
  -38.6447   58.8955   62.7436 C   0  0  0  0  0  0  0  0  0  0  0  0
  -39.0276   59.5974   63.9511 O   0  0  0  0  0  0  0  0  0  0  0  0
  -38.2488   60.6456   64.8844 P   0  0  0  0  0  0  0  0  0  0  0  0
  -39.1376   60.9686   66.0843 O   0  0  0  0  0  0  0  0  0  0  0  0
  -38.0255   61.8896   64.1156 O   0  0  0  0  0  0  0  0  0  0  0  0
  -38.8772   62.2353   63.8055 H   0  0  0  0  0  0  0  0  0  0  0  0
  -36.8268   60.0250   65.4299 O   0  0  0  0  0  0  0  0  0  0  0  0
  -35.4987   60.4302   65.0000 C   0  0  0  0  0  0  0  0  0  0  0  0
  -35.1533   59.7746   63.6859 C   0  0  0  0  0  0  0  0  0  0  0  0
  -34.4201   58.4483   63.7630 N   0  0  0  0  0  0  0  0  0  0  0  0
  -33.2641   58.4329   62.8150 C   0  0  0  0  0  0  0  0  0  0  0  0
  -35.3683   57.3563   63.3900 C   0  0  0  0  0  0  0  0  0  0  0  0
  -33.9088   58.2094   65.1551 C   0  0  0  0  0  0  0  0  0  0  0  0
 34 33  1  0  0  0
 34 35  1  0  0  0
 34 36  1  0  0  0
 34 37  1  0  0  0
 22 23  1  0  0  0
 22 25  1  0  0  0
 22 21  1  0  0  0
 23 24  1  0  0  0
 27 26  1  0  0  0
 27 28  2  0  0  0
 27 31  1  0  0  0
 27 29  1  0  0  0
 25 26  1  0  0  0
 32 33  1  0  0  0
 32 31  1  0  0  0
 29 30  1  0  0  0
 20 21  1  0  0  0
 20  2  1  0  0  0
  1  2  2  0  0  0
  2  3  1  0  0  0
  3  4  1  0  0  0
  4  5  1  0  0  0
  5  6  1  0  0  0
  6  7  1  0  0  0
  7  8  1  0  0  0
  8  9  1  0  0  0
  9 10  1  0  0  0
 10 11  2  0  0  0
 11 12  1  0  0  0
 12 13  1  0  0  0
 13 14  1  0  0  0
 14 15  1  0  0  0
 15 16  1  0  0  0
 16 17  1  0  0  0
 17 18  1  0  0  0
 18 19  1  0  0  0
M  CHG 1  28  -1
M  END
> <minimizedAffinity>
-7.35785

> <CNNscore>
0.7751218081

> <CNNaffinity>
6.9433975220

> <CNN_VS>
5.3819789886

> <CNNaffinity_variance>
0.2061021030

$$$$
/media/chris/experiments/cd1a-new-docking/inputs/ligands/4x6e_ligand.pdb


 37 36  0  0  0  0  0  0  0  0999 V2000
  -40.4036   60.5649   66.2119 O   0  0  0  0  0  0  0  0  0  0  0  0
  -40.7064   59.4604   65.8334 C   0  0  0  0  0  0  0  0  0  0  0  0
  -42.0342   58.8029   66.0529 C   0  0  0  0  0  0  0  0  0  0  0  0
  -43.0515   59.7164   66.7262 C   0  0  0  0  0  0  0  0  0  0  0  0
  -44.4618   59.1540   66.7734 C   0  0  0  0  0  0  0  0  0  0  0  0
  -44.9122   58.5408   65.4593 C   0  0  0  0  0  0  0  0  0  0  0  0
  -46.3312   58.9288   65.0804 C   0  0  0  0  0  0  0  0  0  0  0  0
  -46.8861   60.0138   65.9762 C   0  0  0  0  0  0  0  0  0  0  0  0
  -48.3754   59.9202   66.2389 C   0  0  0  0  0  0  0  0  0  0  0  0
  -48.9994   58.6748   65.7370 C   0  0  0  0  0  0  0  0  0  0  0  0
  -50.0144   58.5981   64.9011 C   0  0  0  0  0  0  0  0  0  0  0  0
  -50.7318   59.7327   64.2451 C   0  0  0  0  0  0  0  0  0  0  0  0
  -51.1593   59.3380   62.8305 C   0  0  0  0  0  0  0  0  0  0  0  0
  -50.1782   58.4528   62.0759 C   0  0  0  0  0  0  0  0  0  0  0  0
  -49.7970   58.9516   60.6874 C   0  0  0  0  0  0  0  0  0  0  0  0
  -49.7886   57.8552   59.6273 C   0  0  0  0  0  0  0  0  0  0  0  0
  -49.1906   56.5427   60.1083 C   0  0  0  0  0  0  0  0  0  0  0  0
  -48.1300   55.9384   59.2003 C   0  0  0  0  0  0  0  0  0  0  0  0
  -47.8868   56.7559   57.9690 C   0  0  0  0  0  0  0  0  0  0  0  0
  -39.8950   58.6544   65.1423 O   0  0  0  0  0  0  0  0  0  0  0  0
  -38.5075   58.5928   65.5397 C   0  0  0  0  0  0  0  0  0  0  0  0
  -37.6186   58.1441   64.3992 C   0  0  0  0  0  0  0  0  0  0  0  0
  -38.3954   57.8111   63.2406 O   0  0  0  0  0  0  0  0  0  0  0  0
  -38.8617   58.6013   62.9259 H   0  0  0  0  0  0  0  0  0  0  0  0
  -36.5826   59.1796   64.0291 C   0  0  0  0  0  0  0  0  0  0  0  0
  -37.0913   60.1270   63.0590 O   0  0  0  0  0  0  0  0  0  0  0  0
  -37.9430   61.4787   63.2130 P   0  0  0  0  0  0  0  0  0  0  0  0
  -39.4083   61.1550   62.9266 O   0  0  0  0  0  0  0  0  0  0  0  0
  -37.4707   62.4536   62.2056 O   0  0  0  0  0  0  0  0  0  0  0  0
  -37.5510   62.0673   61.3194 H   0  0  0  0  0  0  0  0  0  0  0  0
  -37.8238   62.0953   64.7331 O   0  0  0  0  0  0  0  0  0  0  0  0
  -36.5882   62.4040   65.4337 C   0  0  0  0  0  0  0  0  0  0  0  0
  -36.0248   63.7151   64.9442 C   0  0  0  0  0  0  0  0  0  0  0  0
  -34.5533   63.7235   64.5736 N   0  0  0  0  0  0  0  0  0  0  0  0
  -33.9374   62.3883   64.8439 C   0  0  0  0  0  0  0  0  0  0  0  0
  -33.8586   64.7550   65.4006 C   0  0  0  0  0  0  0  0  0  0  0  0
  -34.3787   64.0523   63.1183 C   0  0  0  0  0  0  0  0  0  0  0  0
 34 33  1  0  0  0
 34 35  1  0  0  0
 34 36  1  0  0  0
 34 37  1  0  0  0
 22 23  1  0  0  0
 22 25  1  0  0  0
 22 21  1  0  0  0
 23 24  1  0  0  0
 27 26  1  0  0  0
 27 28  2  0  0  0
 27 31  1  0  0  0
 27 29  1  0  0  0
 25 26  1  0  0  0
 32 33  1  0  0  0
 32 31  1  0  0  0
 29 30  1  0  0  0
 20 21  1  0  0  0
 20  2  1  0  0  0
  1  2  2  0  0  0
  2  3  1  0  0  0
  3  4  1  0  0  0
  4  5  1  0  0  0
  5  6  1  0  0  0
  6  7  1  0  0  0
  7  8  1  0  0  0
  8  9  1  0  0  0
  9 10  1  0  0  0
 10 11  2  0  0  0
 11 12  1  0  0  0
 12 13  1  0  0  0
 13 14  1  0  0  0
 14 15  1  0  0  0
 15 16  1  0  0  0
 16 17  1  0  0  0
 17 18  1  0  0  0
 18 19  1  0  0  0
M  CHG 1  28  -1
M  END
> <minimizedAffinity>
-7.84598

> <CNNscore>
0.6598176360

> <CNNaffinity>
6.3586759567

> <CNN_VS>
4.1955666542

> <CNNaffinity_variance>
0.0822239667

$$$$
/media/chris/experiments/cd1a-new-docking/inputs/ligands/4x6e_ligand.pdb


 37 36  0  0  0  0  0  0  0  0999 V2000
  -41.0558   60.9335   64.4143 O   0  0  0  0  0  0  0  0  0  0  0  0
  -40.7457   60.3050   65.3959 C   0  0  0  0  0  0  0  0  0  0  0  0
  -41.4814   59.1150   65.9311 C   0  0  0  0  0  0  0  0  0  0  0  0
  -42.1642   59.3834   67.2669 C   0  0  0  0  0  0  0  0  0  0  0  0
  -43.6768   59.4955   67.1843 C   0  0  0  0  0  0  0  0  0  0  0  0
  -44.2441   59.0470   65.8491 C   0  0  0  0  0  0  0  0  0  0  0  0
  -45.6234   58.4225   65.9714 C   0  0  0  0  0  0  0  0  0  0  0  0
  -46.7077   59.4613   66.1523 C   0  0  0  0  0  0  0  0  0  0  0  0
  -47.7446   59.4955   65.0480 C   0  0  0  0  0  0  0  0  0  0  0  0
  -48.8376   58.5109   65.2159 C   0  0  0  0  0  0  0  0  0  0  0  0
  -50.0940   58.6780   64.8579 C   0  0  0  0  0  0  0  0  0  0  0  0
  -50.6874   59.8658   64.1727 C   0  0  0  0  0  0  0  0  0  0  0  0
  -50.7732   59.6163   62.6660 C   0  0  0  0  0  0  0  0  0  0  0  0
  -50.8676   58.1553   62.2514 C   0  0  0  0  0  0  0  0  0  0  0  0
  -49.7573   57.6756   61.3244 C   0  0  0  0  0  0  0  0  0  0  0  0
  -49.8143   58.2973   59.9329 C   0  0  0  0  0  0  0  0  0  0  0  0
  -49.0734   57.4969   58.8737 C   0  0  0  0  0  0  0  0  0  0  0  0
  -48.5680   56.1338   59.3221 C   0  0  0  0  0  0  0  0  0  0  0  0
  -47.1629   55.8623   58.8798 C   0  0  0  0  0  0  0  0  0  0  0  0
  -39.6787   60.5738   66.1540 O   0  0  0  0  0  0  0  0  0  0  0  0
  -38.3938   60.0889   65.7058 C   0  0  0  0  0  0  0  0  0  0  0  0
  -37.5788   61.1856   65.0537 C   0  0  0  0  0  0  0  0  0  0  0  0
  -37.5851   62.3767   65.8524 O   0  0  0  0  0  0  0  0  0  0  0  0
  -37.1617   62.1957   66.7061 H   0  0  0  0  0  0  0  0  0  0  0  0
  -36.1519   60.7673   64.7864 C   0  0  0  0  0  0  0  0  0  0  0  0
  -36.0628   59.8318   63.6845 O   0  0  0  0  0  0  0  0  0  0  0  0
  -35.6807   58.2743   63.6179 P   0  0  0  0  0  0  0  0  0  0  0  0
  -34.9101   57.9171   64.8877 O   0  0  0  0  0  0  0  0  0  0  0  0
  -34.7966   58.0528   62.4527 O   0  0  0  0  0  0  0  0  0  0  0  0
  -34.0138   58.6207   62.5283 H   0  0  0  0  0  0  0  0  0  0  0  0
  -37.0233   57.3285   63.5290 O   0  0  0  0  0  0  0  0  0  0  0  0
  -37.9377   57.2496   62.4018 C   0  0  0  0  0  0  0  0  0  0  0  0
  -39.0521   58.2537   62.5631 C   0  0  0  0  0  0  0  0  0  0  0  0
  -39.3486   59.1345   61.3635 N   0  0  0  0  0  0  0  0  0  0  0  0
  -40.8199   59.1874   61.1035 C   0  0  0  0  0  0  0  0  0  0  0  0
  -38.6646   58.5583   60.1675 C   0  0  0  0  0  0  0  0  0  0  0  0
  -38.8473   60.5309   61.5989 C   0  0  0  0  0  0  0  0  0  0  0  0
 34 33  1  0  0  0
 34 35  1  0  0  0
 34 36  1  0  0  0
 34 37  1  0  0  0
 22 23  1  0  0  0
 22 25  1  0  0  0
 22 21  1  0  0  0
 23 24  1  0  0  0
 27 26  1  0  0  0
 27 28  2  0  0  0
 27 31  1  0  0  0
 27 29  1  0  0  0
 25 26  1  0  0  0
 32 33  1  0  0  0
 32 31  1  0  0  0
 29 30  1  0  0  0
 20 21  1  0  0  0
 20  2  1  0  0  0
  1  2  2  0  0  0
  2  3  1  0  0  0
  3  4  1  0  0  0
  4  5  1  0  0  0
  5  6  1  0  0  0
  6  7  1  0  0  0
  7  8  1  0  0  0
  8  9  1  0  0  0
  9 10  1  0  0  0
 10 11  2  0  0  0
 11 12  1  0  0  0
 12 13  1  0  0  0
 13 14  1  0  0  0
 14 15  1  0  0  0
 15 16  1  0  0  0
 16 17  1  0  0  0
 17 18  1  0  0  0
 18 19  1  0  0  0
M  CHG 1  28  -1
M  END
> <minimizedAffinity>
-7.89600

> <CNNscore>
0.6559212208

> <CNNaffinity>
6.8509740829

> <CNN_VS>
4.4936990738

> <CNNaffinity_variance>
0.1067479700

$$$$
/media/chris/experiments/cd1a-new-docking/inputs/ligands/4x6e_ligand.pdb


 37 36  0  0  0  0  0  0  0  0999 V2000
  -40.2130   60.1412   66.1436 O   0  0  0  0  0  0  0  0  0  0  0  0
  -41.1357   59.3651   66.1136 C   0  0  0  0  0  0  0  0  0  0  0  0
  -42.1955   59.2378   67.1646 C   0  0  0  0  0  0  0  0  0  0  0  0
  -43.4813   58.6052   66.6458 C   0  0  0  0  0  0  0  0  0  0  0  0
  -44.5122   59.6034   66.1475 C   0  0  0  0  0  0  0  0  0  0  0  0
  -45.9319   59.0647   66.1630 C   0  0  0  0  0  0  0  0  0  0  0  0
  -45.9943   57.5675   66.4119 C   0  0  0  0  0  0  0  0  0  0  0  0
  -47.3993   57.0235   66.2789 C   0  0  0  0  0  0  0  0  0  0  0  0
  -48.2878   57.7881   65.3187 C   0  0  0  0  0  0  0  0  0  0  0  0
  -49.6094   58.1514   65.8789 C   0  0  0  0  0  0  0  0  0  0  0  0
  -50.4132   59.0903   65.4239 C   0  0  0  0  0  0  0  0  0  0  0  0
  -50.1976   59.9635   64.2308 C   0  0  0  0  0  0  0  0  0  0  0  0
  -51.1112   59.5248   63.0851 C   0  0  0  0  0  0  0  0  0  0  0  0
  -50.4260   59.3391   61.7392 C   0  0  0  0  0  0  0  0  0  0  0  0
  -49.7139   58.0042   61.5577 C   0  0  0  0  0  0  0  0  0  0  0  0
  -50.0814   57.2889   60.2617 C   0  0  0  0  0  0  0  0  0  0  0  0
  -48.9530   57.2482   59.2435 C   0  0  0  0  0  0  0  0  0  0  0  0
  -48.0611   56.0174   59.3083 C   0  0  0  0  0  0  0  0  0  0  0  0
  -47.2120   55.8519   58.0855 C   0  0  0  0  0  0  0  0  0  0  0  0
  -41.3587   58.5010   65.1190 O   0  0  0  0  0  0  0  0  0  0  0  0
  -40.2435   57.7124   64.6485 C   0  0  0  0  0  0  0  0  0  0  0  0
  -40.6487   56.7889   63.5193 C   0  0  0  0  0  0  0  0  0  0  0  0
  -42.0321   56.9617   63.1833 O   0  0  0  0  0  0  0  0  0  0  0  0
  -42.1758   57.8648   62.8595 H   0  0  0  0  0  0  0  0  0  0  0  0
  -39.8033   56.9799   62.2819 C   0  0  0  0  0  0  0  0  0  0  0  0
  -40.0133   58.2813   61.6822 O   0  0  0  0  0  0  0  0  0  0  0  0
  -39.0416   59.2645   60.8666 P   0  0  0  0  0  0  0  0  0  0  0  0
  -39.8940   60.3669   60.2404 O   0  0  0  0  0  0  0  0  0  0  0  0
  -38.3935   58.4967   59.7809 O   0  0  0  0  0  0  0  0  0  0  0  0
  -39.0740   58.0995   59.2150 H   0  0  0  0  0  0  0  0  0  0  0  0
  -37.9206   59.9561   61.8515 O   0  0  0  0  0  0  0  0  0  0  0  0
  -38.1380   60.3816   63.2242 C   0  0  0  0  0  0  0  0  0  0  0  0
  -36.8571   60.2707   64.0136 C   0  0  0  0  0  0  0  0  0  0  0  0
  -36.3086   61.5589   64.5987 N   0  0  0  0  0  0  0  0  0  0  0  0
  -36.8567   62.7417   63.8668 C   0  0  0  0  0  0  0  0  0  0  0  0
  -34.8214   61.5500   64.4621 C   0  0  0  0  0  0  0  0  0  0  0  0
  -36.6742   61.6753   66.0510 C   0  0  0  0  0  0  0  0  0  0  0  0
 34 33  1  0  0  0
 34 35  1  0  0  0
 34 36  1  0  0  0
 34 37  1  0  0  0
 22 23  1  0  0  0
 22 25  1  0  0  0
 22 21  1  0  0  0
 23 24  1  0  0  0
 27 26  1  0  0  0
 27 28  2  0  0  0
 27 31  1  0  0  0
 27 29  1  0  0  0
 25 26  1  0  0  0
 32 33  1  0  0  0
 32 31  1  0  0  0
 29 30  1  0  0  0
 20 21  1  0  0  0
 20  2  1  0  0  0
  1  2  2  0  0  0
  2  3  1  0  0  0
  3  4  1  0  0  0
  4  5  1  0  0  0
  5  6  1  0  0  0
  6  7  1  0  0  0
  7  8  1  0  0  0
  8  9  1  0  0  0
  9 10  1  0  0  0
 10 11  2  0  0  0
 11 12  1  0  0  0
 12 13  1  0  0  0
 13 14  1  0  0  0
 14 15  1  0  0  0
 15 16  1  0  0  0
 16 17  1  0  0  0
 17 18  1  0  0  0
 18 19  1  0  0  0
M  CHG 1  28  -1
M  END
> <minimizedAffinity>
-7.86136

> <CNNscore>
0.5943824053

> <CNNaffinity>
6.8880500793

> <CNN_VS>
4.0941357613

> <CNNaffinity_variance>
0.4372720718

$$$$
/media/chris/experiments/cd1a-new-docking/inputs/ligands/4x6e_ligand.pdb


 37 36  0  0  0  0  0  0  0  0999 V2000
  -41.6501   60.8738   64.7870 O   0  0  0  0  0  0  0  0  0  0  0  0
  -41.2962   60.4443   65.8571 C   0  0  0  0  0  0  0  0  0  0  0  0
  -42.0194   59.4032   66.6551 C   0  0  0  0  0  0  0  0  0  0  0  0
  -43.5299   59.4369   66.4553 C   0  0  0  0  0  0  0  0  0  0  0  0
  -44.0725   58.3057   65.5988 C   0  0  0  0  0  0  0  0  0  0  0  0
  -44.8051   58.7851   64.3581 C   0  0  0  0  0  0  0  0  0  0  0  0
  -45.5296   60.1033   64.5704 C   0  0  0  0  0  0  0  0  0  0  0  0
  -46.9181   59.9081   65.1376 C   0  0  0  0  0  0  0  0  0  0  0  0
  -47.7940   58.9498   64.3563 C   0  0  0  0  0  0  0  0  0  0  0  0
  -48.9267   58.3975   65.1336 C   0  0  0  0  0  0  0  0  0  0  0  0
  -50.1858   58.7732   65.0433 C   0  0  0  0  0  0  0  0  0  0  0  0
  -50.7581   59.7990   64.1199 C   0  0  0  0  0  0  0  0  0  0  0  0
  -51.0789   59.1669   62.7644 C   0  0  0  0  0  0  0  0  0  0  0  0
  -50.2635   59.6908   61.5914 C   0  0  0  0  0  0  0  0  0  0  0  0
  -49.9297   58.6546   60.5250 C   0  0  0  0  0  0  0  0  0  0  0  0
  -49.3045   57.3820   61.0868 C   0  0  0  0  0  0  0  0  0  0  0  0
  -49.2472   56.2359   60.0894 C   0  0  0  0  0  0  0  0  0  0  0  0
  -47.9970   56.1875   59.2237 C   0  0  0  0  0  0  0  0  0  0  0  0
  -48.1419   56.9659   57.9522 C   0  0  0  0  0  0  0  0  0  0  0  0
  -40.1854   60.8304   66.4915 O   0  0  0  0  0  0  0  0  0  0  0  0
  -38.9823   60.0612   66.2730 C   0  0  0  0  0  0  0  0  0  0  0  0
  -37.8225   60.9424   65.8600 C   0  0  0  0  0  0  0  0  0  0  0  0
  -37.0321   61.3199   66.9956 O   0  0  0  0  0  0  0  0  0  0  0  0
  -36.6412   60.5272   67.3951 H   0  0  0  0  0  0  0  0  0  0  0  0
  -36.9364   60.2883   64.8259 C   0  0  0  0  0  0  0  0  0  0  0  0
  -37.6811   59.9035   63.6450 O   0  0  0  0  0  0  0  0  0  0  0  0
  -38.3418   60.7586   62.4582 P   0  0  0  0  0  0  0  0  0  0  0  0
  -37.6044   62.0932   62.3636 O   0  0  0  0  0  0  0  0  0  0  0  0
  -39.7567   61.0257   62.7976 O   0  0  0  0  0  0  0  0  0  0  0  0
  -39.8034   61.4840   63.6513 H   0  0  0  0  0  0  0  0  0  0  0  0
  -38.2174   59.9807   61.0145 O   0  0  0  0  0  0  0  0  0  0  0  0
  -39.1803   59.0394   60.4672 C   0  0  0  0  0  0  0  0  0  0  0  0
  -39.2666   57.8136   61.3425 C   0  0  0  0  0  0  0  0  0  0  0  0
  -40.6134   57.5322   61.9825 N   0  0  0  0  0  0  0  0  0  0  0  0
  -41.0603   56.1397   61.6718 C   0  0  0  0  0  0  0  0  0  0  0  0
  -41.6133   58.4966   61.4344 C   0  0  0  0  0  0  0  0  0  0  0  0
  -40.5318   57.6937   63.4738 C   0  0  0  0  0  0  0  0  0  0  0  0
 34 33  1  0  0  0
 34 35  1  0  0  0
 34 36  1  0  0  0
 34 37  1  0  0  0
 22 23  1  0  0  0
 22 25  1  0  0  0
 22 21  1  0  0  0
 23 24  1  0  0  0
 27 26  1  0  0  0
 27 28  2  0  0  0
 27 31  1  0  0  0
 27 29  1  0  0  0
 25 26  1  0  0  0
 32 33  1  0  0  0
 32 31  1  0  0  0
 29 30  1  0  0  0
 20 21  1  0  0  0
 20  2  1  0  0  0
  1  2  2  0  0  0
  2  3  1  0  0  0
  3  4  1  0  0  0
  4  5  1  0  0  0
  5  6  1  0  0  0
  6  7  1  0  0  0
  7  8  1  0  0  0
  8  9  1  0  0  0
  9 10  1  0  0  0
 10 11  2  0  0  0
 11 12  1  0  0  0
 12 13  1  0  0  0
 13 14  1  0  0  0
 14 15  1  0  0  0
 15 16  1  0  0  0
 16 17  1  0  0  0
 17 18  1  0  0  0
 18 19  1  0  0  0
M  CHG 1  28  -1
M  END
> <minimizedAffinity>
-7.83278

> <CNNscore>
0.5822933316

> <CNNaffinity>
6.8570771217

> <CNN_VS>
3.9928302765

> <CNNaffinity_variance>
0.1302075386

$$$$
/media/chris/experiments/cd1a-new-docking/inputs/ligands/4x6e_ligand.pdb


 37 36  0  0  0  0  0  0  0  0999 V2000
  -40.8560   60.0962   66.4423 O   0  0  0  0  0  0  0  0  0  0  0  0
  -41.6058   60.3241   65.5254 C   0  0  0  0  0  0  0  0  0  0  0  0
  -43.0053   59.8050   65.4009 C   0  0  0  0  0  0  0  0  0  0  0  0
  -43.4118   58.8948   66.5537 C   0  0  0  0  0  0  0  0  0  0  0  0
  -44.1822   57.6560   66.1303 C   0  0  0  0  0  0  0  0  0  0  0  0
  -45.6520   57.6993   66.5094 C   0  0  0  0  0  0  0  0  0  0  0  0
  -46.0885   59.0566   67.0336 C   0  0  0  0  0  0  0  0  0  0  0  0
  -47.4875   59.4192   66.5877 C   0  0  0  0  0  0  0  0  0  0  0  0
  -48.0330   58.5714   65.4566 C   0  0  0  0  0  0  0  0  0  0  0  0
  -49.4913   58.3276   65.5344 C   0  0  0  0  0  0  0  0  0  0  0  0
  -50.4218   58.9654   64.8547 C   0  0  0  0  0  0  0  0  0  0  0  0
  -50.2194   60.0372   63.8335 C   0  0  0  0  0  0  0  0  0  0  0  0
  -50.0997   59.4202   62.4390 C   0  0  0  0  0  0  0  0  0  0  0  0
  -50.8668   58.1224   62.2323 C   0  0  0  0  0  0  0  0  0  0  0  0
  -50.8566   57.5884   60.8051 C   0  0  0  0  0  0  0  0  0  0  0  0
  -50.0028   58.4168   59.8507 C   0  0  0  0  0  0  0  0  0  0  0  0
  -49.1048   57.5826   58.9511 C   0  0  0  0  0  0  0  0  0  0  0  0
  -48.3962   56.4221   59.6335 C   0  0  0  0  0  0  0  0  0  0  0  0
  -47.3644   55.7782   58.7592 C   0  0  0  0  0  0  0  0  0  0  0  0
  -41.2985   61.0938   64.4771 O   0  0  0  0  0  0  0  0  0  0  0  0
  -40.7989   60.4443   63.2874 C   0  0  0  0  0  0  0  0  0  0  0  0
  -39.3160   60.6854   63.0995 C   0  0  0  0  0  0  0  0  0  0  0  0
  -38.7282   61.2322   64.2878 O   0  0  0  0  0  0  0  0  0  0  0  0
  -38.8089   60.5924   65.0123 H   0  0  0  0  0  0  0  0  0  0  0  0
  -38.5707   59.4334   62.7003 C   0  0  0  0  0  0  0  0  0  0  0  0
  -37.1359   59.6276   62.7332 O   0  0  0  0  0  0  0  0  0  0  0  0
  -35.9505   58.8062   63.4375 P   0  0  0  0  0  0  0  0  0  0  0  0
  -34.6807   58.9960   62.6095 O   0  0  0  0  0  0  0  0  0  0  0  0
  -36.3033   57.3696   63.4356 O   0  0  0  0  0  0  0  0  0  0  0  0
  -36.4627   57.0771   62.5245 H   0  0  0  0  0  0  0  0  0  0  0  0
  -35.6714   59.3438   64.9666 O   0  0  0  0  0  0  0  0  0  0  0  0
  -34.6949   60.3492   65.3521 C   0  0  0  0  0  0  0  0  0  0  0  0
  -35.3769   61.4943   66.0591 C   0  0  0  0  0  0  0  0  0  0  0  0
  -35.2814   62.8544   65.3929 N   0  0  0  0  0  0  0  0  0  0  0  0
  -33.9621   63.4919   65.6902 C   0  0  0  0  0  0  0  0  0  0  0  0
  -36.3720   63.7245   65.9257 C   0  0  0  0  0  0  0  0  0  0  0  0
  -35.4320   62.7233   63.9041 C   0  0  0  0  0  0  0  0  0  0  0  0
 34 33  1  0  0  0
 34 35  1  0  0  0
 34 36  1  0  0  0
 34 37  1  0  0  0
 22 23  1  0  0  0
 22 25  1  0  0  0
 22 21  1  0  0  0
 23 24  1  0  0  0
 27 26  1  0  0  0
 27 28  2  0  0  0
 27 31  1  0  0  0
 27 29  1  0  0  0
 25 26  1  0  0  0
 32 33  1  0  0  0
 32 31  1  0  0  0
 29 30  1  0  0  0
 20 21  1  0  0  0
 20  2  1  0  0  0
  1  2  2  0  0  0
  2  3  1  0  0  0
  3  4  1  0  0  0
  4  5  1  0  0  0
  5  6  1  0  0  0
  6  7  1  0  0  0
  7  8  1  0  0  0
  8  9  1  0  0  0
  9 10  1  0  0  0
 10 11  2  0  0  0
 11 12  1  0  0  0
 12 13  1  0  0  0
 13 14  1  0  0  0
 14 15  1  0  0  0
 15 16  1  0  0  0
 16 17  1  0  0  0
 17 18  1  0  0  0
 18 19  1  0  0  0
M  CHG 1  28  -1
M  END
> <minimizedAffinity>
-7.68284

> <CNNscore>
0.5801285505

> <CNNaffinity>
6.5218973160

> <CNN_VS>
3.7835388184

> <CNNaffinity_variance>
0.3679615259

$$$$
/media/chris/experiments/cd1a-new-docking/inputs/ligands/4x6e_ligand.pdb


 37 36  0  0  0  0  0  0  0  0999 V2000
  -41.2263   56.7767   63.9172 O   0  0  0  0  0  0  0  0  0  0  0  0
  -40.8417   57.8964   64.1478 C   0  0  0  0  0  0  0  0  0  0  0  0
  -41.5225   58.8774   65.0522 C   0  0  0  0  0  0  0  0  0  0  0  0
  -42.3038   58.2118   66.1788 C   0  0  0  0  0  0  0  0  0  0  0  0
  -43.8038   58.4446   66.1216 C   0  0  0  0  0  0  0  0  0  0  0  0
  -44.4662   57.8215   64.9054 C   0  0  0  0  0  0  0  0  0  0  0  0
  -45.3314   58.8035   64.1343 C   0  0  0  0  0  0  0  0  0  0  0  0
  -45.9701   59.8350   65.0374 C   0  0  0  0  0  0  0  0  0  0  0  0
  -46.9250   60.7837   64.3417 C   0  0  0  0  0  0  0  0  0  0  0  0
  -48.3012   60.7621   64.8874 C   0  0  0  0  0  0  0  0  0  0  0  0
  -49.4043   60.5435   64.2017 C   0  0  0  0  0  0  0  0  0  0  0  0
  -49.5149   60.2308   62.7449 C   0  0  0  0  0  0  0  0  0  0  0  0
  -50.6825   59.2738   62.4988 C   0  0  0  0  0  0  0  0  0  0  0  0
  -50.2992   57.9016   61.9642 C   0  0  0  0  0  0  0  0  0  0  0  0
  -50.9519   57.5204   60.6411 C   0  0  0  0  0  0  0  0  0  0  0  0
  -50.1359   57.9293   59.4192 C   0  0  0  0  0  0  0  0  0  0  0  0
  -48.8953   57.0786   59.1985 C   0  0  0  0  0  0  0  0  0  0  0  0
  -48.2633   57.1936   57.8193 C   0  0  0  0  0  0  0  0  0  0  0  0
  -47.1877   56.1771   57.5880 C   0  0  0  0  0  0  0  0  0  0  0  0
  -39.7300   58.4299   63.6329 O   0  0  0  0  0  0  0  0  0  0  0  0
  -39.6230   58.5072   62.1944 C   0  0  0  0  0  0  0  0  0  0  0  0
  -38.8247   59.7171   61.7573 C   0  0  0  0  0  0  0  0  0  0  0  0
  -39.1712   60.1082   60.4218 O   0  0  0  0  0  0  0  0  0  0  0  0
  -40.1035   60.3746   60.3946 H   0  0  0  0  0  0  0  0  0  0  0  0
  -38.9998   60.8947   62.6874 C   0  0  0  0  0  0  0  0  0  0  0  0
  -37.8379   61.7591   62.6859 O   0  0  0  0  0  0  0  0  0  0  0  0
  -36.9924   62.4345   63.8713 P   0  0  0  0  0  0  0  0  0  0  0  0
  -37.5319   61.9105   65.2011 O   0  0  0  0  0  0  0  0  0  0  0  0
  -37.1972   63.8988   63.8245 O   0  0  0  0  0  0  0  0  0  0  0  0
  -38.1449   64.0950   63.8907 H   0  0  0  0  0  0  0  0  0  0  0  0
  -35.3953   62.0576   63.7618 O   0  0  0  0  0  0  0  0  0  0  0  0
  -34.7233   60.9789   64.4673 C   0  0  0  0  0  0  0  0  0  0  0  0
  -33.9791   60.1015   63.4914 C   0  0  0  0  0  0  0  0  0  0  0  0
  -34.2638   58.6129   63.5660 N   0  0  0  0  0  0  0  0  0  0  0  0
  -35.5955   58.3033   62.9612 C   0  0  0  0  0  0  0  0  0  0  0  0
  -34.2747   58.2002   65.0013 C   0  0  0  0  0  0  0  0  0  0  0  0
  -33.2063   57.8372   62.8333 C   0  0  0  0  0  0  0  0  0  0  0  0
 34 33  1  0  0  0
 34 35  1  0  0  0
 34 36  1  0  0  0
 34 37  1  0  0  0
 22 23  1  0  0  0
 22 25  1  0  0  0
 22 21  1  0  0  0
 23 24  1  0  0  0
 27 26  1  0  0  0
 27 28  2  0  0  0
 27 31  1  0  0  0
 27 29  1  0  0  0
 25 26  1  0  0  0
 32 33  1  0  0  0
 32 31  1  0  0  0
 29 30  1  0  0  0
 20 21  1  0  0  0
 20  2  1  0  0  0
  1  2  2  0  0  0
  2  3  1  0  0  0
  3  4  1  0  0  0
  4  5  1  0  0  0
  5  6  1  0  0  0
  6  7  1  0  0  0
  7  8  1  0  0  0
  8  9  1  0  0  0
  9 10  1  0  0  0
 10 11  2  0  0  0
 11 12  1  0  0  0
 12 13  1  0  0  0
 13 14  1  0  0  0
 14 15  1  0  0  0
 15 16  1  0  0  0
 16 17  1  0  0  0
 17 18  1  0  0  0
 18 19  1  0  0  0
M  CHG 1  28  -1
M  END
> <minimizedAffinity>
-7.83836

> <CNNscore>
0.5394251943

> <CNNaffinity>
6.5267806053

> <CNN_VS>
3.5207099915

> <CNNaffinity_variance>
0.1121739149

$$$$
/media/chris/experiments/cd1a-new-docking/inputs/ligands/4x6e_ligand.pdb


 37 36  0  0  0  0  0  0  0  0999 V2000
  -38.3196   59.0602   66.0255 O   0  0  0  0  0  0  0  0  0  0  0  0
  -38.9743   60.0724   66.0633 C   0  0  0  0  0  0  0  0  0  0  0  0
  -40.4707   60.1378   66.0451 C   0  0  0  0  0  0  0  0  0  0  0  0
  -41.1267   58.7861   65.7892 C   0  0  0  0  0  0  0  0  0  0  0  0
  -42.3699   58.5269   66.6227 C   0  0  0  0  0  0  0  0  0  0  0  0
  -42.9330   57.1274   66.4490 C   0  0  0  0  0  0  0  0  0  0  0  0
  -44.2520   57.1092   65.6957 C   0  0  0  0  0  0  0  0  0  0  0  0
  -45.2694   58.0506   66.3008 C   0  0  0  0  0  0  0  0  0  0  0  0
  -46.4383   57.3690   66.9827 C   0  0  0  0  0  0  0  0  0  0  0  0
  -47.5666   57.0561   66.0764 C   0  0  0  0  0  0  0  0  0  0  0  0
  -48.5213   57.8867   65.7109 C   0  0  0  0  0  0  0  0  0  0  0  0
  -48.6598   59.3257   66.0885 C   0  0  0  0  0  0  0  0  0  0  0  0
  -49.7023   60.0054   65.1992 C   0  0  0  0  0  0  0  0  0  0  0  0
  -49.4556   59.8921   63.7019 C   0  0  0  0  0  0  0  0  0  0  0  0
  -50.6977   59.6155   62.8635 C   0  0  0  0  0  0  0  0  0  0  0  0
  -50.8337   58.1569   62.4391 C   0  0  0  0  0  0  0  0  0  0  0  0
  -49.7593   57.6997   61.4654 C   0  0  0  0  0  0  0  0  0  0  0  0
  -49.7088   58.4583   60.1476 C   0  0  0  0  0  0  0  0  0  0  0  0
  -49.5371   57.5551   58.9650 C   0  0  0  0  0  0  0  0  0  0  0  0
  -38.4544   61.3010   66.1405 O   0  0  0  0  0  0  0  0  0  0  0  0
  -37.4820   61.6853   65.1437 C   0  0  0  0  0  0  0  0  0  0  0  0
  -36.1303   61.9719   65.7625 C   0  0  0  0  0  0  0  0  0  0  0  0
  -36.2253   62.0589   67.1908 O   0  0  0  0  0  0  0  0  0  0  0  0
  -36.5112   61.2037   67.5485 H   0  0  0  0  0  0  0  0  0  0  0  0
  -35.0912   60.9405   65.3898 C   0  0  0  0  0  0  0  0  0  0  0  0
  -35.5111   60.1373   64.2603 O   0  0  0  0  0  0  0  0  0  0  0  0
  -35.0082   58.7218   63.6949 P   0  0  0  0  0  0  0  0  0  0  0  0
  -34.7128   57.8101   64.8846 O   0  0  0  0  0  0  0  0  0  0  0  0
  -33.7534   58.9320   62.9400 O   0  0  0  0  0  0  0  0  0  0  0  0
  -33.0960   59.3524   63.5163 H   0  0  0  0  0  0  0  0  0  0  0  0
  -36.1523   58.0093   62.7524 O   0  0  0  0  0  0  0  0  0  0  0  0
  -37.4883   57.6248   63.1767 C   0  0  0  0  0  0  0  0  0  0  0  0
  -38.3083   57.1904   61.9872 C   0  0  0  0  0  0  0  0  0  0  0  0
  -39.1295   58.2666   61.3015 N   0  0  0  0  0  0  0  0  0  0  0  0
  -39.5884   59.2869   62.2932 C   0  0  0  0  0  0  0  0  0  0  0  0
  -40.3246   57.6278   60.6737 C   0  0  0  0  0  0  0  0  0  0  0  0
  -38.3171   58.9528   60.2405 C   0  0  0  0  0  0  0  0  0  0  0  0
 34 33  1  0  0  0
 34 35  1  0  0  0
 34 36  1  0  0  0
 34 37  1  0  0  0
 22 23  1  0  0  0
 22 25  1  0  0  0
 22 21  1  0  0  0
 23 24  1  0  0  0
 27 26  1  0  0  0
 27 28  2  0  0  0
 27 31  1  0  0  0
 27 29  1  0  0  0
 25 26  1  0  0  0
 32 33  1  0  0  0
 32 31  1  0  0  0
 29 30  1  0  0  0
 20 21  1  0  0  0
 20  2  1  0  0  0
  1  2  2  0  0  0
  2  3  1  0  0  0
  3  4  1  0  0  0
  4  5  1  0  0  0
  5  6  1  0  0  0
  6  7  1  0  0  0
  7  8  1  0  0  0
  8  9  1  0  0  0
  9 10  1  0  0  0
 10 11  2  0  0  0
 11 12  1  0  0  0
 12 13  1  0  0  0
 13 14  1  0  0  0
 14 15  1  0  0  0
 15 16  1  0  0  0
 16 17  1  0  0  0
 17 18  1  0  0  0
 18 19  1  0  0  0
M  CHG 1  28  -1
M  END
> <minimizedAffinity>
-7.65320

> <CNNscore>
0.5344719887

> <CNNaffinity>
6.6799888611

> <CNN_VS>
3.5702669621

> <CNNaffinity_variance>
0.1332087070

$$$$
/media/chris/experiments/cd1a-new-docking/inputs/ligands/4x6e_ligand.pdb


 37 36  0  0  0  0  0  0  0  0999 V2000
  -40.7746   56.8222   63.3057 O   0  0  0  0  0  0  0  0  0  0  0  0
  -41.3506   57.5791   64.0473 C   0  0  0  0  0  0  0  0  0  0  0  0
  -41.8494   57.2375   65.4178 C   0  0  0  0  0  0  0  0  0  0  0  0
  -43.1699   56.4768   65.4027 C   0  0  0  0  0  0  0  0  0  0  0  0
  -44.3869   57.3310   65.7139 C   0  0  0  0  0  0  0  0  0  0  0  0
  -44.0853   58.4995   66.6357 C   0  0  0  0  0  0  0  0  0  0  0  0
  -44.9459   59.7179   66.3481 C   0  0  0  0  0  0  0  0  0  0  0  0
  -45.2899   59.8419   64.8805 C   0  0  0  0  0  0  0  0  0  0  0  0
  -46.7191   60.2571   64.5963 C   0  0  0  0  0  0  0  0  0  0  0  0
  -47.5269   60.5095   65.8112 C   0  0  0  0  0  0  0  0  0  0  0  0
  -48.4687   59.7251   66.2933 C   0  0  0  0  0  0  0  0  0  0  0  0
  -48.9032   58.4002   65.7562 C   0  0  0  0  0  0  0  0  0  0  0  0
  -50.3063   58.5094   65.1568 C   0  0  0  0  0  0  0  0  0  0  0  0
  -50.5761   59.7740   64.3548 C   0  0  0  0  0  0  0  0  0  0  0  0
  -51.1777   59.5448   62.9736 C   0  0  0  0  0  0  0  0  0  0  0  0
  -50.1740   59.7087   61.8371 C   0  0  0  0  0  0  0  0  0  0  0  0
  -49.5202   58.4059   61.4048 C   0  0  0  0  0  0  0  0  0  0  0  0
  -50.3273   57.5650   60.4269 C   0  0  0  0  0  0  0  0  0  0  0  0
  -49.6823   57.4650   59.0787 C   0  0  0  0  0  0  0  0  0  0  0  0
  -41.6215   58.8549   63.7567 O   0  0  0  0  0  0  0  0  0  0  0  0
  -42.3542   59.1287   62.5422 C   0  0  0  0  0  0  0  0  0  0  0  0
  -41.7027   60.2295   61.7322 C   0  0  0  0  0  0  0  0  0  0  0  0
  -40.7664   60.9694   62.5274 O   0  0  0  0  0  0  0  0  0  0  0  0
  -40.0490   60.3819   62.8124 H   0  0  0  0  0  0  0  0  0  0  0  0
  -41.0094   59.7072   60.4956 C   0  0  0  0  0  0  0  0  0  0  0  0
  -39.9997   58.7213   60.8205 O   0  0  0  0  0  0  0  0  0  0  0  0
  -38.4001   58.8062   60.9222 P   0  0  0  0  0  0  0  0  0  0  0  0
  -38.0254   60.2121   61.3881 O   0  0  0  0  0  0  0  0  0  0  0  0
  -37.8276   58.5883   59.5757 O   0  0  0  0  0  0  0  0  0  0  0  0
  -38.1923   59.2428   58.9595 H   0  0  0  0  0  0  0  0  0  0  0  0
  -37.8067   57.7149   62.0001 O   0  0  0  0  0  0  0  0  0  0  0  0
  -37.1380   58.0295   63.2517 C   0  0  0  0  0  0  0  0  0  0  0  0
  -35.6638   57.7269   63.1456 C   0  0  0  0  0  0  0  0  0  0  0  0
  -34.7182   58.7416   63.7613 N   0  0  0  0  0  0  0  0  0  0  0  0
  -34.1590   58.2236   65.0474 C   0  0  0  0  0  0  0  0  0  0  0  0
  -35.4779   59.9983   64.0335 C   0  0  0  0  0  0  0  0  0  0  0  0
  -33.5828   59.0397   62.8240 C   0  0  0  0  0  0  0  0  0  0  0  0
 34 33  1  0  0  0
 34 35  1  0  0  0
 34 36  1  0  0  0
 34 37  1  0  0  0
 22 23  1  0  0  0
 22 25  1  0  0  0
 22 21  1  0  0  0
 23 24  1  0  0  0
 27 26  1  0  0  0
 27 28  2  0  0  0
 27 31  1  0  0  0
 27 29  1  0  0  0
 25 26  1  0  0  0
 32 33  1  0  0  0
 32 31  1  0  0  0
 29 30  1  0  0  0
 20 21  1  0  0  0
 20  2  1  0  0  0
  1  2  2  0  0  0
  2  3  1  0  0  0
  3  4  1  0  0  0
  4  5  1  0  0  0
  5  6  1  0  0  0
  6  7  1  0  0  0
  7  8  1  0  0  0
  8  9  1  0  0  0
  9 10  1  0  0  0
 10 11  2  0  0  0
 11 12  1  0  0  0
 12 13  1  0  0  0
 13 14  1  0  0  0
 14 15  1  0  0  0
 15 16  1  0  0  0
 16 17  1  0  0  0
 17 18  1  0  0  0
 18 19  1  0  0  0
M  CHG 1  28  -1
M  END
> <minimizedAffinity>
-7.32328

> <CNNscore>
0.5095351934

> <CNNaffinity>
6.6847724915

> <CNN_VS>
3.4061267376

> <CNNaffinity_variance>
0.1154876798

$$$$
