/media/chris/experiments/cd1a-new-docking/inputs/ligands/4x6e_ligand.pdb


 37 36  0  0  0  0  0  0  0  0999 V2000
  -41.9816   56.1692   63.6387 O   0  0  0  0  0  0  0  0  0  0  0  0
  -42.4983   56.9808   64.3661 C   0  0  0  0  0  0  0  0  0  0  0  0
  -42.8059   56.7721   65.8172 C   0  0  0  0  0  0  0  0  0  0  0  0
  -43.6392   57.8963   66.4210 C   0  0  0  0  0  0  0  0  0  0  0  0
  -45.1398   57.6750   66.3399 C   0  0  0  0  0  0  0  0  0  0  0  0
  -45.9418   58.6596   67.1726 C   0  0  0  0  0  0  0  0  0  0  0  0
  -47.0980   59.2790   66.4064 C   0  0  0  0  0  0  0  0  0  0  0  0
  -47.4451   58.4938   65.1612 C   0  0  0  0  0  0  0  0  0  0  0  0
  -48.8767   58.0012   65.0998 C   0  0  0  0  0  0  0  0  0  0  0  0
  -49.8835   59.0272   65.4548 C   0  0  0  0  0  0  0  0  0  0  0  0
  -50.3917   59.9295   64.6411 C   0  0  0  0  0  0  0  0  0  0  0  0
  -50.1040   60.0961   63.1844 C   0  0  0  0  0  0  0  0  0  0  0  0
  -51.1765   59.3917   62.3518 C   0  0  0  0  0  0  0  0  0  0  0  0
  -50.8299   57.9801   61.9017 C   0  0  0  0  0  0  0  0  0  0  0  0
  -49.7721   57.8941   60.8082 C   0  0  0  0  0  0  0  0  0  0  0  0
  -49.3258   56.4680   60.5032 C   0  0  0  0  0  0  0  0  0  0  0  0
  -48.3045   56.3727   59.3809 C   0  0  0  0  0  0  0  0  0  0  0  0
  -48.5507   57.2945   58.1959 C   0  0  0  0  0  0  0  0  0  0  0  0
  -47.5266   57.1347   57.1146 C   0  0  0  0  0  0  0  0  0  0  0  0
  -42.8666   58.2067   63.9825 O   0  0  0  0  0  0  0  0  0  0  0  0
  -43.2594   58.3924   62.6049 C   0  0  0  0  0  0  0  0  0  0  0  0
  -42.0601   58.4299   61.6816 C   0  0  0  0  0  0  0  0  0  0  0  0
  -42.1621   57.4257   60.6630 O   0  0  0  0  0  0  0  0  0  0  0  0
  -42.9370   57.6057   60.1079 H   0  0  0  0  0  0  0  0  0  0  0  0
  -41.8665   59.7822   61.0366 C   0  0  0  0  0  0  0  0  0  0  0  0
  -40.4684   60.0633   60.7848 O   0  0  0  0  0  0  0  0  0  0  0  0
  -39.1734   60.0369   61.7326 P   0  0  0  0  0  0  0  0  0  0  0  0
  -39.5349   60.7138   63.0538 O   0  0  0  0  0  0  0  0  0  0  0  0
  -38.0958   60.8157   61.0843 O   0  0  0  0  0  0  0  0  0  0  0  0
  -38.4075   61.7181   60.9125 H   0  0  0  0  0  0  0  0  0  0  0  0
  -38.6853   58.4970   62.0421 O   0  0  0  0  0  0  0  0  0  0  0  0
  -37.3092   58.0513   62.1861 C   0  0  0  0  0  0  0  0  0  0  0  0
  -36.5209   59.0475   63.0000 C   0  0  0  0  0  0  0  0  0  0  0  0
  -36.2307   58.6666   64.4399 N   0  0  0  0  0  0  0  0  0  0  0  0
  -35.8998   57.2122   64.5406 C   0  0  0  0  0  0  0  0  0  0  0  0
  -37.4458   58.9462   65.2619 C   0  0  0  0  0  0  0  0  0  0  0  0
  -35.0750   59.4648   64.9729 C   0  0  0  0  0  0  0  0  0  0  0  0
 34 33  1  0  0  0
 34 35  1  0  0  0
 34 36  1  0  0  0
 34 37  1  0  0  0
 22 23  1  0  0  0
 22 25  1  0  0  0
 22 21  1  0  0  0
 23 24  1  0  0  0
 27 26  1  0  0  0
 27 28  2  0  0  0
 27 31  1  0  0  0
 27 29  1  0  0  0
 25 26  1  0  0  0
 32 33  1  0  0  0
 32 31  1  0  0  0
 29 30  1  0  0  0
 20 21  1  0  0  0
 20  2  1  0  0  0
  1  2  2  0  0  0
  2  3  1  0  0  0
  3  4  1  0  0  0
  4  5  1  0  0  0
  5  6  1  0  0  0
  6  7  1  0  0  0
  7  8  1  0  0  0
  8  9  1  0  0  0
  9 10  1  0  0  0
 10 11  2  0  0  0
 11 12  1  0  0  0
 12 13  1  0  0  0
 13 14  1  0  0  0
 14 15  1  0  0  0
 15 16  1  0  0  0
 16 17  1  0  0  0
 17 18  1  0  0  0
 18 19  1  0  0  0
M  CHG 1  28  -1
M  END
> <minimizedAffinity>
-7.69361

> <CNNscore>
0.7840604782

> <CNNaffinity>
6.9422326088

> <CNN_VS>
5.4431300163

> <CNNaffinity_variance>
0.3204730153

$$$$
/media/chris/experiments/cd1a-new-docking/inputs/ligands/4x6e_ligand.pdb


 37 36  0  0  0  0  0  0  0  0999 V2000
  -42.7406   55.6607   64.9361 O   0  0  0  0  0  0  0  0  0  0  0  0
  -42.2374   56.7081   65.2592 C   0  0  0  0  0  0  0  0  0  0  0  0
  -42.6976   57.5789   66.3878 C   0  0  0  0  0  0  0  0  0  0  0  0
  -43.7354   58.6112   65.9638 C   0  0  0  0  0  0  0  0  0  0  0  0
  -45.1555   58.0767   65.8915 C   0  0  0  0  0  0  0  0  0  0  0  0
  -46.1209   58.7992   66.8144 C   0  0  0  0  0  0  0  0  0  0  0  0
  -46.9877   59.8133   66.0879 C   0  0  0  0  0  0  0  0  0  0  0  0
  -47.2805   59.3992   64.6630 C   0  0  0  0  0  0  0  0  0  0  0  0
  -48.2983   58.2856   64.5219 C   0  0  0  0  0  0  0  0  0  0  0  0
  -49.5238   58.4825   65.3293 C   0  0  0  0  0  0  0  0  0  0  0  0
  -50.5271   59.2829   65.0338 C   0  0  0  0  0  0  0  0  0  0  0  0
  -50.6756   60.1323   63.8136 C   0  0  0  0  0  0  0  0  0  0  0  0
  -51.1762   59.2870   62.6411 C   0  0  0  0  0  0  0  0  0  0  0  0
  -50.1580   59.0326   61.5393 C   0  0  0  0  0  0  0  0  0  0  0  0
  -50.1987   57.6342   60.9350 C   0  0  0  0  0  0  0  0  0  0  0  0
  -49.2550   57.4548   59.7504 C   0  0  0  0  0  0  0  0  0  0  0  0
  -48.6585   56.0600   59.6484 C   0  0  0  0  0  0  0  0  0  0  0  0
  -47.4613   55.9298   58.7188 C   0  0  0  0  0  0  0  0  0  0  0  0
  -47.7990   56.2369   57.2922 C   0  0  0  0  0  0  0  0  0  0  0  0
  -41.1731   57.2476   64.6576 O   0  0  0  0  0  0  0  0  0  0  0  0
  -41.3073   57.6382   63.2733 C   0  0  0  0  0  0  0  0  0  0  0  0
  -40.2592   56.9788   62.4021 C   0  0  0  0  0  0  0  0  0  0  0  0
  -40.7992   56.6305   61.1202 O   0  0  0  0  0  0  0  0  0  0  0  0
  -41.0708   57.4366   60.6539 H   0  0  0  0  0  0  0  0  0  0  0  0
  -39.0343   57.8428   62.2137 C   0  0  0  0  0  0  0  0  0  0  0  0
  -38.9774   58.9151   63.1853 O   0  0  0  0  0  0  0  0  0  0  0  0
  -39.1093   60.5085   63.0446 P   0  0  0  0  0  0  0  0  0  0  0  0
  -39.7845   61.0450   64.3058 O   0  0  0  0  0  0  0  0  0  0  0  0
  -39.9735   60.8116   61.8829 O   0  0  0  0  0  0  0  0  0  0  0  0
  -40.8344   60.3802   61.9991 H   0  0  0  0  0  0  0  0  0  0  0  0
  -37.6361   61.2229   62.8873 O   0  0  0  0  0  0  0  0  0  0  0  0
  -37.2015   62.4375   63.5573 C   0  0  0  0  0  0  0  0  0  0  0  0
  -36.4540   62.0961   64.8225 C   0  0  0  0  0  0  0  0  0  0  0  0
  -35.0418   62.6384   64.9418 N   0  0  0  0  0  0  0  0  0  0  0  0
  -34.9876   64.0625   64.4900 C   0  0  0  0  0  0  0  0  0  0  0  0
  -34.1413   61.8198   64.0763 C   0  0  0  0  0  0  0  0  0  0  0  0
  -34.5673   62.5629   66.3652 C   0  0  0  0  0  0  0  0  0  0  0  0
 34 33  1  0  0  0
 34 35  1  0  0  0
 34 36  1  0  0  0
 34 37  1  0  0  0
 22 23  1  0  0  0
 22 25  1  0  0  0
 22 21  1  0  0  0
 23 24  1  0  0  0
 27 26  1  0  0  0
 27 28  2  0  0  0
 27 31  1  0  0  0
 27 29  1  0  0  0
 25 26  1  0  0  0
 32 33  1  0  0  0
 32 31  1  0  0  0
 29 30  1  0  0  0
 20 21  1  0  0  0
 20  2  1  0  0  0
  1  2  2  0  0  0
  2  3  1  0  0  0
  3  4  1  0  0  0
  4  5  1  0  0  0
  5  6  1  0  0  0
  6  7  1  0  0  0
  7  8  1  0  0  0
  8  9  1  0  0  0
  9 10  1  0  0  0
 10 11  2  0  0  0
 11 12  1  0  0  0
 12 13  1  0  0  0
 13 14  1  0  0  0
 14 15  1  0  0  0
 15 16  1  0  0  0
 16 17  1  0  0  0
 17 18  1  0  0  0
 18 19  1  0  0  0
M  CHG 1  28  -1
M  END
> <minimizedAffinity>
-7.70853

> <CNNscore>
0.7226628065

> <CNNaffinity>
6.7367105484

> <CNN_VS>
4.8683700562

> <CNNaffinity_variance>
0.3155646622

$$$$
/media/chris/experiments/cd1a-new-docking/inputs/ligands/4x6e_ligand.pdb


 37 36  0  0  0  0  0  0  0  0999 V2000
  -42.9745   57.2910   66.0866 O   0  0  0  0  0  0  0  0  0  0  0  0
  -42.8330   58.4644   65.8465 C   0  0  0  0  0  0  0  0  0  0  0  0
  -43.6872   59.5691   66.3886 C   0  0  0  0  0  0  0  0  0  0  0  0
  -44.9684   59.0690   67.0452 C   0  0  0  0  0  0  0  0  0  0  0  0
  -46.2390   59.4427   66.3015 C   0  0  0  0  0  0  0  0  0  0  0  0
  -46.4906   58.5917   65.0692 C   0  0  0  0  0  0  0  0  0  0  0  0
  -47.9525   58.5641   64.6571 C   0  0  0  0  0  0  0  0  0  0  0  0
  -48.8315   57.9256   65.7094 C   0  0  0  0  0  0  0  0  0  0  0  0
  -50.2994   58.2897   65.6166 C   0  0  0  0  0  0  0  0  0  0  0  0
  -50.5489   59.6850   65.1887 C   0  0  0  0  0  0  0  0  0  0  0  0
  -50.8747   60.0774   63.9743 C   0  0  0  0  0  0  0  0  0  0  0  0
  -51.1043   59.2134   62.7772 C   0  0  0  0  0  0  0  0  0  0  0  0
  -50.2344   59.6867   61.6114 C   0  0  0  0  0  0  0  0  0  0  0  0
  -50.0428   58.6773   60.4890 C   0  0  0  0  0  0  0  0  0  0  0  0
  -49.3930   57.3641   60.9076 C   0  0  0  0  0  0  0  0  0  0  0  0
  -48.7153   56.6260   59.7578 C   0  0  0  0  0  0  0  0  0  0  0  0
  -48.8828   57.3076   58.4092 C   0  0  0  0  0  0  0  0  0  0  0  0
  -47.7007   57.1749   57.4608 C   0  0  0  0  0  0  0  0  0  0  0  0
  -47.0807   55.8118   57.4945 C   0  0  0  0  0  0  0  0  0  0  0  0
  -41.8727   58.9599   65.0604 O   0  0  0  0  0  0  0  0  0  0  0  0
  -40.5194   58.9565   65.5657 C   0  0  0  0  0  0  0  0  0  0  0  0
  -39.7341   60.1520   65.0692 C   0  0  0  0  0  0  0  0  0  0  0  0
  -39.3356   60.9954   66.1583 O   0  0  0  0  0  0  0  0  0  0  0  0
  -38.7396   60.5049   66.7458 H   0  0  0  0  0  0  0  0  0  0  0  0
  -38.5156   59.7543   64.2696 C   0  0  0  0  0  0  0  0  0  0  0  0
  -38.0298   60.8452   63.4504 O   0  0  0  0  0  0  0  0  0  0  0  0
  -36.9531   62.0040   63.7224 P   0  0  0  0  0  0  0  0  0  0  0  0
  -37.3039   62.6804   65.0466 O   0  0  0  0  0  0  0  0  0  0  0  0
  -37.0536   63.0076   62.6402 O   0  0  0  0  0  0  0  0  0  0  0  0
  -37.9602   63.3500   62.6001 H   0  0  0  0  0  0  0  0  0  0  0  0
  -35.4281   61.3966   63.8251 O   0  0  0  0  0  0  0  0  0  0  0  0
  -34.2071   62.1748   63.9536 C   0  0  0  0  0  0  0  0  0  0  0  0
  -34.0671   62.6965   65.3623 C   0  0  0  0  0  0  0  0  0  0  0  0
  -33.5686   64.1221   65.5099 N   0  0  0  0  0  0  0  0  0  0  0  0
  -33.9893   64.9483   64.3371 C   0  0  0  0  0  0  0  0  0  0  0  0
  -32.0769   64.1014   65.5791 C   0  0  0  0  0  0  0  0  0  0  0  0
  -34.1161   64.7443   66.7628 C   0  0  0  0  0  0  0  0  0  0  0  0
 34 33  1  0  0  0
 34 35  1  0  0  0
 34 36  1  0  0  0
 34 37  1  0  0  0
 22 23  1  0  0  0
 22 25  1  0  0  0
 22 21  1  0  0  0
 23 24  1  0  0  0
 27 26  1  0  0  0
 27 28  2  0  0  0
 27 31  1  0  0  0
 27 29  1  0  0  0
 25 26  1  0  0  0
 32 33  1  0  0  0
 32 31  1  0  0  0
 29 30  1  0  0  0
 20 21  1  0  0  0
 20  2  1  0  0  0
  1  2  2  0  0  0
  2  3  1  0  0  0
  3  4  1  0  0  0
  4  5  1  0  0  0
  5  6  1  0  0  0
  6  7  1  0  0  0
  7  8  1  0  0  0
  8  9  1  0  0  0
  9 10  1  0  0  0
 10 11  2  0  0  0
 11 12  1  0  0  0
 12 13  1  0  0  0
 13 14  1  0  0  0
 14 15  1  0  0  0
 15 16  1  0  0  0
 16 17  1  0  0  0
 17 18  1  0  0  0
 18 19  1  0  0  0
M  CHG 1  28  -1
M  END
> <minimizedAffinity>
-8.18013

> <CNNscore>
0.7148868442

> <CNNaffinity>
6.3100585938

> <CNN_VS>
4.5109777451

> <CNNaffinity_variance>
0.1022028103

$$$$
/media/chris/experiments/cd1a-new-docking/inputs/ligands/4x6e_ligand.pdb


 37 36  0  0  0  0  0  0  0  0999 V2000
  -42.2920   58.3618   67.4619 O   0  0  0  0  0  0  0  0  0  0  0  0
  -42.3693   58.8608   66.3666 C   0  0  0  0  0  0  0  0  0  0  0  0
  -43.0733   58.2603   65.1886 C   0  0  0  0  0  0  0  0  0  0  0  0
  -44.5305   58.6926   65.0769 C   0  0  0  0  0  0  0  0  0  0  0  0
  -45.0375   59.4940   66.2636 C   0  0  0  0  0  0  0  0  0  0  0  0
  -46.1695   58.8137   67.0129 C   0  0  0  0  0  0  0  0  0  0  0  0
  -46.2220   57.3146   66.7725 C   0  0  0  0  0  0  0  0  0  0  0  0
  -47.5659   56.8670   66.2423 C   0  0  0  0  0  0  0  0  0  0  0  0
  -48.2882   57.8944   65.3947 C   0  0  0  0  0  0  0  0  0  0  0  0
  -49.6779   58.1649   65.8283 C   0  0  0  0  0  0  0  0  0  0  0  0
  -50.4846   59.0754   65.3234 C   0  0  0  0  0  0  0  0  0  0  0  0
  -50.2012   60.0026   64.1866 C   0  0  0  0  0  0  0  0  0  0  0  0
  -51.0829   59.6505   62.9874 C   0  0  0  0  0  0  0  0  0  0  0  0
  -50.3489   59.4839   61.6649 C   0  0  0  0  0  0  0  0  0  0  0  0
  -50.5059   58.1175   61.0087 C   0  0  0  0  0  0  0  0  0  0  0  0
  -49.2737   57.2297   61.1477 C   0  0  0  0  0  0  0  0  0  0  0  0
  -49.1604   56.1658   60.0675 C   0  0  0  0  0  0  0  0  0  0  0  0
  -47.7715   55.9859   59.4732 C   0  0  0  0  0  0  0  0  0  0  0  0
  -47.7563   56.1266   57.9821 C   0  0  0  0  0  0  0  0  0  0  0  0
  -41.8416   60.0445   66.0413 O   0  0  0  0  0  0  0  0  0  0  0  0
  -40.7173   60.0550   65.1344 C   0  0  0  0  0  0  0  0  0  0  0  0
  -39.4650   59.5124   65.7899 C   0  0  0  0  0  0  0  0  0  0  0  0
  -38.9777   58.3574   65.0935 O   0  0  0  0  0  0  0  0  0  0  0  0
  -38.7246   58.6070   64.1910 H   0  0  0  0  0  0  0  0  0  0  0  0
  -38.3654   60.5441   65.8833 C   0  0  0  0  0  0  0  0  0  0  0  0
  -38.4075   61.4772   64.7766 O   0  0  0  0  0  0  0  0  0  0  0  0
  -37.6839   61.4874   63.3441 P   0  0  0  0  0  0  0  0  0  0  0  0
  -38.7319   61.1735   62.2775 O   0  0  0  0  0  0  0  0  0  0  0  0
  -36.6582   60.4216   63.3238 O   0  0  0  0  0  0  0  0  0  0  0  0
  -37.0751   59.5679   63.5192 H   0  0  0  0  0  0  0  0  0  0  0  0
  -37.0175   62.9550   63.0167 O   0  0  0  0  0  0  0  0  0  0  0  0
  -36.5230   63.9053   63.9993 C   0  0  0  0  0  0  0  0  0  0  0  0
  -35.0655   63.6450   64.2889 C   0  0  0  0  0  0  0  0  0  0  0  0
  -34.7169   63.2590   65.7144 N   0  0  0  0  0  0  0  0  0  0  0  0
  -35.6529   63.9144   66.6785 C   0  0  0  0  0  0  0  0  0  0  0  0
  -33.3242   63.7130   66.0051 C   0  0  0  0  0  0  0  0  0  0  0  0
  -34.8020   61.7697   65.8924 C   0  0  0  0  0  0  0  0  0  0  0  0
 34 33  1  0  0  0
 34 35  1  0  0  0
 34 36  1  0  0  0
 34 37  1  0  0  0
 22 23  1  0  0  0
 22 25  1  0  0  0
 22 21  1  0  0  0
 23 24  1  0  0  0
 27 26  1  0  0  0
 27 28  2  0  0  0
 27 31  1  0  0  0
 27 29  1  0  0  0
 25 26  1  0  0  0
 32 33  1  0  0  0
 32 31  1  0  0  0
 29 30  1  0  0  0
 20 21  1  0  0  0
 20  2  1  0  0  0
  1  2  2  0  0  0
  2  3  1  0  0  0
  3  4  1  0  0  0
  4  5  1  0  0  0
  5  6  1  0  0  0
  6  7  1  0  0  0
  7  8  1  0  0  0
  8  9  1  0  0  0
  9 10  1  0  0  0
 10 11  2  0  0  0
 11 12  1  0  0  0
 12 13  1  0  0  0
 13 14  1  0  0  0
 14 15  1  0  0  0
 15 16  1  0  0  0
 16 17  1  0  0  0
 17 18  1  0  0  0
 18 19  1  0  0  0
M  CHG 1  28  -1
M  END
> <minimizedAffinity>
-7.73730

> <CNNscore>
0.6681817174

> <CNNaffinity>
6.4895501137

> <CNN_VS>
4.3361988068

> <CNNaffinity_variance>
0.1657686532

$$$$
/media/chris/experiments/cd1a-new-docking/inputs/ligands/4x6e_ligand.pdb


 37 36  0  0  0  0  0  0  0  0999 V2000
  -41.3975   61.0856   64.3861 O   0  0  0  0  0  0  0  0  0  0  0  0
  -41.9167   60.0007   64.2957 C   0  0  0  0  0  0  0  0  0  0  0  0
  -43.2927   59.6558   64.7768 C   0  0  0  0  0  0  0  0  0  0  0  0
  -44.3958   60.1911   63.8717 C   0  0  0  0  0  0  0  0  0  0  0  0
  -45.7287   60.4029   64.5690 C   0  0  0  0  0  0  0  0  0  0  0  0
  -45.8771   59.5961   65.8469 C   0  0  0  0  0  0  0  0  0  0  0  0
  -47.3270   59.3328   66.2159 C   0  0  0  0  0  0  0  0  0  0  0  0
  -48.0771   58.6184   65.1139 C   0  0  0  0  0  0  0  0  0  0  0  0
  -49.5115   58.2635   65.4490 C   0  0  0  0  0  0  0  0  0  0  0  0
  -50.4434   59.4132   65.4057 C   0  0  0  0  0  0  0  0  0  0  0  0
  -50.7992   60.0832   64.3289 C   0  0  0  0  0  0  0  0  0  0  0  0
  -50.3824   59.8146   62.9195 C   0  0  0  0  0  0  0  0  0  0  0  0
  -51.1775   58.6384   62.3502 C   0  0  0  0  0  0  0  0  0  0  0  0
  -50.6690   58.0878   61.0259 C   0  0  0  0  0  0  0  0  0  0  0  0
  -49.2687   57.4886   61.0725 C   0  0  0  0  0  0  0  0  0  0  0  0
  -48.9983   56.4843   59.9570 C   0  0  0  0  0  0  0  0  0  0  0  0
  -49.0756   57.0834   58.5617 C   0  0  0  0  0  0  0  0  0  0  0  0
  -47.7621   57.1204   57.7949 C   0  0  0  0  0  0  0  0  0  0  0  0
  -47.4706   55.8356   57.0822 C   0  0  0  0  0  0  0  0  0  0  0  0
  -41.3377   58.9352   63.7344 O   0  0  0  0  0  0  0  0  0  0  0  0
  -40.9960   59.0136   62.3331 C   0  0  0  0  0  0  0  0  0  0  0  0
  -39.5238   58.7472   62.1007 C   0  0  0  0  0  0  0  0  0  0  0  0
  -39.3349   57.7033   61.1359 O   0  0  0  0  0  0  0  0  0  0  0  0
  -39.6976   57.9835   60.2810 H   0  0  0  0  0  0  0  0  0  0  0  0
  -38.7735   59.9818   61.6589 C   0  0  0  0  0  0  0  0  0  0  0  0
  -37.5955   60.2142   62.4686 O   0  0  0  0  0  0  0  0  0  0  0  0
  -37.3284   61.1531   63.7426 P   0  0  0  0  0  0  0  0  0  0  0  0
  -36.6228   60.3191   64.8107 O   0  0  0  0  0  0  0  0  0  0  0  0
  -38.6308   61.6029   64.2811 O   0  0  0  0  0  0  0  0  0  0  0  0
  -39.1739   60.8300   64.5012 H   0  0  0  0  0  0  0  0  0  0  0  0
  -36.3744   62.4358   63.3556 O   0  0  0  0  0  0  0  0  0  0  0  0
  -36.4581   63.7663   63.9350 C   0  0  0  0  0  0  0  0  0  0  0  0
  -35.1204   64.1735   64.5014 C   0  0  0  0  0  0  0  0  0  0  0  0
  -34.8284   63.7407   65.9262 N   0  0  0  0  0  0  0  0  0  0  0  0
  -33.9683   64.7512   66.6149 C   0  0  0  0  0  0  0  0  0  0  0  0
  -34.1073   62.4334   65.8898 C   0  0  0  0  0  0  0  0  0  0  0  0
  -36.1059   63.5828   66.7007 C   0  0  0  0  0  0  0  0  0  0  0  0
 34 33  1  0  0  0
 34 35  1  0  0  0
 34 36  1  0  0  0
 34 37  1  0  0  0
 22 23  1  0  0  0
 22 25  1  0  0  0
 22 21  1  0  0  0
 23 24  1  0  0  0
 27 26  1  0  0  0
 27 28  2  0  0  0
 27 31  1  0  0  0
 27 29  1  0  0  0
 25 26  1  0  0  0
 32 33  1  0  0  0
 32 31  1  0  0  0
 29 30  1  0  0  0
 20 21  1  0  0  0
 20  2  1  0  0  0
  1  2  2  0  0  0
  2  3  1  0  0  0
  3  4  1  0  0  0
  4  5  1  0  0  0
  5  6  1  0  0  0
  6  7  1  0  0  0
  7  8  1  0  0  0
  8  9  1  0  0  0
  9 10  1  0  0  0
 10 11  2  0  0  0
 11 12  1  0  0  0
 12 13  1  0  0  0
 13 14  1  0  0  0
 14 15  1  0  0  0
 15 16  1  0  0  0
 16 17  1  0  0  0
 17 18  1  0  0  0
 18 19  1  0  0  0
M  CHG 1  28  -1
M  END
> <minimizedAffinity>
-7.90658

> <CNNscore>
0.6611041427

> <CNNaffinity>
6.4232378006

> <CNN_VS>
4.2464289665

> <CNNaffinity_variance>
0.4108854234

$$$$
/media/chris/experiments/cd1a-new-docking/inputs/ligands/4x6e_ligand.pdb


 37 36  0  0  0  0  0  0  0  0999 V2000
  -41.2370   57.1977   63.6233 O   0  0  0  0  0  0  0  0  0  0  0  0
  -41.6906   57.8785   62.7371 C   0  0  0  0  0  0  0  0  0  0  0  0
  -43.1151   58.3303   62.6339 C   0  0  0  0  0  0  0  0  0  0  0  0
  -43.7430   58.6466   63.9860 C   0  0  0  0  0  0  0  0  0  0  0  0
  -44.9626   59.5493   63.9129 C   0  0  0  0  0  0  0  0  0  0  0  0
  -45.5838   59.8367   65.2684 C   0  0  0  0  0  0  0  0  0  0  0  0
  -45.4064   58.6954   66.2551 C   0  0  0  0  0  0  0  0  0  0  0  0
  -46.7285   58.1856   66.7839 C   0  0  0  0  0  0  0  0  0  0  0  0
  -47.6412   57.5819   65.7359 C   0  0  0  0  0  0  0  0  0  0  0  0
  -49.0299   58.0938   65.7783 C   0  0  0  0  0  0  0  0  0  0  0  0
  -49.6157   58.8251   64.8527 C   0  0  0  0  0  0  0  0  0  0  0  0
  -49.0355   59.2649   63.5479 C   0  0  0  0  0  0  0  0  0  0  0  0
  -49.2427   58.1821   62.4876 C   0  0  0  0  0  0  0  0  0  0  0  0
  -50.6635   58.0507   61.9589 C   0  0  0  0  0  0  0  0  0  0  0  0
  -50.7709   57.7337   60.4723 C   0  0  0  0  0  0  0  0  0  0  0  0
  -49.5168   58.0907   59.6811 C   0  0  0  0  0  0  0  0  0  0  0  0
  -48.8383   56.8931   59.0355 C   0  0  0  0  0  0  0  0  0  0  0  0
  -48.1228   57.1785   57.7236 C   0  0  0  0  0  0  0  0  0  0  0  0
  -47.0812   56.1530   57.3964 C   0  0  0  0  0  0  0  0  0  0  0  0
  -40.9769   58.3467   61.7090 O   0  0  0  0  0  0  0  0  0  0  0  0
  -39.5372   58.3349   61.8269 C   0  0  0  0  0  0  0  0  0  0  0  0
  -38.9717   59.7367   61.9132 C   0  0  0  0  0  0  0  0  0  0  0  0
  -38.9509   60.3644   60.6241 O   0  0  0  0  0  0  0  0  0  0  0  0
  -39.8587   60.4584   60.2955 H   0  0  0  0  0  0  0  0  0  0  0  0
  -39.7305   60.6096   62.8851 C   0  0  0  0  0  0  0  0  0  0  0  0
  -38.8487   61.2338   63.8495 O   0  0  0  0  0  0  0  0  0  0  0  0
  -37.9918   60.6426   65.0710 P   0  0  0  0  0  0  0  0  0  0  0  0
  -38.3649   59.1716   65.2481 O   0  0  0  0  0  0  0  0  0  0  0  0
  -38.3585   61.3727   66.3042 O   0  0  0  0  0  0  0  0  0  0  0  0
  -39.3138   61.2955   66.4537 H   0  0  0  0  0  0  0  0  0  0  0  0
  -36.3765   60.7484   64.7799 O   0  0  0  0  0  0  0  0  0  0  0  0
  -35.6379   61.9696   64.5042 C   0  0  0  0  0  0  0  0  0  0  0  0
  -34.1727   61.6620   64.3178 C   0  0  0  0  0  0  0  0  0  0  0  0
  -33.3149   62.7747   63.7444 N   0  0  0  0  0  0  0  0  0  0  0  0
  -32.5264   63.4391   64.8270 C   0  0  0  0  0  0  0  0  0  0  0  0
  -34.2091   63.7855   63.1049 C   0  0  0  0  0  0  0  0  0  0  0  0
  -32.3643   62.2302   62.7165 C   0  0  0  0  0  0  0  0  0  0  0  0
 34 33  1  0  0  0
 34 35  1  0  0  0
 34 36  1  0  0  0
 34 37  1  0  0  0
 22 23  1  0  0  0
 22 25  1  0  0  0
 22 21  1  0  0  0
 23 24  1  0  0  0
 27 26  1  0  0  0
 27 28  2  0  0  0
 27 31  1  0  0  0
 27 29  1  0  0  0
 25 26  1  0  0  0
 32 33  1  0  0  0
 32 31  1  0  0  0
 29 30  1  0  0  0
 20 21  1  0  0  0
 20  2  1  0  0  0
  1  2  2  0  0  0
  2  3  1  0  0  0
  3  4  1  0  0  0
  4  5  1  0  0  0
  5  6  1  0  0  0
  6  7  1  0  0  0
  7  8  1  0  0  0
  8  9  1  0  0  0
  9 10  1  0  0  0
 10 11  2  0  0  0
 11 12  1  0  0  0
 12 13  1  0  0  0
 13 14  1  0  0  0
 14 15  1  0  0  0
 15 16  1  0  0  0
 16 17  1  0  0  0
 17 18  1  0  0  0
 18 19  1  0  0  0
M  CHG 1  28  -1
M  END
> <minimizedAffinity>
-7.71703

> <CNNscore>
0.6284016967

> <CNNaffinity>
6.5647439957

> <CNN_VS>
4.1252961159

> <CNNaffinity_variance>
0.4149132669

$$$$
/media/chris/experiments/cd1a-new-docking/inputs/ligands/4x6e_ligand.pdb


 37 36  0  0  0  0  0  0  0  0999 V2000
  -40.5687   60.9109   65.5541 O   0  0  0  0  0  0  0  0  0  0  0  0
  -40.9616   59.9391   64.9574 C   0  0  0  0  0  0  0  0  0  0  0  0
  -41.5951   58.7351   65.5839 C   0  0  0  0  0  0  0  0  0  0  0  0
  -42.0806   58.9852   67.0068 C   0  0  0  0  0  0  0  0  0  0  0  0
  -43.4897   59.5453   67.0970 C   0  0  0  0  0  0  0  0  0  0  0  0
  -44.4805   58.8382   66.1891 C   0  0  0  0  0  0  0  0  0  0  0  0
  -45.8154   59.5572   66.0956 C   0  0  0  0  0  0  0  0  0  0  0  0
  -46.9834   58.6299   66.3473 C   0  0  0  0  0  0  0  0  0  0  0  0
  -48.0394   58.6296   65.2607 C   0  0  0  0  0  0  0  0  0  0  0  0
  -48.1890   59.9277   64.5645 C   0  0  0  0  0  0  0  0  0  0  0  0
  -49.3130   60.4344   64.1011 C   0  0  0  0  0  0  0  0  0  0  0  0
  -50.6812   59.8433   64.2065 C   0  0  0  0  0  0  0  0  0  0  0  0
  -51.1678   59.3926   62.8282 C   0  0  0  0  0  0  0  0  0  0  0  0
  -50.5313   58.1166   62.2972 C   0  0  0  0  0  0  0  0  0  0  0  0
  -50.8905   57.7682   60.8578 C   0  0  0  0  0  0  0  0  0  0  0  0
  -49.9614   58.4020   59.8276 C   0  0  0  0  0  0  0  0  0  0  0  0
  -49.2692   57.3934   58.9247 C   0  0  0  0  0  0  0  0  0  0  0  0
  -48.5318   56.2737   59.6437 C   0  0  0  0  0  0  0  0  0  0  0  0
  -47.2962   55.8348   58.9195 C   0  0  0  0  0  0  0  0  0  0  0  0
  -40.8998   59.7966   63.6302 O   0  0  0  0  0  0  0  0  0  0  0  0
  -39.9809   60.6417   62.9035 C   0  0  0  0  0  0  0  0  0  0  0  0
  -38.8235   59.8492   62.3338 C   0  0  0  0  0  0  0  0  0  0  0  0
  -38.4493   60.3411   61.0398 O   0  0  0  0  0  0  0  0  0  0  0  0
  -38.1377   61.2562   61.1195 H   0  0  0  0  0  0  0  0  0  0  0  0
  -37.6157   59.8524   63.2412 C   0  0  0  0  0  0  0  0  0  0  0  0
  -37.1166   61.1927   63.4683 O   0  0  0  0  0  0  0  0  0  0  0  0
  -36.7184   61.9849   64.8061 P   0  0  0  0  0  0  0  0  0  0  0  0
  -35.4207   61.3867   65.3470 O   0  0  0  0  0  0  0  0  0  0  0  0
  -37.7845   61.7829   65.8115 O   0  0  0  0  0  0  0  0  0  0  0  0
  -37.9051   60.8333   65.9685 H   0  0  0  0  0  0  0  0  0  0  0  0
  -36.4812   63.5853   64.5100 O   0  0  0  0  0  0  0  0  0  0  0  0
  -35.4944   64.1476   63.6028 C   0  0  0  0  0  0  0  0  0  0  0  0
  -34.3817   64.8022   64.3835 C   0  0  0  0  0  0  0  0  0  0  0  0
  -32.9708   64.3424   64.0665 N   0  0  0  0  0  0  0  0  0  0  0  0
  -32.9774   63.3844   62.9188 C   0  0  0  0  0  0  0  0  0  0  0  0
  -32.4109   63.6558   65.2688 C   0  0  0  0  0  0  0  0  0  0  0  0
  -32.1014   65.5157   63.7137 C   0  0  0  0  0  0  0  0  0  0  0  0
 34 33  1  0  0  0
 34 35  1  0  0  0
 34 36  1  0  0  0
 34 37  1  0  0  0
 22 23  1  0  0  0
 22 25  1  0  0  0
 22 21  1  0  0  0
 23 24  1  0  0  0
 27 26  1  0  0  0
 27 28  2  0  0  0
 27 31  1  0  0  0
 27 29  1  0  0  0
 25 26  1  0  0  0
 32 33  1  0  0  0
 32 31  1  0  0  0
 29 30  1  0  0  0
 20 21  1  0  0  0
 20  2  1  0  0  0
  1  2  2  0  0  0
  2  3  1  0  0  0
  3  4  1  0  0  0
  4  5  1  0  0  0
  5  6  1  0  0  0
  6  7  1  0  0  0
  7  8  1  0  0  0
  8  9  1  0  0  0
  9 10  1  0  0  0
 10 11  2  0  0  0
 11 12  1  0  0  0
 12 13  1  0  0  0
 13 14  1  0  0  0
 14 15  1  0  0  0
 15 16  1  0  0  0
 16 17  1  0  0  0
 17 18  1  0  0  0
 18 19  1  0  0  0
M  CHG 1  28  -1
M  END
> <minimizedAffinity>
-7.90110

> <CNNscore>
0.5665222406

> <CNNaffinity>
6.1062560081

> <CNN_VS>
3.4593298435

> <CNNaffinity_variance>
0.2403486222

$$$$
/media/chris/experiments/cd1a-new-docking/inputs/ligands/4x6e_ligand.pdb


 37 36  0  0  0  0  0  0  0  0999 V2000
  -39.4751   57.2336   62.8914 O   0  0  0  0  0  0  0  0  0  0  0  0
  -39.6468   57.9249   63.8647 C   0  0  0  0  0  0  0  0  0  0  0  0
  -40.9196   58.0159   64.6493 C   0  0  0  0  0  0  0  0  0  0  0  0
  -41.7633   56.7492   64.5719 C   0  0  0  0  0  0  0  0  0  0  0  0
  -42.9484   56.7285   65.5220 C   0  0  0  0  0  0  0  0  0  0  0  0
  -42.9655   57.8964   66.4924 C   0  0  0  0  0  0  0  0  0  0  0  0
  -43.9700   58.9697   66.1094 C   0  0  0  0  0  0  0  0  0  0  0  0
  -45.3895   58.4476   66.1000 C   0  0  0  0  0  0  0  0  0  0  0  0
  -46.1608   58.7284   64.8265 C   0  0  0  0  0  0  0  0  0  0  0  0
  -46.1749   60.1554   64.4318 C   0  0  0  0  0  0  0  0  0  0  0  0
  -47.2465   60.8966   64.2397 C   0  0  0  0  0  0  0  0  0  0  0  0
  -48.6723   60.4850   64.4136 C   0  0  0  0  0  0  0  0  0  0  0  0
  -49.2291   59.9454   63.0951 C   0  0  0  0  0  0  0  0  0  0  0  0
  -50.4200   59.0072   63.2256 C   0  0  0  0  0  0  0  0  0  0  0  0
  -50.7765   58.2387   61.9589 C   0  0  0  0  0  0  0  0  0  0  0  0
  -50.0396   58.7332   60.7186 C   0  0  0  0  0  0  0  0  0  0  0  0
  -50.1571   57.8004   59.5238 C   0  0  0  0  0  0  0  0  0  0  0  0
  -48.8421   57.4315   58.8534 C   0  0  0  0  0  0  0  0  0  0  0  0
  -48.2670   56.1492   59.3714 C   0  0  0  0  0  0  0  0  0  0  0  0
  -38.7105   58.7131   64.4011 O   0  0  0  0  0  0  0  0  0  0  0  0
  -37.3341   58.2851   64.3066 C   0  0  0  0  0  0  0  0  0  0  0  0
  -36.5092   59.2361   63.4654 C   0  0  0  0  0  0  0  0  0  0  0  0
  -37.3445   60.1944   62.8019 O   0  0  0  0  0  0  0  0  0  0  0  0
  -37.7976   60.7409   63.4629 H   0  0  0  0  0  0  0  0  0  0  0  0
  -35.4565   59.9598   64.2718 C   0  0  0  0  0  0  0  0  0  0  0  0
  -35.9860   60.4583   65.5241 O   0  0  0  0  0  0  0  0  0  0  0  0
  -36.9969   61.6563   65.8690 P   0  0  0  0  0  0  0  0  0  0  0  0
  -36.4694   62.3857   67.1035 O   0  0  0  0  0  0  0  0  0  0  0  0
  -38.3208   61.0809   66.1924 O   0  0  0  0  0  0  0  0  0  0  0  0
  -38.2300   60.4534   66.9264 H   0  0  0  0  0  0  0  0  0  0  0  0
  -37.1062   62.7283   64.6264 O   0  0  0  0  0  0  0  0  0  0  0  0
  -36.3023   63.9282   64.4621 C   0  0  0  0  0  0  0  0  0  0  0  0
  -34.9644   63.5808   63.8577 C   0  0  0  0  0  0  0  0  0  0  0  0
  -33.7553   64.2933   64.4347 N   0  0  0  0  0  0  0  0  0  0  0  0
  -33.6826   65.6974   63.9265 C   0  0  0  0  0  0  0  0  0  0  0  0
  -32.5237   63.5605   64.0145 C   0  0  0  0  0  0  0  0  0  0  0  0
  -33.8284   64.3237   65.9349 C   0  0  0  0  0  0  0  0  0  0  0  0
 34 33  1  0  0  0
 34 35  1  0  0  0
 34 36  1  0  0  0
 34 37  1  0  0  0
 22 23  1  0  0  0
 22 25  1  0  0  0
 22 21  1  0  0  0
 23 24  1  0  0  0
 27 26  1  0  0  0
 27 28  2  0  0  0
 27 31  1  0  0  0
 27 29  1  0  0  0
 25 26  1  0  0  0
 32 33  1  0  0  0
 32 31  1  0  0  0
 29 30  1  0  0  0
 20 21  1  0  0  0
 20  2  1  0  0  0
  1  2  2  0  0  0
  2  3  1  0  0  0
  3  4  1  0  0  0
  4  5  1  0  0  0
  5  6  1  0  0  0
  6  7  1  0  0  0
  7  8  1  0  0  0
  8  9  1  0  0  0
  9 10  1  0  0  0
 10 11  2  0  0  0
 11 12  1  0  0  0
 12 13  1  0  0  0
 13 14  1  0  0  0
 14 15  1  0  0  0
 15 16  1  0  0  0
 16 17  1  0  0  0
 17 18  1  0  0  0
 18 19  1  0  0  0
M  CHG 1  28  -1
M  END
> <minimizedAffinity>
-7.53840

> <CNNscore>
0.5597071648

> <CNNaffinity>
6.2060990334

> <CNN_VS>
3.4735980034

> <CNNaffinity_variance>
0.1238493100

$$$$
/media/chris/experiments/cd1a-new-docking/inputs/ligands/4x6e_ligand.pdb


 37 36  0  0  0  0  0  0  0  0999 V2000
  -40.8214   61.0656   66.4657 O   0  0  0  0  0  0  0  0  0  0  0  0
  -41.4832   60.1013   66.1711 C   0  0  0  0  0  0  0  0  0  0  0  0
  -42.5735   59.5093   67.0105 C   0  0  0  0  0  0  0  0  0  0  0  0
  -43.9313   59.5120   66.3184 C   0  0  0  0  0  0  0  0  0  0  0  0
  -45.1148   59.3958   67.2635 C   0  0  0  0  0  0  0  0  0  0  0  0
  -46.3871   58.9217   66.5833 C   0  0  0  0  0  0  0  0  0  0  0  0
  -46.7147   57.4697   66.8864 C   0  0  0  0  0  0  0  0  0  0  0  0
  -47.8183   56.9353   66.0008 C   0  0  0  0  0  0  0  0  0  0  0  0
  -48.4446   57.9611   65.0781 C   0  0  0  0  0  0  0  0  0  0  0  0
  -49.8073   58.3798   65.4779 C   0  0  0  0  0  0  0  0  0  0  0  0
  -50.6026   59.1817   64.8002 C   0  0  0  0  0  0  0  0  0  0  0  0
  -50.3323   59.8107   63.4721 C   0  0  0  0  0  0  0  0  0  0  0  0
  -50.8822   58.9286   62.3500 C   0  0  0  0  0  0  0  0  0  0  0  0
  -49.9642   58.7533   61.1492 C   0  0  0  0  0  0  0  0  0  0  0  0
  -49.4796   57.3282   60.9115 C   0  0  0  0  0  0  0  0  0  0  0  0
  -49.0154   57.0732   59.4812 C   0  0  0  0  0  0  0  0  0  0  0  0
  -47.9631   55.9821   59.3643 C   0  0  0  0  0  0  0  0  0  0  0  0
  -47.1847   55.9651   58.0572 C   0  0  0  0  0  0  0  0  0  0  0  0
  -47.6370   57.0241   57.0993 C   0  0  0  0  0  0  0  0  0  0  0  0
  -41.3477   59.4169   65.0314 O   0  0  0  0  0  0  0  0  0  0  0  0
  -40.7797   58.0908   65.1049 C   0  0  0  0  0  0  0  0  0  0  0  0
  -41.5804   57.0938   64.2942 C   0  0  0  0  0  0  0  0  0  0  0  0
  -42.2004   56.1185   65.1432 O   0  0  0  0  0  0  0  0  0  0  0  0
  -42.8328   56.5583   65.7326 H   0  0  0  0  0  0  0  0  0  0  0  0
  -42.6333   57.7557   63.4366 C   0  0  0  0  0  0  0  0  0  0  0  0
  -42.3408   57.6205   62.0248 O   0  0  0  0  0  0  0  0  0  0  0  0
  -41.2385   58.3043   61.0797 P   0  0  0  0  0  0  0  0  0  0  0  0
  -40.8066   59.6203   61.7247 O   0  0  0  0  0  0  0  0  0  0  0  0
  -41.8573   58.6033   59.7697 O   0  0  0  0  0  0  0  0  0  0  0  0
  -42.6328   59.1710   59.9005 H   0  0  0  0  0  0  0  0  0  0  0  0
  -39.9166   57.3418   60.9027 O   0  0  0  0  0  0  0  0  0  0  0  0
  -38.5473   57.7053   61.2280 C   0  0  0  0  0  0  0  0  0  0  0  0
  -38.2094   57.2629   62.6302 C   0  0  0  0  0  0  0  0  0  0  0  0
  -37.2143   58.1207   63.3895 N   0  0  0  0  0  0  0  0  0  0  0  0
  -36.9391   57.5352   64.7373 C   0  0  0  0  0  0  0  0  0  0  0  0
  -37.7950   59.4857   63.5625 C   0  0  0  0  0  0  0  0  0  0  0  0
  -35.9211   58.2226   62.6319 C   0  0  0  0  0  0  0  0  0  0  0  0
 34 33  1  0  0  0
 34 35  1  0  0  0
 34 36  1  0  0  0
 34 37  1  0  0  0
 22 23  1  0  0  0
 22 25  1  0  0  0
 22 21  1  0  0  0
 23 24  1  0  0  0
 27 26  1  0  0  0
 27 28  2  0  0  0
 27 31  1  0  0  0
 27 29  1  0  0  0
 25 26  1  0  0  0
 32 33  1  0  0  0
 32 31  1  0  0  0
 29 30  1  0  0  0
 20 21  1  0  0  0
 20  2  1  0  0  0
  1  2  2  0  0  0
  2  3  1  0  0  0
  3  4  1  0  0  0
  4  5  1  0  0  0
  5  6  1  0  0  0
  6  7  1  0  0  0
  7  8  1  0  0  0
  8  9  1  0  0  0
  9 10  1  0  0  0
 10 11  2  0  0  0
 11 12  1  0  0  0
 12 13  1  0  0  0
 13 14  1  0  0  0
 14 15  1  0  0  0
 15 16  1  0  0  0
 16 17  1  0  0  0
 17 18  1  0  0  0
 18 19  1  0  0  0
M  CHG 1  28  -1
M  END
> <minimizedAffinity>
-7.83239

> <CNNscore>
0.5376742482

> <CNNaffinity>
6.8625192642

> <CNN_VS>
3.6897997856

> <CNNaffinity_variance>
0.2787208557

$$$$
