/media/chris/experiments/cd1a-new-docking/inputs/ligands/4x6e_ligand.pdb


 37 36  0  0  0  0  0  0  0  0999 V2000
  -42.1689   55.3393   64.6474 O   0  0  0  0  0  0  0  0  0  0  0  0
  -41.6450   56.3179   64.1755 C   0  0  0  0  0  0  0  0  0  0  0  0
  -41.6727   57.6901   64.7754 C   0  0  0  0  0  0  0  0  0  0  0  0
  -42.3974   57.7441   66.1150 C   0  0  0  0  0  0  0  0  0  0  0  0
  -42.1706   59.0264   66.8971 C   0  0  0  0  0  0  0  0  0  0  0  0
  -43.4578   59.7199   67.3073 C   0  0  0  0  0  0  0  0  0  0  0  0
  -44.6022   59.4631   66.3420 C   0  0  0  0  0  0  0  0  0  0  0  0
  -45.8483   58.9774   67.0483 C   0  0  0  0  0  0  0  0  0  0  0  0
  -47.1463   59.2871   66.3305 C   0  0  0  0  0  0  0  0  0  0  0  0
  -48.0301   58.1131   66.1486 C   0  0  0  0  0  0  0  0  0  0  0  0
  -49.3091   58.1461   65.8362 C   0  0  0  0  0  0  0  0  0  0  0  0
  -50.1397   59.3565   65.5576 C   0  0  0  0  0  0  0  0  0  0  0  0
  -50.7505   59.2654   64.1582 C   0  0  0  0  0  0  0  0  0  0  0  0
  -50.1986   60.2528   63.1404 C   0  0  0  0  0  0  0  0  0  0  0  0
  -50.0430   59.7026   61.7279 C   0  0  0  0  0  0  0  0  0  0  0  0
  -49.8488   58.1906   61.6809 C   0  0  0  0  0  0  0  0  0  0  0  0
  -50.4329   57.5364   60.4389 C   0  0  0  0  0  0  0  0  0  0  0  0
  -49.4809   57.4136   59.2585 C   0  0  0  0  0  0  0  0  0  0  0  0
  -48.4551   56.3393   59.4505 C   0  0  0  0  0  0  0  0  0  0  0  0
  -40.9426   56.3196   63.0388 O   0  0  0  0  0  0  0  0  0  0  0  0
  -41.5406   56.9369   61.8776 C   0  0  0  0  0  0  0  0  0  0  0  0
  -40.5133   57.6740   61.0449 C   0  0  0  0  0  0  0  0  0  0  0  0
  -40.5013   57.1908   59.6948 O   0  0  0  0  0  0  0  0  0  0  0  0
  -41.3612   57.3656   59.2812 H   0  0  0  0  0  0  0  0  0  0  0  0
  -40.7330   59.1687   61.0418 C   0  0  0  0  0  0  0  0  0  0  0  0
  -40.3690   59.7689   62.3086 O   0  0  0  0  0  0  0  0  0  0  0  0
  -38.9491   60.0581   62.9985 P   0  0  0  0  0  0  0  0  0  0  0  0
  -39.1879   60.9116   64.2430 O   0  0  0  0  0  0  0  0  0  0  0  0
  -38.1113   60.8283   62.0533 O   0  0  0  0  0  0  0  0  0  0  0  0
  -38.5721   61.6445   61.8040 H   0  0  0  0  0  0  0  0  0  0  0  0
  -38.2029   58.6630   63.4478 O   0  0  0  0  0  0  0  0  0  0  0  0
  -36.9145   58.5610   64.1129 C   0  0  0  0  0  0  0  0  0  0  0  0
  -35.7969   58.6911   63.1078 C   0  0  0  0  0  0  0  0  0  0  0  0
  -34.4176   58.9920   63.6643 N   0  0  0  0  0  0  0  0  0  0  0  0
  -34.2284   58.3204   64.9865 C   0  0  0  0  0  0  0  0  0  0  0  0
  -34.2882   60.4686   63.8468 C   0  0  0  0  0  0  0  0  0  0  0  0
  -33.3526   58.5121   62.7199 C   0  0  0  0  0  0  0  0  0  0  0  0
 34 33  1  0  0  0
 34 35  1  0  0  0
 34 36  1  0  0  0
 34 37  1  0  0  0
 22 23  1  0  0  0
 22 25  1  0  0  0
 22 21  1  0  0  0
 23 24  1  0  0  0
 27 26  1  0  0  0
 27 28  2  0  0  0
 27 31  1  0  0  0
 27 29  1  0  0  0
 25 26  1  0  0  0
 32 33  1  0  0  0
 32 31  1  0  0  0
 29 30  1  0  0  0
 20 21  1  0  0  0
 20  2  1  0  0  0
  1  2  2  0  0  0
  2  3  1  0  0  0
  3  4  1  0  0  0
  4  5  1  0  0  0
  5  6  1  0  0  0
  6  7  1  0  0  0
  7  8  1  0  0  0
  8  9  1  0  0  0
  9 10  1  0  0  0
 10 11  2  0  0  0
 11 12  1  0  0  0
 12 13  1  0  0  0
 13 14  1  0  0  0
 14 15  1  0  0  0
 15 16  1  0  0  0
 16 17  1  0  0  0
 17 18  1  0  0  0
 18 19  1  0  0  0
M  CHG 1  28  -1
M  END
> <minimizedAffinity>
-7.67607

> <CNNscore>
0.7820793390

> <CNNaffinity>
6.9353218079

> <CNN_VS>
5.4239721298

> <CNNaffinity_variance>
0.1588127762

$$$$
/media/chris/experiments/cd1a-new-docking/inputs/ligands/4x6e_ligand.pdb


 37 36  0  0  0  0  0  0  0  0999 V2000
  -41.0693   60.9605   66.1383 O   0  0  0  0  0  0  0  0  0  0  0  0
  -40.5748   59.9884   65.6236 C   0  0  0  0  0  0  0  0  0  0  0  0
  -41.1197   58.5953   65.7008 C   0  0  0  0  0  0  0  0  0  0  0  0
  -42.5165   58.5307   66.3067 C   0  0  0  0  0  0  0  0  0  0  0  0
  -43.3402   57.3378   65.8529 C   0  0  0  0  0  0  0  0  0  0  0  0
  -44.8179   57.4645   66.1789 C   0  0  0  0  0  0  0  0  0  0  0  0
  -45.2132   58.8698   66.5990 C   0  0  0  0  0  0  0  0  0  0  0  0
  -46.6726   59.1589   66.3272 C   0  0  0  0  0  0  0  0  0  0  0  0
  -47.2767   58.3608   65.1896 C   0  0  0  0  0  0  0  0  0  0  0  0
  -47.5059   59.1471   63.9561 C   0  0  0  0  0  0  0  0  0  0  0  0
  -48.6708   59.3698   63.3835 C   0  0  0  0  0  0  0  0  0  0  0  0
  -50.0131   58.9212   63.8627 C   0  0  0  0  0  0  0  0  0  0  0  0
  -50.7753   58.2349   62.7280 C   0  0  0  0  0  0  0  0  0  0  0  0
  -50.3353   58.6175   61.3224 C   0  0  0  0  0  0  0  0  0  0  0  0
  -50.1599   57.4477   60.3615 C   0  0  0  0  0  0  0  0  0  0  0  0
  -48.8331   57.4705   59.6098 C   0  0  0  0  0  0  0  0  0  0  0  0
  -48.2511   56.0895   59.3528 C   0  0  0  0  0  0  0  0  0  0  0  0
  -47.5654   55.9119   58.0063 C   0  0  0  0  0  0  0  0  0  0  0  0
  -47.6714   57.1270   57.1371 C   0  0  0  0  0  0  0  0  0  0  0  0
  -39.4595   60.0132   64.8880 O   0  0  0  0  0  0  0  0  0  0  0  0
  -39.5251   60.6327   63.5846 C   0  0  0  0  0  0  0  0  0  0  0  0
  -38.1450   60.8889   63.0173 C   0  0  0  0  0  0  0  0  0  0  0  0
  -38.1975   61.0692   61.5955 O   0  0  0  0  0  0  0  0  0  0  0  0
  -38.7257   61.8561   61.3887 H   0  0  0  0  0  0  0  0  0  0  0  0
  -37.4697   62.0827   63.6507 C   0  0  0  0  0  0  0  0  0  0  0  0
  -36.6862   61.7061   64.8090 O   0  0  0  0  0  0  0  0  0  0  0  0
  -36.2630   62.5071   66.1338 P   0  0  0  0  0  0  0  0  0  0  0  0
  -36.7540   61.7179   67.3463 O   0  0  0  0  0  0  0  0  0  0  0  0
  -36.9358   63.8246   66.1259 O   0  0  0  0  0  0  0  0  0  0  0  0
  -37.8953   63.6973   66.0639 H   0  0  0  0  0  0  0  0  0  0  0  0
  -34.6306   62.6781   66.2382 O   0  0  0  0  0  0  0  0  0  0  0  0
  -33.9053   63.9374   66.2694 C   0  0  0  0  0  0  0  0  0  0  0  0
  -32.6745   63.8521   65.4011 C   0  0  0  0  0  0  0  0  0  0  0  0
  -32.8917   63.9786   63.9046 N   0  0  0  0  0  0  0  0  0  0  0  0
  -34.1864   64.6699   63.6199 C   0  0  0  0  0  0  0  0  0  0  0  0
  -32.9318   62.6090   63.3106 C   0  0  0  0  0  0  0  0  0  0  0  0
  -31.7752   64.7617   63.2748 C   0  0  0  0  0  0  0  0  0  0  0  0
 34 33  1  0  0  0
 34 35  1  0  0  0
 34 36  1  0  0  0
 34 37  1  0  0  0
 22 23  1  0  0  0
 22 25  1  0  0  0
 22 21  1  0  0  0
 23 24  1  0  0  0
 27 26  1  0  0  0
 27 28  2  0  0  0
 27 31  1  0  0  0
 27 29  1  0  0  0
 25 26  1  0  0  0
 32 33  1  0  0  0
 32 31  1  0  0  0
 29 30  1  0  0  0
 20 21  1  0  0  0
 20  2  1  0  0  0
  1  2  2  0  0  0
  2  3  1  0  0  0
  3  4  1  0  0  0
  4  5  1  0  0  0
  5  6  1  0  0  0
  6  7  1  0  0  0
  7  8  1  0  0  0
  8  9  1  0  0  0
  9 10  1  0  0  0
 10 11  2  0  0  0
 11 12  1  0  0  0
 12 13  1  0  0  0
 13 14  1  0  0  0
 14 15  1  0  0  0
 15 16  1  0  0  0
 16 17  1  0  0  0
 17 18  1  0  0  0
 18 19  1  0  0  0
M  CHG 1  28  -1
M  END
> <minimizedAffinity>
-7.83070

> <CNNscore>
0.6666926742

> <CNNaffinity>
6.3426618576

> <CNN_VS>
4.2286062241

> <CNNaffinity_variance>
0.3278342187

$$$$
/media/chris/experiments/cd1a-new-docking/inputs/ligands/4x6e_ligand.pdb


 37 36  0  0  0  0  0  0  0  0999 V2000
  -41.6723   58.9380   63.2335 O   0  0  0  0  0  0  0  0  0  0  0  0
  -41.7291   59.9329   63.9130 C   0  0  0  0  0  0  0  0  0  0  0  0
  -42.8032   60.2407   64.9105 C   0  0  0  0  0  0  0  0  0  0  0  0
  -42.4672   59.7656   66.3191 C   0  0  0  0  0  0  0  0  0  0  0  0
  -43.2127   58.5147   66.7513 C   0  0  0  0  0  0  0  0  0  0  0  0
  -44.7190   58.6981   66.8082 C   0  0  0  0  0  0  0  0  0  0  0  0
  -45.4664   57.7465   65.8899 C   0  0  0  0  0  0  0  0  0  0  0  0
  -46.6364   57.0839   66.5825 C   0  0  0  0  0  0  0  0  0  0  0  0
  -47.9868   57.3625   65.9542 C   0  0  0  0  0  0  0  0  0  0  0  0
  -48.4148   58.7770   66.0463 C   0  0  0  0  0  0  0  0  0  0  0  0
  -49.4524   59.3144   65.4389 C   0  0  0  0  0  0  0  0  0  0  0  0
  -50.4450   58.6213   64.5631 C   0  0  0  0  0  0  0  0  0  0  0  0
  -49.9300   58.5668   63.1239 C   0  0  0  0  0  0  0  0  0  0  0  0
  -50.9973   58.6776   62.0449 C   0  0  0  0  0  0  0  0  0  0  0  0
  -51.0545   57.5055   61.0727 C   0  0  0  0  0  0  0  0  0  0  0  0
  -49.9416   57.5240   60.0300 C   0  0  0  0  0  0  0  0  0  0  0  0
  -49.0333   56.3058   60.0821 C   0  0  0  0  0  0  0  0  0  0  0  0
  -48.0481   56.1781   58.9298 C   0  0  0  0  0  0  0  0  0  0  0  0
  -48.2195   57.2511   57.8990 C   0  0  0  0  0  0  0  0  0  0  0  0
  -40.8232   60.9147   63.8847 O   0  0  0  0  0  0  0  0  0  0  0  0
  -39.4271   60.5436   63.8667 C   0  0  0  0  0  0  0  0  0  0  0  0
  -38.9387   60.1381   65.2412 C   0  0  0  0  0  0  0  0  0  0  0  0
  -38.5816   58.7496   65.2724 O   0  0  0  0  0  0  0  0  0  0  0  0
  -37.8420   58.5922   64.6648 H   0  0  0  0  0  0  0  0  0  0  0  0
  -37.7670   60.9690   65.7092 C   0  0  0  0  0  0  0  0  0  0  0  0
  -37.5609   62.1304   64.8689 O   0  0  0  0  0  0  0  0  0  0  0  0
  -36.2915   63.0849   64.6378 P   0  0  0  0  0  0  0  0  0  0  0  0
  -36.7302   64.2599   63.7654 O   0  0  0  0  0  0  0  0  0  0  0  0
  -35.2515   62.3228   63.9126 O   0  0  0  0  0  0  0  0  0  0  0  0
  -35.6175   61.9894   63.0786 H   0  0  0  0  0  0  0  0  0  0  0  0
  -35.7109   63.6693   66.0613 O   0  0  0  0  0  0  0  0  0  0  0  0
  -34.3365   63.5748   66.5247 C   0  0  0  0  0  0  0  0  0  0  0  0
  -33.6880   64.9370   66.5154 C   0  0  0  0  0  0  0  0  0  0  0  0
  -32.6405   65.1807   65.4449 N   0  0  0  0  0  0  0  0  0  0  0  0
  -31.9506   63.9036   65.0867 C   0  0  0  0  0  0  0  0  0  0  0  0
  -31.6314   66.1455   65.9753 C   0  0  0  0  0  0  0  0  0  0  0  0
  -33.2741   65.7527   64.2088 C   0  0  0  0  0  0  0  0  0  0  0  0
 34 33  1  0  0  0
 34 35  1  0  0  0
 34 36  1  0  0  0
 34 37  1  0  0  0
 22 23  1  0  0  0
 22 25  1  0  0  0
 22 21  1  0  0  0
 23 24  1  0  0  0
 27 26  1  0  0  0
 27 28  2  0  0  0
 27 31  1  0  0  0
 27 29  1  0  0  0
 25 26  1  0  0  0
 32 33  1  0  0  0
 32 31  1  0  0  0
 29 30  1  0  0  0
 20 21  1  0  0  0
 20  2  1  0  0  0
  1  2  2  0  0  0
  2  3  1  0  0  0
  3  4  1  0  0  0
  4  5  1  0  0  0
  5  6  1  0  0  0
  6  7  1  0  0  0
  7  8  1  0  0  0
  8  9  1  0  0  0
  9 10  1  0  0  0
 10 11  2  0  0  0
 11 12  1  0  0  0
 12 13  1  0  0  0
 13 14  1  0  0  0
 14 15  1  0  0  0
 15 16  1  0  0  0
 16 17  1  0  0  0
 17 18  1  0  0  0
 18 19  1  0  0  0
M  CHG 1  28  -1
M  END
> <minimizedAffinity>
-7.74338

> <CNNscore>
0.6629248857

> <CNNaffinity>
6.2757139206

> <CNN_VS>
4.1603269577

> <CNNaffinity_variance>
0.5595312715

$$$$
/media/chris/experiments/cd1a-new-docking/inputs/ligands/4x6e_ligand.pdb


 37 36  0  0  0  0  0  0  0  0999 V2000
  -42.1686   59.1579   67.2784 O   0  0  0  0  0  0  0  0  0  0  0  0
  -41.7236   59.5835   66.2414 C   0  0  0  0  0  0  0  0  0  0  0  0
  -42.4601   59.6335   64.9380 C   0  0  0  0  0  0  0  0  0  0  0  0
  -43.9323   59.9948   65.0949 C   0  0  0  0  0  0  0  0  0  0  0  0
  -44.8232   59.4881   63.9738 C   0  0  0  0  0  0  0  0  0  0  0  0
  -46.0443   58.7319   64.4670 C   0  0  0  0  0  0  0  0  0  0  0  0
  -46.1477   58.6983   65.9822 C   0  0  0  0  0  0  0  0  0  0  0  0
  -47.3737   59.4253   66.4881 C   0  0  0  0  0  0  0  0  0  0  0  0
  -48.6939   58.8022   66.0819 C   0  0  0  0  0  0  0  0  0  0  0  0
  -49.6588   59.7609   65.4969 C   0  0  0  0  0  0  0  0  0  0  0  0
  -50.3165   59.6069   64.3662 C   0  0  0  0  0  0  0  0  0  0  0  0
  -50.2716   58.4285   63.4487 C   0  0  0  0  0  0  0  0  0  0  0  0
  -51.0786   58.7164   62.1816 C   0  0  0  0  0  0  0  0  0  0  0  0
  -50.8281   57.7668   61.0193 C   0  0  0  0  0  0  0  0  0  0  0  0
  -49.9435   58.3246   59.9109 C   0  0  0  0  0  0  0  0  0  0  0  0
  -49.5370   57.2830   58.8736 C   0  0  0  0  0  0  0  0  0  0  0  0
  -48.4157   56.3652   59.3341 C   0  0  0  0  0  0  0  0  0  0  0  0
  -47.3388   56.0816   58.2975 C   0  0  0  0  0  0  0  0  0  0  0  0
  -47.3924   57.0228   57.1336 C   0  0  0  0  0  0  0  0  0  0  0  0
  -40.4955   60.0917   66.1032 O   0  0  0  0  0  0  0  0  0  0  0  0
  -39.5561   59.3695   65.2768 C   0  0  0  0  0  0  0  0  0  0  0  0
  -38.1471   59.4581   65.8236 C   0  0  0  0  0  0  0  0  0  0  0  0
  -37.2099   58.8310   64.9376 O   0  0  0  0  0  0  0  0  0  0  0  0
  -37.2015   59.3022   64.0897 H   0  0  0  0  0  0  0  0  0  0  0  0
  -37.7151   60.8818   66.0864 C   0  0  0  0  0  0  0  0  0  0  0  0
  -38.0438   61.7569   64.9803 O   0  0  0  0  0  0  0  0  0  0  0  0
  -37.2767   62.1063   63.6145 P   0  0  0  0  0  0  0  0  0  0  0  0
  -35.8852   61.4785   63.6743 O   0  0  0  0  0  0  0  0  0  0  0  0
  -37.1267   63.5749   63.5177 O   0  0  0  0  0  0  0  0  0  0  0  0
  -36.6551   63.9038   64.2989 H   0  0  0  0  0  0  0  0  0  0  0  0
  -38.0732   61.5064   62.3065 O   0  0  0  0  0  0  0  0  0  0  0  0
  -39.0385   60.4197   62.3204 C   0  0  0  0  0  0  0  0  0  0  0  0
  -39.3370   59.9692   60.9118 C   0  0  0  0  0  0  0  0  0  0  0  0
  -38.9874   58.5321   60.5724 N   0  0  0  0  0  0  0  0  0  0  0  0
  -40.1976   57.7987   60.0900 C   0  0  0  0  0  0  0  0  0  0  0  0
  -38.4728   57.8623   61.8041 C   0  0  0  0  0  0  0  0  0  0  0  0
  -37.9335   58.4850   59.5030 C   0  0  0  0  0  0  0  0  0  0  0  0
 34 33  1  0  0  0
 34 35  1  0  0  0
 34 36  1  0  0  0
 34 37  1  0  0  0
 22 23  1  0  0  0
 22 25  1  0  0  0
 22 21  1  0  0  0
 23 24  1  0  0  0
 27 26  1  0  0  0
 27 28  2  0  0  0
 27 31  1  0  0  0
 27 29  1  0  0  0
 25 26  1  0  0  0
 32 33  1  0  0  0
 32 31  1  0  0  0
 29 30  1  0  0  0
 20 21  1  0  0  0
 20  2  1  0  0  0
  1  2  2  0  0  0
  2  3  1  0  0  0
  3  4  1  0  0  0
  4  5  1  0  0  0
  5  6  1  0  0  0
  6  7  1  0  0  0
  7  8  1  0  0  0
  8  9  1  0  0  0
  9 10  1  0  0  0
 10 11  2  0  0  0
 11 12  1  0  0  0
 12 13  1  0  0  0
 13 14  1  0  0  0
 14 15  1  0  0  0
 15 16  1  0  0  0
 16 17  1  0  0  0
 17 18  1  0  0  0
 18 19  1  0  0  0
M  CHG 1  28  -1
M  END
> <minimizedAffinity>
-7.85809

> <CNNscore>
0.6284177899

> <CNNaffinity>
6.7231206894

> <CNN_VS>
4.2249288559

> <CNNaffinity_variance>
0.1431944668

$$$$
/media/chris/experiments/cd1a-new-docking/inputs/ligands/4x6e_ligand.pdb


 37 36  0  0  0  0  0  0  0  0999 V2000
  -40.6274   58.3383   60.6854 O   0  0  0  0  0  0  0  0  0  0  0  0
  -41.0266   59.4409   60.9675 C   0  0  0  0  0  0  0  0  0  0  0  0
  -42.4513   59.7976   61.2622 C   0  0  0  0  0  0  0  0  0  0  0  0
  -42.7188   61.2967   61.2016 C   0  0  0  0  0  0  0  0  0  0  0  0
  -43.6035   61.8195   62.3203 C   0  0  0  0  0  0  0  0  0  0  0  0
  -44.0417   60.7429   63.2974 C   0  0  0  0  0  0  0  0  0  0  0  0
  -45.4491   60.9604   63.8260 C   0  0  0  0  0  0  0  0  0  0  0  0
  -45.7173   60.1640   65.0835 C   0  0  0  0  0  0  0  0  0  0  0  0
  -46.3885   58.8247   64.8556 C   0  0  0  0  0  0  0  0  0  0  0  0
  -47.8008   58.7747   65.2975 C   0  0  0  0  0  0  0  0  0  0  0  0
  -48.8483   58.5717   64.5255 C   0  0  0  0  0  0  0  0  0  0  0  0
  -48.8487   58.3084   63.0547 C   0  0  0  0  0  0  0  0  0  0  0  0
  -49.8926   59.1865   62.3627 C   0  0  0  0  0  0  0  0  0  0  0  0
  -51.0947   58.4458   61.7954 C   0  0  0  0  0  0  0  0  0  0  0  0
  -50.7674   57.4088   60.7278 C   0  0  0  0  0  0  0  0  0  0  0  0
  -49.8925   57.9492   59.6015 C   0  0  0  0  0  0  0  0  0  0  0  0
  -48.7706   57.0081   59.1921 C   0  0  0  0  0  0  0  0  0  0  0  0
  -48.2336   57.2090   57.7829 C   0  0  0  0  0  0  0  0  0  0  0  0
  -47.4061   56.0544   57.3079 C   0  0  0  0  0  0  0  0  0  0  0  0
  -40.2443   60.5191   61.0724 O   0  0  0  0  0  0  0  0  0  0  0  0
  -38.8687   60.3183   61.4652 C   0  0  0  0  0  0  0  0  0  0  0  0
  -38.5666   60.9711   62.7974 C   0  0  0  0  0  0  0  0  0  0  0  0
  -39.6823   60.8586   63.6913 O   0  0  0  0  0  0  0  0  0  0  0  0
  -39.8517   59.9224   63.8807 H   0  0  0  0  0  0  0  0  0  0  0  0
  -37.3340   60.3993   63.4576 C   0  0  0  0  0  0  0  0  0  0  0  0
  -36.4338   61.4398   63.9100 O   0  0  0  0  0  0  0  0  0  0  0  0
  -36.5517   62.5397   65.0728 P   0  0  0  0  0  0  0  0  0  0  0  0
  -37.6625   62.1072   66.0284 O   0  0  0  0  0  0  0  0  0  0  0  0
  -36.9317   63.8335   64.4643 O   0  0  0  0  0  0  0  0  0  0  0  0
  -37.7609   63.7281   63.9722 H   0  0  0  0  0  0  0  0  0  0  0  0
  -35.1476   62.6744   65.9185 O   0  0  0  0  0  0  0  0  0  0  0  0
  -34.3534   63.8830   66.0658 C   0  0  0  0  0  0  0  0  0  0  0  0
  -32.9325   63.6301   65.6264 C   0  0  0  0  0  0  0  0  0  0  0  0
  -32.6378   63.8137   64.1492 N   0  0  0  0  0  0  0  0  0  0  0  0
  -32.8821   62.5408   63.4042 C   0  0  0  0  0  0  0  0  0  0  0  0
  -31.2037   64.2001   63.9929 C   0  0  0  0  0  0  0  0  0  0  0  0
  -33.5094   64.8905   63.5683 C   0  0  0  0  0  0  0  0  0  0  0  0
 34 33  1  0  0  0
 34 35  1  0  0  0
 34 36  1  0  0  0
 34 37  1  0  0  0
 22 23  1  0  0  0
 22 25  1  0  0  0
 22 21  1  0  0  0
 23 24  1  0  0  0
 27 26  1  0  0  0
 27 28  2  0  0  0
 27 31  1  0  0  0
 27 29  1  0  0  0
 25 26  1  0  0  0
 32 33  1  0  0  0
 32 31  1  0  0  0
 29 30  1  0  0  0
 20 21  1  0  0  0
 20  2  1  0  0  0
  1  2  2  0  0  0
  2  3  1  0  0  0
  3  4  1  0  0  0
  4  5  1  0  0  0
  5  6  1  0  0  0
  6  7  1  0  0  0
  7  8  1  0  0  0
  8  9  1  0  0  0
  9 10  1  0  0  0
 10 11  2  0  0  0
 11 12  1  0  0  0
 12 13  1  0  0  0
 13 14  1  0  0  0
 14 15  1  0  0  0
 15 16  1  0  0  0
 16 17  1  0  0  0
 17 18  1  0  0  0
 18 19  1  0  0  0
M  CHG 1  28  -1
M  END
> <minimizedAffinity>
-8.08768

> <CNNscore>
0.5940933228

> <CNNaffinity>
6.1640787125

> <CNN_VS>
3.6620380878

> <CNNaffinity_variance>
0.1000113338

$$$$
/media/chris/experiments/cd1a-new-docking/inputs/ligands/4x6e_ligand.pdb


 37 36  0  0  0  0  0  0  0  0999 V2000
  -41.6882   61.3153   64.4634 O   0  0  0  0  0  0  0  0  0  0  0  0
  -41.8835   60.9157   63.3423 C   0  0  0  0  0  0  0  0  0  0  0  0
  -43.0781   61.2452   62.5008 C   0  0  0  0  0  0  0  0  0  0  0  0
  -44.3877   61.2113   63.2796 C   0  0  0  0  0  0  0  0  0  0  0  0
  -44.7459   59.8460   63.8409 C   0  0  0  0  0  0  0  0  0  0  0  0
  -46.1699   59.7613   64.3616 C   0  0  0  0  0  0  0  0  0  0  0  0
  -46.2408   59.4030   65.8361 C   0  0  0  0  0  0  0  0  0  0  0  0
  -47.1079   58.1898   66.0889 C   0  0  0  0  0  0  0  0  0  0  0  0
  -48.2830   58.0414   65.1439 C   0  0  0  0  0  0  0  0  0  0  0  0
  -49.6003   58.2776   65.7775 C   0  0  0  0  0  0  0  0  0  0  0  0
  -50.4842   59.1839   65.4143 C   0  0  0  0  0  0  0  0  0  0  0  0
  -50.3797   60.1399   64.2708 C   0  0  0  0  0  0  0  0  0  0  0  0
  -51.1742   59.6171   63.0728 C   0  0  0  0  0  0  0  0  0  0  0  0
  -50.3660   59.3893   61.8039 C   0  0  0  0  0  0  0  0  0  0  0  0
  -49.7343   58.0078   61.6818 C   0  0  0  0  0  0  0  0  0  0  0  0
  -49.8748   57.3943   60.2926 C   0  0  0  0  0  0  0  0  0  0  0  0
  -49.1004   56.0980   60.1145 C   0  0  0  0  0  0  0  0  0  0  0  0
  -47.9659   56.1507   59.1021 C   0  0  0  0  0  0  0  0  0  0  0  0
  -48.2344   57.1058   57.9800 C   0  0  0  0  0  0  0  0  0  0  0  0
  -41.0457   60.1195   62.6719 O   0  0  0  0  0  0  0  0  0  0  0  0
  -41.1957   58.6921   62.8360 C   0  0  0  0  0  0  0  0  0  0  0  0
  -40.4044   58.1793   64.0206 C   0  0  0  0  0  0  0  0  0  0  0  0
  -40.7830   56.8362   64.3509 O   0  0  0  0  0  0  0  0  0  0  0  0
  -40.5709   56.2487   63.6088 H   0  0  0  0  0  0  0  0  0  0  0  0
  -38.9123   58.2390   63.7915 C   0  0  0  0  0  0  0  0  0  0  0  0
  -38.2357   58.9743   64.8398 O   0  0  0  0  0  0  0  0  0  0  0  0
  -38.0646   60.5453   65.1197 P   0  0  0  0  0  0  0  0  0  0  0  0
  -38.8999   60.9054   66.3473 O   0  0  0  0  0  0  0  0  0  0  0  0
  -38.5903   61.2937   63.9569 O   0  0  0  0  0  0  0  0  0  0  0  0
  -39.5155   61.0459   63.8044 H   0  0  0  0  0  0  0  0  0  0  0  0
  -36.4945   60.9369   65.4135 O   0  0  0  0  0  0  0  0  0  0  0  0
  -36.0308   62.0403   66.2383 C   0  0  0  0  0  0  0  0  0  0  0  0
  -34.5276   62.1484   66.1678 C   0  0  0  0  0  0  0  0  0  0  0  0
  -33.9622   63.0046   65.0498 N   0  0  0  0  0  0  0  0  0  0  0  0
  -32.6848   63.6512   65.4801 C   0  0  0  0  0  0  0  0  0  0  0  0
  -34.9556   64.0681   64.7141 C   0  0  0  0  0  0  0  0  0  0  0  0
  -33.6961   62.1694   63.8300 C   0  0  0  0  0  0  0  0  0  0  0  0
 34 33  1  0  0  0
 34 35  1  0  0  0
 34 36  1  0  0  0
 34 37  1  0  0  0
 22 23  1  0  0  0
 22 25  1  0  0  0
 22 21  1  0  0  0
 23 24  1  0  0  0
 27 26  1  0  0  0
 27 28  2  0  0  0
 27 31  1  0  0  0
 27 29  1  0  0  0
 25 26  1  0  0  0
 32 33  1  0  0  0
 32 31  1  0  0  0
 29 30  1  0  0  0
 20 21  1  0  0  0
 20  2  1  0  0  0
  1  2  2  0  0  0
  2  3  1  0  0  0
  3  4  1  0  0  0
  4  5  1  0  0  0
  5  6  1  0  0  0
  6  7  1  0  0  0
  7  8  1  0  0  0
  8  9  1  0  0  0
  9 10  1  0  0  0
 10 11  2  0  0  0
 11 12  1  0  0  0
 12 13  1  0  0  0
 13 14  1  0  0  0
 14 15  1  0  0  0
 15 16  1  0  0  0
 16 17  1  0  0  0
 17 18  1  0  0  0
 18 19  1  0  0  0
M  CHG 1  28  -1
M  END
> <minimizedAffinity>
-7.82176

> <CNNscore>
0.5650190115

> <CNNaffinity>
6.2904801369

> <CNN_VS>
3.5542409420

> <CNNaffinity_variance>
0.2395923585

$$$$
/media/chris/experiments/cd1a-new-docking/inputs/ligands/4x6e_ligand.pdb


 37 36  0  0  0  0  0  0  0  0999 V2000
  -41.1442   60.9515   63.7047 O   0  0  0  0  0  0  0  0  0  0  0  0
  -41.6269   60.1144   62.9829 C   0  0  0  0  0  0  0  0  0  0  0  0
  -42.9979   60.1742   62.3826 C   0  0  0  0  0  0  0  0  0  0  0  0
  -43.9152   61.1708   63.0811 C   0  0  0  0  0  0  0  0  0  0  0  0
  -45.0457   60.5330   63.8703 C   0  0  0  0  0  0  0  0  0  0  0  0
  -44.5751   59.7957   65.1116 C   0  0  0  0  0  0  0  0  0  0  0  0
  -45.6119   58.8266   65.6533 C   0  0  0  0  0  0  0  0  0  0  0  0
  -46.9039   58.8734   64.8685 C   0  0  0  0  0  0  0  0  0  0  0  0
  -48.0945   59.4100   65.6371 C   0  0  0  0  0  0  0  0  0  0  0  0
  -49.2592   58.4960   65.6603 C   0  0  0  0  0  0  0  0  0  0  0  0
  -50.4115   58.6926   65.0536 C   0  0  0  0  0  0  0  0  0  0  0  0
  -50.7879   59.8463   64.1819 C   0  0  0  0  0  0  0  0  0  0  0  0
  -51.1777   59.3489   62.7890 C   0  0  0  0  0  0  0  0  0  0  0  0
  -50.4473   58.1013   62.3142 C   0  0  0  0  0  0  0  0  0  0  0  0
  -50.8159   57.6337   60.9114 C   0  0  0  0  0  0  0  0  0  0  0  0
  -50.0370   58.3428   59.8085 C   0  0  0  0  0  0  0  0  0  0  0  0
  -49.2555   57.3999   58.9073 C   0  0  0  0  0  0  0  0  0  0  0  0
  -48.5254   56.2721   59.6214 C   0  0  0  0  0  0  0  0  0  0  0  0
  -47.2907   55.8311   58.8975 C   0  0  0  0  0  0  0  0  0  0  0  0
  -40.9965   59.0013   62.5969 O   0  0  0  0  0  0  0  0  0  0  0  0
  -39.5635   58.9434   62.7703 C   0  0  0  0  0  0  0  0  0  0  0  0
  -38.8309   59.3303   61.5031 C   0  0  0  0  0  0  0  0  0  0  0  0
  -38.3485   60.6787   61.5778 O   0  0  0  0  0  0  0  0  0  0  0  0
  -37.7020   60.7513   62.2973 H   0  0  0  0  0  0  0  0  0  0  0  0
  -37.6809   58.4016   61.1911 C   0  0  0  0  0  0  0  0  0  0  0  0
  -37.1509   57.7804   62.3872 O   0  0  0  0  0  0  0  0  0  0  0  0
  -36.1316   58.2994   63.5130 P   0  0  0  0  0  0  0  0  0  0  0  0
  -34.7751   57.6403   63.2694 O   0  0  0  0  0  0  0  0  0  0  0  0
  -36.6315   57.8718   64.8381 O   0  0  0  0  0  0  0  0  0  0  0  0
  -36.7322   56.9072   64.8497 H   0  0  0  0  0  0  0  0  0  0  0  0
  -35.9464   59.9324   63.4505 O   0  0  0  0  0  0  0  0  0  0  0  0
  -34.8380   60.6871   64.0117 C   0  0  0  0  0  0  0  0  0  0  0  0
  -35.2150   61.2397   65.3640 C   0  0  0  0  0  0  0  0  0  0  0  0
  -35.0158   62.7305   65.5655 N   0  0  0  0  0  0  0  0  0  0  0  0
  -33.5977   63.1120   65.2855 C   0  0  0  0  0  0  0  0  0  0  0  0
  -35.3382   63.0676   66.9842 C   0  0  0  0  0  0  0  0  0  0  0  0
  -35.9173   63.5105   64.6515 C   0  0  0  0  0  0  0  0  0  0  0  0
 34 33  1  0  0  0
 34 35  1  0  0  0
 34 36  1  0  0  0
 34 37  1  0  0  0
 22 23  1  0  0  0
 22 25  1  0  0  0
 22 21  1  0  0  0
 23 24  1  0  0  0
 27 26  1  0  0  0
 27 28  2  0  0  0
 27 31  1  0  0  0
 27 29  1  0  0  0
 25 26  1  0  0  0
 32 33  1  0  0  0
 32 31  1  0  0  0
 29 30  1  0  0  0
 20 21  1  0  0  0
 20  2  1  0  0  0
  1  2  2  0  0  0
  2  3  1  0  0  0
  3  4  1  0  0  0
  4  5  1  0  0  0
  5  6  1  0  0  0
  6  7  1  0  0  0
  7  8  1  0  0  0
  8  9  1  0  0  0
  9 10  1  0  0  0
 10 11  2  0  0  0
 11 12  1  0  0  0
 12 13  1  0  0  0
 13 14  1  0  0  0
 14 15  1  0  0  0
 15 16  1  0  0  0
 16 17  1  0  0  0
 17 18  1  0  0  0
 18 19  1  0  0  0
M  CHG 1  28  -1
M  END
> <minimizedAffinity>
-7.91936

> <CNNscore>
0.5520792007

> <CNNaffinity>
6.5107202530

> <CNN_VS>
3.5944333076

> <CNNaffinity_variance>
0.5071498156

$$$$
/media/chris/experiments/cd1a-new-docking/inputs/ligands/4x6e_ligand.pdb


 37 36  0  0  0  0  0  0  0  0999 V2000
  -40.0735   57.4948   60.2463 O   0  0  0  0  0  0  0  0  0  0  0  0
  -40.9851   57.9578   60.8861 C   0  0  0  0  0  0  0  0  0  0  0  0
  -41.3962   59.3982   60.8915 C   0  0  0  0  0  0  0  0  0  0  0  0
  -42.7201   59.6410   61.6063 C   0  0  0  0  0  0  0  0  0  0  0  0
  -43.1019   61.1057   61.7343 C   0  0  0  0  0  0  0  0  0  0  0  0
  -43.9482   61.4048   62.9591 C   0  0  0  0  0  0  0  0  0  0  0  0
  -44.5527   60.1572   63.5802 C   0  0  0  0  0  0  0  0  0  0  0  0
  -45.7418   60.4745   64.4594 C   0  0  0  0  0  0  0  0  0  0  0  0
  -47.0005   59.6981   64.1292 C   0  0  0  0  0  0  0  0  0  0  0  0
  -47.8083   59.3269   65.3132 C   0  0  0  0  0  0  0  0  0  0  0  0
  -49.1191   59.4066   65.4138 C   0  0  0  0  0  0  0  0  0  0  0  0
  -50.0809   59.8445   64.3574 C   0  0  0  0  0  0  0  0  0  0  0  0
  -50.5377   58.6420   63.5298 C   0  0  0  0  0  0  0  0  0  0  0  0
  -50.7289   58.9081   62.0438 C   0  0  0  0  0  0  0  0  0  0  0  0
  -50.8888   57.6619   61.1815 C   0  0  0  0  0  0  0  0  0  0  0  0
  -49.8818   57.5782   60.0392 C   0  0  0  0  0  0  0  0  0  0  0  0
  -48.9608   56.3712   60.1219 C   0  0  0  0  0  0  0  0  0  0  0  0
  -48.0640   56.1520   58.9125 C   0  0  0  0  0  0  0  0  0  0  0  0
  -48.1761   57.2510   57.9011 C   0  0  0  0  0  0  0  0  0  0  0  0
  -41.7813   57.2422   61.6858 O   0  0  0  0  0  0  0  0  0  0  0  0
  -41.1651   56.4972   62.7591 C   0  0  0  0  0  0  0  0  0  0  0  0
  -42.0955   56.3513   63.9445 C   0  0  0  0  0  0  0  0  0  0  0  0
  -42.0958   55.0044   64.4370 O   0  0  0  0  0  0  0  0  0  0  0  0
  -41.2093   54.7777   64.7590 H   0  0  0  0  0  0  0  0  0  0  0  0
  -41.7532   57.2982   65.0709 C   0  0  0  0  0  0  0  0  0  0  0  0
  -41.4542   58.6288   64.5835 O   0  0  0  0  0  0  0  0  0  0  0  0
  -40.9430   59.9596   65.3205 P   0  0  0  0  0  0  0  0  0  0  0  0
  -41.9943   60.3686   66.3509 O   0  0  0  0  0  0  0  0  0  0  0  0
  -40.8220   61.0401   64.3173 O   0  0  0  0  0  0  0  0  0  0  0  0
  -41.6762   61.1689   63.8764 H   0  0  0  0  0  0  0  0  0  0  0  0
  -39.5131   59.7082   66.0933 O   0  0  0  0  0  0  0  0  0  0  0  0
  -38.2008   60.1026   65.6083 C   0  0  0  0  0  0  0  0  0  0  0  0
  -37.4400   58.8943   65.1210 C   0  0  0  0  0  0  0  0  0  0  0  0
  -37.1866   58.8109   63.6272 N   0  0  0  0  0  0  0  0  0  0  0  0
  -37.7416   57.5386   63.0720 C   0  0  0  0  0  0  0  0  0  0  0  0
  -35.7123   58.8415   63.3907 C   0  0  0  0  0  0  0  0  0  0  0  0
  -37.8283   59.9698   62.9188 C   0  0  0  0  0  0  0  0  0  0  0  0
 34 33  1  0  0  0
 34 35  1  0  0  0
 34 36  1  0  0  0
 34 37  1  0  0  0
 22 23  1  0  0  0
 22 25  1  0  0  0
 22 21  1  0  0  0
 23 24  1  0  0  0
 27 26  1  0  0  0
 27 28  2  0  0  0
 27 31  1  0  0  0
 27 29  1  0  0  0
 25 26  1  0  0  0
 32 33  1  0  0  0
 32 31  1  0  0  0
 29 30  1  0  0  0
 20 21  1  0  0  0
 20  2  1  0  0  0
  1  2  2  0  0  0
  2  3  1  0  0  0
  3  4  1  0  0  0
  4  5  1  0  0  0
  5  6  1  0  0  0
  6  7  1  0  0  0
  7  8  1  0  0  0
  8  9  1  0  0  0
  9 10  1  0  0  0
 10 11  2  0  0  0
 11 12  1  0  0  0
 12 13  1  0  0  0
 13 14  1  0  0  0
 14 15  1  0  0  0
 15 16  1  0  0  0
 16 17  1  0  0  0
 17 18  1  0  0  0
 18 19  1  0  0  0
M  CHG 1  28  -1
M  END
> <minimizedAffinity>
-7.85007

> <CNNscore>
0.5385427475

> <CNNaffinity>
6.8827552795

> <CNN_VS>
3.7066578865

> <CNNaffinity_variance>
0.2190717459

$$$$
/media/chris/experiments/cd1a-new-docking/inputs/ligands/4x6e_ligand.pdb


 37 36  0  0  0  0  0  0  0  0999 V2000
  -39.2985   60.9434   66.2295 O   0  0  0  0  0  0  0  0  0  0  0  0
  -39.5825   59.9864   65.5526 C   0  0  0  0  0  0  0  0  0  0  0  0
  -40.9420   59.3646   65.4580 C   0  0  0  0  0  0  0  0  0  0  0  0
  -41.7926   59.5911   66.7021 C   0  0  0  0  0  0  0  0  0  0  0  0
  -42.9718   58.6427   66.8342 C   0  0  0  0  0  0  0  0  0  0  0  0
  -44.0525   58.8732   65.7926 C   0  0  0  0  0  0  0  0  0  0  0  0
  -44.8814   57.6310   65.5145 C   0  0  0  0  0  0  0  0  0  0  0  0
  -45.8882   57.3582   66.6097 C   0  0  0  0  0  0  0  0  0  0  0  0
  -47.3368   57.5169   66.1943 C   0  0  0  0  0  0  0  0  0  0  0  0
  -47.8268   58.9134   66.2360 C   0  0  0  0  0  0  0  0  0  0  0  0
  -48.9339   59.3638   65.6827 C   0  0  0  0  0  0  0  0  0  0  0  0
  -49.9551   58.5723   64.9321 C   0  0  0  0  0  0  0  0  0  0  0  0
  -49.7704   58.7678   63.4263 C   0  0  0  0  0  0  0  0  0  0  0  0
  -51.0381   58.6481   62.5932 C   0  0  0  0  0  0  0  0  0  0  0  0
  -50.9509   57.6749   61.4238 C   0  0  0  0  0  0  0  0  0  0  0  0
  -49.5475   57.5477   60.8403 C   0  0  0  0  0  0  0  0  0  0  0  0
  -49.4657   57.8910   59.3613 C   0  0  0  0  0  0  0  0  0  0  0  0
  -48.4611   57.0781   58.5585 C   0  0  0  0  0  0  0  0  0  0  0  0
  -47.8932   55.9293   59.3339 C   0  0  0  0  0  0  0  0  0  0  0  0
  -38.7173   59.3385   64.7670 O   0  0  0  0  0  0  0  0  0  0  0  0
  -39.2434   58.3436   63.8613 C   0  0  0  0  0  0  0  0  0  0  0  0
  -38.1520   57.7285   63.0111 C   0  0  0  0  0  0  0  0  0  0  0  0
  -38.6969   56.7942   62.0696 O   0  0  0  0  0  0  0  0  0  0  0  0
  -39.2875   57.2598   61.4569 H   0  0  0  0  0  0  0  0  0  0  0  0
  -37.3359   58.7653   62.2754 C   0  0  0  0  0  0  0  0  0  0  0  0
  -35.9271   58.6693   62.5975 O   0  0  0  0  0  0  0  0  0  0  0  0
  -35.0637   59.2081   63.8384 P   0  0  0  0  0  0  0  0  0  0  0  0
  -34.0406   58.1358   64.2096 O   0  0  0  0  0  0  0  0  0  0  0  0
  -35.9681   59.4147   64.9907 O   0  0  0  0  0  0  0  0  0  0  0  0
  -36.4267   58.5847   65.1946 H   0  0  0  0  0  0  0  0  0  0  0  0
  -34.2644   60.5945   63.4588 O   0  0  0  0  0  0  0  0  0  0  0  0
  -34.4787   61.8965   64.0685 C   0  0  0  0  0  0  0  0  0  0  0  0
  -33.2789   62.7826   63.8413 C   0  0  0  0  0  0  0  0  0  0  0  0
  -33.1474   63.9903   64.7506 N   0  0  0  0  0  0  0  0  0  0  0  0
  -31.7677   64.0687   65.3209 C   0  0  0  0  0  0  0  0  0  0  0  0
  -34.1280   63.8548   65.8690 C   0  0  0  0  0  0  0  0  0  0  0  0
  -33.4307   65.2548   63.9909 C   0  0  0  0  0  0  0  0  0  0  0  0
 34 33  1  0  0  0
 34 35  1  0  0  0
 34 36  1  0  0  0
 34 37  1  0  0  0
 22 23  1  0  0  0
 22 25  1  0  0  0
 22 21  1  0  0  0
 23 24  1  0  0  0
 27 26  1  0  0  0
 27 28  2  0  0  0
 27 31  1  0  0  0
 27 29  1  0  0  0
 25 26  1  0  0  0
 32 33  1  0  0  0
 32 31  1  0  0  0
 29 30  1  0  0  0
 20 21  1  0  0  0
 20  2  1  0  0  0
  1  2  2  0  0  0
  2  3  1  0  0  0
  3  4  1  0  0  0
  4  5  1  0  0  0
  5  6  1  0  0  0
  6  7  1  0  0  0
  7  8  1  0  0  0
  8  9  1  0  0  0
  9 10  1  0  0  0
 10 11  2  0  0  0
 11 12  1  0  0  0
 12 13  1  0  0  0
 13 14  1  0  0  0
 14 15  1  0  0  0
 15 16  1  0  0  0
 16 17  1  0  0  0
 17 18  1  0  0  0
 18 19  1  0  0  0
M  CHG 1  28  -1
M  END
> <minimizedAffinity>
-7.75421

> <CNNscore>
0.5367919207

> <CNNaffinity>
6.3139557838

> <CNN_VS>
3.3892805576

> <CNNaffinity_variance>
0.6933601499

$$$$
