/media/chris/experiments/cd1a-new-docking/inputs/ligands/4x6e_ligand.pdb


 37 36  0  0  0  0  0  0  0  0999 V2000
  -39.5519   57.6238   63.9144 O   0  0  0  0  0  0  0  0  0  0  0  0
  -39.3047   58.3397   64.8530 C   0  0  0  0  0  0  0  0  0  0  0  0
  -40.2775   59.2655   65.5167 C   0  0  0  0  0  0  0  0  0  0  0  0
  -41.7220   59.0169   65.0992 C   0  0  0  0  0  0  0  0  0  0  0  0
  -42.5154   58.1615   66.0719 C   0  0  0  0  0  0  0  0  0  0  0  0
  -43.5142   58.9533   66.8973 C   0  0  0  0  0  0  0  0  0  0  0  0
  -44.7419   59.3671   66.1040 C   0  0  0  0  0  0  0  0  0  0  0  0
  -45.4564   58.1810   65.4957 C   0  0  0  0  0  0  0  0  0  0  0  0
  -46.8896   58.0002   65.9531 C   0  0  0  0  0  0  0  0  0  0  0  0
  -47.6242   59.2703   66.1515 C   0  0  0  0  0  0  0  0  0  0  0  0
  -48.8538   59.5254   65.7541 C   0  0  0  0  0  0  0  0  0  0  0  0
  -49.7901   58.5916   65.0584 C   0  0  0  0  0  0  0  0  0  0  0  0
  -49.6615   58.7495   63.5424 C   0  0  0  0  0  0  0  0  0  0  0  0
  -50.9748   58.7531   62.7737 C   0  0  0  0  0  0  0  0  0  0  0  0
  -51.0114   57.8364   61.5568 C   0  0  0  0  0  0  0  0  0  0  0  0
  -49.6354   57.5630   60.9585 C   0  0  0  0  0  0  0  0  0  0  0  0
  -49.4942   58.0177   59.5145 C   0  0  0  0  0  0  0  0  0  0  0  0
  -48.6463   57.1179   58.6281 C   0  0  0  0  0  0  0  0  0  0  0  0
  -47.9771   56.0164   59.3914 C   0  0  0  0  0  0  0  0  0  0  0  0
  -38.1136   58.4044   65.4553 O   0  0  0  0  0  0  0  0  0  0  0  0
  -37.0355   57.6169   64.9034 C   0  0  0  0  0  0  0  0  0  0  0  0
  -36.1776   58.4290   63.9567 C   0  0  0  0  0  0  0  0  0  0  0  0
  -36.9060   58.7782   62.7718 O   0  0  0  0  0  0  0  0  0  0  0  0
  -37.6575   59.3438   63.0091 H   0  0  0  0  0  0  0  0  0  0  0  0
  -35.6318   59.6828   64.5989 C   0  0  0  0  0  0  0  0  0  0  0  0
  -35.9185   60.8615   63.8078 O   0  0  0  0  0  0  0  0  0  0  0  0
  -36.8030   62.1688   64.0984 P   0  0  0  0  0  0  0  0  0  0  0  0
  -38.0454   61.7410   64.8778 O   0  0  0  0  0  0  0  0  0  0  0  0
  -37.2338   62.7461   62.8063 O   0  0  0  0  0  0  0  0  0  0  0  0
  -37.7210   62.0775   62.2998 H   0  0  0  0  0  0  0  0  0  0  0  0
  -35.9714   63.2721   64.9906 O   0  0  0  0  0  0  0  0  0  0  0  0
  -34.5296   63.4573   64.9897 C   0  0  0  0  0  0  0  0  0  0  0  0
  -34.1565   64.6502   65.8344 C   0  0  0  0  0  0  0  0  0  0  0  0
  -32.8054   65.2819   65.5546 N   0  0  0  0  0  0  0  0  0  0  0  0
  -32.3925   66.1607   66.6914 C   0  0  0  0  0  0  0  0  0  0  0  0
  -32.9125   66.1090   64.3157 C   0  0  0  0  0  0  0  0  0  0  0  0
  -31.7595   64.2220   65.3564 C   0  0  0  0  0  0  0  0  0  0  0  0
 34 33  1  0  0  0
 34 35  1  0  0  0
 34 36  1  0  0  0
 34 37  1  0  0  0
 22 23  1  0  0  0
 22 25  1  0  0  0
 22 21  1  0  0  0
 23 24  1  0  0  0
 27 26  1  0  0  0
 27 28  2  0  0  0
 27 31  1  0  0  0
 27 29  1  0  0  0
 25 26  1  0  0  0
 32 33  1  0  0  0
 32 31  1  0  0  0
 29 30  1  0  0  0
 20 21  1  0  0  0
 20  2  1  0  0  0
  1  2  2  0  0  0
  2  3  1  0  0  0
  3  4  1  0  0  0
  4  5  1  0  0  0
  5  6  1  0  0  0
  6  7  1  0  0  0
  7  8  1  0  0  0
  8  9  1  0  0  0
  9 10  1  0  0  0
 10 11  2  0  0  0
 11 12  1  0  0  0
 12 13  1  0  0  0
 13 14  1  0  0  0
 14 15  1  0  0  0
 15 16  1  0  0  0
 16 17  1  0  0  0
 17 18  1  0  0  0
 18 19  1  0  0  0
M  CHG 1  28  -1
M  END
> <minimizedAffinity>
-7.61452

> <CNNscore>
0.7003571987

> <CNNaffinity>
6.3554720879

> <CNN_VS>
4.4511008263

> <CNNaffinity_variance>
0.3117924631

$$$$
/media/chris/experiments/cd1a-new-docking/inputs/ligands/4x6e_ligand.pdb


 37 36  0  0  0  0  0  0  0  0999 V2000
  -41.3343   56.0802   63.1396 O   0  0  0  0  0  0  0  0  0  0  0  0
  -41.6892   56.7528   64.0757 C   0  0  0  0  0  0  0  0  0  0  0  0
  -42.8069   56.4124   65.0132 C   0  0  0  0  0  0  0  0  0  0  0  0
  -43.9473   57.4228   64.9781 C   0  0  0  0  0  0  0  0  0  0  0  0
  -44.4937   57.7963   66.3454 C   0  0  0  0  0  0  0  0  0  0  0  0
  -45.3485   59.0513   66.3324 C   0  0  0  0  0  0  0  0  0  0  0  0
  -45.3251   59.7698   64.9942 C   0  0  0  0  0  0  0  0  0  0  0  0
  -46.6232   59.6077   64.2351 C   0  0  0  0  0  0  0  0  0  0  0  0
  -47.8741   59.7981   65.0687 C   0  0  0  0  0  0  0  0  0  0  0  0
  -48.7535   58.6080   65.1175 C   0  0  0  0  0  0  0  0  0  0  0  0
  -50.0309   58.5737   64.7980 C   0  0  0  0  0  0  0  0  0  0  0  0
  -50.8631   59.7022   64.2814 C   0  0  0  0  0  0  0  0  0  0  0  0
  -50.8524   59.7071   62.7519 C   0  0  0  0  0  0  0  0  0  0  0  0
  -50.7857   58.3356   62.0960 C   0  0  0  0  0  0  0  0  0  0  0  0
  -49.5007   58.0507   61.3280 C   0  0  0  0  0  0  0  0  0  0  0  0
  -49.7125   57.8830   59.8269 C   0  0  0  0  0  0  0  0  0  0  0  0
  -48.8443   56.8020   59.2029 C   0  0  0  0  0  0  0  0  0  0  0  0
  -48.2513   57.1459   57.8449 C   0  0  0  0  0  0  0  0  0  0  0  0
  -47.1315   56.2314   57.4528 C   0  0  0  0  0  0  0  0  0  0  0  0
  -41.1219   57.9106   64.4268 O   0  0  0  0  0  0  0  0  0  0  0  0
  -41.0074   58.9384   63.4181 C   0  0  0  0  0  0  0  0  0  0  0  0
  -40.9587   60.3215   64.0320 C   0  0  0  0  0  0  0  0  0  0  0  0
  -42.0477   61.1304   63.5670 O   0  0  0  0  0  0  0  0  0  0  0  0
  -42.8874   60.7370   63.8519 H   0  0  0  0  0  0  0  0  0  0  0  0
  -40.9675   60.2866   65.5423 C   0  0  0  0  0  0  0  0  0  0  0  0
  -39.7535   60.8447   66.1007 O   0  0  0  0  0  0  0  0  0  0  0  0
  -38.2042   60.4755   65.9029 P   0  0  0  0  0  0  0  0  0  0  0  0
  -38.0835   58.9552   65.8114 O   0  0  0  0  0  0  0  0  0  0  0  0
  -37.4519   60.9366   67.0903 O   0  0  0  0  0  0  0  0  0  0  0  0
  -37.8274   60.5322   67.8881 H   0  0  0  0  0  0  0  0  0  0  0  0
  -37.5985   61.1391   64.5253 O   0  0  0  0  0  0  0  0  0  0  0  0
  -36.8007   60.4488   63.5253 C   0  0  0  0  0  0  0  0  0  0  0  0
  -35.3955   60.2393   64.0328 C   0  0  0  0  0  0  0  0  0  0  0  0
  -34.7846   58.8717   63.7893 N   0  0  0  0  0  0  0  0  0  0  0  0
  -35.7917   57.9487   63.1821 C   0  0  0  0  0  0  0  0  0  0  0  0
  -34.3372   58.3089   65.0983 C   0  0  0  0  0  0  0  0  0  0  0  0
  -33.6056   58.9789   62.8647 C   0  0  0  0  0  0  0  0  0  0  0  0
 34 33  1  0  0  0
 34 35  1  0  0  0
 34 36  1  0  0  0
 34 37  1  0  0  0
 22 23  1  0  0  0
 22 25  1  0  0  0
 22 21  1  0  0  0
 23 24  1  0  0  0
 27 26  1  0  0  0
 27 28  2  0  0  0
 27 31  1  0  0  0
 27 29  1  0  0  0
 25 26  1  0  0  0
 32 33  1  0  0  0
 32 31  1  0  0  0
 29 30  1  0  0  0
 20 21  1  0  0  0
 20  2  1  0  0  0
  1  2  2  0  0  0
  2  3  1  0  0  0
  3  4  1  0  0  0
  4  5  1  0  0  0
  5  6  1  0  0  0
  6  7  1  0  0  0
  7  8  1  0  0  0
  8  9  1  0  0  0
  9 10  1  0  0  0
 10 11  2  0  0  0
 11 12  1  0  0  0
 12 13  1  0  0  0
 13 14  1  0  0  0
 14 15  1  0  0  0
 15 16  1  0  0  0
 16 17  1  0  0  0
 17 18  1  0  0  0
 18 19  1  0  0  0
M  CHG 1  28  -1
M  END
> <minimizedAffinity>
-7.60666

> <CNNscore>
0.6672658920

> <CNNaffinity>
6.7045478821

> <CNN_VS>
4.4737162590

> <CNNaffinity_variance>
0.1395507902

$$$$
/media/chris/experiments/cd1a-new-docking/inputs/ligands/4x6e_ligand.pdb


 37 36  0  0  0  0  0  0  0  0999 V2000
  -42.5575   55.6696   64.9335 O   0  0  0  0  0  0  0  0  0  0  0  0
  -42.4829   56.7737   65.4131 C   0  0  0  0  0  0  0  0  0  0  0  0
  -43.5120   57.4046   66.3000 C   0  0  0  0  0  0  0  0  0  0  0  0
  -44.9128   57.3866   65.6999 C   0  0  0  0  0  0  0  0  0  0  0  0
  -45.0878   58.2932   64.4937 C   0  0  0  0  0  0  0  0  0  0  0  0
  -46.3856   59.0814   64.5133 C   0  0  0  0  0  0  0  0  0  0  0  0
  -46.6416   59.7674   65.8443 C   0  0  0  0  0  0  0  0  0  0  0  0
  -47.9260   59.2993   66.4914 C   0  0  0  0  0  0  0  0  0  0  0  0
  -48.6734   58.2313   65.7190 C   0  0  0  0  0  0  0  0  0  0  0  0
  -50.1137   58.5187   65.5317 C   0  0  0  0  0  0  0  0  0  0  0  0
  -50.6343   59.3081   64.6148 C   0  0  0  0  0  0  0  0  0  0  0  0
  -49.9048   60.0512   63.5431 C   0  0  0  0  0  0  0  0  0  0  0  0
  -49.6604   59.1370   62.3414 C   0  0  0  0  0  0  0  0  0  0  0  0
  -50.9016   58.4708   61.7659 C   0  0  0  0  0  0  0  0  0  0  0  0
  -50.6290   57.3811   60.7360 C   0  0  0  0  0  0  0  0  0  0  0  0
  -50.1333   57.9183   59.3974 C   0  0  0  0  0  0  0  0  0  0  0  0
  -48.7747   57.3746   58.9846 C   0  0  0  0  0  0  0  0  0  0  0  0
  -48.6573   56.9523   57.5279 C   0  0  0  0  0  0  0  0  0  0  0  0
  -47.2567   57.0526   57.0063 C   0  0  0  0  0  0  0  0  0  0  0  0
  -41.4515   57.6036   65.2314 O   0  0  0  0  0  0  0  0  0  0  0  0
  -41.3111   58.7144   66.1443 C   0  0  0  0  0  0  0  0  0  0  0  0
  -40.4510   59.8142   65.5588 C   0  0  0  0  0  0  0  0  0  0  0  0
  -41.0427   61.1023   65.7760 O   0  0  0  0  0  0  0  0  0  0  0  0
  -41.0950   61.2775   66.7286 H   0  0  0  0  0  0  0  0  0  0  0  0
  -39.0449   59.8073   66.1112 C   0  0  0  0  0  0  0  0  0  0  0  0
  -38.0526   59.8722   65.0584 O   0  0  0  0  0  0  0  0  0  0  0  0
  -37.4547   61.0974   64.2115 P   0  0  0  0  0  0  0  0  0  0  0  0
  -36.0069   60.7678   63.8520 O   0  0  0  0  0  0  0  0  0  0  0  0
  -37.4646   62.3092   65.0599 O   0  0  0  0  0  0  0  0  0  0  0  0
  -36.9588   62.1408   65.8703 H   0  0  0  0  0  0  0  0  0  0  0  0
  -38.3033   61.3407   62.8238 O   0  0  0  0  0  0  0  0  0  0  0  0
  -39.0167   60.3224   62.0709 C   0  0  0  0  0  0  0  0  0  0  0  0
  -40.5037   60.5672   62.1418 C   0  0  0  0  0  0  0  0  0  0  0  0
  -41.3758   59.7000   61.2528 N   0  0  0  0  0  0  0  0  0  0  0  0
  -40.5400   58.7169   60.4979 C   0  0  0  0  0  0  0  0  0  0  0  0
  -42.0888   60.5798   60.2792 C   0  0  0  0  0  0  0  0  0  0  0  0
  -42.3836   58.9490   62.0755 C   0  0  0  0  0  0  0  0  0  0  0  0
 34 33  1  0  0  0
 34 35  1  0  0  0
 34 36  1  0  0  0
 34 37  1  0  0  0
 22 23  1  0  0  0
 22 25  1  0  0  0
 22 21  1  0  0  0
 23 24  1  0  0  0
 27 26  1  0  0  0
 27 28  2  0  0  0
 27 31  1  0  0  0
 27 29  1  0  0  0
 25 26  1  0  0  0
 32 33  1  0  0  0
 32 31  1  0  0  0
 29 30  1  0  0  0
 20 21  1  0  0  0
 20  2  1  0  0  0
  1  2  2  0  0  0
  2  3  1  0  0  0
  3  4  1  0  0  0
  4  5  1  0  0  0
  5  6  1  0  0  0
  6  7  1  0  0  0
  7  8  1  0  0  0
  8  9  1  0  0  0
  9 10  1  0  0  0
 10 11  2  0  0  0
 11 12  1  0  0  0
 12 13  1  0  0  0
 13 14  1  0  0  0
 14 15  1  0  0  0
 15 16  1  0  0  0
 16 17  1  0  0  0
 17 18  1  0  0  0
 18 19  1  0  0  0
M  CHG 1  28  -1
M  END
> <minimizedAffinity>
-7.83870

> <CNNscore>
0.6629758477

> <CNNaffinity>
6.9857163429

> <CNN_VS>
4.6313610077

> <CNNaffinity_variance>
0.2588530183

$$$$
/media/chris/experiments/cd1a-new-docking/inputs/ligands/4x6e_ligand.pdb


 37 36  0  0  0  0  0  0  0  0999 V2000
  -43.0469   57.4092   66.1817 O   0  0  0  0  0  0  0  0  0  0  0  0
  -42.4192   57.7340   65.2044 C   0  0  0  0  0  0  0  0  0  0  0  0
  -42.9920   57.9421   63.8361 C   0  0  0  0  0  0  0  0  0  0  0  0
  -44.4664   58.3271   63.8556 C   0  0  0  0  0  0  0  0  0  0  0  0
  -44.7252   59.7957   64.1453 C   0  0  0  0  0  0  0  0  0  0  0  0
  -46.0698   60.0543   64.8018 C   0  0  0  0  0  0  0  0  0  0  0  0
  -46.1670   59.4722   66.2016 C   0  0  0  0  0  0  0  0  0  0  0  0
  -47.1986   58.3699   66.2924 C   0  0  0  0  0  0  0  0  0  0  0  0
  -48.2700   58.4133   65.2217 C   0  0  0  0  0  0  0  0  0  0  0  0
  -49.6358   58.6448   65.7440 C   0  0  0  0  0  0  0  0  0  0  0  0
  -50.5557   59.4125   65.1970 C   0  0  0  0  0  0  0  0  0  0  0  0
  -50.4475   60.1821   63.9208 C   0  0  0  0  0  0  0  0  0  0  0  0
  -51.1678   59.4385   62.7948 C   0  0  0  0  0  0  0  0  0  0  0  0
  -50.3023   59.0711   61.5982 C   0  0  0  0  0  0  0  0  0  0  0  0
  -49.6857   57.6786   61.6526 C   0  0  0  0  0  0  0  0  0  0  0  0
  -49.7385   56.9366   60.3211 C   0  0  0  0  0  0  0  0  0  0  0  0
  -49.2864   57.7738   59.1352 C   0  0  0  0  0  0  0  0  0  0  0  0
  -48.3591   57.0694   58.1563 C   0  0  0  0  0  0  0  0  0  0  0  0
  -47.5665   55.9712   58.7962 C   0  0  0  0  0  0  0  0  0  0  0  0
  -41.1041   57.9713   65.2009 O   0  0  0  0  0  0  0  0  0  0  0  0
  -40.5409   58.6290   64.0445 C   0  0  0  0  0  0  0  0  0  0  0  0
  -39.7864   59.8844   64.4275 C   0  0  0  0  0  0  0  0  0  0  0  0
  -40.5084   61.0597   64.0352 O   0  0  0  0  0  0  0  0  0  0  0  0
  -41.3524   61.0949   64.5120 H   0  0  0  0  0  0  0  0  0  0  0  0
  -39.4832   59.9509   65.9060 C   0  0  0  0  0  0  0  0  0  0  0  0
  -38.6074   61.0588   66.2266 O   0  0  0  0  0  0  0  0  0  0  0  0
  -37.1427   61.4627   65.7096 P   0  0  0  0  0  0  0  0  0  0  0  0
  -37.2989   62.4757   64.5767 O   0  0  0  0  0  0  0  0  0  0  0  0
  -36.4801   60.2542   65.1722 O   0  0  0  0  0  0  0  0  0  0  0  0
  -37.0264   59.8721   64.4676 H   0  0  0  0  0  0  0  0  0  0  0  0
  -36.2473   62.1433   66.9096 O   0  0  0  0  0  0  0  0  0  0  0  0
  -35.6377   63.4625   66.8752 C   0  0  0  0  0  0  0  0  0  0  0  0
  -34.1459   63.3429   66.6850 C   0  0  0  0  0  0  0  0  0  0  0  0
  -33.6135   63.6504   65.2976 N   0  0  0  0  0  0  0  0  0  0  0  0
  -33.6962   62.4397   64.4246 C   0  0  0  0  0  0  0  0  0  0  0  0
  -32.1842   64.0668   65.4164 C   0  0  0  0  0  0  0  0  0  0  0  0
  -34.4040   64.7598   64.6644 C   0  0  0  0  0  0  0  0  0  0  0  0
 34 33  1  0  0  0
 34 35  1  0  0  0
 34 36  1  0  0  0
 34 37  1  0  0  0
 22 23  1  0  0  0
 22 25  1  0  0  0
 22 21  1  0  0  0
 23 24  1  0  0  0
 27 26  1  0  0  0
 27 28  2  0  0  0
 27 31  1  0  0  0
 27 29  1  0  0  0
 25 26  1  0  0  0
 32 33  1  0  0  0
 32 31  1  0  0  0
 29 30  1  0  0  0
 20 21  1  0  0  0
 20  2  1  0  0  0
  1  2  2  0  0  0
  2  3  1  0  0  0
  3  4  1  0  0  0
  4  5  1  0  0  0
  5  6  1  0  0  0
  6  7  1  0  0  0
  7  8  1  0  0  0
  8  9  1  0  0  0
  9 10  1  0  0  0
 10 11  2  0  0  0
 11 12  1  0  0  0
 12 13  1  0  0  0
 13 14  1  0  0  0
 14 15  1  0  0  0
 15 16  1  0  0  0
 16 17  1  0  0  0
 17 18  1  0  0  0
 18 19  1  0  0  0
M  CHG 1  28  -1
M  END
> <minimizedAffinity>
-8.01359

> <CNNscore>
0.6310456991

> <CNNaffinity>
6.3089647293

> <CNN_VS>
3.9812450409

> <CNNaffinity_variance>
0.0919828564

$$$$
/media/chris/experiments/cd1a-new-docking/inputs/ligands/4x6e_ligand.pdb


 37 36  0  0  0  0  0  0  0  0999 V2000
  -41.5798   60.9360   64.7006 O   0  0  0  0  0  0  0  0  0  0  0  0
  -40.9361   60.4024   65.5698 C   0  0  0  0  0  0  0  0  0  0  0  0
  -41.1741   59.0224   66.1015 C   0  0  0  0  0  0  0  0  0  0  0  0
  -42.6323   58.7612   66.4594 C   0  0  0  0  0  0  0  0  0  0  0  0
  -43.3481   57.8128   65.5129 C   0  0  0  0  0  0  0  0  0  0  0  0
  -44.7631   58.2488   65.1762 C   0  0  0  0  0  0  0  0  0  0  0  0
  -44.9606   59.7513   65.2816 C   0  0  0  0  0  0  0  0  0  0  0  0
  -46.0057   60.2602   64.3139 C   0  0  0  0  0  0  0  0  0  0  0  0
  -47.1596   59.3094   64.0678 C   0  0  0  0  0  0  0  0  0  0  0  0
  -48.4075   59.6798   64.7732 C   0  0  0  0  0  0  0  0  0  0  0  0
  -49.5411   60.0392   64.2070 C   0  0  0  0  0  0  0  0  0  0  0  0
  -49.8358   60.1147   62.7441 C   0  0  0  0  0  0  0  0  0  0  0  0
  -50.6820   58.9151   62.3148 C   0  0  0  0  0  0  0  0  0  0  0  0
  -49.9226   57.8000   61.6108 C   0  0  0  0  0  0  0  0  0  0  0  0
  -50.3451   57.5433   60.1693 C   0  0  0  0  0  0  0  0  0  0  0  0
  -49.1766   57.5036   59.1898 C   0  0  0  0  0  0  0  0  0  0  0  0
  -48.3237   56.2502   59.3047 C   0  0  0  0  0  0  0  0  0  0  0  0
  -47.3336   56.0298   58.1709 C   0  0  0  0  0  0  0  0  0  0  0  0
  -47.5695   56.9453   57.0090 C   0  0  0  0  0  0  0  0  0  0  0  0
  -39.8937   60.9667   66.1867 O   0  0  0  0  0  0  0  0  0  0  0  0
  -38.6217   60.2849   66.1213 C   0  0  0  0  0  0  0  0  0  0  0  0
  -37.4833   61.2487   65.8619 C   0  0  0  0  0  0  0  0  0  0  0  0
  -36.8037   61.5834   67.0794 O   0  0  0  0  0  0  0  0  0  0  0  0
  -36.4019   60.7847   67.4556 H   0  0  0  0  0  0  0  0  0  0  0  0
  -36.4867   60.7133   64.8607 C   0  0  0  0  0  0  0  0  0  0  0  0
  -36.3461   59.2752   64.9574 O   0  0  0  0  0  0  0  0  0  0  0  0
  -36.0299   58.1446   63.8630 P   0  0  0  0  0  0  0  0  0  0  0  0
  -35.0288   57.1616   64.4675 O   0  0  0  0  0  0  0  0  0  0  0  0
  -35.4064   58.7867   62.6851 O   0  0  0  0  0  0  0  0  0  0  0  0
  -34.6086   59.2642   62.9616 H   0  0  0  0  0  0  0  0  0  0  0  0
  -37.3892   57.3223   63.4372 O   0  0  0  0  0  0  0  0  0  0  0  0
  -38.6990   57.9055   63.1984 C   0  0  0  0  0  0  0  0  0  0  0  0
  -39.1783   57.5605   61.8101 C   0  0  0  0  0  0  0  0  0  0  0  0
  -40.6583   57.2607   61.6598 N   0  0  0  0  0  0  0  0  0  0  0  0
  -41.0173   57.1058   60.2168 C   0  0  0  0  0  0  0  0  0  0  0  0
  -41.4365   58.3984   62.2344 C   0  0  0  0  0  0  0  0  0  0  0  0
  -41.0156   55.9957   62.3869 C   0  0  0  0  0  0  0  0  0  0  0  0
 34 33  1  0  0  0
 34 35  1  0  0  0
 34 36  1  0  0  0
 34 37  1  0  0  0
 22 23  1  0  0  0
 22 25  1  0  0  0
 22 21  1  0  0  0
 23 24  1  0  0  0
 27 26  1  0  0  0
 27 28  2  0  0  0
 27 31  1  0  0  0
 27 29  1  0  0  0
 25 26  1  0  0  0
 32 33  1  0  0  0
 32 31  1  0  0  0
 29 30  1  0  0  0
 20 21  1  0  0  0
 20  2  1  0  0  0
  1  2  2  0  0  0
  2  3  1  0  0  0
  3  4  1  0  0  0
  4  5  1  0  0  0
  5  6  1  0  0  0
  6  7  1  0  0  0
  7  8  1  0  0  0
  8  9  1  0  0  0
  9 10  1  0  0  0
 10 11  2  0  0  0
 11 12  1  0  0  0
 12 13  1  0  0  0
 13 14  1  0  0  0
 14 15  1  0  0  0
 15 16  1  0  0  0
 16 17  1  0  0  0
 17 18  1  0  0  0
 18 19  1  0  0  0
M  CHG 1  28  -1
M  END
> <minimizedAffinity>
-7.81569

> <CNNscore>
0.5899456739

> <CNNaffinity>
6.9862174988

> <CNN_VS>
4.1214885712

> <CNNaffinity_variance>
0.4952342510

$$$$
/media/chris/experiments/cd1a-new-docking/inputs/ligands/4x6e_ligand.pdb


 37 36  0  0  0  0  0  0  0  0999 V2000
  -41.0455   56.8790   61.9374 O   0  0  0  0  0  0  0  0  0  0  0  0
  -41.1588   57.5234   62.9506 C   0  0  0  0  0  0  0  0  0  0  0  0
  -42.3615   57.5302   63.8434 C   0  0  0  0  0  0  0  0  0  0  0  0
  -43.5319   58.3176   63.2665 C   0  0  0  0  0  0  0  0  0  0  0  0
  -44.6419   58.6070   64.2623 C   0  0  0  0  0  0  0  0  0  0  0  0
  -45.1368   60.0419   64.2155 C   0  0  0  0  0  0  0  0  0  0  0  0
  -46.6433   60.1541   64.3753 C   0  0  0  0  0  0  0  0  0  0  0  0
  -47.1234   59.5806   65.6899 C   0  0  0  0  0  0  0  0  0  0  0  0
  -48.4874   60.0680   66.1347 C   0  0  0  0  0  0  0  0  0  0  0  0
  -49.6003   59.1623   65.7698 C   0  0  0  0  0  0  0  0  0  0  0  0
  -50.3484   59.2489   64.6892 C   0  0  0  0  0  0  0  0  0  0  0  0
  -50.2211   60.2417   63.5798 C   0  0  0  0  0  0  0  0  0  0  0  0
  -50.7759   59.6542   62.2812 C   0  0  0  0  0  0  0  0  0  0  0  0
  -50.9923   58.1480   62.2871 C   0  0  0  0  0  0  0  0  0  0  0  0
  -50.9263   57.4823   60.9179 C   0  0  0  0  0  0  0  0  0  0  0  0
  -49.5034   57.2745   60.4095 C   0  0  0  0  0  0  0  0  0  0  0  0
  -49.2863   57.7558   58.9837 C   0  0  0  0  0  0  0  0  0  0  0  0
  -48.2743   56.9591   58.1741 C   0  0  0  0  0  0  0  0  0  0  0  0
  -47.5611   55.9268   58.9923 C   0  0  0  0  0  0  0  0  0  0  0  0
  -40.2104   58.3281   63.4392 O   0  0  0  0  0  0  0  0  0  0  0  0
  -40.1674   58.5285   64.8692 C   0  0  0  0  0  0  0  0  0  0  0  0
  -39.8321   59.9619   65.2231 C   0  0  0  0  0  0  0  0  0  0  0  0
  -40.8878   60.5657   65.9830 O   0  0  0  0  0  0  0  0  0  0  0  0
  -40.9897   60.0954   66.8253 H   0  0  0  0  0  0  0  0  0  0  0  0
  -38.5325   60.0829   65.9838 C   0  0  0  0  0  0  0  0  0  0  0  0
  -38.1278   61.4644   66.1417 O   0  0  0  0  0  0  0  0  0  0  0  0
  -36.9799   62.3406   65.4413 P   0  0  0  0  0  0  0  0  0  0  0  0
  -36.9132   63.6931   66.1485 O   0  0  0  0  0  0  0  0  0  0  0  0
  -37.3526   62.5666   64.0277 O   0  0  0  0  0  0  0  0  0  0  0  0
  -38.2206   62.9977   63.9870 H   0  0  0  0  0  0  0  0  0  0  0  0
  -35.5109   61.6098   65.5555 O   0  0  0  0  0  0  0  0  0  0  0  0
  -34.8433   60.8675   64.4990 C   0  0  0  0  0  0  0  0  0  0  0  0
  -34.7621   59.4050   64.8602 C   0  0  0  0  0  0  0  0  0  0  0  0
  -35.3731   58.4287   63.8721 N   0  0  0  0  0  0  0  0  0  0  0  0
  -36.5233   59.0598   63.1554 C   0  0  0  0  0  0  0  0  0  0  0  0
  -35.8647   57.2348   64.6226 C   0  0  0  0  0  0  0  0  0  0  0  0
  -34.3509   57.9944   62.8606 C   0  0  0  0  0  0  0  0  0  0  0  0
 34 33  1  0  0  0
 34 35  1  0  0  0
 34 36  1  0  0  0
 34 37  1  0  0  0
 22 23  1  0  0  0
 22 25  1  0  0  0
 22 21  1  0  0  0
 23 24  1  0  0  0
 27 26  1  0  0  0
 27 28  2  0  0  0
 27 31  1  0  0  0
 27 29  1  0  0  0
 25 26  1  0  0  0
 32 33  1  0  0  0
 32 31  1  0  0  0
 29 30  1  0  0  0
 20 21  1  0  0  0
 20  2  1  0  0  0
  1  2  2  0  0  0
  2  3  1  0  0  0
  3  4  1  0  0  0
  4  5  1  0  0  0
  5  6  1  0  0  0
  6  7  1  0  0  0
  7  8  1  0  0  0
  8  9  1  0  0  0
  9 10  1  0  0  0
 10 11  2  0  0  0
 11 12  1  0  0  0
 12 13  1  0  0  0
 13 14  1  0  0  0
 14 15  1  0  0  0
 15 16  1  0  0  0
 16 17  1  0  0  0
 17 18  1  0  0  0
 18 19  1  0  0  0
M  CHG 1  28  -1
M  END
> <minimizedAffinity>
-8.09413

> <CNNscore>
0.5758422613

> <CNNaffinity>
6.5805077553

> <CNN_VS>
3.7893345356

> <CNNaffinity_variance>
0.1627991349

$$$$
/media/chris/experiments/cd1a-new-docking/inputs/ligands/4x6e_ligand.pdb


 37 36  0  0  0  0  0  0  0  0999 V2000
  -41.8097   56.9024   63.4778 O   0  0  0  0  0  0  0  0  0  0  0  0
  -41.9055   58.0444   63.1018 C   0  0  0  0  0  0  0  0  0  0  0  0
  -43.1522   58.6785   62.5655 C   0  0  0  0  0  0  0  0  0  0  0  0
  -44.3118   58.6507   63.5540 C   0  0  0  0  0  0  0  0  0  0  0  0
  -44.5949   59.9848   64.2231 C   0  0  0  0  0  0  0  0  0  0  0  0
  -45.6867   59.9132   65.2760 C   0  0  0  0  0  0  0  0  0  0  0  0
  -46.8494   59.0266   64.8640 C   0  0  0  0  0  0  0  0  0  0  0  0
  -47.9538   59.0146   65.8974 C   0  0  0  0  0  0  0  0  0  0  0  0
  -49.2424   58.3606   65.4416 C   0  0  0  0  0  0  0  0  0  0  0  0
  -50.3845   59.2954   65.3240 C   0  0  0  0  0  0  0  0  0  0  0  0
  -50.7866   59.8941   64.2218 C   0  0  0  0  0  0  0  0  0  0  0  0
  -50.2162   59.7377   62.8496 C   0  0  0  0  0  0  0  0  0  0  0  0
  -50.6662   58.4086   62.2407 C   0  0  0  0  0  0  0  0  0  0  0  0
  -49.6617   57.7445   61.3103 C   0  0  0  0  0  0  0  0  0  0  0  0
  -49.6334   58.2991   59.8912 C   0  0  0  0  0  0  0  0  0  0  0  0
  -49.2188   57.2712   58.8435 C   0  0  0  0  0  0  0  0  0  0  0  0
  -48.3767   56.1345   59.4007 C   0  0  0  0  0  0  0  0  0  0  0  0
  -47.0785   55.8601   58.6565 C   0  0  0  0  0  0  0  0  0  0  0  0
  -47.2547   55.8469   57.1690 C   0  0  0  0  0  0  0  0  0  0  0  0
  -40.9031   58.9279   63.1197 O   0  0  0  0  0  0  0  0  0  0  0  0
  -40.2476   59.2292   61.8681 C   0  0  0  0  0  0  0  0  0  0  0  0
  -38.8774   59.8350   62.0862 C   0  0  0  0  0  0  0  0  0  0  0  0
  -38.3851   60.4424   60.8840 O   0  0  0  0  0  0  0  0  0  0  0  0
  -38.9678   61.1750   60.6298 H   0  0  0  0  0  0  0  0  0  0  0  0
  -38.8633   60.8505   63.2046 C   0  0  0  0  0  0  0  0  0  0  0  0
  -37.5331   61.0364   63.7462 O   0  0  0  0  0  0  0  0  0  0  0  0
  -36.8964   62.1759   64.6799 P   0  0  0  0  0  0  0  0  0  0  0  0
  -37.5303   62.0670   66.0657 O   0  0  0  0  0  0  0  0  0  0  0  0
  -37.2346   63.4987   64.1105 O   0  0  0  0  0  0  0  0  0  0  0  0
  -38.1981   63.5813   64.0345 H   0  0  0  0  0  0  0  0  0  0  0  0
  -35.2684   61.9942   64.8261 O   0  0  0  0  0  0  0  0  0  0  0  0
  -34.2694   62.4662   63.8814 C   0  0  0  0  0  0  0  0  0  0  0  0
  -33.1539   63.1724   64.6114 C   0  0  0  0  0  0  0  0  0  0  0  0
  -33.0890   64.6802   64.4527 N   0  0  0  0  0  0  0  0  0  0  0  0
  -31.7868   65.0870   63.8415 C   0  0  0  0  0  0  0  0  0  0  0  0
  -33.2088   65.3078   65.8026 C   0  0  0  0  0  0  0  0  0  0  0  0
  -34.2086   65.1661   63.5769 C   0  0  0  0  0  0  0  0  0  0  0  0
 34 33  1  0  0  0
 34 35  1  0  0  0
 34 36  1  0  0  0
 34 37  1  0  0  0
 22 23  1  0  0  0
 22 25  1  0  0  0
 22 21  1  0  0  0
 23 24  1  0  0  0
 27 26  1  0  0  0
 27 28  2  0  0  0
 27 31  1  0  0  0
 27 29  1  0  0  0
 25 26  1  0  0  0
 32 33  1  0  0  0
 32 31  1  0  0  0
 29 30  1  0  0  0
 20 21  1  0  0  0
 20  2  1  0  0  0
  1  2  2  0  0  0
  2  3  1  0  0  0
  3  4  1  0  0  0
  4  5  1  0  0  0
  5  6  1  0  0  0
  6  7  1  0  0  0
  7  8  1  0  0  0
  8  9  1  0  0  0
  9 10  1  0  0  0
 10 11  2  0  0  0
 11 12  1  0  0  0
 12 13  1  0  0  0
 13 14  1  0  0  0
 14 15  1  0  0  0
 15 16  1  0  0  0
 16 17  1  0  0  0
 17 18  1  0  0  0
 18 19  1  0  0  0
M  CHG 1  28  -1
M  END
> <minimizedAffinity>
-8.11071

> <CNNscore>
0.5661220551

> <CNNaffinity>
6.3205471039

> <CNN_VS>
3.5782010555

> <CNNaffinity_variance>
0.4970628619

$$$$
/media/chris/experiments/cd1a-new-docking/inputs/ligands/4x6e_ligand.pdb


 37 36  0  0  0  0  0  0  0  0999 V2000
  -41.5255   60.4373   65.4070 O   0  0  0  0  0  0  0  0  0  0  0  0
  -41.4584   60.5664   64.2097 C   0  0  0  0  0  0  0  0  0  0  0  0
  -42.6298   60.6949   63.2849 C   0  0  0  0  0  0  0  0  0  0  0  0
  -43.1451   59.3525   62.7801 C   0  0  0  0  0  0  0  0  0  0  0  0
  -44.3465   58.8180   63.5406 C   0  0  0  0  0  0  0  0  0  0  0  0
  -45.2779   59.9075   64.0419 C   0  0  0  0  0  0  0  0  0  0  0  0
  -45.4647   59.8795   65.5492 C   0  0  0  0  0  0  0  0  0  0  0  0
  -46.9182   60.0058   65.9480 C   0  0  0  0  0  0  0  0  0  0  0  0
  -47.9036   59.4497   64.9402 C   0  0  0  0  0  0  0  0  0  0  0  0
  -49.2228   59.1015   65.5150 C   0  0  0  0  0  0  0  0  0  0  0  0
  -50.3817   59.1658   64.8924 C   0  0  0  0  0  0  0  0  0  0  0  0
  -50.6226   59.5597   63.4713 C   0  0  0  0  0  0  0  0  0  0  0  0
  -50.6933   58.3153   62.5847 C   0  0  0  0  0  0  0  0  0  0  0  0
  -49.7451   58.3081   61.3946 C   0  0  0  0  0  0  0  0  0  0  0  0
  -50.3229   57.7174   60.1141 C   0  0  0  0  0  0  0  0  0  0  0  0
  -49.2873   57.5231   59.0114 C   0  0  0  0  0  0  0  0  0  0  0  0
  -48.3760   56.3260   59.2312 C   0  0  0  0  0  0  0  0  0  0  0  0
  -47.3964   56.0372   58.1037 C   0  0  0  0  0  0  0  0  0  0  0  0
  -47.4872   57.0323   56.9878 C   0  0  0  0  0  0  0  0  0  0  0  0
  -40.3133   60.6268   63.5236 O   0  0  0  0  0  0  0  0  0  0  0  0
  -39.0794   60.6688   64.2737 C   0  0  0  0  0  0  0  0  0  0  0  0
  -37.8979   61.0036   63.3883 C   0  0  0  0  0  0  0  0  0  0  0  0
  -38.2385   60.8698   62.0018 O   0  0  0  0  0  0  0  0  0  0  0  0
  -38.9346   61.5069   61.7769 H   0  0  0  0  0  0  0  0  0  0  0  0
  -37.3579   62.3916   63.6416 C   0  0  0  0  0  0  0  0  0  0  0  0
  -37.2735   62.6864   65.0570 O   0  0  0  0  0  0  0  0  0  0  0  0
  -36.1559   62.3640   66.1628 P   0  0  0  0  0  0  0  0  0  0  0  0
  -35.0473   61.5498   65.4979 O   0  0  0  0  0  0  0  0  0  0  0  0
  -36.7682   61.5421   67.2296 O   0  0  0  0  0  0  0  0  0  0  0  0
  -37.1447   60.7367   66.8415 H   0  0  0  0  0  0  0  0  0  0  0  0
  -35.5042   63.7423   66.7795 O   0  0  0  0  0  0  0  0  0  0  0  0
  -34.1834   64.2698   66.4790 C   0  0  0  0  0  0  0  0  0  0  0  0
  -34.1112   64.7041   65.0360 C   0  0  0  0  0  0  0  0  0  0  0  0
  -32.7712   64.5345   64.3442 N   0  0  0  0  0  0  0  0  0  0  0  0
  -31.7732   63.9275   65.2772 C   0  0  0  0  0  0  0  0  0  0  0  0
  -32.2812   65.8789   63.9168 C   0  0  0  0  0  0  0  0  0  0  0  0
  -32.9094   63.6488   63.1388 C   0  0  0  0  0  0  0  0  0  0  0  0
 34 33  1  0  0  0
 34 35  1  0  0  0
 34 36  1  0  0  0
 34 37  1  0  0  0
 22 23  1  0  0  0
 22 25  1  0  0  0
 22 21  1  0  0  0
 23 24  1  0  0  0
 27 26  1  0  0  0
 27 28  2  0  0  0
 27 31  1  0  0  0
 27 29  1  0  0  0
 25 26  1  0  0  0
 32 33  1  0  0  0
 32 31  1  0  0  0
 29 30  1  0  0  0
 20 21  1  0  0  0
 20  2  1  0  0  0
  1  2  2  0  0  0
  2  3  1  0  0  0
  3  4  1  0  0  0
  4  5  1  0  0  0
  5  6  1  0  0  0
  6  7  1  0  0  0
  7  8  1  0  0  0
  8  9  1  0  0  0
  9 10  1  0  0  0
 10 11  2  0  0  0
 11 12  1  0  0  0
 12 13  1  0  0  0
 13 14  1  0  0  0
 14 15  1  0  0  0
 15 16  1  0  0  0
 16 17  1  0  0  0
 17 18  1  0  0  0
 18 19  1  0  0  0
M  CHG 1  28  -1
M  END
> <minimizedAffinity>
-8.09411

> <CNNscore>
0.5246506929

> <CNNaffinity>
6.1337351799

> <CNN_VS>
3.2180683613

> <CNNaffinity_variance>
0.6723979712

$$$$
/media/chris/experiments/cd1a-new-docking/inputs/ligands/4x6e_ligand.pdb


 37 36  0  0  0  0  0  0  0  0999 V2000
  -41.9900   61.2545   63.0833 O   0  0  0  0  0  0  0  0  0  0  0  0
  -42.5044   60.2793   63.5722 C   0  0  0  0  0  0  0  0  0  0  0  0
  -43.8178   59.6915   63.1560 C   0  0  0  0  0  0  0  0  0  0  0  0
  -44.0494   58.2902   63.7084 C   0  0  0  0  0  0  0  0  0  0  0  0
  -45.0510   58.2254   64.8486 C   0  0  0  0  0  0  0  0  0  0  0  0
  -46.0269   59.3888   64.8626 C   0  0  0  0  0  0  0  0  0  0  0  0
  -46.8037   59.4944   66.1638 C   0  0  0  0  0  0  0  0  0  0  0  0
  -47.9299   60.5003   66.0776 C   0  0  0  0  0  0  0  0  0  0  0  0
  -48.7942   60.3811   64.8388 C   0  0  0  0  0  0  0  0  0  0  0  0
  -49.9646   59.4894   65.0033 C   0  0  0  0  0  0  0  0  0  0  0  0
  -50.4125   58.6255   64.1157 C   0  0  0  0  0  0  0  0  0  0  0  0
  -49.8262   58.3221   62.7752 C   0  0  0  0  0  0  0  0  0  0  0  0
  -50.9372   58.1908   61.7321 C   0  0  0  0  0  0  0  0  0  0  0  0
  -50.5093   57.6061   60.3940 C   0  0  0  0  0  0  0  0  0  0  0  0
  -49.5929   56.3920   60.4849 C   0  0  0  0  0  0  0  0  0  0  0  0
  -48.4255   56.4350   59.5043 C   0  0  0  0  0  0  0  0  0  0  0  0
  -48.6715   57.3274   58.2982 C   0  0  0  0  0  0  0  0  0  0  0  0
  -47.7041   57.1380   57.1395 C   0  0  0  0  0  0  0  0  0  0  0  0
  -47.0946   55.7700   57.1109 C   0  0  0  0  0  0  0  0  0  0  0  0
  -41.9652   59.5623   64.5627 O   0  0  0  0  0  0  0  0  0  0  0  0
  -41.2072   60.2676   65.5701 C   0  0  0  0  0  0  0  0  0  0  0  0
  -39.9836   59.4859   65.9986 C   0  0  0  0  0  0  0  0  0  0  0  0
  -39.7333   58.3908   65.1072 O   0  0  0  0  0  0  0  0  0  0  0  0
  -39.5390   58.7334   64.2208 H   0  0  0  0  0  0  0  0  0  0  0  0
  -38.7475   60.3492   66.0938 C   0  0  0  0  0  0  0  0  0  0  0  0
  -38.5550   61.1471   64.9007 O   0  0  0  0  0  0  0  0  0  0  0  0
  -37.7590   60.8726   63.5343 P   0  0  0  0  0  0  0  0  0  0  0  0
  -38.6768   61.2312   62.3668 O   0  0  0  0  0  0  0  0  0  0  0  0
  -37.4378   59.4308   63.4547 O   0  0  0  0  0  0  0  0  0  0  0  0
  -38.2562   58.9134   63.5139 H   0  0  0  0  0  0  0  0  0  0  0  0
  -36.3959   61.7878   63.4376 O   0  0  0  0  0  0  0  0  0  0  0  0
  -35.3070   61.8002   64.4003 C   0  0  0  0  0  0  0  0  0  0  0  0
  -35.4833   62.9402   65.3726 C   0  0  0  0  0  0  0  0  0  0  0  0
  -34.3178   63.9029   65.5057 N   0  0  0  0  0  0  0  0  0  0  0  0
  -34.3553   64.9248   64.4152 C   0  0  0  0  0  0  0  0  0  0  0  0
  -33.0450   63.1287   65.4020 C   0  0  0  0  0  0  0  0  0  0  0  0
  -34.3653   64.6069   66.8319 C   0  0  0  0  0  0  0  0  0  0  0  0
 34 33  1  0  0  0
 34 35  1  0  0  0
 34 36  1  0  0  0
 34 37  1  0  0  0
 22 23  1  0  0  0
 22 25  1  0  0  0
 22 21  1  0  0  0
 23 24  1  0  0  0
 27 26  1  0  0  0
 27 28  2  0  0  0
 27 31  1  0  0  0
 27 29  1  0  0  0
 25 26  1  0  0  0
 32 33  1  0  0  0
 32 31  1  0  0  0
 29 30  1  0  0  0
 20 21  1  0  0  0
 20  2  1  0  0  0
  1  2  2  0  0  0
  2  3  1  0  0  0
  3  4  1  0  0  0
  4  5  1  0  0  0
  5  6  1  0  0  0
  6  7  1  0  0  0
  7  8  1  0  0  0
  8  9  1  0  0  0
  9 10  1  0  0  0
 10 11  2  0  0  0
 11 12  1  0  0  0
 12 13  1  0  0  0
 13 14  1  0  0  0
 14 15  1  0  0  0
 15 16  1  0  0  0
 16 17  1  0  0  0
 17 18  1  0  0  0
 18 19  1  0  0  0
M  CHG 1  28  -1
M  END
> <minimizedAffinity>
-7.65506

> <CNNscore>
0.5133456588

> <CNNaffinity>
6.2737679482

> <CNN_VS>
3.2206115723

> <CNNaffinity_variance>
0.3929678798

$$$$
