/media/chris/experiments/cd1a-new-docking/inputs/ligands/4x6e_ligand.pdb


 37 36  0  0  0  0  0  0  0  0999 V2000
  -42.1157   56.3747   64.5140 O   0  0  0  0  0  0  0  0  0  0  0  0
  -42.1007   57.5624   64.3047 C   0  0  0  0  0  0  0  0  0  0  0  0
  -43.3086   58.4161   64.0685 C   0  0  0  0  0  0  0  0  0  0  0  0
  -44.5239   57.9710   64.8732 C   0  0  0  0  0  0  0  0  0  0  0  0
  -44.7080   58.7097   66.1877 C   0  0  0  0  0  0  0  0  0  0  0  0
  -46.1546   58.7800   66.6441 C   0  0  0  0  0  0  0  0  0  0  0  0
  -46.7239   57.4225   67.0186 C   0  0  0  0  0  0  0  0  0  0  0  0
  -47.8262   56.9856   66.0797 C   0  0  0  0  0  0  0  0  0  0  0  0
  -48.2996   58.0543   65.1154 C   0  0  0  0  0  0  0  0  0  0  0  0
  -49.5001   58.7903   65.5729 C   0  0  0  0  0  0  0  0  0  0  0  0
  -50.5372   59.1203   64.8310 C   0  0  0  0  0  0  0  0  0  0  0  0
  -50.7553   58.7965   63.3888 C   0  0  0  0  0  0  0  0  0  0  0  0
  -50.1349   59.8806   62.5059 C   0  0  0  0  0  0  0  0  0  0  0  0
  -49.9623   59.5084   61.0406 C   0  0  0  0  0  0  0  0  0  0  0  0
  -50.0328   58.0155   60.7425 C   0  0  0  0  0  0  0  0  0  0  0  0
  -49.8558   57.6802   59.2652 C   0  0  0  0  0  0  0  0  0  0  0  0
  -48.5744   56.9213   58.9589 C   0  0  0  0  0  0  0  0  0  0  0  0
  -47.9418   57.2290   57.6100 C   0  0  0  0  0  0  0  0  0  0  0  0
  -47.2467   56.0445   57.0121 C   0  0  0  0  0  0  0  0  0  0  0  0
  -40.9899   58.3041   64.2645 O   0  0  0  0  0  0  0  0  0  0  0  0
  -40.2213   58.3013   63.0414 C   0  0  0  0  0  0  0  0  0  0  0  0
  -38.7571   58.0170   63.3016 C   0  0  0  0  0  0  0  0  0  0  0  0
  -37.9220   59.0005   62.6756 O   0  0  0  0  0  0  0  0  0  0  0  0
  -38.1018   59.8713   63.0632 H   0  0  0  0  0  0  0  0  0  0  0  0
  -38.4328   57.9468   64.7755 C   0  0  0  0  0  0  0  0  0  0  0  0
  -37.7520   59.1399   65.2343 O   0  0  0  0  0  0  0  0  0  0  0  0
  -38.2888   60.5817   65.6915 P   0  0  0  0  0  0  0  0  0  0  0  0
  -37.5796   60.9656   66.9891 O   0  0  0  0  0  0  0  0  0  0  0  0
  -39.7403   60.4835   65.9597 O   0  0  0  0  0  0  0  0  0  0  0  0
  -39.8996   59.8018   66.6311 H   0  0  0  0  0  0  0  0  0  0  0  0
  -37.9741   61.7290   64.5560 O   0  0  0  0  0  0  0  0  0  0  0  0
  -36.6992   61.9445   63.8918 C   0  0  0  0  0  0  0  0  0  0  0  0
  -36.2537   63.3749   64.0695 C   0  0  0  0  0  0  0  0  0  0  0  0
  -35.0120   63.5974   64.9131 N   0  0  0  0  0  0  0  0  0  0  0  0
  -35.3831   63.8098   66.3457 C   0  0  0  0  0  0  0  0  0  0  0  0
  -34.3043   64.8123   64.4096 C   0  0  0  0  0  0  0  0  0  0  0  0
  -34.0934   62.4124   64.8207 C   0  0  0  0  0  0  0  0  0  0  0  0
 34 33  1  0  0  0
 34 35  1  0  0  0
 34 36  1  0  0  0
 34 37  1  0  0  0
 22 23  1  0  0  0
 22 25  1  0  0  0
 22 21  1  0  0  0
 23 24  1  0  0  0
 27 26  1  0  0  0
 27 28  2  0  0  0
 27 31  1  0  0  0
 27 29  1  0  0  0
 25 26  1  0  0  0
 32 33  1  0  0  0
 32 31  1  0  0  0
 29 30  1  0  0  0
 20 21  1  0  0  0
 20  2  1  0  0  0
  1  2  2  0  0  0
  2  3  1  0  0  0
  3  4  1  0  0  0
  4  5  1  0  0  0
  5  6  1  0  0  0
  6  7  1  0  0  0
  7  8  1  0  0  0
  8  9  1  0  0  0
  9 10  1  0  0  0
 10 11  2  0  0  0
 11 12  1  0  0  0
 12 13  1  0  0  0
 13 14  1  0  0  0
 14 15  1  0  0  0
 15 16  1  0  0  0
 16 17  1  0  0  0
 17 18  1  0  0  0
 18 19  1  0  0  0
M  CHG 1  28  -1
M  END
> <minimizedAffinity>
-7.73179

> <CNNscore>
0.7451623082

> <CNNaffinity>
6.7411718369

> <CNN_VS>
5.0232672691

> <CNNaffinity_variance>
0.4378182292

$$$$
/media/chris/experiments/cd1a-new-docking/inputs/ligands/4x6e_ligand.pdb


 37 36  0  0  0  0  0  0  0  0999 V2000
  -42.3100   55.6970   64.8794 O   0  0  0  0  0  0  0  0  0  0  0  0
  -42.3082   56.7938   65.3808 C   0  0  0  0  0  0  0  0  0  0  0  0
  -43.2261   57.2486   66.4738 C   0  0  0  0  0  0  0  0  0  0  0  0
  -43.1685   58.7518   66.7182 C   0  0  0  0  0  0  0  0  0  0  0  0
  -44.4192   59.5023   66.2939 C   0  0  0  0  0  0  0  0  0  0  0  0
  -45.6722   59.0493   67.0222 C   0  0  0  0  0  0  0  0  0  0  0  0
  -46.9418   59.6558   66.4497 C   0  0  0  0  0  0  0  0  0  0  0  0
  -46.7562   60.1341   65.0270 C   0  0  0  0  0  0  0  0  0  0  0  0
  -47.8686   59.7431   64.0754 C   0  0  0  0  0  0  0  0  0  0  0  0
  -48.8244   58.7609   64.6360 C   0  0  0  0  0  0  0  0  0  0  0  0
  -50.1362   58.8050   64.5257 C   0  0  0  0  0  0  0  0  0  0  0  0
  -50.9465   59.8190   63.7856 C   0  0  0  0  0  0  0  0  0  0  0  0
  -50.9946   59.4701   62.2971 C   0  0  0  0  0  0  0  0  0  0  0  0
  -51.0433   57.9833   61.9771 C   0  0  0  0  0  0  0  0  0  0  0  0
  -50.8326   57.6331   60.5090 C   0  0  0  0  0  0  0  0  0  0  0  0
  -49.3646   57.5900   60.0975 C   0  0  0  0  0  0  0  0  0  0  0  0
  -48.8231   56.1820   59.9076 C   0  0  0  0  0  0  0  0  0  0  0  0
  -47.7153   56.0440   58.8740 C   0  0  0  0  0  0  0  0  0  0  0  0
  -47.9299   56.9151   57.6745 C   0  0  0  0  0  0  0  0  0  0  0  0
  -41.4673   57.7746   65.0394 O   0  0  0  0  0  0  0  0  0  0  0  0
  -41.0185   57.8307   63.6675 C   0  0  0  0  0  0  0  0  0  0  0  0
  -39.5082   57.8849   63.5749 C   0  0  0  0  0  0  0  0  0  0  0  0
  -39.0863   58.8287   62.5812 O   0  0  0  0  0  0  0  0  0  0  0  0
  -39.3740   59.7188   62.8379 H   0  0  0  0  0  0  0  0  0  0  0  0
  -38.8577   58.2215   64.8962 C   0  0  0  0  0  0  0  0  0  0  0  0
  -37.7968   59.1951   64.7413 O   0  0  0  0  0  0  0  0  0  0  0  0
  -37.7231   60.7697   65.0435 P   0  0  0  0  0  0  0  0  0  0  0  0
  -38.5483   61.0543   66.2974 O   0  0  0  0  0  0  0  0  0  0  0  0
  -38.3270   61.4990   63.9070 O   0  0  0  0  0  0  0  0  0  0  0  0
  -39.2375   61.1924   63.7733 H   0  0  0  0  0  0  0  0  0  0  0  0
  -36.1752   61.2606   65.3050 O   0  0  0  0  0  0  0  0  0  0  0  0
  -35.3348   61.9729   64.3568 C   0  0  0  0  0  0  0  0  0  0  0  0
  -34.0339   62.3705   65.0091 C   0  0  0  0  0  0  0  0  0  0  0  0
  -33.8425   63.8492   65.2918 N   0  0  0  0  0  0  0  0  0  0  0  0
  -32.3954   64.1587   65.5049 C   0  0  0  0  0  0  0  0  0  0  0  0
  -34.6016   64.2008   66.5290 C   0  0  0  0  0  0  0  0  0  0  0  0
  -34.3511   64.6747   64.1444 C   0  0  0  0  0  0  0  0  0  0  0  0
 34 33  1  0  0  0
 34 35  1  0  0  0
 34 36  1  0  0  0
 34 37  1  0  0  0
 22 23  1  0  0  0
 22 25  1  0  0  0
 22 21  1  0  0  0
 23 24  1  0  0  0
 27 26  1  0  0  0
 27 28  2  0  0  0
 27 31  1  0  0  0
 27 29  1  0  0  0
 25 26  1  0  0  0
 32 33  1  0  0  0
 32 31  1  0  0  0
 29 30  1  0  0  0
 20 21  1  0  0  0
 20  2  1  0  0  0
  1  2  2  0  0  0
  2  3  1  0  0  0
  3  4  1  0  0  0
  4  5  1  0  0  0
  5  6  1  0  0  0
  6  7  1  0  0  0
  7  8  1  0  0  0
  8  9  1  0  0  0
  9 10  1  0  0  0
 10 11  2  0  0  0
 11 12  1  0  0  0
 12 13  1  0  0  0
 13 14  1  0  0  0
 14 15  1  0  0  0
 15 16  1  0  0  0
 16 17  1  0  0  0
 17 18  1  0  0  0
 18 19  1  0  0  0
M  CHG 1  28  -1
M  END
> <minimizedAffinity>
-8.04749

> <CNNscore>
0.7343114614

> <CNNaffinity>
6.5364685059

> <CNN_VS>
4.7998037338

> <CNNaffinity_variance>
0.1376522332

$$$$
/media/chris/experiments/cd1a-new-docking/inputs/ligands/4x6e_ligand.pdb


 37 36  0  0  0  0  0  0  0  0999 V2000
  -40.4174   58.7590   65.7518 O   0  0  0  0  0  0  0  0  0  0  0  0
  -40.5328   59.9028   66.1165 C   0  0  0  0  0  0  0  0  0  0  0  0
  -41.6963   60.4554   66.8812 C   0  0  0  0  0  0  0  0  0  0  0  0
  -42.7847   59.4221   67.1460 C   0  0  0  0  0  0  0  0  0  0  0  0
  -43.9401   59.4646   66.1608 C   0  0  0  0  0  0  0  0  0  0  0  0
  -45.2872   59.1681   66.7959 C   0  0  0  0  0  0  0  0  0  0  0  0
  -46.4520   59.7461   66.0107 C   0  0  0  0  0  0  0  0  0  0  0  0
  -47.7336   58.9758   66.2382 C   0  0  0  0  0  0  0  0  0  0  0  0
  -48.9987   59.8031   66.1335 C   0  0  0  0  0  0  0  0  0  0  0  0
  -50.1594   59.0637   65.5873 C   0  0  0  0  0  0  0  0  0  0  0  0
  -50.7285   59.2681   64.4172 C   0  0  0  0  0  0  0  0  0  0  0  0
  -50.3138   60.2507   63.3707 C   0  0  0  0  0  0  0  0  0  0  0  0
  -50.3551   59.5970   61.9885 C   0  0  0  0  0  0  0  0  0  0  0  0
  -50.8438   58.1562   61.9630 C   0  0  0  0  0  0  0  0  0  0  0  0
  -50.6769   57.4429   60.6267 C   0  0  0  0  0  0  0  0  0  0  0  0
  -49.4377   57.8811   59.8528 C   0  0  0  0  0  0  0  0  0  0  0  0
  -48.8333   56.7830   58.9922 C   0  0  0  0  0  0  0  0  0  0  0  0
  -48.1245   57.2581   57.7328 C   0  0  0  0  0  0  0  0  0  0  0  0
  -47.3143   56.1796   57.0817 C   0  0  0  0  0  0  0  0  0  0  0  0
  -39.6215   60.8559   65.9001 O   0  0  0  0  0  0  0  0  0  0  0  0
  -38.2405   60.5463   66.1893 C   0  0  0  0  0  0  0  0  0  0  0  0
  -37.2935   61.3731   65.3456 C   0  0  0  0  0  0  0  0  0  0  0  0
  -37.1869   62.7108   65.8512 O   0  0  0  0  0  0  0  0  0  0  0  0
  -36.8067   62.6899   66.7433 H   0  0  0  0  0  0  0  0  0  0  0  0
  -35.9158   60.7605   65.2503 C   0  0  0  0  0  0  0  0  0  0  0  0
  -35.6571   60.2199   63.9319 O   0  0  0  0  0  0  0  0  0  0  0  0
  -36.1927   58.9081   63.1781 P   0  0  0  0  0  0  0  0  0  0  0  0
  -36.9190   58.0338   64.1990 O   0  0  0  0  0  0  0  0  0  0  0  0
  -35.0318   58.1552   62.6548 O   0  0  0  0  0  0  0  0  0  0  0  0
  -34.4303   57.9401   63.3848 H   0  0  0  0  0  0  0  0  0  0  0  0
  -37.2401   59.2935   61.9699 O   0  0  0  0  0  0  0  0  0  0  0  0
  -37.8743   58.3547   61.0593 C   0  0  0  0  0  0  0  0  0  0  0  0
  -39.2127   58.8868   60.6104 C   0  0  0  0  0  0  0  0  0  0  0  0
  -40.4113   58.5090   61.4609 N   0  0  0  0  0  0  0  0  0  0  0  0
  -40.1100   57.2958   62.2811 C   0  0  0  0  0  0  0  0  0  0  0  0
  -41.5626   58.2106   60.5576 C   0  0  0  0  0  0  0  0  0  0  0  0
  -40.7804   59.6372   62.3815 C   0  0  0  0  0  0  0  0  0  0  0  0
 34 33  1  0  0  0
 34 35  1  0  0  0
 34 36  1  0  0  0
 34 37  1  0  0  0
 22 23  1  0  0  0
 22 25  1  0  0  0
 22 21  1  0  0  0
 23 24  1  0  0  0
 27 26  1  0  0  0
 27 28  2  0  0  0
 27 31  1  0  0  0
 27 29  1  0  0  0
 25 26  1  0  0  0
 32 33  1  0  0  0
 32 31  1  0  0  0
 29 30  1  0  0  0
 20 21  1  0  0  0
 20  2  1  0  0  0
  1  2  2  0  0  0
  2  3  1  0  0  0
  3  4  1  0  0  0
  4  5  1  0  0  0
  5  6  1  0  0  0
  6  7  1  0  0  0
  7  8  1  0  0  0
  8  9  1  0  0  0
  9 10  1  0  0  0
 10 11  2  0  0  0
 11 12  1  0  0  0
 12 13  1  0  0  0
 13 14  1  0  0  0
 14 15  1  0  0  0
 15 16  1  0  0  0
 16 17  1  0  0  0
 17 18  1  0  0  0
 18 19  1  0  0  0
M  CHG 1  28  -1
M  END
> <minimizedAffinity>
-8.20322

> <CNNscore>
0.7150048614

> <CNNaffinity>
6.9464178085

> <CNN_VS>
4.9667224884

> <CNNaffinity_variance>
0.2530769408

$$$$
/media/chris/experiments/cd1a-new-docking/inputs/ligands/4x6e_ligand.pdb


 37 36  0  0  0  0  0  0  0  0999 V2000
  -43.4594   56.6281   65.4018 O   0  0  0  0  0  0  0  0  0  0  0  0
  -42.9878   57.6565   65.8196 C   0  0  0  0  0  0  0  0  0  0  0  0
  -43.7512   58.7384   66.5201 C   0  0  0  0  0  0  0  0  0  0  0  0
  -44.8938   59.3031   65.6845 C   0  0  0  0  0  0  0  0  0  0  0  0
  -46.2040   59.4542   66.4382 C   0  0  0  0  0  0  0  0  0  0  0  0
  -46.7012   58.1572   67.0519 C   0  0  0  0  0  0  0  0  0  0  0  0
  -47.5513   57.3377   66.0963 C   0  0  0  0  0  0  0  0  0  0  0  0
  -48.3655   58.2078   65.1650 C   0  0  0  0  0  0  0  0  0  0  0  0
  -49.8472   58.2600   65.4781 C   0  0  0  0  0  0  0  0  0  0  0  0
  -50.4860   59.5567   65.1576 C   0  0  0  0  0  0  0  0  0  0  0  0
  -50.9643   59.9169   63.9844 C   0  0  0  0  0  0  0  0  0  0  0  0
  -51.0083   59.0960   62.7366 C   0  0  0  0  0  0  0  0  0  0  0  0
  -50.1221   59.7256   61.6605 C   0  0  0  0  0  0  0  0  0  0  0  0
  -49.8807   58.8649   60.4291 C   0  0  0  0  0  0  0  0  0  0  0  0
  -50.5200   57.4823   60.4741 C   0  0  0  0  0  0  0  0  0  0  0  0
  -49.5219   56.3434   60.2928 C   0  0  0  0  0  0  0  0  0  0  0  0
  -48.2723   56.7411   59.5234 C   0  0  0  0  0  0  0  0  0  0  0  0
  -48.3888   56.6665   58.0084 C   0  0  0  0  0  0  0  0  0  0  0  0
  -47.2288   55.9646   57.3717 C   0  0  0  0  0  0  0  0  0  0  0  0
  -41.6948   57.9814   65.7291 O   0  0  0  0  0  0  0  0  0  0  0  0
  -41.2804   59.2556   66.2690 C   0  0  0  0  0  0  0  0  0  0  0  0
  -40.0508   59.7882   65.5642 C   0  0  0  0  0  0  0  0  0  0  0  0
  -39.5586   60.9706   66.2094 O   0  0  0  0  0  0  0  0  0  0  0  0
  -39.2802   60.7537   67.1130 H   0  0  0  0  0  0  0  0  0  0  0  0
  -38.9429   58.7648   65.4772 C   0  0  0  0  0  0  0  0  0  0  0  0
  -38.2431   58.8354   64.2113 O   0  0  0  0  0  0  0  0  0  0  0  0
  -37.3582   59.9875   63.5289 P   0  0  0  0  0  0  0  0  0  0  0  0
  -36.0107   59.3846   63.1355 O   0  0  0  0  0  0  0  0  0  0  0  0
  -37.1231   61.0564   64.5242 O   0  0  0  0  0  0  0  0  0  0  0  0
  -36.6945   60.6793   65.3084 H   0  0  0  0  0  0  0  0  0  0  0  0
  -38.0852   60.5856   62.1802 O   0  0  0  0  0  0  0  0  0  0  0  0
  -39.4629   60.3529   61.7797 C   0  0  0  0  0  0  0  0  0  0  0  0
  -39.6586   58.9057   61.4009 C   0  0  0  0  0  0  0  0  0  0  0  0
  -41.0255   58.3105   61.6844 N   0  0  0  0  0  0  0  0  0  0  0  0
  -41.7577   58.0483   60.4075 C   0  0  0  0  0  0  0  0  0  0  0  0
  -41.8094   59.2835   62.5025 C   0  0  0  0  0  0  0  0  0  0  0  0
  -40.8911   57.0194   62.4403 C   0  0  0  0  0  0  0  0  0  0  0  0
 34 33  1  0  0  0
 34 35  1  0  0  0
 34 36  1  0  0  0
 34 37  1  0  0  0
 22 23  1  0  0  0
 22 25  1  0  0  0
 22 21  1  0  0  0
 23 24  1  0  0  0
 27 26  1  0  0  0
 27 28  2  0  0  0
 27 31  1  0  0  0
 27 29  1  0  0  0
 25 26  1  0  0  0
 32 33  1  0  0  0
 32 31  1  0  0  0
 29 30  1  0  0  0
 20 21  1  0  0  0
 20  2  1  0  0  0
  1  2  2  0  0  0
  2  3  1  0  0  0
  3  4  1  0  0  0
  4  5  1  0  0  0
  5  6  1  0  0  0
  6  7  1  0  0  0
  7  8  1  0  0  0
  8  9  1  0  0  0
  9 10  1  0  0  0
 10 11  2  0  0  0
 11 12  1  0  0  0
 12 13  1  0  0  0
 13 14  1  0  0  0
 14 15  1  0  0  0
 15 16  1  0  0  0
 16 17  1  0  0  0
 17 18  1  0  0  0
 18 19  1  0  0  0
M  CHG 1  28  -1
M  END
> <minimizedAffinity>
-7.93499

> <CNNscore>
0.7031558156

> <CNNaffinity>
7.0725340843

> <CNN_VS>
4.9730935097

> <CNNaffinity_variance>
0.3118248582

$$$$
/media/chris/experiments/cd1a-new-docking/inputs/ligands/4x6e_ligand.pdb


 37 36  0  0  0  0  0  0  0  0999 V2000
  -41.8896   58.6976   67.3231 O   0  0  0  0  0  0  0  0  0  0  0  0
  -41.9310   58.8355   66.1257 C   0  0  0  0  0  0  0  0  0  0  0  0
  -43.0766   58.4372   65.2466 C   0  0  0  0  0  0  0  0  0  0  0  0
  -44.2984   59.3330   65.4115 C   0  0  0  0  0  0  0  0  0  0  0  0
  -44.8804   59.3443   66.8146 C   0  0  0  0  0  0  0  0  0  0  0  0
  -46.3137   58.8468   66.8783 C   0  0  0  0  0  0  0  0  0  0  0  0
  -46.4196   57.3338   66.7937 C   0  0  0  0  0  0  0  0  0  0  0  0
  -47.6428   56.8880   66.0240 C   0  0  0  0  0  0  0  0  0  0  0  0
  -48.3652   57.9951   65.2834 C   0  0  0  0  0  0  0  0  0  0  0  0
  -49.7448   58.2404   65.7619 C   0  0  0  0  0  0  0  0  0  0  0  0
  -50.6132   59.0759   65.2301 C   0  0  0  0  0  0  0  0  0  0  0  0
  -50.4223   59.9248   64.0154 C   0  0  0  0  0  0  0  0  0  0  0  0
  -51.0457   59.2455   62.7949 C   0  0  0  0  0  0  0  0  0  0  0  0
  -50.0562   58.7087   61.7711 C   0  0  0  0  0  0  0  0  0  0  0  0
  -50.6332   57.7004   60.7848 C   0  0  0  0  0  0  0  0  0  0  0  0
  -49.5749   56.8331   60.1110 C   0  0  0  0  0  0  0  0  0  0  0  0
  -49.0626   57.4021   58.7974 C   0  0  0  0  0  0  0  0  0  0  0  0
  -48.0387   56.5431   58.0707 C   0  0  0  0  0  0  0  0  0  0  0  0
  -47.3963   57.2556   56.9203 C   0  0  0  0  0  0  0  0  0  0  0  0
  -40.9529   59.3830   65.3982 O   0  0  0  0  0  0  0  0  0  0  0  0
  -40.8467   58.9950   64.0108 C   0  0  0  0  0  0  0  0  0  0  0  0
  -39.4172   59.0689   63.5174 C   0  0  0  0  0  0  0  0  0  0  0  0
  -39.1131   57.9668   62.6518 O   0  0  0  0  0  0  0  0  0  0  0  0
  -39.6747   58.0113   61.8622 H   0  0  0  0  0  0  0  0  0  0  0  0
  -39.1159   60.3662   62.8042 C   0  0  0  0  0  0  0  0  0  0  0  0
  -38.7630   61.4210   63.7317 O   0  0  0  0  0  0  0  0  0  0  0  0
  -37.3833   62.1886   64.0204 P   0  0  0  0  0  0  0  0  0  0  0  0
  -37.3007   62.4747   65.5189 O   0  0  0  0  0  0  0  0  0  0  0  0
  -37.3977   63.4778   63.2952 O   0  0  0  0  0  0  0  0  0  0  0  0
  -38.1709   63.9949   63.5704 H   0  0  0  0  0  0  0  0  0  0  0  0
  -36.0851   61.2787   63.5822 O   0  0  0  0  0  0  0  0  0  0  0  0
  -35.2224   60.5337   64.4841 C   0  0  0  0  0  0  0  0  0  0  0  0
  -34.1408   59.8264   63.7058 C   0  0  0  0  0  0  0  0  0  0  0  0
  -34.1775   58.3094   63.7211 N   0  0  0  0  0  0  0  0  0  0  0  0
  -35.5315   57.8142   63.3252 C   0  0  0  0  0  0  0  0  0  0  0  0
  -33.8740   57.8385   65.1055 C   0  0  0  0  0  0  0  0  0  0  0  0
  -33.1589   57.7484   62.7702 C   0  0  0  0  0  0  0  0  0  0  0  0
 34 33  1  0  0  0
 34 35  1  0  0  0
 34 36  1  0  0  0
 34 37  1  0  0  0
 22 23  1  0  0  0
 22 25  1  0  0  0
 22 21  1  0  0  0
 23 24  1  0  0  0
 27 26  1  0  0  0
 27 28  2  0  0  0
 27 31  1  0  0  0
 27 29  1  0  0  0
 25 26  1  0  0  0
 32 33  1  0  0  0
 32 31  1  0  0  0
 29 30  1  0  0  0
 20 21  1  0  0  0
 20  2  1  0  0  0
  1  2  2  0  0  0
  2  3  1  0  0  0
  3  4  1  0  0  0
  4  5  1  0  0  0
  5  6  1  0  0  0
  6  7  1  0  0  0
  7  8  1  0  0  0
  8  9  1  0  0  0
  9 10  1  0  0  0
 10 11  2  0  0  0
 11 12  1  0  0  0
 12 13  1  0  0  0
 13 14  1  0  0  0
 14 15  1  0  0  0
 15 16  1  0  0  0
 16 17  1  0  0  0
 17 18  1  0  0  0
 18 19  1  0  0  0
M  CHG 1  28  -1
M  END
> <minimizedAffinity>
-7.80402

> <CNNscore>
0.6882292628

> <CNNaffinity>
6.7603960037

> <CNN_VS>
4.6527023315

> <CNNaffinity_variance>
0.3368427455

$$$$
/media/chris/experiments/cd1a-new-docking/inputs/ligands/4x6e_ligand.pdb


 37 36  0  0  0  0  0  0  0  0999 V2000
  -41.3644   56.1567   63.2072 O   0  0  0  0  0  0  0  0  0  0  0  0
  -41.7790   56.7806   64.1524 C   0  0  0  0  0  0  0  0  0  0  0  0
  -42.9351   56.3790   65.0161 C   0  0  0  0  0  0  0  0  0  0  0  0
  -43.3808   57.4800   65.9710 C   0  0  0  0  0  0  0  0  0  0  0  0
  -44.8785   57.5220   66.2211 C   0  0  0  0  0  0  0  0  0  0  0  0
  -45.5324   58.8123   65.7590 C   0  0  0  0  0  0  0  0  0  0  0  0
  -46.8852   58.5892   65.1049 C   0  0  0  0  0  0  0  0  0  0  0  0
  -48.0150   58.5974   66.1103 C   0  0  0  0  0  0  0  0  0  0  0  0
  -49.3751   58.2502   65.5397 C   0  0  0  0  0  0  0  0  0  0  0  0
  -50.3818   59.3266   65.6828 C   0  0  0  0  0  0  0  0  0  0  0  0
  -50.8027   60.1274   64.7255 C   0  0  0  0  0  0  0  0  0  0  0  0
  -50.3970   60.1067   63.2876 C   0  0  0  0  0  0  0  0  0  0  0  0
  -51.1521   59.0043   62.5431 C   0  0  0  0  0  0  0  0  0  0  0  0
  -50.2785   57.9595   61.8646 C   0  0  0  0  0  0  0  0  0  0  0  0
  -50.7772   57.4880   60.5039 C   0  0  0  0  0  0  0  0  0  0  0  0
  -49.8822   57.9158   59.3453 C   0  0  0  0  0  0  0  0  0  0  0  0
  -48.7615   56.9340   59.0425 C   0  0  0  0  0  0  0  0  0  0  0  0
  -48.0945   57.1049   57.6860 C   0  0  0  0  0  0  0  0  0  0  0  0
  -47.4092   55.8587   57.2159 C   0  0  0  0  0  0  0  0  0  0  0  0
  -41.2532   57.9315   64.5819 O   0  0  0  0  0  0  0  0  0  0  0  0
  -40.5675   58.7607   63.6181 C   0  0  0  0  0  0  0  0  0  0  0  0
  -39.2479   59.2706   64.1574 C   0  0  0  0  0  0  0  0  0  0  0  0
  -38.1899   59.0627   63.2121 O   0  0  0  0  0  0  0  0  0  0  0  0
  -38.3696   59.5745   62.4079 H   0  0  0  0  0  0  0  0  0  0  0  0
  -39.3023   60.7317   64.5378 C   0  0  0  0  0  0  0  0  0  0  0  0
  -38.4301   61.0299   65.6549 O   0  0  0  0  0  0  0  0  0  0  0  0
  -36.9670   61.6843   65.7383 P   0  0  0  0  0  0  0  0  0  0  0  0
  -36.0052   60.8066   64.9391 O   0  0  0  0  0  0  0  0  0  0  0  0
  -36.5319   61.6931   67.1521 O   0  0  0  0  0  0  0  0  0  0  0  0
  -36.5507   60.7885   67.5018 H   0  0  0  0  0  0  0  0  0  0  0  0
  -36.9495   63.2023   65.1054 O   0  0  0  0  0  0  0  0  0  0  0  0
  -35.8783   63.7837   64.3135 C   0  0  0  0  0  0  0  0  0  0  0  0
  -34.7238   64.1725   65.2035 C   0  0  0  0  0  0  0  0  0  0  0  0
  -33.3366   64.0690   64.5968 N   0  0  0  0  0  0  0  0  0  0  0  0
  -33.0650   65.2399   63.7077 C   0  0  0  0  0  0  0  0  0  0  0  0
  -33.2622   62.8166   63.7866 C   0  0  0  0  0  0  0  0  0  0  0  0
  -32.2920   64.0266   65.6755 C   0  0  0  0  0  0  0  0  0  0  0  0
 34 33  1  0  0  0
 34 35  1  0  0  0
 34 36  1  0  0  0
 34 37  1  0  0  0
 22 23  1  0  0  0
 22 25  1  0  0  0
 22 21  1  0  0  0
 23 24  1  0  0  0
 27 26  1  0  0  0
 27 28  2  0  0  0
 27 31  1  0  0  0
 27 29  1  0  0  0
 25 26  1  0  0  0
 32 33  1  0  0  0
 32 31  1  0  0  0
 29 30  1  0  0  0
 20 21  1  0  0  0
 20  2  1  0  0  0
  1  2  2  0  0  0
  2  3  1  0  0  0
  3  4  1  0  0  0
  4  5  1  0  0  0
  5  6  1  0  0  0
  6  7  1  0  0  0
  7  8  1  0  0  0
  8  9  1  0  0  0
  9 10  1  0  0  0
 10 11  2  0  0  0
 11 12  1  0  0  0
 12 13  1  0  0  0
 13 14  1  0  0  0
 14 15  1  0  0  0
 15 16  1  0  0  0
 16 17  1  0  0  0
 17 18  1  0  0  0
 18 19  1  0  0  0
M  CHG 1  28  -1
M  END
> <minimizedAffinity>
-7.98399

> <CNNscore>
0.6628593206

> <CNNaffinity>
6.3432230949

> <CNN_VS>
4.2046647072

> <CNNaffinity_variance>
0.3243895471

$$$$
/media/chris/experiments/cd1a-new-docking/inputs/ligands/4x6e_ligand.pdb


 37 36  0  0  0  0  0  0  0  0999 V2000
  -44.0565   60.5641   63.0005 O   0  0  0  0  0  0  0  0  0  0  0  0
  -43.3542   59.9995   63.8021 C   0  0  0  0  0  0  0  0  0  0  0  0
  -43.7699   59.5896   65.1816 C   0  0  0  0  0  0  0  0  0  0  0  0
  -45.2708   59.3590   65.3117 C   0  0  0  0  0  0  0  0  0  0  0  0
  -45.7725   59.3018   66.7443 C   0  0  0  0  0  0  0  0  0  0  0  0
  -47.2866   59.3337   66.8561 C   0  0  0  0  0  0  0  0  0  0  0  0
  -47.9789   59.3934   65.5053 C   0  0  0  0  0  0  0  0  0  0  0  0
  -48.9633   58.2608   65.3165 C   0  0  0  0  0  0  0  0  0  0  0  0
  -50.4209   58.6647   65.4069 C   0  0  0  0  0  0  0  0  0  0  0  0
  -50.7762   59.8324   64.5686 C   0  0  0  0  0  0  0  0  0  0  0  0
  -51.0347   59.8103   63.2772 C   0  0  0  0  0  0  0  0  0  0  0  0
  -51.0683   58.6134   62.3834 C   0  0  0  0  0  0  0  0  0  0  0  0
  -49.7081   58.4197   61.7113 C   0  0  0  0  0  0  0  0  0  0  0  0
  -49.6953   58.6022   60.2007 C   0  0  0  0  0  0  0  0  0  0  0  0
  -49.8076   57.3134   59.3951 C   0  0  0  0  0  0  0  0  0  0  0  0
  -48.9286   56.1852   59.9250 C   0  0  0  0  0  0  0  0  0  0  0  0
  -47.6114   56.0343   59.1808 C   0  0  0  0  0  0  0  0  0  0  0  0
  -47.7314   55.8403   57.6768 C   0  0  0  0  0  0  0  0  0  0  0  0
  -47.3269   57.0563   56.9013 C   0  0  0  0  0  0  0  0  0  0  0  0
  -42.0882   59.6403   63.5702 O   0  0  0  0  0  0  0  0  0  0  0  0
  -41.2900   60.4939   62.7210 C   0  0  0  0  0  0  0  0  0  0  0  0
  -39.8966   60.6924   63.2791 C   0  0  0  0  0  0  0  0  0  0  0  0
  -39.9302   60.8544   64.7035 O   0  0  0  0  0  0  0  0  0  0  0  0
  -40.2730   60.0447   65.1130 H   0  0  0  0  0  0  0  0  0  0  0  0
  -38.9625   59.5594   62.9239 C   0  0  0  0  0  0  0  0  0  0  0  0
  -37.8627   59.4548   63.8603 O   0  0  0  0  0  0  0  0  0  0  0  0
  -36.4521   60.2141   63.9590 P   0  0  0  0  0  0  0  0  0  0  0  0
  -36.5786   61.5525   63.2332 O   0  0  0  0  0  0  0  0  0  0  0  0
  -35.4268   59.4001   63.2703 O   0  0  0  0  0  0  0  0  0  0  0  0
  -35.6987   59.2472   62.3518 H   0  0  0  0  0  0  0  0  0  0  0  0
  -36.0292   60.4973   65.5230 O   0  0  0  0  0  0  0  0  0  0  0  0
  -36.4509   61.6313   66.3285 C   0  0  0  0  0  0  0  0  0  0  0  0
  -35.2494   62.4158   66.7943 C   0  0  0  0  0  0  0  0  0  0  0  0
  -34.7929   63.5513   65.8970 N   0  0  0  0  0  0  0  0  0  0  0  0
  -34.1931   64.6530   66.7105 C   0  0  0  0  0  0  0  0  0  0  0  0
  -35.9777   64.0824   65.1591 C   0  0  0  0  0  0  0  0  0  0  0  0
  -33.7698   63.0643   64.9108 C   0  0  0  0  0  0  0  0  0  0  0  0
 34 33  1  0  0  0
 34 35  1  0  0  0
 34 36  1  0  0  0
 34 37  1  0  0  0
 22 23  1  0  0  0
 22 25  1  0  0  0
 22 21  1  0  0  0
 23 24  1  0  0  0
 27 26  1  0  0  0
 27 28  2  0  0  0
 27 31  1  0  0  0
 27 29  1  0  0  0
 25 26  1  0  0  0
 32 33  1  0  0  0
 32 31  1  0  0  0
 29 30  1  0  0  0
 20 21  1  0  0  0
 20  2  1  0  0  0
  1  2  2  0  0  0
  2  3  1  0  0  0
  3  4  1  0  0  0
  4  5  1  0  0  0
  5  6  1  0  0  0
  6  7  1  0  0  0
  7  8  1  0  0  0
  8  9  1  0  0  0
  9 10  1  0  0  0
 10 11  2  0  0  0
 11 12  1  0  0  0
 12 13  1  0  0  0
 13 14  1  0  0  0
 14 15  1  0  0  0
 15 16  1  0  0  0
 16 17  1  0  0  0
 17 18  1  0  0  0
 18 19  1  0  0  0
M  CHG 1  28  -1
M  END
> <minimizedAffinity>
-7.63524

> <CNNscore>
0.6094466448

> <CNNaffinity>
6.4214529991

> <CNN_VS>
3.9135329723

> <CNNaffinity_variance>
0.4867249429

$$$$
/media/chris/experiments/cd1a-new-docking/inputs/ligands/4x6e_ligand.pdb


 37 36  0  0  0  0  0  0  0  0999 V2000
  -42.3480   59.0093   61.0064 O   0  0  0  0  0  0  0  0  0  0  0  0
  -41.8691   60.0820   61.2792 C   0  0  0  0  0  0  0  0  0  0  0  0
  -42.6178   61.3785   61.3273 C   0  0  0  0  0  0  0  0  0  0  0  0
  -43.7382   61.3857   62.3603 C   0  0  0  0  0  0  0  0  0  0  0  0
  -43.5002   60.4678   63.5470 C   0  0  0  0  0  0  0  0  0  0  0  0
  -44.6676   59.5414   63.8383 C   0  0  0  0  0  0  0  0  0  0  0  0
  -45.6276   60.1056   64.8716 C   0  0  0  0  0  0  0  0  0  0  0  0
  -46.7392   60.9129   64.2391 C   0  0  0  0  0  0  0  0  0  0  0  0
  -48.1121   60.6797   64.8362 C   0  0  0  0  0  0  0  0  0  0  0  0
  -48.5410   59.2625   64.8270 C   0  0  0  0  0  0  0  0  0  0  0  0
  -49.7246   58.8125   64.4645 C   0  0  0  0  0  0  0  0  0  0  0  0
  -50.8756   59.6131   63.9479 C   0  0  0  0  0  0  0  0  0  0  0  0
  -51.1644   59.2417   62.4925 C   0  0  0  0  0  0  0  0  0  0  0  0
  -50.5146   57.9543   62.0068 C   0  0  0  0  0  0  0  0  0  0  0  0
  -50.8688   57.5523   60.5802 C   0  0  0  0  0  0  0  0  0  0  0  0
  -49.8687   58.0488   59.5412 C   0  0  0  0  0  0  0  0  0  0  0  0
  -48.8141   57.0198   59.1659 C   0  0  0  0  0  0  0  0  0  0  0  0
  -48.1774   57.2089   57.7973 C   0  0  0  0  0  0  0  0  0  0  0  0
  -47.5621   55.9511   57.2654 C   0  0  0  0  0  0  0  0  0  0  0  0
  -40.5848   60.2728   61.5954 O   0  0  0  0  0  0  0  0  0  0  0  0
  -39.8606   59.1638   62.1719 C   0  0  0  0  0  0  0  0  0  0  0  0
  -38.3862   59.2216   61.8321 C   0  0  0  0  0  0  0  0  0  0  0  0
  -38.1255   60.2204   60.8367 O   0  0  0  0  0  0  0  0  0  0  0  0
  -38.3570   61.0947   61.1875 H   0  0  0  0  0  0  0  0  0  0  0  0
  -37.5215   59.4812   63.0434 C   0  0  0  0  0  0  0  0  0  0  0  0
  -37.9780   60.6326   63.7939 O   0  0  0  0  0  0  0  0  0  0  0  0
  -37.4033   61.3682   65.0994 P   0  0  0  0  0  0  0  0  0  0  0  0
  -38.3750   61.1225   66.2525 O   0  0  0  0  0  0  0  0  0  0  0  0
  -37.3436   62.8226   64.8360 O   0  0  0  0  0  0  0  0  0  0  0  0
  -38.2258   63.1434   64.5915 H   0  0  0  0  0  0  0  0  0  0  0  0
  -35.9246   60.7825   65.5185 O   0  0  0  0  0  0  0  0  0  0  0  0
  -34.7029   61.5604   65.6419 C   0  0  0  0  0  0  0  0  0  0  0  0
  -34.2103   61.9776   64.2783 C   0  0  0  0  0  0  0  0  0  0  0  0
  -33.3735   63.2421   64.2184 N   0  0  0  0  0  0  0  0  0  0  0  0
  -34.2229   64.4153   63.8477 C   0  0  0  0  0  0  0  0  0  0  0  0
  -32.3128   63.0639   63.1823 C   0  0  0  0  0  0  0  0  0  0  0  0
  -32.7295   63.5107   65.5487 C   0  0  0  0  0  0  0  0  0  0  0  0
 34 33  1  0  0  0
 34 35  1  0  0  0
 34 36  1  0  0  0
 34 37  1  0  0  0
 22 23  1  0  0  0
 22 25  1  0  0  0
 22 21  1  0  0  0
 23 24  1  0  0  0
 27 26  1  0  0  0
 27 28  2  0  0  0
 27 31  1  0  0  0
 27 29  1  0  0  0
 25 26  1  0  0  0
 32 33  1  0  0  0
 32 31  1  0  0  0
 29 30  1  0  0  0
 20 21  1  0  0  0
 20  2  1  0  0  0
  1  2  2  0  0  0
  2  3  1  0  0  0
  3  4  1  0  0  0
  4  5  1  0  0  0
  5  6  1  0  0  0
  6  7  1  0  0  0
  7  8  1  0  0  0
  8  9  1  0  0  0
  9 10  1  0  0  0
 10 11  2  0  0  0
 11 12  1  0  0  0
 12 13  1  0  0  0
 13 14  1  0  0  0
 14 15  1  0  0  0
 15 16  1  0  0  0
 16 17  1  0  0  0
 17 18  1  0  0  0
 18 19  1  0  0  0
M  CHG 1  28  -1
M  END
> <minimizedAffinity>
-8.13571

> <CNNscore>
0.6084389687

> <CNNaffinity>
6.3031005859

> <CNN_VS>
3.8350520134

> <CNNaffinity_variance>
0.2302463353

$$$$
/media/chris/experiments/cd1a-new-docking/inputs/ligands/4x6e_ligand.pdb


 37 36  0  0  0  0  0  0  0  0999 V2000
  -42.0449   58.3467   66.8718 O   0  0  0  0  0  0  0  0  0  0  0  0
  -42.4181   57.8220   65.8521 C   0  0  0  0  0  0  0  0  0  0  0  0
  -43.8481   57.6149   65.4570 C   0  0  0  0  0  0  0  0  0  0  0  0
  -44.6846   58.8857   65.5461 C   0  0  0  0  0  0  0  0  0  0  0  0
  -45.1663   59.2201   66.9474 C   0  0  0  0  0  0  0  0  0  0  0  0
  -46.5997   58.7939   67.2114 C   0  0  0  0  0  0  0  0  0  0  0  0
  -46.7954   57.2900   67.1267 C   0  0  0  0  0  0  0  0  0  0  0  0
  -47.8213   56.9044   66.0845 C   0  0  0  0  0  0  0  0  0  0  0  0
  -48.3184   58.0513   65.2281 C   0  0  0  0  0  0  0  0  0  0  0  0
  -49.7413   58.3963   65.4490 C   0  0  0  0  0  0  0  0  0  0  0  0
  -50.5170   59.0594   64.6163 C   0  0  0  0  0  0  0  0  0  0  0  0
  -50.1560   59.5722   63.2602 C   0  0  0  0  0  0  0  0  0  0  0  0
  -50.6875   58.6274   62.1811 C   0  0  0  0  0  0  0  0  0  0  0  0
  -49.6816   57.6203   61.6432 C   0  0  0  0  0  0  0  0  0  0  0  0
  -49.9903   57.0821   60.2512 C   0  0  0  0  0  0  0  0  0  0  0  0
  -48.7445   56.7595   59.4326 C   0  0  0  0  0  0  0  0  0  0  0  0
  -48.6112   57.5915   58.1670 C   0  0  0  0  0  0  0  0  0  0  0  0
  -47.6296   57.0558   57.1356 C   0  0  0  0  0  0  0  0  0  0  0  0
  -47.1105   55.6940   57.4819 C   0  0  0  0  0  0  0  0  0  0  0  0
  -41.5998   57.3526   64.9056 O   0  0  0  0  0  0  0  0  0  0  0  0
  -41.7483   55.9711   64.5106 C   0  0  0  0  0  0  0  0  0  0  0  0
  -40.8464   55.6227   63.3454 C   0  0  0  0  0  0  0  0  0  0  0  0
  -41.5030   54.7312   62.4340 O   0  0  0  0  0  0  0  0  0  0  0  0
  -42.2790   55.1716   62.0535 H   0  0  0  0  0  0  0  0  0  0  0  0
  -40.3680   56.8445   62.5965 C   0  0  0  0  0  0  0  0  0  0  0  0
  -39.0592   57.2725   63.0452 O   0  0  0  0  0  0  0  0  0  0  0  0
  -38.1053   58.4824   62.5953 P   0  0  0  0  0  0  0  0  0  0  0  0
  -36.7163   57.9141   62.3092 O   0  0  0  0  0  0  0  0  0  0  0  0
  -37.9992   59.4435   63.7148 O   0  0  0  0  0  0  0  0  0  0  0  0
  -37.6665   58.9863   64.5029 H   0  0  0  0  0  0  0  0  0  0  0  0
  -38.6671   59.2184   61.2359 O   0  0  0  0  0  0  0  0  0  0  0  0
  -39.5310   60.3865   61.1937 C   0  0  0  0  0  0  0  0  0  0  0  0
  -40.9434   59.9787   60.8549 C   0  0  0  0  0  0  0  0  0  0  0  0
  -42.0061   60.2939   61.8914 N   0  0  0  0  0  0  0  0  0  0  0  0
  -42.8760   61.4169   61.4250 C   0  0  0  0  0  0  0  0  0  0  0  0
  -41.3302   60.6981   63.1603 C   0  0  0  0  0  0  0  0  0  0  0  0
  -42.8657   59.0889   62.1475 C   0  0  0  0  0  0  0  0  0  0  0  0
 34 33  1  0  0  0
 34 35  1  0  0  0
 34 36  1  0  0  0
 34 37  1  0  0  0
 22 23  1  0  0  0
 22 25  1  0  0  0
 22 21  1  0  0  0
 23 24  1  0  0  0
 27 26  1  0  0  0
 27 28  2  0  0  0
 27 31  1  0  0  0
 27 29  1  0  0  0
 25 26  1  0  0  0
 32 33  1  0  0  0
 32 31  1  0  0  0
 29 30  1  0  0  0
 20 21  1  0  0  0
 20  2  1  0  0  0
  1  2  2  0  0  0
  2  3  1  0  0  0
  3  4  1  0  0  0
  4  5  1  0  0  0
  5  6  1  0  0  0
  6  7  1  0  0  0
  7  8  1  0  0  0
  8  9  1  0  0  0
  9 10  1  0  0  0
 10 11  2  0  0  0
 11 12  1  0  0  0
 12 13  1  0  0  0
 13 14  1  0  0  0
 14 15  1  0  0  0
 15 16  1  0  0  0
 16 17  1  0  0  0
 17 18  1  0  0  0
 18 19  1  0  0  0
M  CHG 1  28  -1
M  END
> <minimizedAffinity>
-7.56633

> <CNNscore>
0.5692166090

> <CNNaffinity>
7.1522989273

> <CNN_VS>
4.0712075233

> <CNNaffinity_variance>
0.2462275028

$$$$
