/media/chris/experiments/cd1a-new-docking/inputs/ligands/4x6e_ligand.pdb


 37 36  0  0  0  0  0  0  0  0999 V2000
  -41.1116   56.2156   63.9421 O   0  0  0  0  0  0  0  0  0  0  0  0
  -42.1808   56.7549   64.0860 C   0  0  0  0  0  0  0  0  0  0  0  0
  -43.1497   56.4764   65.1938 C   0  0  0  0  0  0  0  0  0  0  0  0
  -43.3427   57.6609   66.1332 C   0  0  0  0  0  0  0  0  0  0  0  0
  -44.7940   58.0462   66.3633 C   0  0  0  0  0  0  0  0  0  0  0  0
  -45.1301   59.4480   65.8858 C   0  0  0  0  0  0  0  0  0  0  0  0
  -45.5606   59.4901   64.4296 C   0  0  0  0  0  0  0  0  0  0  0  0
  -47.0487   59.7149   64.2792 C   0  0  0  0  0  0  0  0  0  0  0  0
  -47.9179   58.6078   64.8401 C   0  0  0  0  0  0  0  0  0  0  0  0
  -49.2873   59.0399   65.2007 C   0  0  0  0  0  0  0  0  0  0  0  0
  -50.3537   58.9599   64.4318 C   0  0  0  0  0  0  0  0  0  0  0  0
  -50.4329   58.3855   63.0547 C   0  0  0  0  0  0  0  0  0  0  0  0
  -50.5584   59.5074   62.0225 C   0  0  0  0  0  0  0  0  0  0  0  0
  -49.8679   59.2488   60.6914 C   0  0  0  0  0  0  0  0  0  0  0  0
  -50.1654   57.8922   60.0642 C   0  0  0  0  0  0  0  0  0  0  0  0
  -49.1476   57.4727   59.0087 C   0  0  0  0  0  0  0  0  0  0  0  0
  -48.3827   56.2076   59.3642 C   0  0  0  0  0  0  0  0  0  0  0  0
  -47.2120   55.8759   58.4510 C   0  0  0  0  0  0  0  0  0  0  0  0
  -47.3760   56.4361   57.0716 C   0  0  0  0  0  0  0  0  0  0  0  0
  -42.6597   57.7021   63.2741 O   0  0  0  0  0  0  0  0  0  0  0  0
  -41.7357   58.3436   62.3679 C   0  0  0  0  0  0  0  0  0  0  0  0
  -41.7893   59.8518   62.4894 C   0  0  0  0  0  0  0  0  0  0  0  0
  -42.9348   60.3832   61.8099 O   0  0  0  0  0  0  0  0  0  0  0  0
  -43.7432   60.0489   62.2288 H   0  0  0  0  0  0  0  0  0  0  0  0
  -41.7962   60.3181   63.9264 C   0  0  0  0  0  0  0  0  0  0  0  0
  -40.5026   60.8263   64.3335 O   0  0  0  0  0  0  0  0  0  0  0  0
  -39.2893   60.1633   65.1488 P   0  0  0  0  0  0  0  0  0  0  0  0
  -39.6527   58.7097   65.4472 O   0  0  0  0  0  0  0  0  0  0  0  0
  -39.1323   60.8821   66.4321 O   0  0  0  0  0  0  0  0  0  0  0  0
  -39.9672   60.8504   66.9249 H   0  0  0  0  0  0  0  0  0  0  0  0
  -37.8931   60.1932   64.2802 O   0  0  0  0  0  0  0  0  0  0  0  0
  -36.5527   60.3334   64.8248 C   0  0  0  0  0  0  0  0  0  0  0  0
  -35.5253   59.9665   63.7827 C   0  0  0  0  0  0  0  0  0  0  0  0
  -35.4298   58.4975   63.4140 N   0  0  0  0  0  0  0  0  0  0  0  0
  -34.0915   58.1922   62.8217 C   0  0  0  0  0  0  0  0  0  0  0  0
  -36.4884   58.1882   62.4071 C   0  0  0  0  0  0  0  0  0  0  0  0
  -35.6307   57.6358   64.6280 C   0  0  0  0  0  0  0  0  0  0  0  0
 34 33  1  0  0  0
 34 35  1  0  0  0
 34 36  1  0  0  0
 34 37  1  0  0  0
 22 23  1  0  0  0
 22 25  1  0  0  0
 22 21  1  0  0  0
 23 24  1  0  0  0
 27 26  1  0  0  0
 27 28  2  0  0  0
 27 31  1  0  0  0
 27 29  1  0  0  0
 25 26  1  0  0  0
 32 33  1  0  0  0
 32 31  1  0  0  0
 29 30  1  0  0  0
 20 21  1  0  0  0
 20  2  1  0  0  0
  1  2  2  0  0  0
  2  3  1  0  0  0
  3  4  1  0  0  0
  4  5  1  0  0  0
  5  6  1  0  0  0
  6  7  1  0  0  0
  7  8  1  0  0  0
  8  9  1  0  0  0
  9 10  1  0  0  0
 10 11  2  0  0  0
 11 12  1  0  0  0
 12 13  1  0  0  0
 13 14  1  0  0  0
 14 15  1  0  0  0
 15 16  1  0  0  0
 16 17  1  0  0  0
 17 18  1  0  0  0
 18 19  1  0  0  0
M  CHG 1  28  -1
M  END
> <minimizedAffinity>
-7.55049

> <CNNscore>
0.7770858407

> <CNNaffinity>
6.8381171227

> <CNN_VS>
5.3138041496

> <CNNaffinity_variance>
0.2647251487

$$$$
/media/chris/experiments/cd1a-new-docking/inputs/ligands/4x6e_ligand.pdb


 37 36  0  0  0  0  0  0  0  0999 V2000
  -43.9802   58.2097   62.7998 O   0  0  0  0  0  0  0  0  0  0  0  0
  -43.0254   58.1379   63.5332 C   0  0  0  0  0  0  0  0  0  0  0  0
  -42.9611   57.3349   64.7960 C   0  0  0  0  0  0  0  0  0  0  0  0
  -44.3284   57.0985   65.4263 C   0  0  0  0  0  0  0  0  0  0  0  0
  -44.6776   58.0669   66.5433 C   0  0  0  0  0  0  0  0  0  0  0  0
  -45.3735   59.3257   66.0563 C   0  0  0  0  0  0  0  0  0  0  0  0
  -46.5829   59.0341   65.1846 C   0  0  0  0  0  0  0  0  0  0  0  0
  -47.8843   59.2057   65.9359 C   0  0  0  0  0  0  0  0  0  0  0  0
  -48.8826   58.0826   65.7413 C   0  0  0  0  0  0  0  0  0  0  0  0
  -50.2196   58.5347   65.2936 C   0  0  0  0  0  0  0  0  0  0  0  0
  -50.5921   58.7392   64.0469 C   0  0  0  0  0  0  0  0  0  0  0  0
  -49.7755   58.5256   62.8140 C   0  0  0  0  0  0  0  0  0  0  0  0
  -49.9224   59.7212   61.8713 C   0  0  0  0  0  0  0  0  0  0  0  0
  -49.9969   59.3787   60.3905 C   0  0  0  0  0  0  0  0  0  0  0  0
  -50.1133   57.8917   60.0783 C   0  0  0  0  0  0  0  0  0  0  0  0
  -49.1066   57.4065   59.0404 C   0  0  0  0  0  0  0  0  0  0  0  0
  -48.3533   56.1531   59.4571 C   0  0  0  0  0  0  0  0  0  0  0  0
  -47.0851   55.8630   58.6686 C   0  0  0  0  0  0  0  0  0  0  0  0
  -47.3260   55.7822   57.1924 C   0  0  0  0  0  0  0  0  0  0  0  0
  -41.8641   58.7629   63.3179 O   0  0  0  0  0  0  0  0  0  0  0  0
  -41.4215   58.9108   61.9508 C   0  0  0  0  0  0  0  0  0  0  0  0
  -39.9372   58.6468   61.8118 C   0  0  0  0  0  0  0  0  0  0  0  0
  -39.6944   57.3430   61.2663 O   0  0  0  0  0  0  0  0  0  0  0  0
  -40.0634   57.2933   60.3707 H   0  0  0  0  0  0  0  0  0  0  0  0
  -39.2405   59.6844   60.9630 C   0  0  0  0  0  0  0  0  0  0  0  0
  -38.1376   60.3043   61.6679 O   0  0  0  0  0  0  0  0  0  0  0  0
  -38.0610   61.1264   63.0443 P   0  0  0  0  0  0  0  0  0  0  0  0
  -39.4850   61.3286   63.5595 O   0  0  0  0  0  0  0  0  0  0  0  0
  -37.4666   62.4532   62.7712 O   0  0  0  0  0  0  0  0  0  0  0  0
  -37.9936   62.9114   62.0981 H   0  0  0  0  0  0  0  0  0  0  0  0
  -37.1957   60.3143   64.1831 O   0  0  0  0  0  0  0  0  0  0  0  0
  -36.7699   60.8431   65.4684 C   0  0  0  0  0  0  0  0  0  0  0  0
  -35.3147   61.2371   65.4140 C   0  0  0  0  0  0  0  0  0  0  0  0
  -35.0080   62.7165   65.5562 N   0  0  0  0  0  0  0  0  0  0  0  0
  -34.4691   63.2652   64.2742 C   0  0  0  0  0  0  0  0  0  0  0  0
  -33.9826   62.8906   66.6279 C   0  0  0  0  0  0  0  0  0  0  0  0
  -36.2487   63.4782   65.9261 C   0  0  0  0  0  0  0  0  0  0  0  0
 34 33  1  0  0  0
 34 35  1  0  0  0
 34 36  1  0  0  0
 34 37  1  0  0  0
 22 23  1  0  0  0
 22 25  1  0  0  0
 22 21  1  0  0  0
 23 24  1  0  0  0
 27 26  1  0  0  0
 27 28  2  0  0  0
 27 31  1  0  0  0
 27 29  1  0  0  0
 25 26  1  0  0  0
 32 33  1  0  0  0
 32 31  1  0  0  0
 29 30  1  0  0  0
 20 21  1  0  0  0
 20  2  1  0  0  0
  1  2  2  0  0  0
  2  3  1  0  0  0
  3  4  1  0  0  0
  4  5  1  0  0  0
  5  6  1  0  0  0
  6  7  1  0  0  0
  7  8  1  0  0  0
  8  9  1  0  0  0
  9 10  1  0  0  0
 10 11  2  0  0  0
 11 12  1  0  0  0
 12 13  1  0  0  0
 13 14  1  0  0  0
 14 15  1  0  0  0
 15 16  1  0  0  0
 16 17  1  0  0  0
 17 18  1  0  0  0
 18 19  1  0  0  0
M  CHG 1  28  -1
M  END
> <minimizedAffinity>
-7.71883

> <CNNscore>
0.7613582015

> <CNNaffinity>
6.7869672775

> <CNN_VS>
5.1673130989

> <CNNaffinity_variance>
0.2241237164

$$$$
/media/chris/experiments/cd1a-new-docking/inputs/ligands/4x6e_ligand.pdb


 37 36  0  0  0  0  0  0  0  0999 V2000
  -41.5109   60.3090   65.8179 O   0  0  0  0  0  0  0  0  0  0  0  0
  -41.1749   59.2473   65.3546 C   0  0  0  0  0  0  0  0  0  0  0  0
  -41.8524   57.9363   65.6116 C   0  0  0  0  0  0  0  0  0  0  0  0
  -42.8341   57.5435   64.5140 C   0  0  0  0  0  0  0  0  0  0  0  0
  -44.2904   57.8120   64.8526 C   0  0  0  0  0  0  0  0  0  0  0  0
  -44.7312   57.1860   66.1640 C   0  0  0  0  0  0  0  0  0  0  0  0
  -46.0230   57.7800   66.6989 C   0  0  0  0  0  0  0  0  0  0  0  0
  -47.2461   57.1357   66.0852 C   0  0  0  0  0  0  0  0  0  0  0  0
  -48.3184   58.1078   65.6369 C   0  0  0  0  0  0  0  0  0  0  0  0
  -48.1063   58.6551   64.2775 C   0  0  0  0  0  0  0  0  0  0  0  0
  -49.0289   58.8069   63.3498 C   0  0  0  0  0  0  0  0  0  0  0  0
  -50.4873   58.5044   63.4686 C   0  0  0  0  0  0  0  0  0  0  0  0
  -51.1726   58.6740   62.1117 C   0  0  0  0  0  0  0  0  0  0  0  0
  -51.0175   57.5033   61.1521 C   0  0  0  0  0  0  0  0  0  0  0  0
  -49.8004   57.5763   60.2380 C   0  0  0  0  0  0  0  0  0  0  0  0
  -49.0007   56.2788   60.1835 C   0  0  0  0  0  0  0  0  0  0  0  0
  -48.1299   56.1477   58.9440 C   0  0  0  0  0  0  0  0  0  0  0  0
  -48.4043   57.1630   57.8448 C   0  0  0  0  0  0  0  0  0  0  0  0
  -47.2632   57.3002   56.8843 C   0  0  0  0  0  0  0  0  0  0  0  0
  -40.1421   59.0838   64.5226 O   0  0  0  0  0  0  0  0  0  0  0  0
  -38.8173   59.0275   65.0956 C   0  0  0  0  0  0  0  0  0  0  0  0
  -38.1637   60.3928   65.1285 C   0  0  0  0  0  0  0  0  0  0  0  0
  -38.6977   61.1944   66.1910 O   0  0  0  0  0  0  0  0  0  0  0  0
  -38.4967   60.7772   67.0432 H   0  0  0  0  0  0  0  0  0  0  0  0
  -36.6612   60.3135   65.2652 C   0  0  0  0  0  0  0  0  0  0  0  0
  -36.0206   61.5584   64.8944 O   0  0  0  0  0  0  0  0  0  0  0  0
  -35.3861   62.7480   65.7653 P   0  0  0  0  0  0  0  0  0  0  0  0
  -34.0104   62.2994   66.2557 O   0  0  0  0  0  0  0  0  0  0  0  0
  -36.2503   62.9867   66.9420 O   0  0  0  0  0  0  0  0  0  0  0  0
  -36.3385   62.1654   67.4504 H   0  0  0  0  0  0  0  0  0  0  0  0
  -35.2100   64.1188   64.8738 O   0  0  0  0  0  0  0  0  0  0  0  0
  -34.4323   64.2478   63.6525 C   0  0  0  0  0  0  0  0  0  0  0  0
  -33.0655   64.8069   63.9612 C   0  0  0  0  0  0  0  0  0  0  0  0
  -31.8799   63.9226   63.6219 N   0  0  0  0  0  0  0  0  0  0  0  0
  -32.3437   62.5734   63.1750 C   0  0  0  0  0  0  0  0  0  0  0  0
  -31.0360   63.7657   64.8440 C   0  0  0  0  0  0  0  0  0  0  0  0
  -31.0587   64.5405   62.5262 C   0  0  0  0  0  0  0  0  0  0  0  0
 34 33  1  0  0  0
 34 35  1  0  0  0
 34 36  1  0  0  0
 34 37  1  0  0  0
 22 23  1  0  0  0
 22 25  1  0  0  0
 22 21  1  0  0  0
 23 24  1  0  0  0
 27 26  1  0  0  0
 27 28  2  0  0  0
 27 31  1  0  0  0
 27 29  1  0  0  0
 25 26  1  0  0  0
 32 33  1  0  0  0
 32 31  1  0  0  0
 29 30  1  0  0  0
 20 21  1  0  0  0
 20  2  1  0  0  0
  1  2  2  0  0  0
  2  3  1  0  0  0
  3  4  1  0  0  0
  4  5  1  0  0  0
  5  6  1  0  0  0
  6  7  1  0  0  0
  7  8  1  0  0  0
  8  9  1  0  0  0
  9 10  1  0  0  0
 10 11  2  0  0  0
 11 12  1  0  0  0
 12 13  1  0  0  0
 13 14  1  0  0  0
 14 15  1  0  0  0
 15 16  1  0  0  0
 16 17  1  0  0  0
 17 18  1  0  0  0
 18 19  1  0  0  0
M  CHG 1  28  -1
M  END
> <minimizedAffinity>
-7.62719

> <CNNscore>
0.7302455306

> <CNNaffinity>
6.3293814659

> <CNN_VS>
4.6220026016

> <CNNaffinity_variance>
0.4749292731

$$$$
/media/chris/experiments/cd1a-new-docking/inputs/ligands/4x6e_ligand.pdb


 37 36  0  0  0  0  0  0  0  0999 V2000
  -41.3971   61.1537   66.6741 O   0  0  0  0  0  0  0  0  0  0  0  0
  -41.6574   60.1683   66.0292 C   0  0  0  0  0  0  0  0  0  0  0  0
  -42.4271   58.9843   66.5284 C   0  0  0  0  0  0  0  0  0  0  0  0
  -43.8460   59.3316   66.9631 C   0  0  0  0  0  0  0  0  0  0  0  0
  -44.8306   59.4868   65.8168 C   0  0  0  0  0  0  0  0  0  0  0  0
  -45.5245   58.1908   65.4365 C   0  0  0  0  0  0  0  0  0  0  0  0
  -46.8702   58.0172   66.1196 C   0  0  0  0  0  0  0  0  0  0  0  0
  -47.4389   59.3317   66.6056 C   0  0  0  0  0  0  0  0  0  0  0  0
  -48.7612   59.7224   65.9773 C   0  0  0  0  0  0  0  0  0  0  0  0
  -49.5222   58.5832   65.4157 C   0  0  0  0  0  0  0  0  0  0  0  0
  -50.3885   58.6420   64.4253 C   0  0  0  0  0  0  0  0  0  0  0  0
  -50.7658   59.8467   63.6259 C   0  0  0  0  0  0  0  0  0  0  0  0
  -50.8466   59.4892   62.1409 C   0  0  0  0  0  0  0  0  0  0  0  0
  -50.9818   58.0049   61.8340 C   0  0  0  0  0  0  0  0  0  0  0  0
  -50.3692   57.5623   60.5106 C   0  0  0  0  0  0  0  0  0  0  0  0
  -49.1400   56.6746   60.6750 C   0  0  0  0  0  0  0  0  0  0  0  0
  -48.4614   56.3190   59.3616 C   0  0  0  0  0  0  0  0  0  0  0  0
  -48.5370   57.3857   58.2796 C   0  0  0  0  0  0  0  0  0  0  0  0
  -47.7374   57.0347   57.0627 C   0  0  0  0  0  0  0  0  0  0  0  0
  -41.3031   59.9905   64.7531 O   0  0  0  0  0  0  0  0  0  0  0  0
  -41.8253   60.9147   63.7734 C   0  0  0  0  0  0  0  0  0  0  0  0
  -42.7452   60.2251   62.7883 C   0  0  0  0  0  0  0  0  0  0  0  0
  -43.9725   60.9507   62.6342 O   0  0  0  0  0  0  0  0  0  0  0  0
  -43.7856   61.8269   62.2626 H   0  0  0  0  0  0  0  0  0  0  0  0
  -42.1036   60.0295   61.4346 C   0  0  0  0  0  0  0  0  0  0  0  0
  -40.8201   59.3665   61.5380 O   0  0  0  0  0  0  0  0  0  0  0  0
  -40.4128   57.8309   61.7660 P   0  0  0  0  0  0  0  0  0  0  0  0
  -41.4129   56.9549   61.0133 O   0  0  0  0  0  0  0  0  0  0  0  0
  -40.5116   57.5238   63.2097 O   0  0  0  0  0  0  0  0  0  0  0  0
  -41.4101   57.7160   63.5205 H   0  0  0  0  0  0  0  0  0  0  0  0
  -38.9015   57.5183   61.1975 O   0  0  0  0  0  0  0  0  0  0  0  0
  -37.7632   58.4201   61.2605 C   0  0  0  0  0  0  0  0  0  0  0  0
  -36.8832   58.0680   62.4342 C   0  0  0  0  0  0  0  0  0  0  0  0
  -36.9097   59.0252   63.6115 N   0  0  0  0  0  0  0  0  0  0  0  0
  -37.4860   58.3561   64.8177 C   0  0  0  0  0  0  0  0  0  0  0  0
  -37.7616   60.1985   63.2536 C   0  0  0  0  0  0  0  0  0  0  0  0
  -35.5216   59.4988   63.9364 C   0  0  0  0  0  0  0  0  0  0  0  0
 34 33  1  0  0  0
 34 35  1  0  0  0
 34 36  1  0  0  0
 34 37  1  0  0  0
 22 23  1  0  0  0
 22 25  1  0  0  0
 22 21  1  0  0  0
 23 24  1  0  0  0
 27 26  1  0  0  0
 27 28  2  0  0  0
 27 31  1  0  0  0
 27 29  1  0  0  0
 25 26  1  0  0  0
 32 33  1  0  0  0
 32 31  1  0  0  0
 29 30  1  0  0  0
 20 21  1  0  0  0
 20  2  1  0  0  0
  1  2  2  0  0  0
  2  3  1  0  0  0
  3  4  1  0  0  0
  4  5  1  0  0  0
  5  6  1  0  0  0
  6  7  1  0  0  0
  7  8  1  0  0  0
  8  9  1  0  0  0
  9 10  1  0  0  0
 10 11  2  0  0  0
 11 12  1  0  0  0
 12 13  1  0  0  0
 13 14  1  0  0  0
 14 15  1  0  0  0
 15 16  1  0  0  0
 16 17  1  0  0  0
 17 18  1  0  0  0
 18 19  1  0  0  0
M  CHG 1  28  -1
M  END
> <minimizedAffinity>
-7.66094

> <CNNscore>
0.7250846624

> <CNNaffinity>
6.9484682083

> <CNN_VS>
5.0382275581

> <CNNaffinity_variance>
0.3091195226

$$$$
/media/chris/experiments/cd1a-new-docking/inputs/ligands/4x6e_ligand.pdb


 37 36  0  0  0  0  0  0  0  0999 V2000
  -44.8828   58.9484   63.8973 O   0  0  0  0  0  0  0  0  0  0  0  0
  -44.4259   58.6991   64.9853 C   0  0  0  0  0  0  0  0  0  0  0  0
  -44.6264   57.4190   65.7367 C   0  0  0  0  0  0  0  0  0  0  0  0
  -45.7605   57.4912   66.7522 C   0  0  0  0  0  0  0  0  0  0  0  0
  -47.0669   56.8806   66.2746 C   0  0  0  0  0  0  0  0  0  0  0  0
  -47.9103   57.8315   65.4436 C   0  0  0  0  0  0  0  0  0  0  0  0
  -48.3487   59.0636   66.2165 C   0  0  0  0  0  0  0  0  0  0  0  0
  -48.2380   60.3261   65.3910 C   0  0  0  0  0  0  0  0  0  0  0  0
  -48.5302   60.1473   63.9151 C   0  0  0  0  0  0  0  0  0  0  0  0
  -49.9214   60.4779   63.5311 C   0  0  0  0  0  0  0  0  0  0  0  0
  -50.8097   59.6402   63.0371 C   0  0  0  0  0  0  0  0  0  0  0  0
  -50.6328   58.1768   62.7930 C   0  0  0  0  0  0  0  0  0  0  0  0
  -50.9206   57.8489   61.3270 C   0  0  0  0  0  0  0  0  0  0  0  0
  -50.0013   58.5190   60.3164 C   0  0  0  0  0  0  0  0  0  0  0  0
  -49.4988   57.6103   59.2009 C   0  0  0  0  0  0  0  0  0  0  0  0
  -48.9261   56.2890   59.7030 C   0  0  0  0  0  0  0  0  0  0  0  0
  -47.5675   55.9465   59.1123 C   0  0  0  0  0  0  0  0  0  0  0  0
  -47.5477   55.7305   57.6065 C   0  0  0  0  0  0  0  0  0  0  0  0
  -47.2015   56.9742   56.8469 C   0  0  0  0  0  0  0  0  0  0  0  0
  -43.6529   59.5349   65.6849 O   0  0  0  0  0  0  0  0  0  0  0  0
  -42.2847   59.1418   65.9302 C   0  0  0  0  0  0  0  0  0  0  0  0
  -41.3117   59.9600   65.1079 C   0  0  0  0  0  0  0  0  0  0  0  0
  -40.4000   60.6770   65.9512 O   0  0  0  0  0  0  0  0  0  0  0  0
  -39.8638   60.0468   66.4573 H   0  0  0  0  0  0  0  0  0  0  0  0
  -40.5315   59.1182   64.1255 C   0  0  0  0  0  0  0  0  0  0  0  0
  -40.3381   59.8035   62.8643 O   0  0  0  0  0  0  0  0  0  0  0  0
  -39.0779   59.9122   61.8762 P   0  0  0  0  0  0  0  0  0  0  0  0
  -39.6012   60.1307   60.4575 O   0  0  0  0  0  0  0  0  0  0  0  0
  -38.3359   58.6330   61.9122 O   0  0  0  0  0  0  0  0  0  0  0  0
  -38.9315   57.9067   61.6702 H   0  0  0  0  0  0  0  0  0  0  0  0
  -38.1024   61.1728   62.2813 O   0  0  0  0  0  0  0  0  0  0  0  0
  -37.9235   61.7177   63.6170 C   0  0  0  0  0  0  0  0  0  0  0  0
  -36.4544   61.8363   63.9394 C   0  0  0  0  0  0  0  0  0  0  0  0
  -35.9524   63.2192   64.3112 N   0  0  0  0  0  0  0  0  0  0  0  0
  -36.4585   64.2384   63.3416 C   0  0  0  0  0  0  0  0  0  0  0  0
  -34.4594   63.2115   64.2723 C   0  0  0  0  0  0  0  0  0  0  0  0
  -36.4123   63.5928   65.6915 C   0  0  0  0  0  0  0  0  0  0  0  0
 34 33  1  0  0  0
 34 35  1  0  0  0
 34 36  1  0  0  0
 34 37  1  0  0  0
 22 23  1  0  0  0
 22 25  1  0  0  0
 22 21  1  0  0  0
 23 24  1  0  0  0
 27 26  1  0  0  0
 27 28  2  0  0  0
 27 31  1  0  0  0
 27 29  1  0  0  0
 25 26  1  0  0  0
 32 33  1  0  0  0
 32 31  1  0  0  0
 29 30  1  0  0  0
 20 21  1  0  0  0
 20  2  1  0  0  0
  1  2  2  0  0  0
  2  3  1  0  0  0
  3  4  1  0  0  0
  4  5  1  0  0  0
  5  6  1  0  0  0
  6  7  1  0  0  0
  7  8  1  0  0  0
  8  9  1  0  0  0
  9 10  1  0  0  0
 10 11  2  0  0  0
 11 12  1  0  0  0
 12 13  1  0  0  0
 13 14  1  0  0  0
 14 15  1  0  0  0
 15 16  1  0  0  0
 16 17  1  0  0  0
 17 18  1  0  0  0
 18 19  1  0  0  0
M  CHG 1  28  -1
M  END
> <minimizedAffinity>
-7.96577

> <CNNscore>
0.6959902048

> <CNNaffinity>
6.5825529099

> <CNN_VS>
4.5813922882

> <CNNaffinity_variance>
0.0603773780

$$$$
/media/chris/experiments/cd1a-new-docking/inputs/ligands/4x6e_ligand.pdb


 37 36  0  0  0  0  0  0  0  0999 V2000
  -42.4685   57.0129   65.3493 O   0  0  0  0  0  0  0  0  0  0  0  0
  -42.0564   58.0716   65.7543 C   0  0  0  0  0  0  0  0  0  0  0  0
  -42.8919   59.1424   66.3859 C   0  0  0  0  0  0  0  0  0  0  0  0
  -44.3394   59.1328   65.9090 C   0  0  0  0  0  0  0  0  0  0  0  0
  -45.3577   59.4298   66.9964 C   0  0  0  0  0  0  0  0  0  0  0  0
  -46.1272   58.2037   67.4550 C   0  0  0  0  0  0  0  0  0  0  0  0
  -46.2529   57.1446   66.3732 C   0  0  0  0  0  0  0  0  0  0  0  0
  -47.6695   56.6330   66.2354 C   0  0  0  0  0  0  0  0  0  0  0  0
  -48.6761   57.6674   65.7745 C   0  0  0  0  0  0  0  0  0  0  0  0
  -48.2775   58.3916   64.5461 C   0  0  0  0  0  0  0  0  0  0  0  0
  -49.0913   58.8517   63.6183 C   0  0  0  0  0  0  0  0  0  0  0  0
  -50.5840   58.7856   63.6129 C   0  0  0  0  0  0  0  0  0  0  0  0
  -51.1116   58.9114   62.1827 C   0  0  0  0  0  0  0  0  0  0  0  0
  -50.0692   58.7471   61.0864 C   0  0  0  0  0  0  0  0  0  0  0  0
  -50.4279   57.7379   60.0023 C   0  0  0  0  0  0  0  0  0  0  0  0
  -49.2992   57.4846   59.0083 C   0  0  0  0  0  0  0  0  0  0  0  0
  -48.3728   56.3480   59.4102 C   0  0  0  0  0  0  0  0  0  0  0  0
  -47.3646   55.9243   58.3526 C   0  0  0  0  0  0  0  0  0  0  0  0
  -47.4110   56.7870   57.1290 C   0  0  0  0  0  0  0  0  0  0  0  0
  -40.7743   58.4453   65.7098 O   0  0  0  0  0  0  0  0  0  0  0  0
  -40.4742   59.8472   65.8864 C   0  0  0  0  0  0  0  0  0  0  0  0
  -39.0623   60.1764   65.4499 C   0  0  0  0  0  0  0  0  0  0  0  0
  -38.5322   61.2743   66.2048 O   0  0  0  0  0  0  0  0  0  0  0  0
  -38.4753   61.0257   67.1406 H   0  0  0  0  0  0  0  0  0  0  0  0
  -38.1299   58.9929   65.5615 C   0  0  0  0  0  0  0  0  0  0  0  0
  -37.1485   58.9787   64.4965 O   0  0  0  0  0  0  0  0  0  0  0  0
  -37.2836   58.8181   62.9052 P   0  0  0  0  0  0  0  0  0  0  0  0
  -38.1405   57.5857   62.6208 O   0  0  0  0  0  0  0  0  0  0  0  0
  -35.9366   58.5964   62.3354 O   0  0  0  0  0  0  0  0  0  0  0  0
  -35.5339   57.8178   62.7507 H   0  0  0  0  0  0  0  0  0  0  0  0
  -38.0032   60.1322   62.2266 O   0  0  0  0  0  0  0  0  0  0  0  0
  -39.1326   60.1087   61.3119 C   0  0  0  0  0  0  0  0  0  0  0  0
  -40.4281   60.0672   62.0838 C   0  0  0  0  0  0  0  0  0  0  0  0
  -41.6517   59.5839   61.3274 N   0  0  0  0  0  0  0  0  0  0  0  0
  -41.3447   58.3225   60.5860 C   0  0  0  0  0  0  0  0  0  0  0  0
  -42.0543   60.6370   60.3479 C   0  0  0  0  0  0  0  0  0  0  0  0
  -42.7882   59.3250   62.2749 C   0  0  0  0  0  0  0  0  0  0  0  0
 34 33  1  0  0  0
 34 35  1  0  0  0
 34 36  1  0  0  0
 34 37  1  0  0  0
 22 23  1  0  0  0
 22 25  1  0  0  0
 22 21  1  0  0  0
 23 24  1  0  0  0
 27 26  1  0  0  0
 27 28  2  0  0  0
 27 31  1  0  0  0
 27 29  1  0  0  0
 25 26  1  0  0  0
 32 33  1  0  0  0
 32 31  1  0  0  0
 29 30  1  0  0  0
 20 21  1  0  0  0
 20  2  1  0  0  0
  1  2  2  0  0  0
  2  3  1  0  0  0
  3  4  1  0  0  0
  4  5  1  0  0  0
  5  6  1  0  0  0
  6  7  1  0  0  0
  7  8  1  0  0  0
  8  9  1  0  0  0
  9 10  1  0  0  0
 10 11  2  0  0  0
 11 12  1  0  0  0
 12 13  1  0  0  0
 13 14  1  0  0  0
 14 15  1  0  0  0
 15 16  1  0  0  0
 16 17  1  0  0  0
 17 18  1  0  0  0
 18 19  1  0  0  0
M  CHG 1  28  -1
M  END
> <minimizedAffinity>
-8.01951

> <CNNscore>
0.6876738071

> <CNNaffinity>
7.1500411034

> <CNN_VS>
4.9168958664

> <CNNaffinity_variance>
0.2719300687

$$$$
/media/chris/experiments/cd1a-new-docking/inputs/ligands/4x6e_ligand.pdb


 37 36  0  0  0  0  0  0  0  0999 V2000
  -39.9061   60.1040   66.1802 O   0  0  0  0  0  0  0  0  0  0  0  0
  -40.3015   59.0537   65.7384 C   0  0  0  0  0  0  0  0  0  0  0  0
  -41.6450   58.4499   66.0104 C   0  0  0  0  0  0  0  0  0  0  0  0
  -42.3346   59.0472   67.2313 C   0  0  0  0  0  0  0  0  0  0  0  0
  -43.6861   59.6766   66.9402 C   0  0  0  0  0  0  0  0  0  0  0  0
  -44.7648   58.6627   66.6022 C   0  0  0  0  0  0  0  0  0  0  0  0
  -46.0132   59.2995   66.0160 C   0  0  0  0  0  0  0  0  0  0  0  0
  -47.2806   58.6622   66.5405 C   0  0  0  0  0  0  0  0  0  0  0  0
  -48.2096   58.1234   65.4716 C   0  0  0  0  0  0  0  0  0  0  0  0
  -49.6465   58.3389   65.7566 C   0  0  0  0  0  0  0  0  0  0  0  0
  -50.4579   59.1363   65.0929 C   0  0  0  0  0  0  0  0  0  0  0  0
  -50.1292   59.9630   63.8924 C   0  0  0  0  0  0  0  0  0  0  0  0
  -50.8964   59.4490   62.6730 C   0  0  0  0  0  0  0  0  0  0  0  0
  -50.5182   58.0509   62.2064 C   0  0  0  0  0  0  0  0  0  0  0  0
  -50.8158   57.7584   60.7407 C   0  0  0  0  0  0  0  0  0  0  0  0
  -49.7256   58.2408   59.7896 C   0  0  0  0  0  0  0  0  0  0  0  0
  -49.4894   57.3135   58.6081 C   0  0  0  0  0  0  0  0  0  0  0  0
  -48.0739   57.3165   58.0504 C   0  0  0  0  0  0  0  0  0  0  0  0
  -47.6609   55.9820   57.5102 C   0  0  0  0  0  0  0  0  0  0  0  0
  -39.5942   58.2691   64.9199 O   0  0  0  0  0  0  0  0  0  0  0  0
  -38.3041   57.8074   65.3769 C   0  0  0  0  0  0  0  0  0  0  0  0
  -37.2184   58.0827   64.3581 C   0  0  0  0  0  0  0  0  0  0  0  0
  -35.9617   57.5394   64.7846 O   0  0  0  0  0  0  0  0  0  0  0  0
  -36.0324   56.5744   64.8509 H   0  0  0  0  0  0  0  0  0  0  0  0
  -37.5592   57.5455   62.9878 C   0  0  0  0  0  0  0  0  0  0  0  0
  -37.5103   58.5810   61.9764 O   0  0  0  0  0  0  0  0  0  0  0  0
  -38.5498   59.0296   60.8387 P   0  0  0  0  0  0  0  0  0  0  0  0
  -38.1019   58.4151   59.5136 O   0  0  0  0  0  0  0  0  0  0  0  0
  -38.5072   60.5029   60.7124 O   0  0  0  0  0  0  0  0  0  0  0  0
  -37.6005   60.7844   60.5137 H   0  0  0  0  0  0  0  0  0  0  0  0
  -40.0731   58.5094   61.1762 O   0  0  0  0  0  0  0  0  0  0  0  0
  -41.2998   59.2532   60.9421 C   0  0  0  0  0  0  0  0  0  0  0  0
  -42.1494   59.2637   62.1887 C   0  0  0  0  0  0  0  0  0  0  0  0
  -42.7875   60.5889   62.5620 N   0  0  0  0  0  0  0  0  0  0  0  0
  -41.9726   61.2879   63.6024 C   0  0  0  0  0  0  0  0  0  0  0  0
  -44.1512   60.3245   63.1103 C   0  0  0  0  0  0  0  0  0  0  0  0
  -42.8996   61.4775   61.3561 C   0  0  0  0  0  0  0  0  0  0  0  0
 34 33  1  0  0  0
 34 35  1  0  0  0
 34 36  1  0  0  0
 34 37  1  0  0  0
 22 23  1  0  0  0
 22 25  1  0  0  0
 22 21  1  0  0  0
 23 24  1  0  0  0
 27 26  1  0  0  0
 27 28  2  0  0  0
 27 31  1  0  0  0
 27 29  1  0  0  0
 25 26  1  0  0  0
 32 33  1  0  0  0
 32 31  1  0  0  0
 29 30  1  0  0  0
 20 21  1  0  0  0
 20  2  1  0  0  0
  1  2  2  0  0  0
  2  3  1  0  0  0
  3  4  1  0  0  0
  4  5  1  0  0  0
  5  6  1  0  0  0
  6  7  1  0  0  0
  7  8  1  0  0  0
  8  9  1  0  0  0
  9 10  1  0  0  0
 10 11  2  0  0  0
 11 12  1  0  0  0
 12 13  1  0  0  0
 13 14  1  0  0  0
 14 15  1  0  0  0
 15 16  1  0  0  0
 16 17  1  0  0  0
 17 18  1  0  0  0
 18 19  1  0  0  0
M  CHG 1  28  -1
M  END
> <minimizedAffinity>
-7.83792

> <CNNscore>
0.6852712035

> <CNNaffinity>
7.1075072289

> <CNN_VS>
4.8705701828

> <CNNaffinity_variance>
0.2509717345

$$$$
/media/chris/experiments/cd1a-new-docking/inputs/ligands/4x6e_ligand.pdb


 37 36  0  0  0  0  0  0  0  0999 V2000
  -41.7808   61.2878   64.7273 O   0  0  0  0  0  0  0  0  0  0  0  0
  -42.3480   60.3260   64.2713 C   0  0  0  0  0  0  0  0  0  0  0  0
  -43.2949   60.3480   63.1109 C   0  0  0  0  0  0  0  0  0  0  0  0
  -44.6629   60.9192   63.4642 C   0  0  0  0  0  0  0  0  0  0  0  0
  -45.4412   60.0967   64.4768 C   0  0  0  0  0  0  0  0  0  0  0  0
  -46.8775   60.5569   64.6534 C   0  0  0  0  0  0  0  0  0  0  0  0
  -47.4602   60.1742   66.0030 C   0  0  0  0  0  0  0  0  0  0  0  0
  -47.3224   58.6950   66.2868 C   0  0  0  0  0  0  0  0  0  0  0  0
  -48.4243   57.8318   65.7065 C   0  0  0  0  0  0  0  0  0  0  0  0
  -49.7406   58.5053   65.6290 C   0  0  0  0  0  0  0  0  0  0  0  0
  -50.3883   58.8177   64.5255 C   0  0  0  0  0  0  0  0  0  0  0  0
  -49.9686   58.5315   63.1204 C   0  0  0  0  0  0  0  0  0  0  0  0
  -51.1778   58.5970   62.1859 C   0  0  0  0  0  0  0  0  0  0  0  0
  -51.1736   57.5925   61.0429 C   0  0  0  0  0  0  0  0  0  0  0  0
  -49.9731   57.6845   60.1088 C   0  0  0  0  0  0  0  0  0  0  0  0
  -48.9751   56.5447   60.2853 C   0  0  0  0  0  0  0  0  0  0  0  0
  -48.2116   56.1974   59.0172 C   0  0  0  0  0  0  0  0  0  0  0  0
  -48.2457   57.2565   57.9255 C   0  0  0  0  0  0  0  0  0  0  0  0
  -47.1807   57.0574   56.8913 C   0  0  0  0  0  0  0  0  0  0  0  0
  -42.2039   59.0802   64.7326 O   0  0  0  0  0  0  0  0  0  0  0  0
  -40.9189   58.4428   64.5625 C   0  0  0  0  0  0  0  0  0  0  0  0
  -41.0573   56.9474   64.3704 C   0  0  0  0  0  0  0  0  0  0  0  0
  -42.1429   56.4260   65.1490 O   0  0  0  0  0  0  0  0  0  0  0  0
  -42.9765   56.8167   64.8438 H   0  0  0  0  0  0  0  0  0  0  0  0
  -41.2483   56.5639   62.9216 C   0  0  0  0  0  0  0  0  0  0  0  0
  -40.0788   56.8718   62.1247 O   0  0  0  0  0  0  0  0  0  0  0  0
  -39.7309   58.0942   61.1444 P   0  0  0  0  0  0  0  0  0  0  0  0
  -40.9034   59.0734   61.1677 O   0  0  0  0  0  0  0  0  0  0  0  0
  -39.5821   57.5708   59.7689 O   0  0  0  0  0  0  0  0  0  0  0  0
  -40.3952   57.1104   59.5083 H   0  0  0  0  0  0  0  0  0  0  0  0
  -38.3711   58.8840   61.6264 O   0  0  0  0  0  0  0  0  0  0  0  0
  -37.0861   58.2700   61.9171 C   0  0  0  0  0  0  0  0  0  0  0  0
  -36.3214   59.1070   62.9124 C   0  0  0  0  0  0  0  0  0  0  0  0
  -35.4860   58.3532   63.9307 N   0  0  0  0  0  0  0  0  0  0  0  0
  -36.2447   57.1817   64.4663 C   0  0  0  0  0  0  0  0  0  0  0  0
  -35.1595   59.2767   65.0580 C   0  0  0  0  0  0  0  0  0  0  0  0
  -34.2118   57.8610   63.3056 C   0  0  0  0  0  0  0  0  0  0  0  0
 34 33  1  0  0  0
 34 35  1  0  0  0
 34 36  1  0  0  0
 34 37  1  0  0  0
 22 23  1  0  0  0
 22 25  1  0  0  0
 22 21  1  0  0  0
 23 24  1  0  0  0
 27 26  1  0  0  0
 27 28  2  0  0  0
 27 31  1  0  0  0
 27 29  1  0  0  0
 25 26  1  0  0  0
 32 33  1  0  0  0
 32 31  1  0  0  0
 29 30  1  0  0  0
 20 21  1  0  0  0
 20  2  1  0  0  0
  1  2  2  0  0  0
  2  3  1  0  0  0
  3  4  1  0  0  0
  4  5  1  0  0  0
  5  6  1  0  0  0
  6  7  1  0  0  0
  7  8  1  0  0  0
  8  9  1  0  0  0
  9 10  1  0  0  0
 10 11  2  0  0  0
 11 12  1  0  0  0
 12 13  1  0  0  0
 13 14  1  0  0  0
 14 15  1  0  0  0
 15 16  1  0  0  0
 16 17  1  0  0  0
 17 18  1  0  0  0
 18 19  1  0  0  0
M  CHG 1  28  -1
M  END
> <minimizedAffinity>
-7.73809

> <CNNscore>
0.6784601212

> <CNNaffinity>
6.9833221436

> <CNN_VS>
4.7379055023

> <CNNaffinity_variance>
0.5135577917

$$$$
/media/chris/experiments/cd1a-new-docking/inputs/ligands/4x6e_ligand.pdb


 37 36  0  0  0  0  0  0  0  0999 V2000
  -41.1264   60.9323   65.9838 O   0  0  0  0  0  0  0  0  0  0  0  0
  -41.3797   59.8265   65.5743 C   0  0  0  0  0  0  0  0  0  0  0  0
  -42.2885   58.8416   66.2436 C   0  0  0  0  0  0  0  0  0  0  0  0
  -43.2924   59.4961   67.1851 C   0  0  0  0  0  0  0  0  0  0  0  0
  -44.7440   59.1781   66.8701 C   0  0  0  0  0  0  0  0  0  0  0  0
  -45.1678   59.6058   65.4761 C   0  0  0  0  0  0  0  0  0  0  0  0
  -46.2236   58.6955   64.8727 C   0  0  0  0  0  0  0  0  0  0  0  0
  -46.8795   57.8131   65.9114 C   0  0  0  0  0  0  0  0  0  0  0  0
  -48.3888   57.9271   65.9795 C   0  0  0  0  0  0  0  0  0  0  0  0
  -48.8882   59.3208   66.0016 C   0  0  0  0  0  0  0  0  0  0  0  0
  -49.9057   59.7912   65.3100 C   0  0  0  0  0  0  0  0  0  0  0  0
  -50.8017   59.0282   64.3894 C   0  0  0  0  0  0  0  0  0  0  0  0
  -50.4867   59.3818   62.9349 C   0  0  0  0  0  0  0  0  0  0  0  0
  -50.7883   58.2902   61.9186 C   0  0  0  0  0  0  0  0  0  0  0  0
  -49.6259   57.9222   61.0044 C   0  0  0  0  0  0  0  0  0  0  0  0
  -50.0164   57.8194   59.5337 C   0  0  0  0  0  0  0  0  0  0  0  0
  -48.8701   57.4091   58.6229 C   0  0  0  0  0  0  0  0  0  0  0  0
  -48.1480   56.1304   59.0203 C   0  0  0  0  0  0  0  0  0  0  0  0
  -46.9969   55.8101   58.1171 C   0  0  0  0  0  0  0  0  0  0  0  0
  -40.8899   59.3145   64.4413 O   0  0  0  0  0  0  0  0  0  0  0  0
  -40.4133   57.9512   64.4684 C   0  0  0  0  0  0  0  0  0  0  0  0
  -39.1036   57.8016   63.7235 C   0  0  0  0  0  0  0  0  0  0  0  0
  -38.9744   58.8003   62.7026 O   0  0  0  0  0  0  0  0  0  0  0  0
  -38.9548   59.6798   63.1111 H   0  0  0  0  0  0  0  0  0  0  0  0
  -37.9045   57.8623   64.6406 C   0  0  0  0  0  0  0  0  0  0  0  0
  -37.9685   58.9991   65.5356 O   0  0  0  0  0  0  0  0  0  0  0  0
  -37.4920   60.5240   65.3808 P   0  0  0  0  0  0  0  0  0  0  0  0
  -37.5401   61.1814   66.7591 O   0  0  0  0  0  0  0  0  0  0  0  0
  -38.4399   61.2284   64.4900 O   0  0  0  0  0  0  0  0  0  0  0  0
  -39.3370   61.1584   64.8522 H   0  0  0  0  0  0  0  0  0  0  0  0
  -35.9555   60.6186   64.8018 O   0  0  0  0  0  0  0  0  0  0  0  0
  -35.3575   61.7750   64.1551 C   0  0  0  0  0  0  0  0  0  0  0  0
  -34.1898   62.2800   64.9658 C   0  0  0  0  0  0  0  0  0  0  0  0
  -34.2226   63.7450   65.3604 N   0  0  0  0  0  0  0  0  0  0  0  0
  -32.8795   64.1869   65.8460 C   0  0  0  0  0  0  0  0  0  0  0  0
  -35.2183   63.9212   66.4594 C   0  0  0  0  0  0  0  0  0  0  0  0
  -34.6190   64.5971   64.1885 C   0  0  0  0  0  0  0  0  0  0  0  0
 34 33  1  0  0  0
 34 35  1  0  0  0
 34 36  1  0  0  0
 34 37  1  0  0  0
 22 23  1  0  0  0
 22 25  1  0  0  0
 22 21  1  0  0  0
 23 24  1  0  0  0
 27 26  1  0  0  0
 27 28  2  0  0  0
 27 31  1  0  0  0
 27 29  1  0  0  0
 25 26  1  0  0  0
 32 33  1  0  0  0
 32 31  1  0  0  0
 29 30  1  0  0  0
 20 21  1  0  0  0
 20  2  1  0  0  0
  1  2  2  0  0  0
  2  3  1  0  0  0
  3  4  1  0  0  0
  4  5  1  0  0  0
  5  6  1  0  0  0
  6  7  1  0  0  0
  7  8  1  0  0  0
  8  9  1  0  0  0
  9 10  1  0  0  0
 10 11  2  0  0  0
 11 12  1  0  0  0
 12 13  1  0  0  0
 13 14  1  0  0  0
 14 15  1  0  0  0
 15 16  1  0  0  0
 16 17  1  0  0  0
 17 18  1  0  0  0
 18 19  1  0  0  0
M  CHG 1  28  -1
M  END
> <minimizedAffinity>
-7.67036

> <CNNscore>
0.6696645021

> <CNNaffinity>
6.3618879318

> <CNN_VS>
4.2603306770

> <CNNaffinity_variance>
0.0565238893

$$$$
