/media/chris/experiments/cd1a-new-docking/inputs/ligands/4x6e_ligand.pdb


 37 36  0  0  0  0  0  0  0  0999 V2000
  -41.3110   61.2173   66.6223 O   0  0  0  0  0  0  0  0  0  0  0  0
  -41.3577   60.0362   66.3823 C   0  0  0  0  0  0  0  0  0  0  0  0
  -42.1100   59.0182   67.1832 C   0  0  0  0  0  0  0  0  0  0  0  0
  -43.2884   58.4138   66.4291 C   0  0  0  0  0  0  0  0  0  0  0  0
  -44.4682   59.3548   66.2553 C   0  0  0  0  0  0  0  0  0  0  0  0
  -45.6692   58.9819   67.1065 C   0  0  0  0  0  0  0  0  0  0  0  0
  -46.1004   57.5371   66.9214 C   0  0  0  0  0  0  0  0  0  0  0  0
  -47.5219   57.4245   66.4176 C   0  0  0  0  0  0  0  0  0  0  0  0
  -47.9456   58.5214   65.4620 C   0  0  0  0  0  0  0  0  0  0  0  0
  -49.2301   59.1671   65.8160 C   0  0  0  0  0  0  0  0  0  0  0  0
  -50.3354   59.1394   65.1002 C   0  0  0  0  0  0  0  0  0  0  0  0
  -50.5555   58.4260   63.8060 C   0  0  0  0  0  0  0  0  0  0  0  0
  -50.9155   59.4272   62.7072 C   0  0  0  0  0  0  0  0  0  0  0  0
  -50.3073   59.1433   61.3416 C   0  0  0  0  0  0  0  0  0  0  0  0
  -50.7049   57.8079   60.7244 C   0  0  0  0  0  0  0  0  0  0  0  0
  -49.5315   57.0414   60.1227 C   0  0  0  0  0  0  0  0  0  0  0  0
  -49.2001   57.4502   58.6962 C   0  0  0  0  0  0  0  0  0  0  0  0
  -48.0309   56.7119   58.0620 C   0  0  0  0  0  0  0  0  0  0  0  0
  -47.3045   55.8333   59.0335 C   0  0  0  0  0  0  0  0  0  0  0  0
  -40.7469   59.4556   65.3452 O   0  0  0  0  0  0  0  0  0  0  0  0
  -39.3437   59.1400   65.4796 C   0  0  0  0  0  0  0  0  0  0  0  0
  -38.4796   60.0720   64.6569 C   0  0  0  0  0  0  0  0  0  0  0  0
  -39.2397   61.1879   64.1739 O   0  0  0  0  0  0  0  0  0  0  0  0
  -39.5613   61.7098   64.9257 H   0  0  0  0  0  0  0  0  0  0  0  0
  -37.2781   60.5757   65.4218 C   0  0  0  0  0  0  0  0  0  0  0  0
  -37.1919   62.0211   65.3979 O   0  0  0  0  0  0  0  0  0  0  0  0
  -36.3338   63.0666   66.2621 P   0  0  0  0  0  0  0  0  0  0  0  0
  -36.0876   62.4574   67.6414 O   0  0  0  0  0  0  0  0  0  0  0  0
  -37.1251   64.3053   66.4291 O   0  0  0  0  0  0  0  0  0  0  0  0
  -37.9743   64.0926   66.8467 H   0  0  0  0  0  0  0  0  0  0  0  0
  -34.8825   63.3833   65.5558 O   0  0  0  0  0  0  0  0  0  0  0  0
  -34.2132   62.5491   64.5715 C   0  0  0  0  0  0  0  0  0  0  0  0
  -33.5735   63.4079   63.5086 C   0  0  0  0  0  0  0  0  0  0  0  0
  -32.5566   64.4287   63.9844 N   0  0  0  0  0  0  0  0  0  0  0  0
  -33.2147   65.7485   64.2298 C   0  0  0  0  0  0  0  0  0  0  0  0
  -31.5157   64.5946   62.9265 C   0  0  0  0  0  0  0  0  0  0  0  0
  -31.9040   63.9683   65.2567 C   0  0  0  0  0  0  0  0  0  0  0  0
 34 33  1  0  0  0
 34 35  1  0  0  0
 34 36  1  0  0  0
 34 37  1  0  0  0
 22 23  1  0  0  0
 22 25  1  0  0  0
 22 21  1  0  0  0
 23 24  1  0  0  0
 27 26  1  0  0  0
 27 28  2  0  0  0
 27 31  1  0  0  0
 27 29  1  0  0  0
 25 26  1  0  0  0
 32 33  1  0  0  0
 32 31  1  0  0  0
 29 30  1  0  0  0
 20 21  1  0  0  0
 20  2  1  0  0  0
  1  2  2  0  0  0
  2  3  1  0  0  0
  3  4  1  0  0  0
  4  5  1  0  0  0
  5  6  1  0  0  0
  6  7  1  0  0  0
  7  8  1  0  0  0
  8  9  1  0  0  0
  9 10  1  0  0  0
 10 11  2  0  0  0
 11 12  1  0  0  0
 12 13  1  0  0  0
 13 14  1  0  0  0
 14 15  1  0  0  0
 15 16  1  0  0  0
 16 17  1  0  0  0
 17 18  1  0  0  0
 18 19  1  0  0  0
M  CHG 1  28  -1
M  END
> <minimizedAffinity>
-7.99881

> <CNNscore>
0.8437337875

> <CNNaffinity>
6.5194253922

> <CNN_VS>
5.5006594658

> <CNNaffinity_variance>
0.3749202490

$$$$
/media/chris/experiments/cd1a-new-docking/inputs/ligands/4x6e_ligand.pdb


 37 36  0  0  0  0  0  0  0  0999 V2000
  -42.7085   59.8204   63.2800 O   0  0  0  0  0  0  0  0  0  0  0  0
  -43.0567   59.3349   64.3278 C   0  0  0  0  0  0  0  0  0  0  0  0
  -44.2161   58.4039   64.5088 C   0  0  0  0  0  0  0  0  0  0  0  0
  -45.4648   59.0978   65.0396 C   0  0  0  0  0  0  0  0  0  0  0  0
  -45.6934   58.9186   66.5307 C   0  0  0  0  0  0  0  0  0  0  0  0
  -47.0710   58.3774   66.8702 C   0  0  0  0  0  0  0  0  0  0  0  0
  -47.7972   57.8078   65.6636 C   0  0  0  0  0  0  0  0  0  0  0  0
  -49.2558   58.2063   65.6333 C   0  0  0  0  0  0  0  0  0  0  0  0
  -49.5046   59.6975   65.5312 C   0  0  0  0  0  0  0  0  0  0  0  0
  -49.1265   60.2842   64.2254 C   0  0  0  0  0  0  0  0  0  0  0  0
  -49.8327   60.2258   63.1152 C   0  0  0  0  0  0  0  0  0  0  0  0
  -51.1766   59.5991   62.9316 C   0  0  0  0  0  0  0  0  0  0  0  0
  -51.0389   58.2610   62.2038 C   0  0  0  0  0  0  0  0  0  0  0  0
  -49.7899   58.1097   61.3478 C   0  0  0  0  0  0  0  0  0  0  0  0
  -49.7602   56.8675   60.4655 C   0  0  0  0  0  0  0  0  0  0  0  0
  -48.9740   57.0573   59.1725 C   0  0  0  0  0  0  0  0  0  0  0  0
  -47.8676   56.0337   58.9728 C   0  0  0  0  0  0  0  0  0  0  0  0
  -47.3565   55.8967   57.5465 C   0  0  0  0  0  0  0  0  0  0  0  0
  -47.4166   57.1840   56.7831 C   0  0  0  0  0  0  0  0  0  0  0  0
  -42.4434   59.5491   65.4956 O   0  0  0  0  0  0  0  0  0  0  0  0
  -41.2144   60.3080   65.4824 C   0  0  0  0  0  0  0  0  0  0  0  0
  -40.0076   59.4147   65.2877 C   0  0  0  0  0  0  0  0  0  0  0  0
  -39.7692   59.1665   63.8956 O   0  0  0  0  0  0  0  0  0  0  0  0
  -39.5622   60.0023   63.4490 H   0  0  0  0  0  0  0  0  0  0  0  0
  -38.7577   59.9824   65.9184 C   0  0  0  0  0  0  0  0  0  0  0  0
  -38.4108   61.2725   65.3590 O   0  0  0  0  0  0  0  0  0  0  0  0
  -37.2996   61.7240   64.2926 P   0  0  0  0  0  0  0  0  0  0  0  0
  -37.8961   61.5837   62.8930 O   0  0  0  0  0  0  0  0  0  0  0  0
  -36.1392   60.8131   64.4030 O   0  0  0  0  0  0  0  0  0  0  0  0
  -36.4316   59.8987   64.2646 H   0  0  0  0  0  0  0  0  0  0  0  0
  -36.8465   63.2885   64.5212 O   0  0  0  0  0  0  0  0  0  0  0  0
  -35.7845   63.7488   65.4005 C   0  0  0  0  0  0  0  0  0  0  0  0
  -34.5609   64.1104   64.5954 C   0  0  0  0  0  0  0  0  0  0  0  0
  -33.4224   64.7684   65.3526 N   0  0  0  0  0  0  0  0  0  0  0  0
  -32.2047   63.9014   65.3249 C   0  0  0  0  0  0  0  0  0  0  0  0
  -33.8445   64.9672   66.7713 C   0  0  0  0  0  0  0  0  0  0  0  0
  -33.0841   66.0990   64.7431 C   0  0  0  0  0  0  0  0  0  0  0  0
 34 33  1  0  0  0
 34 35  1  0  0  0
 34 36  1  0  0  0
 34 37  1  0  0  0
 22 23  1  0  0  0
 22 25  1  0  0  0
 22 21  1  0  0  0
 23 24  1  0  0  0
 27 26  1  0  0  0
 27 28  2  0  0  0
 27 31  1  0  0  0
 27 29  1  0  0  0
 25 26  1  0  0  0
 32 33  1  0  0  0
 32 31  1  0  0  0
 29 30  1  0  0  0
 20 21  1  0  0  0
 20  2  1  0  0  0
  1  2  2  0  0  0
  2  3  1  0  0  0
  3  4  1  0  0  0
  4  5  1  0  0  0
  5  6  1  0  0  0
  6  7  1  0  0  0
  7  8  1  0  0  0
  8  9  1  0  0  0
  9 10  1  0  0  0
 10 11  2  0  0  0
 11 12  1  0  0  0
 12 13  1  0  0  0
 13 14  1  0  0  0
 14 15  1  0  0  0
 15 16  1  0  0  0
 16 17  1  0  0  0
 17 18  1  0  0  0
 18 19  1  0  0  0
M  CHG 1  28  -1
M  END
> <minimizedAffinity>
-7.76550

> <CNNscore>
0.8207909465

> <CNNaffinity>
6.4973587990

> <CNN_VS>
5.3329734802

> <CNNaffinity_variance>
0.3422552347

$$$$
/media/chris/experiments/cd1a-new-docking/inputs/ligands/4x6e_ligand.pdb


 37 36  0  0  0  0  0  0  0  0999 V2000
  -40.7652   56.7317   64.0689 O   0  0  0  0  0  0  0  0  0  0  0  0
  -40.7440   57.6824   64.8109 C   0  0  0  0  0  0  0  0  0  0  0  0
  -41.9440   58.3050   65.4561 C   0  0  0  0  0  0  0  0  0  0  0  0
  -42.9810   57.2827   65.9057 C   0  0  0  0  0  0  0  0  0  0  0  0
  -44.4148   57.6600   65.5751 C   0  0  0  0  0  0  0  0  0  0  0  0
  -45.4128   57.2296   66.6356 C   0  0  0  0  0  0  0  0  0  0  0  0
  -46.8457   57.5877   66.2803 C   0  0  0  0  0  0  0  0  0  0  0  0
  -46.9287   58.8304   65.4221 C   0  0  0  0  0  0  0  0  0  0  0  0
  -48.1604   59.6816   65.6549 C   0  0  0  0  0  0  0  0  0  0  0  0
  -49.4281   58.9168   65.6710 C   0  0  0  0  0  0  0  0  0  0  0  0
  -50.4584   59.1061   64.8726 C   0  0  0  0  0  0  0  0  0  0  0  0
  -50.5667   60.0939   63.7569 C   0  0  0  0  0  0  0  0  0  0  0  0
  -51.1091   59.4116   62.5000 C   0  0  0  0  0  0  0  0  0  0  0  0
  -50.4386   58.0964   62.1311 C   0  0  0  0  0  0  0  0  0  0  0  0
  -50.8165   57.5424   60.7626 C   0  0  0  0  0  0  0  0  0  0  0  0
  -49.6869   56.7758   60.0826 C   0  0  0  0  0  0  0  0  0  0  0  0
  -49.0354   57.5339   58.9368 C   0  0  0  0  0  0  0  0  0  0  0  0
  -48.4318   56.6670   57.8420 C   0  0  0  0  0  0  0  0  0  0  0  0
  -47.4340   57.4044   57.0029 C   0  0  0  0  0  0  0  0  0  0  0  0
  -39.6305   58.3212   65.1818 O   0  0  0  0  0  0  0  0  0  0  0  0
  -39.7053   59.7513   65.3717 C   0  0  0  0  0  0  0  0  0  0  0  0
  -38.5873   60.4708   64.6474 C   0  0  0  0  0  0  0  0  0  0  0  0
  -39.1052   61.4960   63.7889 O   0  0  0  0  0  0  0  0  0  0  0  0
  -39.5576   62.1673   64.3233 H   0  0  0  0  0  0  0  0  0  0  0  0
  -37.5751   61.0719   65.5943 C   0  0  0  0  0  0  0  0  0  0  0  0
  -37.1268   62.3744   65.1471 O   0  0  0  0  0  0  0  0  0  0  0  0
  -36.1452   62.8308   63.9621 P   0  0  0  0  0  0  0  0  0  0  0  0
  -36.9829   63.0389   62.7015 O   0  0  0  0  0  0  0  0  0  0  0  0
  -35.1733   61.7450   63.7074 O   0  0  0  0  0  0  0  0  0  0  0  0
  -35.6501   60.9273   63.4955 H   0  0  0  0  0  0  0  0  0  0  0  0
  -35.3763   64.2385   64.3260 O   0  0  0  0  0  0  0  0  0  0  0  0
  -34.2764   64.8269   63.5798 C   0  0  0  0  0  0  0  0  0  0  0  0
  -33.5220   65.8043   64.4469 C   0  0  0  0  0  0  0  0  0  0  0  0
  -32.1118   65.4087   64.8438 N   0  0  0  0  0  0  0  0  0  0  0  0
  -31.1238   65.9180   63.8440 C   0  0  0  0  0  0  0  0  0  0  0  0
  -32.0296   63.9183   64.8916 C   0  0  0  0  0  0  0  0  0  0  0  0
  -31.7680   65.9695   66.1943 C   0  0  0  0  0  0  0  0  0  0  0  0
 34 33  1  0  0  0
 34 35  1  0  0  0
 34 36  1  0  0  0
 34 37  1  0  0  0
 22 23  1  0  0  0
 22 25  1  0  0  0
 22 21  1  0  0  0
 23 24  1  0  0  0
 27 26  1  0  0  0
 27 28  2  0  0  0
 27 31  1  0  0  0
 27 29  1  0  0  0
 25 26  1  0  0  0
 32 33  1  0  0  0
 32 31  1  0  0  0
 29 30  1  0  0  0
 20 21  1  0  0  0
 20  2  1  0  0  0
  1  2  2  0  0  0
  2  3  1  0  0  0
  3  4  1  0  0  0
  4  5  1  0  0  0
  5  6  1  0  0  0
  6  7  1  0  0  0
  7  8  1  0  0  0
  8  9  1  0  0  0
  9 10  1  0  0  0
 10 11  2  0  0  0
 11 12  1  0  0  0
 12 13  1  0  0  0
 13 14  1  0  0  0
 14 15  1  0  0  0
 15 16  1  0  0  0
 16 17  1  0  0  0
 17 18  1  0  0  0
 18 19  1  0  0  0
M  CHG 1  28  -1
M  END
> <minimizedAffinity>
-7.78170

> <CNNscore>
0.7336482406

> <CNNaffinity>
6.3005414009

> <CNN_VS>
4.6223812103

> <CNNaffinity_variance>
0.5667660236

$$$$
/media/chris/experiments/cd1a-new-docking/inputs/ligands/4x6e_ligand.pdb


 37 36  0  0  0  0  0  0  0  0999 V2000
  -41.3902   61.3361   64.1499 O   0  0  0  0  0  0  0  0  0  0  0  0
  -41.4935   60.1646   63.8820 C   0  0  0  0  0  0  0  0  0  0  0  0
  -42.7849   59.4210   63.7298 C   0  0  0  0  0  0  0  0  0  0  0  0
  -43.8676   59.8972   64.6908 C   0  0  0  0  0  0  0  0  0  0  0  0
  -45.1274   60.4054   64.0110 C   0  0  0  0  0  0  0  0  0  0  0  0
  -46.3829   59.6619   64.4315 C   0  0  0  0  0  0  0  0  0  0  0  0
  -46.8514   60.0336   65.8279 C   0  0  0  0  0  0  0  0  0  0  0  0
  -47.6838   58.9414   66.4616 C   0  0  0  0  0  0  0  0  0  0  0  0
  -48.4546   58.0809   65.4812 C   0  0  0  0  0  0  0  0  0  0  0  0
  -49.8619   58.4988   65.2884 C   0  0  0  0  0  0  0  0  0  0  0  0
  -50.4581   58.7062   64.1324 C   0  0  0  0  0  0  0  0  0  0  0  0
  -49.8717   58.5298   62.7695 C   0  0  0  0  0  0  0  0  0  0  0  0
  -50.9764   58.2265   61.7560 C   0  0  0  0  0  0  0  0  0  0  0  0
  -50.5115   57.5843   60.4573 C   0  0  0  0  0  0  0  0  0  0  0  0
  -49.5556   56.4094   60.6257 C   0  0  0  0  0  0  0  0  0  0  0  0
  -48.4579   56.3606   59.5679 C   0  0  0  0  0  0  0  0  0  0  0  0
  -48.7060   57.2831   58.3851 C   0  0  0  0  0  0  0  0  0  0  0  0
  -47.6884   57.1858   57.2584 C   0  0  0  0  0  0  0  0  0  0  0  0
  -47.1868   55.7900   57.0494 C   0  0  0  0  0  0  0  0  0  0  0  0
  -40.4571   59.3491   63.6663 O   0  0  0  0  0  0  0  0  0  0  0  0
  -39.1382   59.8311   64.0049 C   0  0  0  0  0  0  0  0  0  0  0  0
  -38.7619   59.4779   65.4282 C   0  0  0  0  0  0  0  0  0  0  0  0
  -38.0860   58.2145   65.4844 O   0  0  0  0  0  0  0  0  0  0  0  0
  -37.2532   58.2710   64.9903 H   0  0  0  0  0  0  0  0  0  0  0  0
  -37.9042   60.5363   66.0813 C   0  0  0  0  0  0  0  0  0  0  0  0
  -37.7845   61.7185   65.2533 O   0  0  0  0  0  0  0  0  0  0  0  0
  -36.6218   62.8136   65.0956 P   0  0  0  0  0  0  0  0  0  0  0  0
  -36.8565   63.9118   66.1314 O   0  0  0  0  0  0  0  0  0  0  0  0
  -36.7146   63.4121   63.7459 O   0  0  0  0  0  0  0  0  0  0  0  0
  -37.5979   63.7930   63.6212 H   0  0  0  0  0  0  0  0  0  0  0  0
  -35.1362   62.1549   65.3489 O   0  0  0  0  0  0  0  0  0  0  0  0
  -33.9430   62.8754   65.7613 C   0  0  0  0  0  0  0  0  0  0  0  0
  -33.0666   63.1599   64.5666 C   0  0  0  0  0  0  0  0  0  0  0  0
  -32.5252   64.5723   64.4452 N   0  0  0  0  0  0  0  0  0  0  0  0
  -31.6167   64.6853   63.2632 C   0  0  0  0  0  0  0  0  0  0  0  0
  -31.7544   64.8962   65.6827 C   0  0  0  0  0  0  0  0  0  0  0  0
  -33.6499   65.5556   64.2880 C   0  0  0  0  0  0  0  0  0  0  0  0
 34 33  1  0  0  0
 34 35  1  0  0  0
 34 36  1  0  0  0
 34 37  1  0  0  0
 22 23  1  0  0  0
 22 25  1  0  0  0
 22 21  1  0  0  0
 23 24  1  0  0  0
 27 26  1  0  0  0
 27 28  2  0  0  0
 27 31  1  0  0  0
 27 29  1  0  0  0
 25 26  1  0  0  0
 32 33  1  0  0  0
 32 31  1  0  0  0
 29 30  1  0  0  0
 20 21  1  0  0  0
 20  2  1  0  0  0
  1  2  2  0  0  0
  2  3  1  0  0  0
  3  4  1  0  0  0
  4  5  1  0  0  0
  5  6  1  0  0  0
  6  7  1  0  0  0
  7  8  1  0  0  0
  8  9  1  0  0  0
  9 10  1  0  0  0
 10 11  2  0  0  0
 11 12  1  0  0  0
 12 13  1  0  0  0
 13 14  1  0  0  0
 14 15  1  0  0  0
 15 16  1  0  0  0
 16 17  1  0  0  0
 17 18  1  0  0  0
 18 19  1  0  0  0
M  CHG 1  28  -1
M  END
> <minimizedAffinity>
-8.05283

> <CNNscore>
0.7279485464

> <CNNaffinity>
6.2847609520

> <CNN_VS>
4.5749826431

> <CNNaffinity_variance>
0.4682453275

$$$$
/media/chris/experiments/cd1a-new-docking/inputs/ligands/4x6e_ligand.pdb


 37 36  0  0  0  0  0  0  0  0999 V2000
  -41.9102   55.6849   64.8944 O   0  0  0  0  0  0  0  0  0  0  0  0
  -42.1740   56.8473   64.7097 C   0  0  0  0  0  0  0  0  0  0  0  0
  -43.5352   57.4585   64.8416 C   0  0  0  0  0  0  0  0  0  0  0  0
  -44.1192   57.3246   66.2428 C   0  0  0  0  0  0  0  0  0  0  0  0
  -45.6280   57.4882   66.3094 C   0  0  0  0  0  0  0  0  0  0  0  0
  -46.0684   58.7354   67.0553 C   0  0  0  0  0  0  0  0  0  0  0  0
  -46.6423   59.8020   66.1383 C   0  0  0  0  0  0  0  0  0  0  0  0
  -48.1293   59.9900   66.3402 C   0  0  0  0  0  0  0  0  0  0  0  0
  -48.9879   58.8475   65.8368 C   0  0  0  0  0  0  0  0  0  0  0  0
  -50.3648   59.2457   65.4656 C   0  0  0  0  0  0  0  0  0  0  0  0
  -50.7245   59.8455   64.3495 C   0  0  0  0  0  0  0  0  0  0  0  0
  -49.8449   60.2190   63.2010 C   0  0  0  0  0  0  0  0  0  0  0  0
  -50.4271   59.6783   61.8941 C   0  0  0  0  0  0  0  0  0  0  0  0
  -50.9383   58.2462   61.9511 C   0  0  0  0  0  0  0  0  0  0  0  0
  -50.7252   57.4349   60.6788 C   0  0  0  0  0  0  0  0  0  0  0  0
  -49.3156   56.8676   60.5470 C   0  0  0  0  0  0  0  0  0  0  0  0
  -48.7550   56.9424   59.1356 C   0  0  0  0  0  0  0  0  0  0  0  0
  -47.6488   55.9467   58.8205 C   0  0  0  0  0  0  0  0  0  0  0  0
  -47.3227   55.8856   57.3599 C   0  0  0  0  0  0  0  0  0  0  0  0
  -41.2764   57.7762   64.3678 O   0  0  0  0  0  0  0  0  0  0  0  0
  -41.3429   58.3179   63.0303 C   0  0  0  0  0  0  0  0  0  0  0  0
  -40.0040   58.8628   62.5803 C   0  0  0  0  0  0  0  0  0  0  0  0
  -39.8365   58.7140   61.1640 O   0  0  0  0  0  0  0  0  0  0  0  0
  -40.5106   59.2367   60.7020 H   0  0  0  0  0  0  0  0  0  0  0  0
  -39.8102   60.3122   62.9600 C   0  0  0  0  0  0  0  0  0  0  0  0
  -38.8239   60.4667   64.0091 O   0  0  0  0  0  0  0  0  0  0  0  0
  -38.9008   60.2751   65.6008 P   0  0  0  0  0  0  0  0  0  0  0  0
  -38.3566   58.8888   65.9417 O   0  0  0  0  0  0  0  0  0  0  0  0
  -40.3186   60.3397   66.0178 O   0  0  0  0  0  0  0  0  0  0  0  0
  -40.8269   59.6649   65.5412 H   0  0  0  0  0  0  0  0  0  0  0  0
  -38.0015   61.4056   66.3872 O   0  0  0  0  0  0  0  0  0  0  0  0
  -36.6057   61.7167   66.1272 C   0  0  0  0  0  0  0  0  0  0  0  0
  -36.4608   63.1618   65.7187 C   0  0  0  0  0  0  0  0  0  0  0  0
  -35.6272   63.4350   64.4805 N   0  0  0  0  0  0  0  0  0  0  0  0
  -36.4879   63.9541   63.3736 C   0  0  0  0  0  0  0  0  0  0  0  0
  -34.9907   62.1572   64.0419 C   0  0  0  0  0  0  0  0  0  0  0  0
  -34.5577   64.4469   64.7784 C   0  0  0  0  0  0  0  0  0  0  0  0
 34 33  1  0  0  0
 34 35  1  0  0  0
 34 36  1  0  0  0
 34 37  1  0  0  0
 22 23  1  0  0  0
 22 25  1  0  0  0
 22 21  1  0  0  0
 23 24  1  0  0  0
 27 26  1  0  0  0
 27 28  2  0  0  0
 27 31  1  0  0  0
 27 29  1  0  0  0
 25 26  1  0  0  0
 32 33  1  0  0  0
 32 31  1  0  0  0
 29 30  1  0  0  0
 20 21  1  0  0  0
 20  2  1  0  0  0
  1  2  2  0  0  0
  2  3  1  0  0  0
  3  4  1  0  0  0
  4  5  1  0  0  0
  5  6  1  0  0  0
  6  7  1  0  0  0
  7  8  1  0  0  0
  8  9  1  0  0  0
  9 10  1  0  0  0
 10 11  2  0  0  0
 11 12  1  0  0  0
 12 13  1  0  0  0
 13 14  1  0  0  0
 14 15  1  0  0  0
 15 16  1  0  0  0
 16 17  1  0  0  0
 17 18  1  0  0  0
 18 19  1  0  0  0
M  CHG 1  28  -1
M  END
> <minimizedAffinity>
-8.03010

> <CNNscore>
0.6869102716

> <CNNaffinity>
6.6187186241

> <CNN_VS>
4.5464658737

> <CNNaffinity_variance>
0.3728712201

$$$$
/media/chris/experiments/cd1a-new-docking/inputs/ligands/4x6e_ligand.pdb


 37 36  0  0  0  0  0  0  0  0999 V2000
  -42.5021   59.3622   61.8318 O   0  0  0  0  0  0  0  0  0  0  0  0
  -42.6430   58.9837   62.9683 C   0  0  0  0  0  0  0  0  0  0  0  0
  -43.9492   58.8935   63.6960 C   0  0  0  0  0  0  0  0  0  0  0  0
  -43.9593   57.8211   64.7789 C   0  0  0  0  0  0  0  0  0  0  0  0
  -44.3633   58.3250   66.1538 C   0  0  0  0  0  0  0  0  0  0  0  0
  -45.7053   57.7912   66.6228 C   0  0  0  0  0  0  0  0  0  0  0  0
  -46.6682   58.8910   67.0361 C   0  0  0  0  0  0  0  0  0  0  0  0
  -46.7894   59.9704   65.9838 C   0  0  0  0  0  0  0  0  0  0  0  0
  -47.9985   59.8427   65.0795 C   0  0  0  0  0  0  0  0  0  0  0  0
  -49.2480   59.4869   65.7896 C   0  0  0  0  0  0  0  0  0  0  0  0
  -50.4578   59.4687   65.2691 C   0  0  0  0  0  0  0  0  0  0  0  0
  -50.8360   59.7587   63.8530 C   0  0  0  0  0  0  0  0  0  0  0  0
  -50.7410   58.4853   63.0111 C   0  0  0  0  0  0  0  0  0  0  0  0
  -49.8466   58.5801   61.7838 C   0  0  0  0  0  0  0  0  0  0  0  0
  -50.1552   57.5730   60.6824 C   0  0  0  0  0  0  0  0  0  0  0  0
  -49.5094   57.9167   59.3442 C   0  0  0  0  0  0  0  0  0  0  0  0
  -48.5833   56.8331   58.8150 C   0  0  0  0  0  0  0  0  0  0  0  0
  -47.9104   57.1431   57.4862 C   0  0  0  0  0  0  0  0  0  0  0  0
  -47.0629   56.0130   56.9882 C   0  0  0  0  0  0  0  0  0  0  0  0
  -41.6425   58.5716   63.7524 O   0  0  0  0  0  0  0  0  0  0  0  0
  -40.2942   58.9073   63.3573 C   0  0  0  0  0  0  0  0  0  0  0  0
  -39.8736   60.2584   63.8958 C   0  0  0  0  0  0  0  0  0  0  0  0
  -39.5312   60.1754   65.2858 O   0  0  0  0  0  0  0  0  0  0  0  0
  -38.7658   59.5897   65.3959 H   0  0  0  0  0  0  0  0  0  0  0  0
  -38.7171   60.8545   63.1280 C   0  0  0  0  0  0  0  0  0  0  0  0
  -38.2767   62.1076   63.7052 O   0  0  0  0  0  0  0  0  0  0  0  0
  -36.9100   62.9382   63.5694 P   0  0  0  0  0  0  0  0  0  0  0  0
  -36.8081   63.8880   64.7617 O   0  0  0  0  0  0  0  0  0  0  0  0
  -36.9661   63.7434   62.3297 O   0  0  0  0  0  0  0  0  0  0  0  0
  -37.7459   64.3198   62.3536 H   0  0  0  0  0  0  0  0  0  0  0  0
  -35.5993   61.9446   63.5697 O   0  0  0  0  0  0  0  0  0  0  0  0
  -35.5004   60.6638   64.2498 C   0  0  0  0  0  0  0  0  0  0  0  0
  -34.2162   59.9692   63.8694 C   0  0  0  0  0  0  0  0  0  0  0  0
  -34.2906   58.4656   63.6786 N   0  0  0  0  0  0  0  0  0  0  0  0
  -34.1021   57.7619   64.9841 C   0  0  0  0  0  0  0  0  0  0  0  0
  -33.2051   58.0489   62.7414 C   0  0  0  0  0  0  0  0  0  0  0  0
  -35.6219   58.0731   63.1040 C   0  0  0  0  0  0  0  0  0  0  0  0
 34 33  1  0  0  0
 34 35  1  0  0  0
 34 36  1  0  0  0
 34 37  1  0  0  0
 22 23  1  0  0  0
 22 25  1  0  0  0
 22 21  1  0  0  0
 23 24  1  0  0  0
 27 26  1  0  0  0
 27 28  2  0  0  0
 27 31  1  0  0  0
 27 29  1  0  0  0
 25 26  1  0  0  0
 32 33  1  0  0  0
 32 31  1  0  0  0
 29 30  1  0  0  0
 20 21  1  0  0  0
 20  2  1  0  0  0
  1  2  2  0  0  0
  2  3  1  0  0  0
  3  4  1  0  0  0
  4  5  1  0  0  0
  5  6  1  0  0  0
  6  7  1  0  0  0
  7  8  1  0  0  0
  8  9  1  0  0  0
  9 10  1  0  0  0
 10 11  2  0  0  0
 11 12  1  0  0  0
 12 13  1  0  0  0
 13 14  1  0  0  0
 14 15  1  0  0  0
 15 16  1  0  0  0
 16 17  1  0  0  0
 17 18  1  0  0  0
 18 19  1  0  0  0
M  CHG 1  28  -1
M  END
> <minimizedAffinity>
-7.62016

> <CNNscore>
0.6634312272

> <CNNaffinity>
6.6682024002

> <CNN_VS>
4.4238939285

> <CNNaffinity_variance>
0.2068997920

$$$$
/media/chris/experiments/cd1a-new-docking/inputs/ligands/4x6e_ligand.pdb


 37 36  0  0  0  0  0  0  0  0999 V2000
  -39.9409   60.5070   66.2479 O   0  0  0  0  0  0  0  0  0  0  0  0
  -40.9395   59.8312   66.2209 C   0  0  0  0  0  0  0  0  0  0  0  0
  -42.2738   60.2342   66.7698 C   0  0  0  0  0  0  0  0  0  0  0  0
  -43.2685   59.0814   66.8340 C   0  0  0  0  0  0  0  0  0  0  0  0
  -44.6236   59.3902   66.2208 C   0  0  0  0  0  0  0  0  0  0  0  0
  -45.7722   58.6604   66.8945 C   0  0  0  0  0  0  0  0  0  0  0  0
  -46.0979   57.3315   66.2345 C   0  0  0  0  0  0  0  0  0  0  0  0
  -47.5872   57.0788   66.1617 C   0  0  0  0  0  0  0  0  0  0  0  0
  -48.3289   57.9388   65.1585 C   0  0  0  0  0  0  0  0  0  0  0  0
  -49.6737   58.3655   65.6074 C   0  0  0  0  0  0  0  0  0  0  0  0
  -50.5405   59.0648   64.9042 C   0  0  0  0  0  0  0  0  0  0  0  0
  -50.3843   59.5453   63.4981 C   0  0  0  0  0  0  0  0  0  0  0  0
  -50.8646   58.4731   62.5186 C   0  0  0  0  0  0  0  0  0  0  0  0
  -49.7912   57.8921   61.6100 C   0  0  0  0  0  0  0  0  0  0  0  0
  -49.7204   58.5110   60.2192 C   0  0  0  0  0  0  0  0  0  0  0  0
  -49.5342   57.4862   59.1050 C   0  0  0  0  0  0  0  0  0  0  0  0
  -48.5159   56.4053   59.4314 C   0  0  0  0  0  0  0  0  0  0  0  0
  -47.5009   56.1144   58.3361 C   0  0  0  0  0  0  0  0  0  0  0  0
  -47.6378   57.0323   57.1604 C   0  0  0  0  0  0  0  0  0  0  0  0
  -41.0069   58.6117   65.6788 O   0  0  0  0  0  0  0  0  0  0  0  0
  -39.7809   58.0201   65.1955 C   0  0  0  0  0  0  0  0  0  0  0  0
  -39.9151   57.5462   63.7638 C   0  0  0  0  0  0  0  0  0  0  0  0
  -41.1293   58.0285   63.1728 O   0  0  0  0  0  0  0  0  0  0  0  0
  -41.1085   58.9976   63.1364 H   0  0  0  0  0  0  0  0  0  0  0  0
  -38.7412   57.9547   62.9050 C   0  0  0  0  0  0  0  0  0  0  0  0
  -38.2573   59.2759   63.2479 O   0  0  0  0  0  0  0  0  0  0  0  0
  -38.6532   60.7407   62.7248 P   0  0  0  0  0  0  0  0  0  0  0  0
  -40.1745   60.8088   62.6018 O   0  0  0  0  0  0  0  0  0  0  0  0
  -38.0632   60.9401   61.3830 O   0  0  0  0  0  0  0  0  0  0  0  0
  -38.3725   60.2406   60.7866 H   0  0  0  0  0  0  0  0  0  0  0  0
  -38.1532   61.9085   63.7696 O   0  0  0  0  0  0  0  0  0  0  0  0
  -37.0947   62.8744   63.5258 C   0  0  0  0  0  0  0  0  0  0  0  0
  -36.2763   63.0780   64.7768 C   0  0  0  0  0  0  0  0  0  0  0  0
  -34.7769   63.2174   64.5895 N   0  0  0  0  0  0  0  0  0  0  0  0
  -34.1178   63.5703   65.8842 C   0  0  0  0  0  0  0  0  0  0  0  0
  -34.5183   64.3061   63.6005 C   0  0  0  0  0  0  0  0  0  0  0  0
  -34.1882   61.9326   64.0803 C   0  0  0  0  0  0  0  0  0  0  0  0
 34 33  1  0  0  0
 34 35  1  0  0  0
 34 36  1  0  0  0
 34 37  1  0  0  0
 22 23  1  0  0  0
 22 25  1  0  0  0
 22 21  1  0  0  0
 23 24  1  0  0  0
 27 26  1  0  0  0
 27 28  2  0  0  0
 27 31  1  0  0  0
 27 29  1  0  0  0
 25 26  1  0  0  0
 32 33  1  0  0  0
 32 31  1  0  0  0
 29 30  1  0  0  0
 20 21  1  0  0  0
 20  2  1  0  0  0
  1  2  2  0  0  0
  2  3  1  0  0  0
  3  4  1  0  0  0
  4  5  1  0  0  0
  5  6  1  0  0  0
  6  7  1  0  0  0
  7  8  1  0  0  0
  8  9  1  0  0  0
  9 10  1  0  0  0
 10 11  2  0  0  0
 11 12  1  0  0  0
 12 13  1  0  0  0
 13 14  1  0  0  0
 14 15  1  0  0  0
 15 16  1  0  0  0
 16 17  1  0  0  0
 17 18  1  0  0  0
 18 19  1  0  0  0
M  CHG 1  28  -1
M  END
> <minimizedAffinity>
-8.04416

> <CNNscore>
0.6615832448

> <CNNaffinity>
6.5624923706

> <CNN_VS>
4.3416352272

> <CNNaffinity_variance>
0.2952858210

$$$$
/media/chris/experiments/cd1a-new-docking/inputs/ligands/4x6e_ligand.pdb


 37 36  0  0  0  0  0  0  0  0999 V2000
  -40.4479   58.7128   65.6307 O   0  0  0  0  0  0  0  0  0  0  0  0
  -40.6373   59.8388   66.0191 C   0  0  0  0  0  0  0  0  0  0  0  0
  -41.9667   60.4094   66.4076 C   0  0  0  0  0  0  0  0  0  0  0  0
  -42.8927   59.3857   67.0536 C   0  0  0  0  0  0  0  0  0  0  0  0
  -44.2038   59.1756   66.3159 C   0  0  0  0  0  0  0  0  0  0  0  0
  -44.2013   59.7402   64.9062 C   0  0  0  0  0  0  0  0  0  0  0  0
  -45.5306   60.3629   64.5154 C   0  0  0  0  0  0  0  0  0  0  0  0
  -46.5705   59.3208   64.1690 C   0  0  0  0  0  0  0  0  0  0  0  0
  -47.9965   59.8322   64.1394 C   0  0  0  0  0  0  0  0  0  0  0  0
  -48.9615   58.9706   64.8597 C   0  0  0  0  0  0  0  0  0  0  0  0
  -50.1935   58.7004   64.4804 C   0  0  0  0  0  0  0  0  0  0  0  0
  -50.8762   59.1612   63.2338 C   0  0  0  0  0  0  0  0  0  0  0  0
  -50.7033   58.1229   62.1241 C   0  0  0  0  0  0  0  0  0  0  0  0
  -49.7898   58.5372   60.9799 C   0  0  0  0  0  0  0  0  0  0  0  0
  -50.2182   58.0447   59.6028 C   0  0  0  0  0  0  0  0  0  0  0  0
  -49.0689   57.4837   58.7718 C   0  0  0  0  0  0  0  0  0  0  0  0
  -48.4569   56.2173   59.3493 C   0  0  0  0  0  0  0  0  0  0  0  0
  -47.1288   55.7979   58.7372 C   0  0  0  0  0  0  0  0  0  0  0  0
  -47.1591   55.7851   57.2397 C   0  0  0  0  0  0  0  0  0  0  0  0
  -39.6742   60.7521   66.1743 O   0  0  0  0  0  0  0  0  0  0  0  0
  -38.3451   60.2830   66.4907 C   0  0  0  0  0  0  0  0  0  0  0  0
  -37.2818   61.2426   66.0000 C   0  0  0  0  0  0  0  0  0  0  0  0
  -36.4542   61.6919   67.0816 O   0  0  0  0  0  0  0  0  0  0  0  0
  -35.9813   60.9356   67.4626 H   0  0  0  0  0  0  0  0  0  0  0  0
  -36.4139   60.6433   64.9184 C   0  0  0  0  0  0  0  0  0  0  0  0
  -37.1795   60.3163   63.7334 O   0  0  0  0  0  0  0  0  0  0  0  0
  -38.0931   61.2053   62.7581 P   0  0  0  0  0  0  0  0  0  0  0  0
  -37.3452   62.5024   62.4542 O   0  0  0  0  0  0  0  0  0  0  0  0
  -39.3503   61.5407   63.4619 O   0  0  0  0  0  0  0  0  0  0  0  0
  -39.1440   61.9989   64.2916 H   0  0  0  0  0  0  0  0  0  0  0  0
  -38.3984   60.4253   61.3426 O   0  0  0  0  0  0  0  0  0  0  0  0
  -38.1217   59.0259   61.0633 C   0  0  0  0  0  0  0  0  0  0  0  0
  -39.3408   58.3609   60.4736 C   0  0  0  0  0  0  0  0  0  0  0  0
  -40.3437   57.7899   61.4589 N   0  0  0  0  0  0  0  0  0  0  0  0
  -39.6392   57.1081   62.5876 C   0  0  0  0  0  0  0  0  0  0  0  0
  -41.1980   56.7930   60.7470 C   0  0  0  0  0  0  0  0  0  0  0  0
  -41.2125   58.8806   62.0177 C   0  0  0  0  0  0  0  0  0  0  0  0
 34 33  1  0  0  0
 34 35  1  0  0  0
 34 36  1  0  0  0
 34 37  1  0  0  0
 22 23  1  0  0  0
 22 25  1  0  0  0
 22 21  1  0  0  0
 23 24  1  0  0  0
 27 26  1  0  0  0
 27 28  2  0  0  0
 27 31  1  0  0  0
 27 29  1  0  0  0
 25 26  1  0  0  0
 32 33  1  0  0  0
 32 31  1  0  0  0
 29 30  1  0  0  0
 20 21  1  0  0  0
 20  2  1  0  0  0
  1  2  2  0  0  0
  2  3  1  0  0  0
  3  4  1  0  0  0
  4  5  1  0  0  0
  5  6  1  0  0  0
  6  7  1  0  0  0
  7  8  1  0  0  0
  8  9  1  0  0  0
  9 10  1  0  0  0
 10 11  2  0  0  0
 11 12  1  0  0  0
 12 13  1  0  0  0
 13 14  1  0  0  0
 14 15  1  0  0  0
 15 16  1  0  0  0
 16 17  1  0  0  0
 17 18  1  0  0  0
 18 19  1  0  0  0
M  CHG 1  28  -1
M  END
> <minimizedAffinity>
-8.23340

> <CNNscore>
0.6557966471

> <CNNaffinity>
6.8329339027

> <CNN_VS>
4.4810152054

> <CNNaffinity_variance>
0.0648724139

$$$$
/media/chris/experiments/cd1a-new-docking/inputs/ligands/4x6e_ligand.pdb


 37 36  0  0  0  0  0  0  0  0999 V2000
  -41.5008   59.8960   66.1135 O   0  0  0  0  0  0  0  0  0  0  0  0
  -41.1194   58.8319   65.6928 C   0  0  0  0  0  0  0  0  0  0  0  0
  -42.0043   57.7136   65.2344 C   0  0  0  0  0  0  0  0  0  0  0  0
  -42.8342   57.1064   66.3592 C   0  0  0  0  0  0  0  0  0  0  0  0
  -44.3299   57.3370   66.2271 C   0  0  0  0  0  0  0  0  0  0  0  0
  -44.6815   58.5828   65.4332 C   0  0  0  0  0  0  0  0  0  0  0  0
  -46.0073   59.1960   65.8501 C   0  0  0  0  0  0  0  0  0  0  0  0
  -46.4132   60.3446   64.9538 C   0  0  0  0  0  0  0  0  0  0  0  0
  -47.6803   60.1106   64.1565 C   0  0  0  0  0  0  0  0  0  0  0  0
  -48.6310   59.1728   64.7961 C   0  0  0  0  0  0  0  0  0  0  0  0
  -49.9214   59.0861   64.5465 C   0  0  0  0  0  0  0  0  0  0  0  0
  -50.7026   59.8740   63.5458 C   0  0  0  0  0  0  0  0  0  0  0  0
  -50.3835   59.3912   62.1300 C   0  0  0  0  0  0  0  0  0  0  0  0
  -50.5063   57.8907   61.9095 C   0  0  0  0  0  0  0  0  0  0  0  0
  -50.8762   57.4763   60.4905 C   0  0  0  0  0  0  0  0  0  0  0  0
  -49.9537   58.0599   59.4253 C   0  0  0  0  0  0  0  0  0  0  0  0
  -48.7690   57.1691   59.0865 C   0  0  0  0  0  0  0  0  0  0  0  0
  -48.4848   56.9999   57.6016 C   0  0  0  0  0  0  0  0  0  0  0  0
  -47.0714   56.5885   57.3251 C   0  0  0  0  0  0  0  0  0  0  0  0
  -39.8334   58.4939   65.5599 O   0  0  0  0  0  0  0  0  0  0  0  0
  -39.4732   57.6326   64.4576 C   0  0  0  0  0  0  0  0  0  0  0  0
  -37.9728   57.5680   64.2655 C   0  0  0  0  0  0  0  0  0  0  0  0
  -37.6304   57.5788   62.8730 O   0  0  0  0  0  0  0  0  0  0  0  0
  -37.9185   58.4156   62.4758 H   0  0  0  0  0  0  0  0  0  0  0  0
  -37.2488   58.6913   64.9699 C   0  0  0  0  0  0  0  0  0  0  0  0
  -37.0649   59.8387   64.1057 O   0  0  0  0  0  0  0  0  0  0  0  0
  -37.8572   61.2281   63.9715 P   0  0  0  0  0  0  0  0  0  0  0  0
  -37.0545   62.1489   63.0539 O   0  0  0  0  0  0  0  0  0  0  0  0
  -37.9438   61.8551   65.3085 O   0  0  0  0  0  0  0  0  0  0  0  0
  -37.0509   61.9742   65.6682 H   0  0  0  0  0  0  0  0  0  0  0  0
  -39.3532   61.0078   63.3243 O   0  0  0  0  0  0  0  0  0  0  0  0
  -39.6402   60.6152   61.9545 C   0  0  0  0  0  0  0  0  0  0  0  0
  -40.4508   59.3428   61.9357 C   0  0  0  0  0  0  0  0  0  0  0  0
  -41.8383   59.4330   61.3279 N   0  0  0  0  0  0  0  0  0  0  0  0
  -42.2056   58.1431   60.6673 C   0  0  0  0  0  0  0  0  0  0  0  0
  -41.8414   60.5206   60.3044 C   0  0  0  0  0  0  0  0  0  0  0  0
  -42.8578   59.7432   62.3866 C   0  0  0  0  0  0  0  0  0  0  0  0
 34 33  1  0  0  0
 34 35  1  0  0  0
 34 36  1  0  0  0
 34 37  1  0  0  0
 22 23  1  0  0  0
 22 25  1  0  0  0
 22 21  1  0  0  0
 23 24  1  0  0  0
 27 26  1  0  0  0
 27 28  2  0  0  0
 27 31  1  0  0  0
 27 29  1  0  0  0
 25 26  1  0  0  0
 32 33  1  0  0  0
 32 31  1  0  0  0
 29 30  1  0  0  0
 20 21  1  0  0  0
 20  2  1  0  0  0
  1  2  2  0  0  0
  2  3  1  0  0  0
  3  4  1  0  0  0
  4  5  1  0  0  0
  5  6  1  0  0  0
  6  7  1  0  0  0
  7  8  1  0  0  0
  8  9  1  0  0  0
  9 10  1  0  0  0
 10 11  2  0  0  0
 11 12  1  0  0  0
 12 13  1  0  0  0
 13 14  1  0  0  0
 14 15  1  0  0  0
 15 16  1  0  0  0
 16 17  1  0  0  0
 17 18  1  0  0  0
 18 19  1  0  0  0
M  CHG 1  28  -1
M  END
> <minimizedAffinity>
-7.40904

> <CNNscore>
0.6252809763

> <CNNaffinity>
7.0417137146

> <CNN_VS>
4.4030494690

> <CNNaffinity_variance>
0.1483196318

$$$$
