/media/chris/experiments/cd1a-new-docking/inputs/ligands/4x6e_ligand.pdb


 37 36  0  0  0  0  0  0  0  0999 V2000
  -41.3696   61.0648   66.4983 O   0  0  0  0  0  0  0  0  0  0  0  0
  -41.7662   60.0242   66.0354 C   0  0  0  0  0  0  0  0  0  0  0  0
  -42.8313   59.1588   66.6357 C   0  0  0  0  0  0  0  0  0  0  0  0
  -44.2422   59.6028   66.2683 C   0  0  0  0  0  0  0  0  0  0  0  0
  -45.3443   58.8071   66.9463 C   0  0  0  0  0  0  0  0  0  0  0  0
  -45.9010   57.6886   66.0831 C   0  0  0  0  0  0  0  0  0  0  0  0
  -47.0791   58.1287   65.2311 C   0  0  0  0  0  0  0  0  0  0  0  0
  -48.3778   58.1267   66.0063 C   0  0  0  0  0  0  0  0  0  0  0  0
  -49.0538   59.4783   66.1160 C   0  0  0  0  0  0  0  0  0  0  0  0
  -50.4504   59.4961   65.6246 C   0  0  0  0  0  0  0  0  0  0  0  0
  -50.8435   59.8454   64.4171 C   0  0  0  0  0  0  0  0  0  0  0  0
  -49.9792   60.2584   63.2703 C   0  0  0  0  0  0  0  0  0  0  0  0
  -50.4316   59.5546   61.9898 C   0  0  0  0  0  0  0  0  0  0  0  0
  -50.0995   58.0718   61.9086 C   0  0  0  0  0  0  0  0  0  0  0  0
  -50.5163   57.3885   60.6119 C   0  0  0  0  0  0  0  0  0  0  0  0
  -49.3554   56.7418   59.8635 C   0  0  0  0  0  0  0  0  0  0  0  0
  -48.9706   57.4684   58.5846 C   0  0  0  0  0  0  0  0  0  0  0  0
  -47.8717   56.8080   57.7655 C   0  0  0  0  0  0  0  0  0  0  0  0
  -47.0787   55.8127   58.5555 C   0  0  0  0  0  0  0  0  0  0  0  0
  -41.3168   59.4887   64.8965 O   0  0  0  0  0  0  0  0  0  0  0  0
  -41.4599   60.2626   63.6852 C   0  0  0  0  0  0  0  0  0  0  0  0
  -42.5830   59.7379   62.8157 C   0  0  0  0  0  0  0  0  0  0  0  0
  -43.7410   60.5789   62.9066 O   0  0  0  0  0  0  0  0  0  0  0  0
  -43.5264   61.4623   62.5681 H   0  0  0  0  0  0  0  0  0  0  0  0
  -42.1775   59.5957   61.3674 C   0  0  0  0  0  0  0  0  0  0  0  0
  -40.8020   59.1631   61.2336 O   0  0  0  0  0  0  0  0  0  0  0  0
  -40.1343   57.7092   61.1054 P   0  0  0  0  0  0  0  0  0  0  0  0
  -40.6457   57.0605   59.8202 O   0  0  0  0  0  0  0  0  0  0  0  0
  -40.5698   56.8850   62.2541 O   0  0  0  0  0  0  0  0  0  0  0  0
  -41.5388   56.8443   62.2740 H   0  0  0  0  0  0  0  0  0  0  0  0
  -38.4939   57.8042   61.0348 O   0  0  0  0  0  0  0  0  0  0  0  0
  -37.6658   58.7806   61.7234 C   0  0  0  0  0  0  0  0  0  0  0  0
  -36.5699   58.0850   62.4924 C   0  0  0  0  0  0  0  0  0  0  0  0
  -36.4945   58.3788   63.9792 N   0  0  0  0  0  0  0  0  0  0  0  0
  -36.0138   57.1767   64.7269 C   0  0  0  0  0  0  0  0  0  0  0  0
  -37.8604   58.7382   64.4646 C   0  0  0  0  0  0  0  0  0  0  0  0
  -35.5560   59.5215   64.2434 C   0  0  0  0  0  0  0  0  0  0  0  0
 34 33  1  0  0  0
 34 35  1  0  0  0
 34 36  1  0  0  0
 34 37  1  0  0  0
 22 23  1  0  0  0
 22 25  1  0  0  0
 22 21  1  0  0  0
 23 24  1  0  0  0
 27 26  1  0  0  0
 27 28  2  0  0  0
 27 31  1  0  0  0
 27 29  1  0  0  0
 25 26  1  0  0  0
 32 33  1  0  0  0
 32 31  1  0  0  0
 29 30  1  0  0  0
 20 21  1  0  0  0
 20  2  1  0  0  0
  1  2  2  0  0  0
  2  3  1  0  0  0
  3  4  1  0  0  0
  4  5  1  0  0  0
  5  6  1  0  0  0
  6  7  1  0  0  0
  7  8  1  0  0  0
  8  9  1  0  0  0
  9 10  1  0  0  0
 10 11  2  0  0  0
 11 12  1  0  0  0
 12 13  1  0  0  0
 13 14  1  0  0  0
 14 15  1  0  0  0
 15 16  1  0  0  0
 16 17  1  0  0  0
 17 18  1  0  0  0
 18 19  1  0  0  0
M  CHG 1  28  -1
M  END
> <minimizedAffinity>
-7.66778

> <CNNscore>
0.7495235801

> <CNNaffinity>
6.9854722023

> <CNN_VS>
5.2357759476

> <CNNaffinity_variance>
0.4673320353

$$$$
/media/chris/experiments/cd1a-new-docking/inputs/ligands/4x6e_ligand.pdb


 37 36  0  0  0  0  0  0  0  0999 V2000
  -40.4649   58.6416   65.7894 O   0  0  0  0  0  0  0  0  0  0  0  0
  -40.7698   59.8023   65.9091 C   0  0  0  0  0  0  0  0  0  0  0  0
  -42.1523   60.3116   66.1799 C   0  0  0  0  0  0  0  0  0  0  0  0
  -42.9963   59.3458   67.0030 C   0  0  0  0  0  0  0  0  0  0  0  0
  -44.1224   58.6832   66.2281 C   0  0  0  0  0  0  0  0  0  0  0  0
  -45.0310   59.6717   65.5185 C   0  0  0  0  0  0  0  0  0  0  0  0
  -46.4178   59.7481   66.1335 C   0  0  0  0  0  0  0  0  0  0  0  0
  -46.8978   58.4028   66.6309 C   0  0  0  0  0  0  0  0  0  0  0  0
  -47.8595   57.6890   65.7028 C   0  0  0  0  0  0  0  0  0  0  0  0
  -49.2423   58.2167   65.7449 C   0  0  0  0  0  0  0  0  0  0  0  0
  -49.9567   58.6040   64.7085 C   0  0  0  0  0  0  0  0  0  0  0  0
  -49.5566   58.5618   63.2694 C   0  0  0  0  0  0  0  0  0  0  0  0
  -50.7783   58.2869   62.3911 C   0  0  0  0  0  0  0  0  0  0  0  0
  -50.4986   57.5210   61.1063 C   0  0  0  0  0  0  0  0  0  0  0  0
  -49.8966   58.3515   59.9794 C   0  0  0  0  0  0  0  0  0  0  0  0
  -49.2501   57.5122   58.8823 C   0  0  0  0  0  0  0  0  0  0  0  0
  -48.3534   56.4027   59.4081 C   0  0  0  0  0  0  0  0  0  0  0  0
  -47.2988   55.9003   58.4334 C   0  0  0  0  0  0  0  0  0  0  0  0
  -47.3029   56.6513   57.1374 C   0  0  0  0  0  0  0  0  0  0  0  0
  -39.9056   60.8183   65.8289 O   0  0  0  0  0  0  0  0  0  0  0  0
  -38.5071   60.5330   66.0518 C   0  0  0  0  0  0  0  0  0  0  0  0
  -37.6178   61.3398   65.1297 C   0  0  0  0  0  0  0  0  0  0  0  0
  -37.1698   62.5431   65.7684 O   0  0  0  0  0  0  0  0  0  0  0  0
  -36.6263   62.3169   66.5394 H   0  0  0  0  0  0  0  0  0  0  0  0
  -36.4227   60.5545   64.6425 C   0  0  0  0  0  0  0  0  0  0  0  0
  -36.6473   59.9939   63.3263 O   0  0  0  0  0  0  0  0  0  0  0  0
  -36.8117   58.4834   62.8090 P   0  0  0  0  0  0  0  0  0  0  0  0
  -37.8568   57.7908   63.6821 O   0  0  0  0  0  0  0  0  0  0  0  0
  -35.5197   57.7824   62.9760 O   0  0  0  0  0  0  0  0  0  0  0  0
  -35.2464   57.8251   63.9057 H   0  0  0  0  0  0  0  0  0  0  0  0
  -37.3124   58.4344   61.2432 O   0  0  0  0  0  0  0  0  0  0  0  0
  -38.4408   59.1617   60.6856 C   0  0  0  0  0  0  0  0  0  0  0  0
  -39.6906   58.3197   60.7575 C   0  0  0  0  0  0  0  0  0  0  0  0
  -40.8621   58.9105   61.5200 N   0  0  0  0  0  0  0  0  0  0  0  0
  -41.9325   59.3531   60.5748 C   0  0  0  0  0  0  0  0  0  0  0  0
  -40.3798   60.0923   62.2952 C   0  0  0  0  0  0  0  0  0  0  0  0
  -41.4395   57.8967   62.4662 C   0  0  0  0  0  0  0  0  0  0  0  0
 34 33  1  0  0  0
 34 35  1  0  0  0
 34 36  1  0  0  0
 34 37  1  0  0  0
 22 23  1  0  0  0
 22 25  1  0  0  0
 22 21  1  0  0  0
 23 24  1  0  0  0
 27 26  1  0  0  0
 27 28  2  0  0  0
 27 31  1  0  0  0
 27 29  1  0  0  0
 25 26  1  0  0  0
 32 33  1  0  0  0
 32 31  1  0  0  0
 29 30  1  0  0  0
 20 21  1  0  0  0
 20  2  1  0  0  0
  1  2  2  0  0  0
  2  3  1  0  0  0
  3  4  1  0  0  0
  4  5  1  0  0  0
  5  6  1  0  0  0
  6  7  1  0  0  0
  7  8  1  0  0  0
  8  9  1  0  0  0
  9 10  1  0  0  0
 10 11  2  0  0  0
 11 12  1  0  0  0
 12 13  1  0  0  0
 13 14  1  0  0  0
 14 15  1  0  0  0
 15 16  1  0  0  0
 16 17  1  0  0  0
 17 18  1  0  0  0
 18 19  1  0  0  0
M  CHG 1  28  -1
M  END
> <minimizedAffinity>
-8.04037

> <CNNscore>
0.7241809368

> <CNNaffinity>
7.1525025368

> <CNN_VS>
5.1797060966

> <CNNaffinity_variance>
0.2330798656

$$$$
/media/chris/experiments/cd1a-new-docking/inputs/ligands/4x6e_ligand.pdb


 37 36  0  0  0  0  0  0  0  0999 V2000
  -43.1948   57.1067   64.4414 O   0  0  0  0  0  0  0  0  0  0  0  0
  -42.6436   57.9436   65.1124 C   0  0  0  0  0  0  0  0  0  0  0  0
  -42.9257   58.2197   66.5574 C   0  0  0  0  0  0  0  0  0  0  0  0
  -43.8433   59.4177   66.7708 C   0  0  0  0  0  0  0  0  0  0  0  0
  -45.2591   59.0548   67.1844 C   0  0  0  0  0  0  0  0  0  0  0  0
  -46.3271   59.7553   66.3629 C   0  0  0  0  0  0  0  0  0  0  0  0
  -46.1183   59.6017   64.8661 C   0  0  0  0  0  0  0  0  0  0  0  0
  -47.4262   59.5538   64.1081 C   0  0  0  0  0  0  0  0  0  0  0  0
  -48.2118   58.2693   64.2779 C   0  0  0  0  0  0  0  0  0  0  0  0
  -49.4316   58.4131   65.1048 C   0  0  0  0  0  0  0  0  0  0  0  0
  -50.4533   59.2039   64.8492 C   0  0  0  0  0  0  0  0  0  0  0  0
  -50.6315   60.0939   63.6623 C   0  0  0  0  0  0  0  0  0  0  0  0
  -51.1775   59.2917   62.4799 C   0  0  0  0  0  0  0  0  0  0  0  0
  -50.2049   59.0843   61.3281 C   0  0  0  0  0  0  0  0  0  0  0  0
  -50.3088   57.7323   60.6329 C   0  0  0  0  0  0  0  0  0  0  0  0
  -49.8695   57.7626   59.1727 C   0  0  0  0  0  0  0  0  0  0  0  0
  -48.6003   56.9718   58.8985 C   0  0  0  0  0  0  0  0  0  0  0  0
  -48.1500   56.9459   57.4455 C   0  0  0  0  0  0  0  0  0  0  0  0
  -47.1799   55.8412   57.1589 C   0  0  0  0  0  0  0  0  0  0  0  0
  -41.6779   58.7506   64.6631 O   0  0  0  0  0  0  0  0  0  0  0  0
  -40.3683   58.6330   65.2614 C   0  0  0  0  0  0  0  0  0  0  0  0
  -39.5091   59.8450   64.9694 C   0  0  0  0  0  0  0  0  0  0  0  0
  -40.2749   60.8792   64.3366 O   0  0  0  0  0  0  0  0  0  0  0  0
  -40.9721   61.1805   64.9400 H   0  0  0  0  0  0  0  0  0  0  0  0
  -38.8453   60.3979   66.2087 C   0  0  0  0  0  0  0  0  0  0  0  0
  -37.4201   60.5748   66.0224 O   0  0  0  0  0  0  0  0  0  0  0  0
  -36.5131   61.8808   65.8040 P   0  0  0  0  0  0  0  0  0  0  0  0
  -36.2557   62.5171   67.1690 O   0  0  0  0  0  0  0  0  0  0  0  0
  -37.2636   62.8446   64.9696 O   0  0  0  0  0  0  0  0  0  0  0  0
  -38.1097   63.0517   65.3964 H   0  0  0  0  0  0  0  0  0  0  0  0
  -35.0687   61.5022   65.1147 O   0  0  0  0  0  0  0  0  0  0  0  0
  -34.8647   60.5651   64.0223 C   0  0  0  0  0  0  0  0  0  0  0  0
  -34.4837   59.2091   64.5629 C   0  0  0  0  0  0  0  0  0  0  0  0
  -34.8875   58.0089   63.7267 N   0  0  0  0  0  0  0  0  0  0  0  0
  -35.8454   58.4165   62.6537 C   0  0  0  0  0  0  0  0  0  0  0  0
  -35.5513   57.0092   64.6159 C   0  0  0  0  0  0  0  0  0  0  0  0
  -33.6811   57.3825   63.0875 C   0  0  0  0  0  0  0  0  0  0  0  0
 34 33  1  0  0  0
 34 35  1  0  0  0
 34 36  1  0  0  0
 34 37  1  0  0  0
 22 23  1  0  0  0
 22 25  1  0  0  0
 22 21  1  0  0  0
 23 24  1  0  0  0
 27 26  1  0  0  0
 27 28  2  0  0  0
 27 31  1  0  0  0
 27 29  1  0  0  0
 25 26  1  0  0  0
 32 33  1  0  0  0
 32 31  1  0  0  0
 29 30  1  0  0  0
 20 21  1  0  0  0
 20  2  1  0  0  0
  1  2  2  0  0  0
  2  3  1  0  0  0
  3  4  1  0  0  0
  4  5  1  0  0  0
  5  6  1  0  0  0
  6  7  1  0  0  0
  7  8  1  0  0  0
  8  9  1  0  0  0
  9 10  1  0  0  0
 10 11  2  0  0  0
 11 12  1  0  0  0
 12 13  1  0  0  0
 13 14  1  0  0  0
 14 15  1  0  0  0
 15 16  1  0  0  0
 16 17  1  0  0  0
 17 18  1  0  0  0
 18 19  1  0  0  0
M  CHG 1  28  -1
M  END
> <minimizedAffinity>
-7.79925

> <CNNscore>
0.6828380823

> <CNNaffinity>
6.5731797218

> <CNN_VS>
4.4884176254

> <CNNaffinity_variance>
0.0726372078

$$$$
/media/chris/experiments/cd1a-new-docking/inputs/ligands/4x6e_ligand.pdb


 37 36  0  0  0  0  0  0  0  0999 V2000
  -40.4084   58.7673   65.6103 O   0  0  0  0  0  0  0  0  0  0  0  0
  -40.5824   59.8970   65.9950 C   0  0  0  0  0  0  0  0  0  0  0  0
  -41.8977   60.4756   66.4180 C   0  0  0  0  0  0  0  0  0  0  0  0
  -42.7342   59.5145   67.2542 C   0  0  0  0  0  0  0  0  0  0  0  0
  -44.0815   59.1662   66.6451 C   0  0  0  0  0  0  0  0  0  0  0  0
  -44.3266   59.8286   65.3008 C   0  0  0  0  0  0  0  0  0  0  0  0
  -45.7209   59.5677   64.7576 C   0  0  0  0  0  0  0  0  0  0  0  0
  -46.7681   59.5621   65.8488 C   0  0  0  0  0  0  0  0  0  0  0  0
  -48.1231   60.0965   65.4312 C   0  0  0  0  0  0  0  0  0  0  0  0
  -49.2583   59.2245   65.8098 C   0  0  0  0  0  0  0  0  0  0  0  0
  -50.4473   59.2092   65.2435 C   0  0  0  0  0  0  0  0  0  0  0  0
  -50.9035   60.0273   64.0793 C   0  0  0  0  0  0  0  0  0  0  0  0
  -51.0263   59.1481   62.8337 C   0  0  0  0  0  0  0  0  0  0  0  0
  -49.7575   59.0107   62.0050 C   0  0  0  0  0  0  0  0  0  0  0  0
  -49.9551   59.1352   60.4992 C   0  0  0  0  0  0  0  0  0  0  0  0
  -50.2443   57.8054   59.8106 C   0  0  0  0  0  0  0  0  0  0  0  0
  -49.3835   56.6566   60.3112 C   0  0  0  0  0  0  0  0  0  0  0  0
  -48.2200   56.2732   59.4090 C   0  0  0  0  0  0  0  0  0  0  0  0
  -48.2396   56.9980   58.0984 C   0  0  0  0  0  0  0  0  0  0  0  0
  -39.6119   60.8079   66.1142 O   0  0  0  0  0  0  0  0  0  0  0  0
  -38.2759   60.3366   66.3962 C   0  0  0  0  0  0  0  0  0  0  0  0
  -37.2263   61.3377   65.9618 C   0  0  0  0  0  0  0  0  0  0  0  0
  -36.3974   61.7268   67.0654 O   0  0  0  0  0  0  0  0  0  0  0  0
  -35.9138   60.9533   67.3951 H   0  0  0  0  0  0  0  0  0  0  0  0
  -36.3582   60.8183   64.8398 C   0  0  0  0  0  0  0  0  0  0  0  0
  -37.1493   60.3101   63.7383 O   0  0  0  0  0  0  0  0  0  0  0  0
  -38.0664   61.0383   62.6407 P   0  0  0  0  0  0  0  0  0  0  0  0
  -37.5280   62.4526   62.4309 O   0  0  0  0  0  0  0  0  0  0  0  0
  -39.4467   61.1332   63.1642 O   0  0  0  0  0  0  0  0  0  0  0  0
  -39.4398   61.6071   64.0106 H   0  0  0  0  0  0  0  0  0  0  0  0
  -38.0334   60.2399   61.2032 O   0  0  0  0  0  0  0  0  0  0  0  0
  -39.1555   59.5562   60.5816 C   0  0  0  0  0  0  0  0  0  0  0  0
  -39.2086   58.1194   61.0387 C   0  0  0  0  0  0  0  0  0  0  0  0
  -40.5685   57.5918   61.4572 N   0  0  0  0  0  0  0  0  0  0  0  0
  -41.1890   56.8047   60.3480 C   0  0  0  0  0  0  0  0  0  0  0  0
  -41.4512   58.7518   61.7822 C   0  0  0  0  0  0  0  0  0  0  0  0
  -40.4416   56.7092   62.6661 C   0  0  0  0  0  0  0  0  0  0  0  0
 34 33  1  0  0  0
 34 35  1  0  0  0
 34 36  1  0  0  0
 34 37  1  0  0  0
 22 23  1  0  0  0
 22 25  1  0  0  0
 22 21  1  0  0  0
 23 24  1  0  0  0
 27 26  1  0  0  0
 27 28  2  0  0  0
 27 31  1  0  0  0
 27 29  1  0  0  0
 25 26  1  0  0  0
 32 33  1  0  0  0
 32 31  1  0  0  0
 29 30  1  0  0  0
 20 21  1  0  0  0
 20  2  1  0  0  0
  1  2  2  0  0  0
  2  3  1  0  0  0
  3  4  1  0  0  0
  4  5  1  0  0  0
  5  6  1  0  0  0
  6  7  1  0  0  0
  7  8  1  0  0  0
  8  9  1  0  0  0
  9 10  1  0  0  0
 10 11  2  0  0  0
 11 12  1  0  0  0
 12 13  1  0  0  0
 13 14  1  0  0  0
 14 15  1  0  0  0
 15 16  1  0  0  0
 16 17  1  0  0  0
 17 18  1  0  0  0
 18 19  1  0  0  0
M  CHG 1  28  -1
M  END
> <minimizedAffinity>
-8.00775

> <CNNscore>
0.6362161040

> <CNNaffinity>
6.6899080276

> <CNN_VS>
4.2562270164

> <CNNaffinity_variance>
0.0729692653

$$$$
/media/chris/experiments/cd1a-new-docking/inputs/ligands/4x6e_ligand.pdb


 37 36  0  0  0  0  0  0  0  0999 V2000
  -41.6073   56.8048   62.4454 O   0  0  0  0  0  0  0  0  0  0  0  0
  -41.9813   57.8203   61.9129 C   0  0  0  0  0  0  0  0  0  0  0  0
  -43.1145   58.6793   62.3841 C   0  0  0  0  0  0  0  0  0  0  0  0
  -43.2349   58.7329   63.9024 C   0  0  0  0  0  0  0  0  0  0  0  0
  -44.5766   58.2656   64.4399 C   0  0  0  0  0  0  0  0  0  0  0  0
  -45.7321   59.1710   64.0510 C   0  0  0  0  0  0  0  0  0  0  0  0
  -46.2800   59.9678   65.2225 C   0  0  0  0  0  0  0  0  0  0  0  0
  -47.1969   59.1419   66.0970 C   0  0  0  0  0  0  0  0  0  0  0  0
  -48.1292   58.2158   65.3428 C   0  0  0  0  0  0  0  0  0  0  0  0
  -49.5592   58.3893   65.6854 C   0  0  0  0  0  0  0  0  0  0  0  0
  -50.4331   59.1176   65.0216 C   0  0  0  0  0  0  0  0  0  0  0  0
  -50.1953   59.8913   63.7656 C   0  0  0  0  0  0  0  0  0  0  0  0
  -50.9523   59.2507   62.6011 C   0  0  0  0  0  0  0  0  0  0  0  0
  -50.3480   57.9632   62.0600 C   0  0  0  0  0  0  0  0  0  0  0  0
  -50.8994   57.5087   60.7142 C   0  0  0  0  0  0  0  0  0  0  0  0
  -50.1000   58.0251   59.5224 C   0  0  0  0  0  0  0  0  0  0  0  0
  -48.7834   57.2962   59.3059 C   0  0  0  0  0  0  0  0  0  0  0  0
  -48.3824   57.0933   57.8524 C   0  0  0  0  0  0  0  0  0  0  0  0
  -47.4811   55.9127   57.6593 C   0  0  0  0  0  0  0  0  0  0  0  0
  -41.4244   58.3427   60.8163 O   0  0  0  0  0  0  0  0  0  0  0  0
  -40.1939   57.7549   60.3397 C   0  0  0  0  0  0  0  0  0  0  0  0
  -39.0644   58.7628   60.3174 C   0  0  0  0  0  0  0  0  0  0  0  0
  -39.5660   60.1015   60.4313 O   0  0  0  0  0  0  0  0  0  0  0  0
  -40.0084   60.2093   61.2878 H   0  0  0  0  0  0  0  0  0  0  0  0
  -38.0437   58.5145   61.4031 C   0  0  0  0  0  0  0  0  0  0  0  0
  -38.3551   59.2478   62.6125 O   0  0  0  0  0  0  0  0  0  0  0  0
  -37.6378   60.4854   63.3404 P   0  0  0  0  0  0  0  0  0  0  0  0
  -38.2644   60.6542   64.7235 O   0  0  0  0  0  0  0  0  0  0  0  0
  -37.8958   61.7117   62.5541 O   0  0  0  0  0  0  0  0  0  0  0  0
  -38.8527   61.8425   62.4636 H   0  0  0  0  0  0  0  0  0  0  0  0
  -36.0234   60.2262   63.5178 O   0  0  0  0  0  0  0  0  0  0  0  0
  -35.1725   60.8142   64.5392 C   0  0  0  0  0  0  0  0  0  0  0  0
  -34.8052   62.2279   64.1612 C   0  0  0  0  0  0  0  0  0  0  0  0
  -34.9350   63.2757   65.2511 N   0  0  0  0  0  0  0  0  0  0  0  0
  -34.3728   62.7646   66.5387 C   0  0  0  0  0  0  0  0  0  0  0  0
  -36.3828   63.5876   65.4434 C   0  0  0  0  0  0  0  0  0  0  0  0
  -34.2028   64.5295   64.8661 C   0  0  0  0  0  0  0  0  0  0  0  0
 34 33  1  0  0  0
 34 35  1  0  0  0
 34 36  1  0  0  0
 34 37  1  0  0  0
 22 23  1  0  0  0
 22 25  1  0  0  0
 22 21  1  0  0  0
 23 24  1  0  0  0
 27 26  1  0  0  0
 27 28  2  0  0  0
 27 31  1  0  0  0
 27 29  1  0  0  0
 25 26  1  0  0  0
 32 33  1  0  0  0
 32 31  1  0  0  0
 29 30  1  0  0  0
 20 21  1  0  0  0
 20  2  1  0  0  0
  1  2  2  0  0  0
  2  3  1  0  0  0
  3  4  1  0  0  0
  4  5  1  0  0  0
  5  6  1  0  0  0
  6  7  1  0  0  0
  7  8  1  0  0  0
  8  9  1  0  0  0
  9 10  1  0  0  0
 10 11  2  0  0  0
 11 12  1  0  0  0
 12 13  1  0  0  0
 13 14  1  0  0  0
 14 15  1  0  0  0
 15 16  1  0  0  0
 16 17  1  0  0  0
 17 18  1  0  0  0
 18 19  1  0  0  0
M  CHG 1  28  -1
M  END
> <minimizedAffinity>
-7.91419

> <CNNscore>
0.6085503101

> <CNNaffinity>
6.6003088951

> <CNN_VS>
4.0166201591

> <CNNaffinity_variance>
0.4099222124

$$$$
/media/chris/experiments/cd1a-new-docking/inputs/ligands/4x6e_ligand.pdb


 37 36  0  0  0  0  0  0  0  0999 V2000
  -42.2373   60.7244   60.3487 O   0  0  0  0  0  0  0  0  0  0  0  0
  -42.1554   60.7736   61.5510 C   0  0  0  0  0  0  0  0  0  0  0  0
  -43.2697   61.1438   62.4811 C   0  0  0  0  0  0  0  0  0  0  0  0
  -43.5714   60.0651   63.5145 C   0  0  0  0  0  0  0  0  0  0  0  0
  -44.9394   60.1864   64.1635 C   0  0  0  0  0  0  0  0  0  0  0  0
  -45.0329   59.4917   65.5107 C   0  0  0  0  0  0  0  0  0  0  0  0
  -45.2495   57.9930   65.3902 C   0  0  0  0  0  0  0  0  0  0  0  0
  -46.4521   57.5237   66.1781 C   0  0  0  0  0  0  0  0  0  0  0  0
  -47.7906   57.8416   65.5432 C   0  0  0  0  0  0  0  0  0  0  0  0
  -48.4328   59.0669   66.0710 C   0  0  0  0  0  0  0  0  0  0  0  0
  -49.6263   59.5190   65.7454 C   0  0  0  0  0  0  0  0  0  0  0  0
  -50.6083   58.8865   64.8137 C   0  0  0  0  0  0  0  0  0  0  0  0
  -51.1327   59.9228   63.8184 C   0  0  0  0  0  0  0  0  0  0  0  0
  -50.8471   59.6233   62.3541 C   0  0  0  0  0  0  0  0  0  0  0  0
  -50.8545   58.1447   61.9856 C   0  0  0  0  0  0  0  0  0  0  0  0
  -49.4933   57.6212   61.5394 C   0  0  0  0  0  0  0  0  0  0  0  0
  -49.5406   56.8090   60.2550 C   0  0  0  0  0  0  0  0  0  0  0  0
  -49.4602   57.6182   58.9691 C   0  0  0  0  0  0  0  0  0  0  0  0
  -48.3195   57.2013   58.0924 C   0  0  0  0  0  0  0  0  0  0  0  0
  -41.0468   60.4891   62.2408 O   0  0  0  0  0  0  0  0  0  0  0  0
  -40.5628   59.1285   62.2077 C   0  0  0  0  0  0  0  0  0  0  0  0
  -39.3280   58.9949   61.3419 C   0  0  0  0  0  0  0  0  0  0  0  0
  -39.1479   60.1553   60.5187 O   0  0  0  0  0  0  0  0  0  0  0  0
  -39.0014   60.9315   61.0816 H   0  0  0  0  0  0  0  0  0  0  0  0
  -38.0753   58.7534   62.1510 C   0  0  0  0  0  0  0  0  0  0  0  0
  -38.0329   59.5823   63.3377 O   0  0  0  0  0  0  0  0  0  0  0  0
  -37.3949   61.0270   63.6241 P   0  0  0  0  0  0  0  0  0  0  0  0
  -37.8739   61.4968   64.9967 O   0  0  0  0  0  0  0  0  0  0  0  0
  -37.8913   61.9750   62.6026 O   0  0  0  0  0  0  0  0  0  0  0  0
  -38.8610   61.9911   62.6205 H   0  0  0  0  0  0  0  0  0  0  0  0
  -35.7513   60.9693   63.6273 O   0  0  0  0  0  0  0  0  0  0  0  0
  -34.8822   61.4782   64.6756 C   0  0  0  0  0  0  0  0  0  0  0  0
  -34.9174   62.9864   64.6954 C   0  0  0  0  0  0  0  0  0  0  0  0
  -34.5766   63.6543   66.0147 N   0  0  0  0  0  0  0  0  0  0  0  0
  -33.8134   64.9183   65.7802 C   0  0  0  0  0  0  0  0  0  0  0  0
  -33.7334   62.7201   66.8189 C   0  0  0  0  0  0  0  0  0  0  0  0
  -35.8282   63.9784   66.7796 C   0  0  0  0  0  0  0  0  0  0  0  0
 34 33  1  0  0  0
 34 35  1  0  0  0
 34 36  1  0  0  0
 34 37  1  0  0  0
 22 23  1  0  0  0
 22 25  1  0  0  0
 22 21  1  0  0  0
 23 24  1  0  0  0
 27 26  1  0  0  0
 27 28  2  0  0  0
 27 31  1  0  0  0
 27 29  1  0  0  0
 25 26  1  0  0  0
 32 33  1  0  0  0
 32 31  1  0  0  0
 29 30  1  0  0  0
 20 21  1  0  0  0
 20  2  1  0  0  0
  1  2  2  0  0  0
  2  3  1  0  0  0
  3  4  1  0  0  0
  4  5  1  0  0  0
  5  6  1  0  0  0
  6  7  1  0  0  0
  7  8  1  0  0  0
  8  9  1  0  0  0
  9 10  1  0  0  0
 10 11  2  0  0  0
 11 12  1  0  0  0
 12 13  1  0  0  0
 13 14  1  0  0  0
 14 15  1  0  0  0
 15 16  1  0  0  0
 16 17  1  0  0  0
 17 18  1  0  0  0
 18 19  1  0  0  0
M  CHG 1  28  -1
M  END
> <minimizedAffinity>
-7.83380

> <CNNscore>
0.5827351809

> <CNNaffinity>
6.3699960709

> <CNN_VS>
3.7120208740

> <CNNaffinity_variance>
0.3198068142

$$$$
/media/chris/experiments/cd1a-new-docking/inputs/ligands/4x6e_ligand.pdb


 37 36  0  0  0  0  0  0  0  0999 V2000
  -43.2714   57.6880   63.4652 O   0  0  0  0  0  0  0  0  0  0  0  0
  -42.5244   57.0674   64.1804 C   0  0  0  0  0  0  0  0  0  0  0  0
  -42.8251   56.6388   65.5838 C   0  0  0  0  0  0  0  0  0  0  0  0
  -43.4224   57.7524   66.4358 C   0  0  0  0  0  0  0  0  0  0  0  0
  -44.9313   57.6773   66.5941 C   0  0  0  0  0  0  0  0  0  0  0  0
  -45.5808   59.0272   66.8431 C   0  0  0  0  0  0  0  0  0  0  0  0
  -45.9164   59.7684   65.5603 C   0  0  0  0  0  0  0  0  0  0  0  0
  -47.3954   60.0599   65.4384 C   0  0  0  0  0  0  0  0  0  0  0  0
  -48.2462   58.8706   65.0413 C   0  0  0  0  0  0  0  0  0  0  0  0
  -49.6044   58.8768   65.6309 C   0  0  0  0  0  0  0  0  0  0  0  0
  -50.6589   59.4974   65.1434 C   0  0  0  0  0  0  0  0  0  0  0  0
  -50.7352   60.2919   63.8802 C   0  0  0  0  0  0  0  0  0  0  0  0
  -51.1766   59.3969   62.7211 C   0  0  0  0  0  0  0  0  0  0  0  0
  -50.1241   59.1509   61.6499 C   0  0  0  0  0  0  0  0  0  0  0  0
  -49.5594   57.7360   61.6148 C   0  0  0  0  0  0  0  0  0  0  0  0
  -49.9046   56.9737   60.3397 C   0  0  0  0  0  0  0  0  0  0  0  0
  -49.2525   57.5435   59.0900 C   0  0  0  0  0  0  0  0  0  0  0  0
  -48.1861   56.6648   58.4533 C   0  0  0  0  0  0  0  0  0  0  0  0
  -47.7284   57.1803   57.1235 C   0  0  0  0  0  0  0  0  0  0  0  0
  -41.3067   56.6542   63.8170 O   0  0  0  0  0  0  0  0  0  0  0  0
  -41.2135   55.6942   62.7416 C   0  0  0  0  0  0  0  0  0  0  0  0
  -40.7486   56.3404   61.4538 C   0  0  0  0  0  0  0  0  0  0  0  0
  -41.8131   57.0722   60.8308 O   0  0  0  0  0  0  0  0  0  0  0  0
  -42.0909   57.7969   61.4126 H   0  0  0  0  0  0  0  0  0  0  0  0
  -39.5629   57.2541   61.6580 C   0  0  0  0  0  0  0  0  0  0  0  0
  -39.9415   58.6503   61.5910 O   0  0  0  0  0  0  0  0  0  0  0  0
  -39.3045   59.9745   62.2364 P   0  0  0  0  0  0  0  0  0  0  0  0
  -40.4309   60.9786   62.4754 O   0  0  0  0  0  0  0  0  0  0  0  0
  -38.3493   60.5600   61.2703 O   0  0  0  0  0  0  0  0  0  0  0  0
  -38.8058   60.7415   60.4338 H   0  0  0  0  0  0  0  0  0  0  0  0
  -38.5694   59.6510   63.6716 O   0  0  0  0  0  0  0  0  0  0  0  0
  -38.0378   60.6364   64.5987 C   0  0  0  0  0  0  0  0  0  0  0  0
  -36.6819   61.1092   64.1361 C   0  0  0  0  0  0  0  0  0  0  0  0
  -35.9801   62.1229   65.0208 N   0  0  0  0  0  0  0  0  0  0  0  0
  -36.3988   63.5120   64.6598 C   0  0  0  0  0  0  0  0  0  0  0  0
  -34.5060   61.9925   64.8197 C   0  0  0  0  0  0  0  0  0  0  0  0
  -36.3087   61.8775   66.4659 C   0  0  0  0  0  0  0  0  0  0  0  0
 34 33  1  0  0  0
 34 35  1  0  0  0
 34 36  1  0  0  0
 34 37  1  0  0  0
 22 23  1  0  0  0
 22 25  1  0  0  0
 22 21  1  0  0  0
 23 24  1  0  0  0
 27 26  1  0  0  0
 27 28  2  0  0  0
 27 31  1  0  0  0
 27 29  1  0  0  0
 25 26  1  0  0  0
 32 33  1  0  0  0
 32 31  1  0  0  0
 29 30  1  0  0  0
 20 21  1  0  0  0
 20  2  1  0  0  0
  1  2  2  0  0  0
  2  3  1  0  0  0
  3  4  1  0  0  0
  4  5  1  0  0  0
  5  6  1  0  0  0
  6  7  1  0  0  0
  7  8  1  0  0  0
  8  9  1  0  0  0
  9 10  1  0  0  0
 10 11  2  0  0  0
 11 12  1  0  0  0
 12 13  1  0  0  0
 13 14  1  0  0  0
 14 15  1  0  0  0
 15 16  1  0  0  0
 16 17  1  0  0  0
 17 18  1  0  0  0
 18 19  1  0  0  0
M  CHG 1  28  -1
M  END
> <minimizedAffinity>
-7.61882

> <CNNscore>
0.5737041831

> <CNNaffinity>
6.6718711853

> <CNN_VS>
3.8276803493

> <CNNaffinity_variance>
0.3380005360

$$$$
/media/chris/experiments/cd1a-new-docking/inputs/ligands/4x6e_ligand.pdb


 37 36  0  0  0  0  0  0  0  0999 V2000
  -41.2497   57.0157   62.7933 O   0  0  0  0  0  0  0  0  0  0  0  0
  -41.6738   58.1435   62.8452 C   0  0  0  0  0  0  0  0  0  0  0  0
  -43.0246   58.5841   62.3711 C   0  0  0  0  0  0  0  0  0  0  0  0
  -44.0207   58.7894   63.5061 C   0  0  0  0  0  0  0  0  0  0  0  0
  -44.3341   60.2450   63.8070 C   0  0  0  0  0  0  0  0  0  0  0  0
  -45.7900   60.4886   64.1638 C   0  0  0  0  0  0  0  0  0  0  0  0
  -46.4450   59.2903   64.8290 C   0  0  0  0  0  0  0  0  0  0  0  0
  -47.0616   59.6434   66.1641 C   0  0  0  0  0  0  0  0  0  0  0  0
  -48.5430   59.9580   66.1159 C   0  0  0  0  0  0  0  0  0  0  0  0
  -49.3978   58.7904   65.8020 C   0  0  0  0  0  0  0  0  0  0  0  0
  -50.4188   58.7777   64.9701 C   0  0  0  0  0  0  0  0  0  0  0  0
  -50.9159   59.9114   64.1333 C   0  0  0  0  0  0  0  0  0  0  0  0
  -51.1746   59.4361   62.7027 C   0  0  0  0  0  0  0  0  0  0  0  0
  -50.0657   58.5980   62.0835 C   0  0  0  0  0  0  0  0  0  0  0  0
  -50.5227   57.6149   61.0126 C   0  0  0  0  0  0  0  0  0  0  0  0
  -49.9462   57.9072   59.6312 C   0  0  0  0  0  0  0  0  0  0  0  0
  -48.8983   56.9024   59.1798 C   0  0  0  0  0  0  0  0  0  0  0  0
  -48.1909   57.2401   57.8759 C   0  0  0  0  0  0  0  0  0  0  0  0
  -47.2734   56.1496   57.4150 C   0  0  0  0  0  0  0  0  0  0  0  0
  -40.9966   59.1783   63.3516 O   0  0  0  0  0  0  0  0  0  0  0  0
  -40.2884   58.9772   64.5945 C   0  0  0  0  0  0  0  0  0  0  0  0
  -38.7922   58.8938   64.3785 C   0  0  0  0  0  0  0  0  0  0  0  0
  -38.4396   57.6976   63.6705 O   0  0  0  0  0  0  0  0  0  0  0  0
  -38.8402   57.7147   62.7873 H   0  0  0  0  0  0  0  0  0  0  0  0
  -38.2445   60.0937   63.6420 C   0  0  0  0  0  0  0  0  0  0  0  0
  -38.1089   61.2434   64.5121 O   0  0  0  0  0  0  0  0  0  0  0  0
  -37.0286   61.6265   65.6356 P   0  0  0  0  0  0  0  0  0  0  0  0
  -35.7409   60.8589   65.3413 O   0  0  0  0  0  0  0  0  0  0  0  0
  -37.5428   61.1949   66.9538 O   0  0  0  0  0  0  0  0  0  0  0  0
  -37.7295   60.2433   66.9324 H   0  0  0  0  0  0  0  0  0  0  0  0
  -36.6987   63.2377   65.6289 O   0  0  0  0  0  0  0  0  0  0  0  0
  -35.5110   63.8673   66.1824 C   0  0  0  0  0  0  0  0  0  0  0  0
  -34.5477   64.2248   65.0777 C   0  0  0  0  0  0  0  0  0  0  0  0
  -33.3068   64.9975   65.4852 N   0  0  0  0  0  0  0  0  0  0  0  0
  -32.0913   64.1345   65.3705 C   0  0  0  0  0  0  0  0  0  0  0  0
  -33.4607   65.4332   66.9053 C   0  0  0  0  0  0  0  0  0  0  0  0
  -33.1279   66.2057   64.6107 C   0  0  0  0  0  0  0  0  0  0  0  0
 34 33  1  0  0  0
 34 35  1  0  0  0
 34 36  1  0  0  0
 34 37  1  0  0  0
 22 23  1  0  0  0
 22 25  1  0  0  0
 22 21  1  0  0  0
 23 24  1  0  0  0
 27 26  1  0  0  0
 27 28  2  0  0  0
 27 31  1  0  0  0
 27 29  1  0  0  0
 25 26  1  0  0  0
 32 33  1  0  0  0
 32 31  1  0  0  0
 29 30  1  0  0  0
 20 21  1  0  0  0
 20  2  1  0  0  0
  1  2  2  0  0  0
  2  3  1  0  0  0
  3  4  1  0  0  0
  4  5  1  0  0  0
  5  6  1  0  0  0
  6  7  1  0  0  0
  7  8  1  0  0  0
  8  9  1  0  0  0
  9 10  1  0  0  0
 10 11  2  0  0  0
 11 12  1  0  0  0
 12 13  1  0  0  0
 13 14  1  0  0  0
 14 15  1  0  0  0
 15 16  1  0  0  0
 16 17  1  0  0  0
 17 18  1  0  0  0
 18 19  1  0  0  0
M  CHG 1  28  -1
M  END
> <minimizedAffinity>
-8.02427

> <CNNscore>
0.5537342429

> <CNNaffinity>
6.1918587685

> <CNN_VS>
3.4286441803

> <CNNaffinity_variance>
0.3463339508

$$$$
/media/chris/experiments/cd1a-new-docking/inputs/ligands/4x6e_ligand.pdb


 37 36  0  0  0  0  0  0  0  0999 V2000
  -41.8926   60.8273   59.7952 O   0  0  0  0  0  0  0  0  0  0  0  0
  -41.9045   60.9057   60.9987 C   0  0  0  0  0  0  0  0  0  0  0  0
  -42.9972   61.5233   61.8161 C   0  0  0  0  0  0  0  0  0  0  0  0
  -43.6026   60.5618   62.8318 C   0  0  0  0  0  0  0  0  0  0  0  0
  -44.8955   61.0506   63.4619 C   0  0  0  0  0  0  0  0  0  0  0  0
  -45.3466   60.2114   64.6444 C   0  0  0  0  0  0  0  0  0  0  0  0
  -46.0777   58.9466   64.2281 C   0  0  0  0  0  0  0  0  0  0  0  0
  -47.1624   58.5634   65.2100 C   0  0  0  0  0  0  0  0  0  0  0  0
  -48.5567   58.4950   64.6210 C   0  0  0  0  0  0  0  0  0  0  0  0
  -48.9987   59.7491   63.9697 C   0  0  0  0  0  0  0  0  0  0  0  0
  -50.0049   59.8739   63.1291 C   0  0  0  0  0  0  0  0  0  0  0  0
  -50.9431   58.8019   62.6783 C   0  0  0  0  0  0  0  0  0  0  0  0
  -50.6338   58.4045   61.2340 C   0  0  0  0  0  0  0  0  0  0  0  0
  -49.3621   57.5920   61.0394 C   0  0  0  0  0  0  0  0  0  0  0  0
  -49.3446   56.7109   59.7963 C   0  0  0  0  0  0  0  0  0  0  0  0
  -48.2198   55.6809   59.7952 C   0  0  0  0  0  0  0  0  0  0  0  0
  -47.1747   55.9164   58.7163 C   0  0  0  0  0  0  0  0  0  0  0  0
  -47.7236   56.1329   57.3140 C   0  0  0  0  0  0  0  0  0  0  0  0
  -47.3798   57.4809   56.7588 C   0  0  0  0  0  0  0  0  0  0  0  0
  -40.9372   60.4356   61.7918 O   0  0  0  0  0  0  0  0  0  0  0  0
  -40.1558   59.3190   61.3129 C   0  0  0  0  0  0  0  0  0  0  0  0
  -38.7084   59.7037   61.0905 C   0  0  0  0  0  0  0  0  0  0  0  0
  -38.3813   60.9088   61.7958 O   0  0  0  0  0  0  0  0  0  0  0  0
  -38.4790   60.7618   62.7496 H   0  0  0  0  0  0  0  0  0  0  0  0
  -37.7485   58.6090   61.4937 C   0  0  0  0  0  0  0  0  0  0  0  0
  -38.1072   58.0210   62.7676 O   0  0  0  0  0  0  0  0  0  0  0  0
  -37.5353   58.2289   64.2528 P   0  0  0  0  0  0  0  0  0  0  0  0
  -36.5883   57.0717   64.5661 O   0  0  0  0  0  0  0  0  0  0  0  0
  -38.6654   58.1835   65.2063 O   0  0  0  0  0  0  0  0  0  0  0  0
  -39.1374   57.3417   65.1085 H   0  0  0  0  0  0  0  0  0  0  0  0
  -36.7064   59.6432   64.3861 O   0  0  0  0  0  0  0  0  0  0  0  0
  -37.0945   60.7858   65.1966 C   0  0  0  0  0  0  0  0  0  0  0  0
  -35.8705   61.4694   65.7540 C   0  0  0  0  0  0  0  0  0  0  0  0
  -35.6895   62.9326   65.3948 N   0  0  0  0  0  0  0  0  0  0  0  0
  -36.4964   63.2787   64.1848 C   0  0  0  0  0  0  0  0  0  0  0  0
  -34.2456   63.1771   65.1018 C   0  0  0  0  0  0  0  0  0  0  0  0
  -36.1218   63.8117   66.5336 C   0  0  0  0  0  0  0  0  0  0  0  0
 34 33  1  0  0  0
 34 35  1  0  0  0
 34 36  1  0  0  0
 34 37  1  0  0  0
 22 23  1  0  0  0
 22 25  1  0  0  0
 22 21  1  0  0  0
 23 24  1  0  0  0
 27 26  1  0  0  0
 27 28  2  0  0  0
 27 31  1  0  0  0
 27 29  1  0  0  0
 25 26  1  0  0  0
 32 33  1  0  0  0
 32 31  1  0  0  0
 29 30  1  0  0  0
 20 21  1  0  0  0
 20  2  1  0  0  0
  1  2  2  0  0  0
  2  3  1  0  0  0
  3  4  1  0  0  0
  4  5  1  0  0  0
  5  6  1  0  0  0
  6  7  1  0  0  0
  7  8  1  0  0  0
  8  9  1  0  0  0
  9 10  1  0  0  0
 10 11  2  0  0  0
 11 12  1  0  0  0
 12 13  1  0  0  0
 13 14  1  0  0  0
 14 15  1  0  0  0
 15 16  1  0  0  0
 16 17  1  0  0  0
 17 18  1  0  0  0
 18 19  1  0  0  0
M  CHG 1  28  -1
M  END
> <minimizedAffinity>
-7.65871

> <CNNscore>
0.5446038246

> <CNNaffinity>
6.4266052246

> <CNN_VS>
3.4999537468

> <CNNaffinity_variance>
0.4085100591

$$$$
