/media/chris/experiments/cd1a-new-docking/inputs/ligands/4x6e_ligand.pdb


 37 36  0  0  0  0  0  0  0  0999 V2000
  -41.5275   60.9680   66.5590 O   0  0  0  0  0  0  0  0  0  0  0  0
  -41.6704   59.7705   66.5705 C   0  0  0  0  0  0  0  0  0  0  0  0
  -42.8748   59.0463   67.0888 C   0  0  0  0  0  0  0  0  0  0  0  0
  -44.0716   59.1241   66.1485 C   0  0  0  0  0  0  0  0  0  0  0  0
  -45.4096   59.2773   66.8512 C   0  0  0  0  0  0  0  0  0  0  0  0
  -46.4286   58.2266   66.4465 C   0  0  0  0  0  0  0  0  0  0  0  0
  -47.5473   58.7875   65.5853 C   0  0  0  0  0  0  0  0  0  0  0  0
  -48.7823   57.9149   65.6125 C   0  0  0  0  0  0  0  0  0  0  0  0
  -50.0948   58.6721   65.6125 C   0  0  0  0  0  0  0  0  0  0  0  0
  -50.0761   59.9116   64.8029 C   0  0  0  0  0  0  0  0  0  0  0  0
  -50.5591   60.0502   63.5854 C   0  0  0  0  0  0  0  0  0  0  0  0
  -51.2630   59.0149   62.7698 C   0  0  0  0  0  0  0  0  0  0  0  0
  -50.2447   58.1372   62.0402 C   0  0  0  0  0  0  0  0  0  0  0  0
  -50.7920   57.3458   60.8614 C   0  0  0  0  0  0  0  0  0  0  0  0
  -50.4622   57.9220   59.4898 C   0  0  0  0  0  0  0  0  0  0  0  0
  -48.9924   57.7817   59.1073 C   0  0  0  0  0  0  0  0  0  0  0  0
  -48.4723   56.3553   59.1870 C   0  0  0  0  0  0  0  0  0  0  0  0
  -47.6397   55.8980   57.9987 C   0  0  0  0  0  0  0  0  0  0  0  0
  -47.5292   56.9435   56.9317 C   0  0  0  0  0  0  0  0  0  0  0  0
  -40.7679   58.9018   66.1050 O   0  0  0  0  0  0  0  0  0  0  0  0
  -40.4541   58.9461   64.6956 C   0  0  0  0  0  0  0  0  0  0  0  0
  -39.2498   59.8208   64.4181 C   0  0  0  0  0  0  0  0  0  0  0  0
  -39.6474   61.1658   64.1196 O   0  0  0  0  0  0  0  0  0  0  0  0
  -40.0898   61.5512   64.8921 H   0  0  0  0  0  0  0  0  0  0  0  0
  -38.2638   59.8304   65.5627 C   0  0  0  0  0  0  0  0  0  0  0  0
  -36.9265   60.1643   65.1183 O   0  0  0  0  0  0  0  0  0  0  0  0
  -36.1345   61.5574   65.0275 P   0  0  0  0  0  0  0  0  0  0  0  0
  -37.1609   62.6837   64.9176 O   0  0  0  0  0  0  0  0  0  0  0  0
  -35.3073   61.5531   63.8012 O   0  0  0  0  0  0  0  0  0  0  0  0
  -35.8745   61.4015   63.0291 H   0  0  0  0  0  0  0  0  0  0  0  0
  -35.2094   61.8119   66.3634 O   0  0  0  0  0  0  0  0  0  0  0  0
  -34.0554   62.6920   66.4464 C   0  0  0  0  0  0  0  0  0  0  0  0
  -34.4080   64.0645   65.9289 C   0  0  0  0  0  0  0  0  0  0  0  0
  -33.2848   64.8533   65.2819 N   0  0  0  0  0  0  0  0  0  0  0  0
  -32.8123   65.9381   66.1957 C   0  0  0  0  0  0  0  0  0  0  0  0
  -33.7982   65.4692   64.0219 C   0  0  0  0  0  0  0  0  0  0  0  0
  -32.1267   63.9525   64.9593 C   0  0  0  0  0  0  0  0  0  0  0  0
 34 33  1  0  0  0
 34 35  1  0  0  0
 34 36  1  0  0  0
 34 37  1  0  0  0
 22 23  1  0  0  0
 22 25  1  0  0  0
 22 21  1  0  0  0
 23 24  1  0  0  0
 27 26  1  0  0  0
 27 28  2  0  0  0
 27 31  1  0  0  0
 27 29  1  0  0  0
 25 26  1  0  0  0
 32 33  1  0  0  0
 32 31  1  0  0  0
 29 30  1  0  0  0
 20 21  1  0  0  0
 20  2  1  0  0  0
  1  2  2  0  0  0
  2  3  1  0  0  0
  3  4  1  0  0  0
  4  5  1  0  0  0
  5  6  1  0  0  0
  6  7  1  0  0  0
  7  8  1  0  0  0
  8  9  1  0  0  0
  9 10  1  0  0  0
 10 11  2  0  0  0
 11 12  1  0  0  0
 12 13  1  0  0  0
 13 14  1  0  0  0
 14 15  1  0  0  0
 15 16  1  0  0  0
 16 17  1  0  0  0
 17 18  1  0  0  0
 18 19  1  0  0  0
M  CHG 1  28  -1
M  END
> <minimizedAffinity>
-8.14807

> <CNNscore>
0.8817383647

> <CNNaffinity>
6.4652113914

> <CNN_VS>
5.7006249428

> <CNNaffinity_variance>
0.3118077517

$$$$
/media/chris/experiments/cd1a-new-docking/inputs/ligands/4x6e_ligand.pdb


 37 36  0  0  0  0  0  0  0  0999 V2000
  -44.0508   57.1841   65.1412 O   0  0  0  0  0  0  0  0  0  0  0  0
  -43.4293   58.2097   65.2691 C   0  0  0  0  0  0  0  0  0  0  0  0
  -43.9822   59.4980   65.7966 C   0  0  0  0  0  0  0  0  0  0  0  0
  -45.5049   59.5540   65.7662 C   0  0  0  0  0  0  0  0  0  0  0  0
  -46.1724   59.1169   67.0588 C   0  0  0  0  0  0  0  0  0  0  0  0
  -47.0384   57.8793   66.9034 C   0  0  0  0  0  0  0  0  0  0  0  0
  -47.8111   57.8577   65.5957 C   0  0  0  0  0  0  0  0  0  0  0  0
  -49.3020   57.9941   65.8100 C   0  0  0  0  0  0  0  0  0  0  0  0
  -49.8335   59.4083   65.6935 C   0  0  0  0  0  0  0  0  0  0  0  0
  -49.3654   60.1313   64.4892 C   0  0  0  0  0  0  0  0  0  0  0  0
  -50.0096   60.2302   63.3446 C   0  0  0  0  0  0  0  0  0  0  0  0
  -51.3589   59.6783   63.0171 C   0  0  0  0  0  0  0  0  0  0  0  0
  -51.2193   58.4208   62.1576 C   0  0  0  0  0  0  0  0  0  0  0  0
  -50.2286   58.5238   61.0073 C   0  0  0  0  0  0  0  0  0  0  0  0
  -49.7226   57.1900   60.4715 C   0  0  0  0  0  0  0  0  0  0  0  0
  -48.9617   57.3114   59.1552 C   0  0  0  0  0  0  0  0  0  0  0  0
  -47.8856   56.2534   58.9700 C   0  0  0  0  0  0  0  0  0  0  0  0
  -47.6156   55.8438   57.5299 C   0  0  0  0  0  0  0  0  0  0  0  0
  -47.3438   57.0142   56.6356 C   0  0  0  0  0  0  0  0  0  0  0  0
  -42.1349   58.3465   64.9666 O   0  0  0  0  0  0  0  0  0  0  0  0
  -41.2722   58.9527   65.9540 C   0  0  0  0  0  0  0  0  0  0  0  0
  -40.7022   60.2679   65.4667 C   0  0  0  0  0  0  0  0  0  0  0  0
  -39.6401   60.7169   66.3191 O   0  0  0  0  0  0  0  0  0  0  0  0
  -38.9105   60.0783   66.2903 H   0  0  0  0  0  0  0  0  0  0  0  0
  -40.2055   60.1925   64.0419 C   0  0  0  0  0  0  0  0  0  0  0  0
  -39.2954   61.2754   63.7311 O   0  0  0  0  0  0  0  0  0  0  0  0
  -37.7065   61.3211   63.5089 P   0  0  0  0  0  0  0  0  0  0  0  0
  -37.0365   61.4403   64.8767 O   0  0  0  0  0  0  0  0  0  0  0  0
  -37.3736   62.5242   62.7152 O   0  0  0  0  0  0  0  0  0  0  0  0
  -37.7041   63.3140   63.1712 H   0  0  0  0  0  0  0  0  0  0  0  0
  -37.1627   59.9564   62.7694 O   0  0  0  0  0  0  0  0  0  0  0  0
  -36.6319   58.7789   63.4362 C   0  0  0  0  0  0  0  0  0  0  0  0
  -35.3096   58.3855   62.8257 C   0  0  0  0  0  0  0  0  0  0  0  0
  -34.0651   58.7469   63.6152 N   0  0  0  0  0  0  0  0  0  0  0  0
  -34.2208   58.3515   65.0486 C   0  0  0  0  0  0  0  0  0  0  0  0
  -33.8635   60.2247   63.5384 C   0  0  0  0  0  0  0  0  0  0  0  0
  -32.8610   58.0504   63.0481 C   0  0  0  0  0  0  0  0  0  0  0  0
 34 33  1  0  0  0
 34 35  1  0  0  0
 34 36  1  0  0  0
 34 37  1  0  0  0
 22 23  1  0  0  0
 22 25  1  0  0  0
 22 21  1  0  0  0
 23 24  1  0  0  0
 27 26  1  0  0  0
 27 28  2  0  0  0
 27 31  1  0  0  0
 27 29  1  0  0  0
 25 26  1  0  0  0
 32 33  1  0  0  0
 32 31  1  0  0  0
 29 30  1  0  0  0
 20 21  1  0  0  0
 20  2  1  0  0  0
  1  2  2  0  0  0
  2  3  1  0  0  0
  3  4  1  0  0  0
  4  5  1  0  0  0
  5  6  1  0  0  0
  6  7  1  0  0  0
  7  8  1  0  0  0
  8  9  1  0  0  0
  9 10  1  0  0  0
 10 11  2  0  0  0
 11 12  1  0  0  0
 12 13  1  0  0  0
 13 14  1  0  0  0
 14 15  1  0  0  0
 15 16  1  0  0  0
 16 17  1  0  0  0
 17 18  1  0  0  0
 18 19  1  0  0  0
M  CHG 1  28  -1
M  END
> <minimizedAffinity>
-7.94743

> <CNNscore>
0.8382250667

> <CNNaffinity>
6.8557472229

> <CNN_VS>
5.7466592789

> <CNNaffinity_variance>
0.1858794689

$$$$
/media/chris/experiments/cd1a-new-docking/inputs/ligands/4x6e_ligand.pdb


 37 36  0  0  0  0  0  0  0  0999 V2000
  -45.5413   60.4928   64.6371 O   0  0  0  0  0  0  0  0  0  0  0  0
  -44.8103   59.6548   65.1038 C   0  0  0  0  0  0  0  0  0  0  0  0
  -44.8173   59.1954   66.5295 C   0  0  0  0  0  0  0  0  0  0  0  0
  -45.1359   57.7127   66.6800 C   0  0  0  0  0  0  0  0  0  0  0  0
  -46.4978   57.4246   67.2880 C   0  0  0  0  0  0  0  0  0  0  0  0
  -47.4851   56.8250   66.3024 C   0  0  0  0  0  0  0  0  0  0  0  0
  -47.9916   57.8325   65.2845 C   0  0  0  0  0  0  0  0  0  0  0  0
  -49.0023   58.7875   65.8792 C   0  0  0  0  0  0  0  0  0  0  0  0
  -50.4009   58.6681   65.3086 C   0  0  0  0  0  0  0  0  0  0  0  0
  -50.8063   59.8123   64.4609 C   0  0  0  0  0  0  0  0  0  0  0  0
  -50.6003   59.9291   63.1652 C   0  0  0  0  0  0  0  0  0  0  0  0
  -49.9564   58.9302   62.2596 C   0  0  0  0  0  0  0  0  0  0  0  0
  -51.0251   58.1236   61.5203 C   0  0  0  0  0  0  0  0  0  0  0  0
  -50.5124   57.2449   60.3887 C   0  0  0  0  0  0  0  0  0  0  0  0
  -49.2461   56.4589   60.7065 C   0  0  0  0  0  0  0  0  0  0  0  0
  -48.2197   56.4750   59.5785 C   0  0  0  0  0  0  0  0  0  0  0  0
  -48.6035   57.3741   58.4140 C   0  0  0  0  0  0  0  0  0  0  0  0
  -48.0729   56.9424   57.0551 C   0  0  0  0  0  0  0  0  0  0  0  0
  -47.0883   55.8175   57.1480 C   0  0  0  0  0  0  0  0  0  0  0  0
  -43.8818   58.9946   64.4053 O   0  0  0  0  0  0  0  0  0  0  0  0
  -43.1821   59.7136   63.3660 C   0  0  0  0  0  0  0  0  0  0  0  0
  -42.0137   58.9175   62.8246 C   0  0  0  0  0  0  0  0  0  0  0  0
  -41.6159   57.8939   63.7467 O   0  0  0  0  0  0  0  0  0  0  0  0
  -42.3432   57.2626   63.8626 H   0  0  0  0  0  0  0  0  0  0  0  0
  -42.3090   58.2954   61.4798 C   0  0  0  0  0  0  0  0  0  0  0  0
  -41.2461   58.5420   60.5276 O   0  0  0  0  0  0  0  0  0  0  0  0
  -39.6592   58.7098   60.6994 P   0  0  0  0  0  0  0  0  0  0  0  0
  -39.3157   60.1900   60.5413 O   0  0  0  0  0  0  0  0  0  0  0  0
  -38.9834   57.9523   59.6235 O   0  0  0  0  0  0  0  0  0  0  0  0
  -39.2953   58.2678   58.7609 H   0  0  0  0  0  0  0  0  0  0  0  0
  -39.1576   58.2048   62.1822 O   0  0  0  0  0  0  0  0  0  0  0  0
  -38.0361   57.3187   62.4470 C   0  0  0  0  0  0  0  0  0  0  0  0
  -36.7352   58.0722   62.3215 C   0  0  0  0  0  0  0  0  0  0  0  0
  -36.0447   58.4515   63.6184 N   0  0  0  0  0  0  0  0  0  0  0  0
  -36.4513   57.5248   64.7189 C   0  0  0  0  0  0  0  0  0  0  0  0
  -36.4449   59.8434   63.9830 C   0  0  0  0  0  0  0  0  0  0  0  0
  -34.5524   58.3888   63.4582 C   0  0  0  0  0  0  0  0  0  0  0  0
 34 33  1  0  0  0
 34 35  1  0  0  0
 34 36  1  0  0  0
 34 37  1  0  0  0
 22 23  1  0  0  0
 22 25  1  0  0  0
 22 21  1  0  0  0
 23 24  1  0  0  0
 27 26  1  0  0  0
 27 28  2  0  0  0
 27 31  1  0  0  0
 27 29  1  0  0  0
 25 26  1  0  0  0
 32 33  1  0  0  0
 32 31  1  0  0  0
 29 30  1  0  0  0
 20 21  1  0  0  0
 20  2  1  0  0  0
  1  2  2  0  0  0
  2  3  1  0  0  0
  3  4  1  0  0  0
  4  5  1  0  0  0
  5  6  1  0  0  0
  6  7  1  0  0  0
  7  8  1  0  0  0
  8  9  1  0  0  0
  9 10  1  0  0  0
 10 11  2  0  0  0
 11 12  1  0  0  0
 12 13  1  0  0  0
 13 14  1  0  0  0
 14 15  1  0  0  0
 15 16  1  0  0  0
 16 17  1  0  0  0
 17 18  1  0  0  0
 18 19  1  0  0  0
M  CHG 1  28  -1
M  END
> <minimizedAffinity>
-7.94960

> <CNNscore>
0.7508744001

> <CNNaffinity>
6.8750672340

> <CNN_VS>
5.1623120308

> <CNNaffinity_variance>
0.1824062914

$$$$
/media/chris/experiments/cd1a-new-docking/inputs/ligands/4x6e_ligand.pdb


 37 36  0  0  0  0  0  0  0  0999 V2000
  -45.4275   60.3930   64.3927 O   0  0  0  0  0  0  0  0  0  0  0  0
  -44.6062   59.6155   64.8116 C   0  0  0  0  0  0  0  0  0  0  0  0
  -44.4646   59.1908   66.2411 C   0  0  0  0  0  0  0  0  0  0  0  0
  -44.8820   57.7449   66.4810 C   0  0  0  0  0  0  0  0  0  0  0  0
  -46.2797   57.5846   67.0539 C   0  0  0  0  0  0  0  0  0  0  0  0
  -47.2605   56.9475   66.0854 C   0  0  0  0  0  0  0  0  0  0  0  0
  -48.0252   57.9680   65.2599 C   0  0  0  0  0  0  0  0  0  0  0  0
  -49.0015   58.7644   66.0965 C   0  0  0  0  0  0  0  0  0  0  0  0
  -50.4097   58.8275   65.5407 C   0  0  0  0  0  0  0  0  0  0  0  0
  -50.6471   59.9680   64.6269 C   0  0  0  0  0  0  0  0  0  0  0  0
  -50.9568   59.8869   63.3493 C   0  0  0  0  0  0  0  0  0  0  0  0
  -51.1768   58.6434   62.5506 C   0  0  0  0  0  0  0  0  0  0  0  0
  -50.0509   58.4664   61.5306 C   0  0  0  0  0  0  0  0  0  0  0  0
  -50.3219   57.4514   60.4298 C   0  0  0  0  0  0  0  0  0  0  0  0
  -49.4217   56.2221   60.4512 C   0  0  0  0  0  0  0  0  0  0  0  0
  -48.3348   56.2441   59.3813 C   0  0  0  0  0  0  0  0  0  0  0  0
  -48.5316   57.3252   58.3306 C   0  0  0  0  0  0  0  0  0  0  0  0
  -47.7226   57.1483   57.0544 C   0  0  0  0  0  0  0  0  0  0  0  0
  -46.9538   55.8630   57.0288 C   0  0  0  0  0  0  0  0  0  0  0  0
  -43.6968   59.0004   64.0498 O   0  0  0  0  0  0  0  0  0  0  0  0
  -42.7984   59.8243   63.2745 C   0  0  0  0  0  0  0  0  0  0  0  0
  -41.5827   60.2351   64.0780 C   0  0  0  0  0  0  0  0  0  0  0  0
  -41.1460   59.1701   64.9331 O   0  0  0  0  0  0  0  0  0  0  0  0
  -40.8701   58.4136   64.3924 H   0  0  0  0  0  0  0  0  0  0  0  0
  -40.4338   60.6815   63.2043 C   0  0  0  0  0  0  0  0  0  0  0  0
  -39.2656   61.0282   63.9870 O   0  0  0  0  0  0  0  0  0  0  0  0
  -37.7083   61.1363   63.6137 P   0  0  0  0  0  0  0  0  0  0  0  0
  -37.4852   62.4540   62.8735 O   0  0  0  0  0  0  0  0  0  0  0  0
  -37.3603   60.0216   62.7057 O   0  0  0  0  0  0  0  0  0  0  0  0
  -37.9297   60.0539   61.9211 H   0  0  0  0  0  0  0  0  0  0  0  0
  -36.7640   61.1183   64.9602 O   0  0  0  0  0  0  0  0  0  0  0  0
  -36.3795   62.2780   65.7477 C   0  0  0  0  0  0  0  0  0  0  0  0
  -34.8885   62.2815   65.9772 C   0  0  0  0  0  0  0  0  0  0  0  0
  -34.0527   63.0705   64.9865 N   0  0  0  0  0  0  0  0  0  0  0  0
  -33.6216   62.1971   63.8522 C   0  0  0  0  0  0  0  0  0  0  0  0
  -32.8405   63.5872   65.6893 C   0  0  0  0  0  0  0  0  0  0  0  0
  -34.8394   64.2261   64.4368 C   0  0  0  0  0  0  0  0  0  0  0  0
 34 33  1  0  0  0
 34 35  1  0  0  0
 34 36  1  0  0  0
 34 37  1  0  0  0
 22 23  1  0  0  0
 22 25  1  0  0  0
 22 21  1  0  0  0
 23 24  1  0  0  0
 27 26  1  0  0  0
 27 28  2  0  0  0
 27 31  1  0  0  0
 27 29  1  0  0  0
 25 26  1  0  0  0
 32 33  1  0  0  0
 32 31  1  0  0  0
 29 30  1  0  0  0
 20 21  1  0  0  0
 20  2  1  0  0  0
  1  2  2  0  0  0
  2  3  1  0  0  0
  3  4  1  0  0  0
  4  5  1  0  0  0
  5  6  1  0  0  0
  6  7  1  0  0  0
  7  8  1  0  0  0
  8  9  1  0  0  0
  9 10  1  0  0  0
 10 11  2  0  0  0
 11 12  1  0  0  0
 12 13  1  0  0  0
 13 14  1  0  0  0
 14 15  1  0  0  0
 15 16  1  0  0  0
 16 17  1  0  0  0
 17 18  1  0  0  0
 18 19  1  0  0  0
M  CHG 1  28  -1
M  END
> <minimizedAffinity>
-8.04822

> <CNNscore>
0.7166289687

> <CNNaffinity>
6.4426727295

> <CNN_VS>
4.6170058250

> <CNNaffinity_variance>
0.1458183676

$$$$
/media/chris/experiments/cd1a-new-docking/inputs/ligands/4x6e_ligand.pdb


 37 36  0  0  0  0  0  0  0  0999 V2000
  -42.2400   59.1753   67.8245 O   0  0  0  0  0  0  0  0  0  0  0  0
  -42.4417   59.4004   66.6569 C   0  0  0  0  0  0  0  0  0  0  0  0
  -43.7890   59.5966   66.0323 C   0  0  0  0  0  0  0  0  0  0  0  0
  -44.9228   58.9886   66.8493 C   0  0  0  0  0  0  0  0  0  0  0  0
  -46.3046   59.4973   66.4761 C   0  0  0  0  0  0  0  0  0  0  0  0
  -46.5155   59.6301   64.9782 C   0  0  0  0  0  0  0  0  0  0  0  0
  -47.5906   58.6977   64.4467 C   0  0  0  0  0  0  0  0  0  0  0  0
  -48.4152   58.0842   65.5562 C   0  0  0  0  0  0  0  0  0  0  0  0
  -49.9053   58.3396   65.4554 C   0  0  0  0  0  0  0  0  0  0  0  0
  -50.2638   59.7685   65.3070 C   0  0  0  0  0  0  0  0  0  0  0  0
  -50.9075   60.3053   64.2910 C   0  0  0  0  0  0  0  0  0  0  0  0
  -51.4519   59.5990   63.0922 C   0  0  0  0  0  0  0  0  0  0  0  0
  -50.4532   59.6768   61.9363 C   0  0  0  0  0  0  0  0  0  0  0  0
  -49.7420   58.3742   61.6003 C   0  0  0  0  0  0  0  0  0  0  0  0
  -50.4044   57.5413   60.5096 C   0  0  0  0  0  0  0  0  0  0  0  0
  -49.7739   57.7271   59.1334 C   0  0  0  0  0  0  0  0  0  0  0  0
  -48.5836   56.8166   58.8770 C   0  0  0  0  0  0  0  0  0  0  0  0
  -47.8859   57.0171   57.5400 C   0  0  0  0  0  0  0  0  0  0  0  0
  -47.1287   55.8043   57.0937 C   0  0  0  0  0  0  0  0  0  0  0  0
  -41.4791   59.5219   65.7380 O   0  0  0  0  0  0  0  0  0  0  0  0
  -40.2534   60.1790   66.1286 C   0  0  0  0  0  0  0  0  0  0  0  0
  -39.1739   60.0184   65.0792 C   0  0  0  0  0  0  0  0  0  0  0  0
  -38.3923   61.2143   64.9565 O   0  0  0  0  0  0  0  0  0  0  0  0
  -37.9330   61.3878   65.7930 H   0  0  0  0  0  0  0  0  0  0  0  0
  -38.2610   58.8480   65.3604 C   0  0  0  0  0  0  0  0  0  0  0  0
  -37.8422   58.1870   64.1417 O   0  0  0  0  0  0  0  0  0  0  0  0
  -36.6953   58.5223   63.0702 P   0  0  0  0  0  0  0  0  0  0  0  0
  -35.4185   57.7990   63.4955 O   0  0  0  0  0  0  0  0  0  0  0  0
  -36.4397   59.9792   63.0900 O   0  0  0  0  0  0  0  0  0  0  0  0
  -36.1953   60.2524   63.9881 H   0  0  0  0  0  0  0  0  0  0  0  0
  -37.1139   58.0164   61.5622 O   0  0  0  0  0  0  0  0  0  0  0  0
  -38.0761   58.6602   60.6833 C   0  0  0  0  0  0  0  0  0  0  0  0
  -39.3626   57.8729   60.6525 C   0  0  0  0  0  0  0  0  0  0  0  0
  -40.5664   58.5168   61.3149 N   0  0  0  0  0  0  0  0  0  0  0  0
  -41.7450   58.4941   60.3953 C   0  0  0  0  0  0  0  0  0  0  0  0
  -40.2309   59.9355   61.6392 C   0  0  0  0  0  0  0  0  0  0  0  0
  -40.9239   57.7887   62.5793 C   0  0  0  0  0  0  0  0  0  0  0  0
 34 33  1  0  0  0
 34 35  1  0  0  0
 34 36  1  0  0  0
 34 37  1  0  0  0
 22 23  1  0  0  0
 22 25  1  0  0  0
 22 21  1  0  0  0
 23 24  1  0  0  0
 27 26  1  0  0  0
 27 28  2  0  0  0
 27 31  1  0  0  0
 27 29  1  0  0  0
 25 26  1  0  0  0
 32 33  1  0  0  0
 32 31  1  0  0  0
 29 30  1  0  0  0
 20 21  1  0  0  0
 20  2  1  0  0  0
  1  2  2  0  0  0
  2  3  1  0  0  0
  3  4  1  0  0  0
  4  5  1  0  0  0
  5  6  1  0  0  0
  6  7  1  0  0  0
  7  8  1  0  0  0
  8  9  1  0  0  0
  9 10  1  0  0  0
 10 11  2  0  0  0
 11 12  1  0  0  0
 12 13  1  0  0  0
 13 14  1  0  0  0
 14 15  1  0  0  0
 15 16  1  0  0  0
 16 17  1  0  0  0
 17 18  1  0  0  0
 18 19  1  0  0  0
M  CHG 1  28  -1
M  END
> <minimizedAffinity>
-8.02355

> <CNNscore>
0.7164750695

> <CNNaffinity>
6.9087586403

> <CNN_VS>
4.9499535561

> <CNNaffinity_variance>
0.2046111077

$$$$
/media/chris/experiments/cd1a-new-docking/inputs/ligands/4x6e_ligand.pdb


 37 36  0  0  0  0  0  0  0  0999 V2000
  -44.0148   59.9875   64.3669 O   0  0  0  0  0  0  0  0  0  0  0  0
  -43.2570   59.7009   65.2603 C   0  0  0  0  0  0  0  0  0  0  0  0
  -43.6434   59.4994   66.6934 C   0  0  0  0  0  0  0  0  0  0  0  0
  -45.0574   58.9565   66.8623 C   0  0  0  0  0  0  0  0  0  0  0  0
  -45.2041   57.4811   66.5320 C   0  0  0  0  0  0  0  0  0  0  0  0
  -46.6243   57.0803   66.1736 C   0  0  0  0  0  0  0  0  0  0  0  0
  -47.6129   58.2267   66.3004 C   0  0  0  0  0  0  0  0  0  0  0  0
  -48.5564   58.3013   65.1208 C   0  0  0  0  0  0  0  0  0  0  0  0
  -50.0158   58.4835   65.4856 C   0  0  0  0  0  0  0  0  0  0  0  0
  -50.5775   59.7948   65.0893 C   0  0  0  0  0  0  0  0  0  0  0  0
  -51.1108   60.0893   63.9215 C   0  0  0  0  0  0  0  0  0  0  0  0
  -51.3057   59.1697   62.7601 C   0  0  0  0  0  0  0  0  0  0  0  0
  -50.0817   59.2117   61.8438 C   0  0  0  0  0  0  0  0  0  0  0  0
  -49.4039   57.8714   61.5994 C   0  0  0  0  0  0  0  0  0  0  0  0
  -49.9386   57.0871   60.4073 C   0  0  0  0  0  0  0  0  0  0  0  0
  -48.8446   56.5625   59.4829 C   0  0  0  0  0  0  0  0  0  0  0  0
  -48.5423   57.4805   58.3092 C   0  0  0  0  0  0  0  0  0  0  0  0
  -48.1489   56.7790   57.0179 C   0  0  0  0  0  0  0  0  0  0  0  0
  -46.9368   55.9131   57.1746 C   0  0  0  0  0  0  0  0  0  0  0  0
  -41.9449   59.5061   65.0989 O   0  0  0  0  0  0  0  0  0  0  0  0
  -41.4554   58.1474   65.1369 C   0  0  0  0  0  0  0  0  0  0  0  0
  -40.5999   57.8273   63.9294 C   0  0  0  0  0  0  0  0  0  0  0  0
  -40.9857   58.6211   62.7993 O   0  0  0  0  0  0  0  0  0  0  0  0
  -40.8357   59.5589   62.9964 H   0  0  0  0  0  0  0  0  0  0  0  0
  -39.1251   58.0168   64.1968 C   0  0  0  0  0  0  0  0  0  0  0  0
  -38.5085   58.8892   63.2189 O   0  0  0  0  0  0  0  0  0  0  0  0
  -37.8065   60.3271   63.3443 P   0  0  0  0  0  0  0  0  0  0  0  0
  -38.4168   61.0534   64.5418 O   0  0  0  0  0  0  0  0  0  0  0  0
  -38.1004   61.1060   62.1216 O   0  0  0  0  0  0  0  0  0  0  0  0
  -39.0610   61.1746   62.0050 H   0  0  0  0  0  0  0  0  0  0  0  0
  -36.1848   60.1867   63.5797 O   0  0  0  0  0  0  0  0  0  0  0  0
  -35.4092   60.8695   64.6020 C   0  0  0  0  0  0  0  0  0  0  0  0
  -34.9360   62.2077   64.0907 C   0  0  0  0  0  0  0  0  0  0  0  0
  -35.3815   63.4281   64.8748 N   0  0  0  0  0  0  0  0  0  0  0  0
  -35.7804   63.0420   66.2630 C   0  0  0  0  0  0  0  0  0  0  0  0
  -36.5571   64.0367   64.1834 C   0  0  0  0  0  0  0  0  0  0  0  0
  -34.2722   64.4380   64.9522 C   0  0  0  0  0  0  0  0  0  0  0  0
 34 33  1  0  0  0
 34 35  1  0  0  0
 34 36  1  0  0  0
 34 37  1  0  0  0
 22 23  1  0  0  0
 22 25  1  0  0  0
 22 21  1  0  0  0
 23 24  1  0  0  0
 27 26  1  0  0  0
 27 28  2  0  0  0
 27 31  1  0  0  0
 27 29  1  0  0  0
 25 26  1  0  0  0
 32 33  1  0  0  0
 32 31  1  0  0  0
 29 30  1  0  0  0
 20 21  1  0  0  0
 20  2  1  0  0  0
  1  2  2  0  0  0
  2  3  1  0  0  0
  3  4  1  0  0  0
  4  5  1  0  0  0
  5  6  1  0  0  0
  6  7  1  0  0  0
  7  8  1  0  0  0
  8  9  1  0  0  0
  9 10  1  0  0  0
 10 11  2  0  0  0
 11 12  1  0  0  0
 12 13  1  0  0  0
 13 14  1  0  0  0
 14 15  1  0  0  0
 15 16  1  0  0  0
 16 17  1  0  0  0
 17 18  1  0  0  0
 18 19  1  0  0  0
M  CHG 1  28  -1
M  END
> <minimizedAffinity>
-7.98230

> <CNNscore>
0.6910440326

> <CNNaffinity>
6.5936102867

> <CNN_VS>
4.5564751625

> <CNNaffinity_variance>
0.2515181601

$$$$
/media/chris/experiments/cd1a-new-docking/inputs/ligands/4x6e_ligand.pdb


 37 36  0  0  0  0  0  0  0  0999 V2000
  -40.3557   60.8344   65.7532 O   0  0  0  0  0  0  0  0  0  0  0  0
  -41.0297   59.9214   65.3448 C   0  0  0  0  0  0  0  0  0  0  0  0
  -41.8780   59.0238   66.1923 C   0  0  0  0  0  0  0  0  0  0  0  0
  -43.1552   59.6945   66.6837 C   0  0  0  0  0  0  0  0  0  0  0  0
  -44.4289   58.9417   66.3395 C   0  0  0  0  0  0  0  0  0  0  0  0
  -45.5240   59.0995   67.3795 C   0  0  0  0  0  0  0  0  0  0  0  0
  -46.8359   58.4588   66.9599 C   0  0  0  0  0  0  0  0  0  0  0  0
  -47.2441   58.8560   65.5589 C   0  0  0  0  0  0  0  0  0  0  0  0
  -48.3518   58.0149   64.9578 C   0  0  0  0  0  0  0  0  0  0  0  0
  -49.7135   58.4328   65.3616 C   0  0  0  0  0  0  0  0  0  0  0  0
  -50.4791   59.2978   64.7287 C   0  0  0  0  0  0  0  0  0  0  0  0
  -50.1699   60.0142   63.4544 C   0  0  0  0  0  0  0  0  0  0  0  0
  -51.0984   59.5302   62.3395 C   0  0  0  0  0  0  0  0  0  0  0  0
  -51.0296   58.0412   62.0339 C   0  0  0  0  0  0  0  0  0  0  0  0
  -50.4246   57.6885   60.6805 C   0  0  0  0  0  0  0  0  0  0  0  0
  -49.1259   56.8952   60.7817 C   0  0  0  0  0  0  0  0  0  0  0  0
  -48.6192   56.3768   59.4452 C   0  0  0  0  0  0  0  0  0  0  0  0
  -48.6070   57.3940   58.3140 C   0  0  0  0  0  0  0  0  0  0  0  0
  -47.7263   56.9829   57.1743 C   0  0  0  0  0  0  0  0  0  0  0  0
  -41.1298   59.5790   64.0570 O   0  0  0  0  0  0  0  0  0  0  0  0
  -40.7791   60.5704   63.0666 C   0  0  0  0  0  0  0  0  0  0  0  0
  -39.9303   59.9801   61.9606 C   0  0  0  0  0  0  0  0  0  0  0  0
  -40.4964   60.2573   60.6726 O   0  0  0  0  0  0  0  0  0  0  0  0
  -40.5071   61.2156   60.5235 H   0  0  0  0  0  0  0  0  0  0  0  0
  -38.5028   60.4732   61.9989 C   0  0  0  0  0  0  0  0  0  0  0  0
  -38.2771   61.3831   63.1028 O   0  0  0  0  0  0  0  0  0  0  0  0
  -37.1507   61.4376   64.2449 P   0  0  0  0  0  0  0  0  0  0  0  0
  -36.7937   60.0034   64.6321 O   0  0  0  0  0  0  0  0  0  0  0  0
  -37.7118   62.1196   65.4316 O   0  0  0  0  0  0  0  0  0  0  0  0
  -38.5105   61.6539   65.7247 H   0  0  0  0  0  0  0  0  0  0  0  0
  -35.7918   62.1972   63.7143 O   0  0  0  0  0  0  0  0  0  0  0  0
  -35.6007   63.6350   63.6189 C   0  0  0  0  0  0  0  0  0  0  0  0
  -34.1384   63.9555   63.4318 C   0  0  0  0  0  0  0  0  0  0  0  0
  -33.4310   64.6021   64.6082 N   0  0  0  0  0  0  0  0  0  0  0  0
  -33.1819   66.0512   64.3377 C   0  0  0  0  0  0  0  0  0  0  0  0
  -32.1213   63.9146   64.8144 C   0  0  0  0  0  0  0  0  0  0  0  0
  -34.2601   64.4771   65.8546 C   0  0  0  0  0  0  0  0  0  0  0  0
 34 33  1  0  0  0
 34 35  1  0  0  0
 34 36  1  0  0  0
 34 37  1  0  0  0
 22 23  1  0  0  0
 22 25  1  0  0  0
 22 21  1  0  0  0
 23 24  1  0  0  0
 27 26  1  0  0  0
 27 28  2  0  0  0
 27 31  1  0  0  0
 27 29  1  0  0  0
 25 26  1  0  0  0
 32 33  1  0  0  0
 32 31  1  0  0  0
 29 30  1  0  0  0
 20 21  1  0  0  0
 20  2  1  0  0  0
  1  2  2  0  0  0
  2  3  1  0  0  0
  3  4  1  0  0  0
  4  5  1  0  0  0
  5  6  1  0  0  0
  6  7  1  0  0  0
  7  8  1  0  0  0
  8  9  1  0  0  0
  9 10  1  0  0  0
 10 11  2  0  0  0
 11 12  1  0  0  0
 12 13  1  0  0  0
 13 14  1  0  0  0
 14 15  1  0  0  0
 15 16  1  0  0  0
 16 17  1  0  0  0
 17 18  1  0  0  0
 18 19  1  0  0  0
M  CHG 1  28  -1
M  END
> <minimizedAffinity>
-7.84891

> <CNNscore>
0.6790772676

> <CNNaffinity>
6.3544874191

> <CNN_VS>
4.3151879311

> <CNNaffinity_variance>
0.3298818171

$$$$
/media/chris/experiments/cd1a-new-docking/inputs/ligands/4x6e_ligand.pdb


 37 36  0  0  0  0  0  0  0  0999 V2000
  -42.2815   59.6452   67.1596 O   0  0  0  0  0  0  0  0  0  0  0  0
  -42.2343   58.5974   66.5644 C   0  0  0  0  0  0  0  0  0  0  0  0
  -43.0501   57.3822   66.8830 C   0  0  0  0  0  0  0  0  0  0  0  0
  -44.0349   57.0150   65.7793 C   0  0  0  0  0  0  0  0  0  0  0  0
  -45.3124   57.8369   65.7826 C   0  0  0  0  0  0  0  0  0  0  0  0
  -46.3852   57.2826   66.7034 C   0  0  0  0  0  0  0  0  0  0  0  0
  -47.7516   57.2096   66.0437 C   0  0  0  0  0  0  0  0  0  0  0  0
  -47.9390   58.2839   64.9958 C   0  0  0  0  0  0  0  0  0  0  0  0
  -49.2895   58.9704   65.0248 C   0  0  0  0  0  0  0  0  0  0  0  0
  -49.4577   60.0147   63.9888 C   0  0  0  0  0  0  0  0  0  0  0  0
  -50.2366   59.9381   62.9294 C   0  0  0  0  0  0  0  0  0  0  0  0
  -51.1469   58.8131   62.5573 C   0  0  0  0  0  0  0  0  0  0  0  0
  -50.4237   57.8352   61.6298 C   0  0  0  0  0  0  0  0  0  0  0  0
  -49.7790   58.4581   60.4004 C   0  0  0  0  0  0  0  0  0  0  0  0
  -49.4191   57.4745   59.2934 C   0  0  0  0  0  0  0  0  0  0  0  0
  -48.6028   56.2815   59.7801 C   0  0  0  0  0  0  0  0  0  0  0  0
  -47.4461   55.9160   58.8636 C   0  0  0  0  0  0  0  0  0  0  0  0
  -47.7578   55.9525   57.3750 C   0  0  0  0  0  0  0  0  0  0  0  0
  -47.3097   57.2227   56.7198 C   0  0  0  0  0  0  0  0  0  0  0  0
  -41.4455   58.3668   65.5107 O   0  0  0  0  0  0  0  0  0  0  0  0
  -40.4131   59.3336   65.2171 C   0  0  0  0  0  0  0  0  0  0  0  0
  -40.7576   60.1680   64.0016 C   0  0  0  0  0  0  0  0  0  0  0  0
  -39.8806   61.2965   63.8857 O   0  0  0  0  0  0  0  0  0  0  0  0
  -38.9711   60.9870   63.7526 H   0  0  0  0  0  0  0  0  0  0  0  0
  -40.7205   59.3688   62.7200 C   0  0  0  0  0  0  0  0  0  0  0  0
  -39.4684   58.6578   62.5651 O   0  0  0  0  0  0  0  0  0  0  0  0
  -38.0265   59.1138   62.0272 P   0  0  0  0  0  0  0  0  0  0  0  0
  -38.1305   60.5619   61.5516 O   0  0  0  0  0  0  0  0  0  0  0  0
  -37.6613   58.2643   60.8726 O   0  0  0  0  0  0  0  0  0  0  0  0
  -38.3472   58.3337   60.1902 H   0  0  0  0  0  0  0  0  0  0  0  0
  -36.8871   59.0248   63.2100 O   0  0  0  0  0  0  0  0  0  0  0  0
  -36.7943   59.8937   64.3716 C   0  0  0  0  0  0  0  0  0  0  0  0
  -35.6346   60.8465   64.2188 C   0  0  0  0  0  0  0  0  0  0  0  0
  -35.6757   62.1045   65.0664 N   0  0  0  0  0  0  0  0  0  0  0  0
  -36.2544   61.8102   66.4131 C   0  0  0  0  0  0  0  0  0  0  0  0
  -36.5343   63.1151   64.3793 C   0  0  0  0  0  0  0  0  0  0  0  0
  -34.2934   62.6648   65.2445 C   0  0  0  0  0  0  0  0  0  0  0  0
 34 33  1  0  0  0
 34 35  1  0  0  0
 34 36  1  0  0  0
 34 37  1  0  0  0
 22 23  1  0  0  0
 22 25  1  0  0  0
 22 21  1  0  0  0
 23 24  1  0  0  0
 27 26  1  0  0  0
 27 28  2  0  0  0
 27 31  1  0  0  0
 27 29  1  0  0  0
 25 26  1  0  0  0
 32 33  1  0  0  0
 32 31  1  0  0  0
 29 30  1  0  0  0
 20 21  1  0  0  0
 20  2  1  0  0  0
  1  2  2  0  0  0
  2  3  1  0  0  0
  3  4  1  0  0  0
  4  5  1  0  0  0
  5  6  1  0  0  0
  6  7  1  0  0  0
  7  8  1  0  0  0
  8  9  1  0  0  0
  9 10  1  0  0  0
 10 11  2  0  0  0
 11 12  1  0  0  0
 12 13  1  0  0  0
 13 14  1  0  0  0
 14 15  1  0  0  0
 15 16  1  0  0  0
 16 17  1  0  0  0
 17 18  1  0  0  0
 18 19  1  0  0  0
M  CHG 1  28  -1
M  END
> <minimizedAffinity>
-7.80496

> <CNNscore>
0.6692208648

> <CNNaffinity>
6.7673645020

> <CNN_VS>
4.5288615227

> <CNNaffinity_variance>
0.3253391683

$$$$
/media/chris/experiments/cd1a-new-docking/inputs/ligands/4x6e_ligand.pdb


 37 36  0  0  0  0  0  0  0  0999 V2000
  -41.4180   59.8779   64.7700 O   0  0  0  0  0  0  0  0  0  0  0  0
  -41.1447   60.1904   65.9023 C   0  0  0  0  0  0  0  0  0  0  0  0
  -41.9597   59.8575   67.1141 C   0  0  0  0  0  0  0  0  0  0  0  0
  -43.3793   59.4160   66.7789 C   0  0  0  0  0  0  0  0  0  0  0  0
  -43.5319   57.9218   66.5511 C   0  0  0  0  0  0  0  0  0  0  0  0
  -44.9223   57.5193   66.0924 C   0  0  0  0  0  0  0  0  0  0  0  0
  -45.4053   58.3191   64.8946 C   0  0  0  0  0  0  0  0  0  0  0  0
  -46.6282   59.1489   65.2164 C   0  0  0  0  0  0  0  0  0  0  0  0
  -47.4445   58.6478   66.3905 C   0  0  0  0  0  0  0  0  0  0  0  0
  -48.5333   57.7174   66.0149 C   0  0  0  0  0  0  0  0  0  0  0  0
  -49.7743   58.0517   65.7266 C   0  0  0  0  0  0  0  0  0  0  0  0
  -50.3491   59.4298   65.6732 C   0  0  0  0  0  0  0  0  0  0  0  0
  -50.4745   59.8924   64.2207 C   0  0  0  0  0  0  0  0  0  0  0  0
  -50.1800   58.8312   63.1707 C   0  0  0  0  0  0  0  0  0  0  0  0
  -51.1841   58.7609   62.0266 C   0  0  0  0  0  0  0  0  0  0  0  0
  -51.0791   57.4825   61.2014 C   0  0  0  0  0  0  0  0  0  0  0  0
  -49.6981   57.2463   60.6110 C   0  0  0  0  0  0  0  0  0  0  0  0
  -49.4358   57.9254   59.2751 C   0  0  0  0  0  0  0  0  0  0  0  0
  -48.5732   57.1041   58.3668 C   0  0  0  0  0  0  0  0  0  0  0  0
  -40.0529   60.8787   66.2488 O   0  0  0  0  0  0  0  0  0  0  0  0
  -38.7873   60.1823   66.2443 C   0  0  0  0  0  0  0  0  0  0  0  0
  -37.6331   61.1217   65.9659 C   0  0  0  0  0  0  0  0  0  0  0  0
  -36.8611   61.3554   67.1515 O   0  0  0  0  0  0  0  0  0  0  0  0
  -36.4655   60.5214   67.4495 H   0  0  0  0  0  0  0  0  0  0  0  0
  -36.7268   60.6176   64.8673 C   0  0  0  0  0  0  0  0  0  0  0  0
  -37.4796   60.0846   63.7507 O   0  0  0  0  0  0  0  0  0  0  0  0
  -38.2565   60.7903   62.5364 P   0  0  0  0  0  0  0  0  0  0  0  0
  -37.6564   62.1799   62.3291 O   0  0  0  0  0  0  0  0  0  0  0  0
  -39.6797   60.9432   62.9095 O   0  0  0  0  0  0  0  0  0  0  0  0
  -39.7453   61.4515   63.7331 H   0  0  0  0  0  0  0  0  0  0  0  0
  -38.1002   59.9320   61.1421 O   0  0  0  0  0  0  0  0  0  0  0  0
  -38.2451   58.4921   61.0063 C   0  0  0  0  0  0  0  0  0  0  0  0
  -39.5849   58.1578   60.3986 C   0  0  0  0  0  0  0  0  0  0  0  0
  -40.6553   57.6595   61.3517 N   0  0  0  0  0  0  0  0  0  0  0  0
  -40.0742   57.4056   62.7056 C   0  0  0  0  0  0  0  0  0  0  0  0
  -41.2145   56.3825   60.8161 C   0  0  0  0  0  0  0  0  0  0  0  0
  -41.7586   58.6709   61.4796 C   0  0  0  0  0  0  0  0  0  0  0  0
 34 33  1  0  0  0
 34 35  1  0  0  0
 34 36  1  0  0  0
 34 37  1  0  0  0
 22 23  1  0  0  0
 22 25  1  0  0  0
 22 21  1  0  0  0
 23 24  1  0  0  0
 27 26  1  0  0  0
 27 28  2  0  0  0
 27 31  1  0  0  0
 27 29  1  0  0  0
 25 26  1  0  0  0
 32 33  1  0  0  0
 32 31  1  0  0  0
 29 30  1  0  0  0
 20 21  1  0  0  0
 20  2  1  0  0  0
  1  2  2  0  0  0
  2  3  1  0  0  0
  3  4  1  0  0  0
  4  5  1  0  0  0
  5  6  1  0  0  0
  6  7  1  0  0  0
  7  8  1  0  0  0
  8  9  1  0  0  0
  9 10  1  0  0  0
 10 11  2  0  0  0
 11 12  1  0  0  0
 12 13  1  0  0  0
 13 14  1  0  0  0
 14 15  1  0  0  0
 15 16  1  0  0  0
 16 17  1  0  0  0
 17 18  1  0  0  0
 18 19  1  0  0  0
M  CHG 1  28  -1
M  END
> <minimizedAffinity>
-7.86244

> <CNNscore>
0.6430427432

> <CNNaffinity>
6.8137922287

> <CNN_VS>
4.3815598488

> <CNNaffinity_variance>
0.2747761607

$$$$
