/media/chris/experiments/cd1a-new-docking/inputs/ligands/4x6e_ligand.pdb


 37 36  0  0  0  0  0  0  0  0999 V2000
  -40.8492   56.7719   63.2361 O   0  0  0  0  0  0  0  0  0  0  0  0
  -41.9506   57.2602   63.1815 C   0  0  0  0  0  0  0  0  0  0  0  0
  -42.9794   57.2017   64.2686 C   0  0  0  0  0  0  0  0  0  0  0  0
  -42.4839   57.7680   65.5939 C   0  0  0  0  0  0  0  0  0  0  0  0
  -43.5739   57.9761   66.6313 C   0  0  0  0  0  0  0  0  0  0  0  0
  -44.3114   59.2946   66.4770 C   0  0  0  0  0  0  0  0  0  0  0  0
  -45.8027   59.1158   66.2508 C   0  0  0  0  0  0  0  0  0  0  0  0
  -46.2636   59.7408   64.9529 C   0  0  0  0  0  0  0  0  0  0  0  0
  -47.3886   59.0020   64.2568 C   0  0  0  0  0  0  0  0  0  0  0  0
  -48.3921   58.4239   65.1792 C   0  0  0  0  0  0  0  0  0  0  0  0
  -49.6969   58.5888   65.1081 C   0  0  0  0  0  0  0  0  0  0  0  0
  -50.4555   59.3519   64.0714 C   0  0  0  0  0  0  0  0  0  0  0  0
  -50.8157   58.4352   62.9011 C   0  0  0  0  0  0  0  0  0  0  0  0
  -50.2106   58.8221   61.5596 C   0  0  0  0  0  0  0  0  0  0  0  0
  -50.4539   57.8263   60.4320 C   0  0  0  0  0  0  0  0  0  0  0  0
  -49.6107   58.0947   59.1897 C   0  0  0  0  0  0  0  0  0  0  0  0
  -48.6812   56.9492   58.8214 C   0  0  0  0  0  0  0  0  0  0  0  0
  -48.1018   57.0068   57.4159 C   0  0  0  0  0  0  0  0  0  0  0  0
  -47.0012   56.0137   57.2014 C   0  0  0  0  0  0  0  0  0  0  0  0
  -42.4174   57.9455   62.1336 O   0  0  0  0  0  0  0  0  0  0  0  0
  -41.5348   58.1376   61.0063 C   0  0  0  0  0  0  0  0  0  0  0  0
  -41.4488   59.5951   60.6053 C   0  0  0  0  0  0  0  0  0  0  0  0
  -42.5140   60.3548   61.1921 O   0  0  0  0  0  0  0  0  0  0  0  0
  -42.4314   60.3345   62.1584 H   0  0  0  0  0  0  0  0  0  0  0  0
  -40.1235   60.2206   60.9725 C   0  0  0  0  0  0  0  0  0  0  0  0
  -39.6604   59.7770   62.2710 O   0  0  0  0  0  0  0  0  0  0  0  0
  -39.7606   60.4286   63.7343 P   0  0  0  0  0  0  0  0  0  0  0  0
  -41.1619   61.0139   63.9013 O   0  0  0  0  0  0  0  0  0  0  0  0
  -38.7765   61.5287   63.8315 O   0  0  0  0  0  0  0  0  0  0  0  0
  -38.9442   62.1757   63.1285 H   0  0  0  0  0  0  0  0  0  0  0  0
  -39.5111   59.3069   64.9110 O   0  0  0  0  0  0  0  0  0  0  0  0
  -38.2397   59.0096   65.5499 C   0  0  0  0  0  0  0  0  0  0  0  0
  -37.5041   57.9434   64.7763 C   0  0  0  0  0  0  0  0  0  0  0  0
  -36.1947   58.3572   64.1308 N   0  0  0  0  0  0  0  0  0  0  0  0
  -35.0817   57.4699   64.5883 C   0  0  0  0  0  0  0  0  0  0  0  0
  -35.8894   59.7637   64.5296 C   0  0  0  0  0  0  0  0  0  0  0  0
  -36.2963   58.2752   62.6343 C   0  0  0  0  0  0  0  0  0  0  0  0
 34 33  1  0  0  0
 34 35  1  0  0  0
 34 36  1  0  0  0
 34 37  1  0  0  0
 22 23  1  0  0  0
 22 25  1  0  0  0
 22 21  1  0  0  0
 23 24  1  0  0  0
 27 26  1  0  0  0
 27 28  2  0  0  0
 27 31  1  0  0  0
 27 29  1  0  0  0
 25 26  1  0  0  0
 32 33  1  0  0  0
 32 31  1  0  0  0
 29 30  1  0  0  0
 20 21  1  0  0  0
 20  2  1  0  0  0
  1  2  2  0  0  0
  2  3  1  0  0  0
  3  4  1  0  0  0
  4  5  1  0  0  0
  5  6  1  0  0  0
  6  7  1  0  0  0
  7  8  1  0  0  0
  8  9  1  0  0  0
  9 10  1  0  0  0
 10 11  2  0  0  0
 11 12  1  0  0  0
 12 13  1  0  0  0
 13 14  1  0  0  0
 14 15  1  0  0  0
 15 16  1  0  0  0
 16 17  1  0  0  0
 17 18  1  0  0  0
 18 19  1  0  0  0
M  CHG 1  28  -1
M  END
> <minimizedAffinity>
-7.51788

> <CNNscore>
0.9078089595

> <CNNaffinity>
7.3432159424

> <CNN_VS>
6.6662373543

> <CNNaffinity_variance>
0.5251868963

$$$$
/media/chris/experiments/cd1a-new-docking/inputs/ligands/4x6e_ligand.pdb


 37 36  0  0  0  0  0  0  0  0999 V2000
  -42.2522   55.5645   64.7519 O   0  0  0  0  0  0  0  0  0  0  0  0
  -42.2467   56.6903   65.1847 C   0  0  0  0  0  0  0  0  0  0  0  0
  -43.0340   57.1683   66.3659 C   0  0  0  0  0  0  0  0  0  0  0  0
  -44.4664   57.5532   66.0156 C   0  0  0  0  0  0  0  0  0  0  0  0
  -45.0022   58.7427   66.7937 C   0  0  0  0  0  0  0  0  0  0  0  0
  -46.4710   58.6150   67.1576 C   0  0  0  0  0  0  0  0  0  0  0  0
  -47.1292   57.3922   66.5420 C   0  0  0  0  0  0  0  0  0  0  0  0
  -48.3275   57.7540   65.6930 C   0  0  0  0  0  0  0  0  0  0  0  0
  -48.7741   59.1974   65.8075 C   0  0  0  0  0  0  0  0  0  0  0  0
  -50.2306   59.3941   65.6290 C   0  0  0  0  0  0  0  0  0  0  0  0
  -50.8370   59.7247   64.5075 C   0  0  0  0  0  0  0  0  0  0  0  0
  -50.2079   59.9336   63.1684 C   0  0  0  0  0  0  0  0  0  0  0  0
  -50.3194   58.6594   62.3296 C   0  0  0  0  0  0  0  0  0  0  0  0
  -49.9994   58.8222   60.8508 C   0  0  0  0  0  0  0  0  0  0  0  0
  -50.2660   57.5901   59.9946 C   0  0  0  0  0  0  0  0  0  0  0  0
  -49.3033   56.4389   60.2670 C   0  0  0  0  0  0  0  0  0  0  0  0
  -48.2275   56.2761   59.2049 C   0  0  0  0  0  0  0  0  0  0  0  0
  -48.3061   57.2547   58.0428 C   0  0  0  0  0  0  0  0  0  0  0  0
  -47.8228   56.6642   56.7539 C   0  0  0  0  0  0  0  0  0  0  0  0
  -41.5181   57.6876   64.6749 O   0  0  0  0  0  0  0  0  0  0  0  0
  -41.1197   58.7542   65.5639 C   0  0  0  0  0  0  0  0  0  0  0  0
  -40.1334   59.6940   64.9032 C   0  0  0  0  0  0  0  0  0  0  0  0
  -40.7462   60.9544   64.5999 O   0  0  0  0  0  0  0  0  0  0  0  0
  -41.0217   61.3864   65.4235 H   0  0  0  0  0  0  0  0  0  0  0  0
  -38.8992   59.9243   65.7436 C   0  0  0  0  0  0  0  0  0  0  0  0
  -37.7376   60.2095   64.9271 O   0  0  0  0  0  0  0  0  0  0  0  0
  -36.9474   61.5701   64.6105 P   0  0  0  0  0  0  0  0  0  0  0  0
  -37.3039   62.5913   65.6894 O   0  0  0  0  0  0  0  0  0  0  0  0
  -37.4028   62.0891   63.3023 O   0  0  0  0  0  0  0  0  0  0  0  0
  -38.3640   62.2183   63.3226 H   0  0  0  0  0  0  0  0  0  0  0  0
  -35.3193   61.3365   64.6190 O   0  0  0  0  0  0  0  0  0  0  0  0
  -34.3423   62.1671   65.3033 C   0  0  0  0  0  0  0  0  0  0  0  0
  -33.9448   63.3315   64.4300 C   0  0  0  0  0  0  0  0  0  0  0  0
  -33.2556   64.4927   65.1223 N   0  0  0  0  0  0  0  0  0  0  0  0
  -33.3425   65.7282   64.2848 C   0  0  0  0  0  0  0  0  0  0  0  0
  -31.8177   64.1429   65.3238 C   0  0  0  0  0  0  0  0  0  0  0  0
  -33.8930   64.7646   66.4551 C   0  0  0  0  0  0  0  0  0  0  0  0
 34 33  1  0  0  0
 34 35  1  0  0  0
 34 36  1  0  0  0
 34 37  1  0  0  0
 22 23  1  0  0  0
 22 25  1  0  0  0
 22 21  1  0  0  0
 23 24  1  0  0  0
 27 26  1  0  0  0
 27 28  2  0  0  0
 27 31  1  0  0  0
 27 29  1  0  0  0
 25 26  1  0  0  0
 32 33  1  0  0  0
 32 31  1  0  0  0
 29 30  1  0  0  0
 20 21  1  0  0  0
 20  2  1  0  0  0
  1  2  2  0  0  0
  2  3  1  0  0  0
  3  4  1  0  0  0
  4  5  1  0  0  0
  5  6  1  0  0  0
  6  7  1  0  0  0
  7  8  1  0  0  0
  8  9  1  0  0  0
  9 10  1  0  0  0
 10 11  2  0  0  0
 11 12  1  0  0  0
 12 13  1  0  0  0
 13 14  1  0  0  0
 14 15  1  0  0  0
 15 16  1  0  0  0
 16 17  1  0  0  0
 17 18  1  0  0  0
 18 19  1  0  0  0
M  CHG 1  28  -1
M  END
> <minimizedAffinity>
-8.15572

> <CNNscore>
0.8644211292

> <CNNaffinity>
6.5375266075

> <CNN_VS>
5.6511759758

> <CNNaffinity_variance>
0.1832882464

$$$$
/media/chris/experiments/cd1a-new-docking/inputs/ligands/4x6e_ligand.pdb


 37 36  0  0  0  0  0  0  0  0999 V2000
  -42.1183   55.9875   64.7670 O   0  0  0  0  0  0  0  0  0  0  0  0
  -41.8672   57.0601   65.2580 C   0  0  0  0  0  0  0  0  0  0  0  0
  -42.6605   57.7243   66.3412 C   0  0  0  0  0  0  0  0  0  0  0  0
  -44.1033   58.0072   65.9401 C   0  0  0  0  0  0  0  0  0  0  0  0
  -44.7399   59.1728   66.6773 C   0  0  0  0  0  0  0  0  0  0  0  0
  -46.2193   58.9752   66.9574 C   0  0  0  0  0  0  0  0  0  0  0  0
  -46.5517   57.5662   67.4175 C   0  0  0  0  0  0  0  0  0  0  0  0
  -47.4049   56.8231   66.4138 C   0  0  0  0  0  0  0  0  0  0  0  0
  -48.1225   57.7062   65.4132 C   0  0  0  0  0  0  0  0  0  0  0  0
  -49.5054   58.0614   65.8050 C   0  0  0  0  0  0  0  0  0  0  0  0
  -50.3505   58.7834   65.0984 C   0  0  0  0  0  0  0  0  0  0  0  0
  -50.1252   59.3663   63.7412 C   0  0  0  0  0  0  0  0  0  0  0  0
  -50.7390   58.4620   62.6711 C   0  0  0  0  0  0  0  0  0  0  0  0
  -50.3691   58.8064   61.2358 C   0  0  0  0  0  0  0  0  0  0  0  0
  -50.2819   57.6151   60.2895 C   0  0  0  0  0  0  0  0  0  0  0  0
  -49.0945   56.6998   60.5702 C   0  0  0  0  0  0  0  0  0  0  0  0
  -48.2985   56.3313   59.3283 C   0  0  0  0  0  0  0  0  0  0  0  0
  -48.4674   57.2709   58.1438 C   0  0  0  0  0  0  0  0  0  0  0  0
  -47.8066   56.7606   56.9002 C   0  0  0  0  0  0  0  0  0  0  0  0
  -40.8230   57.8187   64.9121 O   0  0  0  0  0  0  0  0  0  0  0  0
  -40.6595   59.0872   65.5835 C   0  0  0  0  0  0  0  0  0  0  0  0
  -39.4759   59.8592   65.0399 C   0  0  0  0  0  0  0  0  0  0  0  0
  -39.9071   60.9546   64.2212 O   0  0  0  0  0  0  0  0  0  0  0  0
  -40.4144   61.5813   64.7605 H   0  0  0  0  0  0  0  0  0  0  0  0
  -38.5683   60.3747   66.1322 C   0  0  0  0  0  0  0  0  0  0  0  0
  -38.0288   61.6801   65.8123 O   0  0  0  0  0  0  0  0  0  0  0  0
  -36.7152   62.4573   66.3084 P   0  0  0  0  0  0  0  0  0  0  0  0
  -36.4815   62.1102   67.7778 O   0  0  0  0  0  0  0  0  0  0  0  0
  -36.9571   63.9127   66.2014 O   0  0  0  0  0  0  0  0  0  0  0  0
  -37.7421   64.1490   66.7200 H   0  0  0  0  0  0  0  0  0  0  0  0
  -35.3898   62.0134   65.4417 O   0  0  0  0  0  0  0  0  0  0  0  0
  -34.8477   60.6684   65.3414 C   0  0  0  0  0  0  0  0  0  0  0  0
  -35.4941   59.9298   64.1956 C   0  0  0  0  0  0  0  0  0  0  0  0
  -35.2048   58.4433   64.0992 N   0  0  0  0  0  0  0  0  0  0  0  0
  -34.0154   58.0860   64.9317 C   0  0  0  0  0  0  0  0  0  0  0  0
  -34.9188   58.1041   62.6732 C   0  0  0  0  0  0  0  0  0  0  0  0
  -36.3858   57.6451   64.5733 C   0  0  0  0  0  0  0  0  0  0  0  0
 34 33  1  0  0  0
 34 35  1  0  0  0
 34 36  1  0  0  0
 34 37  1  0  0  0
 22 23  1  0  0  0
 22 25  1  0  0  0
 22 21  1  0  0  0
 23 24  1  0  0  0
 27 26  1  0  0  0
 27 28  2  0  0  0
 27 31  1  0  0  0
 27 29  1  0  0  0
 25 26  1  0  0  0
 32 33  1  0  0  0
 32 31  1  0  0  0
 29 30  1  0  0  0
 20 21  1  0  0  0
 20  2  1  0  0  0
  1  2  2  0  0  0
  2  3  1  0  0  0
  3  4  1  0  0  0
  4  5  1  0  0  0
  5  6  1  0  0  0
  6  7  1  0  0  0
  7  8  1  0  0  0
  8  9  1  0  0  0
  9 10  1  0  0  0
 10 11  2  0  0  0
 11 12  1  0  0  0
 12 13  1  0  0  0
 13 14  1  0  0  0
 14 15  1  0  0  0
 15 16  1  0  0  0
 16 17  1  0  0  0
 17 18  1  0  0  0
 18 19  1  0  0  0
M  CHG 1  28  -1
M  END
> <minimizedAffinity>
-8.00032

> <CNNscore>
0.8190337420

> <CNNaffinity>
6.8931984901

> <CNN_VS>
5.6457619667

> <CNNaffinity_variance>
0.1714702547

$$$$
/media/chris/experiments/cd1a-new-docking/inputs/ligands/4x6e_ligand.pdb


 37 36  0  0  0  0  0  0  0  0999 V2000
  -43.0062   59.3328   63.4629 O   0  0  0  0  0  0  0  0  0  0  0  0
  -43.4465   58.5594   64.2769 C   0  0  0  0  0  0  0  0  0  0  0  0
  -44.8952   58.3943   64.6203 C   0  0  0  0  0  0  0  0  0  0  0  0
  -45.8101   59.3096   63.8154 C   0  0  0  0  0  0  0  0  0  0  0  0
  -46.5480   60.3444   64.6473 C   0  0  0  0  0  0  0  0  0  0  0  0
  -46.7892   59.9066   66.0813 C   0  0  0  0  0  0  0  0  0  0  0  0
  -48.2617   59.7164   66.4025 C   0  0  0  0  0  0  0  0  0  0  0  0
  -48.7859   58.3839   65.9155 C   0  0  0  0  0  0  0  0  0  0  0  0
  -50.1961   58.4203   65.3621 C   0  0  0  0  0  0  0  0  0  0  0  0
  -50.5576   59.7026   64.7163 C   0  0  0  0  0  0  0  0  0  0  0  0
  -50.9589   59.8580   63.4715 C   0  0  0  0  0  0  0  0  0  0  0  0
  -51.1777   58.7870   62.4528 C   0  0  0  0  0  0  0  0  0  0  0  0
  -49.8552   58.4290   61.7727 C   0  0  0  0  0  0  0  0  0  0  0  0
  -49.8058   58.6761   60.2720 C   0  0  0  0  0  0  0  0  0  0  0  0
  -49.7879   57.4181   59.4122 C   0  0  0  0  0  0  0  0  0  0  0  0
  -48.8573   56.3318   59.9414 C   0  0  0  0  0  0  0  0  0  0  0  0
  -47.6536   56.0691   59.0503 C   0  0  0  0  0  0  0  0  0  0  0  0
  -47.9347   56.0828   57.5552 C   0  0  0  0  0  0  0  0  0  0  0  0
  -47.2523   57.2127   56.8473 C   0  0  0  0  0  0  0  0  0  0  0  0
  -42.6980   57.7156   64.9933 O   0  0  0  0  0  0  0  0  0  0  0  0
  -42.2009   58.1730   66.2702 C   0  0  0  0  0  0  0  0  0  0  0  0
  -42.3859   59.6661   66.4401 C   0  0  0  0  0  0  0  0  0  0  0  0
  -43.1285   59.9613   67.6308 O   0  0  0  0  0  0  0  0  0  0  0  0
  -42.6292   59.6603   68.4061 H   0  0  0  0  0  0  0  0  0  0  0  0
  -41.0735   60.4138   66.4677 C   0  0  0  0  0  0  0  0  0  0  0  0
  -40.0035   59.6455   65.8658 O   0  0  0  0  0  0  0  0  0  0  0  0
  -39.3216   59.6962   64.4138 P   0  0  0  0  0  0  0  0  0  0  0  0
  -39.2251   61.1587   63.9826 O   0  0  0  0  0  0  0  0  0  0  0  0
  -40.1923   58.9798   63.4563 O   0  0  0  0  0  0  0  0  0  0  0  0
  -41.0762   59.3792   63.4616 H   0  0  0  0  0  0  0  0  0  0  0  0
  -37.8097   59.0492   64.4359 O   0  0  0  0  0  0  0  0  0  0  0  0
  -36.6272   59.6646   65.0155 C   0  0  0  0  0  0  0  0  0  0  0  0
  -35.6425   60.0256   63.9309 C   0  0  0  0  0  0  0  0  0  0  0  0
  -34.5047   59.0491   63.6972 N   0  0  0  0  0  0  0  0  0  0  0  0
  -34.1117   58.3863   64.9784 C   0  0  0  0  0  0  0  0  0  0  0  0
  -33.3319   59.8024   63.1606 C   0  0  0  0  0  0  0  0  0  0  0  0
  -34.9117   57.9929   62.7097 C   0  0  0  0  0  0  0  0  0  0  0  0
 34 33  1  0  0  0
 34 35  1  0  0  0
 34 36  1  0  0  0
 34 37  1  0  0  0
 22 23  1  0  0  0
 22 25  1  0  0  0
 22 21  1  0  0  0
 23 24  1  0  0  0
 27 26  1  0  0  0
 27 28  2  0  0  0
 27 31  1  0  0  0
 27 29  1  0  0  0
 25 26  1  0  0  0
 32 33  1  0  0  0
 32 31  1  0  0  0
 29 30  1  0  0  0
 20 21  1  0  0  0
 20  2  1  0  0  0
  1  2  2  0  0  0
  2  3  1  0  0  0
  3  4  1  0  0  0
  4  5  1  0  0  0
  5  6  1  0  0  0
  6  7  1  0  0  0
  7  8  1  0  0  0
  8  9  1  0  0  0
  9 10  1  0  0  0
 10 11  2  0  0  0
 11 12  1  0  0  0
 12 13  1  0  0  0
 13 14  1  0  0  0
 14 15  1  0  0  0
 15 16  1  0  0  0
 16 17  1  0  0  0
 17 18  1  0  0  0
 18 19  1  0  0  0
M  CHG 1  28  -1
M  END
> <minimizedAffinity>
-7.54636

> <CNNscore>
0.6712344885

> <CNNaffinity>
6.5250563622

> <CNN_VS>
4.3798427582

> <CNNaffinity_variance>
0.1148451194

$$$$
/media/chris/experiments/cd1a-new-docking/inputs/ligands/4x6e_ligand.pdb


 37 36  0  0  0  0  0  0  0  0999 V2000
  -41.1227   60.9285   66.0586 O   0  0  0  0  0  0  0  0  0  0  0  0
  -41.1920   59.7390   66.2453 C   0  0  0  0  0  0  0  0  0  0  0  0
  -42.3599   59.0237   66.8521 C   0  0  0  0  0  0  0  0  0  0  0  0
  -43.7047   59.5668   66.3839 C   0  0  0  0  0  0  0  0  0  0  0  0
  -44.1132   59.1106   64.9937 C   0  0  0  0  0  0  0  0  0  0  0  0
  -45.5086   58.5140   64.9391 C   0  0  0  0  0  0  0  0  0  0  0  0
  -45.7204   57.4092   65.9598 C   0  0  0  0  0  0  0  0  0  0  0  0
  -47.0024   57.5906   66.7416 C   0  0  0  0  0  0  0  0  0  0  0  0
  -48.2654   57.5642   65.9048 C   0  0  0  0  0  0  0  0  0  0  0  0
  -49.0386   58.8263   65.9397 C   0  0  0  0  0  0  0  0  0  0  0  0
  -49.4200   59.5314   64.8947 C   0  0  0  0  0  0  0  0  0  0  0  0
  -49.1989   59.2027   63.4540 C   0  0  0  0  0  0  0  0  0  0  0  0
  -50.1849   58.1241   63.0026 C   0  0  0  0  0  0  0  0  0  0  0  0
  -50.9064   58.4070   61.6930 C   0  0  0  0  0  0  0  0  0  0  0  0
  -50.6050   57.4261   60.5665 C   0  0  0  0  0  0  0  0  0  0  0  0
  -49.1590   57.4781   60.0840 C   0  0  0  0  0  0  0  0  0  0  0  0
  -48.5700   56.1128   59.7666 C   0  0  0  0  0  0  0  0  0  0  0  0
  -48.0113   55.9554   58.3603 C   0  0  0  0  0  0  0  0  0  0  0  0
  -48.0192   57.2378   57.5864 C   0  0  0  0  0  0  0  0  0  0  0  0
  -40.2292   58.8704   65.9225 O   0  0  0  0  0  0  0  0  0  0  0  0
  -40.4461   58.0190   64.7758 C   0  0  0  0  0  0  0  0  0  0  0  0
  -39.1595   57.7584   64.0215 C   0  0  0  0  0  0  0  0  0  0  0  0
  -39.2288   58.2812   62.6881 O   0  0  0  0  0  0  0  0  0  0  0  0
  -39.3313   59.2451   62.7237 H   0  0  0  0  0  0  0  0  0  0  0  0
  -37.9496   58.3296   64.7232 C   0  0  0  0  0  0  0  0  0  0  0  0
  -37.4868   59.5481   64.0921 O   0  0  0  0  0  0  0  0  0  0  0  0
  -37.9497   61.0787   64.2288 P   0  0  0  0  0  0  0  0  0  0  0  0
  -37.8959   61.4636   65.7064 O   0  0  0  0  0  0  0  0  0  0  0  0
  -39.3491   61.1939   63.7632 O   0  0  0  0  0  0  0  0  0  0  0  0
  -39.9111   60.5924   64.2763 H   0  0  0  0  0  0  0  0  0  0  0  0
  -36.9609   62.0845   63.3828 O   0  0  0  0  0  0  0  0  0  0  0  0
  -36.3416   63.2975   63.8909 C   0  0  0  0  0  0  0  0  0  0  0  0
  -34.9681   62.9928   64.4359 C   0  0  0  0  0  0  0  0  0  0  0  0
  -34.6119   63.6279   65.7672 N   0  0  0  0  0  0  0  0  0  0  0  0
  -35.8488   64.0439   66.4968 C   0  0  0  0  0  0  0  0  0  0  0  0
  -33.7706   64.8349   65.5103 C   0  0  0  0  0  0  0  0  0  0  0  0
  -33.8458   62.6606   66.6238 C   0  0  0  0  0  0  0  0  0  0  0  0
 34 33  1  0  0  0
 34 35  1  0  0  0
 34 36  1  0  0  0
 34 37  1  0  0  0
 22 23  1  0  0  0
 22 25  1  0  0  0
 22 21  1  0  0  0
 23 24  1  0  0  0
 27 26  1  0  0  0
 27 28  2  0  0  0
 27 31  1  0  0  0
 27 29  1  0  0  0
 25 26  1  0  0  0
 32 33  1  0  0  0
 32 31  1  0  0  0
 29 30  1  0  0  0
 20 21  1  0  0  0
 20  2  1  0  0  0
  1  2  2  0  0  0
  2  3  1  0  0  0
  3  4  1  0  0  0
  4  5  1  0  0  0
  5  6  1  0  0  0
  6  7  1  0  0  0
  7  8  1  0  0  0
  8  9  1  0  0  0
  9 10  1  0  0  0
 10 11  2  0  0  0
 11 12  1  0  0  0
 12 13  1  0  0  0
 13 14  1  0  0  0
 14 15  1  0  0  0
 15 16  1  0  0  0
 16 17  1  0  0  0
 17 18  1  0  0  0
 18 19  1  0  0  0
M  CHG 1  28  -1
M  END
> <minimizedAffinity>
-7.59817

> <CNNscore>
0.6290107965

> <CNNaffinity>
6.3841524124

> <CNN_VS>
4.0157008171

> <CNNaffinity_variance>
0.0756454095

$$$$
/media/chris/experiments/cd1a-new-docking/inputs/ligands/4x6e_ligand.pdb


 37 36  0  0  0  0  0  0  0  0999 V2000
  -41.7368   61.2131   64.1932 O   0  0  0  0  0  0  0  0  0  0  0  0
  -42.2009   61.0845   63.0875 C   0  0  0  0  0  0  0  0  0  0  0  0
  -43.5799   61.4975   62.6730 C   0  0  0  0  0  0  0  0  0  0  0  0
  -44.6672   60.9763   63.6051 C   0  0  0  0  0  0  0  0  0  0  0  0
  -44.7071   59.4633   63.7346 C   0  0  0  0  0  0  0  0  0  0  0  0
  -45.9353   58.9516   64.4667 C   0  0  0  0  0  0  0  0  0  0  0  0
  -46.2829   59.7806   65.6911 C   0  0  0  0  0  0  0  0  0  0  0  0
  -47.3923   59.1569   66.5082 C   0  0  0  0  0  0  0  0  0  0  0  0
  -48.2610   58.1721   65.7521 C   0  0  0  0  0  0  0  0  0  0  0  0
  -49.6400   58.6507   65.5044 C   0  0  0  0  0  0  0  0  0  0  0  0
  -50.2365   58.7249   64.3325 C   0  0  0  0  0  0  0  0  0  0  0  0
  -49.6812   58.3106   63.0087 C   0  0  0  0  0  0  0  0  0  0  0  0
  -50.7767   58.3510   61.9421 C   0  0  0  0  0  0  0  0  0  0  0  0
  -50.6156   57.3542   60.8037 C   0  0  0  0  0  0  0  0  0  0  0  0
  -50.3214   57.9729   59.4425 C   0  0  0  0  0  0  0  0  0  0  0  0
  -48.9253   57.6542   58.9173 C   0  0  0  0  0  0  0  0  0  0  0  0
  -48.4128   56.2844   59.3330 C   0  0  0  0  0  0  0  0  0  0  0  0
  -47.1405   55.8259   58.6362 C   0  0  0  0  0  0  0  0  0  0  0  0
  -47.2710   55.8078   57.1441 C   0  0  0  0  0  0  0  0  0  0  0  0
  -41.5401   60.5589   62.0518 O   0  0  0  0  0  0  0  0  0  0  0  0
  -40.1007   60.6802   62.0389 C   0  0  0  0  0  0  0  0  0  0  0  0
  -39.4532   59.5718   61.2360 C   0  0  0  0  0  0  0  0  0  0  0  0
  -38.3800   60.0779   60.4308 O   0  0  0  0  0  0  0  0  0  0  0  0
  -37.6860   60.4367   61.0057 H   0  0  0  0  0  0  0  0  0  0  0  0
  -38.9421   58.4476   62.1062 C   0  0  0  0  0  0  0  0  0  0  0  0
  -38.0789   58.9343   63.1623 O   0  0  0  0  0  0  0  0  0  0  0  0
  -38.2002   58.8924   64.7622 P   0  0  0  0  0  0  0  0  0  0  0  0
  -37.8273   57.4876   65.2326 O   0  0  0  0  0  0  0  0  0  0  0  0
  -39.6064   59.1567   65.1377 O   0  0  0  0  0  0  0  0  0  0  0  0
  -40.1836   58.5062   64.7080 H   0  0  0  0  0  0  0  0  0  0  0  0
  -37.1858   59.9756   65.4713 O   0  0  0  0  0  0  0  0  0  0  0  0
  -36.1735   60.7671   64.7919 C   0  0  0  0  0  0  0  0  0  0  0  0
  -35.2361   61.3888   65.7975 C   0  0  0  0  0  0  0  0  0  0  0  0
  -35.0047   62.8834   65.6735 N   0  0  0  0  0  0  0  0  0  0  0  0
  -36.2985   63.6246   65.7825 C   0  0  0  0  0  0  0  0  0  0  0  0
  -34.3960   63.1630   64.3386 C   0  0  0  0  0  0  0  0  0  0  0  0
  -34.0779   63.3642   66.7535 C   0  0  0  0  0  0  0  0  0  0  0  0
 34 33  1  0  0  0
 34 35  1  0  0  0
 34 36  1  0  0  0
 34 37  1  0  0  0
 22 23  1  0  0  0
 22 25  1  0  0  0
 22 21  1  0  0  0
 23 24  1  0  0  0
 27 26  1  0  0  0
 27 28  2  0  0  0
 27 31  1  0  0  0
 27 29  1  0  0  0
 25 26  1  0  0  0
 32 33  1  0  0  0
 32 31  1  0  0  0
 29 30  1  0  0  0
 20 21  1  0  0  0
 20  2  1  0  0  0
  1  2  2  0  0  0
  2  3  1  0  0  0
  3  4  1  0  0  0
  4  5  1  0  0  0
  5  6  1  0  0  0
  6  7  1  0  0  0
  7  8  1  0  0  0
  8  9  1  0  0  0
  9 10  1  0  0  0
 10 11  2  0  0  0
 11 12  1  0  0  0
 12 13  1  0  0  0
 13 14  1  0  0  0
 14 15  1  0  0  0
 15 16  1  0  0  0
 16 17  1  0  0  0
 17 18  1  0  0  0
 18 19  1  0  0  0
M  CHG 1  28  -1
M  END
> <minimizedAffinity>
-7.89822

> <CNNscore>
0.5955365300

> <CNNaffinity>
6.4508452415

> <CNN_VS>
3.8417139053

> <CNNaffinity_variance>
0.3048602343

$$$$
/media/chris/experiments/cd1a-new-docking/inputs/ligands/4x6e_ligand.pdb


 37 36  0  0  0  0  0  0  0  0999 V2000
  -42.6029   56.1590   65.2099 O   0  0  0  0  0  0  0  0  0  0  0  0
  -41.8715   57.0614   64.8855 C   0  0  0  0  0  0  0  0  0  0  0  0
  -41.7012   58.3494   65.6310 C   0  0  0  0  0  0  0  0  0  0  0  0
  -42.4009   58.3554   66.9849 C   0  0  0  0  0  0  0  0  0  0  0  0
  -43.4618   59.4322   67.1354 C   0  0  0  0  0  0  0  0  0  0  0  0
  -44.3276   59.6044   65.8997 C   0  0  0  0  0  0  0  0  0  0  0  0
  -45.7854   59.2551   66.1450 C   0  0  0  0  0  0  0  0  0  0  0  0
  -46.0156   57.7610   66.1917 C   0  0  0  0  0  0  0  0  0  0  0  0
  -47.4630   57.3368   66.0457 C   0  0  0  0  0  0  0  0  0  0  0  0
  -48.4233   58.4635   66.0318 C   0  0  0  0  0  0  0  0  0  0  0  0
  -49.1682   58.8352   65.0113 C   0  0  0  0  0  0  0  0  0  0  0  0
  -49.2443   58.1892   63.6661 C   0  0  0  0  0  0  0  0  0  0  0  0
  -50.6097   58.4559   63.0303 C   0  0  0  0  0  0  0  0  0  0  0  0
  -50.5822   58.8073   61.5500 C   0  0  0  0  0  0  0  0  0  0  0  0
  -50.6777   57.6168   60.6034 C   0  0  0  0  0  0  0  0  0  0  0  0
  -50.0041   57.8545   59.2558 C   0  0  0  0  0  0  0  0  0  0  0  0
  -48.7772   56.9871   59.0231 C   0  0  0  0  0  0  0  0  0  0  0  0
  -48.0962   57.1702   57.6751 C   0  0  0  0  0  0  0  0  0  0  0  0
  -47.1933   56.0285   57.3218 C   0  0  0  0  0  0  0  0  0  0  0  0
  -41.0851   57.0399   63.8054 O   0  0  0  0  0  0  0  0  0  0  0  0
  -41.5454   56.3035   62.6510 C   0  0  0  0  0  0  0  0  0  0  0  0
  -41.6633   57.1925   61.4311 C   0  0  0  0  0  0  0  0  0  0  0  0
  -42.0700   58.5181   61.7967 O   0  0  0  0  0  0  0  0  0  0  0  0
  -41.3910   58.9206   62.3605 H   0  0  0  0  0  0  0  0  0  0  0  0
  -40.3798   57.2614   60.6371 C   0  0  0  0  0  0  0  0  0  0  0  0
  -39.3005   57.8424   61.4084 O   0  0  0  0  0  0  0  0  0  0  0  0
  -38.0454   58.7531   60.9944 P   0  0  0  0  0  0  0  0  0  0  0  0
  -37.8112   58.5896   59.4936 O   0  0  0  0  0  0  0  0  0  0  0  0
  -36.8483   58.2652   61.7134 O   0  0  0  0  0  0  0  0  0  0  0  0
  -36.7067   57.3280   61.5069 H   0  0  0  0  0  0  0  0  0  0  0  0
  -38.3220   60.3419   61.3176 O   0  0  0  0  0  0  0  0  0  0  0  0
  -38.3928   60.9435   62.6389 C   0  0  0  0  0  0  0  0  0  0  0  0
  -38.9191   59.9443   63.6394 C   0  0  0  0  0  0  0  0  0  0  0  0
  -38.0521   59.6849   64.8575 N   0  0  0  0  0  0  0  0  0  0  0  0
  -38.6299   60.3533   66.0636 C   0  0  0  0  0  0  0  0  0  0  0  0
  -36.6897   60.2403   64.6006 C   0  0  0  0  0  0  0  0  0  0  0  0
  -37.9462   58.2104   65.1241 C   0  0  0  0  0  0  0  0  0  0  0  0
 34 33  1  0  0  0
 34 35  1  0  0  0
 34 36  1  0  0  0
 34 37  1  0  0  0
 22 23  1  0  0  0
 22 25  1  0  0  0
 22 21  1  0  0  0
 23 24  1  0  0  0
 27 26  1  0  0  0
 27 28  2  0  0  0
 27 31  1  0  0  0
 27 29  1  0  0  0
 25 26  1  0  0  0
 32 33  1  0  0  0
 32 31  1  0  0  0
 29 30  1  0  0  0
 20 21  1  0  0  0
 20  2  1  0  0  0
  1  2  2  0  0  0
  2  3  1  0  0  0
  3  4  1  0  0  0
  4  5  1  0  0  0
  5  6  1  0  0  0
  6  7  1  0  0  0
  7  8  1  0  0  0
  8  9  1  0  0  0
  9 10  1  0  0  0
 10 11  2  0  0  0
 11 12  1  0  0  0
 12 13  1  0  0  0
 13 14  1  0  0  0
 14 15  1  0  0  0
 15 16  1  0  0  0
 16 17  1  0  0  0
 17 18  1  0  0  0
 18 19  1  0  0  0
M  CHG 1  28  -1
M  END
> <minimizedAffinity>
-7.76968

> <CNNscore>
0.5942171216

> <CNNaffinity>
6.7923202515

> <CNN_VS>
4.0361127853

> <CNNaffinity_variance>
0.1643686742

$$$$
/media/chris/experiments/cd1a-new-docking/inputs/ligands/4x6e_ligand.pdb


 37 36  0  0  0  0  0  0  0  0999 V2000
  -41.7752   56.5683   63.5131 O   0  0  0  0  0  0  0  0  0  0  0  0
  -42.3062   57.6512   63.5087 C   0  0  0  0  0  0  0  0  0  0  0  0
  -43.6676   57.9510   64.0567 C   0  0  0  0  0  0  0  0  0  0  0  0
  -43.9724   57.2013   65.3481 C   0  0  0  0  0  0  0  0  0  0  0  0
  -44.7747   58.0006   66.3604 C   0  0  0  0  0  0  0  0  0  0  0  0
  -45.0682   59.4217   65.9126 C   0  0  0  0  0  0  0  0  0  0  0  0
  -46.4750   59.8744   66.2637 C   0  0  0  0  0  0  0  0  0  0  0  0
  -47.3538   60.0119   65.0405 C   0  0  0  0  0  0  0  0  0  0  0  0
  -47.9519   58.7131   64.5392 C   0  0  0  0  0  0  0  0  0  0  0  0
  -49.2624   58.3800   65.1422 C   0  0  0  0  0  0  0  0  0  0  0  0
  -50.4435   58.7122   64.6631 C   0  0  0  0  0  0  0  0  0  0  0  0
  -50.7287   59.4546   63.3982 C   0  0  0  0  0  0  0  0  0  0  0  0
  -50.9944   58.4701   62.2582 C   0  0  0  0  0  0  0  0  0  0  0  0
  -49.9318   58.4309   61.1696 C   0  0  0  0  0  0  0  0  0  0  0  0
  -49.9123   57.1566   60.3341 C   0  0  0  0  0  0  0  0  0  0  0  0
  -48.9176   57.2009   59.1787 C   0  0  0  0  0  0  0  0  0  0  0  0
  -47.9882   55.9988   59.1245 C   0  0  0  0  0  0  0  0  0  0  0  0
  -47.1793   55.8581   57.8437 C   0  0  0  0  0  0  0  0  0  0  0  0
  -47.4271   56.9742   56.8759 C   0  0  0  0  0  0  0  0  0  0  0  0
  -41.7455   58.7608   63.0189 O   0  0  0  0  0  0  0  0  0  0  0  0
  -40.5720   58.6137   62.1895 C   0  0  0  0  0  0  0  0  0  0  0  0
  -39.3204   59.0779   62.9039 C   0  0  0  0  0  0  0  0  0  0  0  0
  -39.6115   60.1524   63.8079 O   0  0  0  0  0  0  0  0  0  0  0  0
  -40.2168   59.8392   64.4981 H   0  0  0  0  0  0  0  0  0  0  0  0
  -38.6330   57.9615   63.6546 C   0  0  0  0  0  0  0  0  0  0  0  0
  -37.4174   58.4146   64.2984 O   0  0  0  0  0  0  0  0  0  0  0  0
  -35.8682   58.2707   63.9046 P   0  0  0  0  0  0  0  0  0  0  0  0
  -35.7324   58.5169   62.4030 O   0  0  0  0  0  0  0  0  0  0  0  0
  -35.4318   56.8877   64.1961 O   0  0  0  0  0  0  0  0  0  0  0  0
  -35.9939   56.2625   63.7122 H   0  0  0  0  0  0  0  0  0  0  0  0
  -34.9390   59.3650   64.7073 O   0  0  0  0  0  0  0  0  0  0  0  0
  -34.6201   60.7086   64.2536 C   0  0  0  0  0  0  0  0  0  0  0  0
  -34.9043   61.7092   65.3465 C   0  0  0  0  0  0  0  0  0  0  0  0
  -36.3101   62.2787   65.3942 N   0  0  0  0  0  0  0  0  0  0  0  0
  -36.3059   63.6315   66.0308 C   0  0  0  0  0  0  0  0  0  0  0  0
  -37.1686   61.3636   66.2041 C   0  0  0  0  0  0  0  0  0  0  0  0
  -36.8777   62.3967   64.0084 C   0  0  0  0  0  0  0  0  0  0  0  0
 34 33  1  0  0  0
 34 35  1  0  0  0
 34 36  1  0  0  0
 34 37  1  0  0  0
 22 23  1  0  0  0
 22 25  1  0  0  0
 22 21  1  0  0  0
 23 24  1  0  0  0
 27 26  1  0  0  0
 27 28  2  0  0  0
 27 31  1  0  0  0
 27 29  1  0  0  0
 25 26  1  0  0  0
 32 33  1  0  0  0
 32 31  1  0  0  0
 29 30  1  0  0  0
 20 21  1  0  0  0
 20  2  1  0  0  0
  1  2  2  0  0  0
  2  3  1  0  0  0
  3  4  1  0  0  0
  4  5  1  0  0  0
  5  6  1  0  0  0
  6  7  1  0  0  0
  7  8  1  0  0  0
  8  9  1  0  0  0
  9 10  1  0  0  0
 10 11  2  0  0  0
 11 12  1  0  0  0
 12 13  1  0  0  0
 13 14  1  0  0  0
 14 15  1  0  0  0
 15 16  1  0  0  0
 16 17  1  0  0  0
 17 18  1  0  0  0
 18 19  1  0  0  0
M  CHG 1  28  -1
M  END
> <minimizedAffinity>
-7.59490

> <CNNscore>
0.5937818289

> <CNNaffinity>
6.6851263046

> <CNN_VS>
3.9695065022

> <CNNaffinity_variance>
0.3086203933

$$$$
/media/chris/experiments/cd1a-new-docking/inputs/ligands/4x6e_ligand.pdb


 37 36  0  0  0  0  0  0  0  0999 V2000
  -41.5119   61.2033   64.4787 O   0  0  0  0  0  0  0  0  0  0  0  0
  -40.7578   60.5086   65.1137 C   0  0  0  0  0  0  0  0  0  0  0  0
  -41.1345   59.6871   66.3083 C   0  0  0  0  0  0  0  0  0  0  0  0
  -42.5071   60.0392   66.8692 C   0  0  0  0  0  0  0  0  0  0  0  0
  -43.5125   58.9015   66.8213 C   0  0  0  0  0  0  0  0  0  0  0  0
  -44.8677   59.3152   66.2749 C   0  0  0  0  0  0  0  0  0  0  0  0
  -44.7898   59.8886   64.8704 C   0  0  0  0  0  0  0  0  0  0  0  0
  -46.0761   60.5690   64.4581 C   0  0  0  0  0  0  0  0  0  0  0  0
  -47.3396   59.8387   64.8660 C   0  0  0  0  0  0  0  0  0  0  0  0
  -47.6869   58.6979   63.9884 C   0  0  0  0  0  0  0  0  0  0  0  0
  -48.8996   58.3546   63.6061 C   0  0  0  0  0  0  0  0  0  0  0  0
  -50.1804   59.0517   63.9318 C   0  0  0  0  0  0  0  0  0  0  0  0
  -51.0962   59.0701   62.7068 C   0  0  0  0  0  0  0  0  0  0  0  0
  -50.3944   58.9149   61.3656 C   0  0  0  0  0  0  0  0  0  0  0  0
  -50.7303   57.6367   60.6069 C   0  0  0  0  0  0  0  0  0  0  0  0
  -49.5134   56.7657   60.3119 C   0  0  0  0  0  0  0  0  0  0  0  0
  -48.8181   57.1080   59.0038 C   0  0  0  0  0  0  0  0  0  0  0  0
  -47.7527   56.1194   58.5543 C   0  0  0  0  0  0  0  0  0  0  0  0
  -47.3809   56.2834   57.1126 C   0  0  0  0  0  0  0  0  0  0  0  0
  -39.4599   60.3575   64.8339 O   0  0  0  0  0  0  0  0  0  0  0  0
  -38.5425   60.2235   65.9417 C   0  0  0  0  0  0  0  0  0  0  0  0
  -37.5042   61.3255   65.9444 C   0  0  0  0  0  0  0  0  0  0  0  0
  -36.9189   61.4790   67.2444 O   0  0  0  0  0  0  0  0  0  0  0  0
  -36.4503   60.6648   67.4861 H   0  0  0  0  0  0  0  0  0  0  0  0
  -36.4126   61.0966   64.9253 C   0  0  0  0  0  0  0  0  0  0  0  0
  -36.0669   59.6948   64.8126 O   0  0  0  0  0  0  0  0  0  0  0  0
  -35.9769   58.7020   63.5547 P   0  0  0  0  0  0  0  0  0  0  0  0
  -36.3644   57.3006   64.0238 O   0  0  0  0  0  0  0  0  0  0  0  0
  -34.5773   58.6682   63.0771 O   0  0  0  0  0  0  0  0  0  0  0  0
  -33.9944   58.3958   63.8031 H   0  0  0  0  0  0  0  0  0  0  0  0
  -37.0007   59.1602   62.3518 O   0  0  0  0  0  0  0  0  0  0  0  0
  -37.5396   58.2955   61.3151 C   0  0  0  0  0  0  0  0  0  0  0  0
  -38.7583   58.9280   60.6899 C   0  0  0  0  0  0  0  0  0  0  0  0
  -40.1058   58.4350   61.1840 N   0  0  0  0  0  0  0  0  0  0  0  0
  -39.9524   57.6983   62.4759 C   0  0  0  0  0  0  0  0  0  0  0  0
  -40.6791   57.5089   60.1621 C   0  0  0  0  0  0  0  0  0  0  0  0
  -41.0447   59.5889   61.3922 C   0  0  0  0  0  0  0  0  0  0  0  0
 34 33  1  0  0  0
 34 35  1  0  0  0
 34 36  1  0  0  0
 34 37  1  0  0  0
 22 23  1  0  0  0
 22 25  1  0  0  0
 22 21  1  0  0  0
 23 24  1  0  0  0
 27 26  1  0  0  0
 27 28  2  0  0  0
 27 31  1  0  0  0
 27 29  1  0  0  0
 25 26  1  0  0  0
 32 33  1  0  0  0
 32 31  1  0  0  0
 29 30  1  0  0  0
 20 21  1  0  0  0
 20  2  1  0  0  0
  1  2  2  0  0  0
  2  3  1  0  0  0
  3  4  1  0  0  0
  4  5  1  0  0  0
  5  6  1  0  0  0
  6  7  1  0  0  0
  7  8  1  0  0  0
  8  9  1  0  0  0
  9 10  1  0  0  0
 10 11  2  0  0  0
 11 12  1  0  0  0
 12 13  1  0  0  0
 13 14  1  0  0  0
 14 15  1  0  0  0
 15 16  1  0  0  0
 16 17  1  0  0  0
 17 18  1  0  0  0
 18 19  1  0  0  0
M  CHG 1  28  -1
M  END
> <minimizedAffinity>
-7.83580

> <CNNscore>
0.5742377043

> <CNNaffinity>
6.7984147072

> <CNN_VS>
3.9039061069

> <CNNaffinity_variance>
0.2017408311

$$$$
