/media/chris/experiments/cd1a-new-docking/inputs/ligands/4x6e_ligand.pdb


 37 36  0  0  0  0  0  0  0  0999 V2000
  -43.4822   60.7386   63.0918 O   0  0  0  0  0  0  0  0  0  0  0  0
  -43.2436   59.5799   63.3262 C   0  0  0  0  0  0  0  0  0  0  0  0
  -44.2582   58.5463   63.7085 C   0  0  0  0  0  0  0  0  0  0  0  0
  -44.2357   58.2049   65.1936 C   0  0  0  0  0  0  0  0  0  0  0  0
  -44.9312   59.2239   66.0798 C   0  0  0  0  0  0  0  0  0  0  0  0
  -46.0204   58.6237   66.9513 C   0  0  0  0  0  0  0  0  0  0  0  0
  -46.3628   57.1937   66.5700 C   0  0  0  0  0  0  0  0  0  0  0  0
  -47.8282   57.0263   66.2351 C   0  0  0  0  0  0  0  0  0  0  0  0
  -48.3439   57.9593   65.1582 C   0  0  0  0  0  0  0  0  0  0  0  0
  -49.7684   58.3313   65.3139 C   0  0  0  0  0  0  0  0  0  0  0  0
  -50.4513   59.1341   64.5240 C   0  0  0  0  0  0  0  0  0  0  0  0
  -49.9634   59.8109   63.2843 C   0  0  0  0  0  0  0  0  0  0  0  0
  -50.8442   59.4282   62.0939 C   0  0  0  0  0  0  0  0  0  0  0  0
  -50.8789   57.9442   61.7590 C   0  0  0  0  0  0  0  0  0  0  0  0
  -50.3157   57.5792   60.3908 C   0  0  0  0  0  0  0  0  0  0  0  0
  -49.4177   56.3465   60.4108 C   0  0  0  0  0  0  0  0  0  0  0  0
  -48.3135   56.3764   59.3660 C   0  0  0  0  0  0  0  0  0  0  0  0
  -48.5627   57.2971   58.1809 C   0  0  0  0  0  0  0  0  0  0  0  0
  -47.5804   57.0901   57.0693 C   0  0  0  0  0  0  0  0  0  0  0  0
  -42.0241   59.0370   63.2662 O   0  0  0  0  0  0  0  0  0  0  0  0
  -41.0798   59.6022   62.3305 C   0  0  0  0  0  0  0  0  0  0  0  0
  -40.0116   60.4121   63.0343 C   0  0  0  0  0  0  0  0  0  0  0  0
  -39.5632   59.7499   64.2246 O   0  0  0  0  0  0  0  0  0  0  0  0
  -39.1504   58.9045   63.9882 H   0  0  0  0  0  0  0  0  0  0  0  0
  -38.8260   60.7056   62.1454 C   0  0  0  0  0  0  0  0  0  0  0  0
  -37.6026   60.8440   62.9079 O   0  0  0  0  0  0  0  0  0  0  0  0
  -37.0016   62.0528   63.7758 P   0  0  0  0  0  0  0  0  0  0  0  0
  -37.6281   61.9984   65.1682 O   0  0  0  0  0  0  0  0  0  0  0  0
  -37.3846   63.3310   63.1371 O   0  0  0  0  0  0  0  0  0  0  0  0
  -38.3505   63.3777   63.0608 H   0  0  0  0  0  0  0  0  0  0  0  0
  -35.3680   61.9330   63.9246 O   0  0  0  0  0  0  0  0  0  0  0  0
  -34.5463   62.6355   64.8963 C   0  0  0  0  0  0  0  0  0  0  0  0
  -34.1754   64.0019   64.3748 C   0  0  0  0  0  0  0  0  0  0  0  0
  -33.1956   64.8029   65.2120 N   0  0  0  0  0  0  0  0  0  0  0  0
  -33.7408   65.0263   66.5860 C   0  0  0  0  0  0  0  0  0  0  0  0
  -32.9772   66.1263   64.5552 C   0  0  0  0  0  0  0  0  0  0  0  0
  -31.8835   64.0797   65.3226 C   0  0  0  0  0  0  0  0  0  0  0  0
 34 33  1  0  0  0
 34 35  1  0  0  0
 34 36  1  0  0  0
 34 37  1  0  0  0
 22 23  1  0  0  0
 22 25  1  0  0  0
 22 21  1  0  0  0
 23 24  1  0  0  0
 27 26  1  0  0  0
 27 28  2  0  0  0
 27 31  1  0  0  0
 27 29  1  0  0  0
 25 26  1  0  0  0
 32 33  1  0  0  0
 32 31  1  0  0  0
 29 30  1  0  0  0
 20 21  1  0  0  0
 20  2  1  0  0  0
  1  2  2  0  0  0
  2  3  1  0  0  0
  3  4  1  0  0  0
  4  5  1  0  0  0
  5  6  1  0  0  0
  6  7  1  0  0  0
  7  8  1  0  0  0
  8  9  1  0  0  0
  9 10  1  0  0  0
 10 11  2  0  0  0
 11 12  1  0  0  0
 12 13  1  0  0  0
 13 14  1  0  0  0
 14 15  1  0  0  0
 15 16  1  0  0  0
 16 17  1  0  0  0
 17 18  1  0  0  0
 18 19  1  0  0  0
M  CHG 1  28  -1
M  END
> <minimizedAffinity>
-7.93586

> <CNNscore>
0.6957390308

> <CNNaffinity>
6.3372201920

> <CNN_VS>
4.4090514183

> <CNNaffinity_variance>
0.3487736583

$$$$
/media/chris/experiments/cd1a-new-docking/inputs/ligands/4x6e_ligand.pdb


 37 36  0  0  0  0  0  0  0  0999 V2000
  -41.0671   58.5939   61.8902 O   0  0  0  0  0  0  0  0  0  0  0  0
  -41.3568   59.7592   61.7776 C   0  0  0  0  0  0  0  0  0  0  0  0
  -42.5954   60.2846   61.1192 C   0  0  0  0  0  0  0  0  0  0  0  0
  -42.9214   61.7200   61.5141 C   0  0  0  0  0  0  0  0  0  0  0  0
  -43.7007   61.8498   62.8115 C   0  0  0  0  0  0  0  0  0  0  0  0
  -44.3633   60.5558   63.2506 C   0  0  0  0  0  0  0  0  0  0  0  0
  -45.6158   60.7835   64.0794 C   0  0  0  0  0  0  0  0  0  0  0  0
  -45.6649   59.8904   65.2989 C   0  0  0  0  0  0  0  0  0  0  0  0
  -46.9929   59.8849   66.0287 C   0  0  0  0  0  0  0  0  0  0  0  0
  -47.6427   58.5559   66.0890 C   0  0  0  0  0  0  0  0  0  0  0  0
  -48.4405   58.0405   65.1766 C   0  0  0  0  0  0  0  0  0  0  0  0
  -48.8341   58.6525   63.8714 C   0  0  0  0  0  0  0  0  0  0  0  0
  -50.2509   59.2217   63.9627 C   0  0  0  0  0  0  0  0  0  0  0  0
  -51.1528   58.9192   62.7751 C   0  0  0  0  0  0  0  0  0  0  0  0
  -50.5598   57.9694   61.7413 C   0  0  0  0  0  0  0  0  0  0  0  0
  -49.9954   58.6791   60.5150 C   0  0  0  0  0  0  0  0  0  0  0  0
  -50.1175   57.8738   59.2311 C   0  0  0  0  0  0  0  0  0  0  0  0
  -48.8079   57.3416   58.6689 C   0  0  0  0  0  0  0  0  0  0  0  0
  -48.2337   56.2290   59.4910 C   0  0  0  0  0  0  0  0  0  0  0  0
  -40.6114   60.7668   62.2411 O   0  0  0  0  0  0  0  0  0  0  0  0
  -39.1849   60.5609   62.3381 C   0  0  0  0  0  0  0  0  0  0  0  0
  -38.6110   61.2004   63.5848 C   0  0  0  0  0  0  0  0  0  0  0  0
  -39.4151   60.9018   64.7340 O   0  0  0  0  0  0  0  0  0  0  0  0
  -39.4090   59.9449   64.8931 H   0  0  0  0  0  0  0  0  0  0  0  0
  -37.1836   60.7813   63.8474 C   0  0  0  0  0  0  0  0  0  0  0  0
  -36.2672   61.8980   63.7454 O   0  0  0  0  0  0  0  0  0  0  0  0
  -36.2429   63.3427   64.4442 P   0  0  0  0  0  0  0  0  0  0  0  0
  -36.9658   63.2362   65.7859 O   0  0  0  0  0  0  0  0  0  0  0  0
  -36.9803   64.2963   63.5868 O   0  0  0  0  0  0  0  0  0  0  0  0
  -37.8833   63.9718   63.4445 H   0  0  0  0  0  0  0  0  0  0  0  0
  -34.7034   63.8565   64.7109 O   0  0  0  0  0  0  0  0  0  0  0  0
  -34.0320   63.9058   65.9991 C   0  0  0  0  0  0  0  0  0  0  0  0
  -33.3503   65.2394   66.1812 C   0  0  0  0  0  0  0  0  0  0  0  0
  -32.0305   65.4295   65.4569 N   0  0  0  0  0  0  0  0  0  0  0  0
  -31.0947   66.2543   66.2811 C   0  0  0  0  0  0  0  0  0  0  0  0
  -32.2914   66.1347   64.1666 C   0  0  0  0  0  0  0  0  0  0  0  0
  -31.3875   64.1011   65.1768 C   0  0  0  0  0  0  0  0  0  0  0  0
 34 33  1  0  0  0
 34 35  1  0  0  0
 34 36  1  0  0  0
 34 37  1  0  0  0
 22 23  1  0  0  0
 22 25  1  0  0  0
 22 21  1  0  0  0
 23 24  1  0  0  0
 27 26  1  0  0  0
 27 28  2  0  0  0
 27 31  1  0  0  0
 27 29  1  0  0  0
 25 26  1  0  0  0
 32 33  1  0  0  0
 32 31  1  0  0  0
 29 30  1  0  0  0
 20 21  1  0  0  0
 20  2  1  0  0  0
  1  2  2  0  0  0
  2  3  1  0  0  0
  3  4  1  0  0  0
  4  5  1  0  0  0
  5  6  1  0  0  0
  6  7  1  0  0  0
  7  8  1  0  0  0
  8  9  1  0  0  0
  9 10  1  0  0  0
 10 11  2  0  0  0
 11 12  1  0  0  0
 12 13  1  0  0  0
 13 14  1  0  0  0
 14 15  1  0  0  0
 15 16  1  0  0  0
 16 17  1  0  0  0
 17 18  1  0  0  0
 18 19  1  0  0  0
M  CHG 1  28  -1
M  END
> <minimizedAffinity>
-8.16516

> <CNNscore>
0.5836749077

> <CNNaffinity>
6.1162009239

> <CNN_VS>
3.5698730946

> <CNNaffinity_variance>
0.3422122598

$$$$
/media/chris/experiments/cd1a-new-docking/inputs/ligands/4x6e_ligand.pdb


 37 36  0  0  0  0  0  0  0  0999 V2000
  -42.4687   61.5556   62.0622 O   0  0  0  0  0  0  0  0  0  0  0  0
  -42.5830   60.3680   61.8859 C   0  0  0  0  0  0  0  0  0  0  0  0
  -43.3111   59.4235   62.7923 C   0  0  0  0  0  0  0  0  0  0  0  0
  -44.2246   60.1307   63.7862 C   0  0  0  0  0  0  0  0  0  0  0  0
  -43.9936   59.7391   65.2356 C   0  0  0  0  0  0  0  0  0  0  0  0
  -45.0881   58.8531   65.8041 C   0  0  0  0  0  0  0  0  0  0  0  0
  -46.3183   59.6337   66.2337 C   0  0  0  0  0  0  0  0  0  0  0  0
  -47.5969   59.0233   65.7043 C   0  0  0  0  0  0  0  0  0  0  0  0
  -48.8637   59.7430   66.1204 C   0  0  0  0  0  0  0  0  0  0  0  0
  -50.1076   59.1068   65.6305 C   0  0  0  0  0  0  0  0  0  0  0  0
  -50.6969   59.3425   64.4764 C   0  0  0  0  0  0  0  0  0  0  0  0
  -50.2299   60.2620   63.3951 C   0  0  0  0  0  0  0  0  0  0  0  0
  -50.3348   59.5711   62.0345 C   0  0  0  0  0  0  0  0  0  0  0  0
  -50.8596   58.1432   62.0672 C   0  0  0  0  0  0  0  0  0  0  0  0
  -50.9060   57.4428   60.7145 C   0  0  0  0  0  0  0  0  0  0  0  0
  -49.9324   58.0235   59.6941 C   0  0  0  0  0  0  0  0  0  0  0  0
  -48.8509   57.0487   59.2561 C   0  0  0  0  0  0  0  0  0  0  0  0
  -48.2183   57.3420   57.9040 C   0  0  0  0  0  0  0  0  0  0  0  0
  -47.2858   56.2599   57.4533 C   0  0  0  0  0  0  0  0  0  0  0  0
  -42.0808   59.7128   60.8351 O   0  0  0  0  0  0  0  0  0  0  0  0
  -40.8465   58.9856   61.0212 C   0  0  0  0  0  0  0  0  0  0  0  0
  -39.6484   59.7923   60.5673 C   0  0  0  0  0  0  0  0  0  0  0  0
  -39.4043   60.8946   61.4513 O   0  0  0  0  0  0  0  0  0  0  0  0
  -39.1855   60.5585   62.3345 H   0  0  0  0  0  0  0  0  0  0  0  0
  -38.3963   58.9554   60.4497 C   0  0  0  0  0  0  0  0  0  0  0  0
  -37.4651   59.2257   61.5254 O   0  0  0  0  0  0  0  0  0  0  0  0
  -37.1038   58.4244   62.8683 P   0  0  0  0  0  0  0  0  0  0  0  0
  -35.5862   58.2595   62.9322 O   0  0  0  0  0  0  0  0  0  0  0  0
  -37.7205   57.0816   62.7994 O   0  0  0  0  0  0  0  0  0  0  0  0
  -37.4096   56.6235   62.0028 H   0  0  0  0  0  0  0  0  0  0  0  0
  -37.6055   59.2369   64.2075 O   0  0  0  0  0  0  0  0  0  0  0  0
  -36.7451   59.8149   65.2265 C   0  0  0  0  0  0  0  0  0  0  0  0
  -37.1293   61.2517   65.4798 C   0  0  0  0  0  0  0  0  0  0  0  0
  -36.3626   62.3048   64.7015 N   0  0  0  0  0  0  0  0  0  0  0  0
  -37.1191   62.7043   63.4754 C   0  0  0  0  0  0  0  0  0  0  0  0
  -35.0449   61.7320   64.2940 C   0  0  0  0  0  0  0  0  0  0  0  0
  -36.1345   63.5238   65.5492 C   0  0  0  0  0  0  0  0  0  0  0  0
 34 33  1  0  0  0
 34 35  1  0  0  0
 34 36  1  0  0  0
 34 37  1  0  0  0
 22 23  1  0  0  0
 22 25  1  0  0  0
 22 21  1  0  0  0
 23 24  1  0  0  0
 27 26  1  0  0  0
 27 28  2  0  0  0
 27 31  1  0  0  0
 27 29  1  0  0  0
 25 26  1  0  0  0
 32 33  1  0  0  0
 32 31  1  0  0  0
 29 30  1  0  0  0
 20 21  1  0  0  0
 20  2  1  0  0  0
  1  2  2  0  0  0
  2  3  1  0  0  0
  3  4  1  0  0  0
  4  5  1  0  0  0
  5  6  1  0  0  0
  6  7  1  0  0  0
  7  8  1  0  0  0
  8  9  1  0  0  0
  9 10  1  0  0  0
 10 11  2  0  0  0
 11 12  1  0  0  0
 12 13  1  0  0  0
 13 14  1  0  0  0
 14 15  1  0  0  0
 15 16  1  0  0  0
 16 17  1  0  0  0
 17 18  1  0  0  0
 18 19  1  0  0  0
M  CHG 1  28  -1
M  END
> <minimizedAffinity>
-7.68179

> <CNNscore>
0.5715033412

> <CNNaffinity>
6.7762489319

> <CNN_VS>
3.8726489544

> <CNNaffinity_variance>
0.8927389979

$$$$
/media/chris/experiments/cd1a-new-docking/inputs/ligands/4x6e_ligand.pdb


 37 36  0  0  0  0  0  0  0  0999 V2000
  -42.1295   59.2583   60.7515 O   0  0  0  0  0  0  0  0  0  0  0  0
  -42.0804   60.1337   61.5797 C   0  0  0  0  0  0  0  0  0  0  0  0
  -43.2560   60.9053   62.0960 C   0  0  0  0  0  0  0  0  0  0  0  0
  -43.7221   60.4394   63.4701 C   0  0  0  0  0  0  0  0  0  0  0  0
  -44.2086   59.0009   63.5107 C   0  0  0  0  0  0  0  0  0  0  0  0
  -45.2618   58.7488   64.5752 C   0  0  0  0  0  0  0  0  0  0  0  0
  -46.3868   59.7691   64.5483 C   0  0  0  0  0  0  0  0  0  0  0  0
  -46.9600   60.0251   65.9243 C   0  0  0  0  0  0  0  0  0  0  0  0
  -48.4598   60.2384   65.9577 C   0  0  0  0  0  0  0  0  0  0  0  0
  -49.2495   58.9964   65.7970 C   0  0  0  0  0  0  0  0  0  0  0  0
  -50.2931   58.8371   65.0095 C   0  0  0  0  0  0  0  0  0  0  0  0
  -50.8856   59.8463   64.0803 C   0  0  0  0  0  0  0  0  0  0  0  0
  -50.4473   59.5603   62.6432 C   0  0  0  0  0  0  0  0  0  0  0  0
  -50.8516   58.1988   62.0970 C   0  0  0  0  0  0  0  0  0  0  0  0
  -49.8464   57.5623   61.1447 C   0  0  0  0  0  0  0  0  0  0  0  0
  -49.8748   58.1586   59.7412 C   0  0  0  0  0  0  0  0  0  0  0  0
  -49.0549   57.3769   58.7271 C   0  0  0  0  0  0  0  0  0  0  0  0
  -48.1737   56.2809   59.3075 C   0  0  0  0  0  0  0  0  0  0  0  0
  -47.1255   55.8102   58.3468 C   0  0  0  0  0  0  0  0  0  0  0  0
  -40.9563   60.5413   62.1762 O   0  0  0  0  0  0  0  0  0  0  0  0
  -39.9090   59.5670   62.3785 C   0  0  0  0  0  0  0  0  0  0  0  0
  -38.5407   60.1499   62.0951 C   0  0  0  0  0  0  0  0  0  0  0  0
  -38.4015   60.4879   60.7085 O   0  0  0  0  0  0  0  0  0  0  0  0
  -39.0429   61.1781   60.4779 H   0  0  0  0  0  0  0  0  0  0  0  0
  -38.2411   61.3650   62.9412 C   0  0  0  0  0  0  0  0  0  0  0  0
  -37.3056   61.0632   64.0046 O   0  0  0  0  0  0  0  0  0  0  0  0
  -37.2920   61.4285   65.5674 P   0  0  0  0  0  0  0  0  0  0  0  0
  -36.1592   60.6469   66.2306 O   0  0  0  0  0  0  0  0  0  0  0  0
  -38.5743   60.9976   66.1660 O   0  0  0  0  0  0  0  0  0  0  0  0
  -38.7006   60.0483   66.0112 H   0  0  0  0  0  0  0  0  0  0  0  0
  -37.0384   63.0358   65.8076 O   0  0  0  0  0  0  0  0  0  0  0  0
  -36.1784   63.8922   65.0080 C   0  0  0  0  0  0  0  0  0  0  0  0
  -34.7813   63.9062   65.5776 C   0  0  0  0  0  0  0  0  0  0  0  0
  -33.7089   64.5577   64.7244 N   0  0  0  0  0  0  0  0  0  0  0  0
  -34.2612   64.9366   63.3877 C   0  0  0  0  0  0  0  0  0  0  0  0
  -32.5949   63.5820   64.5306 C   0  0  0  0  0  0  0  0  0  0  0  0
  -33.1783   65.7916   65.3972 C   0  0  0  0  0  0  0  0  0  0  0  0
 34 33  1  0  0  0
 34 35  1  0  0  0
 34 36  1  0  0  0
 34 37  1  0  0  0
 22 23  1  0  0  0
 22 25  1  0  0  0
 22 21  1  0  0  0
 23 24  1  0  0  0
 27 26  1  0  0  0
 27 28  2  0  0  0
 27 31  1  0  0  0
 27 29  1  0  0  0
 25 26  1  0  0  0
 32 33  1  0  0  0
 32 31  1  0  0  0
 29 30  1  0  0  0
 20 21  1  0  0  0
 20  2  1  0  0  0
  1  2  2  0  0  0
  2  3  1  0  0  0
  3  4  1  0  0  0
  4  5  1  0  0  0
  5  6  1  0  0  0
  6  7  1  0  0  0
  7  8  1  0  0  0
  8  9  1  0  0  0
  9 10  1  0  0  0
 10 11  2  0  0  0
 11 12  1  0  0  0
 12 13  1  0  0  0
 13 14  1  0  0  0
 14 15  1  0  0  0
 15 16  1  0  0  0
 16 17  1  0  0  0
 17 18  1  0  0  0
 18 19  1  0  0  0
M  CHG 1  28  -1
M  END
> <minimizedAffinity>
-8.04429

> <CNNscore>
0.5499793291

> <CNNaffinity>
6.2230520248

> <CNN_VS>
3.4225499630

> <CNNaffinity_variance>
0.3291596174

$$$$
/media/chris/experiments/cd1a-new-docking/inputs/ligands/4x6e_ligand.pdb


 37 36  0  0  0  0  0  0  0  0999 V2000
  -42.4253   55.3296   64.8025 O   0  0  0  0  0  0  0  0  0  0  0  0
  -42.3149   56.5269   64.8952 C   0  0  0  0  0  0  0  0  0  0  0  0
  -43.2046   57.4192   65.7051 C   0  0  0  0  0  0  0  0  0  0  0  0
  -44.4392   57.8860   64.9432 C   0  0  0  0  0  0  0  0  0  0  0  0
  -44.6967   59.3808   65.0260 C   0  0  0  0  0  0  0  0  0  0  0  0
  -45.6917   59.8808   63.9935 C   0  0  0  0  0  0  0  0  0  0  0  0
  -46.8957   60.5671   64.6154 C   0  0  0  0  0  0  0  0  0  0  0  0
  -47.2139   60.0276   65.9920 C   0  0  0  0  0  0  0  0  0  0  0  0
  -48.6925   59.9105   66.3019 C   0  0  0  0  0  0  0  0  0  0  0  0
  -49.3348   58.7048   65.7313 C   0  0  0  0  0  0  0  0  0  0  0  0
  -50.2671   58.6892   64.8010 C   0  0  0  0  0  0  0  0  0  0  0  0
  -50.8521   59.8654   64.0891 C   0  0  0  0  0  0  0  0  0  0  0  0
  -51.1274   59.5123   62.6265 C   0  0  0  0  0  0  0  0  0  0  0  0
  -50.9514   58.0445   62.2660 C   0  0  0  0  0  0  0  0  0  0  0  0
  -50.8949   57.7506   60.7717 C   0  0  0  0  0  0  0  0  0  0  0  0
  -49.5150   57.9686   60.1597 C   0  0  0  0  0  0  0  0  0  0  0  0
  -49.4050   57.5040   58.7162 C   0  0  0  0  0  0  0  0  0  0  0  0
  -48.1354   56.7393   58.3728 C   0  0  0  0  0  0  0  0  0  0  0  0
  -47.5502   57.1488   57.0563 C   0  0  0  0  0  0  0  0  0  0  0  0
  -41.3618   57.2425   64.2907 O   0  0  0  0  0  0  0  0  0  0  0  0
  -40.7215   58.2907   65.0510 C   0  0  0  0  0  0  0  0  0  0  0  0
  -39.5571   58.8971   64.2968 C   0  0  0  0  0  0  0  0  0  0  0  0
  -39.1147   58.0275   63.2460 O   0  0  0  0  0  0  0  0  0  0  0  0
  -39.8276   57.9146   62.5980 H   0  0  0  0  0  0  0  0  0  0  0  0
  -39.8826   60.2555   63.7216 C   0  0  0  0  0  0  0  0  0  0  0  0
  -39.0227   61.2886   64.2605 O   0  0  0  0  0  0  0  0  0  0  0  0
  -37.5247   61.7416   63.9045 P   0  0  0  0  0  0  0  0  0  0  0  0
  -37.1405   62.8923   64.8332 O   0  0  0  0  0  0  0  0  0  0  0  0
  -37.4972   62.2333   62.5097 O   0  0  0  0  0  0  0  0  0  0  0  0
  -38.1342   62.9581   62.4096 H   0  0  0  0  0  0  0  0  0  0  0  0
  -36.4564   60.5093   64.1177 O   0  0  0  0  0  0  0  0  0  0  0  0
  -35.0497   60.6490   64.4556 C   0  0  0  0  0  0  0  0  0  0  0  0
  -34.1987   59.8831   63.4730 C   0  0  0  0  0  0  0  0  0  0  0  0
  -33.9448   58.4216   63.7927 N   0  0  0  0  0  0  0  0  0  0  0  0
  -34.0313   58.1850   65.2664 C   0  0  0  0  0  0  0  0  0  0  0  0
  -32.5737   58.0615   63.3228 C   0  0  0  0  0  0  0  0  0  0  0  0
  -34.9530   57.5485   63.1014 C   0  0  0  0  0  0  0  0  0  0  0  0
 34 33  1  0  0  0
 34 35  1  0  0  0
 34 36  1  0  0  0
 34 37  1  0  0  0
 22 23  1  0  0  0
 22 25  1  0  0  0
 22 21  1  0  0  0
 23 24  1  0  0  0
 27 26  1  0  0  0
 27 28  2  0  0  0
 27 31  1  0  0  0
 27 29  1  0  0  0
 25 26  1  0  0  0
 32 33  1  0  0  0
 32 31  1  0  0  0
 29 30  1  0  0  0
 20 21  1  0  0  0
 20  2  1  0  0  0
  1  2  2  0  0  0
  2  3  1  0  0  0
  3  4  1  0  0  0
  4  5  1  0  0  0
  5  6  1  0  0  0
  6  7  1  0  0  0
  7  8  1  0  0  0
  8  9  1  0  0  0
  9 10  1  0  0  0
 10 11  2  0  0  0
 11 12  1  0  0  0
 12 13  1  0  0  0
 13 14  1  0  0  0
 14 15  1  0  0  0
 15 16  1  0  0  0
 16 17  1  0  0  0
 17 18  1  0  0  0
 18 19  1  0  0  0
M  CHG 1  28  -1
M  END
> <minimizedAffinity>
-8.06006

> <CNNscore>
0.5381934643

> <CNNaffinity>
6.4072380066

> <CNN_VS>
3.4483335018

> <CNNaffinity_variance>
0.0502874367

$$$$
/media/chris/experiments/cd1a-new-docking/inputs/ligands/4x6e_ligand.pdb


 37 36  0  0  0  0  0  0  0  0999 V2000
  -41.4299   60.9429   66.3316 O   0  0  0  0  0  0  0  0  0  0  0  0
  -42.1191   59.9558   66.2608 C   0  0  0  0  0  0  0  0  0  0  0  0
  -43.3715   59.7150   67.0465 C   0  0  0  0  0  0  0  0  0  0  0  0
  -44.4994   59.1228   66.2099 C   0  0  0  0  0  0  0  0  0  0  0  0
  -45.1719   60.1143   65.2760 C   0  0  0  0  0  0  0  0  0  0  0  0
  -46.5235   59.6446   64.7675 C   0  0  0  0  0  0  0  0  0  0  0  0
  -47.4514   59.1935   65.8823 C   0  0  0  0  0  0  0  0  0  0  0  0
  -48.3172   58.0246   65.4683 C   0  0  0  0  0  0  0  0  0  0  0  0
  -49.8014   58.2192   65.7034 C   0  0  0  0  0  0  0  0  0  0  0  0
  -50.3058   59.5525   65.3037 C   0  0  0  0  0  0  0  0  0  0  0  0
  -50.8151   59.8697   64.1312 C   0  0  0  0  0  0  0  0  0  0  0  0
  -51.0356   58.9600   62.9665 C   0  0  0  0  0  0  0  0  0  0  0  0
  -49.7321   58.7759   62.1878 C   0  0  0  0  0  0  0  0  0  0  0  0
  -49.7277   57.6315   61.1850 C   0  0  0  0  0  0  0  0  0  0  0  0
  -49.9938   58.0393   59.7410 C   0  0  0  0  0  0  0  0  0  0  0  0
  -49.0478   57.3855   58.7391 C   0  0  0  0  0  0  0  0  0  0  0  0
  -48.2422   56.2338   59.3192 C   0  0  0  0  0  0  0  0  0  0  0  0
  -47.0421   55.7967   58.4927 C   0  0  0  0  0  0  0  0  0  0  0  0
  -47.0513   56.3704   57.1091 C   0  0  0  0  0  0  0  0  0  0  0  0
  -41.8705   58.9225   65.4507 O   0  0  0  0  0  0  0  0  0  0  0  0
  -40.4946   58.5184   65.2764 C   0  0  0  0  0  0  0  0  0  0  0  0
  -40.3368   57.5563   64.1180 C   0  0  0  0  0  0  0  0  0  0  0  0
  -41.4662   57.6211   63.2367 O   0  0  0  0  0  0  0  0  0  0  0  0
  -41.5216   58.5075   62.8468 H   0  0  0  0  0  0  0  0  0  0  0  0
  -39.0704   57.7986   63.3309 C   0  0  0  0  0  0  0  0  0  0  0  0
  -39.3348   58.4854   62.0836 O   0  0  0  0  0  0  0  0  0  0  0  0
  -39.4535   60.0422   61.7118 P   0  0  0  0  0  0  0  0  0  0  0  0
  -40.6163   60.6353   62.5057 O   0  0  0  0  0  0  0  0  0  0  0  0
  -39.7585   60.1630   60.2694 O   0  0  0  0  0  0  0  0  0  0  0  0
  -40.5719   59.6738   60.0687 H   0  0  0  0  0  0  0  0  0  0  0  0
  -38.0785   60.8592   62.0954 O   0  0  0  0  0  0  0  0  0  0  0  0
  -37.8461   61.6111   63.3174 C   0  0  0  0  0  0  0  0  0  0  0  0
  -37.1313   60.7516   64.3306 C   0  0  0  0  0  0  0  0  0  0  0  0
  -36.0013   61.4100   65.1000 N   0  0  0  0  0  0  0  0  0  0  0  0
  -36.4712   61.8454   66.4509 C   0  0  0  0  0  0  0  0  0  0  0  0
  -35.5391   62.6080   64.3373 C   0  0  0  0  0  0  0  0  0  0  0  0
  -34.8539   60.4554   65.2702 C   0  0  0  0  0  0  0  0  0  0  0  0
 34 33  1  0  0  0
 34 35  1  0  0  0
 34 36  1  0  0  0
 34 37  1  0  0  0
 22 23  1  0  0  0
 22 25  1  0  0  0
 22 21  1  0  0  0
 23 24  1  0  0  0
 27 26  1  0  0  0
 27 28  2  0  0  0
 27 31  1  0  0  0
 27 29  1  0  0  0
 25 26  1  0  0  0
 32 33  1  0  0  0
 32 31  1  0  0  0
 29 30  1  0  0  0
 20 21  1  0  0  0
 20  2  1  0  0  0
  1  2  2  0  0  0
  2  3  1  0  0  0
  3  4  1  0  0  0
  4  5  1  0  0  0
  5  6  1  0  0  0
  6  7  1  0  0  0
  7  8  1  0  0  0
  8  9  1  0  0  0
  9 10  1  0  0  0
 10 11  2  0  0  0
 11 12  1  0  0  0
 12 13  1  0  0  0
 13 14  1  0  0  0
 14 15  1  0  0  0
 15 16  1  0  0  0
 16 17  1  0  0  0
 17 18  1  0  0  0
 18 19  1  0  0  0
M  CHG 1  28  -1
M  END
> <minimizedAffinity>
-8.05084

> <CNNscore>
0.5164591670

> <CNNaffinity>
6.5834517479

> <CNN_VS>
3.4000840187

> <CNNaffinity_variance>
0.3531877100

$$$$
/media/chris/experiments/cd1a-new-docking/inputs/ligands/4x6e_ligand.pdb


 37 36  0  0  0  0  0  0  0  0999 V2000
  -40.0837   58.7490   65.9190 O   0  0  0  0  0  0  0  0  0  0  0  0
  -40.2718   59.9128   66.1731 C   0  0  0  0  0  0  0  0  0  0  0  0
  -41.6106   60.5448   66.4013 C   0  0  0  0  0  0  0  0  0  0  0  0
  -42.5291   59.7028   67.2788 C   0  0  0  0  0  0  0  0  0  0  0  0
  -43.6314   58.9836   66.5203 C   0  0  0  0  0  0  0  0  0  0  0  0
  -45.0214   59.2642   67.0639 C   0  0  0  0  0  0  0  0  0  0  0  0
  -45.9989   59.7080   65.9893 C   0  0  0  0  0  0  0  0  0  0  0  0
  -47.4306   59.3752   66.3455 C   0  0  0  0  0  0  0  0  0  0  0  0
  -48.0755   58.3231   65.4661 C   0  0  0  0  0  0  0  0  0  0  0  0
  -49.5279   58.1520   65.6965 C   0  0  0  0  0  0  0  0  0  0  0  0
  -50.4907   58.8499   65.1301 C   0  0  0  0  0  0  0  0  0  0  0  0
  -50.3419   59.9307   64.1091 C   0  0  0  0  0  0  0  0  0  0  0  0
  -51.1146   59.5666   62.8403 C   0  0  0  0  0  0  0  0  0  0  0  0
  -50.8597   58.1668   62.3009 C   0  0  0  0  0  0  0  0  0  0  0  0
  -49.4636   57.9392   61.7340 C   0  0  0  0  0  0  0  0  0  0  0  0
  -49.4638   57.4922   60.2757 C   0  0  0  0  0  0  0  0  0  0  0  0
  -48.7380   56.1774   60.0382 C   0  0  0  0  0  0  0  0  0  0  0  0
  -47.9257   56.1044   58.7539 C   0  0  0  0  0  0  0  0  0  0  0  0
  -48.1731   57.2686   57.8447 C   0  0  0  0  0  0  0  0  0  0  0  0
  -39.2993   60.8201   66.3028 O   0  0  0  0  0  0  0  0  0  0  0  0
  -37.9479   60.4073   66.0024 C   0  0  0  0  0  0  0  0  0  0  0  0
  -36.9680   61.5523   66.1481 C   0  0  0  0  0  0  0  0  0  0  0  0
  -36.6637   61.7980   67.5277 O   0  0  0  0  0  0  0  0  0  0  0  0
  -36.2278   61.0186   67.9064 H   0  0  0  0  0  0  0  0  0  0  0  0
  -35.6856   61.3192   65.3843 C   0  0  0  0  0  0  0  0  0  0  0  0
  -35.7843   61.7774   64.0141 O   0  0  0  0  0  0  0  0  0  0  0  0
  -36.7819   62.8033   63.2873 P   0  0  0  0  0  0  0  0  0  0  0  0
  -35.9878   63.5782   62.2369 O   0  0  0  0  0  0  0  0  0  0  0  0
  -37.2920   63.7610   64.2927 O   0  0  0  0  0  0  0  0  0  0  0  0
  -36.5456   64.2122   64.7173 H   0  0  0  0  0  0  0  0  0  0  0  0
  -38.0181   62.0149   62.5419 O   0  0  0  0  0  0  0  0  0  0  0  0
  -38.1820   60.5731   62.4572 C   0  0  0  0  0  0  0  0  0  0  0  0
  -39.1260   60.2207   61.3342 C   0  0  0  0  0  0  0  0  0  0  0  0
  -40.5419   59.8470   61.7321 N   0  0  0  0  0  0  0  0  0  0  0  0
  -40.5733   58.4781   62.3323 C   0  0  0  0  0  0  0  0  0  0  0  0
  -41.4005   59.8612   60.5102 C   0  0  0  0  0  0  0  0  0  0  0  0
  -41.0839   60.8277   62.7326 C   0  0  0  0  0  0  0  0  0  0  0  0
 34 33  1  0  0  0
 34 35  1  0  0  0
 34 36  1  0  0  0
 34 37  1  0  0  0
 22 23  1  0  0  0
 22 25  1  0  0  0
 22 21  1  0  0  0
 23 24  1  0  0  0
 27 26  1  0  0  0
 27 28  2  0  0  0
 27 31  1  0  0  0
 27 29  1  0  0  0
 25 26  1  0  0  0
 32 33  1  0  0  0
 32 31  1  0  0  0
 29 30  1  0  0  0
 20 21  1  0  0  0
 20  2  1  0  0  0
  1  2  2  0  0  0
  2  3  1  0  0  0
  3  4  1  0  0  0
  4  5  1  0  0  0
  5  6  1  0  0  0
  6  7  1  0  0  0
  7  8  1  0  0  0
  8  9  1  0  0  0
  9 10  1  0  0  0
 10 11  2  0  0  0
 11 12  1  0  0  0
 12 13  1  0  0  0
 13 14  1  0  0  0
 14 15  1  0  0  0
 15 16  1  0  0  0
 16 17  1  0  0  0
 17 18  1  0  0  0
 18 19  1  0  0  0
M  CHG 1  28  -1
M  END
> <minimizedAffinity>
-8.07871

> <CNNscore>
0.4938182235

> <CNNaffinity>
6.4194765091

> <CNN_VS>
3.1700544357

> <CNNaffinity_variance>
0.0048239166

$$$$
/media/chris/experiments/cd1a-new-docking/inputs/ligands/4x6e_ligand.pdb


 37 36  0  0  0  0  0  0  0  0999 V2000
  -41.3050   57.1855   61.4385 O   0  0  0  0  0  0  0  0  0  0  0  0
  -41.5587   58.0937   62.1903 C   0  0  0  0  0  0  0  0  0  0  0  0
  -42.9353   58.5603   62.5526 C   0  0  0  0  0  0  0  0  0  0  0  0
  -43.0687   58.9524   64.0192 C   0  0  0  0  0  0  0  0  0  0  0  0
  -44.1146   58.1607   64.7852 C   0  0  0  0  0  0  0  0  0  0  0  0
  -45.3042   58.9967   65.2236 C   0  0  0  0  0  0  0  0  0  0  0  0
  -46.3335   59.1850   64.1225 C   0  0  0  0  0  0  0  0  0  0  0  0
  -47.0405   60.5182   64.2222 C   0  0  0  0  0  0  0  0  0  0  0  0
  -48.5406   60.4582   64.0171 C   0  0  0  0  0  0  0  0  0  0  0  0
  -49.1667   59.2083   64.5048 C   0  0  0  0  0  0  0  0  0  0  0  0
  -50.2758   58.6660   64.0460 C   0  0  0  0  0  0  0  0  0  0  0  0
  -51.1221   59.1586   62.9172 C   0  0  0  0  0  0  0  0  0  0  0  0
  -50.9523   58.2519   61.6972 C   0  0  0  0  0  0  0  0  0  0  0  0
  -49.9661   58.7469   60.6493 C   0  0  0  0  0  0  0  0  0  0  0  0
  -49.6704   57.7603   59.5261 C   0  0  0  0  0  0  0  0  0  0  0  0
  -49.2190   56.3903   60.0218 C   0  0  0  0  0  0  0  0  0  0  0  0
  -47.8746   55.9499   59.4646 C   0  0  0  0  0  0  0  0  0  0  0  0
  -47.4998   56.5494   58.1175 C   0  0  0  0  0  0  0  0  0  0  0  0
  -47.5618   55.5520   57.0018 C   0  0  0  0  0  0  0  0  0  0  0  0
  -40.6367   58.8197   62.8296 O   0  0  0  0  0  0  0  0  0  0  0  0
  -39.8181   58.1527   63.8154 C   0  0  0  0  0  0  0  0  0  0  0  0
  -38.3854   58.0083   63.3475 C   0  0  0  0  0  0  0  0  0  0  0  0
  -38.3107   57.2206   62.1515 O   0  0  0  0  0  0  0  0  0  0  0  0
  -38.7849   57.6729   61.4363 H   0  0  0  0  0  0  0  0  0  0  0  0
  -37.7141   59.3413   63.1141 C   0  0  0  0  0  0  0  0  0  0  0  0
  -37.1193   59.8641   64.3266 O   0  0  0  0  0  0  0  0  0  0  0  0
  -37.4445   61.1584   65.2183 P   0  0  0  0  0  0  0  0  0  0  0  0
  -38.6734   60.8528   66.0731 O   0  0  0  0  0  0  0  0  0  0  0  0
  -37.7671   62.2861   64.3168 O   0  0  0  0  0  0  0  0  0  0  0  0
  -38.5089   62.0391   63.7426 H   0  0  0  0  0  0  0  0  0  0  0  0
  -36.1890   61.5363   66.2112 O   0  0  0  0  0  0  0  0  0  0  0  0
  -34.7855   61.5737   65.8348 C   0  0  0  0  0  0  0  0  0  0  0  0
  -34.0689   62.6584   66.6005 C   0  0  0  0  0  0  0  0  0  0  0  0
  -33.6665   63.8908   65.8119 N   0  0  0  0  0  0  0  0  0  0  0  0
  -33.6952   65.1040   66.6852 C   0  0  0  0  0  0  0  0  0  0  0  0
  -34.6349   64.0770   64.6903 C   0  0  0  0  0  0  0  0  0  0  0  0
  -32.2819   63.7289   65.2523 C   0  0  0  0  0  0  0  0  0  0  0  0
 34 33  1  0  0  0
 34 35  1  0  0  0
 34 36  1  0  0  0
 34 37  1  0  0  0
 22 23  1  0  0  0
 22 25  1  0  0  0
 22 21  1  0  0  0
 23 24  1  0  0  0
 27 26  1  0  0  0
 27 28  2  0  0  0
 27 31  1  0  0  0
 27 29  1  0  0  0
 25 26  1  0  0  0
 32 33  1  0  0  0
 32 31  1  0  0  0
 29 30  1  0  0  0
 20 21  1  0  0  0
 20  2  1  0  0  0
  1  2  2  0  0  0
  2  3  1  0  0  0
  3  4  1  0  0  0
  4  5  1  0  0  0
  5  6  1  0  0  0
  6  7  1  0  0  0
  7  8  1  0  0  0
  8  9  1  0  0  0
  9 10  1  0  0  0
 10 11  2  0  0  0
 11 12  1  0  0  0
 12 13  1  0  0  0
 13 14  1  0  0  0
 14 15  1  0  0  0
 15 16  1  0  0  0
 16 17  1  0  0  0
 17 18  1  0  0  0
 18 19  1  0  0  0
M  CHG 1  28  -1
M  END
> <minimizedAffinity>
-7.81300

> <CNNscore>
0.4871660173

> <CNNaffinity>
6.3170347214

> <CNN_VS>
3.0774445534

> <CNNaffinity_variance>
0.3179776669

$$$$
/media/chris/experiments/cd1a-new-docking/inputs/ligands/4x6e_ligand.pdb


 37 36  0  0  0  0  0  0  0  0999 V2000
  -42.2318   56.8370   65.3769 O   0  0  0  0  0  0  0  0  0  0  0  0
  -41.8883   57.6381   64.5435 C   0  0  0  0  0  0  0  0  0  0  0  0
  -42.7760   58.2289   63.4914 C   0  0  0  0  0  0  0  0  0  0  0  0
  -44.2461   58.2535   63.8923 C   0  0  0  0  0  0  0  0  0  0  0  0
  -44.7613   59.6247   64.2948 C   0  0  0  0  0  0  0  0  0  0  0  0
  -46.2691   59.7625   64.1765 C   0  0  0  0  0  0  0  0  0  0  0  0
  -46.9723   59.7476   65.5228 C   0  0  0  0  0  0  0  0  0  0  0  0
  -48.3199   60.4325   65.4719 C   0  0  0  0  0  0  0  0  0  0  0  0
  -49.5102   59.4988   65.5573 C   0  0  0  0  0  0  0  0  0  0  0  0
  -50.7581   60.0587   64.9904 C   0  0  0  0  0  0  0  0  0  0  0  0
  -51.0599   60.1421   63.7111 C   0  0  0  0  0  0  0  0  0  0  0  0
  -50.2421   59.6601   62.5571 C   0  0  0  0  0  0  0  0  0  0  0  0
  -50.3742   58.1430   62.4152 C   0  0  0  0  0  0  0  0  0  0  0  0
  -51.1297   57.6667   61.1831 C   0  0  0  0  0  0  0  0  0  0  0  0
  -50.2613   57.3909   59.9616 C   0  0  0  0  0  0  0  0  0  0  0  0
  -49.1608   56.3659   60.2154 C   0  0  0  0  0  0  0  0  0  0  0  0
  -48.1555   56.2532   59.0803 C   0  0  0  0  0  0  0  0  0  0  0  0
  -48.3072   57.2831   57.9710 C   0  0  0  0  0  0  0  0  0  0  0  0
  -47.3383   57.0728   56.8483 C   0  0  0  0  0  0  0  0  0  0  0  0
  -40.6512   58.1330   64.4420 O   0  0  0  0  0  0  0  0  0  0  0  0
  -40.3111   59.2715   65.2637 C   0  0  0  0  0  0  0  0  0  0  0  0
  -38.9773   59.0836   65.9551 C   0  0  0  0  0  0  0  0  0  0  0  0
  -38.1069   58.2499   65.1781 O   0  0  0  0  0  0  0  0  0  0  0  0
  -37.9146   58.6832   64.3319 H   0  0  0  0  0  0  0  0  0  0  0  0
  -38.2868   60.3945   66.2497 C   0  0  0  0  0  0  0  0  0  0  0  0
  -37.1489   60.6109   65.3805 O   0  0  0  0  0  0  0  0  0  0  0  0
  -37.0159   61.2480   63.9134 P   0  0  0  0  0  0  0  0  0  0  0  0
  -35.5447   61.5792   63.6683 O   0  0  0  0  0  0  0  0  0  0  0  0
  -37.7947   62.5049   63.8703 O   0  0  0  0  0  0  0  0  0  0  0  0
  -37.4774   63.1059   64.5624 H   0  0  0  0  0  0  0  0  0  0  0  0
  -37.5234   60.1985   62.7531 O   0  0  0  0  0  0  0  0  0  0  0  0
  -38.4787   60.4911   61.6974 C   0  0  0  0  0  0  0  0  0  0  0  0
  -39.5617   59.4410   61.6684 C   0  0  0  0  0  0  0  0  0  0  0  0
  -39.2515   58.1695   60.9007 N   0  0  0  0  0  0  0  0  0  0  0  0
  -38.6796   57.1327   61.8136 C   0  0  0  0  0  0  0  0  0  0  0  0
  -38.2510   58.4857   59.8379 C   0  0  0  0  0  0  0  0  0  0  0  0
  -40.4970   57.6214   60.2644 C   0  0  0  0  0  0  0  0  0  0  0  0
 34 33  1  0  0  0
 34 35  1  0  0  0
 34 36  1  0  0  0
 34 37  1  0  0  0
 22 23  1  0  0  0
 22 25  1  0  0  0
 22 21  1  0  0  0
 23 24  1  0  0  0
 27 26  1  0  0  0
 27 28  2  0  0  0
 27 31  1  0  0  0
 27 29  1  0  0  0
 25 26  1  0  0  0
 32 33  1  0  0  0
 32 31  1  0  0  0
 29 30  1  0  0  0
 20 21  1  0  0  0
 20  2  1  0  0  0
  1  2  2  0  0  0
  2  3  1  0  0  0
  3  4  1  0  0  0
  4  5  1  0  0  0
  5  6  1  0  0  0
  6  7  1  0  0  0
  7  8  1  0  0  0
  8  9  1  0  0  0
  9 10  1  0  0  0
 10 11  2  0  0  0
 11 12  1  0  0  0
 12 13  1  0  0  0
 13 14  1  0  0  0
 14 15  1  0  0  0
 15 16  1  0  0  0
 16 17  1  0  0  0
 17 18  1  0  0  0
 18 19  1  0  0  0
M  CHG 1  28  -1
M  END
> <minimizedAffinity>
-7.96691

> <CNNscore>
0.4848684072

> <CNNaffinity>
6.6447286606

> <CNN_VS>
3.2218189240

> <CNNaffinity_variance>
0.1842392236

$$$$
