/media/chris/experiments/cd1a-new-docking/inputs/ligands/4x6e_ligand.pdb


 37 36  0  0  0  0  0  0  0  0999 V2000
  -42.9186   60.1618   66.4170 O   0  0  0  0  0  0  0  0  0  0  0  0
  -43.3929   59.2126   65.8437 C   0  0  0  0  0  0  0  0  0  0  0  0
  -43.7436   57.9025   66.4795 C   0  0  0  0  0  0  0  0  0  0  0  0
  -44.7374   57.0862   65.6619 C   0  0  0  0  0  0  0  0  0  0  0  0
  -46.1945   57.3720   65.9825 C   0  0  0  0  0  0  0  0  0  0  0  0
  -46.3803   58.3700   67.1119 C   0  0  0  0  0  0  0  0  0  0  0  0
  -47.3036   59.5181   66.7415 C   0  0  0  0  0  0  0  0  0  0  0  0
  -47.0273   60.0492   65.3527 C   0  0  0  0  0  0  0  0  0  0  0  0
  -48.2613   60.4418   64.5660 C   0  0  0  0  0  0  0  0  0  0  0  0
  -49.5315   59.9641   65.1581 C   0  0  0  0  0  0  0  0  0  0  0  0
  -50.3350   59.0568   64.6424 C   0  0  0  0  0  0  0  0  0  0  0  0
  -50.1314   58.2830   63.3804 C   0  0  0  0  0  0  0  0  0  0  0  0
  -50.8601   58.9647   62.2213 C   0  0  0  0  0  0  0  0  0  0  0  0
  -50.1065   58.9857   60.8995 C   0  0  0  0  0  0  0  0  0  0  0  0
  -50.3465   57.7777   60.0018 C   0  0  0  0  0  0  0  0  0  0  0  0
  -49.2047   57.5059   59.0280 C   0  0  0  0  0  0  0  0  0  0  0  0
  -48.4001   56.2594   59.3602 C   0  0  0  0  0  0  0  0  0  0  0  0
  -47.2748   55.9324   58.3900 C   0  0  0  0  0  0  0  0  0  0  0  0
  -47.3736   56.7004   57.1078 C   0  0  0  0  0  0  0  0  0  0  0  0
  -43.6912   59.1939   64.5412 O   0  0  0  0  0  0  0  0  0  0  0  0
  -42.6895   59.6658   63.6134 C   0  0  0  0  0  0  0  0  0  0  0  0
  -43.3081   60.4392   62.4682 C   0  0  0  0  0  0  0  0  0  0  0  0
  -43.5340   61.8076   62.8329 O   0  0  0  0  0  0  0  0  0  0  0  0
  -42.6846   62.2363   63.0217 H   0  0  0  0  0  0  0  0  0  0  0  0
  -42.4702   60.3855   61.2123 C   0  0  0  0  0  0  0  0  0  0  0  0
  -41.7995   59.1103   61.0667 O   0  0  0  0  0  0  0  0  0  0  0  0
  -40.2565   58.7182   60.8629 P   0  0  0  0  0  0  0  0  0  0  0  0
  -39.5120   59.9546   60.3620 O   0  0  0  0  0  0  0  0  0  0  0  0
  -40.1682   57.6644   59.8285 O   0  0  0  0  0  0  0  0  0  0  0  0
  -40.5786   57.9809   59.0086 H   0  0  0  0  0  0  0  0  0  0  0  0
  -39.5706   58.2211   62.2727 O   0  0  0  0  0  0  0  0  0  0  0  0
  -38.3098   57.5095   62.4033 C   0  0  0  0  0  0  0  0  0  0  0  0
  -37.1858   58.4827   62.6595 C   0  0  0  0  0  0  0  0  0  0  0  0
  -36.3830   58.2706   63.9295 N   0  0  0  0  0  0  0  0  0  0  0  0
  -35.2074   57.3857   63.6646 C   0  0  0  0  0  0  0  0  0  0  0  0
  -37.2615   57.6191   64.9466 C   0  0  0  0  0  0  0  0  0  0  0  0
  -35.8899   59.5841   64.4663 C   0  0  0  0  0  0  0  0  0  0  0  0
 34 33  1  0  0  0
 34 35  1  0  0  0
 34 36  1  0  0  0
 34 37  1  0  0  0
 22 23  1  0  0  0
 22 25  1  0  0  0
 22 21  1  0  0  0
 23 24  1  0  0  0
 27 26  1  0  0  0
 27 28  2  0  0  0
 27 31  1  0  0  0
 27 29  1  0  0  0
 25 26  1  0  0  0
 32 33  1  0  0  0
 32 31  1  0  0  0
 29 30  1  0  0  0
 20 21  1  0  0  0
 20  2  1  0  0  0
  1  2  2  0  0  0
  2  3  1  0  0  0
  3  4  1  0  0  0
  4  5  1  0  0  0
  5  6  1  0  0  0
  6  7  1  0  0  0
  7  8  1  0  0  0
  8  9  1  0  0  0
  9 10  1  0  0  0
 10 11  2  0  0  0
 11 12  1  0  0  0
 12 13  1  0  0  0
 13 14  1  0  0  0
 14 15  1  0  0  0
 15 16  1  0  0  0
 16 17  1  0  0  0
 17 18  1  0  0  0
 18 19  1  0  0  0
M  CHG 1  28  -1
M  END
> <minimizedAffinity>
-7.51827

> <CNNscore>
0.7613537908

> <CNNaffinity>
7.0835776329

> <CNN_VS>
5.3931088448

> <CNNaffinity_variance>
0.3899867535

$$$$
/media/chris/experiments/cd1a-new-docking/inputs/ligands/4x6e_ligand.pdb


 37 36  0  0  0  0  0  0  0  0999 V2000
  -42.8080   59.9115   65.3322 O   0  0  0  0  0  0  0  0  0  0  0  0
  -42.3242   58.8094   65.4094 C   0  0  0  0  0  0  0  0  0  0  0  0
  -42.9127   57.6554   66.1613 C   0  0  0  0  0  0  0  0  0  0  0  0
  -43.9792   56.9064   65.3712 C   0  0  0  0  0  0  0  0  0  0  0  0
  -45.4033   57.1957   65.8135 C   0  0  0  0  0  0  0  0  0  0  0  0
  -45.4889   58.1629   66.9811 C   0  0  0  0  0  0  0  0  0  0  0  0
  -46.3092   59.4017   66.6648 C   0  0  0  0  0  0  0  0  0  0  0  0
  -46.6728   59.4882   65.1993 C   0  0  0  0  0  0  0  0  0  0  0  0
  -47.9159   60.3014   64.9005 C   0  0  0  0  0  0  0  0  0  0  0  0
  -49.0362   60.0571   65.8373 C   0  0  0  0  0  0  0  0  0  0  0  0
  -50.1091   59.3338   65.5916 C   0  0  0  0  0  0  0  0  0  0  0  0
  -50.4179   58.5712   64.3442 C   0  0  0  0  0  0  0  0  0  0  0  0
  -51.0129   59.5056   63.2895 C   0  0  0  0  0  0  0  0  0  0  0  0
  -50.6656   59.1663   61.8474 C   0  0  0  0  0  0  0  0  0  0  0  0
  -51.0159   57.7468   61.4173 C   0  0  0  0  0  0  0  0  0  0  0  0
  -49.9395   57.0863   60.5622 C   0  0  0  0  0  0  0  0  0  0  0  0
  -49.7247   57.7629   59.2177 C   0  0  0  0  0  0  0  0  0  0  0  0
  -48.4772   57.3296   58.4623 C   0  0  0  0  0  0  0  0  0  0  0  0
  -47.9287   56.0239   58.9495 C   0  0  0  0  0  0  0  0  0  0  0  0
  -41.1824   58.4470   64.8171 O   0  0  0  0  0  0  0  0  0  0  0  0
  -39.9468   58.7081   65.5183 C   0  0  0  0  0  0  0  0  0  0  0  0
  -39.5352   60.1607   65.4044 C   0  0  0  0  0  0  0  0  0  0  0  0
  -40.2438   60.9728   66.3504 O   0  0  0  0  0  0  0  0  0  0  0  0
  -40.0132   60.6958   67.2510 H   0  0  0  0  0  0  0  0  0  0  0  0
  -38.0487   60.3585   65.5861 C   0  0  0  0  0  0  0  0  0  0  0  0
  -37.6883   61.7612   65.5869 O   0  0  0  0  0  0  0  0  0  0  0  0
  -36.3380   62.5295   65.9900 P   0  0  0  0  0  0  0  0  0  0  0  0
  -36.3864   62.8256   67.4880 O   0  0  0  0  0  0  0  0  0  0  0  0
  -36.2872   63.8139   65.2578 O   0  0  0  0  0  0  0  0  0  0  0  0
  -37.0807   64.3335   65.4609 H   0  0  0  0  0  0  0  0  0  0  0  0
  -35.0079   61.6156   65.6728 O   0  0  0  0  0  0  0  0  0  0  0  0
  -34.7830   60.8240   64.4747 C   0  0  0  0  0  0  0  0  0  0  0  0
  -34.5335   59.3820   64.8415 C   0  0  0  0  0  0  0  0  0  0  0  0
  -35.0655   58.3367   63.8788 N   0  0  0  0  0  0  0  0  0  0  0  0
  -35.6582   57.1872   64.6287 C   0  0  0  0  0  0  0  0  0  0  0  0
  -33.9333   57.8383   63.0419 C   0  0  0  0  0  0  0  0  0  0  0  0
  -36.1195   58.9295   62.9877 C   0  0  0  0  0  0  0  0  0  0  0  0
 34 33  1  0  0  0
 34 35  1  0  0  0
 34 36  1  0  0  0
 34 37  1  0  0  0
 22 23  1  0  0  0
 22 25  1  0  0  0
 22 21  1  0  0  0
 23 24  1  0  0  0
 27 26  1  0  0  0
 27 28  2  0  0  0
 27 31  1  0  0  0
 27 29  1  0  0  0
 25 26  1  0  0  0
 32 33  1  0  0  0
 32 31  1  0  0  0
 29 30  1  0  0  0
 20 21  1  0  0  0
 20  2  1  0  0  0
  1  2  2  0  0  0
  2  3  1  0  0  0
  3  4  1  0  0  0
  4  5  1  0  0  0
  5  6  1  0  0  0
  6  7  1  0  0  0
  7  8  1  0  0  0
  8  9  1  0  0  0
  9 10  1  0  0  0
 10 11  2  0  0  0
 11 12  1  0  0  0
 12 13  1  0  0  0
 13 14  1  0  0  0
 14 15  1  0  0  0
 15 16  1  0  0  0
 16 17  1  0  0  0
 17 18  1  0  0  0
 18 19  1  0  0  0
M  CHG 1  28  -1
M  END
> <minimizedAffinity>
-7.74920

> <CNNscore>
0.7233376503

> <CNNaffinity>
6.6637344360

> <CNN_VS>
4.8201298714

> <CNNaffinity_variance>
0.0506545119

$$$$
/media/chris/experiments/cd1a-new-docking/inputs/ligands/4x6e_ligand.pdb


 37 36  0  0  0  0  0  0  0  0999 V2000
  -42.7063   57.3072   66.2199 O   0  0  0  0  0  0  0  0  0  0  0  0
  -42.5464   58.4670   66.5096 C   0  0  0  0  0  0  0  0  0  0  0  0
  -43.6380   59.4315   66.8588 C   0  0  0  0  0  0  0  0  0  0  0  0
  -45.0212   58.9489   66.4389 C   0  0  0  0  0  0  0  0  0  0  0  0
  -45.6205   59.7105   65.2692 C   0  0  0  0  0  0  0  0  0  0  0  0
  -46.8042   59.0048   64.6312 C   0  0  0  0  0  0  0  0  0  0  0  0
  -47.4774   58.0148   65.5662 C   0  0  0  0  0  0  0  0  0  0  0  0
  -48.9548   58.2945   65.7280 C   0  0  0  0  0  0  0  0  0  0  0  0
  -49.3697   59.7176   65.4144 C   0  0  0  0  0  0  0  0  0  0  0  0
  -50.7017   59.8313   64.7779 C   0  0  0  0  0  0  0  0  0  0  0  0
  -50.9551   59.7458   63.4882 C   0  0  0  0  0  0  0  0  0  0  0  0
  -49.9763   59.4773   62.3915 C   0  0  0  0  0  0  0  0  0  0  0  0
  -49.9244   57.9793   62.0871 C   0  0  0  0  0  0  0  0  0  0  0  0
  -50.5109   57.5660   60.7451 C   0  0  0  0  0  0  0  0  0  0  0  0
  -49.4884   57.3354   59.6388 C   0  0  0  0  0  0  0  0  0  0  0  0
  -48.8133   55.9696   59.7083 C   0  0  0  0  0  0  0  0  0  0  0  0
  -47.4086   55.9505   59.1267 C   0  0  0  0  0  0  0  0  0  0  0  0
  -47.3312   55.7896   57.6159 C   0  0  0  0  0  0  0  0  0  0  0  0
  -47.5185   57.0833   56.8847 C   0  0  0  0  0  0  0  0  0  0  0  0
  -41.3544   59.0676   66.5746 O   0  0  0  0  0  0  0  0  0  0  0  0
  -41.0820   60.1287   65.6330 C   0  0  0  0  0  0  0  0  0  0  0  0
  -39.6180   60.1739   65.2494 C   0  0  0  0  0  0  0  0  0  0  0  0
  -38.8752   61.0083   66.1486 O   0  0  0  0  0  0  0  0  0  0  0  0
  -38.9096   60.6318   67.0419 H   0  0  0  0  0  0  0  0  0  0  0  0
  -38.9883   58.8016   65.2009 C   0  0  0  0  0  0  0  0  0  0  0  0
  -37.6619   58.8382   64.6208 O   0  0  0  0  0  0  0  0  0  0  0  0
  -37.0633   59.5985   63.3402 P   0  0  0  0  0  0  0  0  0  0  0  0
  -35.8576   58.8075   62.8359 O   0  0  0  0  0  0  0  0  0  0  0  0
  -36.6040   60.9411   63.7582 O   0  0  0  0  0  0  0  0  0  0  0  0
  -35.9522   60.8524   64.4712 H   0  0  0  0  0  0  0  0  0  0  0  0
  -38.1722   59.7037   62.1300 O   0  0  0  0  0  0  0  0  0  0  0  0
  -38.4555   58.6766   61.1413 C   0  0  0  0  0  0  0  0  0  0  0  0
  -39.0422   57.4576   61.8090 C   0  0  0  0  0  0  0  0  0  0  0  0
  -40.5295   57.2289   61.6143 N   0  0  0  0  0  0  0  0  0  0  0  0
  -40.8625   57.1567   60.1587 C   0  0  0  0  0  0  0  0  0  0  0  0
  -41.2722   58.3712   62.2261 C   0  0  0  0  0  0  0  0  0  0  0  0
  -40.9561   55.9482   62.2735 C   0  0  0  0  0  0  0  0  0  0  0  0
 34 33  1  0  0  0
 34 35  1  0  0  0
 34 36  1  0  0  0
 34 37  1  0  0  0
 22 23  1  0  0  0
 22 25  1  0  0  0
 22 21  1  0  0  0
 23 24  1  0  0  0
 27 26  1  0  0  0
 27 28  2  0  0  0
 27 31  1  0  0  0
 27 29  1  0  0  0
 25 26  1  0  0  0
 32 33  1  0  0  0
 32 31  1  0  0  0
 29 30  1  0  0  0
 20 21  1  0  0  0
 20  2  1  0  0  0
  1  2  2  0  0  0
  2  3  1  0  0  0
  3  4  1  0  0  0
  4  5  1  0  0  0
  5  6  1  0  0  0
  6  7  1  0  0  0
  7  8  1  0  0  0
  8  9  1  0  0  0
  9 10  1  0  0  0
 10 11  2  0  0  0
 11 12  1  0  0  0
 12 13  1  0  0  0
 13 14  1  0  0  0
 14 15  1  0  0  0
 15 16  1  0  0  0
 16 17  1  0  0  0
 17 18  1  0  0  0
 18 19  1  0  0  0
M  CHG 1  28  -1
M  END
> <minimizedAffinity>
-7.97669

> <CNNscore>
0.7148223519

> <CNNaffinity>
6.9341173172

> <CNN_VS>
4.9566621780

> <CNNaffinity_variance>
0.2887985706

$$$$
/media/chris/experiments/cd1a-new-docking/inputs/ligands/4x6e_ligand.pdb


 37 36  0  0  0  0  0  0  0  0999 V2000
  -40.7612   60.8072   65.6064 O   0  0  0  0  0  0  0  0  0  0  0  0
  -40.6379   59.6092   65.5420 C   0  0  0  0  0  0  0  0  0  0  0  0
  -41.7384   58.6127   65.7409 C   0  0  0  0  0  0  0  0  0  0  0  0
  -42.5397   58.8510   67.0152 C   0  0  0  0  0  0  0  0  0  0  0  0
  -43.9077   59.4706   66.7866 C   0  0  0  0  0  0  0  0  0  0  0  0
  -44.7644   58.6971   65.7998 C   0  0  0  0  0  0  0  0  0  0  0  0
  -45.8461   59.5499   65.1593 C   0  0  0  0  0  0  0  0  0  0  0  0
  -47.1120   59.5843   65.9862 C   0  0  0  0  0  0  0  0  0  0  0  0
  -48.1096   58.4899   65.6656 C   0  0  0  0  0  0  0  0  0  0  0  0
  -49.5093   58.9611   65.5614 C   0  0  0  0  0  0  0  0  0  0  0  0
  -50.2180   59.0487   64.4547 C   0  0  0  0  0  0  0  0  0  0  0  0
  -49.7918   58.6594   63.0764 C   0  0  0  0  0  0  0  0  0  0  0  0
  -51.0067   58.2350   62.2497 C   0  0  0  0  0  0  0  0  0  0  0  0
  -50.6972   57.7275   60.8489 C   0  0  0  0  0  0  0  0  0  0  0  0
  -49.3622   57.0066   60.7053 C   0  0  0  0  0  0  0  0  0  0  0  0
  -48.8661   56.9243   59.2654 C   0  0  0  0  0  0  0  0  0  0  0  0
  -47.6715   56.0020   59.0811 C   0  0  0  0  0  0  0  0  0  0  0  0
  -47.1770   55.8546   57.6500 C   0  0  0  0  0  0  0  0  0  0  0  0
  -47.3459   57.1073   56.8464 C   0  0  0  0  0  0  0  0  0  0  0  0
  -39.4880   58.9861   65.2676 O   0  0  0  0  0  0  0  0  0  0  0  0
  -39.5008   57.9683   64.2426 C   0  0  0  0  0  0  0  0  0  0  0  0
  -38.8449   58.4515   62.9664 C   0  0  0  0  0  0  0  0  0  0  0  0
  -39.5783   59.5410   62.3905 O   0  0  0  0  0  0  0  0  0  0  0  0
  -39.5704   60.2946   63.0012 H   0  0  0  0  0  0  0  0  0  0  0  0
  -37.4075   58.8673   63.1742 C   0  0  0  0  0  0  0  0  0  0  0  0
  -37.2401   60.3013   63.0604 O   0  0  0  0  0  0  0  0  0  0  0  0
  -36.8230   61.4281   64.1246 P   0  0  0  0  0  0  0  0  0  0  0  0
  -35.5859   60.9400   64.8765 O   0  0  0  0  0  0  0  0  0  0  0  0
  -37.9274   61.5959   65.0943 O   0  0  0  0  0  0  0  0  0  0  0  0
  -38.1190   60.7439   65.5168 H   0  0  0  0  0  0  0  0  0  0  0  0
  -36.4656   62.8525   63.3840 O   0  0  0  0  0  0  0  0  0  0  0  0
  -35.6562   63.9237   63.9410 C   0  0  0  0  0  0  0  0  0  0  0  0
  -34.4225   64.1369   63.0991 C   0  0  0  0  0  0  0  0  0  0  0  0
  -33.1160   63.6160   63.6685 N   0  0  0  0  0  0  0  0  0  0  0  0
  -33.2048   63.4926   65.1557 C   0  0  0  0  0  0  0  0  0  0  0  0
  -32.0278   64.5797   63.3254 C   0  0  0  0  0  0  0  0  0  0  0  0
  -32.7889   62.2693   63.0889 C   0  0  0  0  0  0  0  0  0  0  0  0
 34 33  1  0  0  0
 34 35  1  0  0  0
 34 36  1  0  0  0
 34 37  1  0  0  0
 22 23  1  0  0  0
 22 25  1  0  0  0
 22 21  1  0  0  0
 23 24  1  0  0  0
 27 26  1  0  0  0
 27 28  2  0  0  0
 27 31  1  0  0  0
 27 29  1  0  0  0
 25 26  1  0  0  0
 32 33  1  0  0  0
 32 31  1  0  0  0
 29 30  1  0  0  0
 20 21  1  0  0  0
 20  2  1  0  0  0
  1  2  2  0  0  0
  2  3  1  0  0  0
  3  4  1  0  0  0
  4  5  1  0  0  0
  5  6  1  0  0  0
  6  7  1  0  0  0
  7  8  1  0  0  0
  8  9  1  0  0  0
  9 10  1  0  0  0
 10 11  2  0  0  0
 11 12  1  0  0  0
 12 13  1  0  0  0
 13 14  1  0  0  0
 14 15  1  0  0  0
 15 16  1  0  0  0
 16 17  1  0  0  0
 17 18  1  0  0  0
 18 19  1  0  0  0
M  CHG 1  28  -1
M  END
> <minimizedAffinity>
-7.75230

> <CNNscore>
0.6977717876

> <CNNaffinity>
6.3068265915

> <CNN_VS>
4.4007258415

> <CNNaffinity_variance>
0.1793113500

$$$$
/media/chris/experiments/cd1a-new-docking/inputs/ligands/4x6e_ligand.pdb


 37 36  0  0  0  0  0  0  0  0999 V2000
  -41.0126   60.7473   63.2690 O   0  0  0  0  0  0  0  0  0  0  0  0
  -41.3315   60.5062   62.1311 C   0  0  0  0  0  0  0  0  0  0  0  0
  -42.7273   60.5672   61.5908 C   0  0  0  0  0  0  0  0  0  0  0  0
  -43.4464   61.8665   61.9331 C   0  0  0  0  0  0  0  0  0  0  0  0
  -44.3420   61.7816   63.1571 C   0  0  0  0  0  0  0  0  0  0  0  0
  -44.7877   60.3669   63.4829 C   0  0  0  0  0  0  0  0  0  0  0  0
  -44.4965   59.9707   64.9202 C   0  0  0  0  0  0  0  0  0  0  0  0
  -45.7575   59.6548   65.6932 C   0  0  0  0  0  0  0  0  0  0  0  0
  -47.0214   60.2658   65.1233 C   0  0  0  0  0  0  0  0  0  0  0  0
  -48.1855   60.2054   66.0362 C   0  0  0  0  0  0  0  0  0  0  0  0
  -49.2660   59.4714   65.8680 C   0  0  0  0  0  0  0  0  0  0  0  0
  -49.5430   58.5141   64.7546 C   0  0  0  0  0  0  0  0  0  0  0  0
  -50.6229   59.0794   63.8306 C   0  0  0  0  0  0  0  0  0  0  0  0
  -50.7753   58.3680   62.4941 C   0  0  0  0  0  0  0  0  0  0  0  0
  -50.2268   59.1290   61.2930 C   0  0  0  0  0  0  0  0  0  0  0  0
  -49.9649   58.2440   60.0789 C   0  0  0  0  0  0  0  0  0  0  0  0
  -49.3734   56.8871   60.4263 C   0  0  0  0  0  0  0  0  0  0  0  0
  -48.3896   56.3259   59.4106 C   0  0  0  0  0  0  0  0  0  0  0  0
  -48.3429   57.1262   58.1455 C   0  0  0  0  0  0  0  0  0  0  0  0
  -40.4733   60.1564   61.1684 O   0  0  0  0  0  0  0  0  0  0  0  0
  -40.0648   58.7725   61.0998 C   0  0  0  0  0  0  0  0  0  0  0  0
  -38.6155   58.6371   60.6832 C   0  0  0  0  0  0  0  0  0  0  0  0
  -38.1224   59.8636   60.1272 O   0  0  0  0  0  0  0  0  0  0  0  0
  -38.1458   60.5578   60.8042 H   0  0  0  0  0  0  0  0  0  0  0  0
  -37.7220   58.2066   61.8226 C   0  0  0  0  0  0  0  0  0  0  0  0
  -37.9486   58.9991   63.0134 O   0  0  0  0  0  0  0  0  0  0  0  0
  -37.2874   60.3608   63.5469 P   0  0  0  0  0  0  0  0  0  0  0  0
  -37.7386   61.5000   62.6343 O   0  0  0  0  0  0  0  0  0  0  0  0
  -35.8159   60.2401   63.4566 O   0  0  0  0  0  0  0  0  0  0  0  0
  -35.5632   60.0426   62.5411 H   0  0  0  0  0  0  0  0  0  0  0  0
  -37.7593   60.6962   65.0864 O   0  0  0  0  0  0  0  0  0  0  0  0
  -36.9452   61.3331   66.1083 C   0  0  0  0  0  0  0  0  0  0  0  0
  -36.6595   62.7653   65.7299 C   0  0  0  0  0  0  0  0  0  0  0  0
  -35.2090   63.2060   65.7939 N   0  0  0  0  0  0  0  0  0  0  0  0
  -34.3192   62.0396   66.0817 C   0  0  0  0  0  0  0  0  0  0  0  0
  -35.0629   64.2101   66.8898 C   0  0  0  0  0  0  0  0  0  0  0  0
  -34.7893   63.8264   64.4917 C   0  0  0  0  0  0  0  0  0  0  0  0
 34 33  1  0  0  0
 34 35  1  0  0  0
 34 36  1  0  0  0
 34 37  1  0  0  0
 22 23  1  0  0  0
 22 25  1  0  0  0
 22 21  1  0  0  0
 23 24  1  0  0  0
 27 26  1  0  0  0
 27 28  2  0  0  0
 27 31  1  0  0  0
 27 29  1  0  0  0
 25 26  1  0  0  0
 32 33  1  0  0  0
 32 31  1  0  0  0
 29 30  1  0  0  0
 20 21  1  0  0  0
 20  2  1  0  0  0
  1  2  2  0  0  0
  2  3  1  0  0  0
  3  4  1  0  0  0
  4  5  1  0  0  0
  5  6  1  0  0  0
  6  7  1  0  0  0
  7  8  1  0  0  0
  8  9  1  0  0  0
  9 10  1  0  0  0
 10 11  2  0  0  0
 11 12  1  0  0  0
 12 13  1  0  0  0
 13 14  1  0  0  0
 14 15  1  0  0  0
 15 16  1  0  0  0
 16 17  1  0  0  0
 17 18  1  0  0  0
 18 19  1  0  0  0
M  CHG 1  28  -1
M  END
> <minimizedAffinity>
-7.79838

> <CNNscore>
0.5983190536

> <CNNaffinity>
6.4038987160

> <CNN_VS>
3.8315746784

> <CNNaffinity_variance>
0.2094562501

$$$$
/media/chris/experiments/cd1a-new-docking/inputs/ligands/4x6e_ligand.pdb


 37 36  0  0  0  0  0  0  0  0999 V2000
  -41.9098   60.2857   64.1154 O   0  0  0  0  0  0  0  0  0  0  0  0
  -42.3868   59.1865   64.2526 C   0  0  0  0  0  0  0  0  0  0  0  0
  -43.8500   58.8671   64.2248 C   0  0  0  0  0  0  0  0  0  0  0  0
  -44.6804   59.7822   65.1168 C   0  0  0  0  0  0  0  0  0  0  0  0
  -44.5842   59.4654   66.5993 C   0  0  0  0  0  0  0  0  0  0  0  0
  -45.7898   58.7141   67.1363 C   0  0  0  0  0  0  0  0  0  0  0  0
  -47.0977   59.1706   66.5128 C   0  0  0  0  0  0  0  0  0  0  0  0
  -47.9100   58.0135   65.9756 C   0  0  0  0  0  0  0  0  0  0  0  0
  -48.6574   58.3050   64.6903 C   0  0  0  0  0  0  0  0  0  0  0  0
  -50.0866   58.6389   64.8860 C   0  0  0  0  0  0  0  0  0  0  0  0
  -50.8817   59.1968   63.9964 C   0  0  0  0  0  0  0  0  0  0  0  0
  -50.5398   59.5774   62.5925 C   0  0  0  0  0  0  0  0  0  0  0  0
  -50.9297   58.4526   61.6321 C   0  0  0  0  0  0  0  0  0  0  0  0
  -49.9079   58.1355   60.5501 C   0  0  0  0  0  0  0  0  0  0  0  0
  -49.3255   56.7283   60.6065 C   0  0  0  0  0  0  0  0  0  0  0  0
  -48.4908   56.3649   59.3829 C   0  0  0  0  0  0  0  0  0  0  0  0
  -48.6075   57.3645   58.2432 C   0  0  0  0  0  0  0  0  0  0  0  0
  -47.7685   57.0512   57.0134 C   0  0  0  0  0  0  0  0  0  0  0  0
  -47.0791   55.7247   57.1046 C   0  0  0  0  0  0  0  0  0  0  0  0
  -41.6699   58.0744   64.4400 O   0  0  0  0  0  0  0  0  0  0  0  0
  -42.1996   56.8352   63.9199 C   0  0  0  0  0  0  0  0  0  0  0  0
  -41.2402   56.1808   62.9486 C   0  0  0  0  0  0  0  0  0  0  0  0
  -41.4958   54.7739   62.8407 O   0  0  0  0  0  0  0  0  0  0  0  0
  -42.3849   54.6336   62.4791 H   0  0  0  0  0  0  0  0  0  0  0  0
  -41.2882   56.8072   61.5747 C   0  0  0  0  0  0  0  0  0  0  0  0
  -39.9617   57.0295   61.0378 O   0  0  0  0  0  0  0  0  0  0  0  0
  -38.7270   57.9216   61.5436 P   0  0  0  0  0  0  0  0  0  0  0  0
  -37.9986   58.4677   60.3168 O   0  0  0  0  0  0  0  0  0  0  0  0
  -37.7945   57.0557   62.2978 O   0  0  0  0  0  0  0  0  0  0  0  0
  -37.5097   56.3192   61.7344 H   0  0  0  0  0  0  0  0  0  0  0  0
  -39.2353   59.1858   62.4647 O   0  0  0  0  0  0  0  0  0  0  0  0
  -38.4726   60.3877   62.7587 C   0  0  0  0  0  0  0  0  0  0  0  0
  -37.5942   60.1660   63.9651 C   0  0  0  0  0  0  0  0  0  0  0  0
  -36.7810   61.3563   64.4385 N   0  0  0  0  0  0  0  0  0  0  0  0
  -37.0632   61.6444   65.8781 C   0  0  0  0  0  0  0  0  0  0  0  0
  -37.1593   62.5482   63.6217 C   0  0  0  0  0  0  0  0  0  0  0  0
  -35.3118   61.0883   64.2766 C   0  0  0  0  0  0  0  0  0  0  0  0
 34 33  1  0  0  0
 34 35  1  0  0  0
 34 36  1  0  0  0
 34 37  1  0  0  0
 22 23  1  0  0  0
 22 25  1  0  0  0
 22 21  1  0  0  0
 23 24  1  0  0  0
 27 26  1  0  0  0
 27 28  2  0  0  0
 27 31  1  0  0  0
 27 29  1  0  0  0
 25 26  1  0  0  0
 32 33  1  0  0  0
 32 31  1  0  0  0
 29 30  1  0  0  0
 20 21  1  0  0  0
 20  2  1  0  0  0
  1  2  2  0  0  0
  2  3  1  0  0  0
  3  4  1  0  0  0
  4  5  1  0  0  0
  5  6  1  0  0  0
  6  7  1  0  0  0
  7  8  1  0  0  0
  8  9  1  0  0  0
  9 10  1  0  0  0
 10 11  2  0  0  0
 11 12  1  0  0  0
 12 13  1  0  0  0
 13 14  1  0  0  0
 14 15  1  0  0  0
 15 16  1  0  0  0
 16 17  1  0  0  0
 17 18  1  0  0  0
 18 19  1  0  0  0
M  CHG 1  28  -1
M  END
> <minimizedAffinity>
-7.78587

> <CNNscore>
0.5948866010

> <CNNaffinity>
6.8786277771

> <CNN_VS>
4.0920033455

> <CNNaffinity_variance>
0.2086553574

$$$$
/media/chris/experiments/cd1a-new-docking/inputs/ligands/4x6e_ligand.pdb


 37 36  0  0  0  0  0  0  0  0999 V2000
  -40.2223   58.6764   65.4357 O   0  0  0  0  0  0  0  0  0  0  0  0
  -40.4687   59.7786   65.8588 C   0  0  0  0  0  0  0  0  0  0  0  0
  -41.8352   60.2929   66.1935 C   0  0  0  0  0  0  0  0  0  0  0  0
  -42.6013   59.3832   67.1465 C   0  0  0  0  0  0  0  0  0  0  0  0
  -44.1123   59.4998   67.0427 C   0  0  0  0  0  0  0  0  0  0  0  0
  -44.6604   59.0706   65.6931 C   0  0  0  0  0  0  0  0  0  0  0  0
  -45.6810   60.0455   65.1315 C   0  0  0  0  0  0  0  0  0  0  0  0
  -47.0819   59.7517   65.6198 C   0  0  0  0  0  0  0  0  0  0  0  0
  -47.8136   58.6777   64.8407 C   0  0  0  0  0  0  0  0  0  0  0  0
  -49.1253   58.3027   65.4161 C   0  0  0  0  0  0  0  0  0  0  0  0
  -50.2976   58.7788   65.0502 C   0  0  0  0  0  0  0  0  0  0  0  0
  -50.5722   59.7616   63.9586 C   0  0  0  0  0  0  0  0  0  0  0  0
  -51.1436   59.0434   62.7350 C   0  0  0  0  0  0  0  0  0  0  0  0
  -50.1210   58.3373   61.8568 C   0  0  0  0  0  0  0  0  0  0  0  0
  -50.7078   57.5406   60.6977 C   0  0  0  0  0  0  0  0  0  0  0  0
  -50.0411   57.8338   59.3577 C   0  0  0  0  0  0  0  0  0  0  0  0
  -48.8220   56.9694   59.0781 C   0  0  0  0  0  0  0  0  0  0  0  0
  -48.1518   57.2038   57.7327 C   0  0  0  0  0  0  0  0  0  0  0  0
  -47.1598   56.1367   57.3854 C   0  0  0  0  0  0  0  0  0  0  0  0
  -39.5451   60.7121   66.1064 O   0  0  0  0  0  0  0  0  0  0  0  0
  -38.2120   60.2689   66.4426 C   0  0  0  0  0  0  0  0  0  0  0  0
  -37.1604   61.2501   65.9696 C   0  0  0  0  0  0  0  0  0  0  0  0
  -36.5234   61.8975   67.0793 O   0  0  0  0  0  0  0  0  0  0  0  0
  -36.0563   61.2370   67.6144 H   0  0  0  0  0  0  0  0  0  0  0  0
  -36.1120   60.6011   65.0969 C   0  0  0  0  0  0  0  0  0  0  0  0
  -36.5505   59.3158   64.5940 O   0  0  0  0  0  0  0  0  0  0  0  0
  -36.6693   58.7203   63.1083 P   0  0  0  0  0  0  0  0  0  0  0  0
  -37.2889   57.3269   63.2006 O   0  0  0  0  0  0  0  0  0  0  0  0
  -35.3101   58.5942   62.5383 O   0  0  0  0  0  0  0  0  0  0  0  0
  -34.7677   58.0351   63.1163 H   0  0  0  0  0  0  0  0  0  0  0  0
  -37.6239   59.6629   62.1567 O   0  0  0  0  0  0  0  0  0  0  0  0
  -38.9830   60.0802   62.4594 C   0  0  0  0  0  0  0  0  0  0  0  0
  -39.8945   59.7710   61.2976 C   0  0  0  0  0  0  0  0  0  0  0  0
  -41.0382   58.8121   61.5710 N   0  0  0  0  0  0  0  0  0  0  0  0
  -41.7114   58.4220   60.2944 C   0  0  0  0  0  0  0  0  0  0  0  0
  -42.0310   59.4929   62.4551 C   0  0  0  0  0  0  0  0  0  0  0  0
  -40.5341   57.5717   62.2521 C   0  0  0  0  0  0  0  0  0  0  0  0
 34 33  1  0  0  0
 34 35  1  0  0  0
 34 36  1  0  0  0
 34 37  1  0  0  0
 22 23  1  0  0  0
 22 25  1  0  0  0
 22 21  1  0  0  0
 23 24  1  0  0  0
 27 26  1  0  0  0
 27 28  2  0  0  0
 27 31  1  0  0  0
 27 29  1  0  0  0
 25 26  1  0  0  0
 32 33  1  0  0  0
 32 31  1  0  0  0
 29 30  1  0  0  0
 20 21  1  0  0  0
 20  2  1  0  0  0
  1  2  2  0  0  0
  2  3  1  0  0  0
  3  4  1  0  0  0
  4  5  1  0  0  0
  5  6  1  0  0  0
  6  7  1  0  0  0
  7  8  1  0  0  0
  8  9  1  0  0  0
  9 10  1  0  0  0
 10 11  2  0  0  0
 11 12  1  0  0  0
 12 13  1  0  0  0
 13 14  1  0  0  0
 14 15  1  0  0  0
 15 16  1  0  0  0
 16 17  1  0  0  0
 17 18  1  0  0  0
 18 19  1  0  0  0
M  CHG 1  28  -1
M  END
> <minimizedAffinity>
-8.14529

> <CNNscore>
0.5932676792

> <CNNaffinity>
6.8776855469

> <CNN_VS>
4.0803084373

> <CNNaffinity_variance>
0.1999758035

$$$$
/media/chris/experiments/cd1a-new-docking/inputs/ligands/4x6e_ligand.pdb


 37 36  0  0  0  0  0  0  0  0999 V2000
  -40.7234   60.9378   65.9988 O   0  0  0  0  0  0  0  0  0  0  0  0
  -41.1260   59.8859   65.5677 C   0  0  0  0  0  0  0  0  0  0  0  0
  -41.8973   58.8671   66.3493 C   0  0  0  0  0  0  0  0  0  0  0  0
  -42.9743   59.4812   67.2357 C   0  0  0  0  0  0  0  0  0  0  0  0
  -44.3911   59.2867   66.7236 C   0  0  0  0  0  0  0  0  0  0  0  0
  -44.5075   58.2064   65.6627 C   0  0  0  0  0  0  0  0  0  0  0  0
  -45.5898   58.4977   64.6374 C   0  0  0  0  0  0  0  0  0  0  0  0
  -46.1393   59.9006   64.7684 C   0  0  0  0  0  0  0  0  0  0  0  0
  -47.6370   60.0169   64.5708 C   0  0  0  0  0  0  0  0  0  0  0  0
  -48.3448   58.7167   64.5444 C   0  0  0  0  0  0  0  0  0  0  0  0
  -49.5765   58.5123   64.1249 C   0  0  0  0  0  0  0  0  0  0  0  0
  -50.5140   59.5238   63.5495 C   0  0  0  0  0  0  0  0  0  0  0  0
  -50.2453   59.7000   62.0541 C   0  0  0  0  0  0  0  0  0  0  0  0
  -50.0415   58.4108   61.2718 C   0  0  0  0  0  0  0  0  0  0  0  0
  -49.6329   58.5986   59.8157 C   0  0  0  0  0  0  0  0  0  0  0  0
  -49.5071   57.2888   59.0445 C   0  0  0  0  0  0  0  0  0  0  0  0
  -48.6382   56.2512   59.7374 C   0  0  0  0  0  0  0  0  0  0  0  0
  -47.3613   55.8743   59.0012 C   0  0  0  0  0  0  0  0  0  0  0  0
  -47.4432   56.1339   57.5284 C   0  0  0  0  0  0  0  0  0  0  0  0
  -40.9516   59.4739   64.3085 O   0  0  0  0  0  0  0  0  0  0  0  0
  -41.1499   58.0716   64.0244 C   0  0  0  0  0  0  0  0  0  0  0  0
  -41.6953   57.8553   62.6286 C   0  0  0  0  0  0  0  0  0  0  0  0
  -42.3318   59.0415   62.1345 O   0  0  0  0  0  0  0  0  0  0  0  0
  -41.6771   59.7536   62.0621 H   0  0  0  0  0  0  0  0  0  0  0  0
  -40.6313   57.4119   61.6522 C   0  0  0  0  0  0  0  0  0  0  0  0
  -39.4280   58.2093   61.7683 O   0  0  0  0  0  0  0  0  0  0  0  0
  -38.8777   59.4630   60.9307 P   0  0  0  0  0  0  0  0  0  0  0  0
  -40.0762   60.2150   60.3542 O   0  0  0  0  0  0  0  0  0  0  0  0
  -38.0547   58.9591   59.8095 O   0  0  0  0  0  0  0  0  0  0  0  0
  -38.5847   58.3567   59.2644 H   0  0  0  0  0  0  0  0  0  0  0  0
  -38.0148   60.4904   61.8820 O   0  0  0  0  0  0  0  0  0  0  0  0
  -37.8485   60.3827   63.3219 C   0  0  0  0  0  0  0  0  0  0  0  0
  -36.4255   60.0095   63.6561 C   0  0  0  0  0  0  0  0  0  0  0  0
  -36.1864   58.5767   64.0946 N   0  0  0  0  0  0  0  0  0  0  0  0
  -36.1109   57.6712   62.9074 C   0  0  0  0  0  0  0  0  0  0  0  0
  -37.3239   58.1466   64.9616 C   0  0  0  0  0  0  0  0  0  0  0  0
  -34.9031   58.4699   64.8682 C   0  0  0  0  0  0  0  0  0  0  0  0
 34 33  1  0  0  0
 34 35  1  0  0  0
 34 36  1  0  0  0
 34 37  1  0  0  0
 22 23  1  0  0  0
 22 25  1  0  0  0
 22 21  1  0  0  0
 23 24  1  0  0  0
 27 26  1  0  0  0
 27 28  2  0  0  0
 27 31  1  0  0  0
 27 29  1  0  0  0
 25 26  1  0  0  0
 32 33  1  0  0  0
 32 31  1  0  0  0
 29 30  1  0  0  0
 20 21  1  0  0  0
 20  2  1  0  0  0
  1  2  2  0  0  0
  2  3  1  0  0  0
  3  4  1  0  0  0
  4  5  1  0  0  0
  5  6  1  0  0  0
  6  7  1  0  0  0
  7  8  1  0  0  0
  8  9  1  0  0  0
  9 10  1  0  0  0
 10 11  2  0  0  0
 11 12  1  0  0  0
 12 13  1  0  0  0
 13 14  1  0  0  0
 14 15  1  0  0  0
 15 16  1  0  0  0
 16 17  1  0  0  0
 17 18  1  0  0  0
 18 19  1  0  0  0
M  CHG 1  28  -1
M  END
> <minimizedAffinity>
-7.58160

> <CNNscore>
0.5690776110

> <CNNaffinity>
6.8673110008

> <CNN_VS>
3.9080328941

> <CNNaffinity_variance>
0.2682666481

$$$$
/media/chris/experiments/cd1a-new-docking/inputs/ligands/4x6e_ligand.pdb


 37 36  0  0  0  0  0  0  0  0999 V2000
  -41.5980   56.5959   63.6176 O   0  0  0  0  0  0  0  0  0  0  0  0
  -41.7897   57.4067   62.7455 C   0  0  0  0  0  0  0  0  0  0  0  0
  -42.9807   58.3099   62.6485 C   0  0  0  0  0  0  0  0  0  0  0  0
  -43.5471   58.7031   64.0077 C   0  0  0  0  0  0  0  0  0  0  0  0
  -45.0647   58.7054   64.0755 C   0  0  0  0  0  0  0  0  0  0  0  0
  -45.6077   58.4474   65.4700 C   0  0  0  0  0  0  0  0  0  0  0  0
  -46.8470   59.2680   65.7838 C   0  0  0  0  0  0  0  0  0  0  0  0
  -48.0459   58.3988   66.0915 C   0  0  0  0  0  0  0  0  0  0  0  0
  -49.1323   58.4187   65.0355 C   0  0  0  0  0  0  0  0  0  0  0  0
  -48.9939   59.5133   64.0481 C   0  0  0  0  0  0  0  0  0  0  0  0
  -49.8509   59.8091   63.0927 C   0  0  0  0  0  0  0  0  0  0  0  0
  -51.1598   59.1436   62.8159 C   0  0  0  0  0  0  0  0  0  0  0  0
  -50.9777   58.0344   61.7787 C   0  0  0  0  0  0  0  0  0  0  0  0
  -49.6983   58.1122   60.9586 C   0  0  0  0  0  0  0  0  0  0  0  0
  -49.9043   58.2605   59.4559 C   0  0  0  0  0  0  0  0  0  0  0  0
  -49.1309   57.2370   58.6310 C   0  0  0  0  0  0  0  0  0  0  0  0
  -48.2552   56.3147   59.4642 C   0  0  0  0  0  0  0  0  0  0  0  0
  -47.0446   55.7399   58.7443 C   0  0  0  0  0  0  0  0  0  0  0  0
  -47.0400   56.0505   57.2791 C   0  0  0  0  0  0  0  0  0  0  0  0
  -40.9502   57.6307   61.7302 O   0  0  0  0  0  0  0  0  0  0  0  0
  -40.8978   58.9656   61.1808 C   0  0  0  0  0  0  0  0  0  0  0  0
  -39.7472   59.7631   61.7575 C   0  0  0  0  0  0  0  0  0  0  0  0
  -38.9919   60.4023   60.7195 O   0  0  0  0  0  0  0  0  0  0  0  0
  -39.5565   61.0392   60.2543 H   0  0  0  0  0  0  0  0  0  0  0  0
  -40.2031   60.7989   62.7581 C   0  0  0  0  0  0  0  0  0  0  0  0
  -39.1858   61.0715   63.7521 O   0  0  0  0  0  0  0  0  0  0  0  0
  -37.6466   61.5099   63.6306 P   0  0  0  0  0  0  0  0  0  0  0  0
  -37.5076   62.4346   62.4224 O   0  0  0  0  0  0  0  0  0  0  0  0
  -36.8269   60.3013   63.3950 O   0  0  0  0  0  0  0  0  0  0  0  0
  -37.1436   59.8459   62.5992 H   0  0  0  0  0  0  0  0  0  0  0  0
  -37.1419   62.3135   64.9740 O   0  0  0  0  0  0  0  0  0  0  0  0
  -36.4836   63.6093   64.9957 C   0  0  0  0  0  0  0  0  0  0  0  0
  -35.1355   63.4983   65.6638 C   0  0  0  0  0  0  0  0  0  0  0  0
  -33.9229   63.7544   64.7883 N   0  0  0  0  0  0  0  0  0  0  0  0
  -34.0109   65.1050   64.1534 C   0  0  0  0  0  0  0  0  0  0  0  0
  -33.8804   62.7157   63.7159 C   0  0  0  0  0  0  0  0  0  0  0  0
  -32.6618   63.6820   65.6012 C   0  0  0  0  0  0  0  0  0  0  0  0
 34 33  1  0  0  0
 34 35  1  0  0  0
 34 36  1  0  0  0
 34 37  1  0  0  0
 22 23  1  0  0  0
 22 25  1  0  0  0
 22 21  1  0  0  0
 23 24  1  0  0  0
 27 26  1  0  0  0
 27 28  2  0  0  0
 27 31  1  0  0  0
 27 29  1  0  0  0
 25 26  1  0  0  0
 32 33  1  0  0  0
 32 31  1  0  0  0
 29 30  1  0  0  0
 20 21  1  0  0  0
 20  2  1  0  0  0
  1  2  2  0  0  0
  2  3  1  0  0  0
  3  4  1  0  0  0
  4  5  1  0  0  0
  5  6  1  0  0  0
  6  7  1  0  0  0
  7  8  1  0  0  0
  8  9  1  0  0  0
  9 10  1  0  0  0
 10 11  2  0  0  0
 11 12  1  0  0  0
 12 13  1  0  0  0
 13 14  1  0  0  0
 14 15  1  0  0  0
 15 16  1  0  0  0
 16 17  1  0  0  0
 17 18  1  0  0  0
 18 19  1  0  0  0
M  CHG 1  28  -1
M  END
> <minimizedAffinity>
-7.88177

> <CNNscore>
0.5450684428

> <CNNaffinity>
6.4631490707

> <CNN_VS>
3.5228586197

> <CNNaffinity_variance>
0.3264057040

$$$$
