/media/chris/experiments/cd1a-new-docking/inputs/ligands/4x6e_ligand.pdb


 37 36  0  0  0  0  0  0  0  0999 V2000
  -41.1297   56.6508   63.3344 O   0  0  0  0  0  0  0  0  0  0  0  0
  -41.7574   57.2150   64.1959 C   0  0  0  0  0  0  0  0  0  0  0  0
  -42.8523   56.6012   65.0134 C   0  0  0  0  0  0  0  0  0  0  0  0
  -44.0951   57.4784   65.1059 C   0  0  0  0  0  0  0  0  0  0  0  0
  -44.6509   57.6286   66.5116 C   0  0  0  0  0  0  0  0  0  0  0  0
  -46.0774   58.1484   66.5452 C   0  0  0  0  0  0  0  0  0  0  0  0
  -47.1131   57.0376   66.5160 C   0  0  0  0  0  0  0  0  0  0  0  0
  -48.4041   57.4763   65.8614 C   0  0  0  0  0  0  0  0  0  0  0  0
  -48.2295   58.3506   64.6362 C   0  0  0  0  0  0  0  0  0  0  0  0
  -48.9878   59.6211   64.6888 C   0  0  0  0  0  0  0  0  0  0  0  0
  -50.1175   59.8767   64.0615 C   0  0  0  0  0  0  0  0  0  0  0  0
  -50.9025   58.9431   63.1986 C   0  0  0  0  0  0  0  0  0  0  0  0
  -50.4352   59.0497   61.7461 C   0  0  0  0  0  0  0  0  0  0  0  0
  -50.3704   57.7344   60.9838 C   0  0  0  0  0  0  0  0  0  0  0  0
  -50.3330   57.8703   59.4664 C   0  0  0  0  0  0  0  0  0  0  0  0
  -48.9753   57.5350   58.8580 C   0  0  0  0  0  0  0  0  0  0  0  0
  -48.3580   56.2575   59.4046 C   0  0  0  0  0  0  0  0  0  0  0  0
  -47.0868   55.7977   58.7066 C   0  0  0  0  0  0  0  0  0  0  0  0
  -47.1680   55.9184   57.2158 C   0  0  0  0  0  0  0  0  0  0  0  0
  -41.5576   58.4846   64.5617 O   0  0  0  0  0  0  0  0  0  0  0  0
  -40.5632   58.7452   65.5767 C   0  0  0  0  0  0  0  0  0  0  0  0
  -39.7227   59.9580   65.2378 C   0  0  0  0  0  0  0  0  0  0  0  0
  -39.8130   60.9518   66.2676 O   0  0  0  0  0  0  0  0  0  0  0  0
  -39.4521   60.5946   67.0942 H   0  0  0  0  0  0  0  0  0  0  0  0
  -38.2718   59.6104   65.0005 C   0  0  0  0  0  0  0  0  0  0  0  0
  -37.5351   60.7263   64.4442 O   0  0  0  0  0  0  0  0  0  0  0  0
  -36.5851   61.8342   65.1123 P   0  0  0  0  0  0  0  0  0  0  0  0
  -35.4225   61.1167   65.7961 O   0  0  0  0  0  0  0  0  0  0  0  0
  -37.3586   62.5633   66.1412 O   0  0  0  0  0  0  0  0  0  0  0  0
  -37.7039   61.9334   66.7930 H   0  0  0  0  0  0  0  0  0  0  0  0
  -35.9806   62.8677   63.9848 O   0  0  0  0  0  0  0  0  0  0  0  0
  -34.5785   63.2044   63.8011 C   0  0  0  0  0  0  0  0  0  0  0  0
  -34.3154   64.6149   64.2676 C   0  0  0  0  0  0  0  0  0  0  0  0
  -33.4769   64.7674   65.5230 N   0  0  0  0  0  0  0  0  0  0  0  0
  -32.3581   63.7759   65.5294 C   0  0  0  0  0  0  0  0  0  0  0  0
  -34.3480   64.5242   66.7114 C   0  0  0  0  0  0  0  0  0  0  0  0
  -32.8987   66.1514   65.6050 C   0  0  0  0  0  0  0  0  0  0  0  0
 34 33  1  0  0  0
 34 35  1  0  0  0
 34 36  1  0  0  0
 34 37  1  0  0  0
 22 23  1  0  0  0
 22 25  1  0  0  0
 22 21  1  0  0  0
 23 24  1  0  0  0
 27 26  1  0  0  0
 27 28  2  0  0  0
 27 31  1  0  0  0
 27 29  1  0  0  0
 25 26  1  0  0  0
 32 33  1  0  0  0
 32 31  1  0  0  0
 29 30  1  0  0  0
 20 21  1  0  0  0
 20  2  1  0  0  0
  1  2  2  0  0  0
  2  3  1  0  0  0
  3  4  1  0  0  0
  4  5  1  0  0  0
  5  6  1  0  0  0
  6  7  1  0  0  0
  7  8  1  0  0  0
  8  9  1  0  0  0
  9 10  1  0  0  0
 10 11  2  0  0  0
 11 12  1  0  0  0
 12 13  1  0  0  0
 13 14  1  0  0  0
 14 15  1  0  0  0
 15 16  1  0  0  0
 16 17  1  0  0  0
 17 18  1  0  0  0
 18 19  1  0  0  0
M  CHG 1  28  -1
M  END
> <minimizedAffinity>
-7.85837

> <CNNscore>
0.8169733286

> <CNNaffinity>
6.6135215759

> <CNN_VS>
5.4030709267

> <CNNaffinity_variance>
0.4330075383

$$$$
/media/chris/experiments/cd1a-new-docking/inputs/ligands/4x6e_ligand.pdb


 37 36  0  0  0  0  0  0  0  0999 V2000
  -42.0507   55.7342   63.7891 O   0  0  0  0  0  0  0  0  0  0  0  0
  -42.2809   56.8417   64.2075 C   0  0  0  0  0  0  0  0  0  0  0  0
  -43.4847   57.2326   65.0085 C   0  0  0  0  0  0  0  0  0  0  0  0
  -44.4269   58.1662   64.2579 C   0  0  0  0  0  0  0  0  0  0  0  0
  -45.4446   58.8688   65.1401 C   0  0  0  0  0  0  0  0  0  0  0  0
  -46.4640   59.6793   64.3591 C   0  0  0  0  0  0  0  0  0  0  0  0
  -47.3771   60.5011   65.2527 C   0  0  0  0  0  0  0  0  0  0  0  0
  -48.1167   59.6451   66.2566 C   0  0  0  0  0  0  0  0  0  0  0  0
  -49.1703   58.7341   65.6600 C   0  0  0  0  0  0  0  0  0  0  0  0
  -50.4998   59.3678   65.5082 C   0  0  0  0  0  0  0  0  0  0  0  0
  -50.9971   59.8705   64.3969 C   0  0  0  0  0  0  0  0  0  0  0  0
  -50.3600   59.8796   63.0456 C   0  0  0  0  0  0  0  0  0  0  0  0
  -50.7865   58.6424   62.2537 C   0  0  0  0  0  0  0  0  0  0  0  0
  -50.2655   58.5704   60.8259 C   0  0  0  0  0  0  0  0  0  0  0  0
  -49.8689   57.1767   60.3542 C   0  0  0  0  0  0  0  0  0  0  0  0
  -48.9460   57.1842   59.1401 C   0  0  0  0  0  0  0  0  0  0  0  0
  -47.9523   56.0336   59.1191 C   0  0  0  0  0  0  0  0  0  0  0  0
  -47.1694   55.8725   57.8247 C   0  0  0  0  0  0  0  0  0  0  0  0
  -47.6312   56.8058   56.7480 C   0  0  0  0  0  0  0  0  0  0  0  0
  -41.4787   57.8950   64.0263 O   0  0  0  0  0  0  0  0  0  0  0  0
  -40.6183   58.2831   65.1198 C   0  0  0  0  0  0  0  0  0  0  0  0
  -40.7286   59.7629   65.4201 C   0  0  0  0  0  0  0  0  0  0  0  0
  -41.7958   60.0237   66.3418 O   0  0  0  0  0  0  0  0  0  0  0  0
  -41.6057   59.5891   67.1880 H   0  0  0  0  0  0  0  0  0  0  0  0
  -39.4431   60.3423   65.9625 C   0  0  0  0  0  0  0  0  0  0  0  0
  -38.6218   60.9069   64.9118 O   0  0  0  0  0  0  0  0  0  0  0  0
  -37.3201   60.3618   64.1473 P   0  0  0  0  0  0  0  0  0  0  0  0
  -36.1070   60.5904   65.0476 O   0  0  0  0  0  0  0  0  0  0  0  0
  -37.1380   61.1440   62.9049 O   0  0  0  0  0  0  0  0  0  0  0  0
  -37.0686   62.0865   63.1233 H   0  0  0  0  0  0  0  0  0  0  0  0
  -37.4426   58.7545   63.8210 O   0  0  0  0  0  0  0  0  0  0  0  0
  -37.2500   58.1308   62.5222 C   0  0  0  0  0  0  0  0  0  0  0  0
  -38.5559   57.5723   62.0132 C   0  0  0  0  0  0  0  0  0  0  0  0
  -39.1921   58.2980   60.8423 N   0  0  0  0  0  0  0  0  0  0  0  0
  -40.2309   57.4392   60.1956 C   0  0  0  0  0  0  0  0  0  0  0  0
  -38.1295   58.6121   59.8410 C   0  0  0  0  0  0  0  0  0  0  0  0
  -39.8361   59.5751   61.3015 C   0  0  0  0  0  0  0  0  0  0  0  0
 34 33  1  0  0  0
 34 35  1  0  0  0
 34 36  1  0  0  0
 34 37  1  0  0  0
 22 23  1  0  0  0
 22 25  1  0  0  0
 22 21  1  0  0  0
 23 24  1  0  0  0
 27 26  1  0  0  0
 27 28  2  0  0  0
 27 31  1  0  0  0
 27 29  1  0  0  0
 25 26  1  0  0  0
 32 33  1  0  0  0
 32 31  1  0  0  0
 29 30  1  0  0  0
 20 21  1  0  0  0
 20  2  1  0  0  0
  1  2  2  0  0  0
  2  3  1  0  0  0
  3  4  1  0  0  0
  4  5  1  0  0  0
  5  6  1  0  0  0
  6  7  1  0  0  0
  7  8  1  0  0  0
  8  9  1  0  0  0
  9 10  1  0  0  0
 10 11  2  0  0  0
 11 12  1  0  0  0
 12 13  1  0  0  0
 13 14  1  0  0  0
 14 15  1  0  0  0
 15 16  1  0  0  0
 16 17  1  0  0  0
 17 18  1  0  0  0
 18 19  1  0  0  0
M  CHG 1  28  -1
M  END
> <minimizedAffinity>
-7.81335

> <CNNscore>
0.7474839687

> <CNNaffinity>
7.0414247513

> <CNN_VS>
5.2633519173

> <CNNaffinity_variance>
0.1735125929

$$$$
/media/chris/experiments/cd1a-new-docking/inputs/ligands/4x6e_ligand.pdb


 37 36  0  0  0  0  0  0  0  0999 V2000
  -41.2695   61.1164   66.6082 O   0  0  0  0  0  0  0  0  0  0  0  0
  -41.3835   59.9372   66.3820 C   0  0  0  0  0  0  0  0  0  0  0  0
  -42.4230   59.0373   66.9762 C   0  0  0  0  0  0  0  0  0  0  0  0
  -43.8335   59.3475   66.4897 C   0  0  0  0  0  0  0  0  0  0  0  0
  -44.7425   58.1342   66.3935 C   0  0  0  0  0  0  0  0  0  0  0  0
  -46.1726   58.4152   66.8202 C   0  0  0  0  0  0  0  0  0  0  0  0
  -46.6617   59.7861   66.3854 C   0  0  0  0  0  0  0  0  0  0  0  0
  -47.2668   59.7646   64.9995 C   0  0  0  0  0  0  0  0  0  0  0  0
  -47.9611   58.4694   64.6300 C   0  0  0  0  0  0  0  0  0  0  0  0
  -49.2933   58.3000   65.2534 C   0  0  0  0  0  0  0  0  0  0  0  0
  -50.4404   58.7162   64.7575 C   0  0  0  0  0  0  0  0  0  0  0  0
  -50.6617   59.4083   63.4520 C   0  0  0  0  0  0  0  0  0  0  0  0
  -50.8154   58.3800   62.3301 C   0  0  0  0  0  0  0  0  0  0  0  0
  -49.9539   58.6237   61.0997 C   0  0  0  0  0  0  0  0  0  0  0  0
  -50.3887   57.8693   59.8491 C   0  0  0  0  0  0  0  0  0  0  0  0
  -49.2338   57.5194   58.9165 C   0  0  0  0  0  0  0  0  0  0  0  0
  -48.2631   56.5038   59.4980 C   0  0  0  0  0  0  0  0  0  0  0  0
  -47.3238   55.8516   58.4946 C   0  0  0  0  0  0  0  0  0  0  0  0
  -47.4324   56.4495   57.1255 C   0  0  0  0  0  0  0  0  0  0  0  0
  -40.5961   59.2530   65.5468 O   0  0  0  0  0  0  0  0  0  0  0  0
  -41.0779   57.9836   65.0539 C   0  0  0  0  0  0  0  0  0  0  0  0
  -40.6874   57.7603   63.6083 C   0  0  0  0  0  0  0  0  0  0  0  0
  -41.7248   57.0750   62.8939 O   0  0  0  0  0  0  0  0  0  0  0  0
  -42.5235   57.6253   62.8767 H   0  0  0  0  0  0  0  0  0  0  0  0
  -40.3503   59.0475   62.8928 C   0  0  0  0  0  0  0  0  0  0  0  0
  -38.9211   59.2760   62.8410 O   0  0  0  0  0  0  0  0  0  0  0  0
  -38.0249   60.5794   63.1132 P   0  0  0  0  0  0  0  0  0  0  0  0
  -38.6828   61.3860   64.2316 O   0  0  0  0  0  0  0  0  0  0  0  0
  -38.0052   61.4056   61.8862 O   0  0  0  0  0  0  0  0  0  0  0  0
  -38.9142   61.6305   61.6331 H   0  0  0  0  0  0  0  0  0  0  0  0
  -36.5000   60.1750   63.5778 O   0  0  0  0  0  0  0  0  0  0  0  0
  -35.7716   60.7429   64.7003 C   0  0  0  0  0  0  0  0  0  0  0  0
  -35.0159   61.9733   64.2628 C   0  0  0  0  0  0  0  0  0  0  0  0
  -34.9723   63.1269   65.2475 N   0  0  0  0  0  0  0  0  0  0  0  0
  -36.3568   63.5423   65.6292 C   0  0  0  0  0  0  0  0  0  0  0  0
  -34.2801   64.2812   64.6002 C   0  0  0  0  0  0  0  0  0  0  0  0
  -34.2251   62.7314   66.4891 C   0  0  0  0  0  0  0  0  0  0  0  0
 34 33  1  0  0  0
 34 35  1  0  0  0
 34 36  1  0  0  0
 34 37  1  0  0  0
 22 23  1  0  0  0
 22 25  1  0  0  0
 22 21  1  0  0  0
 23 24  1  0  0  0
 27 26  1  0  0  0
 27 28  2  0  0  0
 27 31  1  0  0  0
 27 29  1  0  0  0
 25 26  1  0  0  0
 32 33  1  0  0  0
 32 31  1  0  0  0
 29 30  1  0  0  0
 20 21  1  0  0  0
 20  2  1  0  0  0
  1  2  2  0  0  0
  2  3  1  0  0  0
  3  4  1  0  0  0
  4  5  1  0  0  0
  5  6  1  0  0  0
  6  7  1  0  0  0
  7  8  1  0  0  0
  8  9  1  0  0  0
  9 10  1  0  0  0
 10 11  2  0  0  0
 11 12  1  0  0  0
 12 13  1  0  0  0
 13 14  1  0  0  0
 14 15  1  0  0  0
 15 16  1  0  0  0
 16 17  1  0  0  0
 17 18  1  0  0  0
 18 19  1  0  0  0
M  CHG 1  28  -1
M  END
> <minimizedAffinity>
-7.96760

> <CNNscore>
0.7426897883

> <CNNaffinity>
6.7445154190

> <CNN_VS>
5.0090827942

> <CNNaffinity_variance>
0.3365539014

$$$$
/media/chris/experiments/cd1a-new-docking/inputs/ligands/4x6e_ligand.pdb


 37 36  0  0  0  0  0  0  0  0999 V2000
  -41.3890   59.9554   66.6090 O   0  0  0  0  0  0  0  0  0  0  0  0
  -41.9108   59.2364   65.7932 C   0  0  0  0  0  0  0  0  0  0  0  0
  -43.2079   58.5111   65.9808 C   0  0  0  0  0  0  0  0  0  0  0  0
  -44.1851   59.2542   66.8839 C   0  0  0  0  0  0  0  0  0  0  0  0
  -45.6483   58.9900   66.5728 C   0  0  0  0  0  0  0  0  0  0  0  0
  -46.0445   59.3750   65.1583 C   0  0  0  0  0  0  0  0  0  0  0  0
  -47.3671   58.7648   64.7271 C   0  0  0  0  0  0  0  0  0  0  0  0
  -48.4777   59.0513   65.7130 C   0  0  0  0  0  0  0  0  0  0  0  0
  -49.8452   58.5538   65.2908 C   0  0  0  0  0  0  0  0  0  0  0  0
  -50.7583   59.6220   64.8244 C   0  0  0  0  0  0  0  0  0  0  0  0
  -50.9555   59.9820   63.5728 C   0  0  0  0  0  0  0  0  0  0  0  0
  -50.3432   59.3766   62.3518 C   0  0  0  0  0  0  0  0  0  0  0  0
  -51.0809   58.0908   61.9748 C   0  0  0  0  0  0  0  0  0  0  0  0
  -50.6671   57.4660   60.6506 C   0  0  0  0  0  0  0  0  0  0  0  0
  -49.7412   58.3225   59.7955 C   0  0  0  0  0  0  0  0  0  0  0  0
  -48.9747   57.5276   58.7435 C   0  0  0  0  0  0  0  0  0  0  0  0
  -48.1642   56.3759   59.3166 C   0  0  0  0  0  0  0  0  0  0  0  0
  -47.1811   55.7281   58.3530 C   0  0  0  0  0  0  0  0  0  0  0  0
  -47.1643   56.3906   57.0097 C   0  0  0  0  0  0  0  0  0  0  0  0
  -41.4080   58.9875   64.5804 O   0  0  0  0  0  0  0  0  0  0  0  0
  -42.0383   57.9572   63.7878 C   0  0  0  0  0  0  0  0  0  0  0  0
  -42.1778   58.3732   62.3388 C   0  0  0  0  0  0  0  0  0  0  0  0
  -41.8897   59.7681   62.1728 O   0  0  0  0  0  0  0  0  0  0  0  0
  -40.9662   59.9386   62.4158 H   0  0  0  0  0  0  0  0  0  0  0  0
  -41.2967   57.5646   61.4156 C   0  0  0  0  0  0  0  0  0  0  0  0
  -39.8981   57.9081   61.5689 O   0  0  0  0  0  0  0  0  0  0  0  0
  -38.9069   58.8176   60.6934 P   0  0  0  0  0  0  0  0  0  0  0  0
  -39.6009   60.1502   60.4168 O   0  0  0  0  0  0  0  0  0  0  0  0
  -38.6581   58.1397   59.4023 O   0  0  0  0  0  0  0  0  0  0  0  0
  -39.5028   57.9790   58.9533 H   0  0  0  0  0  0  0  0  0  0  0  0
  -37.4973   59.1092   61.4889 O   0  0  0  0  0  0  0  0  0  0  0  0
  -37.2674   58.9247   62.9123 C   0  0  0  0  0  0  0  0  0  0  0  0
  -38.0105   59.9746   63.7009 C   0  0  0  0  0  0  0  0  0  0  0  0
  -37.1845   60.8121   64.6595 N   0  0  0  0  0  0  0  0  0  0  0  0
  -37.7996   60.8083   66.0221 C   0  0  0  0  0  0  0  0  0  0  0  0
  -37.1401   62.2155   64.1507 C   0  0  0  0  0  0  0  0  0  0  0  0
  -35.7854   60.2740   64.7576 C   0  0  0  0  0  0  0  0  0  0  0  0
 34 33  1  0  0  0
 34 35  1  0  0  0
 34 36  1  0  0  0
 34 37  1  0  0  0
 22 23  1  0  0  0
 22 25  1  0  0  0
 22 21  1  0  0  0
 23 24  1  0  0  0
 27 26  1  0  0  0
 27 28  2  0  0  0
 27 31  1  0  0  0
 27 29  1  0  0  0
 25 26  1  0  0  0
 32 33  1  0  0  0
 32 31  1  0  0  0
 29 30  1  0  0  0
 20 21  1  0  0  0
 20  2  1  0  0  0
  1  2  2  0  0  0
  2  3  1  0  0  0
  3  4  1  0  0  0
  4  5  1  0  0  0
  5  6  1  0  0  0
  6  7  1  0  0  0
  7  8  1  0  0  0
  8  9  1  0  0  0
  9 10  1  0  0  0
 10 11  2  0  0  0
 11 12  1  0  0  0
 12 13  1  0  0  0
 13 14  1  0  0  0
 14 15  1  0  0  0
 15 16  1  0  0  0
 16 17  1  0  0  0
 17 18  1  0  0  0
 18 19  1  0  0  0
M  CHG 1  28  -1
M  END
> <minimizedAffinity>
-7.85580

> <CNNscore>
0.7006192207

> <CNNaffinity>
7.1220626831

> <CNN_VS>
4.9898538589

> <CNNaffinity_variance>
0.6371145248

$$$$
/media/chris/experiments/cd1a-new-docking/inputs/ligands/4x6e_ligand.pdb


 37 36  0  0  0  0  0  0  0  0999 V2000
  -41.9942   57.6312   64.9544 O   0  0  0  0  0  0  0  0  0  0  0  0
  -42.5686   58.2904   64.1235 C   0  0  0  0  0  0  0  0  0  0  0  0
  -44.0131   58.6835   64.1760 C   0  0  0  0  0  0  0  0  0  0  0  0
  -44.6102   58.5868   65.5748 C   0  0  0  0  0  0  0  0  0  0  0  0
  -45.4231   57.3276   65.8218 C   0  0  0  0  0  0  0  0  0  0  0  0
  -46.3588   57.4362   67.0130 C   0  0  0  0  0  0  0  0  0  0  0  0
  -47.0526   58.7847   67.0998 C   0  0  0  0  0  0  0  0  0  0  0  0
  -48.1613   58.9243   66.0806 C   0  0  0  0  0  0  0  0  0  0  0  0
  -48.3783   60.3334   65.5677 C   0  0  0  0  0  0  0  0  0  0  0  0
  -48.2699   60.4634   64.0968 C   0  0  0  0  0  0  0  0  0  0  0  0
  -49.2055   60.1611   63.2203 C   0  0  0  0  0  0  0  0  0  0  0  0
  -50.5849   59.6639   63.5072 C   0  0  0  0  0  0  0  0  0  0  0  0
  -51.0183   58.6640   62.4340 C   0  0  0  0  0  0  0  0  0  0  0  0
  -49.8869   58.0338   61.6350 C   0  0  0  0  0  0  0  0  0  0  0  0
  -50.3239   57.2743   60.3883 C   0  0  0  0  0  0  0  0  0  0  0  0
  -49.3548   57.4140   59.2189 C   0  0  0  0  0  0  0  0  0  0  0  0
  -48.2224   56.3995   59.2375 C   0  0  0  0  0  0  0  0  0  0  0  0
  -47.7237   55.9547   57.8708 C   0  0  0  0  0  0  0  0  0  0  0  0
  -47.4836   57.1030   56.9395 C   0  0  0  0  0  0  0  0  0  0  0  0
  -41.9900   58.7844   63.0250 O   0  0  0  0  0  0  0  0  0  0  0  0
  -40.5774   59.0806   63.0822 C   0  0  0  0  0  0  0  0  0  0  0  0
  -40.3231   60.5648   63.2389 C   0  0  0  0  0  0  0  0  0  0  0  0
  -40.4227   60.9627   64.6129 O   0  0  0  0  0  0  0  0  0  0  0  0
  -39.7354   60.5142   65.1301 H   0  0  0  0  0  0  0  0  0  0  0  0
  -38.9795   60.9844   62.6902 C   0  0  0  0  0  0  0  0  0  0  0  0
  -38.2197   61.7515   63.6555 O   0  0  0  0  0  0  0  0  0  0  0  0
  -36.9180   62.6798   63.5141 P   0  0  0  0  0  0  0  0  0  0  0  0
  -36.9712   63.7462   64.6068 O   0  0  0  0  0  0  0  0  0  0  0  0
  -36.9569   63.3529   62.1973 O   0  0  0  0  0  0  0  0  0  0  0  0
  -37.7802   63.8593   62.1172 H   0  0  0  0  0  0  0  0  0  0  0  0
  -35.5348   61.8078   63.6914 O   0  0  0  0  0  0  0  0  0  0  0  0
  -35.3529   60.6674   64.5742 C   0  0  0  0  0  0  0  0  0  0  0  0
  -35.1912   59.4033   63.7665 C   0  0  0  0  0  0  0  0  0  0  0  0
  -36.2151   58.3098   64.0082 N   0  0  0  0  0  0  0  0  0  0  0  0
  -35.5507   57.0760   64.5290 C   0  0  0  0  0  0  0  0  0  0  0  0
  -36.8867   57.9900   62.7132 C   0  0  0  0  0  0  0  0  0  0  0  0
  -37.2445   58.7632   65.0038 C   0  0  0  0  0  0  0  0  0  0  0  0
 34 33  1  0  0  0
 34 35  1  0  0  0
 34 36  1  0  0  0
 34 37  1  0  0  0
 22 23  1  0  0  0
 22 25  1  0  0  0
 22 21  1  0  0  0
 23 24  1  0  0  0
 27 26  1  0  0  0
 27 28  2  0  0  0
 27 31  1  0  0  0
 27 29  1  0  0  0
 25 26  1  0  0  0
 32 33  1  0  0  0
 32 31  1  0  0  0
 29 30  1  0  0  0
 20 21  1  0  0  0
 20  2  1  0  0  0
  1  2  2  0  0  0
  2  3  1  0  0  0
  3  4  1  0  0  0
  4  5  1  0  0  0
  5  6  1  0  0  0
  6  7  1  0  0  0
  7  8  1  0  0  0
  8  9  1  0  0  0
  9 10  1  0  0  0
 10 11  2  0  0  0
 11 12  1  0  0  0
 12 13  1  0  0  0
 13 14  1  0  0  0
 14 15  1  0  0  0
 15 16  1  0  0  0
 16 17  1  0  0  0
 17 18  1  0  0  0
 18 19  1  0  0  0
M  CHG 1  28  -1
M  END
> <minimizedAffinity>
-7.82098

> <CNNscore>
0.6964648962

> <CNNaffinity>
6.7361631393

> <CNN_VS>
4.6915011406

> <CNNaffinity_variance>
0.2109396011

$$$$
/media/chris/experiments/cd1a-new-docking/inputs/ligands/4x6e_ligand.pdb


 37 36  0  0  0  0  0  0  0  0999 V2000
  -42.9457   56.5550   65.2709 O   0  0  0  0  0  0  0  0  0  0  0  0
  -42.7047   57.7362   65.3075 C   0  0  0  0  0  0  0  0  0  0  0  0
  -43.5903   58.7830   65.9105 C   0  0  0  0  0  0  0  0  0  0  0  0
  -44.1387   59.7677   64.8846 C   0  0  0  0  0  0  0  0  0  0  0  0
  -45.4477   59.3389   64.2442 C   0  0  0  0  0  0  0  0  0  0  0  0
  -46.5823   60.3223   64.4714 C   0  0  0  0  0  0  0  0  0  0  0  0
  -47.2434   60.1601   65.8294 C   0  0  0  0  0  0  0  0  0  0  0  0
  -47.5654   58.7153   66.1400 C   0  0  0  0  0  0  0  0  0  0  0  0
  -48.6339   58.0997   65.2595 C   0  0  0  0  0  0  0  0  0  0  0  0
  -49.9952   58.6283   65.5039 C   0  0  0  0  0  0  0  0  0  0  0  0
  -50.6602   59.4511   64.7193 C   0  0  0  0  0  0  0  0  0  0  0  0
  -50.2164   59.9994   63.4022 C   0  0  0  0  0  0  0  0  0  0  0  0
  -50.7894   59.1574   62.2610 C   0  0  0  0  0  0  0  0  0  0  0  0
  -49.8528   58.0988   61.6978 C   0  0  0  0  0  0  0  0  0  0  0  0
  -50.3395   57.4202   60.4231 C   0  0  0  0  0  0  0  0  0  0  0  0
  -49.2945   57.3885   59.3127 C   0  0  0  0  0  0  0  0  0  0  0  0
  -48.3418   56.2069   59.4020 C   0  0  0  0  0  0  0  0  0  0  0  0
  -47.3688   56.0653   58.2410 C   0  0  0  0  0  0  0  0  0  0  0  0
  -47.7113   56.9553   57.0860 C   0  0  0  0  0  0  0  0  0  0  0  0
  -41.5911   58.2912   64.8200 O   0  0  0  0  0  0  0  0  0  0  0  0
  -41.2238   57.9807   63.4579 C   0  0  0  0  0  0  0  0  0  0  0  0
  -39.7350   57.7426   63.3206 C   0  0  0  0  0  0  0  0  0  0  0  0
  -39.1648   58.6033   62.3256 O   0  0  0  0  0  0  0  0  0  0  0  0
  -39.2668   59.5279   62.6009 H   0  0  0  0  0  0  0  0  0  0  0  0
  -38.9956   57.9239   64.6256 C   0  0  0  0  0  0  0  0  0  0  0  0
  -38.3019   59.1941   64.6791 O   0  0  0  0  0  0  0  0  0  0  0  0
  -38.6533   60.5877   65.3934 P   0  0  0  0  0  0  0  0  0  0  0  0
  -38.1237   60.5370   66.8256 O   0  0  0  0  0  0  0  0  0  0  0  0
  -40.1242   60.7381   65.4408 O   0  0  0  0  0  0  0  0  0  0  0  0
  -40.5122   59.9793   65.9039 H   0  0  0  0  0  0  0  0  0  0  0  0
  -37.9544   61.8564   64.6144 O   0  0  0  0  0  0  0  0  0  0  0  0
  -36.7370   62.5398   65.0192 C   0  0  0  0  0  0  0  0  0  0  0  0
  -35.6951   62.4366   63.9329 C   0  0  0  0  0  0  0  0  0  0  0  0
  -34.5704   63.4544   63.9745 N   0  0  0  0  0  0  0  0  0  0  0  0
  -33.3954   62.9690   63.1880 C   0  0  0  0  0  0  0  0  0  0  0  0
  -34.1560   63.6500   65.3959 C   0  0  0  0  0  0  0  0  0  0  0  0
  -35.0268   64.7669   63.4042 C   0  0  0  0  0  0  0  0  0  0  0  0
 34 33  1  0  0  0
 34 35  1  0  0  0
 34 36  1  0  0  0
 34 37  1  0  0  0
 22 23  1  0  0  0
 22 25  1  0  0  0
 22 21  1  0  0  0
 23 24  1  0  0  0
 27 26  1  0  0  0
 27 28  2  0  0  0
 27 31  1  0  0  0
 27 29  1  0  0  0
 25 26  1  0  0  0
 32 33  1  0  0  0
 32 31  1  0  0  0
 29 30  1  0  0  0
 20 21  1  0  0  0
 20  2  1  0  0  0
  1  2  2  0  0  0
  2  3  1  0  0  0
  3  4  1  0  0  0
  4  5  1  0  0  0
  5  6  1  0  0  0
  6  7  1  0  0  0
  7  8  1  0  0  0
  8  9  1  0  0  0
  9 10  1  0  0  0
 10 11  2  0  0  0
 11 12  1  0  0  0
 12 13  1  0  0  0
 13 14  1  0  0  0
 14 15  1  0  0  0
 15 16  1  0  0  0
 16 17  1  0  0  0
 17 18  1  0  0  0
 18 19  1  0  0  0
M  CHG 1  28  -1
M  END
> <minimizedAffinity>
-7.65738

> <CNNscore>
0.6747896671

> <CNNaffinity>
6.4372510910

> <CNN_VS>
4.3437905312

> <CNNaffinity_variance>
0.1214904934

$$$$
/media/chris/experiments/cd1a-new-docking/inputs/ligands/4x6e_ligand.pdb


 37 36  0  0  0  0  0  0  0  0999 V2000
  -40.6080   58.5926   65.5292 O   0  0  0  0  0  0  0  0  0  0  0  0
  -40.7547   59.7250   65.9174 C   0  0  0  0  0  0  0  0  0  0  0  0
  -42.0603   60.3428   66.3145 C   0  0  0  0  0  0  0  0  0  0  0  0
  -43.2697   59.5601   65.8171 C   0  0  0  0  0  0  0  0  0  0  0  0
  -44.3720   59.3909   66.8485 C   0  0  0  0  0  0  0  0  0  0  0  0
  -45.4949   58.4778   66.3887 C   0  0  0  0  0  0  0  0  0  0  0  0
  -45.9728   58.7898   64.9809 C   0  0  0  0  0  0  0  0  0  0  0  0
  -46.9184   59.9697   64.9462 C   0  0  0  0  0  0  0  0  0  0  0  0
  -48.1195   59.8477   65.8618 C   0  0  0  0  0  0  0  0  0  0  0  0
  -48.9540   58.6517   65.6060 C   0  0  0  0  0  0  0  0  0  0  0  0
  -50.1083   58.6324   64.9718 C   0  0  0  0  0  0  0  0  0  0  0  0
  -50.8102   59.7895   64.3387 C   0  0  0  0  0  0  0  0  0  0  0  0
  -51.1752   59.4562   62.8912 C   0  0  0  0  0  0  0  0  0  0  0  0
  -50.1081   58.7087   62.1053 C   0  0  0  0  0  0  0  0  0  0  0  0
  -50.6372   57.6427   61.1534 C   0  0  0  0  0  0  0  0  0  0  0  0
  -50.4685   58.0029   59.6810 C   0  0  0  0  0  0  0  0  0  0  0  0
  -49.1545   57.5281   59.0812 C   0  0  0  0  0  0  0  0  0  0  0  0
  -48.5951   56.2429   59.6725 C   0  0  0  0  0  0  0  0  0  0  0  0
  -47.3202   55.8098   59.0163 C   0  0  0  0  0  0  0  0  0  0  0  0
  -39.7587   60.6037   66.0643 O   0  0  0  0  0  0  0  0  0  0  0  0
  -38.4050   60.1150   65.9414 C   0  0  0  0  0  0  0  0  0  0  0  0
  -37.4666   61.1891   65.4335 C   0  0  0  0  0  0  0  0  0  0  0  0
  -36.8952   61.9302   66.5200 O   0  0  0  0  0  0  0  0  0  0  0  0
  -36.3571   61.3376   67.0680 H   0  0  0  0  0  0  0  0  0  0  0  0
  -36.3605   60.6317   64.5686 C   0  0  0  0  0  0  0  0  0  0  0  0
  -36.8809   59.9636   63.3937 O   0  0  0  0  0  0  0  0  0  0  0  0
  -36.7368   58.4589   62.8539 P   0  0  0  0  0  0  0  0  0  0  0  0
  -37.2791   57.5136   63.9246 O   0  0  0  0  0  0  0  0  0  0  0  0
  -35.3016   58.1644   62.6494 O   0  0  0  0  0  0  0  0  0  0  0  0
  -34.8210   58.3047   63.4802 H   0  0  0  0  0  0  0  0  0  0  0  0
  -37.5899   58.2331   61.4661 O   0  0  0  0  0  0  0  0  0  0  0  0
  -38.6947   59.0553   61.0008 C   0  0  0  0  0  0  0  0  0  0  0  0
  -39.8591   58.9524   61.9545 C   0  0  0  0  0  0  0  0  0  0  0  0
  -40.8650   57.8503   61.6784 N   0  0  0  0  0  0  0  0  0  0  0  0
  -40.8926   57.5195   60.2208 C   0  0  0  0  0  0  0  0  0  0  0  0
  -42.2187   58.3244   62.0945 C   0  0  0  0  0  0  0  0  0  0  0  0
  -40.5130   56.6108   62.4504 C   0  0  0  0  0  0  0  0  0  0  0  0
 34 33  1  0  0  0
 34 35  1  0  0  0
 34 36  1  0  0  0
 34 37  1  0  0  0
 22 23  1  0  0  0
 22 25  1  0  0  0
 22 21  1  0  0  0
 23 24  1  0  0  0
 27 26  1  0  0  0
 27 28  2  0  0  0
 27 31  1  0  0  0
 27 29  1  0  0  0
 25 26  1  0  0  0
 32 33  1  0  0  0
 32 31  1  0  0  0
 29 30  1  0  0  0
 20 21  1  0  0  0
 20  2  1  0  0  0
  1  2  2  0  0  0
  2  3  1  0  0  0
  3  4  1  0  0  0
  4  5  1  0  0  0
  5  6  1  0  0  0
  6  7  1  0  0  0
  7  8  1  0  0  0
  8  9  1  0  0  0
  9 10  1  0  0  0
 10 11  2  0  0  0
 11 12  1  0  0  0
 12 13  1  0  0  0
 13 14  1  0  0  0
 14 15  1  0  0  0
 15 16  1  0  0  0
 16 17  1  0  0  0
 17 18  1  0  0  0
 18 19  1  0  0  0
M  CHG 1  28  -1
M  END
> <minimizedAffinity>
-7.88047

> <CNNscore>
0.6547732949

> <CNNaffinity>
6.8879241943

> <CNN_VS>
4.5100288391

> <CNNaffinity_variance>
0.1593562812

$$$$
/media/chris/experiments/cd1a-new-docking/inputs/ligands/4x6e_ligand.pdb


 37 36  0  0  0  0  0  0  0  0999 V2000
  -42.3256   58.9831   60.8579 O   0  0  0  0  0  0  0  0  0  0  0  0
  -42.0597   60.0561   61.3402 C   0  0  0  0  0  0  0  0  0  0  0  0
  -42.9575   61.2551   61.3349 C   0  0  0  0  0  0  0  0  0  0  0  0
  -43.5680   61.5529   62.6992 C   0  0  0  0  0  0  0  0  0  0  0  0
  -44.2081   60.3514   63.3731 C   0  0  0  0  0  0  0  0  0  0  0  0
  -45.5424   60.6649   64.0270 C   0  0  0  0  0  0  0  0  0  0  0  0
  -45.7609   59.9016   65.3221 C   0  0  0  0  0  0  0  0  0  0  0  0
  -47.2274   59.7692   65.6676 C   0  0  0  0  0  0  0  0  0  0  0  0
  -47.9187   58.5695   65.0523 C   0  0  0  0  0  0  0  0  0  0  0  0
  -49.3422   58.4314   65.4353 C   0  0  0  0  0  0  0  0  0  0  0  0
  -50.3576   59.0689   64.8897 C   0  0  0  0  0  0  0  0  0  0  0  0
  -50.3110   60.0324   63.7488 C   0  0  0  0  0  0  0  0  0  0  0  0
  -51.1771   59.5247   62.5948 C   0  0  0  0  0  0  0  0  0  0  0  0
  -50.8573   58.1185   62.1092 C   0  0  0  0  0  0  0  0  0  0  0  0
  -49.5207   57.9731   61.3919 C   0  0  0  0  0  0  0  0  0  0  0  0
  -49.5228   56.8956   60.3125 C   0  0  0  0  0  0  0  0  0  0  0  0
  -49.1260   57.4065   58.9365 C   0  0  0  0  0  0  0  0  0  0  0  0
  -48.0270   56.6175   58.2406 C   0  0  0  0  0  0  0  0  0  0  0  0
  -47.5045   57.3065   57.0176 C   0  0  0  0  0  0  0  0  0  0  0  0
  -40.9142   60.3335   61.9699 O   0  0  0  0  0  0  0  0  0  0  0  0
  -40.1009   59.2238   62.4099 C   0  0  0  0  0  0  0  0  0  0  0  0
  -38.8597   59.0673   61.5572 C   0  0  0  0  0  0  0  0  0  0  0  0
  -38.9257   59.9016   60.3928 O   0  0  0  0  0  0  0  0  0  0  0  0
  -38.9528   60.8328   60.6632 H   0  0  0  0  0  0  0  0  0  0  0  0
  -37.5904   59.3678   62.3195 C   0  0  0  0  0  0  0  0  0  0  0  0
  -37.6422   60.6651   62.9610 O   0  0  0  0  0  0  0  0  0  0  0  0
  -36.8527   61.2827   64.2146 P   0  0  0  0  0  0  0  0  0  0  0  0
  -36.0559   60.1601   64.8771 O   0  0  0  0  0  0  0  0  0  0  0  0
  -37.8397   61.7975   65.1890 O   0  0  0  0  0  0  0  0  0  0  0  0
  -38.4409   61.0822   65.4491 H   0  0  0  0  0  0  0  0  0  0  0  0
  -35.8117   62.4667   63.7464 O   0  0  0  0  0  0  0  0  0  0  0  0
  -35.8695   63.8619   64.1502 C   0  0  0  0  0  0  0  0  0  0  0  0
  -34.5608   64.2788   64.7744 C   0  0  0  0  0  0  0  0  0  0  0  0
  -34.4350   64.0880   66.2746 N   0  0  0  0  0  0  0  0  0  0  0  0
  -33.6189   65.1869   66.8757 C   0  0  0  0  0  0  0  0  0  0  0  0
  -33.7583   62.7824   66.5347 C   0  0  0  0  0  0  0  0  0  0  0  0
  -35.7914   64.0826   66.9201 C   0  0  0  0  0  0  0  0  0  0  0  0
 34 33  1  0  0  0
 34 35  1  0  0  0
 34 36  1  0  0  0
 34 37  1  0  0  0
 22 23  1  0  0  0
 22 25  1  0  0  0
 22 21  1  0  0  0
 23 24  1  0  0  0
 27 26  1  0  0  0
 27 28  2  0  0  0
 27 31  1  0  0  0
 27 29  1  0  0  0
 25 26  1  0  0  0
 32 33  1  0  0  0
 32 31  1  0  0  0
 29 30  1  0  0  0
 20 21  1  0  0  0
 20  2  1  0  0  0
  1  2  2  0  0  0
  2  3  1  0  0  0
  3  4  1  0  0  0
  4  5  1  0  0  0
  5  6  1  0  0  0
  6  7  1  0  0  0
  7  8  1  0  0  0
  8  9  1  0  0  0
  9 10  1  0  0  0
 10 11  2  0  0  0
 11 12  1  0  0  0
 12 13  1  0  0  0
 13 14  1  0  0  0
 14 15  1  0  0  0
 15 16  1  0  0  0
 16 17  1  0  0  0
 17 18  1  0  0  0
 18 19  1  0  0  0
M  CHG 1  28  -1
M  END
> <minimizedAffinity>
-8.19870

> <CNNscore>
0.6445575953

> <CNNaffinity>
6.3582534790

> <CNN_VS>
4.0982604027

> <CNNaffinity_variance>
0.4142771661

$$$$
/media/chris/experiments/cd1a-new-docking/inputs/ligands/4x6e_ligand.pdb


 37 36  0  0  0  0  0  0  0  0999 V2000
  -41.9128   56.2735   64.7522 O   0  0  0  0  0  0  0  0  0  0  0  0
  -41.9821   57.4434   65.0372 C   0  0  0  0  0  0  0  0  0  0  0  0
  -42.9010   58.0325   66.0630 C   0  0  0  0  0  0  0  0  0  0  0  0
  -44.3745   57.8873   65.7019 C   0  0  0  0  0  0  0  0  0  0  0  0
  -44.6997   58.2220   64.2563 C   0  0  0  0  0  0  0  0  0  0  0  0
  -44.5866   59.7027   63.9387 C   0  0  0  0  0  0  0  0  0  0  0  0
  -45.7733   60.5080   64.4395 C   0  0  0  0  0  0  0  0  0  0  0  0
  -47.0584   59.7110   64.4108 C   0  0  0  0  0  0  0  0  0  0  0  0
  -48.1672   60.2630   65.2836 C   0  0  0  0  0  0  0  0  0  0  0  0
  -49.2024   59.2680   65.6450 C   0  0  0  0  0  0  0  0  0  0  0  0
  -50.4086   59.1793   65.1234 C   0  0  0  0  0  0  0  0  0  0  0  0
  -50.9860   60.0240   64.0346 C   0  0  0  0  0  0  0  0  0  0  0  0
  -50.9864   59.2527   62.7137 C   0  0  0  0  0  0  0  0  0  0  0  0
  -50.0266   59.7737   61.6542 C   0  0  0  0  0  0  0  0  0  0  0  0
  -50.0039   58.9749   60.3566 C   0  0  0  0  0  0  0  0  0  0  0  0
  -49.2423   57.6581   60.4652 C   0  0  0  0  0  0  0  0  0  0  0  0
  -48.9535   57.0052   59.1228 C   0  0  0  0  0  0  0  0  0  0  0  0
  -47.8403   55.9683   59.1286 C   0  0  0  0  0  0  0  0  0  0  0  0
  -47.0649   55.9430   57.8473 C   0  0  0  0  0  0  0  0  0  0  0  0
  -41.2302   58.3978   64.4810 O   0  0  0  0  0  0  0  0  0  0  0  0
  -39.8812   58.5639   64.9701 C   0  0  0  0  0  0  0  0  0  0  0  0
  -39.5451   60.0222   65.1994 C   0  0  0  0  0  0  0  0  0  0  0  0
  -40.6920   60.7493   65.6600 O   0  0  0  0  0  0  0  0  0  0  0  0
  -40.9740   60.3981   66.5191 H   0  0  0  0  0  0  0  0  0  0  0  0
  -38.4067   60.2088   66.1749 C   0  0  0  0  0  0  0  0  0  0  0  0
  -37.9846   61.5920   66.2513 O   0  0  0  0  0  0  0  0  0  0  0  0
  -36.8009   62.4017   65.5306 P   0  0  0  0  0  0  0  0  0  0  0  0
  -36.5879   63.7111   66.2884 O   0  0  0  0  0  0  0  0  0  0  0  0
  -37.2188   62.7210   64.1479 O   0  0  0  0  0  0  0  0  0  0  0  0
  -38.0485   63.2231   64.1685 H   0  0  0  0  0  0  0  0  0  0  0  0
  -35.3949   61.5486   65.5408 O   0  0  0  0  0  0  0  0  0  0  0  0
  -34.8926   60.7193   64.4577 C   0  0  0  0  0  0  0  0  0  0  0  0
  -34.9308   59.2642   64.8543 C   0  0  0  0  0  0  0  0  0  0  0  0
  -35.6676   58.3260   63.9164 N   0  0  0  0  0  0  0  0  0  0  0  0
  -36.6268   59.0883   63.0599 C   0  0  0  0  0  0  0  0  0  0  0  0
  -36.4286   57.3345   64.7338 C   0  0  0  0  0  0  0  0  0  0  0  0
  -34.6973   57.5993   63.0293 C   0  0  0  0  0  0  0  0  0  0  0  0
 34 33  1  0  0  0
 34 35  1  0  0  0
 34 36  1  0  0  0
 34 37  1  0  0  0
 22 23  1  0  0  0
 22 25  1  0  0  0
 22 21  1  0  0  0
 23 24  1  0  0  0
 27 26  1  0  0  0
 27 28  2  0  0  0
 27 31  1  0  0  0
 27 29  1  0  0  0
 25 26  1  0  0  0
 32 33  1  0  0  0
 32 31  1  0  0  0
 29 30  1  0  0  0
 20 21  1  0  0  0
 20  2  1  0  0  0
  1  2  2  0  0  0
  2  3  1  0  0  0
  3  4  1  0  0  0
  4  5  1  0  0  0
  5  6  1  0  0  0
  6  7  1  0  0  0
  7  8  1  0  0  0
  8  9  1  0  0  0
  9 10  1  0  0  0
 10 11  2  0  0  0
 11 12  1  0  0  0
 12 13  1  0  0  0
 13 14  1  0  0  0
 14 15  1  0  0  0
 15 16  1  0  0  0
 16 17  1  0  0  0
 17 18  1  0  0  0
 18 19  1  0  0  0
M  CHG 1  28  -1
M  END
> <minimizedAffinity>
-7.79984

> <CNNscore>
0.6401469111

> <CNNaffinity>
6.6470513344

> <CNN_VS>
4.2550892830

> <CNNaffinity_variance>
0.0706784651

$$$$
