/media/chris/experiments/cd1a-new-docking/inputs/ligands/7sh4_ligand.pdb
 OpenBabel07012320073D

134133  0  0  1  0  0  0  0  0999 V2000
  -45.0496   55.5263   65.8661 C   0  0  0  0  0  0  0  0  0  0  0  0
  -37.6219   58.1394   60.8749 O   0  0  0  0  0  0  0  0  0  0  0  0
  -34.0491   60.2433   66.3537 P   0  0  1  0  0  0  0  0  0  0  0  0
  -46.2401   54.7507   66.3828 C   0  0  0  0  0  0  0  0  0  0  0  0
  -38.3690   58.5038   62.9506 O   0  0  0  0  0  0  0  0  0  0  0  0
  -47.5564   55.2982   65.8643 C   0  0  0  0  0  0  0  0  0  0  0  0
  -35.4212   59.8922   65.6081 O   0  0  0  0  0  0  0  0  0  0  0  0
  -47.8266   56.7486   66.2229 C   0  0  0  0  0  0  0  0  0  0  0  0
  -33.0346   59.2516   65.9368 O   0  5  0  0  0  0  0  0  0  0  0  0
  -46.7873   57.7158   65.6736 C   0  0  0  0  0  0  0  0  0  0  0  0
  -33.7655   61.6836   66.1443 O   0  0  0  0  0  0  0  0  0  0  0  0
  -47.0469   59.1615   66.0451 C   0  0  0  0  0  0  0  0  0  0  0  0
  -34.3431   60.0224   67.9054 O   0  0  0  0  0  0  0  0  0  0  0  0
  -46.0181   60.1226   65.4813 C   0  0  0  0  0  0  0  0  0  0  0  0
  -30.6899   61.9372   67.3851 O   0  0  0  0  0  0  0  0  0  0  0  0
  -46.2576   61.5794   65.8616 C   0  0  0  0  0  0  0  0  0  0  0  0
  -31.1315   60.2570   69.6234 O   0  0  0  0  0  0  0  0  0  0  0  0
  -45.2383   62.5383   65.2830 C   0  0  0  0  0  0  0  0  0  0  0  0
  -38.2720   59.8520   65.2990 O   0  0  0  0  0  0  0  0  0  0  0  0
  -43.8106   62.2493   65.7006 C   0  0  0  0  0  0  0  0  0  0  0  0
  -40.2610   59.8884   64.2489 O   0  0  0  0  0  0  0  0  0  0  0  0
  -43.3405   60.8791   65.2650 C   0  0  0  0  0  0  0  0  0  0  0  0
  -43.3595   60.6876   63.7715 C   0  0  0  0  0  0  0  0  0  0  0  0
  -42.9051   59.3123   63.3476 C   0  0  0  0  0  0  0  0  0  0  0  0
  -42.9064   59.1207   61.8445 C   0  0  0  0  0  0  0  0  0  0  0  0
  -41.9840   60.0784   61.1248 C   0  0  0  0  0  0  0  0  0  0  0  0
  -40.5281   59.9534   61.5215 C   0  0  0  0  0  0  0  0  0  0  0  0
  -39.9554   58.5765   61.2308 C   0  0  0  0  0  0  0  0  0  0  0  0
  -38.5165   58.4143   61.6284 C   0  0  0  0  0  0  0  0  0  0  0  0
  -37.0720   58.9080   63.4380 C   0  0  0  0  0  0  0  0  0  0  0  0
  -37.3490   60.1700   64.2050 C   0  0  2  0  0  0  0  0  0  0  0  0
  -36.0840   60.8130   64.7130 C   0  0  0  0  0  0  0  0  0  0  0  0
  -33.2816   59.6066   68.7887 C   0  0  0  0  0  0  0  0  0  0  0  0
  -32.2020   60.6606   68.7643 C   0  0  2  0  0  0  0  0  0  0  0  0
  -31.6823   60.9191   67.3705 C   0  0  0  0  0  0  0  0  0  0  0  0
  -39.4672   59.3329   64.9581 C   0  0  0  0  0  0  0  0  0  0  0  0
  -39.6789   57.9753   65.5532 C   0  0  0  0  0  0  0  0  0  0  0  0
  -40.9037   57.9483   66.4619 C   0  0  0  0  0  0  0  0  0  0  0  0
  -41.1607   56.5977   67.1099 C   0  0  0  0  0  0  0  0  0  0  0  0
  -41.3763   55.4709   66.1061 C   0  0  0  0  0  0  0  0  0  0  0  0
  -40.1928   55.2273   65.1883 C   0  0  0  0  0  0  0  0  0  0  0  0
  -40.4016   54.1091   64.1631 C   0  0  0  0  0  0  0  0  0  0  0  0
  -39.2105   53.8398   63.2410 C   0  0  0  0  0  0  0  0  0  0  0  0
  -38.8293   55.0502   62.4425 C   0  0  0  0  0  0  0  0  0  0  0  0
  -39.2870   55.3839   61.2515 C   0  0  0  0  0  0  0  0  0  0  0  0
  -40.2894   54.6200   60.4452 C   0  0  0  0  0  0  0  0  0  0  0  0
  -40.5824   55.2818   59.1019 C   0  0  0  0  0  0  0  0  0  0  0  0
  -41.6100   54.5379   58.2671 C   0  0  0  0  0  0  0  0  0  0  0  0
  -41.2098   53.1102   57.9375 C   0  0  0  0  0  0  0  0  0  0  0  0
  -39.9077   52.9838   57.1641 C   0  0  0  0  0  0  0  0  0  0  0  0
  -39.5379   51.5463   56.8316 C   0  0  0  0  0  0  0  0  0  0  0  0
  -38.2329   51.3989   56.0746 C   0  0  0  0  0  0  0  0  0  0  0  0
  -37.0529   51.9271   56.8415 C   0  0  0  0  0  0  0  0  0  0  0  0
  -44.1496   55.1020   66.2594 H   0  0  0  0  0  0  0  0  0  0  0  0
  -45.1275   56.5475   66.1758 H   0  0  0  0  0  0  0  0  0  0  0  0
  -45.0293   55.4783   64.7974 H   0  0  0  0  0  0  0  0  0  0  0  0
  -46.2447   54.8001   67.4517 H   0  0  0  0  0  0  0  0  0  0  0  0
  -46.1475   53.7424   66.0372 H   0  0  0  0  0  0  0  0  0  0  0  0
  -48.3476   54.7021   66.2688 H   0  0  0  0  0  0  0  0  0  0  0  0
  -47.5009   55.2566   64.7966 H   0  0  0  0  0  0  0  0  0  0  0  0
  -47.8405   56.8365   67.2892 H   0  0  0  0  0  0  0  0  0  0  0  0
  -48.7648   57.0116   65.7807 H   0  0  0  0  0  0  0  0  0  0  0  0
  -46.7823   57.6366   64.6066 H   0  0  0  0  0  0  0  0  0  0  0  0
  -45.8471   57.4449   66.1067 H   0  0  0  0  0  0  0  0  0  0  0  0
  -33.5830   61.8440   65.2052 H   0  0  0  0  0  0  0  0  0  0  0  0
  -47.0393   59.2441   67.1119 H   0  0  0  0  0  0  0  0  0  0  0  0
  -47.9936   59.4303   65.6252 H   0  0  0  0  0  0  0  0  0  0  0  0
  -46.0353   60.0462   64.4141 H   0  0  0  0  0  0  0  0  0  0  0  0
  -45.0729   59.8448   65.8987 H   0  0  0  0  0  0  0  0  0  0  0  0
  -30.3688   62.0888   66.4824 H   0  0  0  0  0  0  0  0  0  0  0  0
  -46.2278   61.6587   66.9282 H   0  0  0  0  0  0  0  0  0  0  0  0
  -47.2089   61.8545   65.4565 H   0  0  0  0  0  0  0  0  0  0  0  0
  -31.4766   60.0938   70.5152 H   0  0  0  0  0  0  0  0  0  0  0  0
  -45.4883   63.5281   65.6035 H   0  0  0  0  0  0  0  0  0  0  0  0
  -45.2776   62.4261   64.2197 H   0  0  0  0  0  0  0  0  0  0  0  0
  -43.7470   62.3099   66.7670 H   0  0  0  0  0  0  0  0  0  0  0  0
  -43.1821   62.9728   65.2247 H   0  0  0  0  0  0  0  0  0  0  0  0
  -43.9788   60.1443   65.7095 H   0  0  0  0  0  0  0  0  0  0  0  0
  -42.3241   60.7776   65.5838 H   0  0  0  0  0  0  0  0  0  0  0  0
  -42.7112   61.4132   63.3264 H   0  0  0  0  0  0  0  0  0  0  0  0
  -44.3723   60.8042   63.4468 H   0  0  0  0  0  0  0  0  0  0  0  0
  -43.5610   58.5879   63.7834 H   0  0  0  0  0  0  0  0  0  0  0  0
  -41.8958   59.1934   63.6826 H   0  0  0  0  0  0  0  0  0  0  0  0
  -43.9023   59.2703   61.4828 H   0  0  0  0  0  0  0  0  0  0  0  0
  -42.5541   58.1296   61.6484 H   0  0  0  0  0  0  0  0  0  0  0  0
  -42.3051   61.0768   61.3367 H   0  0  0  0  0  0  0  0  0  0  0  0
  -42.0411   59.8369   60.0839 H   0  0  0  0  0  0  0  0  0  0  0  0
  -40.4419   60.1451   62.5706 H   0  0  0  0  0  0  0  0  0  0  0  0
  -39.9741   60.6619   60.9419 H   0  0  0  0  0  0  0  0  0  0  0  0
  -40.0361   58.3941   60.1796 H   0  0  0  0  0  0  0  0  0  0  0  0
  -40.5175   57.8788   61.8158 H   0  0  0  0  0  0  0  0  0  0  0  0
  -36.4020   59.0962   62.6252 H   0  0  0  0  0  0  0  0  0  0  0  0
  -36.6048   58.1555   64.0382 H   0  0  0  0  0  0  0  0  0  0  0  0
  -37.7985   60.8886   63.5519 H   0  0  0  0  0  0  0  0  0  0  0  0
  -35.4401   61.0403   63.8892 H   0  0  0  0  0  0  0  0  0  0  0  0
  -36.3193   61.7188   65.2317 H   0  0  0  0  0  0  0  0  0  0  0  0
  -32.8811   58.6713   68.4574 H   0  0  0  0  0  0  0  0  0  0  0  0
  -33.6566   59.4871   69.7837 H   0  0  0  0  0  0  0  0  0  0  0  0
  -32.6293   61.5780   69.1118 H   0  0  0  0  0  0  0  0  0  0  0  0
  -31.2556   60.0181   66.9820 H   0  0  0  0  0  0  0  0  0  0  0  0
  -32.4958   61.2403   66.7540 H   0  0  0  0  0  0  0  0  0  0  0  0
  -38.8153   57.7080   66.1256 H   0  0  0  0  0  0  0  0  0  0  0  0
  -39.8372   57.2800   64.7554 H   0  0  0  0  0  0  0  0  0  0  0  0
  -41.7616   58.2107   65.8788 H   0  0  0  0  0  0  0  0  0  0  0  0
  -40.7174   58.6424   67.2546 H   0  0  0  0  0  0  0  0  0  0  0  0
  -42.0344   56.6770   67.7224 H   0  0  0  0  0  0  0  0  0  0  0  0
  -40.2876   56.3502   67.6769 H   0  0  0  0  0  0  0  0  0  0  0  0
  -42.2253   55.7158   65.5026 H   0  0  0  0  0  0  0  0  0  0  0  0
  -41.5185   54.5744   66.6727 H   0  0  0  0  0  0  0  0  0  0  0  0
  -39.3481   54.9719   65.7935 H   0  0  0  0  0  0  0  0  0  0  0  0
  -40.0512   56.1288   64.6297 H   0  0  0  0  0  0  0  0  0  0  0  0
  -41.2400   54.3722   63.5526 H   0  0  0  0  0  0  0  0  0  0  0  0
  -40.5487   53.2122   64.7278 H   0  0  0  0  0  0  0  0  0  0  0  0
  -39.4677   53.0492   62.5674 H   0  0  0  0  0  0  0  0  0  0  0  0
  -38.3744   53.5725   63.8529 H   0  0  0  0  0  0  0  0  0  0  0  0
  -38.1381   55.6873   62.8684 H   0  0  0  0  0  0  0  0  0  0  0  0
  -38.9189   56.2541   60.8365 H   0  0  0  0  0  0  0  0  0  0  0  0
  -41.2007   54.5551   61.0022 H   0  0  0  0  0  0  0  0  0  0  0  0
  -39.8797   53.6512   60.2488 H   0  0  0  0  0  0  0  0  0  0  0  0
  -39.6700   55.3358   58.5455 H   0  0  0  0  0  0  0  0  0  0  0  0
  -40.9899   56.2487   59.3115 H   0  0  0  0  0  0  0  0  0  0  0  0
  -41.7494   55.0702   57.3495 H   0  0  0  0  0  0  0  0  0  0  0  0
  -42.5067   54.4853   58.8485 H   0  0  0  0  0  0  0  0  0  0  0  0
  -41.9903   52.6709   57.3520 H   0  0  0  0  0  0  0  0  0  0  0  0
  -41.0581   52.6127   58.8726 H   0  0  0  0  0  0  0  0  0  0  0  0
  -39.1215   53.4086   57.7525 H   0  0  0  0  0  0  0  0  0  0  0  0
  -40.0417   53.4977   56.2352 H   0  0  0  0  0  0  0  0  0  0  0  0
  -40.3211   51.1280   56.2346 H   0  0  0  0  0  0  0  0  0  0  0  0
  -39.4108   51.0382   57.7646 H   0  0  0  0  0  0  0  0  0  0  0  0
  -38.3098   51.9362   55.1524 H   0  0  0  0  0  0  0  0  0  0  0  0
  -38.0705   50.3539   55.9121 H   0  0  0  0  0  0  0  0  0  0  0  0
  -37.1839   52.9737   57.0214 H   0  0  0  0  0  0  0  0  0  0  0  0
  -36.1597   51.7720   56.2731 H   0  0  0  0  0  0  0  0  0  0  0  0
  -36.9751   51.4116   57.7759 H   0  0  0  0  0  0  0  0  0  0  0  0
  1  4  1  0  0  0  0
  1 54  1  0  0  0  0
  1 55  1  0  0  0  0
  1 56  1  0  0  0  0
  2 29  2  0  0  0  0
  3  7  1  0  0  0  0
  3  9  2  6  0  0  0
  3 11  1  0  0  0  0
  3 13  1  0  0  0  0
  4  6  1  0  0  0  0
  4 57  1  0  0  0  0
  4 58  1  0  0  0  0
  5 29  1  0  0  0  0
  5 30  1  0  0  0  0
  6  8  1  0  0  0  0
  6 59  1  0  0  0  0
  6 60  1  0  0  0  0
  7 32  1  0  0  0  0
  8 10  1  0  0  0  0
  8 61  1  0  0  0  0
  8 62  1  0  0  0  0
 10 12  1  0  0  0  0
 10 63  1  0  0  0  0
 10 64  1  0  0  0  0
 11 65  1  0  0  0  0
 12 14  1  0  0  0  0
 12 66  1  0  0  0  0
 12 67  1  0  0  0  0
 13 33  1  0  0  0  0
 14 16  1  0  0  0  0
 14 68  1  0  0  0  0
 14 69  1  0  0  0  0
 15 35  1  0  0  0  0
 15 70  1  0  0  0  0
 16 18  1  0  0  0  0
 16 71  1  0  0  0  0
 16 72  1  0  0  0  0
 17 34  1  0  0  0  0
 17 73  1  0  0  0  0
 18 20  1  0  0  0  0
 18 74  1  0  0  0  0
 18 75  1  0  0  0  0
 19 31  1  0  0  0  0
 19 36  1  0  0  0  0
 20 22  1  0  0  0  0
 20 76  1  0  0  0  0
 20 77  1  0  0  0  0
 21 36  2  0  0  0  0
 22 23  1  0  0  0  0
 22 78  1  0  0  0  0
 22 79  1  0  0  0  0
 23 24  1  0  0  0  0
 23 80  1  0  0  0  0
 23 81  1  0  0  0  0
 24 25  1  0  0  0  0
 24 82  1  0  0  0  0
 24 83  1  0  0  0  0
 25 26  1  0  0  0  0
 25 84  1  0  0  0  0
 25 85  1  0  0  0  0
 26 27  1  0  0  0  0
 26 86  1  0  0  0  0
 26 87  1  0  0  0  0
 27 28  1  0  0  0  0
 27 88  1  0  0  0  0
 27 89  1  0  0  0  0
 28 29  1  0  0  0  0
 28 90  1  0  0  0  0
 28 91  1  0  0  0  0
 30 31  1  0  0  0  0
 30 92  1  0  0  0  0
 30 93  1  0  0  0  0
 31 32  1  0  0  0  0
 31 94  1  6  0  0  0
 32 95  1  0  0  0  0
 32 96  1  0  0  0  0
 33 34  1  0  0  0  0
 33 97  1  0  0  0  0
 33 98  1  0  0  0  0
 34 35  1  0  0  0  0
 34 99  1  1  0  0  0
 35100  1  0  0  0  0
 35101  1  0  0  0  0
 36 37  1  0  0  0  0
 37 38  1  0  0  0  0
 37102  1  0  0  0  0
 37103  1  0  0  0  0
 38 39  1  0  0  0  0
 38104  1  0  0  0  0
 38105  1  0  0  0  0
 39 40  1  0  0  0  0
 39106  1  0  0  0  0
 39107  1  0  0  0  0
 40 41  1  0  0  0  0
 40108  1  0  0  0  0
 40109  1  0  0  0  0
 41 42  1  0  0  0  0
 41110  1  0  0  0  0
 41111  1  0  0  0  0
 42 43  1  0  0  0  0
 42112  1  0  0  0  0
 42113  1  0  0  0  0
 43 44  1  0  0  0  0
 43114  1  0  0  0  0
 43115  1  0  0  0  0
 44 45  2  0  0  0  0
 44116  1  0  0  0  0
 45 46  1  0  0  0  0
 45117  1  0  0  0  0
 46 47  1  0  0  0  0
 46118  1  0  0  0  0
 46119  1  0  0  0  0
 47 48  1  0  0  0  0
 47120  1  0  0  0  0
 47121  1  0  0  0  0
 48 49  1  0  0  0  0
 48122  1  0  0  0  0
 48123  1  0  0  0  0
 49 50  1  0  0  0  0
 49124  1  0  0  0  0
 49125  1  0  0  0  0
 50 51  1  0  0  0  0
 50126  1  0  0  0  0
 50127  1  0  0  0  0
 51 52  1  0  0  0  0
 51128  1  0  0  0  0
 51129  1  0  0  0  0
 52 53  1  0  0  0  0
 52130  1  0  0  0  0
 52131  1  0  0  0  0
 53132  1  0  0  0  0
 53133  1  0  0  0  0
 53134  1  0  0  0  0
M  CHG  1   9  -1
M  END
$$$$