/media/chris/experiments/cd1a-new-docking/inputs/ligands/7sh4_ligand.pdb
 OpenBabel07012320073D

134133  0  0  1  0  0  0  0  0999 V2000
  -36.1573   53.5196   55.6016 C   0  0  0  0  0  0  0  0  0  0  0  0
  -34.4062   58.3144   63.3762 O   0  0  0  0  0  0  0  0  0  0  0  0
  -35.6684   62.1020   62.4058 P   0  0  1  0  0  0  0  0  0  0  0  0
  -34.7734   52.9110   55.6120 C   0  0  0  0  0  0  0  0  0  0  0  0
  -36.1511   59.3213   62.4064 O   0  0  0  0  0  0  0  0  0  0  0  0
  -33.7744   53.7588   56.3765 C   0  0  0  0  0  0  0  0  0  0  0  0
  -35.2304   61.1139   63.5864 O   0  0  0  0  0  0  0  0  0  0  0  0
  -33.5969   55.1686   55.8417 C   0  0  0  0  0  0  0  0  0  0  0  0
  -35.6503   61.3386   61.1394 O   0  5  0  0  0  0  0  0  0  0  0  0
  -33.1258   55.2167   54.3949 C   0  0  0  0  0  0  0  0  0  0  0  0
  -36.9239   62.7783   62.8119 O   0  0  0  0  0  0  0  0  0  0  0  0
  -32.9321   56.6229   53.8656 C   0  0  0  0  0  0  0  0  0  0  0  0
  -34.5198   63.2055   62.3305 O   0  0  0  0  0  0  0  0  0  0  0  0
  -34.1932   57.4640   53.9138 C   0  0  0  0  0  0  0  0  0  0  0  0
  -32.6765   64.2425   59.5486 O   0  0  0  0  0  0  0  0  0  0  0  0
  -35.3547   56.8850   53.1141 C   0  0  0  0  0  0  0  0  0  0  0  0
  -33.9999   61.0218   60.6889 O   0  0  0  0  0  0  0  0  0  0  0  0
  -36.6070   57.7357   53.1505 C   0  0  0  0  0  0  0  0  0  0  0  0
  -38.2720   59.8520   65.2990 O   0  0  0  0  0  0  0  0  0  0  0  0
  -37.1593   57.9638   54.5430 C   0  0  0  0  0  0  0  0  0  0  0  0
  -40.0171   59.9196   63.8811 O   0  0  0  0  0  0  0  0  0  0  0  0
  -37.5167   56.6743   55.2483 C   0  0  0  0  0  0  0  0  0  0  0  0
  -38.0830   56.8846   56.6276 C   0  0  0  0  0  0  0  0  0  0  0  0
  -37.1367   57.6153   57.5486 C   0  0  0  0  0  0  0  0  0  0  0  0
  -35.8166   56.8964   57.7399 C   0  0  0  0  0  0  0  0  0  0  0  0
  -34.8774   57.6223   58.6762 C   0  0  0  0  0  0  0  0  0  0  0  0
  -35.4174   57.8029   60.0792 C   0  0  0  0  0  0  0  0  0  0  0  0
  -34.4561   58.5504   60.9878 C   0  0  0  0  0  0  0  0  0  0  0  0
  -34.9553   58.7317   62.3924 C   0  0  0  0  0  0  0  0  0  0  0  0
  -37.0720   58.9080   63.4380 C   0  0  0  0  0  0  0  0  0  0  0  0
  -37.3490   60.1700   64.2050 C   0  0  2  0  0  0  0  0  0  0  0  0
  -36.0840   60.8130   64.7130 C   0  0  0  0  0  0  0  0  0  0  0  0
  -33.1622   62.8151   62.0398 C   0  0  0  0  0  0  0  0  0  0  0  0
  -33.1358   62.1621   60.6797 C   0  0  2  0  0  0  0  0  0  0  0  0
  -33.5389   63.1124   59.5778 C   0  0  0  0  0  0  0  0  0  0  0  0
  -39.5790   59.7587   64.9875 C   0  0  0  0  0  0  0  0  0  0  0  0
  -40.4161   59.4128   66.1798 C   0  0  0  0  0  0  0  0  0  0  0  0
  -41.8914   59.2929   65.8111 C   0  0  0  0  0  0  0  0  0  0  0  0
  -42.1838   58.2134   64.7820 C   0  0  0  0  0  0  0  0  0  0  0  0
  -41.7940   56.8127   65.2400 C   0  0  0  0  0  0  0  0  0  0  0  0
  -42.0663   55.7296   64.2128 C   0  0  0  0  0  0  0  0  0  0  0  0
  -41.6953   54.3146   64.6659 C   0  0  0  0  0  0  0  0  0  0  0  0
  -40.2245   54.1140   65.0372 C   0  0  0  0  0  0  0  0  0  0  0  0
  -39.9344   52.7032   65.4536 C   0  0  0  0  0  0  0  0  0  0  0  0
  -39.9950   52.2151   66.6773 C   0  0  0  0  0  0  0  0  0  0  0  0
  -40.3698   52.9723   67.9120 C   0  0  0  0  0  0  0  0  0  0  0  0
  -39.1608   53.5997   68.5999 C   0  0  0  0  0  0  0  0  0  0  0  0
  -38.1092   52.5898   69.0248 C   0  0  0  0  0  0  0  0  0  0  0  0
  -36.9134   53.2123   69.7247 C   0  0  0  0  0  0  0  0  0  0  0  0
  -35.8416   52.2195   70.1430 C   0  0  0  0  0  0  0  0  0  0  0  0
  -36.3474   51.1483   71.0971 C   0  0  0  0  0  0  0  0  0  0  0  0
  -35.2880   50.1582   71.5390 C   0  0  0  0  0  0  0  0  0  0  0  0
  -34.6681   49.4173   70.3873 C   0  0  0  0  0  0  0  0  0  0  0  0
  -36.8216   52.8857   55.0521 H   0  0  0  0  0  0  0  0  0  0  0  0
  -36.1196   54.4835   55.1387 H   0  0  0  0  0  0  0  0  0  0  0  0
  -36.5103   53.6202   56.6067 H   0  0  0  0  0  0  0  0  0  0  0  0
  -34.4354   52.8087   54.6019 H   0  0  0  0  0  0  0  0  0  0  0  0
  -34.8381   51.9619   56.1019 H   0  0  0  0  0  0  0  0  0  0  0  0
  -32.8247   53.2672   56.3415 H   0  0  0  0  0  0  0  0  0  0  0  0
  -34.1609   53.8590   57.3692 H   0  0  0  0  0  0  0  0  0  0  0  0
  -32.8748   55.6726   56.4495 H   0  0  0  0  0  0  0  0  0  0  0  0
  -34.5568   55.6401   55.8750 H   0  0  0  0  0  0  0  0  0  0  0  0
  -33.8540   54.7234   53.7856 H   0  0  0  0  0  0  0  0  0  0  0  0
  -32.1713   54.7343   54.3599 H   0  0  0  0  0  0  0  0  0  0  0  0
  -37.6400   62.1261   62.8650 H   0  0  0  0  0  0  0  0  0  0  0  0
  -32.6047   56.5605   52.8489 H   0  0  0  0  0  0  0  0  0  0  0  0
  -32.2100   57.1003   54.4946 H   0  0  0  0  0  0  0  0  0  0  0  0
  -33.9660   58.4339   53.5232 H   0  0  0  0  0  0  0  0  0  0  0  0
  -34.5061   57.4950   54.9365 H   0  0  0  0  0  0  0  0  0  0  0  0
  -32.9508   64.8403   58.8357 H   0  0  0  0  0  0  0  0  0  0  0  0
  -35.5907   55.9203   53.5124 H   0  0  0  0  0  0  0  0  0  0  0  0
  -35.0381   56.8406   52.0929 H   0  0  0  0  0  0  0  0  0  0  0  0
  -33.7320   60.4189   61.4000 H   0  0  0  0  0  0  0  0  0  0  0  0
  -37.3601   57.2504   52.5655 H   0  0  0  0  0  0  0  0  0  0  0  0
  -36.3388   58.6966   52.7636 H   0  0  0  0  0  0  0  0  0  0  0  0
  -38.0394   58.5678   54.4674 H   0  0  0  0  0  0  0  0  0  0  0  0
  -36.3965   58.4458   55.1180 H   0  0  0  0  0  0  0  0  0  0  0  0
  -36.6327   56.0772   55.3320 H   0  0  0  0  0  0  0  0  0  0  0  0
  -38.2748   56.1947   54.6651 H   0  0  0  0  0  0  0  0  0  0  0  0
  -38.3044   55.9288   57.0547 H   0  0  0  0  0  0  0  0  0  0  0  0
  -38.9600   57.4889   56.5248 H   0  0  0  0  0  0  0  0  0  0  0  0
  -37.6069   57.7230   58.5037 H   0  0  0  0  0  0  0  0  0  0  0  0
  -36.9213   58.5615   57.0979 H   0  0  0  0  0  0  0  0  0  0  0  0
  -35.3401   56.7996   56.7867 H   0  0  0  0  0  0  0  0  0  0  0  0
  -36.0319   55.9442   58.1780 H   0  0  0  0  0  0  0  0  0  0  0  0
  -34.6768   58.5902   58.2666 H   0  0  0  0  0  0  0  0  0  0  0  0
  -33.9986   57.0177   58.7603 H   0  0  0  0  0  0  0  0  0  0  0  0
  -35.6052   56.8374   60.5003 H   0  0  0  0  0  0  0  0  0  0  0  0
  -36.3122   58.3853   60.0078 H   0  0  0  0  0  0  0  0  0  0  0  0
  -34.2793   59.5179   60.5666 H   0  0  0  0  0  0  0  0  0  0  0  0
  -33.5672   57.9580   61.0505 H   0  0  0  0  0  0  0  0  0  0  0  0
  -36.6274   58.1683   64.0706 H   0  0  0  0  0  0  0  0  0  0  0  0
  -37.9610   58.4631   63.0423 H   0  0  0  0  0  0  0  0  0  0  0  0
  -37.7985   60.8886   63.5519 H   0  0  0  0  0  0  0  0  0  0  0  0
  -36.3238   61.7163   65.2340 H   0  0  0  0  0  0  0  0  0  0  0  0
  -35.5811   60.1472   65.3829 H   0  0  0  0  0  0  0  0  0  0  0  0
  -32.8188   62.1229   62.7799 H   0  0  0  0  0  0  0  0  0  0  0  0
  -32.5229   63.6731   62.0484 H   0  0  0  0  0  0  0  0  0  0  0  0
  -32.1289   61.8615   60.4780 H   0  0  0  0  0  0  0  0  0  0  0  0
  -33.4838   62.6041   58.6379 H   0  0  0  0  0  0  0  0  0  0  0  0
  -34.5386   63.4472   59.7607 H   0  0  0  0  0  0  0  0  0  0  0  0
  -40.3033   60.1791   66.9180 H   0  0  0  0  0  0  0  0  0  0  0  0
  -40.0868   58.4678   66.5585 H   0  0  0  0  0  0  0  0  0  0  0  0
  -42.2171   60.2323   65.4157 H   0  0  0  0  0  0  0  0  0  0  0  0
  -42.4133   59.0197   66.7044 H   0  0  0  0  0  0  0  0  0  0  0  0
  -41.6399   58.4410   63.8891 H   0  0  0  0  0  0  0  0  0  0  0  0
  -43.2420   58.2089   64.6236 H   0  0  0  0  0  0  0  0  0  0  0  0
  -42.3472   56.5824   66.1265 H   0  0  0  0  0  0  0  0  0  0  0  0
  -40.7369   56.8239   65.4054 H   0  0  0  0  0  0  0  0  0  0  0  0
  -41.5035   55.9562   63.3315 H   0  0  0  0  0  0  0  0  0  0  0  0
  -43.1233   55.7278   64.0465 H   0  0  0  0  0  0  0  0  0  0  0  0
  -41.9308   53.6397   63.8697 H   0  0  0  0  0  0  0  0  0  0  0  0
  -42.2547   54.1329   65.5598 H   0  0  0  0  0  0  0  0  0  0  0  0
  -39.9807   54.7696   65.8469 H   0  0  0  0  0  0  0  0  0  0  0  0
  -39.6341   54.3296   64.1712 H   0  0  0  0  0  0  0  0  0  0  0  0
  -39.6592   52.0469   64.7062 H   0  0  0  0  0  0  0  0  0  0  0  0
  -39.7618   51.2166   66.7943 H   0  0  0  0  0  0  0  0  0  0  0  0
  -40.8440   52.3003   68.5964 H   0  0  0  0  0  0  0  0  0  0  0  0
  -41.0271   53.7650   67.6214 H   0  0  0  0  0  0  0  0  0  0  0  0
  -39.5000   54.1210   69.4706 H   0  0  0  0  0  0  0  0  0  0  0  0
  -38.6991   54.2518   67.8883 H   0  0  0  0  0  0  0  0  0  0  0  0
  -37.7611   52.0771   68.1525 H   0  0  0  0  0  0  0  0  0  0  0  0
  -38.5745   51.9301   69.7271 H   0  0  0  0  0  0  0  0  0  0  0  0
  -37.2639   53.7151   70.6018 H   0  0  0  0  0  0  0  0  0  0  0  0
  -36.4570   53.8734   69.0179 H   0  0  0  0  0  0  0  0  0  0  0  0
  -35.0515   52.7567   70.6247 H   0  0  0  0  0  0  0  0  0  0  0  0
  -35.5105   51.7207   69.2561 H   0  0  0  0  0  0  0  0  0  0  0  0
  -37.1301   50.6064   70.6085 H   0  0  0  0  0  0  0  0  0  0  0  0
  -36.6811   51.6549   71.9785 H   0  0  0  0  0  0  0  0  0  0  0  0
  -35.7384   49.4477   72.2001 H   0  0  0  0  0  0  0  0  0  0  0  0
  -34.5105   50.7120   72.0223 H   0  0  0  0  0  0  0  0  0  0  0  0
  -35.4214   48.8512   69.8805 H   0  0  0  0  0  0  0  0  0  0  0  0
  -33.9115   48.7559   70.7546 H   0  0  0  0  0  0  0  0  0  0  0  0
  -34.2301   50.1176   69.7070 H   0  0  0  0  0  0  0  0  0  0  0  0
  1  4  1  0  0  0  0
  1 54  1  0  0  0  0
  1 55  1  0  0  0  0
  1 56  1  0  0  0  0
  2 29  2  0  0  0  0
  3  7  1  0  0  0  0
  3  9  2  6  0  0  0
  3 11  1  0  0  0  0
  3 13  1  0  0  0  0
  4  6  1  0  0  0  0
  4 57  1  0  0  0  0
  4 58  1  0  0  0  0
  5 29  1  0  0  0  0
  5 30  1  0  0  0  0
  6  8  1  0  0  0  0
  6 59  1  0  0  0  0
  6 60  1  0  0  0  0
  7 32  1  0  0  0  0
  8 10  1  0  0  0  0
  8 61  1  0  0  0  0
  8 62  1  0  0  0  0
 10 12  1  0  0  0  0
 10 63  1  0  0  0  0
 10 64  1  0  0  0  0
 11 65  1  0  0  0  0
 12 14  1  0  0  0  0
 12 66  1  0  0  0  0
 12 67  1  0  0  0  0
 13 33  1  0  0  0  0
 14 16  1  0  0  0  0
 14 68  1  0  0  0  0
 14 69  1  0  0  0  0
 15 35  1  0  0  0  0
 15 70  1  0  0  0  0
 16 18  1  0  0  0  0
 16 71  1  0  0  0  0
 16 72  1  0  0  0  0
 17 34  1  0  0  0  0
 17 73  1  0  0  0  0
 18 20  1  0  0  0  0
 18 74  1  0  0  0  0
 18 75  1  0  0  0  0
 19 31  1  0  0  0  0
 19 36  1  0  0  0  0
 20 22  1  0  0  0  0
 20 76  1  0  0  0  0
 20 77  1  0  0  0  0
 21 36  2  0  0  0  0
 22 23  1  0  0  0  0
 22 78  1  0  0  0  0
 22 79  1  0  0  0  0
 23 24  1  0  0  0  0
 23 80  1  0  0  0  0
 23 81  1  0  0  0  0
 24 25  1  0  0  0  0
 24 82  1  0  0  0  0
 24 83  1  0  0  0  0
 25 26  1  0  0  0  0
 25 84  1  0  0  0  0
 25 85  1  0  0  0  0
 26 27  1  0  0  0  0
 26 86  1  0  0  0  0
 26 87  1  0  0  0  0
 27 28  1  0  0  0  0
 27 88  1  0  0  0  0
 27 89  1  0  0  0  0
 28 29  1  0  0  0  0
 28 90  1  0  0  0  0
 28 91  1  0  0  0  0
 30 31  1  0  0  0  0
 30 92  1  0  0  0  0
 30 93  1  0  0  0  0
 31 32  1  0  0  0  0
 31 94  1  6  0  0  0
 32 95  1  0  0  0  0
 32 96  1  0  0  0  0
 33 34  1  0  0  0  0
 33 97  1  0  0  0  0
 33 98  1  0  0  0  0
 34 35  1  0  0  0  0
 34 99  1  6  0  0  0
 35100  1  0  0  0  0
 35101  1  0  0  0  0
 36 37  1  0  0  0  0
 37 38  1  0  0  0  0
 37102  1  0  0  0  0
 37103  1  0  0  0  0
 38 39  1  0  0  0  0
 38104  1  0  0  0  0
 38105  1  0  0  0  0
 39 40  1  0  0  0  0
 39106  1  0  0  0  0
 39107  1  0  0  0  0
 40 41  1  0  0  0  0
 40108  1  0  0  0  0
 40109  1  0  0  0  0
 41 42  1  0  0  0  0
 41110  1  0  0  0  0
 41111  1  0  0  0  0
 42 43  1  0  0  0  0
 42112  1  0  0  0  0
 42113  1  0  0  0  0
 43 44  1  0  0  0  0
 43114  1  0  0  0  0
 43115  1  0  0  0  0
 44 45  2  0  0  0  0
 44116  1  0  0  0  0
 45 46  1  0  0  0  0
 45117  1  0  0  0  0
 46 47  1  0  0  0  0
 46118  1  0  0  0  0
 46119  1  0  0  0  0
 47 48  1  0  0  0  0
 47120  1  0  0  0  0
 47121  1  0  0  0  0
 48 49  1  0  0  0  0
 48122  1  0  0  0  0
 48123  1  0  0  0  0
 49 50  1  0  0  0  0
 49124  1  0  0  0  0
 49125  1  0  0  0  0
 50 51  1  0  0  0  0
 50126  1  0  0  0  0
 50127  1  0  0  0  0
 51 52  1  0  0  0  0
 51128  1  0  0  0  0
 51129  1  0  0  0  0
 52 53  1  0  0  0  0
 52130  1  0  0  0  0
 52131  1  0  0  0  0
 53132  1  0  0  0  0
 53133  1  0  0  0  0
 53134  1  0  0  0  0
M  CHG  1   9  -1
M  END
$$$$