/media/chris/experiments/cd1a-new-docking/inputs/ligands/7sh4_ligand.pdb
 OpenBabel07012320073D

134133  0  0  1  0  0  0  0  0999 V2000
  -43.4096   64.8945   59.1384 C   0  0  0  0  0  0  0  0  0  0  0  0
  -38.9960   60.3074   61.7875 O   0  0  0  0  0  0  0  0  0  0  0  0
  -34.0491   60.2433   66.3537 P   0  0  1  0  0  0  0  0  0  0  0  0
  -42.9705   66.0389   60.0236 C   0  0  0  0  0  0  0  0  0  0  0  0
  -38.3690   58.5038   62.9506 O   0  0  0  0  0  0  0  0  0  0  0  0
  -41.8808   66.8790   59.3849 C   0  0  0  0  0  0  0  0  0  0  0  0
  -35.4212   59.8922   65.6081 O   0  0  0  0  0  0  0  0  0  0  0  0
  -41.3880   68.0348   60.2371 C   0  0  0  0  0  0  0  0  0  0  0  0
  -34.2885   60.1710   67.8112 O   0  5  0  0  0  0  0  0  0  0  0  0
  -40.3075   68.8702   59.5647 C   0  0  0  0  0  0  0  0  0  0  0  0
  -32.9766   59.4052   65.7656 O   0  0  0  0  0  0  0  0  0  0  0  0
  -39.0688   68.0790   59.1974 C   0  0  0  0  0  0  0  0  0  0  0  0
  -33.7429   61.7632   65.9812 O   0  0  0  0  0  0  0  0  0  0  0  0
  -38.3974   67.4231   60.3887 C   0  0  0  0  0  0  0  0  0  0  0  0
  -33.8527   62.9332   69.9689 O   0  0  0  0  0  0  0  0  0  0  0  0
  -37.1395   66.6375   60.0357 C   0  0  0  0  0  0  0  0  0  0  0  0
  -31.4256   63.0127   68.5090 O   0  0  0  0  0  0  0  0  0  0  0  0
  -37.3760   65.5164   59.0454 C   0  0  0  0  0  0  0  0  0  0  0  0
  -38.2720   59.8520   65.2990 O   0  0  0  0  0  0  0  0  0  0  0  0
  -36.1324   64.7210   58.7034 C   0  0  0  0  0  0  0  0  0  0  0  0
  -39.8075   59.1219   63.8261 O   0  0  0  0  0  0  0  0  0  0  0  0
  -36.4000   63.6211   57.7000 C   0  0  0  0  0  0  0  0  0  0  0  0
  -37.4232   62.6205   58.1686 C   0  0  0  0  0  0  0  0  0  0  0  0
  -37.6710   61.5180   57.1683 C   0  0  0  0  0  0  0  0  0  0  0  0
  -38.7124   60.5181   57.6286 C   0  0  0  0  0  0  0  0  0  0  0  0
  -38.3436   59.8337   58.9252 C   0  0  0  0  0  0  0  0  0  0  0  0
  -39.3594   58.8163   59.4003 C   0  0  0  0  0  0  0  0  0  0  0  0
  -38.9658   58.1609   60.7132 C   0  0  0  0  0  0  0  0  0  0  0  0
  -38.8234   59.1206   61.8593 C   0  0  0  0  0  0  0  0  0  0  0  0
  -37.0720   58.9080   63.4380 C   0  0  0  0  0  0  0  0  0  0  0  0
  -37.3490   60.1700   64.2050 C   0  0  2  0  0  0  0  0  0  0  0  0
  -36.0840   60.8130   64.7130 C   0  0  0  0  0  0  0  0  0  0  0  0
  -32.5522   62.4034   66.4837 C   0  0  0  0  0  0  0  0  0  0  0  0
  -32.5926   62.3666   67.9917 C   0  0  2  0  0  0  0  0  0  0  0  0
  -33.8373   63.0142   68.5494 C   0  0  0  0  0  0  0  0  0  0  0  0
  -39.4672   59.3329   64.9581 C   0  0  0  0  0  0  0  0  0  0  0  0
  -40.3113   59.0340   66.1581 C   0  0  0  0  0  0  0  0  0  0  0  0
  -39.4546   58.6893   67.3722 C   0  0  0  0  0  0  0  0  0  0  0  0
  -40.2578   58.3591   68.6196 C   0  0  0  0  0  0  0  0  0  0  0  0
  -39.3939   58.0325   69.8323 C   0  0  0  0  0  0  0  0  0  0  0  0
  -38.4649   56.8503   69.6277 C   0  0  0  0  0  0  0  0  0  0  0  0
  -37.6029   56.4999   70.8439 C   0  0  0  0  0  0  0  0  0  0  0  0
  -36.6798   57.6184   71.3322 C   0  0  0  0  0  0  0  0  0  0  0  0
  -35.7164   58.0592   70.2713 C   0  0  0  0  0  0  0  0  0  0  0  0
  -34.5100   57.5734   70.0521 C   0  0  0  0  0  0  0  0  0  0  0  0
  -33.8486   56.4731   70.8204 C   0  0  0  0  0  0  0  0  0  0  0  0
  -34.7333   55.9305   71.9390 C   0  0  0  0  0  0  0  0  0  0  0  0
  -34.0818   54.8229   72.7483 C   0  0  0  0  0  0  0  0  0  0  0  0
  -33.6878   53.6127   71.9193 C   0  0  0  0  0  0  0  0  0  0  0  0
  -34.8431   52.9432   71.1937 C   0  0  0  0  0  0  0  0  0  0  0  0
  -34.4256   51.7247   70.3847 C   0  0  0  0  0  0  0  0  0  0  0  0
  -35.5623   51.0531   69.6400 C   0  0  0  0  0  0  0  0  0  0  0  0
  -35.1163   49.8441   68.8659 C   0  0  0  0  0  0  0  0  0  0  0  0
  -44.1762   64.3352   59.6327 H   0  0  0  0  0  0  0  0  0  0  0  0
  -42.5741   64.2562   58.9399 H   0  0  0  0  0  0  0  0  0  0  0  0
  -43.7892   65.2823   58.2162 H   0  0  0  0  0  0  0  0  0  0  0  0
  -42.6006   65.6386   60.9444 H   0  0  0  0  0  0  0  0  0  0  0  0
  -43.8185   66.6714   60.1835 H   0  0  0  0  0  0  0  0  0  0  0  0
  -42.2626   67.2794   58.4691 H   0  0  0  0  0  0  0  0  0  0  0  0
  -41.0425   66.2292   59.2437 H   0  0  0  0  0  0  0  0  0  0  0  0
  -40.9911   67.6382   61.1482 H   0  0  0  0  0  0  0  0  0  0  0  0
  -42.2248   68.6802   60.4048 H   0  0  0  0  0  0  0  0  0  0  0  0
  -40.0215   69.6548   60.2337 H   0  0  0  0  0  0  0  0  0  0  0  0
  -40.7227   69.2440   58.6522 H   0  0  0  0  0  0  0  0  0  0  0  0
  -33.1408   58.4733   65.9789 H   0  0  0  0  0  0  0  0  0  0  0  0
  -38.3675   68.7422   58.7355 H   0  0  0  0  0  0  0  0  0  0  0  0
  -39.3788   67.2950   58.5385 H   0  0  0  0  0  0  0  0  0  0  0  0
  -39.0969   66.7525   60.8422 H   0  0  0  0  0  0  0  0  0  0  0  0
  -38.0961   68.2109   61.0471 H   0  0  0  0  0  0  0  0  0  0  0  0
  -34.6583   63.3537   70.3080 H   0  0  0  0  0  0  0  0  0  0  0  0
  -36.7424   66.2149   60.9349 H   0  0  0  0  0  0  0  0  0  0  0  0
  -36.4630   67.3248   59.5722 H   0  0  0  0  0  0  0  0  0  0  0  0
  -30.6329   62.5890   68.1444 H   0  0  0  0  0  0  0  0  0  0  0  0
  -37.7620   65.9415   58.1425 H   0  0  0  0  0  0  0  0  0  0  0  0
  -38.0605   64.8359   59.5072 H   0  0  0  0  0  0  0  0  0  0  0  0
  -35.7506   64.2802   59.6005 H   0  0  0  0  0  0  0  0  0  0  0  0
  -35.4284   65.3957   58.2629 H   0  0  0  0  0  0  0  0  0  0  0  0
  -35.4824   63.1045   57.5102 H   0  0  0  0  0  0  0  0  0  0  0  0
  -36.7922   64.0853   56.8193 H   0  0  0  0  0  0  0  0  0  0  0  0
  -38.3453   63.1334   58.3461 H   0  0  0  0  0  0  0  0  0  0  0  0
  -37.0415   62.1654   59.0586 H   0  0  0  0  0  0  0  0  0  0  0  0
  -36.7510   60.9980   57.0003 H   0  0  0  0  0  0  0  0  0  0  0  0
  -38.0424   61.9760   56.2755 H   0  0  0  0  0  0  0  0  0  0  0  0
  -38.8271   59.7721   56.8701 H   0  0  0  0  0  0  0  0  0  0  0  0
  -39.6203   61.0581   57.7992 H   0  0  0  0  0  0  0  0  0  0  0  0
  -38.2395   60.5827   59.6823 H   0  0  0  0  0  0  0  0  0  0  0  0
  -37.4347   59.2992   58.7434 H   0  0  0  0  0  0  0  0  0  0  0  0
  -39.4563   58.0557   58.6539 H   0  0  0  0  0  0  0  0  0  0  0  0
  -40.2822   59.3333   59.5619 H   0  0  0  0  0  0  0  0  0  0  0  0
  -38.0288   57.6637   60.5729 H   0  0  0  0  0  0  0  0  0  0  0  0
  -39.7564   57.4876   60.9711 H   0  0  0  0  0  0  0  0  0  0  0  0
  -36.4020   59.0962   62.6252 H   0  0  0  0  0  0  0  0  0  0  0  0
  -36.6048   58.1555   64.0382 H   0  0  0  0  0  0  0  0  0  0  0  0
  -37.7985   60.8886   63.5519 H   0  0  0  0  0  0  0  0  0  0  0  0
  -35.4401   61.0403   63.8892 H   0  0  0  0  0  0  0  0  0  0  0  0
  -36.3193   61.7188   65.2317 H   0  0  0  0  0  0  0  0  0  0  0  0
  -32.5185   63.4188   66.1477 H   0  0  0  0  0  0  0  0  0  0  0  0
  -31.6819   61.8938   66.1264 H   0  0  0  0  0  0  0  0  0  0  0  0
  -32.6130   61.3409   68.2958 H   0  0  0  0  0  0  0  0  0  0  0  0
  -33.8597   64.0429   68.2560 H   0  0  0  0  0  0  0  0  0  0  0  0
  -34.6939   62.5002   68.1661 H   0  0  0  0  0  0  0  0  0  0  0  0
  -40.9498   58.2046   65.9363 H   0  0  0  0  0  0  0  0  0  0  0  0
  -40.8865   59.9061   66.3897 H   0  0  0  0  0  0  0  0  0  0  0  0
  -38.8250   59.5269   67.5889 H   0  0  0  0  0  0  0  0  0  0  0  0
  -38.8979   57.8110   67.1200 H   0  0  0  0  0  0  0  0  0  0  0  0
  -40.8782   57.5133   68.4084 H   0  0  0  0  0  0  0  0  0  0  0  0
  -40.8279   59.2305   68.8657 H   0  0  0  0  0  0  0  0  0  0  0  0
  -40.0400   57.8140   70.6567 H   0  0  0  0  0  0  0  0  0  0  0  0
  -38.7739   58.8864   70.0099 H   0  0  0  0  0  0  0  0  0  0  0  0
  -37.8127   57.0758   68.8100 H   0  0  0  0  0  0  0  0  0  0  0  0
  -39.0898   56.0014   69.4438 H   0  0  0  0  0  0  0  0  0  0  0  0
  -36.9952   55.6575   70.5872 H   0  0  0  0  0  0  0  0  0  0  0  0
  -38.2849   56.3067   71.6454 H   0  0  0  0  0  0  0  0  0  0  0  0
  -36.1252   57.2641   72.1759 H   0  0  0  0  0  0  0  0  0  0  0  0
  -37.2895   58.4582   71.5927 H   0  0  0  0  0  0  0  0  0  0  0  0
  -36.0292   58.8207   69.6490 H   0  0  0  0  0  0  0  0  0  0  0  0
  -33.9715   57.9916   69.2775 H   0  0  0  0  0  0  0  0  0  0  0  0
  -32.9439   56.8499   71.2500 H   0  0  0  0  0  0  0  0  0  0  0  0
  -33.6551   55.6707   70.1395 H   0  0  0  0  0  0  0  0  0  0  0  0
  -35.6320   55.5468   71.5031 H   0  0  0  0  0  0  0  0  0  0  0  0
  -34.9202   56.7414   72.6116 H   0  0  0  0  0  0  0  0  0  0  0  0
  -34.7709   54.5057   73.5030 H   0  0  0  0  0  0  0  0  0  0  0  0
  -33.1810   55.2258   73.1619 H   0  0  0  0  0  0  0  0  0  0  0  0
  -33.2401   52.8921   72.5714 H   0  0  0  0  0  0  0  0  0  0  0  0
  -33.0176   53.9662   71.1638 H   0  0  0  0  0  0  0  0  0  0  0  0
  -35.2846   53.6562   70.5291 H   0  0  0  0  0  0  0  0  0  0  0  0
  -35.5309   52.6052   71.9405 H   0  0  0  0  0  0  0  0  0  0  0  0
  -33.9941   51.0097   71.0537 H   0  0  0  0  0  0  0  0  0  0  0  0
  -33.7346   52.0696   69.6442 H   0  0  0  0  0  0  0  0  0  0  0  0
  -35.9879   51.7585   68.9573 H   0  0  0  0  0  0  0  0  0  0  0  0
  -36.2754   50.7254   70.3673 H   0  0  0  0  0  0  0  0  0  0  0  0
  -34.4000   50.1378   68.1273 H   0  0  0  0  0  0  0  0  0  0  0  0
  -35.9611   49.3967   68.3853 H   0  0  0  0  0  0  0  0  0  0  0  0
  -34.6703   49.1373   69.5341 H   0  0  0  0  0  0  0  0  0  0  0  0
  1  4  1  0  0  0  0
  1 54  1  0  0  0  0
  1 55  1  0  0  0  0
  1 56  1  0  0  0  0
  2 29  2  0  0  0  0
  3  7  1  0  0  0  0
  3  9  2  1  0  0  0
  3 11  1  0  0  0  0
  3 13  1  0  0  0  0
  4  6  1  0  0  0  0
  4 57  1  0  0  0  0
  4 58  1  0  0  0  0
  5 29  1  0  0  0  0
  5 30  1  0  0  0  0
  6  8  1  0  0  0  0
  6 59  1  0  0  0  0
  6 60  1  0  0  0  0
  7 32  1  0  0  0  0
  8 10  1  0  0  0  0
  8 61  1  0  0  0  0
  8 62  1  0  0  0  0
 10 12  1  0  0  0  0
 10 63  1  0  0  0  0
 10 64  1  0  0  0  0
 11 65  1  0  0  0  0
 12 14  1  0  0  0  0
 12 66  1  0  0  0  0
 12 67  1  0  0  0  0
 13 33  1  0  0  0  0
 14 16  1  0  0  0  0
 14 68  1  0  0  0  0
 14 69  1  0  0  0  0
 15 35  1  0  0  0  0
 15 70  1  0  0  0  0
 16 18  1  0  0  0  0
 16 71  1  0  0  0  0
 16 72  1  0  0  0  0
 17 34  1  0  0  0  0
 17 73  1  0  0  0  0
 18 20  1  0  0  0  0
 18 74  1  0  0  0  0
 18 75  1  0  0  0  0
 19 31  1  0  0  0  0
 19 36  1  0  0  0  0
 20 22  1  0  0  0  0
 20 76  1  0  0  0  0
 20 77  1  0  0  0  0
 21 36  2  0  0  0  0
 22 23  1  0  0  0  0
 22 78  1  0  0  0  0
 22 79  1  0  0  0  0
 23 24  1  0  0  0  0
 23 80  1  0  0  0  0
 23 81  1  0  0  0  0
 24 25  1  0  0  0  0
 24 82  1  0  0  0  0
 24 83  1  0  0  0  0
 25 26  1  0  0  0  0
 25 84  1  0  0  0  0
 25 85  1  0  0  0  0
 26 27  1  0  0  0  0
 26 86  1  0  0  0  0
 26 87  1  0  0  0  0
 27 28  1  0  0  0  0
 27 88  1  0  0  0  0
 27 89  1  0  0  0  0
 28 29  1  0  0  0  0
 28 90  1  0  0  0  0
 28 91  1  0  0  0  0
 30 31  1  0  0  0  0
 30 92  1  0  0  0  0
 30 93  1  0  0  0  0
 31 32  1  0  0  0  0
 31 94  1  6  0  0  0
 32 95  1  0  0  0  0
 32 96  1  0  0  0  0
 33 34  1  0  0  0  0
 33 97  1  0  0  0  0
 33 98  1  0  0  0  0
 34 35  1  0  0  0  0
 34 99  1  1  0  0  0
 35100  1  0  0  0  0
 35101  1  0  0  0  0
 36 37  1  0  0  0  0
 37 38  1  0  0  0  0
 37102  1  0  0  0  0
 37103  1  0  0  0  0
 38 39  1  0  0  0  0
 38104  1  0  0  0  0
 38105  1  0  0  0  0
 39 40  1  0  0  0  0
 39106  1  0  0  0  0
 39107  1  0  0  0  0
 40 41  1  0  0  0  0
 40108  1  0  0  0  0
 40109  1  0  0  0  0
 41 42  1  0  0  0  0
 41110  1  0  0  0  0
 41111  1  0  0  0  0
 42 43  1  0  0  0  0
 42112  1  0  0  0  0
 42113  1  0  0  0  0
 43 44  1  0  0  0  0
 43114  1  0  0  0  0
 43115  1  0  0  0  0
 44 45  2  0  0  0  0
 44116  1  0  0  0  0
 45 46  1  0  0  0  0
 45117  1  0  0  0  0
 46 47  1  0  0  0  0
 46118  1  0  0  0  0
 46119  1  0  0  0  0
 47 48  1  0  0  0  0
 47120  1  0  0  0  0
 47121  1  0  0  0  0
 48 49  1  0  0  0  0
 48122  1  0  0  0  0
 48123  1  0  0  0  0
 49 50  1  0  0  0  0
 49124  1  0  0  0  0
 49125  1  0  0  0  0
 50 51  1  0  0  0  0
 50126  1  0  0  0  0
 50127  1  0  0  0  0
 51 52  1  0  0  0  0
 51128  1  0  0  0  0
 51129  1  0  0  0  0
 52 53  1  0  0  0  0
 52130  1  0  0  0  0
 52131  1  0  0  0  0
 53132  1  0  0  0  0
 53133  1  0  0  0  0
 53134  1  0  0  0  0
M  CHG  1   9  -1
M  END
$$$$