/media/chris/experiments/cd1a-new-docking/inputs/ligands/7sh4_ligand.pdb
 OpenBabel07012320073D

134133  0  0  1  0  0  0  0  0999 V2000
  -26.7077   57.4196   49.1693 C   0  0  0  0  0  0  0  0  0  0  0  0
  -34.7602   57.6107   62.7784 O   0  0  0  0  0  0  0  0  0  0  0  0
  -35.3336   62.9877   66.0786 P   0  0  1  0  0  0  0  0  0  0  0  0
  -26.4820   58.5879   50.1020 C   0  0  0  0  0  0  0  0  0  0  0  0
  -36.1511   59.3213   62.4064 O   0  0  0  0  0  0  0  0  0  0  0  0
  -27.7422   59.4026   50.3240 C   0  0  0  0  0  0  0  0  0  0  0  0
  -36.4293   62.0282   65.4148 O   0  0  0  0  0  0  0  0  0  0  0  0
  -27.5709   60.6008   51.2406 C   0  0  0  0  0  0  0  0  0  0  0  0
  -34.9300   63.9895   65.0686 O   0  5  0  0  0  0  0  0  0  0  0  0
  -28.8546   61.3895   51.4588 C   0  0  0  0  0  0  0  0  0  0  0  0
  -35.8630   63.4617   67.3801 O   0  0  0  0  0  0  0  0  0  0  0  0
  -29.9641   60.5791   52.0972 C   0  0  0  0  0  0  0  0  0  0  0  0
  -34.0759   62.0526   66.3727 O   0  0  0  0  0  0  0  0  0  0  0  0
  -29.6060   60.0440   53.4704 C   0  0  0  0  0  0  0  0  0  0  0  0
  -31.6110   64.3150   63.9053 O   0  0  0  0  0  0  0  0  0  0  0  0
  -29.2905   61.1282   54.4947 C   0  0  0  0  0  0  0  0  0  0  0  0
  -31.1879   64.2592   66.7064 O   0  0  0  0  0  0  0  0  0  0  0  0
  -28.9170   60.5900   55.8600 C   0  0  0  0  0  0  0  0  0  0  0  0
  -38.2720   59.8520   65.2990 O   0  0  0  0  0  0  0  0  0  0  0  0
  -29.9915   59.7373   56.5037 C   0  0  0  0  0  0  0  0  0  0  0  0
  -39.6513   58.6615   63.9798 O   0  0  0  0  0  0  0  0  0  0  0  0
  -29.5934   59.2304   57.8722 C   0  0  0  0  0  0  0  0  0  0  0  0
  -30.6443   58.3670   58.5187 C   0  0  0  0  0  0  0  0  0  0  0  0
  -30.2453   57.8800   59.8903 C   0  0  0  0  0  0  0  0  0  0  0  0
  -31.2927   56.9968   60.5376 C   0  0  0  0  0  0  0  0  0  0  0  0
  -32.6263   57.6882   60.7088 C   0  0  0  0  0  0  0  0  0  0  0  0
  -32.5709   58.9412   61.5572 C   0  0  0  0  0  0  0  0  0  0  0  0
  -33.9298   59.6002   61.7224 C   0  0  0  0  0  0  0  0  0  0  0  0
  -34.9553   58.7317   62.3924 C   0  0  0  0  0  0  0  0  0  0  0  0
  -37.0720   58.9080   63.4380 C   0  0  0  0  0  0  0  0  0  0  0  0
  -37.3490   60.1700   64.2050 C   0  0  2  0  0  0  0  0  0  0  0  0
  -36.0840   60.8130   64.7130 C   0  0  0  0  0  0  0  0  0  0  0  0
  -32.8966   62.6037   66.9936 C   0  0  0  0  0  0  0  0  0  0  0  0
  -32.3690   63.7106   66.1140 C   0  0  2  0  0  0  0  0  0  0  0  0
  -32.0769   63.2391   64.7097 C   0  0  0  0  0  0  0  0  0  0  0  0
  -39.4672   59.3329   64.9581 C   0  0  0  0  0  0  0  0  0  0  0  0
  -40.5321   59.6773   65.9527 C   0  0  0  0  0  0  0  0  0  0  0  0
  -41.6671   60.4650   65.3061 C   0  0  0  0  0  0  0  0  0  0  0  0
  -42.7724   60.8588   66.2720 C   0  0  0  0  0  0  0  0  0  0  0  0
  -43.4410   59.6692   66.9515 C   0  0  0  0  0  0  0  0  0  0  0  0
  -44.0806   58.6874   65.9874 C   0  0  0  0  0  0  0  0  0  0  0  0
  -45.1688   59.2896   65.0941 C   0  0  0  0  0  0  0  0  0  0  0  0
  -46.3550   59.9067   65.8381 C   0  0  0  0  0  0  0  0  0  0  0  0
  -47.0574   58.9080   66.7083 C   0  0  0  0  0  0  0  0  0  0  0  0
  -48.3384   58.9003   67.0220 C   0  0  0  0  0  0  0  0  0  0  0  0
  -49.3638   59.8918   66.5704 C   0  0  0  0  0  0  0  0  0  0  0  0
  -50.0223   60.6211   67.7378 C   0  0  0  0  0  0  0  0  0  0  0  0
  -51.0808   61.6231   67.3114 C   0  0  0  0  0  0  0  0  0  0  0  0
  -51.7245   62.3614   68.4724 C   0  0  0  0  0  0  0  0  0  0  0  0
  -52.7989   63.3570   68.0674 C   0  0  0  0  0  0  0  0  0  0  0  0
  -53.4158   64.0951   69.2457 C   0  0  0  0  0  0  0  0  0  0  0  0
  -54.0733   63.1919   70.2702 C   0  0  0  0  0  0  0  0  0  0  0  0
  -55.1808   62.3600   69.6864 C   0  0  0  0  0  0  0  0  0  0  0  0
  -25.7922   56.8795   49.0462 H   0  0  0  0  0  0  0  0  0  0  0  0
  -27.0391   57.7812   48.2183 H   0  0  0  0  0  0  0  0  0  0  0  0
  -27.4514   56.7712   49.5833 H   0  0  0  0  0  0  0  0  0  0  0  0
  -25.7315   59.2238   49.6808 H   0  0  0  0  0  0  0  0  0  0  0  0
  -26.1765   58.1949   51.0491 H   0  0  0  0  0  0  0  0  0  0  0  0
  -28.4834   58.7598   50.7510 H   0  0  0  0  0  0  0  0  0  0  0  0
  -28.0223   59.7919   49.3675 H   0  0  0  0  0  0  0  0  0  0  0  0
  -26.8413   61.2545   50.8101 H   0  0  0  0  0  0  0  0  0  0  0  0
  -27.2674   60.2248   52.1953 H   0  0  0  0  0  0  0  0  0  0  0  0
  -29.1985   61.7449   50.5100 H   0  0  0  0  0  0  0  0  0  0  0  0
  -28.6216   62.1873   52.1327 H   0  0  0  0  0  0  0  0  0  0  0  0
  -36.6310   64.0342   67.2275 H   0  0  0  0  0  0  0  0  0  0  0  0
  -30.1895   59.7507   51.4587 H   0  0  0  0  0  0  0  0  0  0  0  0
  -30.8014   61.2335   52.2218 H   0  0  0  0  0  0  0  0  0  0  0  0
  -28.7472   59.4133   53.3725 H   0  0  0  0  0  0  0  0  0  0  0  0
  -30.4646   59.5173   53.8313 H   0  0  0  0  0  0  0  0  0  0  0  0
  -31.4290   63.9930   63.0086 H   0  0  0  0  0  0  0  0  0  0  0  0
  -30.1534   61.7517   54.6025 H   0  0  0  0  0  0  0  0  0  0  0  0
  -28.4403   61.6647   54.1283 H   0  0  0  0  0  0  0  0  0  0  0  0
  -31.3871   64.5585   67.6073 H   0  0  0  0  0  0  0  0  0  0  0  0
  -28.7153   61.4198   56.5047 H   0  0  0  0  0  0  0  0  0  0  0  0
  -28.0644   59.9587   55.7203 H   0  0  0  0  0  0  0  0  0  0  0  0
  -30.1864   58.8969   55.8708 H   0  0  0  0  0  0  0  0  0  0  0  0
  -30.8599   60.3504   56.6265 H   0  0  0  0  0  0  0  0  0  0  0  0
  -29.4097   60.0728   58.5058 H   0  0  0  0  0  0  0  0  0  0  0  0
  -28.7215   58.6238   57.7431 H   0  0  0  0  0  0  0  0  0  0  0  0
  -30.8197   57.5171   57.8928 H   0  0  0  0  0  0  0  0  0  0  0  0
  -31.5234   58.9658   58.6349 H   0  0  0  0  0  0  0  0  0  0  0  0
  -30.0817   58.7303   60.5189 H   0  0  0  0  0  0  0  0  0  0  0  0
  -29.3600   57.2905   59.7735 H   0  0  0  0  0  0  0  0  0  0  0  0
  -30.9377   56.6978   61.5016 H   0  0  0  0  0  0  0  0  0  0  0  0
  -31.4480   56.1588   59.8907 H   0  0  0  0  0  0  0  0  0  0  0  0
  -33.3042   57.0005   61.1698 H   0  0  0  0  0  0  0  0  0  0  0  0
  -32.9433   57.9912   59.7329 H   0  0  0  0  0  0  0  0  0  0  0  0
  -31.9064   59.6395   61.0928 H   0  0  0  0  0  0  0  0  0  0  0  0
  -32.2301   58.6565   62.5307 H   0  0  0  0  0  0  0  0  0  0  0  0
  -34.2954   59.8643   60.7521 H   0  0  0  0  0  0  0  0  0  0  0  0
  -33.7852   60.4508   62.3553 H   0  0  0  0  0  0  0  0  0  0  0  0
  -36.6274   58.1683   64.0706 H   0  0  0  0  0  0  0  0  0  0  0  0
  -37.9610   58.4631   63.0423 H   0  0  0  0  0  0  0  0  0  0  0  0
  -37.7985   60.8886   63.5519 H   0  0  0  0  0  0  0  0  0  0  0  0
  -35.5824   60.1428   65.3795 H   0  0  0  0  0  0  0  0  0  0  0  0
  -35.4356   61.0386   63.8923 H   0  0  0  0  0  0  0  0  0  0  0  0
  -32.1537   61.8409   67.0993 H   0  0  0  0  0  0  0  0  0  0  0  0
  -33.1364   62.9871   67.9633 H   0  0  0  0  0  0  0  0  0  0  0  0
  -33.1277   64.4612   66.0382 H   0  0  0  0  0  0  0  0  0  0  0  0
  -31.3275   62.4760   64.7441 H   0  0  0  0  0  0  0  0  0  0  0  0
  -32.9787   62.8545   64.2812 H   0  0  0  0  0  0  0  0  0  0  0  0
  -40.1005   60.2674   66.7340 H   0  0  0  0  0  0  0  0  0  0  0  0
  -40.9352   58.7659   66.3422 H   0  0  0  0  0  0  0  0  0  0  0  0
  -42.0953   59.8640   64.5312 H   0  0  0  0  0  0  0  0  0  0  0  0
  -41.2417   61.3735   64.9340 H   0  0  0  0  0  0  0  0  0  0  0  0
  -43.5181   61.4017   65.7298 H   0  0  0  0  0  0  0  0  0  0  0  0
  -42.3207   61.4476   67.0429 H   0  0  0  0  0  0  0  0  0  0  0  0
  -44.2006   60.0397   67.6077 H   0  0  0  0  0  0  0  0  0  0  0  0
  -42.6718   59.1367   67.4708 H   0  0  0  0  0  0  0  0  0  0  0  0
  -44.5179   57.8954   66.5586 H   0  0  0  0  0  0  0  0  0  0  0  0
  -43.3021   58.3528   65.3340 H   0  0  0  0  0  0  0  0  0  0  0  0
  -45.5434   58.5135   64.4599 H   0  0  0  0  0  0  0  0  0  0  0  0
  -44.7040   60.0915   64.5594 H   0  0  0  0  0  0  0  0  0  0  0  0
  -47.0509   60.2890   65.1209 H   0  0  0  0  0  0  0  0  0  0  0  0
  -45.9791   60.6855   66.4683 H   0  0  0  0  0  0  0  0  0  0  0  0
  -46.4795   58.1492   67.1021 H   0  0  0  0  0  0  0  0  0  0  0  0
  -48.6643   58.1383   67.6369 H   0  0  0  0  0  0  0  0  0  0  0  0
  -50.1203   59.3758   66.0170 H   0  0  0  0  0  0  0  0  0  0  0  0
  -48.8669   60.6231   65.9678 H   0  0  0  0  0  0  0  0  0  0  0  0
  -49.2630   61.1427   68.2821 H   0  0  0  0  0  0  0  0  0  0  0  0
  -50.5142   59.8800   68.3326 H   0  0  0  0  0  0  0  0  0  0  0  0
  -51.8464   61.0995   66.7779 H   0  0  0  0  0  0  0  0  0  0  0  0
  -50.5912   62.3573   66.7064 H   0  0  0  0  0  0  0  0  0  0  0  0
  -50.9579   62.8920   68.9974 H   0  0  0  0  0  0  0  0  0  0  0  0
  -52.2074   61.6203   69.0744 H   0  0  0  0  0  0  0  0  0  0  0  0
  -53.5751   62.8281   67.5549 H   0  0  0  0  0  0  0  0  0  0  0  0
  -52.3302   64.0911   67.4459 H   0  0  0  0  0  0  0  0  0  0  0  0
  -54.1561   64.7694   68.8687 H   0  0  0  0  0  0  0  0  0  0  0  0
  -52.6147   64.5966   69.7474 H   0  0  0  0  0  0  0  0  0  0  0  0
  -54.4779   63.7997   71.0524 H   0  0  0  0  0  0  0  0  0  0  0  0
  -53.3246   62.5210   70.6366 H   0  0  0  0  0  0  0  0  0  0  0  0
  -55.9489   63.0026   69.3095 H   0  0  0  0  0  0  0  0  0  0  0  0
  -55.5877   61.7247   70.4452 H   0  0  0  0  0  0  0  0  0  0  0  0
  -54.7942   61.7605   68.8889 H   0  0  0  0  0  0  0  0  0  0  0  0
  1  4  1  0  0  0  0
  1 54  1  0  0  0  0
  1 55  1  0  0  0  0
  1 56  1  0  0  0  0
  2 29  2  0  0  0  0
  3  7  1  0  0  0  0
  3  9  2  6  0  0  0
  3 11  1  0  0  0  0
  3 13  1  0  0  0  0
  4  6  1  0  0  0  0
  4 57  1  0  0  0  0
  4 58  1  0  0  0  0
  5 29  1  0  0  0  0
  5 30  1  0  0  0  0
  6  8  1  0  0  0  0
  6 59  1  0  0  0  0
  6 60  1  0  0  0  0
  7 32  1  0  0  0  0
  8 10  1  0  0  0  0
  8 61  1  0  0  0  0
  8 62  1  0  0  0  0
 10 12  1  0  0  0  0
 10 63  1  0  0  0  0
 10 64  1  0  0  0  0
 11 65  1  0  0  0  0
 12 14  1  0  0  0  0
 12 66  1  0  0  0  0
 12 67  1  0  0  0  0
 13 33  1  0  0  0  0
 14 16  1  0  0  0  0
 14 68  1  0  0  0  0
 14 69  1  0  0  0  0
 15 35  1  0  0  0  0
 15 70  1  0  0  0  0
 16 18  1  0  0  0  0
 16 71  1  0  0  0  0
 16 72  1  0  0  0  0
 17 34  1  0  0  0  0
 17 73  1  0  0  0  0
 18 20  1  0  0  0  0
 18 74  1  0  0  0  0
 18 75  1  0  0  0  0
 19 31  1  0  0  0  0
 19 36  1  0  0  0  0
 20 22  1  0  0  0  0
 20 76  1  0  0  0  0
 20 77  1  0  0  0  0
 21 36  2  0  0  0  0
 22 23  1  0  0  0  0
 22 78  1  0  0  0  0
 22 79  1  0  0  0  0
 23 24  1  0  0  0  0
 23 80  1  0  0  0  0
 23 81  1  0  0  0  0
 24 25  1  0  0  0  0
 24 82  1  0  0  0  0
 24 83  1  0  0  0  0
 25 26  1  0  0  0  0
 25 84  1  0  0  0  0
 25 85  1  0  0  0  0
 26 27  1  0  0  0  0
 26 86  1  0  0  0  0
 26 87  1  0  0  0  0
 27 28  1  0  0  0  0
 27 88  1  0  0  0  0
 27 89  1  0  0  0  0
 28 29  1  0  0  0  0
 28 90  1  0  0  0  0
 28 91  1  0  0  0  0
 30 31  1  0  0  0  0
 30 92  1  0  0  0  0
 30 93  1  0  0  0  0
 31 32  1  0  0  0  0
 31 94  1  6  0  0  0
 32 95  1  0  0  0  0
 32 96  1  0  0  0  0
 33 34  1  0  0  0  0
 33 97  1  0  0  0  0
 33 98  1  0  0  0  0
 34 35  1  0  0  0  0
 34 99  1  6  0  0  0
 35100  1  0  0  0  0
 35101  1  0  0  0  0
 36 37  1  0  0  0  0
 37 38  1  0  0  0  0
 37102  1  0  0  0  0
 37103  1  0  0  0  0
 38 39  1  0  0  0  0
 38104  1  0  0  0  0
 38105  1  0  0  0  0
 39 40  1  0  0  0  0
 39106  1  0  0  0  0
 39107  1  0  0  0  0
 40 41  1  0  0  0  0
 40108  1  0  0  0  0
 40109  1  0  0  0  0
 41 42  1  0  0  0  0
 41110  1  0  0  0  0
 41111  1  0  0  0  0
 42 43  1  0  0  0  0
 42112  1  0  0  0  0
 42113  1  0  0  0  0
 43 44  1  0  0  0  0
 43114  1  0  0  0  0
 43115  1  0  0  0  0
 44 45  2  0  0  0  0
 44116  1  0  0  0  0
 45 46  1  0  0  0  0
 45117  1  0  0  0  0
 46 47  1  0  0  0  0
 46118  1  0  0  0  0
 46119  1  0  0  0  0
 47 48  1  0  0  0  0
 47120  1  0  0  0  0
 47121  1  0  0  0  0
 48 49  1  0  0  0  0
 48122  1  0  0  0  0
 48123  1  0  0  0  0
 49 50  1  0  0  0  0
 49124  1  0  0  0  0
 49125  1  0  0  0  0
 50 51  1  0  0  0  0
 50126  1  0  0  0  0
 50127  1  0  0  0  0
 51 52  1  0  0  0  0
 51128  1  0  0  0  0
 51129  1  0  0  0  0
 52 53  1  0  0  0  0
 52130  1  0  0  0  0
 52131  1  0  0  0  0
 53132  1  0  0  0  0
 53133  1  0  0  0  0
 53134  1  0  0  0  0
M  CHG  1   9  -1
M  END
$$$$