/media/chris/experiments/cd1a-new-docking/inputs/ligands/7sh4_ligand.pdb
 OpenBabel07012320073D

134133  0  0  1  0  0  0  0  0999 V2000
  -48.7741   58.3816   68.5381 C   0  0  0  0  0  0  0  0  0  0  0  0
  -38.3503   59.3356   60.8753 O   0  0  0  0  0  0  0  0  0  0  0  0
  -34.0491   60.2433   66.3537 P   0  0  1  0  0  0  0  0  0  0  0  0
  -47.5704   57.5329   68.8796 C   0  0  0  0  0  0  0  0  0  0  0  0
  -38.3690   58.5038   62.9506 O   0  0  0  0  0  0  0  0  0  0  0  0
  -46.3224   57.9744   68.1389 C   0  0  0  0  0  0  0  0  0  0  0  0
  -35.4212   59.8922   65.6081 O   0  0  0  0  0  0  0  0  0  0  0  0
  -45.0840   57.1459   68.4305 C   0  0  0  0  0  0  0  0  0  0  0  0
  -33.0346   59.2516   65.9368 O   0  5  0  0  0  0  0  0  0  0  0  0
  -45.2308   55.6778   68.0555 C   0  0  0  0  0  0  0  0  0  0  0  0
  -33.7655   61.6836   66.1443 O   0  0  0  0  0  0  0  0  0  0  0  0
  -44.0015   54.8469   68.3617 C   0  0  0  0  0  0  0  0  0  0  0  0
  -34.3431   60.0224   67.9054 O   0  0  0  0  0  0  0  0  0  0  0  0
  -44.1470   53.3888   67.9706 C   0  0  0  0  0  0  0  0  0  0  0  0
  -30.6899   61.9372   67.3851 O   0  0  0  0  0  0  0  0  0  0  0  0
  -42.9232   52.5372   68.2888 C   0  0  0  0  0  0  0  0  0  0  0  0
  -31.1315   60.2570   69.6234 O   0  0  0  0  0  0  0  0  0  0  0  0
  -41.6560   53.0076   67.6061 C   0  0  0  0  0  0  0  0  0  0  0  0
  -38.2720   59.8520   65.2990 O   0  0  0  0  0  0  0  0  0  0  0  0
  -41.7406   53.0303   66.0933 C   0  0  0  0  0  0  0  0  0  0  0  0
  -39.8075   59.1219   63.8261 O   0  0  0  0  0  0  0  0  0  0  0  0
  -40.4539   53.4882   65.4430 C   0  0  0  0  0  0  0  0  0  0  0  0
  -40.5269   53.5325   63.9395 C   0  0  0  0  0  0  0  0  0  0  0  0
  -39.2337   53.9741   63.2991 C   0  0  0  0  0  0  0  0  0  0  0  0
  -39.3078   54.0364   61.7870 C   0  0  0  0  0  0  0  0  0  0  0  0
  -40.3478   55.0121   61.2849 C   0  0  0  0  0  0  0  0  0  0  0  0
  -40.1111   56.4453   61.7122 C   0  0  0  0  0  0  0  0  0  0  0  0
  -38.7894   56.9990   61.2075 C   0  0  0  0  0  0  0  0  0  0  0  0
  -38.5165   58.4143   61.6284 C   0  0  0  0  0  0  0  0  0  0  0  0
  -37.0720   58.9080   63.4380 C   0  0  0  0  0  0  0  0  0  0  0  0
  -37.3490   60.1700   64.2050 C   0  0  2  0  0  0  0  0  0  0  0  0
  -36.0840   60.8130   64.7130 C   0  0  0  0  0  0  0  0  0  0  0  0
  -33.2816   59.6066   68.7887 C   0  0  0  0  0  0  0  0  0  0  0  0
  -32.2020   60.6606   68.7643 C   0  0  2  0  0  0  0  0  0  0  0  0
  -31.6823   60.9191   67.3705 C   0  0  0  0  0  0  0  0  0  0  0  0
  -39.4672   59.3329   64.9581 C   0  0  0  0  0  0  0  0  0  0  0  0
  -40.3113   59.0340   66.1581 C   0  0  0  0  0  0  0  0  0  0  0  0
  -41.7976   59.1725   65.8444 C   0  0  0  0  0  0  0  0  0  0  0  0
  -42.7063   58.8973   67.0313 C   0  0  0  0  0  0  0  0  0  0  0  0
  -42.4785   59.8423   68.2056 C   0  0  0  0  0  0  0  0  0  0  0  0
  -41.0675   59.8054   68.7625 C   0  0  0  0  0  0  0  0  0  0  0  0
  -40.8287   60.7374   69.9538 C   0  0  0  0  0  0  0  0  0  0  0  0
  -39.4057   60.7243   70.5163 C   0  0  0  0  0  0  0  0  0  0  0  0
  -38.9964   59.3604   70.9856 C   0  0  0  0  0  0  0  0  0  0  0  0
  -39.1545   58.8643   72.1974 C   0  0  0  0  0  0  0  0  0  0  0  0
  -39.7806   59.5634   73.3626 C   0  0  0  0  0  0  0  0  0  0  0  0
  -40.8412   60.5734   72.9343 C   0  0  0  0  0  0  0  0  0  0  0  0
  -41.4835   61.3121   74.0954 C   0  0  0  0  0  0  0  0  0  0  0  0
  -42.1731   60.3978   75.0933 C   0  0  0  0  0  0  0  0  0  0  0  0
  -43.2859   59.5473   74.5034 C   0  0  0  0  0  0  0  0  0  0  0  0
  -43.9716   58.6535   75.5255 C   0  0  0  0  0  0  0  0  0  0  0  0
  -45.0737   57.7849   74.9523 C   0  0  0  0  0  0  0  0  0  0  0  0
  -44.5780   56.8401   73.8933 C   0  0  0  0  0  0  0  0  0  0  0  0
  -49.6245   58.0306   69.0844 H   0  0  0  0  0  0  0  0  0  0  0  0
  -48.9717   58.3144   67.4887 H   0  0  0  0  0  0  0  0  0  0  0  0
  -48.5778   59.4005   68.7996 H   0  0  0  0  0  0  0  0  0  0  0  0
  -47.7821   56.5165   68.6208 H   0  0  0  0  0  0  0  0  0  0  0  0
  -47.3826   57.6398   69.9276 H   0  0  0  0  0  0  0  0  0  0  0  0
  -46.1159   58.9888   68.4093 H   0  0  0  0  0  0  0  0  0  0  0  0
  -46.5302   57.8500   67.0966 H   0  0  0  0  0  0  0  0  0  0  0  0
  -44.8742   57.2082   69.4778 H   0  0  0  0  0  0  0  0  0  0  0  0
  -44.2915   57.5449   67.8323 H   0  0  0  0  0  0  0  0  0  0  0  0
  -45.4284   55.6151   67.0058 H   0  0  0  0  0  0  0  0  0  0  0  0
  -46.0313   55.2823   68.6451 H   0  0  0  0  0  0  0  0  0  0  0  0
  -33.5830   61.8440   65.2052 H   0  0  0  0  0  0  0  0  0  0  0  0
  -43.8107   54.8986   69.4133 H   0  0  0  0  0  0  0  0  0  0  0  0
  -43.1961   55.2499   67.7840 H   0  0  0  0  0  0  0  0  0  0  0  0
  -44.3268   53.3392   66.9170 H   0  0  0  0  0  0  0  0  0  0  0  0
  -44.9579   52.9931   68.5458 H   0  0  0  0  0  0  0  0  0  0  0  0
  -30.3688   62.0888   66.4824 H   0  0  0  0  0  0  0  0  0  0  0  0
  -43.1212   51.5328   67.9774 H   0  0  0  0  0  0  0  0  0  0  0  0
  -42.7559   52.6141   69.3429 H   0  0  0  0  0  0  0  0  0  0  0  0
  -31.4766   60.0938   70.5152 H   0  0  0  0  0  0  0  0  0  0  0  0
  -40.8590   52.3519   67.8883 H   0  0  0  0  0  0  0  0  0  0  0  0
  -41.4920   54.0169   67.9212 H   0  0  0  0  0  0  0  0  0  0  0  0
  -42.5261   53.6969   65.8044 H   0  0  0  0  0  0  0  0  0  0  0  0
  -41.9299   52.0295   65.7653 H   0  0  0  0  0  0  0  0  0  0  0  0
  -39.6726   52.8137   65.7250 H   0  0  0  0  0  0  0  0  0  0  0  0
  -40.2674   54.4865   65.7799 H   0  0  0  0  0  0  0  0  0  0  0  0
  -41.2990   54.2167   63.6557 H   0  0  0  0  0  0  0  0  0  0  0  0
  -40.7293   52.5383   63.5995 H   0  0  0  0  0  0  0  0  0  0  0  0
  -38.4646   53.2827   63.5738 H   0  0  0  0  0  0  0  0  0  0  0  0
  -39.0273   54.9641   63.6487 H   0  0  0  0  0  0  0  0  0  0  0  0
  -39.5485   53.0616   61.4171 H   0  0  0  0  0  0  0  0  0  0  0  0
  -38.3559   54.3744   61.4341 H   0  0  0  0  0  0  0  0  0  0  0  0
  -41.3032   54.7047   61.6559 H   0  0  0  0  0  0  0  0  0  0  0  0
  -40.2938   54.9967   60.2164 H   0  0  0  0  0  0  0  0  0  0  0  0
  -40.1139   56.4883   62.7814 H   0  0  0  0  0  0  0  0  0  0  0  0
  -40.8928   57.0411   61.2893 H   0  0  0  0  0  0  0  0  0  0  0  0
  -38.7960   56.9619   60.1381 H   0  0  0  0  0  0  0  0  0  0  0  0
  -38.0177   56.3951   61.6373 H   0  0  0  0  0  0  0  0  0  0  0  0
  -36.4020   59.0962   62.6252 H   0  0  0  0  0  0  0  0  0  0  0  0
  -36.6048   58.1555   64.0382 H   0  0  0  0  0  0  0  0  0  0  0  0
  -37.7985   60.8886   63.5519 H   0  0  0  0  0  0  0  0  0  0  0  0
  -35.4401   61.0403   63.8892 H   0  0  0  0  0  0  0  0  0  0  0  0
  -36.3193   61.7188   65.2317 H   0  0  0  0  0  0  0  0  0  0  0  0
  -32.8811   58.6713   68.4574 H   0  0  0  0  0  0  0  0  0  0  0  0
  -33.6566   59.4871   69.7837 H   0  0  0  0  0  0  0  0  0  0  0  0
  -32.6293   61.5780   69.1118 H   0  0  0  0  0  0  0  0  0  0  0  0
  -31.2556   60.0181   66.9820 H   0  0  0  0  0  0  0  0  0  0  0  0
  -32.4958   61.2403   66.7540 H   0  0  0  0  0  0  0  0  0  0  0  0
  -40.0562   59.7168   66.9415 H   0  0  0  0  0  0  0  0  0  0  0  0
  -40.1240   58.0239   66.4573 H   0  0  0  0  0  0  0  0  0  0  0  0
  -42.0431   58.4818   65.0650 H   0  0  0  0  0  0  0  0  0  0  0  0
  -41.9608   60.1905   65.5580 H   0  0  0  0  0  0  0  0  0  0  0  0
  -42.5333   57.8954   67.3647 H   0  0  0  0  0  0  0  0  0  0  0  0
  -43.7120   59.0472   66.6981 H   0  0  0  0  0  0  0  0  0  0  0  0
  -43.1566   59.5750   68.9890 H   0  0  0  0  0  0  0  0  0  0  0  0
  -42.6415   60.8348   67.8405 H   0  0  0  0  0  0  0  0  0  0  0  0
  -40.3925   60.0836   67.9803 H   0  0  0  0  0  0  0  0  0  0  0  0
  -40.9080   58.8094   69.1195 H   0  0  0  0  0  0  0  0  0  0  0  0
  -41.4973   60.4501   70.7382 H   0  0  0  0  0  0  0  0  0  0  0  0
  -40.9958   61.7305   69.5921 H   0  0  0  0  0  0  0  0  0  0  0  0
  -39.3550   61.4027   71.3422 H   0  0  0  0  0  0  0  0  0  0  0  0
  -38.7390   61.0162   69.7320 H   0  0  0  0  0  0  0  0  0  0  0  0
  -38.5448   58.7470   70.2893 H   0  0  0  0  0  0  0  0  0  0  0  0
  -38.8142   57.9032   72.3569 H   0  0  0  0  0  0  0  0  0  0  0  0
  -39.0158   60.0779   73.9059 H   0  0  0  0  0  0  0  0  0  0  0  0
  -40.2610   58.8229   73.9673 H   0  0  0  0  0  0  0  0  0  0  0  0
  -41.6078   60.0524   72.3997 H   0  0  0  0  0  0  0  0  0  0  0  0
  -40.3493   61.3069   72.3303 H   0  0  0  0  0  0  0  0  0  0  0  0
  -42.2097   61.9927   73.7027 H   0  0  0  0  0  0  0  0  0  0  0  0
  -40.6975   61.8129   74.6210 H   0  0  0  0  0  0  0  0  0  0  0  0
  -42.5915   61.0046   75.8690 H   0  0  0  0  0  0  0  0  0  0  0  0
  -41.4272   59.7186   75.4501 H   0  0  0  0  0  0  0  0  0  0  0  0
  -42.8690   58.9278   73.7370 H   0  0  0  0  0  0  0  0  0  0  0  0
  -44.0277   60.2182   74.1233 H   0  0  0  0  0  0  0  0  0  0  0  0
  -44.3962   59.2766   76.2847 H   0  0  0  0  0  0  0  0  0  0  0  0
  -43.2229   57.9896   75.9044 H   0  0  0  0  0  0  0  0  0  0  0  0
  -45.8205   58.4192   74.5224 H   0  0  0  0  0  0  0  0  0  0  0  0
  -45.4681   57.1942   75.7525 H   0  0  0  0  0  0  0  0  0  0  0  0
  -44.1756   57.4005   73.0754 H   0  0  0  0  0  0  0  0  0  0  0  0
  -45.3899   56.2357   73.5463 H   0  0  0  0  0  0  0  0  0  0  0  0
  -43.8158   56.2117   74.3044 H   0  0  0  0  0  0  0  0  0  0  0  0
  1  4  1  0  0  0  0
  1 54  1  0  0  0  0
  1 55  1  0  0  0  0
  1 56  1  0  0  0  0
  2 29  2  0  0  0  0
  3  7  1  0  0  0  0
  3  9  2  6  0  0  0
  3 11  1  0  0  0  0
  3 13  1  0  0  0  0
  4  6  1  0  0  0  0
  4 57  1  0  0  0  0
  4 58  1  0  0  0  0
  5 29  1  0  0  0  0
  5 30  1  0  0  0  0
  6  8  1  0  0  0  0
  6 59  1  0  0  0  0
  6 60  1  0  0  0  0
  7 32  1  0  0  0  0
  8 10  1  0  0  0  0
  8 61  1  0  0  0  0
  8 62  1  0  0  0  0
 10 12  1  0  0  0  0
 10 63  1  0  0  0  0
 10 64  1  0  0  0  0
 11 65  1  0  0  0  0
 12 14  1  0  0  0  0
 12 66  1  0  0  0  0
 12 67  1  0  0  0  0
 13 33  1  0  0  0  0
 14 16  1  0  0  0  0
 14 68  1  0  0  0  0
 14 69  1  0  0  0  0
 15 35  1  0  0  0  0
 15 70  1  0  0  0  0
 16 18  1  0  0  0  0
 16 71  1  0  0  0  0
 16 72  1  0  0  0  0
 17 34  1  0  0  0  0
 17 73  1  0  0  0  0
 18 20  1  0  0  0  0
 18 74  1  0  0  0  0
 18 75  1  0  0  0  0
 19 31  1  0  0  0  0
 19 36  1  0  0  0  0
 20 22  1  0  0  0  0
 20 76  1  0  0  0  0
 20 77  1  0  0  0  0
 21 36  2  0  0  0  0
 22 23  1  0  0  0  0
 22 78  1  0  0  0  0
 22 79  1  0  0  0  0
 23 24  1  0  0  0  0
 23 80  1  0  0  0  0
 23 81  1  0  0  0  0
 24 25  1  0  0  0  0
 24 82  1  0  0  0  0
 24 83  1  0  0  0  0
 25 26  1  0  0  0  0
 25 84  1  0  0  0  0
 25 85  1  0  0  0  0
 26 27  1  0  0  0  0
 26 86  1  0  0  0  0
 26 87  1  0  0  0  0
 27 28  1  0  0  0  0
 27 88  1  0  0  0  0
 27 89  1  0  0  0  0
 28 29  1  0  0  0  0
 28 90  1  0  0  0  0
 28 91  1  0  0  0  0
 30 31  1  0  0  0  0
 30 92  1  0  0  0  0
 30 93  1  0  0  0  0
 31 32  1  0  0  0  0
 31 94  1  6  0  0  0
 32 95  1  0  0  0  0
 32 96  1  0  0  0  0
 33 34  1  0  0  0  0
 33 97  1  0  0  0  0
 33 98  1  0  0  0  0
 34 35  1  0  0  0  0
 34 99  1  1  0  0  0
 35100  1  0  0  0  0
 35101  1  0  0  0  0
 36 37  1  0  0  0  0
 37 38  1  0  0  0  0
 37102  1  0  0  0  0
 37103  1  0  0  0  0
 38 39  1  0  0  0  0
 38104  1  0  0  0  0
 38105  1  0  0  0  0
 39 40  1  0  0  0  0
 39106  1  0  0  0  0
 39107  1  0  0  0  0
 40 41  1  0  0  0  0
 40108  1  0  0  0  0
 40109  1  0  0  0  0
 41 42  1  0  0  0  0
 41110  1  0  0  0  0
 41111  1  0  0  0  0
 42 43  1  0  0  0  0
 42112  1  0  0  0  0
 42113  1  0  0  0  0
 43 44  1  0  0  0  0
 43114  1  0  0  0  0
 43115  1  0  0  0  0
 44 45  2  0  0  0  0
 44116  1  0  0  0  0
 45 46  1  0  0  0  0
 45117  1  0  0  0  0
 46 47  1  0  0  0  0
 46118  1  0  0  0  0
 46119  1  0  0  0  0
 47 48  1  0  0  0  0
 47120  1  0  0  0  0
 47121  1  0  0  0  0
 48 49  1  0  0  0  0
 48122  1  0  0  0  0
 48123  1  0  0  0  0
 49 50  1  0  0  0  0
 49124  1  0  0  0  0
 49125  1  0  0  0  0
 50 51  1  0  0  0  0
 50126  1  0  0  0  0
 50127  1  0  0  0  0
 51 52  1  0  0  0  0
 51128  1  0  0  0  0
 51129  1  0  0  0  0
 52 53  1  0  0  0  0
 52130  1  0  0  0  0
 52131  1  0  0  0  0
 53132  1  0  0  0  0
 53133  1  0  0  0  0
 53134  1  0  0  0  0
M  CHG  1   9  -1
M  END
$$$$