/media/chris/experiments/cd1a-new-docking/inputs/ligands/7sh4_ligand.pdb
 OpenBabel07012320073D

134133  0  0  1  0  0  0  0  0999 V2000
  -44.9690   58.3405   70.9559 C   0  0  0  0  0  0  0  0  0  0  0  0
  -39.1377   58.0331   64.9968 O   0  0  0  0  0  0  0  0  0  0  0  0
  -34.0491   60.2433   66.3537 P   0  0  1  0  0  0  0  0  0  0  0  0
  -45.4123   57.0583   71.6231 C   0  0  0  0  0  0  0  0  0  0  0  0
  -38.3690   58.5038   62.9506 O   0  0  0  0  0  0  0  0  0  0  0  0
  -46.2372   56.1813   70.7003 C   0  0  0  0  0  0  0  0  0  0  0  0
  -35.4212   59.8922   65.6081 O   0  0  0  0  0  0  0  0  0  0  0  0
  -45.5170   55.7279   69.4430 C   0  0  0  0  0  0  0  0  0  0  0  0
  -33.2993   58.9839   66.5499 O   0  5  0  0  0  0  0  0  0  0  0  0
  -45.0381   56.8772   68.5671 C   0  0  0  0  0  0  0  0  0  0  0  0
  -33.3962   61.3541   65.6199 O   0  0  0  0  0  0  0  0  0  0  0  0
  -44.3342   56.4255   67.3038 C   0  0  0  0  0  0  0  0  0  0  0  0
  -34.4765   60.7892   67.7897 O   0  0  0  0  0  0  0  0  0  0  0  0
  -45.2109   55.5892   66.3916 C   0  0  0  0  0  0  0  0  0  0  0  0
  -34.9123   61.2233   71.9627 O   0  0  0  0  0  0  0  0  0  0  0  0
  -44.5099   55.1135   65.1242 C   0  0  0  0  0  0  0  0  0  0  0  0
  -35.6114   62.5888   69.5805 O   0  0  0  0  0  0  0  0  0  0  0  0
  -45.3930   54.2930   64.2076 C   0  0  0  0  0  0  0  0  0  0  0  0
  -38.2720   59.8520   65.2990 O   0  0  0  0  0  0  0  0  0  0  0  0
  -44.6969   53.8030   62.9540 C   0  0  0  0  0  0  0  0  0  0  0  0
  -36.8606   59.5894   67.0308 O   0  0  0  0  0  0  0  0  0  0  0  0
  -43.5158   52.9069   63.2539 C   0  0  0  0  0  0  0  0  0  0  0  0
  -42.8025   52.4247   62.0184 C   0  0  0  0  0  0  0  0  0  0  0  0
  -42.2369   53.5501   61.1870 C   0  0  0  0  0  0  0  0  0  0  0  0
  -41.2155   54.3862   61.9310 C   0  0  0  0  0  0  0  0  0  0  0  0
  -40.6633   55.5229   61.1011 C   0  0  0  0  0  0  0  0  0  0  0  0
  -39.6272   56.3655   61.8146 C   0  0  0  0  0  0  0  0  0  0  0  0
  -40.1623   57.0052   63.0846 C   0  0  0  0  0  0  0  0  0  0  0  0
  -39.1632   57.8617   63.8078 C   0  0  0  0  0  0  0  0  0  0  0  0
  -37.0720   58.9080   63.4380 C   0  0  0  0  0  0  0  0  0  0  0  0
  -37.3490   60.1700   64.2050 C   0  0  2  0  0  0  0  0  0  0  0  0
  -36.0840   60.8130   64.7130 C   0  0  0  0  0  0  0  0  0  0  0  0
  -33.6574   61.7669   68.4630 C   0  0  0  0  0  0  0  0  0  0  0  0
  -34.2910   62.0817   69.7958 C   0  0  2  0  0  0  0  0  0  0  0  0
  -34.3368   60.8799   70.7087 C   0  0  0  0  0  0  0  0  0  0  0  0
  -37.8399   60.0926   66.5518 C   0  0  0  0  0  0  0  0  0  0  0  0
  -38.7148   61.0747   67.2675 C   0  0  0  0  0  0  0  0  0  0  0  0
  -38.7725   62.4104   66.5332 C   0  0  0  0  0  0  0  0  0  0  0  0
  -39.6339   63.4559   67.2224 C   0  0  0  0  0  0  0  0  0  0  0  0
  -41.0863   63.0284   67.4001 C   0  0  0  0  0  0  0  0  0  0  0  0
  -41.8003   62.7135   66.0987 C   0  0  0  0  0  0  0  0  0  0  0  0
  -43.2656   62.2990   66.2606 C   0  0  0  0  0  0  0  0  0  0  0  0
  -43.4999   61.0572   67.1235 C   0  0  0  0  0  0  0  0  0  0  0  0
  -43.0063   61.2433   68.5270 C   0  0  0  0  0  0  0  0  0  0  0  0
  -43.7260   61.1762   69.6301 C   0  0  0  0  0  0  0  0  0  0  0  0
  -45.1936   60.8972   69.7110 C   0  0  0  0  0  0  0  0  0  0  0  0
  -46.0322   62.1711   69.6604 C   0  0  0  0  0  0  0  0  0  0  0  0
  -45.8504   62.9701   68.3819 C   0  0  0  0  0  0  0  0  0  0  0  0
  -46.6721   64.2469   68.3386 C   0  0  0  0  0  0  0  0  0  0  0  0
  -48.1720   64.0348   68.4607 C   0  0  0  0  0  0  0  0  0  0  0  0
  -48.5856   63.3721   69.7659 C   0  0  0  0  0  0  0  0  0  0  0  0
  -48.2182   64.1604   71.0075 C   0  0  0  0  0  0  0  0  0  0  0  0
  -48.8656   65.5164   71.0481 C   0  0  0  0  0  0  0  0  0  0  0  0
  -44.3930   58.9210   71.6460 H   0  0  0  0  0  0  0  0  0  0  0  0
  -45.8288   58.8994   70.6505 H   0  0  0  0  0  0  0  0  0  0  0  0
  -44.3714   58.1087   70.0992 H   0  0  0  0  0  0  0  0  0  0  0  0
  -46.0018   57.3037   72.4817 H   0  0  0  0  0  0  0  0  0  0  0  0
  -44.5337   56.5109   71.8941 H   0  0  0  0  0  0  0  0  0  0  0  0
  -47.1062   56.7320   70.4062 H   0  0  0  0  0  0  0  0  0  0  0  0
  -46.4673   55.2943   71.2528 H   0  0  0  0  0  0  0  0  0  0  0  0
  -46.1867   55.1218   68.8694 H   0  0  0  0  0  0  0  0  0  0  0  0
  -44.6475   55.1888   69.7565 H   0  0  0  0  0  0  0  0  0  0  0  0
  -44.3588   57.4763   69.1368 H   0  0  0  0  0  0  0  0  0  0  0  0
  -45.9068   57.4232   68.2637 H   0  0  0  0  0  0  0  0  0  0  0  0
  -33.1263   61.0462   64.7406 H   0  0  0  0  0  0  0  0  0  0  0  0
  -43.4805   55.8431   67.5810 H   0  0  0  0  0  0  0  0  0  0  0  0
  -44.0637   57.3069   66.7608 H   0  0  0  0  0  0  0  0  0  0  0  0
  -46.0582   56.1775   66.1070 H   0  0  0  0  0  0  0  0  0  0  0  0
  -45.4841   54.7133   66.9420 H   0  0  0  0  0  0  0  0  0  0  0  0
  -34.9331   60.4399   72.5343 H   0  0  0  0  0  0  0  0  0  0  0  0
  -43.6698   54.5147   65.4080 H   0  0  0  0  0  0  0  0  0  0  0  0
  -44.2238   55.9889   64.5794 H   0  0  0  0  0  0  0  0  0  0  0  0
  -35.5700   63.3597   68.9933 H   0  0  0  0  0  0  0  0  0  0  0  0
  -46.2265   54.8968   63.9150 H   0  0  0  0  0  0  0  0  0  0  0  0
  -45.6858   53.4235   64.7581 H   0  0  0  0  0  0  0  0  0  0  0  0
  -44.3513   54.6511   62.4007 H   0  0  0  0  0  0  0  0  0  0  0  0
  -45.4052   53.2276   62.3953 H   0  0  0  0  0  0  0  0  0  0  0  0
  -43.8660   52.0546   63.7978 H   0  0  0  0  0  0  0  0  0  0  0  0
  -42.8147   53.4861   63.8177 H   0  0  0  0  0  0  0  0  0  0  0  0
  -43.4953   51.8724   61.4185 H   0  0  0  0  0  0  0  0  0  0  0  0
  -41.9806   51.8193   62.3391 H   0  0  0  0  0  0  0  0  0  0  0  0
  -43.0417   54.1866   60.8837 H   0  0  0  0  0  0  0  0  0  0  0  0
  -41.7375   53.1077   60.3504 H   0  0  0  0  0  0  0  0  0  0  0  0
  -40.4044   53.7526   62.2235 H   0  0  0  0  0  0  0  0  0  0  0  0
  -41.7103   54.8183   62.7756 H   0  0  0  0  0  0  0  0  0  0  0  0
  -41.4766   56.1586   60.8192 H   0  0  0  0  0  0  0  0  0  0  0  0
  -40.1730   55.0797   60.2597 H   0  0  0  0  0  0  0  0  0  0  0  0
  -39.3015   57.1403   61.1525 H   0  0  0  0  0  0  0  0  0  0  0  0
  -38.8223   55.7182   62.0941 H   0  0  0  0  0  0  0  0  0  0  0  0
  -40.4779   56.2257   63.7462 H   0  0  0  0  0  0  0  0  0  0  0  0
  -40.9652   57.6487   62.7912 H   0  0  0  0  0  0  0  0  0  0  0  0
  -36.4020   59.0962   62.6252 H   0  0  0  0  0  0  0  0  0  0  0  0
  -36.6048   58.1555   64.0382 H   0  0  0  0  0  0  0  0  0  0  0  0
  -37.7985   60.8886   63.5519 H   0  0  0  0  0  0  0  0  0  0  0  0
  -35.4401   61.0403   63.8892 H   0  0  0  0  0  0  0  0  0  0  0  0
  -36.3193   61.7188   65.2317 H   0  0  0  0  0  0  0  0  0  0  0  0
  -33.5975   62.6569   67.8720 H   0  0  0  0  0  0  0  0  0  0  0  0
  -32.6693   61.3825   68.6070 H   0  0  0  0  0  0  0  0  0  0  0  0
  -33.6866   62.8186   70.2822 H   0  0  0  0  0  0  0  0  0  0  0  0
  -34.9253   60.1128   70.2504 H   0  0  0  0  0  0  0  0  0  0  0  0
  -33.3377   60.5335   70.8720 H   0  0  0  0  0  0  0  0  0  0  0  0
  -38.3252   61.2351   68.2511 H   0  0  0  0  0  0  0  0  0  0  0  0
  -39.7053   60.6724   67.3111 H   0  0  0  0  0  0  0  0  0  0  0  0
  -39.1688   62.2397   65.5541 H   0  0  0  0  0  0  0  0  0  0  0  0
  -37.7746   62.7959   66.5113 H   0  0  0  0  0  0  0  0  0  0  0  0
  -39.6138   64.3508   66.6362 H   0  0  0  0  0  0  0  0  0  0  0  0
  -39.2275   63.6018   68.2014 H   0  0  0  0  0  0  0  0  0  0  0  0
  -41.6129   63.8209   67.8896 H   0  0  0  0  0  0  0  0  0  0  0  0
  -41.0754   62.1253   67.9737 H   0  0  0  0  0  0  0  0  0  0  0  0
  -41.2783   61.9136   65.6166 H   0  0  0  0  0  0  0  0  0  0  0  0
  -41.8021   63.6179   65.5269 H   0  0  0  0  0  0  0  0  0  0  0  0
  -43.6643   62.1054   65.2867 H   0  0  0  0  0  0  0  0  0  0  0  0
  -43.7488   63.1081   66.7672 H   0  0  0  0  0  0  0  0  0  0  0  0
  -42.9844   60.2292   66.6835 H   0  0  0  0  0  0  0  0  0  0  0  0
  -44.5543   60.8803   67.1662 H   0  0  0  0  0  0  0  0  0  0  0  0
  -42.0006   61.4443   68.6415 H   0  0  0  0  0  0  0  0  0  0  0  0
  -43.2299   61.3308   70.5218 H   0  0  0  0  0  0  0  0  0  0  0  0
  -45.3965   60.3887   70.6303 H   0  0  0  0  0  0  0  0  0  0  0  0
  -45.4588   60.2986   68.8646 H   0  0  0  0  0  0  0  0  0  0  0  0
  -45.7563   62.7904   70.4882 H   0  0  0  0  0  0  0  0  0  0  0  0
  -47.0588   61.8719   69.6993 H   0  0  0  0  0  0  0  0  0  0  0  0
  -46.1380   62.3549   67.5550 H   0  0  0  0  0  0  0  0  0  0  0  0
  -44.8210   63.2587   68.3368 H   0  0  0  0  0  0  0  0  0  0  0  0
  -46.4786   64.7376   67.4076 H   0  0  0  0  0  0  0  0  0  0  0  0
  -46.3767   64.8282   69.1869 H   0  0  0  0  0  0  0  0  0  0  0  0
  -48.4939   63.4158   67.6495 H   0  0  0  0  0  0  0  0  0  0  0  0
  -48.6298   65.0016   68.4391 H   0  0  0  0  0  0  0  0  0  0  0  0
  -48.1088   62.4159   69.8224 H   0  0  0  0  0  0  0  0  0  0  0  0
  -49.6532   63.3032   69.7505 H   0  0  0  0  0  0  0  0  0  0  0  0
  -47.1560   64.2876   71.0300 H   0  0  0  0  0  0  0  0  0  0  0  0
  -48.5695   63.6096   71.8549 H   0  0  0  0  0  0  0  0  0  0  0  0
  -48.5345   66.0949   70.2111 H   0  0  0  0  0  0  0  0  0  0  0  0
  -48.5943   66.0142   71.9555 H   0  0  0  0  0  0  0  0  0  0  0  0
  -49.9290   65.4053   71.0065 H   0  0  0  0  0  0  0  0  0  0  0  0
  1  4  1  0  0  0  0
  1 54  1  0  0  0  0
  1 55  1  0  0  0  0
  1 56  1  0  0  0  0
  2 29  2  0  0  0  0
  3  7  1  0  0  0  0
  3  9  2  1  0  0  0
  3 11  1  0  0  0  0
  3 13  1  0  0  0  0
  4  6  1  0  0  0  0
  4 57  1  0  0  0  0
  4 58  1  0  0  0  0
  5 29  1  0  0  0  0
  5 30  1  0  0  0  0
  6  8  1  0  0  0  0
  6 59  1  0  0  0  0
  6 60  1  0  0  0  0
  7 32  1  0  0  0  0
  8 10  1  0  0  0  0
  8 61  1  0  0  0  0
  8 62  1  0  0  0  0
 10 12  1  0  0  0  0
 10 63  1  0  0  0  0
 10 64  1  0  0  0  0
 11 65  1  0  0  0  0
 12 14  1  0  0  0  0
 12 66  1  0  0  0  0
 12 67  1  0  0  0  0
 13 33  1  0  0  0  0
 14 16  1  0  0  0  0
 14 68  1  0  0  0  0
 14 69  1  0  0  0  0
 15 35  1  0  0  0  0
 15 70  1  0  0  0  0
 16 18  1  0  0  0  0
 16 71  1  0  0  0  0
 16 72  1  0  0  0  0
 17 34  1  0  0  0  0
 17 73  1  0  0  0  0
 18 20  1  0  0  0  0
 18 74  1  0  0  0  0
 18 75  1  0  0  0  0
 19 31  1  0  0  0  0
 19 36  1  0  0  0  0
 20 22  1  0  0  0  0
 20 76  1  0  0  0  0
 20 77  1  0  0  0  0
 21 36  2  0  0  0  0
 22 23  1  0  0  0  0
 22 78  1  0  0  0  0
 22 79  1  0  0  0  0
 23 24  1  0  0  0  0
 23 80  1  0  0  0  0
 23 81  1  0  0  0  0
 24 25  1  0  0  0  0
 24 82  1  0  0  0  0
 24 83  1  0  0  0  0
 25 26  1  0  0  0  0
 25 84  1  0  0  0  0
 25 85  1  0  0  0  0
 26 27  1  0  0  0  0
 26 86  1  0  0  0  0
 26 87  1  0  0  0  0
 27 28  1  0  0  0  0
 27 88  1  0  0  0  0
 27 89  1  0  0  0  0
 28 29  1  0  0  0  0
 28 90  1  0  0  0  0
 28 91  1  0  0  0  0
 30 31  1  0  0  0  0
 30 92  1  0  0  0  0
 30 93  1  0  0  0  0
 31 32  1  0  0  0  0
 31 94  1  6  0  0  0
 32 95  1  0  0  0  0
 32 96  1  0  0  0  0
 33 34  1  0  0  0  0
 33 97  1  0  0  0  0
 33 98  1  0  0  0  0
 34 35  1  0  0  0  0
 34 99  1  1  0  0  0
 35100  1  0  0  0  0
 35101  1  0  0  0  0
 36 37  1  0  0  0  0
 37 38  1  0  0  0  0
 37102  1  0  0  0  0
 37103  1  0  0  0  0
 38 39  1  0  0  0  0
 38104  1  0  0  0  0
 38105  1  0  0  0  0
 39 40  1  0  0  0  0
 39106  1  0  0  0  0
 39107  1  0  0  0  0
 40 41  1  0  0  0  0
 40108  1  0  0  0  0
 40109  1  0  0  0  0
 41 42  1  0  0  0  0
 41110  1  0  0  0  0
 41111  1  0  0  0  0
 42 43  1  0  0  0  0
 42112  1  0  0  0  0
 42113  1  0  0  0  0
 43 44  1  0  0  0  0
 43114  1  0  0  0  0
 43115  1  0  0  0  0
 44 45  2  0  0  0  0
 44116  1  0  0  0  0
 45 46  1  0  0  0  0
 45117  1  0  0  0  0
 46 47  1  0  0  0  0
 46118  1  0  0  0  0
 46119  1  0  0  0  0
 47 48  1  0  0  0  0
 47120  1  0  0  0  0
 47121  1  0  0  0  0
 48 49  1  0  0  0  0
 48122  1  0  0  0  0
 48123  1  0  0  0  0
 49 50  1  0  0  0  0
 49124  1  0  0  0  0
 49125  1  0  0  0  0
 50 51  1  0  0  0  0
 50126  1  0  0  0  0
 50127  1  0  0  0  0
 51 52  1  0  0  0  0
 51128  1  0  0  0  0
 51129  1  0  0  0  0
 52 53  1  0  0  0  0
 52130  1  0  0  0  0
 52131  1  0  0  0  0
 53132  1  0  0  0  0
 53133  1  0  0  0  0
 53134  1  0  0  0  0
M  CHG  1   9  -1
M  END
$$$$