/media/chris/experiments/cd1a-new-docking/inputs/ligands/7sh4_ligand.pdb
 OpenBabel07012320073D

134133  0  0  1  0  0  0  0  0999 V2000
  -45.1998   55.8101   68.9126 C   0  0  0  0  0  0  0  0  0  0  0  0
  -37.9049   59.0864   60.8424 O   0  0  0  0  0  0  0  0  0  0  0  0
  -34.6970   59.9912   62.5780 P   0  0  1  0  0  0  0  0  0  0  0  0
  -45.6398   55.7619   67.4670 C   0  0  0  0  0  0  0  0  0  0  0  0
  -38.3690   58.5038   62.9506 O   0  0  0  0  0  0  0  0  0  0  0  0
  -46.5043   56.9486   67.0856 C   0  0  0  0  0  0  0  0  0  0  0  0
  -35.2304   61.1139   63.5864 O   0  0  0  0  0  0  0  0  0  0  0  0
  -46.9903   56.9444   65.6472 C   0  0  0  0  0  0  0  0  0  0  0  0
  -34.5796   58.7215   63.3270 O   0  5  0  0  0  0  0  0  0  0  0  0
  -47.8408   58.1548   65.2879 C   0  0  0  0  0  0  0  0  0  0  0  0
  -35.5431   60.0245   61.3608 O   0  0  0  0  0  0  0  0  0  0  0  0
  -48.3403   58.1431   63.8577 C   0  0  0  0  0  0  0  0  0  0  0  0
  -33.2283   60.4562   62.1666 O   0  0  0  0  0  0  0  0  0  0  0  0
  -47.2253   58.1066   62.8303 C   0  0  0  0  0  0  0  0  0  0  0  0
  -29.0475   60.5617   61.6167 O   0  0  0  0  0  0  0  0  0  0  0  0
  -47.7134   58.1116   61.3860 C   0  0  0  0  0  0  0  0  0  0  0  0
  -31.3377   62.0880   60.9433 O   0  0  0  0  0  0  0  0  0  0  0  0
  -46.5982   58.0581   60.3630 C   0  0  0  0  0  0  0  0  0  0  0  0
  -38.2720   59.8520   65.2990 O   0  0  0  0  0  0  0  0  0  0  0  0
  -45.6192   59.2111   60.4545 C   0  0  0  0  0  0  0  0  0  0  0  0
  -40.0171   59.9196   63.8811 O   0  0  0  0  0  0  0  0  0  0  0  0
  -44.5289   59.1362   59.4087 C   0  0  0  0  0  0  0  0  0  0  0  0
  -43.5376   60.2664   59.4968 C   0  0  0  0  0  0  0  0  0  0  0  0
  -42.4635   60.1925   58.4393 C   0  0  0  0  0  0  0  0  0  0  0  0
  -41.6523   58.9142   58.5014 C   0  0  0  0  0  0  0  0  0  0  0  0
  -40.9506   58.7222   59.8268 C   0  0  0  0  0  0  0  0  0  0  0  0
  -40.1183   57.4601   59.9108 C   0  0  0  0  0  0  0  0  0  0  0  0
  -39.4418   57.2903   61.2605 C   0  0  0  0  0  0  0  0  0  0  0  0
  -38.5165   58.4143   61.6284 C   0  0  0  0  0  0  0  0  0  0  0  0
  -37.0720   58.9080   63.4380 C   0  0  0  0  0  0  0  0  0  0  0  0
  -37.3490   60.1700   64.2050 C   0  0  2  0  0  0  0  0  0  0  0  0
  -36.0840   60.8130   64.7130 C   0  0  0  0  0  0  0  0  0  0  0  0
  -32.7027   60.1199   60.8664 C   0  0  0  0  0  0  0  0  0  0  0  0
  -31.3010   60.6692   60.7632 C   0  0  2  0  0  0  0  0  0  0  0  0
  -30.3622   60.0409   61.7650 C   0  0  0  0  0  0  0  0  0  0  0  0
  -39.5790   59.7587   64.9875 C   0  0  0  0  0  0  0  0  0  0  0  0
  -40.4161   59.4128   66.1798 C   0  0  0  0  0  0  0  0  0  0  0  0
  -41.8178   60.0040   66.0691 C   0  0  0  0  0  0  0  0  0  0  0  0
  -41.8399   61.5189   65.9476 C   0  0  0  0  0  0  0  0  0  0  0  0
  -43.2450   62.1027   65.8546 C   0  0  0  0  0  0  0  0  0  0  0  0
  -43.2775   63.6134   65.7160 C   0  0  0  0  0  0  0  0  0  0  0  0
  -44.6833   64.2156   65.6385 C   0  0  0  0  0  0  0  0  0  0  0  0
  -45.5426   63.7167   64.4748 C   0  0  0  0  0  0  0  0  0  0  0  0
  -44.9113   63.9993   63.1446 C   0  0  0  0  0  0  0  0  0  0  0  0
  -45.0399   63.2839   62.0441 C   0  0  0  0  0  0  0  0  0  0  0  0
  -45.8491   62.0346   61.8930 C   0  0  0  0  0  0  0  0  0  0  0  0
  -46.9417   62.1727   60.8368 C   0  0  0  0  0  0  0  0  0  0  0  0
  -47.9321   63.2868   61.1265 C   0  0  0  0  0  0  0  0  0  0  0  0
  -47.2968   64.6647   61.1965 C   0  0  0  0  0  0  0  0  0  0  0  0
  -46.6108   65.1076   59.9148 C   0  0  0  0  0  0  0  0  0  0  0  0
  -47.5518   65.1937   58.7228 C   0  0  0  0  0  0  0  0  0  0  0  0
  -48.6885   66.1812   58.8977 C   0  0  0  0  0  0  0  0  0  0  0  0
  -48.2079   67.5904   59.1048 C   0  0  0  0  0  0  0  0  0  0  0  0
  -44.5952   54.9545   69.1302 H   0  0  0  0  0  0  0  0  0  0  0  0
  -46.0609   55.8092   69.5478 H   0  0  0  0  0  0  0  0  0  0  0  0
  -44.6318   56.7008   69.0830 H   0  0  0  0  0  0  0  0  0  0  0  0
  -46.1995   54.8639   67.3080 H   0  0  0  0  0  0  0  0  0  0  0  0
  -44.7609   55.7893   66.8574 H   0  0  0  0  0  0  0  0  0  0  0  0
  -45.9338   57.8402   67.2419 H   0  0  0  0  0  0  0  0  0  0  0  0
  -47.3788   56.8947   67.6998 H   0  0  0  0  0  0  0  0  0  0  0  0
  -47.5744   56.0618   65.4900 H   0  0  0  0  0  0  0  0  0  0  0  0
  -46.1221   56.9744   65.0225 H   0  0  0  0  0  0  0  0  0  0  0  0
  -47.2526   59.0366   65.4334 H   0  0  0  0  0  0  0  0  0  0  0  0
  -48.7030   58.1311   65.9212 H   0  0  0  0  0  0  0  0  0  0  0  0
  -36.4443   59.7449   61.5856 H   0  0  0  0  0  0  0  0  0  0  0  0
  -48.9229   59.0257   63.6947 H   0  0  0  0  0  0  0  0  0  0  0  0
  -48.9154   57.2496   63.7314 H   0  0  0  0  0  0  0  0  0  0  0  0
  -46.6509   57.2178   62.9883 H   0  0  0  0  0  0  0  0  0  0  0  0
  -46.6496   58.9983   62.9659 H   0  0  0  0  0  0  0  0  0  0  0  0
  -28.4601   60.1469   62.2677 H   0  0  0  0  0  0  0  0  0  0  0  0
  -48.2772   59.0064   61.2238 H   0  0  0  0  0  0  0  0  0  0  0  0
  -48.3008   57.2272   61.2529 H   0  0  0  0  0  0  0  0  0  0  0  0
  -31.9433   62.4807   60.2951 H   0  0  0  0  0  0  0  0  0  0  0  0
  -47.0367   58.0662   59.3870 H   0  0  0  0  0  0  0  0  0  0  0  0
  -46.0423   57.1650   60.5587 H   0  0  0  0  0  0  0  0  0  0  0  0
  -45.1655   59.1988   61.4234 H   0  0  0  0  0  0  0  0  0  0  0  0
  -46.1674   60.1144   60.2854 H   0  0  0  0  0  0  0  0  0  0  0  0
  -44.9848   59.1595   58.4410 H   0  0  0  0  0  0  0  0  0  0  0  0
  -43.9890   58.2283   59.5795 H   0  0  0  0  0  0  0  0  0  0  0  0
  -43.0711   60.2364   60.4593 H   0  0  0  0  0  0  0  0  0  0  0  0
  -44.0767   61.1777   59.3424 H   0  0  0  0  0  0  0  0  0  0  0  0
  -41.8009   61.0225   58.5688 H   0  0  0  0  0  0  0  0  0  0  0  0
  -42.9521   60.2133   57.4876 H   0  0  0  0  0  0  0  0  0  0  0  0
  -40.9151   58.9404   57.7263 H   0  0  0  0  0  0  0  0  0  0  0  0
  -42.3328   58.0976   58.3789 H   0  0  0  0  0  0  0  0  0  0  0  0
  -41.6923   58.6870   60.5972 H   0  0  0  0  0  0  0  0  0  0  0  0
  -40.2750   59.5443   59.9392 H   0  0  0  0  0  0  0  0  0  0  0  0
  -39.3643   57.4966   59.1525 H   0  0  0  0  0  0  0  0  0  0  0  0
  -40.7783   56.6290   59.7742 H   0  0  0  0  0  0  0  0  0  0  0  0
  -38.8762   56.3823   61.2410 H   0  0  0  0  0  0  0  0  0  0  0  0
  -40.2191   57.2775   61.9957 H   0  0  0  0  0  0  0  0  0  0  0  0
  -36.4020   59.0962   62.6252 H   0  0  0  0  0  0  0  0  0  0  0  0
  -36.6048   58.1555   64.0382 H   0  0  0  0  0  0  0  0  0  0  0  0
  -37.7985   60.8886   63.5519 H   0  0  0  0  0  0  0  0  0  0  0  0
  -36.3238   61.7163   65.2340 H   0  0  0  0  0  0  0  0  0  0  0  0
  -35.5811   60.1472   65.3829 H   0  0  0  0  0  0  0  0  0  0  0  0
  -33.3174   60.5526   60.1050 H   0  0  0  0  0  0  0  0  0  0  0  0
  -32.6920   59.0578   60.7374 H   0  0  0  0  0  0  0  0  0  0  0  0
  -30.9238   60.4294   59.7910 H   0  0  0  0  0  0  0  0  0  0  0  0
  -30.7131   60.2494   62.7541 H   0  0  0  0  0  0  0  0  0  0  0  0
  -30.3350   58.9847   61.5958 H   0  0  0  0  0  0  0  0  0  0  0  0
  -39.9445   59.7985   67.0594 H   0  0  0  0  0  0  0  0  0  0  0  0
  -40.5040   58.3476   66.2308 H   0  0  0  0  0  0  0  0  0  0  0  0
  -42.3698   59.7281   66.9432 H   0  0  0  0  0  0  0  0  0  0  0  0
  -42.2490   59.6143   65.1707 H   0  0  0  0  0  0  0  0  0  0  0  0
  -41.2995   61.7956   65.0665 H   0  0  0  0  0  0  0  0  0  0  0  0
  -41.3950   61.9118   66.8378 H   0  0  0  0  0  0  0  0  0  0  0  0
  -43.7802   61.8346   66.7415 H   0  0  0  0  0  0  0  0  0  0  0  0
  -43.6893   61.7008   64.9680 H   0  0  0  0  0  0  0  0  0  0  0  0
  -42.7512   63.8781   64.8228 H   0  0  0  0  0  0  0  0  0  0  0  0
  -42.8260   64.0093   66.6016 H   0  0  0  0  0  0  0  0  0  0  0  0
  -44.5841   65.2769   65.5454 H   0  0  0  0  0  0  0  0  0  0  0  0
  -45.1869   63.9101   66.5318 H   0  0  0  0  0  0  0  0  0  0  0  0
  -46.4944   64.2039   64.5153 H   0  0  0  0  0  0  0  0  0  0  0  0
  -45.6445   62.6560   64.5721 H   0  0  0  0  0  0  0  0  0  0  0  0
  -44.3151   64.8395   63.0839 H   0  0  0  0  0  0  0  0  0  0  0  0
  -44.5347   63.6173   61.2083 H   0  0  0  0  0  0  0  0  0  0  0  0
  -46.3067   61.8059   62.8328 H   0  0  0  0  0  0  0  0  0  0  0  0
  -45.1881   61.2542   61.5782 H   0  0  0  0  0  0  0  0  0  0  0  0
  -47.4785   61.2487   60.7831 H   0  0  0  0  0  0  0  0  0  0  0  0
  -46.4568   62.4167   59.9147 H   0  0  0  0  0  0  0  0  0  0  0  0
  -48.4037   63.0840   62.0653 H   0  0  0  0  0  0  0  0  0  0  0  0
  -48.6295   63.3045   60.3152 H   0  0  0  0  0  0  0  0  0  0  0  0
  -46.5684   64.6576   61.9802 H   0  0  0  0  0  0  0  0  0  0  0  0
  -48.0924   65.3584   61.3715 H   0  0  0  0  0  0  0  0  0  0  0  0
  -45.8362   64.4060   59.6851 H   0  0  0  0  0  0  0  0  0  0  0  0
  -46.2281   66.0921   60.0860 H   0  0  0  0  0  0  0  0  0  0  0  0
  -47.9725   64.2240   58.5569 H   0  0  0  0  0  0  0  0  0  0  0  0
  -46.9685   65.5401   57.8954 H   0  0  0  0  0  0  0  0  0  0  0  0
  -49.2677   65.8888   59.7485 H   0  0  0  0  0  0  0  0  0  0  0  0
  -49.2691   66.1672   57.9991 H   0  0  0  0  0  0  0  0  0  0  0  0
  -47.6217   67.6395   59.9986 H   0  0  0  0  0  0  0  0  0  0  0  0
  -49.0496   68.2448   59.1939 H   0  0  0  0  0  0  0  0  0  0  0  0
  -47.6101   67.8897   58.2693 H   0  0  0  0  0  0  0  0  0  0  0  0
  1  4  1  0  0  0  0
  1 54  1  0  0  0  0
  1 55  1  0  0  0  0
  1 56  1  0  0  0  0
  2 29  2  0  0  0  0
  3  7  1  0  0  0  0
  3  9  2  1  0  0  0
  3 11  1  0  0  0  0
  3 13  1  0  0  0  0
  4  6  1  0  0  0  0
  4 57  1  0  0  0  0
  4 58  1  0  0  0  0
  5 29  1  0  0  0  0
  5 30  1  0  0  0  0
  6  8  1  0  0  0  0
  6 59  1  0  0  0  0
  6 60  1  0  0  0  0
  7 32  1  0  0  0  0
  8 10  1  0  0  0  0
  8 61  1  0  0  0  0
  8 62  1  0  0  0  0
 10 12  1  0  0  0  0
 10 63  1  0  0  0  0
 10 64  1  0  0  0  0
 11 65  1  0  0  0  0
 12 14  1  0  0  0  0
 12 66  1  0  0  0  0
 12 67  1  0  0  0  0
 13 33  1  0  0  0  0
 14 16  1  0  0  0  0
 14 68  1  0  0  0  0
 14 69  1  0  0  0  0
 15 35  1  0  0  0  0
 15 70  1  0  0  0  0
 16 18  1  0  0  0  0
 16 71  1  0  0  0  0
 16 72  1  0  0  0  0
 17 34  1  0  0  0  0
 17 73  1  0  0  0  0
 18 20  1  0  0  0  0
 18 74  1  0  0  0  0
 18 75  1  0  0  0  0
 19 31  1  0  0  0  0
 19 36  1  0  0  0  0
 20 22  1  0  0  0  0
 20 76  1  0  0  0  0
 20 77  1  0  0  0  0
 21 36  2  0  0  0  0
 22 23  1  0  0  0  0
 22 78  1  0  0  0  0
 22 79  1  0  0  0  0
 23 24  1  0  0  0  0
 23 80  1  0  0  0  0
 23 81  1  0  0  0  0
 24 25  1  0  0  0  0
 24 82  1  0  0  0  0
 24 83  1  0  0  0  0
 25 26  1  0  0  0  0
 25 84  1  0  0  0  0
 25 85  1  0  0  0  0
 26 27  1  0  0  0  0
 26 86  1  0  0  0  0
 26 87  1  0  0  0  0
 27 28  1  0  0  0  0
 27 88  1  0  0  0  0
 27 89  1  0  0  0  0
 28 29  1  0  0  0  0
 28 90  1  0  0  0  0
 28 91  1  0  0  0  0
 30 31  1  0  0  0  0
 30 92  1  0  0  0  0
 30 93  1  0  0  0  0
 31 32  1  0  0  0  0
 31 94  1  6  0  0  0
 32 95  1  0  0  0  0
 32 96  1  0  0  0  0
 33 34  1  0  0  0  0
 33 97  1  0  0  0  0
 33 98  1  0  0  0  0
 34 35  1  0  0  0  0
 34 99  1  6  0  0  0
 35100  1  0  0  0  0
 35101  1  0  0  0  0
 36 37  1  0  0  0  0
 37 38  1  0  0  0  0
 37102  1  0  0  0  0
 37103  1  0  0  0  0
 38 39  1  0  0  0  0
 38104  1  0  0  0  0
 38105  1  0  0  0  0
 39 40  1  0  0  0  0
 39106  1  0  0  0  0
 39107  1  0  0  0  0
 40 41  1  0  0  0  0
 40108  1  0  0  0  0
 40109  1  0  0  0  0
 41 42  1  0  0  0  0
 41110  1  0  0  0  0
 41111  1  0  0  0  0
 42 43  1  0  0  0  0
 42112  1  0  0  0  0
 42113  1  0  0  0  0
 43 44  1  0  0  0  0
 43114  1  0  0  0  0
 43115  1  0  0  0  0
 44 45  2  0  0  0  0
 44116  1  0  0  0  0
 45 46  1  0  0  0  0
 45117  1  0  0  0  0
 46 47  1  0  0  0  0
 46118  1  0  0  0  0
 46119  1  0  0  0  0
 47 48  1  0  0  0  0
 47120  1  0  0  0  0
 47121  1  0  0  0  0
 48 49  1  0  0  0  0
 48122  1  0  0  0  0
 48123  1  0  0  0  0
 49 50  1  0  0  0  0
 49124  1  0  0  0  0
 49125  1  0  0  0  0
 50 51  1  0  0  0  0
 50126  1  0  0  0  0
 50127  1  0  0  0  0
 51 52  1  0  0  0  0
 51128  1  0  0  0  0
 51129  1  0  0  0  0
 52 53  1  0  0  0  0
 52130  1  0  0  0  0
 52131  1  0  0  0  0
 53132  1  0  0  0  0
 53133  1  0  0  0  0
 53134  1  0  0  0  0
M  CHG  1   9  -1
M  END
$$$$