/media/chris/experiments/cd1a-new-docking/inputs/ligands/7sh4_ligand.pdb
 OpenBabel07012320073D

134133  0  0  1  0  0  0  0  0999 V2000
  -40.3099   61.1533   58.0961 C   0  0  0  0  0  0  0  0  0  0  0  0
  -37.6819   60.5663   61.3545 O   0  0  0  0  0  0  0  0  0  0  0  0
  -34.0491   60.2433   66.3537 P   0  0  1  0  0  0  0  0  0  0  0  0
  -41.2250   61.8460   59.0801 C   0  0  0  0  0  0  0  0  0  0  0  0
  -36.1511   59.3213   62.4064 O   0  0  0  0  0  0  0  0  0  0  0  0
  -42.0734   62.9191   58.4244 C   0  0  0  0  0  0  0  0  0  0  0  0
  -35.4212   59.8922   65.6081 O   0  0  0  0  0  0  0  0  0  0  0  0
  -41.2856   64.0274   57.7490 C   0  0  0  0  0  0  0  0  0  0  0  0
  -34.2885   60.1710   67.8112 O   0  5  0  0  0  0  0  0  0  0  0  0
  -40.3615   64.7817   58.6949 C   0  0  0  0  0  0  0  0  0  0  0  0
  -32.9766   59.4052   65.7656 O   0  0  0  0  0  0  0  0  0  0  0  0
  -39.5876   65.8988   58.0254 C   0  0  0  0  0  0  0  0  0  0  0  0
  -33.7429   61.7632   65.9812 O   0  0  0  0  0  0  0  0  0  0  0  0
  -38.7073   65.4232   56.8857 C   0  0  0  0  0  0  0  0  0  0  0  0
  -33.0168   65.9084   66.2684 O   0  0  0  0  0  0  0  0  0  0  0  0
  -37.9095   66.5349   56.2137 C   0  0  0  0  0  0  0  0  0  0  0  0
  -33.0696   63.8725   64.2985 O   0  0  0  0  0  0  0  0  0  0  0  0
  -37.0445   66.0592   55.0653 C   0  0  0  0  0  0  0  0  0  0  0  0
  -38.2720   59.8520   65.2990 O   0  0  0  0  0  0  0  0  0  0  0  0
  -36.0180   65.0151   55.4556 C   0  0  0  0  0  0  0  0  0  0  0  0
  -40.2187   60.6541   64.5071 O   0  0  0  0  0  0  0  0  0  0  0  0
  -36.6469   63.7564   56.0108 C   0  0  0  0  0  0  0  0  0  0  0  0
  -35.6391   62.7148   56.4194 C   0  0  0  0  0  0  0  0  0  0  0  0
  -34.7027   63.1930   57.5020 C   0  0  0  0  0  0  0  0  0  0  0  0
  -33.6759   62.1538   57.9043 C   0  0  0  0  0  0  0  0  0  0  0  0
  -34.2976   60.8762   58.4210 C   0  0  0  0  0  0  0  0  0  0  0  0
  -35.1827   61.0640   59.6351 C   0  0  0  0  0  0  0  0  0  0  0  0
  -35.7767   59.7589   60.1375 C   0  0  0  0  0  0  0  0  0  0  0  0
  -36.6737   59.9130   61.3318 C   0  0  0  0  0  0  0  0  0  0  0  0
  -37.0720   58.9080   63.4380 C   0  0  0  0  0  0  0  0  0  0  0  0
  -37.3490   60.1700   64.2050 C   0  0  2  0  0  0  0  0  0  0  0  0
  -36.0840   60.8130   64.7130 C   0  0  0  0  0  0  0  0  0  0  0  0
  -32.3791   62.2243   65.8952 C   0  0  0  0  0  0  0  0  0  0  0  0
  -32.3943   63.6925   65.5470 C   0  0  2  0  0  0  0  0  0  0  0  0
  -33.0485   64.5308   66.6189 C   0  0  0  0  0  0  0  0  0  0  0  0
  -39.5790   59.7587   64.9875 C   0  0  0  0  0  0  0  0  0  0  0  0
  -40.1328   58.4017   65.2941 C   0  0  0  0  0  0  0  0  0  0  0  0
  -39.3947   57.3102   64.5257 C   0  0  0  0  0  0  0  0  0  0  0  0
  -39.9244   55.9091   64.7837 C   0  0  0  0  0  0  0  0  0  0  0  0
  -39.8550   55.4910   66.2480 C   0  0  0  0  0  0  0  0  0  0  0  0
  -38.4527   55.5036   66.8274 C   0  0  0  0  0  0  0  0  0  0  0  0
  -38.3655   55.0693   68.2932 C   0  0  0  0  0  0  0  0  0  0  0  0
  -38.8449   53.6448   68.5804 C   0  0  0  0  0  0  0  0  0  0  0  0
  -38.0431   52.6185   67.8376 C   0  0  0  0  0  0  0  0  0  0  0  0
  -37.3328   51.6408   68.3658 C   0  0  0  0  0  0  0  0  0  0  0  0
  -37.1797   51.3499   69.8254 C   0  0  0  0  0  0  0  0  0  0  0  0
  -38.2422   50.3837   70.3411 C   0  0  0  0  0  0  0  0  0  0  0  0
  -38.2130   49.0261   69.6611 C   0  0  0  0  0  0  0  0  0  0  0  0
  -39.2814   48.0698   70.1623 C   0  0  0  0  0  0  0  0  0  0  0  0
  -39.2581   46.6995   69.5058 C   0  0  0  0  0  0  0  0  0  0  0  0
  -39.4440   46.7477   67.9968 C   0  0  0  0  0  0  0  0  0  0  0  0
  -39.4404   45.3884   67.3259 C   0  0  0  0  0  0  0  0  0  0  0  0
  -40.5453   44.4950   67.8164 C   0  0  0  0  0  0  0  0  0  0  0  0
  -39.7356   60.4086   58.6064 H   0  0  0  0  0  0  0  0  0  0  0  0
  -39.6509   61.8718   57.6552 H   0  0  0  0  0  0  0  0  0  0  0  0
  -40.8955   60.6892   57.3302 H   0  0  0  0  0  0  0  0  0  0  0  0
  -40.6283   62.2989   59.8441 H   0  0  0  0  0  0  0  0  0  0  0  0
  -41.8868   61.1090   59.4847 H   0  0  0  0  0  0  0  0  0  0  0  0
  -42.6918   63.3612   59.1774 H   0  0  0  0  0  0  0  0  0  0  0  0
  -42.6320   62.4324   57.6525 H   0  0  0  0  0  0  0  0  0  0  0  0
  -41.9778   64.7244   57.3249 H   0  0  0  0  0  0  0  0  0  0  0  0
  -40.6671   63.5660   57.0077 H   0  0  0  0  0  0  0  0  0  0  0  0
  -39.6616   64.0867   59.1095 H   0  0  0  0  0  0  0  0  0  0  0  0
  -40.9793   65.2330   59.4430 H   0  0  0  0  0  0  0  0  0  0  0  0
  -33.1408   58.4733   65.9789 H   0  0  0  0  0  0  0  0  0  0  0  0
  -38.9673   66.3690   58.7596 H   0  0  0  0  0  0  0  0  0  0  0  0
  -40.3052   66.5747   57.6092 H   0  0  0  0  0  0  0  0  0  0  0  0
  -39.3311   64.9633   56.1479 H   0  0  0  0  0  0  0  0  0  0  0  0
  -37.9968   64.7426   57.3062 H   0  0  0  0  0  0  0  0  0  0  0  0
  -33.4409   66.4298   66.9678 H   0  0  0  0  0  0  0  0  0  0  0  0
  -37.2762   66.9868   56.9482 H   0  0  0  0  0  0  0  0  0  0  0  0
  -38.6189   67.2236   55.8045 H   0  0  0  0  0  0  0  0  0  0  0  0
  -32.6412   63.3298   63.6181 H   0  0  0  0  0  0  0  0  0  0  0  0
  -36.5274   66.9044   54.6615 H   0  0  0  0  0  0  0  0  0  0  0  0
  -37.6995   65.5980   54.3559 H   0  0  0  0  0  0  0  0  0  0  0  0
  -35.3719   65.4318   56.1998 H   0  0  0  0  0  0  0  0  0  0  0  0
  -35.4803   64.7443   54.5710 H   0  0  0  0  0  0  0  0  0  0  0  0
  -37.2840   63.3362   55.2609 H   0  0  0  0  0  0  0  0  0  0  0  0
  -37.1879   64.0351   56.8910 H   0  0  0  0  0  0  0  0  0  0  0  0
  -35.0592   62.4463   55.5612 H   0  0  0  0  0  0  0  0  0  0  0  0
  -36.1821   61.8804   56.8115 H   0  0  0  0  0  0  0  0  0  0  0  0
  -35.2822   63.4500   58.3640 H   0  0  0  0  0  0  0  0  0  0  0  0
  -34.1683   64.0339   57.1119 H   0  0  0  0  0  0  0  0  0  0  0  0
  -33.0566   62.5666   58.6731 H   0  0  0  0  0  0  0  0  0  0  0  0
  -33.1138   61.9043   57.0287 H   0  0  0  0  0  0  0  0  0  0  0  0
  -33.5096   60.2008   58.6813 H   0  0  0  0  0  0  0  0  0  0  0  0
  -34.9238   60.5006   57.6389 H   0  0  0  0  0  0  0  0  0  0  0  0
  -35.9821   61.7264   59.3763 H   0  0  0  0  0  0  0  0  0  0  0  0
  -34.5740   61.4640   60.4189 H   0  0  0  0  0  0  0  0  0  0  0  0
  -34.9731   59.1042   60.4030 H   0  0  0  0  0  0  0  0  0  0  0  0
  -36.3819   59.3704   59.3452 H   0  0  0  0  0  0  0  0  0  0  0  0
  -36.6274   58.1683   64.0706 H   0  0  0  0  0  0  0  0  0  0  0  0
  -37.9610   58.4631   63.0423 H   0  0  0  0  0  0  0  0  0  0  0  0
  -37.7985   60.8886   63.5519 H   0  0  0  0  0  0  0  0  0  0  0  0
  -35.4401   61.0403   63.8892 H   0  0  0  0  0  0  0  0  0  0  0  0
  -36.3193   61.7188   65.2317 H   0  0  0  0  0  0  0  0  0  0  0  0
  -31.8600   61.6780   65.1357 H   0  0  0  0  0  0  0  0  0  0  0  0
  -31.8800   62.0731   66.8296 H   0  0  0  0  0  0  0  0  0  0  0  0
  -31.3797   64.0234   65.4698 H   0  0  0  0  0  0  0  0  0  0  0  0
  -34.0662   64.2212   66.7347 H   0  0  0  0  0  0  0  0  0  0  0  0
  -32.5131   64.3965   67.5355 H   0  0  0  0  0  0  0  0  0  0  0  0
  -41.1676   58.3790   65.0228 H   0  0  0  0  0  0  0  0  0  0  0  0
  -40.0095   58.2174   66.3409 H   0  0  0  0  0  0  0  0  0  0  0  0
  -38.3632   57.3377   64.8088 H   0  0  0  0  0  0  0  0  0  0  0  0
  -39.5407   57.5105   63.4848 H   0  0  0  0  0  0  0  0  0  0  0  0
  -39.3470   55.2175   64.2065 H   0  0  0  0  0  0  0  0  0  0  0  0
  -40.9576   55.9079   64.5054 H   0  0  0  0  0  0  0  0  0  0  0  0
  -40.2455   54.4985   66.3334 H   0  0  0  0  0  0  0  0  0  0  0  0
  -40.4254   56.2071   66.8018 H   0  0  0  0  0  0  0  0  0  0  0  0
  -38.0687   56.4994   66.7508 H   0  0  0  0  0  0  0  0  0  0  0  0
  -37.8857   54.7911   66.2654 H   0  0  0  0  0  0  0  0  0  0  0  0
  -38.9612   55.7423   68.8739 H   0  0  0  0  0  0  0  0  0  0  0  0
  -37.3264   55.0898   68.5477 H   0  0  0  0  0  0  0  0  0  0  0  0
  -39.8703   53.5602   68.2865 H   0  0  0  0  0  0  0  0  0  0  0  0
  -38.7243   53.4618   69.6277 H   0  0  0  0  0  0  0  0  0  0  0  0
  -38.0475   52.6837   66.8076 H   0  0  0  0  0  0  0  0  0  0  0  0
  -36.8355   51.0177   67.7105 H   0  0  0  0  0  0  0  0  0  0  0  0
  -37.2579   52.2684   70.3688 H   0  0  0  0  0  0  0  0  0  0  0  0
  -36.2242   50.8900   69.9677 H   0  0  0  0  0  0  0  0  0  0  0  0
  -39.2048   50.8220   70.1794 H   0  0  0  0  0  0  0  0  0  0  0  0
  -38.0383   50.2187   71.3784 H   0  0  0  0  0  0  0  0  0  0  0  0
  -37.2546   48.5825   69.8332 H   0  0  0  0  0  0  0  0  0  0  0  0
  -38.4046   49.1926   68.6216 H   0  0  0  0  0  0  0  0  0  0  0  0
  -40.2384   48.5120   69.9792 H   0  0  0  0  0  0  0  0  0  0  0  0
  -39.0856   47.9125   71.2024 H   0  0  0  0  0  0  0  0  0  0  0  0
  -40.0456   46.1091   69.9255 H   0  0  0  0  0  0  0  0  0  0  0  0
  -38.2924   46.2775   69.6911 H   0  0  0  0  0  0  0  0  0  0  0  0
  -38.6492   47.3299   67.5794 H   0  0  0  0  0  0  0  0  0  0  0  0
  -40.4088   47.1752   67.8197 H   0  0  0  0  0  0  0  0  0  0  0  0
  -38.5026   44.9123   67.5227 H   0  0  0  0  0  0  0  0  0  0  0  0
  -39.5933   45.5453   66.2786 H   0  0  0  0  0  0  0  0  0  0  0  0
  -40.4218   44.3175   68.8643 H   0  0  0  0  0  0  0  0  0  0  0  0
  -40.5110   43.5638   67.2905 H   0  0  0  0  0  0  0  0  0  0  0  0
  -41.4895   44.9676   67.6436 H   0  0  0  0  0  0  0  0  0  0  0  0
  1  4  1  0  0  0  0
  1 54  1  0  0  0  0
  1 55  1  0  0  0  0
  1 56  1  0  0  0  0
  2 29  2  0  0  0  0
  3  7  1  0  0  0  0
  3  9  2  1  0  0  0
  3 11  1  0  0  0  0
  3 13  1  0  0  0  0
  4  6  1  0  0  0  0
  4 57  1  0  0  0  0
  4 58  1  0  0  0  0
  5 29  1  0  0  0  0
  5 30  1  0  0  0  0
  6  8  1  0  0  0  0
  6 59  1  0  0  0  0
  6 60  1  0  0  0  0
  7 32  1  0  0  0  0
  8 10  1  0  0  0  0
  8 61  1  0  0  0  0
  8 62  1  0  0  0  0
 10 12  1  0  0  0  0
 10 63  1  0  0  0  0
 10 64  1  0  0  0  0
 11 65  1  0  0  0  0
 12 14  1  0  0  0  0
 12 66  1  0  0  0  0
 12 67  1  0  0  0  0
 13 33  1  0  0  0  0
 14 16  1  0  0  0  0
 14 68  1  0  0  0  0
 14 69  1  0  0  0  0
 15 35  1  0  0  0  0
 15 70  1  0  0  0  0
 16 18  1  0  0  0  0
 16 71  1  0  0  0  0
 16 72  1  0  0  0  0
 17 34  1  0  0  0  0
 17 73  1  0  0  0  0
 18 20  1  0  0  0  0
 18 74  1  0  0  0  0
 18 75  1  0  0  0  0
 19 31  1  0  0  0  0
 19 36  1  0  0  0  0
 20 22  1  0  0  0  0
 20 76  1  0  0  0  0
 20 77  1  0  0  0  0
 21 36  2  0  0  0  0
 22 23  1  0  0  0  0
 22 78  1  0  0  0  0
 22 79  1  0  0  0  0
 23 24  1  0  0  0  0
 23 80  1  0  0  0  0
 23 81  1  0  0  0  0
 24 25  1  0  0  0  0
 24 82  1  0  0  0  0
 24 83  1  0  0  0  0
 25 26  1  0  0  0  0
 25 84  1  0  0  0  0
 25 85  1  0  0  0  0
 26 27  1  0  0  0  0
 26 86  1  0  0  0  0
 26 87  1  0  0  0  0
 27 28  1  0  0  0  0
 27 88  1  0  0  0  0
 27 89  1  0  0  0  0
 28 29  1  0  0  0  0
 28 90  1  0  0  0  0
 28 91  1  0  0  0  0
 30 31  1  0  0  0  0
 30 92  1  0  0  0  0
 30 93  1  0  0  0  0
 31 32  1  0  0  0  0
 31 94  1  6  0  0  0
 32 95  1  0  0  0  0
 32 96  1  0  0  0  0
 33 34  1  0  0  0  0
 33 97  1  0  0  0  0
 33 98  1  0  0  0  0
 34 35  1  0  0  0  0
 34 99  1  6  0  0  0
 35100  1  0  0  0  0
 35101  1  0  0  0  0
 36 37  1  0  0  0  0
 37 38  1  0  0  0  0
 37102  1  0  0  0  0
 37103  1  0  0  0  0
 38 39  1  0  0  0  0
 38104  1  0  0  0  0
 38105  1  0  0  0  0
 39 40  1  0  0  0  0
 39106  1  0  0  0  0
 39107  1  0  0  0  0
 40 41  1  0  0  0  0
 40108  1  0  0  0  0
 40109  1  0  0  0  0
 41 42  1  0  0  0  0
 41110  1  0  0  0  0
 41111  1  0  0  0  0
 42 43  1  0  0  0  0
 42112  1  0  0  0  0
 42113  1  0  0  0  0
 43 44  1  0  0  0  0
 43114  1  0  0  0  0
 43115  1  0  0  0  0
 44 45  2  0  0  0  0
 44116  1  0  0  0  0
 45 46  1  0  0  0  0
 45117  1  0  0  0  0
 46 47  1  0  0  0  0
 46118  1  0  0  0  0
 46119  1  0  0  0  0
 47 48  1  0  0  0  0
 47120  1  0  0  0  0
 47121  1  0  0  0  0
 48 49  1  0  0  0  0
 48122  1  0  0  0  0
 48123  1  0  0  0  0
 49 50  1  0  0  0  0
 49124  1  0  0  0  0
 49125  1  0  0  0  0
 50 51  1  0  0  0  0
 50126  1  0  0  0  0
 50127  1  0  0  0  0
 51 52  1  0  0  0  0
 51128  1  0  0  0  0
 51129  1  0  0  0  0
 52 53  1  0  0  0  0
 52130  1  0  0  0  0
 52131  1  0  0  0  0
 53132  1  0  0  0  0
 53133  1  0  0  0  0
 53134  1  0  0  0  0
M  CHG  1   9  -1
M  END
$$$$