/media/chris/experiments/cd1a-new-docking/inputs/ligands/7sh4_ligand.pdb
 OpenBabel07012320073D

134133  0  0  1  0  0  0  0  0999 V2000
  -37.9448   50.2575   65.7293 C   0  0  0  0  0  0  0  0  0  0  0  0
  -38.8554   57.6102   64.9417 O   0  0  0  0  0  0  0  0  0  0  0  0
  -34.0491   60.2433   66.3537 P   0  0  1  0  0  0  0  0  0  0  0  0
  -38.1663   51.1200   64.5075 C   0  0  0  0  0  0  0  0  0  0  0  0
  -38.3690   58.5038   62.9506 O   0  0  0  0  0  0  0  0  0  0  0  0
  -39.5339   50.9045   63.8876 C   0  0  0  0  0  0  0  0  0  0  0  0
  -35.4212   59.8922   65.6081 O   0  0  0  0  0  0  0  0  0  0  0  0
  -40.7034   51.2282   64.8003 C   0  0  0  0  0  0  0  0  0  0  0  0
  -33.0291   60.5333   65.3231 O   0  5  0  0  0  0  0  0  0  0  0  0
  -40.7350   52.6795   65.2586 C   0  0  0  0  0  0  0  0  0  0  0  0
  -34.3335   61.2715   67.3836 O   0  0  0  0  0  0  0  0  0  0  0  0
  -40.8552   53.6731   64.1213 C   0  0  0  0  0  0  0  0  0  0  0  0
  -33.6214   58.9031   67.1045 O   0  0  0  0  0  0  0  0  0  0  0  0
  -42.1210   53.5028   63.3035 C   0  0  0  0  0  0  0  0  0  0  0  0
  -33.7955   60.2140   69.2276 O   0  0  0  0  0  0  0  0  0  0  0  0
  -43.4052   53.6859   64.1044 C   0  0  0  0  0  0  0  0  0  0  0  0
  -36.5351   57.7917   69.0009 O   0  0  0  0  0  0  0  0  0  0  0  0
  -44.6671   53.4985   63.2886 C   0  0  0  0  0  0  0  0  0  0  0  0
  -38.2720   59.8520   65.2990 O   0  0  0  0  0  0  0  0  0  0  0  0
  -44.7924   54.4500   62.1159 C   0  0  0  0  0  0  0  0  0  0  0  0
  -36.7587   60.5453   66.8121 O   0  0  0  0  0  0  0  0  0  0  0  0
  -44.7870   55.9023   62.5388 C   0  0  0  0  0  0  0  0  0  0  0  0
  -44.9278   56.8609   61.3860 C   0  0  0  0  0  0  0  0  0  0  0  0
  -43.8263   56.7200   60.3640 C   0  0  0  0  0  0  0  0  0  0  0  0
  -42.4445   56.9536   60.9404 C   0  0  0  0  0  0  0  0  0  0  0  0
  -42.2808   58.3285   61.5474 C   0  0  0  0  0  0  0  0  0  0  0  0
  -40.9033   58.5954   62.1164 C   0  0  0  0  0  0  0  0  0  0  0  0
  -40.5185   57.6139   63.2105 C   0  0  0  0  0  0  0  0  0  0  0  0
  -39.1632   57.8617   63.8078 C   0  0  0  0  0  0  0  0  0  0  0  0
  -37.0720   58.9080   63.4380 C   0  0  0  0  0  0  0  0  0  0  0  0
  -37.3490   60.1700   64.2050 C   0  0  2  0  0  0  0  0  0  0  0  0
  -36.0840   60.8130   64.7130 C   0  0  0  0  0  0  0  0  0  0  0  0
  -34.6297   57.9778   67.5595 C   0  0  0  0  0  0  0  0  0  0  0  0
  -35.5368   58.6997   68.5255 C   0  0  2  0  0  0  0  0  0  0  0  0
  -34.7801   59.2972   69.6875 C   0  0  0  0  0  0  0  0  0  0  0  0
  -37.8399   60.0926   66.5518 C   0  0  0  0  0  0  0  0  0  0  0  0
  -38.8741   59.7460   67.5776 C   0  0  0  0  0  0  0  0  0  0  0  0
  -38.3798   60.0389   68.9906 C   0  0  0  0  0  0  0  0  0  0  0  0
  -39.3822   59.6908   70.0788 C   0  0  0  0  0  0  0  0  0  0  0  0
  -38.8870   60.0024   71.4864 C   0  0  0  0  0  0  0  0  0  0  0  0
  -39.8739   59.6428   72.5814 C   0  0  0  0  0  0  0  0  0  0  0  0
  -41.2270   60.3522   72.4771 C   0  0  0  0  0  0  0  0  0  0  0  0
  -42.2276   60.0128   73.5840 C   0  0  0  0  0  0  0  0  0  0  0  0
  -42.5450   58.5481   73.6289 C   0  0  0  0  0  0  0  0  0  0  0  0
  -43.0642   57.8248   72.6559 C   0  0  0  0  0  0  0  0  0  0  0  0
  -43.4453   58.3183   71.2960 C   0  0  0  0  0  0  0  0  0  0  0  0
  -42.6839   57.6043   70.1829 C   0  0  0  0  0  0  0  0  0  0  0  0
  -43.0372   58.0959   68.7902 C   0  0  0  0  0  0  0  0  0  0  0  0
  -42.2919   57.3736   67.6811 C   0  0  0  0  0  0  0  0  0  0  0  0
  -42.6193   57.8629   66.2801 C   0  0  0  0  0  0  0  0  0  0  0  0
  -42.2843   59.3298   66.0572 C   0  0  0  0  0  0  0  0  0  0  0  0
  -40.8174   59.6671   66.2366 C   0  0  0  0  0  0  0  0  0  0  0  0
  -40.5263   61.1267   66.0255 C   0  0  0  0  0  0  0  0  0  0  0  0
  -36.9697   50.4464   66.1272 H   0  0  0  0  0  0  0  0  0  0  0  0
  -38.0251   49.2259   65.4569 H   0  0  0  0  0  0  0  0  0  0  0  0
  -38.6828   50.4897   66.4685 H   0  0  0  0  0  0  0  0  0  0  0  0
  -37.4182   50.8838   63.7799 H   0  0  0  0  0  0  0  0  0  0  0  0
  -38.1052   52.1430   64.8150 H   0  0  0  0  0  0  0  0  0  0  0  0
  -39.6108   49.8769   63.5994 H   0  0  0  0  0  0  0  0  0  0  0  0
  -39.6004   51.5803   63.0607 H   0  0  0  0  0  0  0  0  0  0  0  0
  -40.6410   50.6015   65.6653 H   0  0  0  0  0  0  0  0  0  0  0  0
  -41.5973   51.0572   64.2376 H   0  0  0  0  0  0  0  0  0  0  0  0
  -39.8312   52.8851   65.7931 H   0  0  0  0  0  0  0  0  0  0  0  0
  -41.6053   52.7962   65.8700 H   0  0  0  0  0  0  0  0  0  0  0  0
  -34.5967   62.0987   66.9506 H   0  0  0  0  0  0  0  0  0  0  0  0
  -40.0132   53.5495   63.4726 H   0  0  0  0  0  0  0  0  0  0  0  0
  -40.8900   54.6496   64.5574 H   0  0  0  0  0  0  0  0  0  0  0  0
  -42.1221   52.5175   62.8862 H   0  0  0  0  0  0  0  0  0  0  0  0
  -42.1113   54.2670   62.5546 H   0  0  0  0  0  0  0  0  0  0  0  0
  -33.3208   60.5866   69.9871 H   0  0  0  0  0  0  0  0  0  0  0  0
  -43.4106   54.6754   64.5114 H   0  0  0  0  0  0  0  0  0  0  0  0
  -43.4096   52.9308   64.8625 H   0  0  0  0  0  0  0  0  0  0  0  0
  -37.0144   57.4144   68.2468 H   0  0  0  0  0  0  0  0  0  0  0  0
  -45.5087   53.6462   63.9326 H   0  0  0  0  0  0  0  0  0  0  0  0
  -44.6273   52.5099   62.8811 H   0  0  0  0  0  0  0  0  0  0  0  0
  -45.7105   54.2455   61.6058 H   0  0  0  0  0  0  0  0  0  0  0  0
  -43.9443   54.2950   61.4822 H   0  0  0  0  0  0  0  0  0  0  0  0
  -43.8635   56.1066   63.0390 H   0  0  0  0  0  0  0  0  0  0  0  0
  -45.6334   56.0488   63.1768 H   0  0  0  0  0  0  0  0  0  0  0  0
  -44.9115   57.8598   61.7693 H   0  0  0  0  0  0  0  0  0  0  0  0
  -45.8512   56.6367   60.8942 H   0  0  0  0  0  0  0  0  0  0  0  0
  -43.9938   57.4319   59.5830 H   0  0  0  0  0  0  0  0  0  0  0  0
  -43.8543   55.7133   60.0027 H   0  0  0  0  0  0  0  0  0  0  0  0
  -41.7247   56.8391   60.1570 H   0  0  0  0  0  0  0  0  0  0  0  0
  -42.3001   56.2392   61.7238 H   0  0  0  0  0  0  0  0  0  0  0  0
  -42.9960   58.4345   62.3362 H   0  0  0  0  0  0  0  0  0  0  0  0
  -42.4289   59.0337   60.7564 H   0  0  0  0  0  0  0  0  0  0  0  0
  -40.8871   59.5848   62.5234 H   0  0  0  0  0  0  0  0  0  0  0  0
  -40.1980   58.4826   61.3196 H   0  0  0  0  0  0  0  0  0  0  0  0
  -40.5275   56.6277   62.7956 H   0  0  0  0  0  0  0  0  0  0  0  0
  -41.2305   57.7370   63.9996 H   0  0  0  0  0  0  0  0  0  0  0  0
  -36.4020   59.0962   62.6252 H   0  0  0  0  0  0  0  0  0  0  0  0
  -36.6048   58.1555   64.0382 H   0  0  0  0  0  0  0  0  0  0  0  0
  -37.7985   60.8886   63.5519 H   0  0  0  0  0  0  0  0  0  0  0  0
  -35.4401   61.0403   63.8892 H   0  0  0  0  0  0  0  0  0  0  0  0
  -36.3193   61.7188   65.2317 H   0  0  0  0  0  0  0  0  0  0  0  0
  -34.1644   57.1491   68.0511 H   0  0  0  0  0  0  0  0  0  0  0  0
  -35.1948   57.6114   66.7281 H   0  0  0  0  0  0  0  0  0  0  0  0
  -35.9952   59.5126   68.0023 H   0  0  0  0  0  0  0  0  0  0  0  0
  -35.4670   59.8109   70.3271 H   0  0  0  0  0  0  0  0  0  0  0  0
  -34.2931   58.5090   70.2228 H   0  0  0  0  0  0  0  0  0  0  0  0
  -39.1062   58.7044   67.4994 H   0  0  0  0  0  0  0  0  0  0  0  0
  -39.7422   60.3443   67.3948 H   0  0  0  0  0  0  0  0  0  0  0  0
  -38.1568   61.0831   69.0598 H   0  0  0  0  0  0  0  0  0  0  0  0
  -37.5198   59.4233   69.1525 H   0  0  0  0  0  0  0  0  0  0  0  0
  -39.5963   58.6441   70.0194 H   0  0  0  0  0  0  0  0  0  0  0  0
  -40.2502   60.2936   69.9107 H   0  0  0  0  0  0  0  0  0  0  0  0
  -38.6843   61.0513   71.5473 H   0  0  0  0  0  0  0  0  0  0  0  0
  -38.0145   59.4043   71.6472 H   0  0  0  0  0  0  0  0  0  0  0  0
  -39.4350   59.8976   73.5234 H   0  0  0  0  0  0  0  0  0  0  0  0
  -40.0714   58.5960   72.4803 H   0  0  0  0  0  0  0  0  0  0  0  0
  -41.6684   60.0870   71.5392 H   0  0  0  0  0  0  0  0  0  0  0  0
  -41.0221   61.3980   72.5726 H   0  0  0  0  0  0  0  0  0  0  0  0
  -43.1325   60.5565   73.4094 H   0  0  0  0  0  0  0  0  0  0  0  0
  -41.7864   60.2828   74.5206 H   0  0  0  0  0  0  0  0  0  0  0  0
  -42.3358   58.0556   74.5113 H   0  0  0  0  0  0  0  0  0  0  0  0
  -43.2225   56.8239   72.8512 H   0  0  0  0  0  0  0  0  0  0  0  0
  -43.2346   59.3658   71.2391 H   0  0  0  0  0  0  0  0  0  0  0  0
  -44.4875   58.1196   71.1573 H   0  0  0  0  0  0  0  0  0  0  0  0
  -42.9054   56.5589   70.2386 H   0  0  0  0  0  0  0  0  0  0  0  0
  -41.6445   57.8094   70.3331 H   0  0  0  0  0  0  0  0  0  0  0  0
  -42.8042   59.1385   68.7306 H   0  0  0  0  0  0  0  0  0  0  0  0
  -44.0794   57.9020   68.6448 H   0  0  0  0  0  0  0  0  0  0  0  0
  -42.5354   56.3332   67.7373 H   0  0  0  0  0  0  0  0  0  0  0  0
  -41.2513   57.5685   67.8364 H   0  0  0  0  0  0  0  0  0  0  0  0
  -43.6664   57.7246   66.1089 H   0  0  0  0  0  0  0  0  0  0  0  0
  -42.0191   57.2956   65.5998 H   0  0  0  0  0  0  0  0  0  0  0  0
  -42.8501   59.9127   66.7537 H   0  0  0  0  0  0  0  0  0  0  0  0
  -42.5276   59.5492   65.0386 H   0  0  0  0  0  0  0  0  0  0  0  0
  -40.2471   59.0991   65.5316 H   0  0  0  0  0  0  0  0  0  0  0  0
  -40.5524   59.4280   67.2453 H   0  0  0  0  0  0  0  0  0  0  0  0
  -40.7811   61.3998   65.0228 H   0  0  0  0  0  0  0  0  0  0  0  0
  -39.4854   61.3105   66.1917 H   0  0  0  0  0  0  0  0  0  0  0  0
  -41.1053   61.7088   66.7117 H   0  0  0  0  0  0  0  0  0  0  0  0
  1  4  1  0  0  0  0
  1 54  1  0  0  0  0
  1 55  1  0  0  0  0
  1 56  1  0  0  0  0
  2 29  2  0  0  0  0
  3  7  1  0  0  0  0
  3  9  2  6  0  0  0
  3 11  1  0  0  0  0
  3 13  1  0  0  0  0
  4  6  1  0  0  0  0
  4 57  1  0  0  0  0
  4 58  1  0  0  0  0
  5 29  1  0  0  0  0
  5 30  1  0  0  0  0
  6  8  1  0  0  0  0
  6 59  1  0  0  0  0
  6 60  1  0  0  0  0
  7 32  1  0  0  0  0
  8 10  1  0  0  0  0
  8 61  1  0  0  0  0
  8 62  1  0  0  0  0
 10 12  1  0  0  0  0
 10 63  1  0  0  0  0
 10 64  1  0  0  0  0
 11 65  1  0  0  0  0
 12 14  1  0  0  0  0
 12 66  1  0  0  0  0
 12 67  1  0  0  0  0
 13 33  1  0  0  0  0
 14 16  1  0  0  0  0
 14 68  1  0  0  0  0
 14 69  1  0  0  0  0
 15 35  1  0  0  0  0
 15 70  1  0  0  0  0
 16 18  1  0  0  0  0
 16 71  1  0  0  0  0
 16 72  1  0  0  0  0
 17 34  1  0  0  0  0
 17 73  1  0  0  0  0
 18 20  1  0  0  0  0
 18 74  1  0  0  0  0
 18 75  1  0  0  0  0
 19 31  1  0  0  0  0
 19 36  1  0  0  0  0
 20 22  1  0  0  0  0
 20 76  1  0  0  0  0
 20 77  1  0  0  0  0
 21 36  2  0  0  0  0
 22 23  1  0  0  0  0
 22 78  1  0  0  0  0
 22 79  1  0  0  0  0
 23 24  1  0  0  0  0
 23 80  1  0  0  0  0
 23 81  1  0  0  0  0
 24 25  1  0  0  0  0
 24 82  1  0  0  0  0
 24 83  1  0  0  0  0
 25 26  1  0  0  0  0
 25 84  1  0  0  0  0
 25 85  1  0  0  0  0
 26 27  1  0  0  0  0
 26 86  1  0  0  0  0
 26 87  1  0  0  0  0
 27 28  1  0  0  0  0
 27 88  1  0  0  0  0
 27 89  1  0  0  0  0
 28 29  1  0  0  0  0
 28 90  1  0  0  0  0
 28 91  1  0  0  0  0
 30 31  1  0  0  0  0
 30 92  1  0  0  0  0
 30 93  1  0  0  0  0
 31 32  1  0  0  0  0
 31 94  1  6  0  0  0
 32 95  1  0  0  0  0
 32 96  1  0  0  0  0
 33 34  1  0  0  0  0
 33 97  1  0  0  0  0
 33 98  1  0  0  0  0
 34 35  1  0  0  0  0
 34 99  1  6  0  0  0
 35100  1  0  0  0  0
 35101  1  0  0  0  0
 36 37  1  0  0  0  0
 37 38  1  0  0  0  0
 37102  1  0  0  0  0
 37103  1  0  0  0  0
 38 39  1  0  0  0  0
 38104  1  0  0  0  0
 38105  1  0  0  0  0
 39 40  1  0  0  0  0
 39106  1  0  0  0  0
 39107  1  0  0  0  0
 40 41  1  0  0  0  0
 40108  1  0  0  0  0
 40109  1  0  0  0  0
 41 42  1  0  0  0  0
 41110  1  0  0  0  0
 41111  1  0  0  0  0
 42 43  1  0  0  0  0
 42112  1  0  0  0  0
 42113  1  0  0  0  0
 43 44  1  0  0  0  0
 43114  1  0  0  0  0
 43115  1  0  0  0  0
 44 45  2  0  0  0  0
 44116  1  0  0  0  0
 45 46  1  0  0  0  0
 45117  1  0  0  0  0
 46 47  1  0  0  0  0
 46118  1  0  0  0  0
 46119  1  0  0  0  0
 47 48  1  0  0  0  0
 47120  1  0  0  0  0
 47121  1  0  0  0  0
 48 49  1  0  0  0  0
 48122  1  0  0  0  0
 48123  1  0  0  0  0
 49 50  1  0  0  0  0
 49124  1  0  0  0  0
 49125  1  0  0  0  0
 50 51  1  0  0  0  0
 50126  1  0  0  0  0
 50127  1  0  0  0  0
 51 52  1  0  0  0  0
 51128  1  0  0  0  0
 51129  1  0  0  0  0
 52 53  1  0  0  0  0
 52130  1  0  0  0  0
 52131  1  0  0  0  0
 53132  1  0  0  0  0
 53133  1  0  0  0  0
 53134  1  0  0  0  0
M  CHG  1   9  -1
M  END
$$$$