/media/chris/experiments/cd1a-new-docking/inputs/ligands/7sh4_ligand.pdb
 OpenBabel07012320073D

134133  0  0  1  0  0  0  0  0999 V2000
  -43.2687   50.1502   67.8407 C   0  0  0  0  0  0  0  0  0  0  0  0
  -39.1377   58.0331   64.9968 O   0  0  0  0  0  0  0  0  0  0  0  0
  -34.0491   60.2433   66.3537 P   0  0  1  0  0  0  0  0  0  0  0  0
  -42.5070   49.5798   66.6658 C   0  0  0  0  0  0  0  0  0  0  0  0
  -38.3690   58.5038   62.9506 O   0  0  0  0  0  0  0  0  0  0  0  0
  -41.5482   48.4788   67.0776 C   0  0  0  0  0  0  0  0  0  0  0  0
  -35.4212   59.8922   65.6081 O   0  0  0  0  0  0  0  0  0  0  0  0
  -40.7424   47.8793   65.9390 C   0  0  0  0  0  0  0  0  0  0  0  0
  -33.2899   61.1805   65.4982 O   0  5  0  0  0  0  0  0  0  0  0  0
  -39.8543   48.8881   65.2239 C   0  0  0  0  0  0  0  0  0  0  0  0
  -34.3697   60.6479   67.7438 O   0  0  0  0  0  0  0  0  0  0  0  0
  -39.0626   48.2944   64.0768 C   0  0  0  0  0  0  0  0  0  0  0  0
  -33.2397   58.8709   66.4173 O   0  0  0  0  0  0  0  0  0  0  0  0
  -39.9342   47.7089   62.9824 C   0  0  0  0  0  0  0  0  0  0  0  0
  -32.6286   56.9446   64.9435 O   0  0  0  0  0  0  0  0  0  0  0  0
  -40.8605   48.7222   62.3196 C   0  0  0  0  0  0  0  0  0  0  0  0
  -32.6633   55.8979   68.4545 O   0  0  0  0  0  0  0  0  0  0  0  0
  -40.1331   49.8650   61.6427 C   0  0  0  0  0  0  0  0  0  0  0  0
  -38.2720   59.8520   65.2990 O   0  0  0  0  0  0  0  0  0  0  0  0
  -41.0490   50.8846   60.9965 C   0  0  0  0  0  0  0  0  0  0  0  0
  -37.0574   60.9578   66.8359 O   0  0  0  0  0  0  0  0  0  0  0  0
  -40.2909   52.0024   60.3155 C   0  0  0  0  0  0  0  0  0  0  0  0
  -39.3964   52.7736   61.2497 C   0  0  0  0  0  0  0  0  0  0  0  0
  -40.1479   53.4142   62.3909 C   0  0  0  0  0  0  0  0  0  0  0  0
  -41.2155   54.3862   61.9310 C   0  0  0  0  0  0  0  0  0  0  0  0
  -40.6633   55.5229   61.1011 C   0  0  0  0  0  0  0  0  0  0  0  0
  -39.6272   56.3655   61.8146 C   0  0  0  0  0  0  0  0  0  0  0  0
  -40.1623   57.0052   63.0846 C   0  0  0  0  0  0  0  0  0  0  0  0
  -39.1632   57.8617   63.8078 C   0  0  0  0  0  0  0  0  0  0  0  0
  -37.0720   58.9080   63.4380 C   0  0  0  0  0  0  0  0  0  0  0  0
  -37.3490   60.1700   64.2050 C   0  0  2  0  0  0  0  0  0  0  0  0
  -36.0840   60.8130   64.7130 C   0  0  0  0  0  0  0  0  0  0  0  0
  -33.3983   57.9915   67.5494 C   0  0  0  0  0  0  0  0  0  0  0  0
  -32.5069   56.7908   67.3476 C   0  0  2  0  0  0  0  0  0  0  0  0
  -32.7967   56.0708   66.0525 C   0  0  0  0  0  0  0  0  0  0  0  0
  -37.8399   60.0926   66.5518 C   0  0  0  0  0  0  0  0  0  0  0  0
  -38.4651   59.1659   67.5480 C   0  0  0  0  0  0  0  0  0  0  0  0
  -37.4127   58.3363   68.2767 C   0  0  0  0  0  0  0  0  0  0  0  0
  -37.9895   57.3625   69.2911 C   0  0  0  0  0  0  0  0  0  0  0  0
  -38.8047   58.0368   70.3886 C   0  0  0  0  0  0  0  0  0  0  0  0
  -39.3710   57.0745   71.4161 C   0  0  0  0  0  0  0  0  0  0  0  0
  -40.3014   56.0032   70.8403 C   0  0  0  0  0  0  0  0  0  0  0  0
  -41.5358   56.5364   70.1100 C   0  0  0  0  0  0  0  0  0  0  0  0
  -42.4056   55.4315   69.5899 C   0  0  0  0  0  0  0  0  0  0  0  0
  -42.0552   54.4889   68.7365 C   0  0  0  0  0  0  0  0  0  0  0  0
  -40.7079   54.3244   68.1073 C   0  0  0  0  0  0  0  0  0  0  0  0
  -39.7856   53.4306   68.9314 C   0  0  0  0  0  0  0  0  0  0  0  0
  -40.3117   52.0182   69.1169 C   0  0  0  0  0  0  0  0  0  0  0  0
  -40.5050   51.2632   67.8131 C   0  0  0  0  0  0  0  0  0  0  0  0
  -39.2354   51.0779   66.9987 C   0  0  0  0  0  0  0  0  0  0  0  0
  -38.1582   50.2891   67.7274 C   0  0  0  0  0  0  0  0  0  0  0  0
  -36.8774   50.1083   66.9369 C   0  0  0  0  0  0  0  0  0  0  0  0
  -35.8428   49.3106   67.6805 C   0  0  0  0  0  0  0  0  0  0  0  0
  -43.9285   50.9198   67.4982 H   0  0  0  0  0  0  0  0  0  0  0  0
  -42.5786   50.5606   68.5479 H   0  0  0  0  0  0  0  0  0  0  0  0
  -43.8382   49.3737   68.3073 H   0  0  0  0  0  0  0  0  0  0  0  0
  -41.9484   50.3668   66.2038 H   0  0  0  0  0  0  0  0  0  0  0  0
  -43.2198   49.1557   65.9898 H   0  0  0  0  0  0  0  0  0  0  0  0
  -42.1169   47.6947   67.5322 H   0  0  0  0  0  0  0  0  0  0  0  0
  -40.8415   48.9277   67.7439 H   0  0  0  0  0  0  0  0  0  0  0  0
  -41.4226   47.4622   65.2261 H   0  0  0  0  0  0  0  0  0  0  0  0
  -40.0970   47.1405   66.3662 H   0  0  0  0  0  0  0  0  0  0  0  0
  -39.1661   49.2961   65.9343 H   0  0  0  0  0  0  0  0  0  0  0  0
  -40.4992   49.6333   64.8071 H   0  0  0  0  0  0  0  0  0  0  0  0
  -34.8636   61.4827   67.7318 H   0  0  0  0  0  0  0  0  0  0  0  0
  -38.4361   47.5178   64.4632 H   0  0  0  0  0  0  0  0  0  0  0  0
  -38.4971   49.0899   63.6384 H   0  0  0  0  0  0  0  0  0  0  0  0
  -40.5345   46.9328   63.4092 H   0  0  0  0  0  0  0  0  0  0  0  0
  -39.2747   47.3476   62.2211 H   0  0  0  0  0  0  0  0  0  0  0  0
  -32.8188   56.4649   64.1221 H   0  0  0  0  0  0  0  0  0  0  0  0
  -41.5056   49.1301   63.0694 H   0  0  0  0  0  0  0  0  0  0  0  0
  -41.3982   48.1997   61.5562 H   0  0  0  0  0  0  0  0  0  0  0  0
  -32.4749   56.3706   69.2803 H   0  0  0  0  0  0  0  0  0  0  0  0
  -39.4971   49.4568   60.8852 H   0  0  0  0  0  0  0  0  0  0  0  0
  -39.5883   50.3796   62.4064 H   0  0  0  0  0  0  0  0  0  0  0  0
  -41.6771   51.3079   61.7523 H   0  0  0  0  0  0  0  0  0  0  0  0
  -41.6190   50.3772   60.2464 H   0  0  0  0  0  0  0  0  0  0  0  0
  -40.9989   52.6805   59.8868 H   0  0  0  0  0  0  0  0  0  0  0  0
  -39.6624   51.5528   59.5754 H   0  0  0  0  0  0  0  0  0  0  0  0
  -38.9029   53.5422   60.6923 H   0  0  0  0  0  0  0  0  0  0  0  0
  -38.7017   52.0790   61.6738 H   0  0  0  0  0  0  0  0  0  0  0  0
  -39.4485   53.9425   63.0047 H   0  0  0  0  0  0  0  0  0  0  0  0
  -40.6409   52.6304   62.9270 H   0  0  0  0  0  0  0  0  0  0  0  0
  -41.6969   54.7968   62.7938 H   0  0  0  0  0  0  0  0  0  0  0  0
  -41.8984   53.8417   61.3129 H   0  0  0  0  0  0  0  0  0  0  0  0
  -41.4766   56.1586   60.8192 H   0  0  0  0  0  0  0  0  0  0  0  0
  -40.1730   55.0797   60.2597 H   0  0  0  0  0  0  0  0  0  0  0  0
  -39.3015   57.1403   61.1525 H   0  0  0  0  0  0  0  0  0  0  0  0
  -38.8223   55.7182   62.0941 H   0  0  0  0  0  0  0  0  0  0  0  0
  -40.4779   56.2257   63.7462 H   0  0  0  0  0  0  0  0  0  0  0  0
  -40.9652   57.6487   62.7912 H   0  0  0  0  0  0  0  0  0  0  0  0
  -36.4020   59.0962   62.6252 H   0  0  0  0  0  0  0  0  0  0  0  0
  -36.6048   58.1555   64.0382 H   0  0  0  0  0  0  0  0  0  0  0  0
  -37.7985   60.8886   63.5519 H   0  0  0  0  0  0  0  0  0  0  0  0
  -35.4401   61.0403   63.8892 H   0  0  0  0  0  0  0  0  0  0  0  0
  -36.3193   61.7188   65.2317 H   0  0  0  0  0  0  0  0  0  0  0  0
  -34.4182   57.6764   67.6222 H   0  0  0  0  0  0  0  0  0  0  0  0
  -33.1304   58.5011   68.4513 H   0  0  0  0  0  0  0  0  0  0  0  0
  -31.4959   57.1366   67.2914 H   0  0  0  0  0  0  0  0  0  0  0  0
  -32.1257   55.2434   65.9527 H   0  0  0  0  0  0  0  0  0  0  0  0
  -33.8099   55.7270   66.0691 H   0  0  0  0  0  0  0  0  0  0  0  0
  -39.1349   58.5064   67.0368 H   0  0  0  0  0  0  0  0  0  0  0  0
  -38.9889   59.7547   68.2718 H   0  0  0  0  0  0  0  0  0  0  0  0
  -36.7525   59.0046   68.7890 H   0  0  0  0  0  0  0  0  0  0  0  0
  -36.9107   57.7509   67.5350 H   0  0  0  0  0  0  0  0  0  0  0  0
  -37.1807   56.8315   69.7481 H   0  0  0  0  0  0  0  0  0  0  0  0
  -38.6539   56.7131   68.7603 H   0  0  0  0  0  0  0  0  0  0  0  0
  -39.6194   58.5578   69.9306 H   0  0  0  0  0  0  0  0  0  0  0  0
  -38.1389   58.6913   70.9112 H   0  0  0  0  0  0  0  0  0  0  0  0
  -39.9212   57.6420   72.1373 H   0  0  0  0  0  0  0  0  0  0  0  0
  -38.5360   56.5560   71.8390 H   0  0  0  0  0  0  0  0  0  0  0  0
  -40.6355   55.3861   71.6481 H   0  0  0  0  0  0  0  0  0  0  0  0
  -39.7281   55.4747   70.1076 H   0  0  0  0  0  0  0  0  0  0  0  0
  -41.2154   57.1398   69.2865 H   0  0  0  0  0  0  0  0  0  0  0  0
  -42.1110   57.1068   70.8091 H   0  0  0  0  0  0  0  0  0  0  0  0
  -43.3779   55.4059   69.9349 H   0  0  0  0  0  0  0  0  0  0  0  0
  -42.7788   53.7998   68.4784 H   0  0  0  0  0  0  0  0  0  0  0  0
  -40.2544   55.2886   68.0095 H   0  0  0  0  0  0  0  0  0  0  0  0
  -40.8478   53.8580   67.1545 H   0  0  0  0  0  0  0  0  0  0  0  0
  -39.6596   53.8739   69.8971 H   0  0  0  0  0  0  0  0  0  0  0  0
  -38.8631   53.3532   68.3948 H   0  0  0  0  0  0  0  0  0  0  0  0
  -41.2550   52.0722   69.6192 H   0  0  0  0  0  0  0  0  0  0  0  0
  -39.5783   51.4828   69.6829 H   0  0  0  0  0  0  0  0  0  0  0  0
  -41.2097   51.8029   67.2156 H   0  0  0  0  0  0  0  0  0  0  0  0
  -40.8438   50.2829   68.0761 H   0  0  0  0  0  0  0  0  0  0  0  0
  -38.8434   52.0439   66.7575 H   0  0  0  0  0  0  0  0  0  0  0  0
  -39.4997   50.5184   66.1257 H   0  0  0  0  0  0  0  0  0  0  0  0
  -38.5497   49.3203   67.9577 H   0  0  0  0  0  0  0  0  0  0  0  0
  -37.9032   50.8520   68.6009 H   0  0  0  0  0  0  0  0  0  0  0  0
  -36.4720   51.0739   66.7171 H   0  0  0  0  0  0  0  0  0  0  0  0
  -37.1217   49.5688   66.0458 H   0  0  0  0  0  0  0  0  0  0  0  0
  -35.5753   49.8242   68.5802 H   0  0  0  0  0  0  0  0  0  0  0  0
  -34.9749   49.1917   67.0662 H   0  0  0  0  0  0  0  0  0  0  0  0
  -36.2419   48.3482   67.9243 H   0  0  0  0  0  0  0  0  0  0  0  0
  1  4  1  0  0  0  0
  1 54  1  0  0  0  0
  1 55  1  0  0  0  0
  1 56  1  0  0  0  0
  2 29  2  0  0  0  0
  3  7  1  0  0  0  0
  3  9  2  6  0  0  0
  3 11  1  0  0  0  0
  3 13  1  0  0  0  0
  4  6  1  0  0  0  0
  4 57  1  0  0  0  0
  4 58  1  0  0  0  0
  5 29  1  0  0  0  0
  5 30  1  0  0  0  0
  6  8  1  0  0  0  0
  6 59  1  0  0  0  0
  6 60  1  0  0  0  0
  7 32  1  0  0  0  0
  8 10  1  0  0  0  0
  8 61  1  0  0  0  0
  8 62  1  0  0  0  0
 10 12  1  0  0  0  0
 10 63  1  0  0  0  0
 10 64  1  0  0  0  0
 11 65  1  0  0  0  0
 12 14  1  0  0  0  0
 12 66  1  0  0  0  0
 12 67  1  0  0  0  0
 13 33  1  0  0  0  0
 14 16  1  0  0  0  0
 14 68  1  0  0  0  0
 14 69  1  0  0  0  0
 15 35  1  0  0  0  0
 15 70  1  0  0  0  0
 16 18  1  0  0  0  0
 16 71  1  0  0  0  0
 16 72  1  0  0  0  0
 17 34  1  0  0  0  0
 17 73  1  0  0  0  0
 18 20  1  0  0  0  0
 18 74  1  0  0  0  0
 18 75  1  0  0  0  0
 19 31  1  0  0  0  0
 19 36  1  0  0  0  0
 20 22  1  0  0  0  0
 20 76  1  0  0  0  0
 20 77  1  0  0  0  0
 21 36  2  0  0  0  0
 22 23  1  0  0  0  0
 22 78  1  0  0  0  0
 22 79  1  0  0  0  0
 23 24  1  0  0  0  0
 23 80  1  0  0  0  0
 23 81  1  0  0  0  0
 24 25  1  0  0  0  0
 24 82  1  0  0  0  0
 24 83  1  0  0  0  0
 25 26  1  0  0  0  0
 25 84  1  0  0  0  0
 25 85  1  0  0  0  0
 26 27  1  0  0  0  0
 26 86  1  0  0  0  0
 26 87  1  0  0  0  0
 27 28  1  0  0  0  0
 27 88  1  0  0  0  0
 27 89  1  0  0  0  0
 28 29  1  0  0  0  0
 28 90  1  0  0  0  0
 28 91  1  0  0  0  0
 30 31  1  0  0  0  0
 30 92  1  0  0  0  0
 30 93  1  0  0  0  0
 31 32  1  0  0  0  0
 31 94  1  6  0  0  0
 32 95  1  0  0  0  0
 32 96  1  0  0  0  0
 33 34  1  0  0  0  0
 33 97  1  0  0  0  0
 33 98  1  0  0  0  0
 34 35  1  0  0  0  0
 34 99  1  6  0  0  0
 35100  1  0  0  0  0
 35101  1  0  0  0  0
 36 37  1  0  0  0  0
 37 38  1  0  0  0  0
 37102  1  0  0  0  0
 37103  1  0  0  0  0
 38 39  1  0  0  0  0
 38104  1  0  0  0  0
 38105  1  0  0  0  0
 39 40  1  0  0  0  0
 39106  1  0  0  0  0
 39107  1  0  0  0  0
 40 41  1  0  0  0  0
 40108  1  0  0  0  0
 40109  1  0  0  0  0
 41 42  1  0  0  0  0
 41110  1  0  0  0  0
 41111  1  0  0  0  0
 42 43  1  0  0  0  0
 42112  1  0  0  0  0
 42113  1  0  0  0  0
 43 44  1  0  0  0  0
 43114  1  0  0  0  0
 43115  1  0  0  0  0
 44 45  2  0  0  0  0
 44116  1  0  0  0  0
 45 46  1  0  0  0  0
 45117  1  0  0  0  0
 46 47  1  0  0  0  0
 46118  1  0  0  0  0
 46119  1  0  0  0  0
 47 48  1  0  0  0  0
 47120  1  0  0  0  0
 47121  1  0  0  0  0
 48 49  1  0  0  0  0
 48122  1  0  0  0  0
 48123  1  0  0  0  0
 49 50  1  0  0  0  0
 49124  1  0  0  0  0
 49125  1  0  0  0  0
 50 51  1  0  0  0  0
 50126  1  0  0  0  0
 50127  1  0  0  0  0
 51 52  1  0  0  0  0
 51128  1  0  0  0  0
 51129  1  0  0  0  0
 52 53  1  0  0  0  0
 52130  1  0  0  0  0
 52131  1  0  0  0  0
 53132  1  0  0  0  0
 53133  1  0  0  0  0
 53134  1  0  0  0  0
M  CHG  1   9  -1
M  END
$$$$