/media/chris/experiments/cd1a-new-docking/inputs/ligands/7sh4_ligand.pdb
 OpenBabel07012320073D

134133  0  0  1  0  0  0  0  0999 V2000
  -40.8113   66.7345   78.9166 C   0  0  0  0  0  0  0  0  0  0  0  0
  -37.8093   56.3061   63.8238 O   0  0  0  0  0  0  0  0  0  0  0  0
  -35.6684   62.1020   62.4058 P   0  0  1  0  0  0  0  0  0  0  0  0
  -41.3030   67.2064   77.5670 C   0  0  0  0  0  0  0  0  0  0  0  0
  -36.5027   58.0190   64.4222 O   0  0  0  0  0  0  0  0  0  0  0  0
  -40.8217   66.3202   76.4338 C   0  0  0  0  0  0  0  0  0  0  0  0
  -35.2304   61.1139   63.5864 O   0  0  0  0  0  0  0  0  0  0  0  0
  -41.2718   66.7564   75.0510 C   0  0  0  0  0  0  0  0  0  0  0  0
  -34.4498   62.7510   61.8761 O   0  5  0  0  0  0  0  0  0  0  0  0
  -40.7888   65.8398   73.9356 C   0  0  0  0  0  0  0  0  0  0  0  0
  -36.5373   61.3473   61.4709 O   0  0  0  0  0  0  0  0  0  0  0  0
  -41.2232   66.2837   72.5538 C   0  0  0  0  0  0  0  0  0  0  0  0
  -36.5593   63.2254   63.1038 O   0  0  0  0  0  0  0  0  0  0  0  0
  -40.7537   65.3579   71.4481 C   0  0  0  0  0  0  0  0  0  0  0  0
  -38.7311   65.5517   66.7029 O   0  0  0  0  0  0  0  0  0  0  0  0
  -39.2388   65.2061   71.3689 C   0  0  0  0  0  0  0  0  0  0  0  0
  -38.9226   64.2386   64.1994 O   0  0  0  0  0  0  0  0  0  0  0  0
  -38.7727   64.2944   70.2532 C   0  0  0  0  0  0  0  0  0  0  0  0
  -38.2720   59.8520   65.2990 O   0  0  0  0  0  0  0  0  0  0  0  0
  -39.3085   62.8800   70.3458 C   0  0  0  0  0  0  0  0  0  0  0  0
  -40.0260   58.9658   64.2044 O   0  0  0  0  0  0  0  0  0  0  0  0
  -38.8106   61.9921   69.2269 C   0  0  0  0  0  0  0  0  0  0  0  0
  -39.3475   60.5869   69.2951 C   0  0  0  0  0  0  0  0  0  0  0  0
  -38.8321   59.7042   68.1848 C   0  0  0  0  0  0  0  0  0  0  0  0
  -39.3832   58.2937   68.2396 C   0  0  0  0  0  0  0  0  0  0  0  0
  -38.8519   57.4073   67.1361 C   0  0  0  0  0  0  0  0  0  0  0  0
  -37.3485   57.2278   67.1543 C   0  0  0  0  0  0  0  0  0  0  0  0
  -36.8476   56.3461   66.0229 C   0  0  0  0  0  0  0  0  0  0  0  0
  -37.1513   56.8767   64.6514 C   0  0  0  0  0  0  0  0  0  0  0  0
  -37.0720   58.9080   63.4380 C   0  0  0  0  0  0  0  0  0  0  0  0
  -37.3490   60.1700   64.2050 C   0  0  2  0  0  0  0  0  0  0  0  0
  -36.0840   60.8130   64.7130 C   0  0  0  0  0  0  0  0  0  0  0  0
  -36.7996   63.1759   64.5250 C   0  0  0  0  0  0  0  0  0  0  0  0
  -37.6793   64.3432   64.8997 C   0  0  2  0  0  0  0  0  0  0  0  0
  -37.9244   64.4242   66.3873 C   0  0  0  0  0  0  0  0  0  0  0  0
  -39.5790   59.7587   64.9875 C   0  0  0  0  0  0  0  0  0  0  0  0
  -40.4082   60.7476   65.7468 C   0  0  0  0  0  0  0  0  0  0  0  0
  -41.6346   61.1783   64.9486 C   0  0  0  0  0  0  0  0  0  0  0  0
  -42.5773   60.0371   64.6034 C   0  0  0  0  0  0  0  0  0  0  0  0
  -43.1515   59.3296   65.8255 C   0  0  0  0  0  0  0  0  0  0  0  0
  -43.9694   60.2303   66.7322 C   0  0  0  0  0  0  0  0  0  0  0  0
  -45.1966   60.8591   66.0660 C   0  0  0  0  0  0  0  0  0  0  0  0
  -44.8995   61.7317   64.8446 C   0  0  0  0  0  0  0  0  0  0  0  0
  -43.9917   62.8778   65.1765 C   0  0  0  0  0  0  0  0  0  0  0  0
  -43.1234   63.4542   64.3683 C   0  0  0  0  0  0  0  0  0  0  0  0
  -42.8632   63.0827   62.9426 C   0  0  0  0  0  0  0  0  0  0  0  0
  -41.7789   63.9460   62.3044 C   0  0  0  0  0  0  0  0  0  0  0  0
  -41.5041   63.6036   60.8506 C   0  0  0  0  0  0  0  0  0  0  0  0
  -41.0581   62.1675   60.6362 C   0  0  0  0  0  0  0  0  0  0  0  0
  -39.7880   61.7852   61.3779 C   0  0  0  0  0  0  0  0  0  0  0  0
  -39.3531   60.3483   61.1335 C   0  0  0  0  0  0  0  0  0  0  0  0
  -40.3805   59.3100   61.5386 C   0  0  0  0  0  0  0  0  0  0  0  0
  -39.9106   57.9024   61.2987 C   0  0  0  0  0  0  0  0  0  0  0  0
  -41.1768   67.3906   79.6787 H   0  0  0  0  0  0  0  0  0  0  0  0
  -39.7413   66.7367   78.9271 H   0  0  0  0  0  0  0  0  0  0  0  0
  -41.1677   65.7423   79.0991 H   0  0  0  0  0  0  0  0  0  0  0  0
  -40.9466   68.2014   77.4001 H   0  0  0  0  0  0  0  0  0  0  0  0
  -42.3723   67.1695   77.5783 H   0  0  0  0  0  0  0  0  0  0  0  0
  -41.1885   65.3299   76.6066 H   0  0  0  0  0  0  0  0  0  0  0  0
  -39.7534   66.3803   76.4365 H   0  0  0  0  0  0  0  0  0  0  0  0
  -40.8945   67.7407   74.8673 H   0  0  0  0  0  0  0  0  0  0  0  0
  -42.3412   66.7227   75.0439 H   0  0  0  0  0  0  0  0  0  0  0  0
  -41.1763   64.8583   74.1129 H   0  0  0  0  0  0  0  0  0  0  0  0
  -39.7191   65.8644   73.9509 H   0  0  0  0  0  0  0  0  0  0  0  0
  -36.0169   60.6560   61.0325 H   0  0  0  0  0  0  0  0  0  0  0  0
  -40.8253   67.2599   72.3705 H   0  0  0  0  0  0  0  0  0  0  0  0
  -42.2931   66.2739   72.5408 H   0  0  0  0  0  0  0  0  0  0  0  0
  -41.1024   65.7456   70.5137 H   0  0  0  0  0  0  0  0  0  0  0  0
  -41.1513   64.3887   71.6658 H   0  0  0  0  0  0  0  0  0  0  0  0
  -38.8772   65.5866   67.6612 H   0  0  0  0  0  0  0  0  0  0  0  0
  -38.8909   64.8065   72.2985 H   0  0  0  0  0  0  0  0  0  0  0  0
  -38.8389   66.1773   71.1649 H   0  0  0  0  0  0  0  0  0  0  0  0
  -38.7532   64.1873   63.2457 H   0  0  0  0  0  0  0  0  0  0  0  0
  -37.7039   64.2513   70.2788 H   0  0  0  0  0  0  0  0  0  0  0  0
  -39.1478   64.7073   69.3401 H   0  0  0  0  0  0  0  0  0  0  0  0
  -40.3771   62.9154   70.3048 H   0  0  0  0  0  0  0  0  0  0  0  0
  -38.9612   62.4628   71.2680 H   0  0  0  0  0  0  0  0  0  0  0  0
  -37.7426   61.9500   69.2770 H   0  0  0  0  0  0  0  0  0  0  0  0
  -39.1557   62.4181   68.3081 H   0  0  0  0  0  0  0  0  0  0  0  0
  -40.4149   60.6263   69.2317 H   0  0  0  0  0  0  0  0  0  0  0  0
  -39.0177   60.1628   70.2204 H   0  0  0  0  0  0  0  0  0  0  0  0
  -37.7656   59.6557   68.2561 H   0  0  0  0  0  0  0  0  0  0  0  0
  -39.1537   60.1357   67.2600 H   0  0  0  0  0  0  0  0  0  0  0  0
  -40.4488   58.3408   68.1556 H   0  0  0  0  0  0  0  0  0  0  0  0
  -39.0737   57.8657   69.1702 H   0  0  0  0  0  0  0  0  0  0  0  0
  -39.1270   57.8394   66.1967 H   0  0  0  0  0  0  0  0  0  0  0  0
  -39.2793   56.4381   67.2874 H   0  0  0  0  0  0  0  0  0  0  0  0
  -37.0687   56.7811   68.0855 H   0  0  0  0  0  0  0  0  0  0  0  0
  -36.9070   58.1944   67.0295 H   0  0  0  0  0  0  0  0  0  0  0  0
  -37.3047   55.3835   66.1196 H   0  0  0  0  0  0  0  0  0  0  0  0
  -35.7818   56.3083   66.1100 H   0  0  0  0  0  0  0  0  0  0  0  0
  -37.9762   58.5012   63.0358 H   0  0  0  0  0  0  0  0  0  0  0  0
  -36.4225   59.0678   62.6029 H   0  0  0  0  0  0  0  0  0  0  0  0
  -37.7985   60.8886   63.5519 H   0  0  0  0  0  0  0  0  0  0  0  0
  -36.3238   61.7163   65.2340 H   0  0  0  0  0  0  0  0  0  0  0  0
  -35.5811   60.1472   65.3829 H   0  0  0  0  0  0  0  0  0  0  0  0
  -35.8701   63.2402   65.0512 H   0  0  0  0  0  0  0  0  0  0  0  0
  -37.2792   62.2554   64.7852 H   0  0  0  0  0  0  0  0  0  0  0  0
  -37.1712   65.2421   64.6191 H   0  0  0  0  0  0  0  0  0  0  0  0
  -38.4229   63.5342   66.7102 H   0  0  0  0  0  0  0  0  0  0  0  0
  -36.9831   64.5241   66.8862 H   0  0  0  0  0  0  0  0  0  0  0  0
  -39.8120   61.6099   65.9605 H   0  0  0  0  0  0  0  0  0  0  0  0
  -40.7422   60.2820   66.6505 H   0  0  0  0  0  0  0  0  0  0  0  0
  -41.3020   61.6280   64.0365 H   0  0  0  0  0  0  0  0  0  0  0  0
  -42.1836   61.8584   65.5659 H   0  0  0  0  0  0  0  0  0  0  0  0
  -42.0404   59.3199   64.0184 H   0  0  0  0  0  0  0  0  0  0  0  0
  -43.4020   60.4616   64.0700 H   0  0  0  0  0  0  0  0  0  0  0  0
  -42.3391   58.9278   66.3943 H   0  0  0  0  0  0  0  0  0  0  0  0
  -43.8141   58.5722   65.4620 H   0  0  0  0  0  0  0  0  0  0  0  0
  -43.3358   61.0201   67.0780 H   0  0  0  0  0  0  0  0  0  0  0  0
  -44.3374   59.6110   67.5234 H   0  0  0  0  0  0  0  0  0  0  0  0
  -45.6935   61.4663   66.7936 H   0  0  0  0  0  0  0  0  0  0  0  0
  -45.7920   60.0441   65.7109 H   0  0  0  0  0  0  0  0  0  0  0  0
  -45.8216   62.1205   64.4661 H   0  0  0  0  0  0  0  0  0  0  0  0
  -44.4067   61.1218   64.1165 H   0  0  0  0  0  0  0  0  0  0  0  0
  -44.0525   63.2543   66.1355 H   0  0  0  0  0  0  0  0  0  0  0  0
  -42.5712   64.2351   64.7559 H   0  0  0  0  0  0  0  0  0  0  0  0
  -43.7692   63.2017   62.3858 H   0  0  0  0  0  0  0  0  0  0  0  0
  -42.5234   62.0682   62.9268 H   0  0  0  0  0  0  0  0  0  0  0  0
  -40.8733   63.8161   62.8592 H   0  0  0  0  0  0  0  0  0  0  0  0
  -42.1296   64.9567   62.3271 H   0  0  0  0  0  0  0  0  0  0  0  0
  -40.7348   64.2538   60.4898 H   0  0  0  0  0  0  0  0  0  0  0  0
  -42.4251   63.7278   60.3203 H   0  0  0  0  0  0  0  0  0  0  0  0
  -40.8904   62.0223   59.5894 H   0  0  0  0  0  0  0  0  0  0  0  0
  -41.8369   61.5454   61.0252 H   0  0  0  0  0  0  0  0  0  0  0  0
  -39.9560   61.9147   62.4267 H   0  0  0  0  0  0  0  0  0  0  0  0
  -39.0065   62.4177   61.0116 H   0  0  0  0  0  0  0  0  0  0  0  0
  -38.4576   60.1694   61.6912 H   0  0  0  0  0  0  0  0  0  0  0  0
  -39.2121   60.2453   60.0779 H   0  0  0  0  0  0  0  0  0  0  0  0
  -41.2737   59.4735   60.9725 H   0  0  0  0  0  0  0  0  0  0  0  0
  -40.5517   59.4183   62.5892 H   0  0  0  0  0  0  0  0  0  0  0  0
  -39.7295   57.7600   60.2538 H   0  0  0  0  0  0  0  0  0  0  0  0
  -40.6615   57.2147   61.6275 H   0  0  0  0  0  0  0  0  0  0  0  0
  -39.0062   57.7305   61.8441 H   0  0  0  0  0  0  0  0  0  0  0  0
  1  4  1  0  0  0  0
  1 54  1  0  0  0  0
  1 55  1  0  0  0  0
  1 56  1  0  0  0  0
  2 29  2  0  0  0  0
  3  7  1  0  0  0  0
  3  9  2  6  0  0  0
  3 11  1  0  0  0  0
  3 13  1  0  0  0  0
  4  6  1  0  0  0  0
  4 57  1  0  0  0  0
  4 58  1  0  0  0  0
  5 29  1  0  0  0  0
  5 30  1  0  0  0  0
  6  8  1  0  0  0  0
  6 59  1  0  0  0  0
  6 60  1  0  0  0  0
  7 32  1  0  0  0  0
  8 10  1  0  0  0  0
  8 61  1  0  0  0  0
  8 62  1  0  0  0  0
 10 12  1  0  0  0  0
 10 63  1  0  0  0  0
 10 64  1  0  0  0  0
 11 65  1  0  0  0  0
 12 14  1  0  0  0  0
 12 66  1  0  0  0  0
 12 67  1  0  0  0  0
 13 33  1  0  0  0  0
 14 16  1  0  0  0  0
 14 68  1  0  0  0  0
 14 69  1  0  0  0  0
 15 35  1  0  0  0  0
 15 70  1  0  0  0  0
 16 18  1  0  0  0  0
 16 71  1  0  0  0  0
 16 72  1  0  0  0  0
 17 34  1  0  0  0  0
 17 73  1  0  0  0  0
 18 20  1  0  0  0  0
 18 74  1  0  0  0  0
 18 75  1  0  0  0  0
 19 31  1  0  0  0  0
 19 36  1  0  0  0  0
 20 22  1  0  0  0  0
 20 76  1  0  0  0  0
 20 77  1  0  0  0  0
 21 36  2  0  0  0  0
 22 23  1  0  0  0  0
 22 78  1  0  0  0  0
 22 79  1  0  0  0  0
 23 24  1  0  0  0  0
 23 80  1  0  0  0  0
 23 81  1  0  0  0  0
 24 25  1  0  0  0  0
 24 82  1  0  0  0  0
 24 83  1  0  0  0  0
 25 26  1  0  0  0  0
 25 84  1  0  0  0  0
 25 85  1  0  0  0  0
 26 27  1  0  0  0  0
 26 86  1  0  0  0  0
 26 87  1  0  0  0  0
 27 28  1  0  0  0  0
 27 88  1  0  0  0  0
 27 89  1  0  0  0  0
 28 29  1  0  0  0  0
 28 90  1  0  0  0  0
 28 91  1  0  0  0  0
 30 31  1  0  0  0  0
 30 92  1  0  0  0  0
 30 93  1  0  0  0  0
 31 32  1  0  0  0  0
 31 94  1  6  0  0  0
 32 95  1  0  0  0  0
 32 96  1  0  0  0  0
 33 34  1  0  0  0  0
 33 97  1  0  0  0  0
 33 98  1  0  0  0  0
 34 35  1  0  0  0  0
 34 99  1  6  0  0  0
 35100  1  0  0  0  0
 35101  1  0  0  0  0
 36 37  1  0  0  0  0
 37 38  1  0  0  0  0
 37102  1  0  0  0  0
 37103  1  0  0  0  0
 38 39  1  0  0  0  0
 38104  1  0  0  0  0
 38105  1  0  0  0  0
 39 40  1  0  0  0  0
 39106  1  0  0  0  0
 39107  1  0  0  0  0
 40 41  1  0  0  0  0
 40108  1  0  0  0  0
 40109  1  0  0  0  0
 41 42  1  0  0  0  0
 41110  1  0  0  0  0
 41111  1  0  0  0  0
 42 43  1  0  0  0  0
 42112  1  0  0  0  0
 42113  1  0  0  0  0
 43 44  1  0  0  0  0
 43114  1  0  0  0  0
 43115  1  0  0  0  0
 44 45  2  0  0  0  0
 44116  1  0  0  0  0
 45 46  1  0  0  0  0
 45117  1  0  0  0  0
 46 47  1  0  0  0  0
 46118  1  0  0  0  0
 46119  1  0  0  0  0
 47 48  1  0  0  0  0
 47120  1  0  0  0  0
 47121  1  0  0  0  0
 48 49  1  0  0  0  0
 48122  1  0  0  0  0
 48123  1  0  0  0  0
 49 50  1  0  0  0  0
 49124  1  0  0  0  0
 49125  1  0  0  0  0
 50 51  1  0  0  0  0
 50126  1  0  0  0  0
 50127  1  0  0  0  0
 51 52  1  0  0  0  0
 51128  1  0  0  0  0
 51129  1  0  0  0  0
 52 53  1  0  0  0  0
 52130  1  0  0  0  0
 52131  1  0  0  0  0
 53132  1  0  0  0  0
 53133  1  0  0  0  0
 53134  1  0  0  0  0
M  CHG  1   9  -1
M  END
$$$$
/media/chris/experiments/cd1a-new-docking/inputs/ligands/7sh4_ligand.pdb
 OpenBabel07012320073D

134133  0  0  1  0  0  0  0  0999 V2000
  -54.6901   62.2908   66.4802 C   0  0  0  0  0  0  0  0  0  0  0  0
  -38.5675   59.7153   61.0819 O   0  0  0  0  0  0  0  0  0  0  0  0
  -37.2082   63.2406   64.7182 P   0  0  1  0  0  0  0  0  0  0  0  0
  -53.2932   61.9398   66.0206 C   0  0  0  0  0  0  0  0  0  0  0  0
  -38.3690   58.5038   62.9506 O   0  0  0  0  0  0  0  0  0  0  0  0
  -53.0288   62.3725   64.5909 C   0  0  0  0  0  0  0  0  0  0  0  0
  -36.4293   62.0282   65.4148 O   0  0  0  0  0  0  0  0  0  0  0  0
  -51.6447   62.0302   64.0692 C   0  0  0  0  0  0  0  0  0  0  0  0
  -36.2031   64.1613   64.1447 O   0  5  0  0  0  0  0  0  0  0  0  0
  -51.3494   60.5368   64.0591 C   0  0  0  0  0  0  0  0  0  0  0  0
  -38.2443   62.6705   63.8238 O   0  0  0  0  0  0  0  0  0  0  0  0
  -49.9623   60.1954   63.5545 C   0  0  0  0  0  0  0  0  0  0  0  0
  -37.9514   64.0029   65.9053 O   0  0  0  0  0  0  0  0  0  0  0  0
  -49.6795   58.7056   63.5305 C   0  0  0  0  0  0  0  0  0  0  0  0
  -36.9769   67.9324   67.2389 O   0  0  0  0  0  0  0  0  0  0  0  0
  -48.2807   58.3484   63.0408 C   0  0  0  0  0  0  0  0  0  0  0  0
  -38.2121   66.6420   65.0223 O   0  0  0  0  0  0  0  0  0  0  0  0
  -47.1687   58.9231   63.8931 C   0  0  0  0  0  0  0  0  0  0  0  0
  -38.2720   59.8520   65.2990 O   0  0  0  0  0  0  0  0  0  0  0  0
  -45.7756   58.5857   63.4017 C   0  0  0  0  0  0  0  0  0  0  0  0
  -37.0868   58.0613   65.9691 O   0  0  0  0  0  0  0  0  0  0  0  0
  -44.6896   59.1601   64.2841 C   0  0  0  0  0  0  0  0  0  0  0  0
  -44.7431   60.6608   64.3975 C   0  0  0  0  0  0  0  0  0  0  0  0
  -43.6459   61.2260   65.2660 C   0  0  0  0  0  0  0  0  0  0  0  0
  -42.2560   60.9191   64.7462 C   0  0  0  0  0  0  0  0  0  0  0  0
  -41.9997   61.4886   63.3694 C   0  0  0  0  0  0  0  0  0  0  0  0
  -40.6232   61.1824   62.8179 C   0  0  0  0  0  0  0  0  0  0  0  0
  -40.3663   59.6921   62.6714 C   0  0  0  0  0  0  0  0  0  0  0  0
  -39.0024   59.3540   62.1421 C   0  0  0  0  0  0  0  0  0  0  0  0
  -37.0720   58.9080   63.4380 C   0  0  0  0  0  0  0  0  0  0  0  0
  -37.3490   60.1700   64.2050 C   0  0  2  0  0  0  0  0  0  0  0  0
  -36.0840   60.8130   64.7130 C   0  0  0  0  0  0  0  0  0  0  0  0
  -37.2908   65.0846   66.5934 C   0  0  0  0  0  0  0  0  0  0  0  0
  -36.9868   66.1709   65.5911 C   0  0  2  0  0  0  0  0  0  0  0  0
  -36.2207   67.3193   66.2026 C   0  0  0  0  0  0  0  0  0  0  0  0
  -37.8515   58.9548   66.2113 C   0  0  0  0  0  0  0  0  0  0  0  0
  -38.4362   59.2157   67.5649 C   0  0  0  0  0  0  0  0  0  0  0  0
  -38.7188   60.6999   67.7749 C   0  0  0  0  0  0  0  0  0  0  0  0
  -39.2989   61.0296   69.1405 C   0  0  0  0  0  0  0  0  0  0  0  0
  -39.5942   62.5123   69.3357 C   0  0  0  0  0  0  0  0  0  0  0  0
  -40.6048   63.0747   68.3533 C   0  0  0  0  0  0  0  0  0  0  0  0
  -41.9865   62.4174   68.4151 C   0  0  0  0  0  0  0  0  0  0  0  0
  -43.0122   62.9621   67.4187 C   0  0  0  0  0  0  0  0  0  0  0  0
  -44.3427   62.2835   67.5498 C   0  0  0  0  0  0  0  0  0  0  0  0
  -45.4214   62.5195   66.8286 C   0  0  0  0  0  0  0  0  0  0  0  0
  -45.5420   63.5187   65.7217 C   0  0  0  0  0  0  0  0  0  0  0  0
  -44.2431   64.2833   65.4834 C   0  0  0  0  0  0  0  0  0  0  0  0
  -44.3393   65.3178   64.3759 C   0  0  0  0  0  0  0  0  0  0  0  0
  -44.7193   64.7331   63.0265 C   0  0  0  0  0  0  0  0  0  0  0  0
  -43.7552   63.6822   62.5015 C   0  0  0  0  0  0  0  0  0  0  0  0
  -44.1484   63.1248   61.1420 C   0  0  0  0  0  0  0  0  0  0  0  0
  -45.5134   62.4663   61.1108 C   0  0  0  0  0  0  0  0  0  0  0  0
  -45.8612   61.9126   59.7572 C   0  0  0  0  0  0  0  0  0  0  0  0
  -54.8254   61.9657   67.4906 H   0  0  0  0  0  0  0  0  0  0  0  0
  -55.4055   61.8046   65.8503 H   0  0  0  0  0  0  0  0  0  0  0  0
  -54.8281   63.3504   66.4249 H   0  0  0  0  0  0  0  0  0  0  0  0
  -53.1656   60.8796   66.0879 H   0  0  0  0  0  0  0  0  0  0  0  0
  -52.6022   62.4588   66.6516 H   0  0  0  0  0  0  0  0  0  0  0  0
  -53.1525   63.4339   64.5359 H   0  0  0  0  0  0  0  0  0  0  0  0
  -53.7232   61.8349   63.9796 H   0  0  0  0  0  0  0  0  0  0  0  0
  -50.9199   62.5141   64.6900 H   0  0  0  0  0  0  0  0  0  0  0  0
  -51.6000   62.3658   63.0542 H   0  0  0  0  0  0  0  0  0  0  0  0
  -52.0668   60.0546   63.4284 H   0  0  0  0  0  0  0  0  0  0  0  0
  -51.4061   60.1992   65.0728 H   0  0  0  0  0  0  0  0  0  0  0  0
  -37.8160   62.2003   63.0914 H   0  0  0  0  0  0  0  0  0  0  0  0
  -49.2440   60.6667   64.1923 H   0  0  0  0  0  0  0  0  0  0  0  0
  -49.8985   60.5452   62.5453 H   0  0  0  0  0  0  0  0  0  0  0  0
  -50.3922   58.2381   62.8836 H   0  0  0  0  0  0  0  0  0  0  0  0
  -49.7518   58.3602   64.5407 H   0  0  0  0  0  0  0  0  0  0  0  0
  -36.4691   68.6664   67.6187 H   0  0  0  0  0  0  0  0  0  0  0  0
  -48.1676   58.7197   62.0436 H   0  0  0  0  0  0  0  0  0  0  0  0
  -48.1948   57.2832   63.0938 H   0  0  0  0  0  0  0  0  0  0  0  0
  -38.6954   65.8965   64.6328 H   0  0  0  0  0  0  0  0  0  0  0  0
  -47.2760   58.5420   64.8871 H   0  0  0  0  0  0  0  0  0  0  0  0
  -47.2630   59.9880   63.8465 H   0  0  0  0  0  0  0  0  0  0  0  0
  -45.6568   58.9782   62.4134 H   0  0  0  0  0  0  0  0  0  0  0  0
  -45.6762   57.5204   63.4192 H   0  0  0  0  0  0  0  0  0  0  0  0
  -43.7397   58.8844   63.8761 H   0  0  0  0  0  0  0  0  0  0  0  0
  -44.8380   58.7635   65.2667 H   0  0  0  0  0  0  0  0  0  0  0  0
  -45.6873   60.9375   64.8178 H   0  0  0  0  0  0  0  0  0  0  0  0
  -44.6110   61.0609   63.4140 H   0  0  0  0  0  0  0  0  0  0  0  0
  -43.7413   60.8111   66.2476 H   0  0  0  0  0  0  0  0  0  0  0  0
  -43.7574   62.2902   65.2671 H   0  0  0  0  0  0  0  0  0  0  0  0
  -42.1351   59.8568   64.7035 H   0  0  0  0  0  0  0  0  0  0  0  0
  -41.5567   61.3748   65.4157 H   0  0  0  0  0  0  0  0  0  0  0  0
  -42.1124   62.5514   63.4194 H   0  0  0  0  0  0  0  0  0  0  0  0
  -42.7049   61.0278   62.7096 H   0  0  0  0  0  0  0  0  0  0  0  0
  -39.8902   61.5921   63.4811 H   0  0  0  0  0  0  0  0  0  0  0  0
  -40.5627   61.6175   61.8422 H   0  0  0  0  0  0  0  0  0  0  0  0
  -41.0963   59.2898   62.0004 H   0  0  0  0  0  0  0  0  0  0  0  0
  -40.4297   59.2702   63.6526 H   0  0  0  0  0  0  0  0  0  0  0  0
  -36.4020   59.0962   62.6252 H   0  0  0  0  0  0  0  0  0  0  0  0
  -36.6048   58.1555   64.0382 H   0  0  0  0  0  0  0  0  0  0  0  0
  -37.7985   60.8886   63.5519 H   0  0  0  0  0  0  0  0  0  0  0  0
  -35.5824   60.1428   65.3795 H   0  0  0  0  0  0  0  0  0  0  0  0
  -35.4356   61.0386   63.8923 H   0  0  0  0  0  0  0  0  0  0  0  0
  -36.3805   64.7320   67.0316 H   0  0  0  0  0  0  0  0  0  0  0  0
  -37.9209   65.4662   67.3696 H   0  0  0  0  0  0  0  0  0  0  0  0
  -36.3628   65.7514   64.8298 H   0  0  0  0  0  0  0  0  0  0  0  0
  -35.3015   66.9518   66.6087 H   0  0  0  0  0  0  0  0  0  0  0  0
  -36.0260   68.0466   65.4423 H   0  0  0  0  0  0  0  0  0  0  0  0
  -37.7454   58.8842   68.3118 H   0  0  0  0  0  0  0  0  0  0  0  0
  -39.3616   58.6839   67.6391 H   0  0  0  0  0  0  0  0  0  0  0  0
  -39.4146   61.0193   67.0273 H   0  0  0  0  0  0  0  0  0  0  0  0
  -37.7795   61.2076   67.7059 H   0  0  0  0  0  0  0  0  0  0  0  0
  -38.5983   60.7228   69.8887 H   0  0  0  0  0  0  0  0  0  0  0  0
  -40.2314   60.5107   69.2191 H   0  0  0  0  0  0  0  0  0  0  0  0
  -38.6789   63.0552   69.2246 H   0  0  0  0  0  0  0  0  0  0  0  0
  -40.0196   62.6175   70.3118 H   0  0  0  0  0  0  0  0  0  0  0  0
  -40.2172   62.9448   67.3645 H   0  0  0  0  0  0  0  0  0  0  0  0
  -40.7453   64.1021   68.6171 H   0  0  0  0  0  0  0  0  0  0  0  0
  -42.3763   62.5582   69.4016 H   0  0  0  0  0  0  0  0  0  0  0  0
  -41.8383   61.3898   68.1566 H   0  0  0  0  0  0  0  0  0  0  0  0
  -42.6435   62.8093   66.4259 H   0  0  0  0  0  0  0  0  0  0  0  0
  -43.1517   64.0026   67.6256 H   0  0  0  0  0  0  0  0  0  0  0  0
  -44.4226   61.5575   68.2789 H   0  0  0  0  0  0  0  0  0  0  0  0
  -46.2617   61.9622   67.0487 H   0  0  0  0  0  0  0  0  0  0  0  0
  -46.3115   64.2184   65.9728 H   0  0  0  0  0  0  0  0  0  0  0  0
  -45.7750   62.9845   64.8243 H   0  0  0  0  0  0  0  0  0  0  0  0
  -43.4797   63.5801   65.2237 H   0  0  0  0  0  0  0  0  0  0  0  0
  -44.0206   64.8116   66.3869 H   0  0  0  0  0  0  0  0  0  0  0  0
  -43.3886   65.7994   64.2798 H   0  0  0  0  0  0  0  0  0  0  0  0
  -45.1161   66.0001   64.6514 H   0  0  0  0  0  0  0  0  0  0  0  0
  -44.7623   65.5321   62.3160 H   0  0  0  0  0  0  0  0  0  0  0  0
  -45.6606   64.2425   63.1614 H   0  0  0  0  0  0  0  0  0  0  0  0
  -43.7204   62.8741   63.2019 H   0  0  0  0  0  0  0  0  0  0  0  0
  -42.8039   64.1579   62.3840 H   0  0  0  0  0  0  0  0  0  0  0  0
  -43.4185   62.3975   60.8537 H   0  0  0  0  0  0  0  0  0  0  0  0
  -44.1933   63.9565   60.4703 H   0  0  0  0  0  0  0  0  0  0  0  0
  -46.2501   63.1930   61.3827 H   0  0  0  0  0  0  0  0  0  0  0  0
  -45.4920   61.6469   61.7987 H   0  0  0  0  0  0  0  0  0  0  0  0
  -45.8910   62.7089   59.0431 H   0  0  0  0  0  0  0  0  0  0  0  0
  -46.8188   61.4373   59.8016 H   0  0  0  0  0  0  0  0  0  0  0  0
  -45.1213   61.1976   59.4635 H   0  0  0  0  0  0  0  0  0  0  0  0
  1  4  1  0  0  0  0
  1 54  1  0  0  0  0
  1 55  1  0  0  0  0
  1 56  1  0  0  0  0
  2 29  2  0  0  0  0
  3  7  1  0  0  0  0
  3  9  2  6  0  0  0
  3 11  1  0  0  0  0
  3 13  1  0  0  0  0
  4  6  1  0  0  0  0
  4 57  1  0  0  0  0
  4 58  1  0  0  0  0
  5 29  1  0  0  0  0
  5 30  1  0  0  0  0
  6  8  1  0  0  0  0
  6 59  1  0  0  0  0
  6 60  1  0  0  0  0
  7 32  1  0  0  0  0
  8 10  1  0  0  0  0
  8 61  1  0  0  0  0
  8 62  1  0  0  0  0
 10 12  1  0  0  0  0
 10 63  1  0  0  0  0
 10 64  1  0  0  0  0
 11 65  1  0  0  0  0
 12 14  1  0  0  0  0
 12 66  1  0  0  0  0
 12 67  1  0  0  0  0
 13 33  1  0  0  0  0
 14 16  1  0  0  0  0
 14 68  1  0  0  0  0
 14 69  1  0  0  0  0
 15 35  1  0  0  0  0
 15 70  1  0  0  0  0
 16 18  1  0  0  0  0
 16 71  1  0  0  0  0
 16 72  1  0  0  0  0
 17 34  1  0  0  0  0
 17 73  1  0  0  0  0
 18 20  1  0  0  0  0
 18 74  1  0  0  0  0
 18 75  1  0  0  0  0
 19 31  1  0  0  0  0
 19 36  1  0  0  0  0
 20 22  1  0  0  0  0
 20 76  1  0  0  0  0
 20 77  1  0  0  0  0
 21 36  2  0  0  0  0
 22 23  1  0  0  0  0
 22 78  1  0  0  0  0
 22 79  1  0  0  0  0
 23 24  1  0  0  0  0
 23 80  1  0  0  0  0
 23 81  1  0  0  0  0
 24 25  1  0  0  0  0
 24 82  1  0  0  0  0
 24 83  1  0  0  0  0
 25 26  1  0  0  0  0
 25 84  1  0  0  0  0
 25 85  1  0  0  0  0
 26 27  1  0  0  0  0
 26 86  1  0  0  0  0
 26 87  1  0  0  0  0
 27 28  1  0  0  0  0
 27 88  1  0  0  0  0
 27 89  1  0  0  0  0
 28 29  1  0  0  0  0
 28 90  1  0  0  0  0
 28 91  1  0  0  0  0
 30 31  1  0  0  0  0
 30 92  1  0  0  0  0
 30 93  1  0  0  0  0
 31 32  1  0  0  0  0
 31 94  1  6  0  0  0
 32 95  1  0  0  0  0
 32 96  1  0  0  0  0
 33 34  1  0  0  0  0
 33 97  1  0  0  0  0
 33 98  1  0  0  0  0
 34 35  1  0  0  0  0
 34 99  1  6  0  0  0
 35100  1  0  0  0  0
 35101  1  0  0  0  0
 36 37  1  0  0  0  0
 37 38  1  0  0  0  0
 37102  1  0  0  0  0
 37103  1  0  0  0  0
 38 39  1  0  0  0  0
 38104  1  0  0  0  0
 38105  1  0  0  0  0
 39 40  1  0  0  0  0
 39106  1  0  0  0  0
 39107  1  0  0  0  0
 40 41  1  0  0  0  0
 40108  1  0  0  0  0
 40109  1  0  0  0  0
 41 42  1  0  0  0  0
 41110  1  0  0  0  0
 41111  1  0  0  0  0
 42 43  1  0  0  0  0
 42112  1  0  0  0  0
 42113  1  0  0  0  0
 43 44  1  0  0  0  0
 43114  1  0  0  0  0
 43115  1  0  0  0  0
 44 45  2  0  0  0  0
 44116  1  0  0  0  0
 45 46  1  0  0  0  0
 45117  1  0  0  0  0
 46 47  1  0  0  0  0
 46118  1  0  0  0  0
 46119  1  0  0  0  0
 47 48  1  0  0  0  0
 47120  1  0  0  0  0
 47121  1  0  0  0  0
 48 49  1  0  0  0  0
 48122  1  0  0  0  0
 48123  1  0  0  0  0
 49 50  1  0  0  0  0
 49124  1  0  0  0  0
 49125  1  0  0  0  0
 50 51  1  0  0  0  0
 50126  1  0  0  0  0
 50127  1  0  0  0  0
 51 52  1  0  0  0  0
 51128  1  0  0  0  0
 51129  1  0  0  0  0
 52 53  1  0  0  0  0
 52130  1  0  0  0  0
 52131  1  0  0  0  0
 53132  1  0  0  0  0
 53133  1  0  0  0  0
 53134  1  0  0  0  0
M  CHG  1   9  -1
M  END
$$$$
/media/chris/experiments/cd1a-new-docking/inputs/ligands/7sh4_ligand.pdb
 OpenBabel07012320073D

134133  0  0  1  0  0  0  0  0999 V2000
  -37.1356   65.9556   56.9005 C   0  0  0  0  0  0  0  0  0  0  0  0
  -39.2991   60.4756   62.4545 O   0  0  0  0  0  0  0  0  0  0  0  0
  -37.2082   63.2406   64.7182 P   0  0  1  0  0  0  0  0  0  0  0  0
  -36.8747   64.4690   56.9885 C   0  0  0  0  0  0  0  0  0  0  0  0
  -38.3690   58.5038   62.9506 O   0  0  0  0  0  0  0  0  0  0  0  0
  -35.4334   64.1546   57.3420 C   0  0  0  0  0  0  0  0  0  0  0  0
  -36.4293   62.0282   65.4148 O   0  0  0  0  0  0  0  0  0  0  0  0
  -35.1086   62.6740   57.4278 C   0  0  0  0  0  0  0  0  0  0  0  0
  -36.2031   64.1613   64.1447 O   0  5  0  0  0  0  0  0  0  0  0  0
  -35.3364   61.9236   56.1230 C   0  0  0  0  0  0  0  0  0  0  0  0
  -38.2443   62.6705   63.8238 O   0  0  0  0  0  0  0  0  0  0  0  0
  -35.0288   60.4429   56.2123 C   0  0  0  0  0  0  0  0  0  0  0  0
  -37.9514   64.0029   65.9053 O   0  0  0  0  0  0  0  0  0  0  0  0
  -35.2411   59.7033   54.9054 C   0  0  0  0  0  0  0  0  0  0  0  0
  -36.9769   67.9324   67.2389 O   0  0  0  0  0  0  0  0  0  0  0  0
  -34.9515   58.2087   54.9853 C   0  0  0  0  0  0  0  0  0  0  0  0
  -38.2121   66.6420   65.0223 O   0  0  0  0  0  0  0  0  0  0  0  0
  -35.8249   57.4683   55.9763 C   0  0  0  0  0  0  0  0  0  0  0  0
  -38.2720   59.8520   65.2990 O   0  0  0  0  0  0  0  0  0  0  0  0
  -37.3070   57.5413   55.6696 C   0  0  0  0  0  0  0  0  0  0  0  0
  -37.0868   58.0613   65.9691 O   0  0  0  0  0  0  0  0  0  0  0  0
  -38.1512   56.8065   56.6871 C   0  0  0  0  0  0  0  0  0  0  0  0
  -39.6261   56.8553   56.3873 C   0  0  0  0  0  0  0  0  0  0  0  0
  -40.4614   56.1341   57.4167 C   0  0  0  0  0  0  0  0  0  0  0  0
  -40.3228   56.7140   58.8097 C   0  0  0  0  0  0  0  0  0  0  0  0
  -40.7565   58.1598   58.8950 C   0  0  0  0  0  0  0  0  0  0  0  0
  -40.6127   58.7703   60.2731 C   0  0  0  0  0  0  0  0  0  0  0  0
  -39.1768   58.7699   60.7698 C   0  0  0  0  0  0  0  0  0  0  0  0
  -39.0024   59.3540   62.1421 C   0  0  0  0  0  0  0  0  0  0  0  0
  -37.0720   58.9080   63.4380 C   0  0  0  0  0  0  0  0  0  0  0  0
  -37.3490   60.1700   64.2050 C   0  0  2  0  0  0  0  0  0  0  0  0
  -36.0840   60.8130   64.7130 C   0  0  0  0  0  0  0  0  0  0  0  0
  -37.2908   65.0846   66.5934 C   0  0  0  0  0  0  0  0  0  0  0  0
  -36.9868   66.1709   65.5911 C   0  0  2  0  0  0  0  0  0  0  0  0
  -36.2207   67.3193   66.2026 C   0  0  0  0  0  0  0  0  0  0  0  0
  -37.8515   58.9548   66.2113 C   0  0  0  0  0  0  0  0  0  0  0  0
  -38.4362   59.2157   67.5649 C   0  0  0  0  0  0  0  0  0  0  0  0
  -38.7188   60.6999   67.7749 C   0  0  0  0  0  0  0  0  0  0  0  0
  -39.2989   61.0296   69.1405 C   0  0  0  0  0  0  0  0  0  0  0  0
  -39.5942   62.5123   69.3357 C   0  0  0  0  0  0  0  0  0  0  0  0
  -40.6048   63.0747   68.3533 C   0  0  0  0  0  0  0  0  0  0  0  0
  -40.2013   62.9470   66.8816 C   0  0  0  0  0  0  0  0  0  0  0  0
  -41.2026   63.5248   65.8790 C   0  0  0  0  0  0  0  0  0  0  0  0
  -40.7481   63.3481   64.4612 C   0  0  0  0  0  0  0  0  0  0  0  0
  -41.3810   63.7488   63.3758 C   0  0  0  0  0  0  0  0  0  0  0  0
  -42.6917   64.4690   63.3334 C   0  0  0  0  0  0  0  0  0  0  0  0
  -43.2664   64.7146   64.7255 C   0  0  0  0  0  0  0  0  0  0  0  0
  -44.6061   65.4296   64.7144 C   0  0  0  0  0  0  0  0  0  0  0  0
  -45.6979   64.6677   63.9830 C   0  0  0  0  0  0  0  0  0  0  0  0
  -45.3936   64.3783   62.5225 C   0  0  0  0  0  0  0  0  0  0  0  0
  -46.5088   63.6299   61.8083 C   0  0  0  0  0  0  0  0  0  0  0  0
  -46.8467   62.2850   62.4205 C   0  0  0  0  0  0  0  0  0  0  0  0
  -47.9401   61.5672   61.6796 C   0  0  0  0  0  0  0  0  0  0  0  0
  -38.1622   66.1232   56.6497 H   0  0  0  0  0  0  0  0  0  0  0  0
  -36.5095   66.3835   56.1457 H   0  0  0  0  0  0  0  0  0  0  0  0
  -36.9198   66.4120   57.8439 H   0  0  0  0  0  0  0  0  0  0  0  0
  -37.1013   64.0237   56.0423 H   0  0  0  0  0  0  0  0  0  0  0  0
  -37.4947   64.0744   57.7662 H   0  0  0  0  0  0  0  0  0  0  0  0
  -35.2190   64.5983   58.2918 H   0  0  0  0  0  0  0  0  0  0  0  0
  -34.8349   64.5493   56.5477 H   0  0  0  0  0  0  0  0  0  0  0  0
  -35.7270   62.2352   58.1828 H   0  0  0  0  0  0  0  0  0  0  0  0
  -34.0668   62.5940   57.6581 H   0  0  0  0  0  0  0  0  0  0  0  0
  -34.7089   62.3546   55.3711 H   0  0  0  0  0  0  0  0  0  0  0  0
  -36.3761   62.0140   55.8868 H   0  0  0  0  0  0  0  0  0  0  0  0
  -37.8160   62.2003   63.0914 H   0  0  0  0  0  0  0  0  0  0  0  0
  -35.6650   60.0085   56.9550 H   0  0  0  0  0  0  0  0  0  0  0  0
  -33.9927   60.3502   56.4628 H   0  0  0  0  0  0  0  0  0  0  0  0
  -34.5960   60.1322   54.1673 H   0  0  0  0  0  0  0  0  0  0  0  0
  -36.2767   59.8054   54.6563 H   0  0  0  0  0  0  0  0  0  0  0  0
  -36.4691   68.6664   67.6187 H   0  0  0  0  0  0  0  0  0  0  0  0
  -33.9293   58.0783   55.2734 H   0  0  0  0  0  0  0  0  0  0  0  0
  -35.1606   57.7990   54.0192 H   0  0  0  0  0  0  0  0  0  0  0  0
  -38.6954   65.8965   64.6328 H   0  0  0  0  0  0  0  0  0  0  0  0
  -35.6615   57.8876   56.9471 H   0  0  0  0  0  0  0  0  0  0  0  0
  -35.5486   56.4361   55.9203 H   0  0  0  0  0  0  0  0  0  0  0  0
  -37.4788   57.1089   54.7060 H   0  0  0  0  0  0  0  0  0  0  0  0
  -37.5922   58.5723   55.6974 H   0  0  0  0  0  0  0  0  0  0  0  0
  -37.9855   57.2479   57.6476 H   0  0  0  0  0  0  0  0  0  0  0  0
  -37.8568   55.7782   56.6586 H   0  0  0  0  0  0  0  0  0  0  0  0
  -39.7952   56.4022   55.4328 H   0  0  0  0  0  0  0  0  0  0  0  0
  -39.9212   57.8837   56.3991 H   0  0  0  0  0  0  0  0  0  0  0  0
  -40.1575   55.1085   57.4434 H   0  0  0  0  0  0  0  0  0  0  0  0
  -41.4859   56.2421   57.1276 H   0  0  0  0  0  0  0  0  0  0  0  0
  -39.2966   56.6481   59.1057 H   0  0  0  0  0  0  0  0  0  0  0  0
  -40.9625   56.1499   59.4558 H   0  0  0  0  0  0  0  0  0  0  0  0
  -41.7855   58.2191   58.6074 H   0  0  0  0  0  0  0  0  0  0  0  0
  -40.1120   58.7133   58.2445 H   0  0  0  0  0  0  0  0  0  0  0  0
  -41.2122   58.2097   60.9597 H   0  0  0  0  0  0  0  0  0  0  0  0
  -40.9314   59.7897   60.2090 H   0  0  0  0  0  0  0  0  0  0  0  0
  -38.5842   59.3391   60.0845 H   0  0  0  0  0  0  0  0  0  0  0  0
  -38.8713   57.7462   60.8291 H   0  0  0  0  0  0  0  0  0  0  0  0
  -36.4020   59.0962   62.6252 H   0  0  0  0  0  0  0  0  0  0  0  0
  -36.6048   58.1555   64.0382 H   0  0  0  0  0  0  0  0  0  0  0  0
  -37.7985   60.8886   63.5519 H   0  0  0  0  0  0  0  0  0  0  0  0
  -35.5824   60.1428   65.3795 H   0  0  0  0  0  0  0  0  0  0  0  0
  -35.4356   61.0386   63.8923 H   0  0  0  0  0  0  0  0  0  0  0  0
  -36.3805   64.7320   67.0316 H   0  0  0  0  0  0  0  0  0  0  0  0
  -37.9209   65.4662   67.3696 H   0  0  0  0  0  0  0  0  0  0  0  0
  -36.3628   65.7514   64.8298 H   0  0  0  0  0  0  0  0  0  0  0  0
  -35.3015   66.9518   66.6087 H   0  0  0  0  0  0  0  0  0  0  0  0
  -36.0260   68.0466   65.4423 H   0  0  0  0  0  0  0  0  0  0  0  0
  -37.7454   58.8842   68.3118 H   0  0  0  0  0  0  0  0  0  0  0  0
  -39.3616   58.6839   67.6391 H   0  0  0  0  0  0  0  0  0  0  0  0
  -39.4146   61.0193   67.0273 H   0  0  0  0  0  0  0  0  0  0  0  0
  -37.7795   61.2076   67.7059 H   0  0  0  0  0  0  0  0  0  0  0  0
  -38.5983   60.7228   69.8887 H   0  0  0  0  0  0  0  0  0  0  0  0
  -40.2314   60.5107   69.2191 H   0  0  0  0  0  0  0  0  0  0  0  0
  -38.6789   63.0552   69.2246 H   0  0  0  0  0  0  0  0  0  0  0  0
  -40.0196   62.6175   70.3118 H   0  0  0  0  0  0  0  0  0  0  0  0
  -40.7420   64.1129   68.5730 H   0  0  0  0  0  0  0  0  0  0  0  0
  -41.4985   62.4989   68.4742 H   0  0  0  0  0  0  0  0  0  0  0  0
  -40.0754   61.9073   66.6620 H   0  0  0  0  0  0  0  0  0  0  0  0
  -39.3044   63.5194   66.7689 H   0  0  0  0  0  0  0  0  0  0  0  0
  -41.3228   64.5698   66.0750 H   0  0  0  0  0  0  0  0  0  0  0  0
  -42.1268   62.9985   65.9964 H   0  0  0  0  0  0  0  0  0  0  0  0
  -39.8479   62.8634   64.3203 H   0  0  0  0  0  0  0  0  0  0  0  0
  -40.9296   63.5465   62.4701 H   0  0  0  0  0  0  0  0  0  0  0  0
  -43.3885   63.8814   62.7729 H   0  0  0  0  0  0  0  0  0  0  0  0
  -42.5254   65.4221   62.8766 H   0  0  0  0  0  0  0  0  0  0  0  0
  -42.5701   65.3100   65.2783 H   0  0  0  0  0  0  0  0  0  0  0  0
  -43.4271   63.7554   65.1717 H   0  0  0  0  0  0  0  0  0  0  0  0
  -44.4787   66.3788   64.2372 H   0  0  0  0  0  0  0  0  0  0  0  0
  -44.9190   65.5240   65.7332 H   0  0  0  0  0  0  0  0  0  0  0  0
  -46.5972   65.2458   64.0289 H   0  0  0  0  0  0  0  0  0  0  0  0
  -45.7855   63.7189   64.4697 H   0  0  0  0  0  0  0  0  0  0  0  0
  -44.5029   63.7875   62.4726 H   0  0  0  0  0  0  0  0  0  0  0  0
  -45.2820   65.3220   62.0307 H   0  0  0  0  0  0  0  0  0  0  0  0
  -46.2095   63.4708   60.7934 H   0  0  0  0  0  0  0  0  0  0  0  0
  -47.3873   64.2349   61.8919 H   0  0  0  0  0  0  0  0  0  0  0  0
  -47.1623   62.4388   63.4312 H   0  0  0  0  0  0  0  0  0  0  0  0
  -45.9681   61.6766   62.3678 H   0  0  0  0  0  0  0  0  0  0  0  0
  -48.8363   62.1507   61.7132 H   0  0  0  0  0  0  0  0  0  0  0  0
  -48.1163   60.6162   62.1374 H   0  0  0  0  0  0  0  0  0  0  0  0
  -47.6459   61.4235   60.6609 H   0  0  0  0  0  0  0  0  0  0  0  0
  1  4  1  0  0  0  0
  1 54  1  0  0  0  0
  1 55  1  0  0  0  0
  1 56  1  0  0  0  0
  2 29  2  0  0  0  0
  3  7  1  0  0  0  0
  3  9  2  6  0  0  0
  3 11  1  0  0  0  0
  3 13  1  0  0  0  0
  4  6  1  0  0  0  0
  4 57  1  0  0  0  0
  4 58  1  0  0  0  0
  5 29  1  0  0  0  0
  5 30  1  0  0  0  0
  6  8  1  0  0  0  0
  6 59  1  0  0  0  0
  6 60  1  0  0  0  0
  7 32  1  0  0  0  0
  8 10  1  0  0  0  0
  8 61  1  0  0  0  0
  8 62  1  0  0  0  0
 10 12  1  0  0  0  0
 10 63  1  0  0  0  0
 10 64  1  0  0  0  0
 11 65  1  0  0  0  0
 12 14  1  0  0  0  0
 12 66  1  0  0  0  0
 12 67  1  0  0  0  0
 13 33  1  0  0  0  0
 14 16  1  0  0  0  0
 14 68  1  0  0  0  0
 14 69  1  0  0  0  0
 15 35  1  0  0  0  0
 15 70  1  0  0  0  0
 16 18  1  0  0  0  0
 16 71  1  0  0  0  0
 16 72  1  0  0  0  0
 17 34  1  0  0  0  0
 17 73  1  0  0  0  0
 18 20  1  0  0  0  0
 18 74  1  0  0  0  0
 18 75  1  0  0  0  0
 19 31  1  0  0  0  0
 19 36  1  0  0  0  0
 20 22  1  0  0  0  0
 20 76  1  0  0  0  0
 20 77  1  0  0  0  0
 21 36  2  0  0  0  0
 22 23  1  0  0  0  0
 22 78  1  0  0  0  0
 22 79  1  0  0  0  0
 23 24  1  0  0  0  0
 23 80  1  0  0  0  0
 23 81  1  0  0  0  0
 24 25  1  0  0  0  0
 24 82  1  0  0  0  0
 24 83  1  0  0  0  0
 25 26  1  0  0  0  0
 25 84  1  0  0  0  0
 25 85  1  0  0  0  0
 26 27  1  0  0  0  0
 26 86  1  0  0  0  0
 26 87  1  0  0  0  0
 27 28  1  0  0  0  0
 27 88  1  0  0  0  0
 27 89  1  0  0  0  0
 28 29  1  0  0  0  0
 28 90  1  0  0  0  0
 28 91  1  0  0  0  0
 30 31  1  0  0  0  0
 30 92  1  0  0  0  0
 30 93  1  0  0  0  0
 31 32  1  0  0  0  0
 31 94  1  6  0  0  0
 32 95  1  0  0  0  0
 32 96  1  0  0  0  0
 33 34  1  0  0  0  0
 33 97  1  0  0  0  0
 33 98  1  0  0  0  0
 34 35  1  0  0  0  0
 34 99  1  6  0  0  0
 35100  1  0  0  0  0
 35101  1  0  0  0  0
 36 37  1  0  0  0  0
 37 38  1  0  0  0  0
 37102  1  0  0  0  0
 37103  1  0  0  0  0
 38 39  1  0  0  0  0
 38104  1  0  0  0  0
 38105  1  0  0  0  0
 39 40  1  0  0  0  0
 39106  1  0  0  0  0
 39107  1  0  0  0  0
 40 41  1  0  0  0  0
 40108  1  0  0  0  0
 40109  1  0  0  0  0
 41 42  1  0  0  0  0
 41110  1  0  0  0  0
 41111  1  0  0  0  0
 42 43  1  0  0  0  0
 42112  1  0  0  0  0
 42113  1  0  0  0  0
 43 44  1  0  0  0  0
 43114  1  0  0  0  0
 43115  1  0  0  0  0
 44 45  2  0  0  0  0
 44116  1  0  0  0  0
 45 46  1  0  0  0  0
 45117  1  0  0  0  0
 46 47  1  0  0  0  0
 46118  1  0  0  0  0
 46119  1  0  0  0  0
 47 48  1  0  0  0  0
 47120  1  0  0  0  0
 47121  1  0  0  0  0
 48 49  1  0  0  0  0
 48122  1  0  0  0  0
 48123  1  0  0  0  0
 49 50  1  0  0  0  0
 49124  1  0  0  0  0
 49125  1  0  0  0  0
 50 51  1  0  0  0  0
 50126  1  0  0  0  0
 50127  1  0  0  0  0
 51 52  1  0  0  0  0
 51128  1  0  0  0  0
 51129  1  0  0  0  0
 52 53  1  0  0  0  0
 52130  1  0  0  0  0
 52131  1  0  0  0  0
 53132  1  0  0  0  0
 53133  1  0  0  0  0
 53134  1  0  0  0  0
M  CHG  1   9  -1
M  END
$$$$
/media/chris/experiments/cd1a-new-docking/inputs/ligands/7sh4_ligand.pdb
 OpenBabel07012320073D

134133  0  0  1  0  0  0  0  0999 V2000
  -32.7146   58.6771   68.7689 C   0  0  0  0  0  0  0  0  0  0  0  0
  -34.4062   58.3144   63.3762 O   0  0  0  0  0  0  0  0  0  0  0  0
  -33.7887   61.7905   63.7469 P   0  0  1  0  0  0  0  0  0  0  0  0
  -31.4681   57.8778   68.4636 C   0  0  0  0  0  0  0  0  0  0  0  0
  -36.1511   59.3213   62.4064 O   0  0  0  0  0  0  0  0  0  0  0  0
  -31.1887   57.7878   66.9754 C   0  0  0  0  0  0  0  0  0  0  0  0
  -35.2304   61.1139   63.5864 O   0  0  0  0  0  0  0  0  0  0  0  0
  -30.9629   59.1234   66.2894 C   0  0  0  0  0  0  0  0  0  0  0  0
  -33.8154   62.6444   64.9539 O   0  5  0  0  0  0  0  0  0  0  0  0
  -29.7720   59.8966   66.8383 C   0  0  0  0  0  0  0  0  0  0  0  0
  -32.7645   60.7224   63.6525 O   0  0  0  0  0  0  0  0  0  0  0  0
  -29.5561   61.2370   66.1659 C   0  0  0  0  0  0  0  0  0  0  0  0
  -33.6242   62.7405   62.4768 O   0  0  0  0  0  0  0  0  0  0  0  0
  -29.3217   61.1306   64.6713 C   0  0  0  0  0  0  0  0  0  0  0  0
  -29.3212   64.6000   63.5298 O   0  0  0  0  0  0  0  0  0  0  0  0
  -28.1103   60.2861   64.2929 C   0  0  0  0  0  0  0  0  0  0  0  0
  -31.3517   62.7090   64.1037 O   0  0  0  0  0  0  0  0  0  0  0  0
  -27.8692   60.1959   62.8006 C   0  0  0  0  0  0  0  0  0  0  0  0
  -38.2720   59.8520   65.2990 O   0  0  0  0  0  0  0  0  0  0  0  0
  -29.0255   59.6014   62.0223 C   0  0  0  0  0  0  0  0  0  0  0  0
  -40.0171   59.9196   63.8811 O   0  0  0  0  0  0  0  0  0  0  0  0
  -29.3707   58.1982   62.4694 C   0  0  0  0  0  0  0  0  0  0  0  0
  -30.5074   57.5865   61.6940 C   0  0  0  0  0  0  0  0  0  0  0  0
  -30.8557   56.1934   62.1583 C   0  0  0  0  0  0  0  0  0  0  0  0
  -31.9879   55.5674   61.3695 C   0  0  0  0  0  0  0  0  0  0  0  0
  -33.2699   56.3659   61.4386 C   0  0  0  0  0  0  0  0  0  0  0  0
  -33.1556   57.7714   60.8872 C   0  0  0  0  0  0  0  0  0  0  0  0
  -34.4561   58.5504   60.9878 C   0  0  0  0  0  0  0  0  0  0  0  0
  -34.9553   58.7317   62.3924 C   0  0  0  0  0  0  0  0  0  0  0  0
  -37.0720   58.9080   63.4380 C   0  0  0  0  0  0  0  0  0  0  0  0
  -37.3490   60.1700   64.2050 C   0  0  2  0  0  0  0  0  0  0  0  0
  -36.0840   60.8130   64.7130 C   0  0  0  0  0  0  0  0  0  0  0  0
  -32.3143   62.9901   61.9273 C   0  0  0  0  0  0  0  0  0  0  0  0
  -31.4589   63.6152   63.0018 C   0  0  2  0  0  0  0  0  0  0  0  0
  -30.0851   63.9883   62.4984 C   0  0  0  0  0  0  0  0  0  0  0  0
  -39.5790   59.7587   64.9875 C   0  0  0  0  0  0  0  0  0  0  0  0
  -40.4161   59.4128   66.1798 C   0  0  0  0  0  0  0  0  0  0  0  0
  -41.6498   58.6087   65.7822 C   0  0  0  0  0  0  0  0  0  0  0  0
  -42.5642   59.3266   64.8032 C   0  0  0  0  0  0  0  0  0  0  0  0
  -43.8030   58.5230   64.4244 C   0  0  0  0  0  0  0  0  0  0  0  0
  -44.7142   59.2241   63.4341 C   0  0  0  0  0  0  0  0  0  0  0  0
  -44.0625   59.5448   62.0860 C   0  0  0  0  0  0  0  0  0  0  0  0
  -42.8273   60.4453   62.1571 C   0  0  0  0  0  0  0  0  0  0  0  0
  -43.1321   61.7739   62.7816 C   0  0  0  0  0  0  0  0  0  0  0  0
  -42.3033   62.5231   63.4826 C   0  0  0  0  0  0  0  0  0  0  0  0
  -40.8773   62.2016   63.8010 C   0  0  0  0  0  0  0  0  0  0  0  0
  -39.9089   63.2474   63.2562 C   0  0  0  0  0  0  0  0  0  0  0  0
  -39.9789   63.4161   61.7486 C   0  0  0  0  0  0  0  0  0  0  0  0
  -41.3412   63.8640   61.2477 C   0  0  0  0  0  0  0  0  0  0  0  0
  -41.8006   65.2076   61.7890 C   0  0  0  0  0  0  0  0  0  0  0  0
  -43.1739   65.6256   61.2862 C   0  0  0  0  0  0  0  0  0  0  0  0
  -44.2905   64.6713   61.6608 C   0  0  0  0  0  0  0  0  0  0  0  0
  -44.4580   64.5272   63.1477 C   0  0  0  0  0  0  0  0  0  0  0  0
  -32.8665   58.7103   69.8275 H   0  0  0  0  0  0  0  0  0  0  0  0
  -33.5585   58.2140   68.3018 H   0  0  0  0  0  0  0  0  0  0  0  0
  -32.6008   59.6726   68.3934 H   0  0  0  0  0  0  0  0  0  0  0  0
  -31.5914   56.8878   68.8505 H   0  0  0  0  0  0  0  0  0  0  0  0
  -30.6400   58.3774   68.9213 H   0  0  0  0  0  0  0  0  0  0  0  0
  -32.0243   57.3102   66.5078 H   0  0  0  0  0  0  0  0  0  0  0  0
  -30.2768   57.2376   66.8722 H   0  0  0  0  0  0  0  0  0  0  0  0
  -31.8414   59.7211   66.4153 H   0  0  0  0  0  0  0  0  0  0  0  0
  -30.7555   58.9165   65.2603 H   0  0  0  0  0  0  0  0  0  0  0  0
  -28.8918   59.3039   66.7012 H   0  0  0  0  0  0  0  0  0  0  0  0
  -29.9744   60.0927   67.8705 H   0  0  0  0  0  0  0  0  0  0  0  0
  -32.8443   60.1296   64.4161 H   0  0  0  0  0  0  0  0  0  0  0  0
  -28.7032   61.7059   66.6104 H   0  0  0  0  0  0  0  0  0  0  0  0
  -30.4503   61.8079   66.3055 H   0  0  0  0  0  0  0  0  0  0  0  0
  -29.1792   62.1170   64.2819 H   0  0  0  0  0  0  0  0  0  0  0  0
  -30.1800   60.6444   64.2569 H   0  0  0  0  0  0  0  0  0  0  0  0
  -28.4436   64.8321   63.1879 H   0  0  0  0  0  0  0  0  0  0  0  0
  -28.2579   59.2961   64.6711 H   0  0  0  0  0  0  0  0  0  0  0  0
  -27.2526   60.7637   64.7185 H   0  0  0  0  0  0  0  0  0  0  0  0
  -32.2391   62.4764   64.4186 H   0  0  0  0  0  0  0  0  0  0  0  0
  -27.0049   59.5870   62.6359 H   0  0  0  0  0  0  0  0  0  0  0  0
  -27.7421   61.1979   62.4473 H   0  0  0  0  0  0  0  0  0  0  0  0
  -28.7626   59.5752   60.9854 H   0  0  0  0  0  0  0  0  0  0  0  0
  -29.8832   60.2165   62.1979 H   0  0  0  0  0  0  0  0  0  0  0  0
  -29.6435   58.2291   63.5036 H   0  0  0  0  0  0  0  0  0  0  0  0
  -28.5073   57.5902   62.2971 H   0  0  0  0  0  0  0  0  0  0  0  0
  -30.2310   57.5425   60.6612 H   0  0  0  0  0  0  0  0  0  0  0  0
  -31.3692   58.2009   61.8510 H   0  0  0  0  0  0  0  0  0  0  0  0
  -31.1435   56.2400   63.1878 H   0  0  0  0  0  0  0  0  0  0  0  0
  -29.9894   55.5829   62.0106 H   0  0  0  0  0  0  0  0  0  0  0  0
  -32.1746   54.5887   61.7596 H   0  0  0  0  0  0  0  0  0  0  0  0
  -31.6847   55.5380   60.3437 H   0  0  0  0  0  0  0  0  0  0  0  0
  -33.5700   56.4308   62.4636 H   0  0  0  0  0  0  0  0  0  0  0  0
  -33.9847   55.8535   60.8292 H   0  0  0  0  0  0  0  0  0  0  0  0
  -32.8710   57.7127   59.8574 H   0  0  0  0  0  0  0  0  0  0  0  0
  -32.4239   58.2886   61.4721 H   0  0  0  0  0  0  0  0  0  0  0  0
  -35.2048   58.0277   60.4300 H   0  0  0  0  0  0  0  0  0  0  0  0
  -34.2604   59.5287   60.6014 H   0  0  0  0  0  0  0  0  0  0  0  0
  -36.6274   58.1683   64.0706 H   0  0  0  0  0  0  0  0  0  0  0  0
  -37.9610   58.4631   63.0423 H   0  0  0  0  0  0  0  0  0  0  0  0
  -37.7985   60.8886   63.5519 H   0  0  0  0  0  0  0  0  0  0  0  0
  -36.3238   61.7163   65.2340 H   0  0  0  0  0  0  0  0  0  0  0  0
  -35.5811   60.1472   65.3829 H   0  0  0  0  0  0  0  0  0  0  0  0
  -32.3928   63.6570   61.0942 H   0  0  0  0  0  0  0  0  0  0  0  0
  -31.8745   62.0734   61.5938 H   0  0  0  0  0  0  0  0  0  0  0  0
  -31.9325   64.5225   63.3138 H   0  0  0  0  0  0  0  0  0  0  0  0
  -29.5814   63.1051   62.1649 H   0  0  0  0  0  0  0  0  0  0  0  0
  -30.1913   64.6823   61.6910 H   0  0  0  0  0  0  0  0  0  0  0  0
  -40.7297   60.3168   66.6586 H   0  0  0  0  0  0  0  0  0  0  0  0
  -39.8255   58.8158   66.8429 H   0  0  0  0  0  0  0  0  0  0  0  0
  -42.2094   58.3905   66.6677 H   0  0  0  0  0  0  0  0  0  0  0  0
  -41.2994   57.7259   65.2895 H   0  0  0  0  0  0  0  0  0  0  0  0
  -42.0096   59.5337   63.9118 H   0  0  0  0  0  0  0  0  0  0  0  0
  -42.9042   60.2183   65.2871 H   0  0  0  0  0  0  0  0  0  0  0  0
  -44.3621   58.3266   65.3153 H   0  0  0  0  0  0  0  0  0  0  0  0
  -43.4585   57.6286   63.9487 H   0  0  0  0  0  0  0  0  0  0  0  0
  -45.0411   60.1431   63.8739 H   0  0  0  0  0  0  0  0  0  0  0  0
  -45.5178   58.5479   63.2296 H   0  0  0  0  0  0  0  0  0  0  0  0
  -44.7921   60.0316   61.4730 H   0  0  0  0  0  0  0  0  0  0  0  0
  -43.7258   58.6099   61.6890 H   0  0  0  0  0  0  0  0  0  0  0  0
  -42.4604   60.6065   61.1650 H   0  0  0  0  0  0  0  0  0  0  0  0
  -42.0972   59.9549   62.7666 H   0  0  0  0  0  0  0  0  0  0  0  0
  -44.0880   62.1396   62.6493 H   0  0  0  0  0  0  0  0  0  0  0  0
  -42.6735   63.4153   63.8457 H   0  0  0  0  0  0  0  0  0  0  0  0
  -40.6350   61.2521   63.3713 H   0  0  0  0  0  0  0  0  0  0  0  0
  -40.7764   62.1874   64.8662 H   0  0  0  0  0  0  0  0  0  0  0  0
  -38.9134   62.9549   63.5177 H   0  0  0  0  0  0  0  0  0  0  0  0
  -40.1853   64.1859   63.6894 H   0  0  0  0  0  0  0  0  0  0  0  0
  -39.7429   62.4775   61.2922 H   0  0  0  0  0  0  0  0  0  0  0  0
  -39.2812   64.1839   61.4868 H   0  0  0  0  0  0  0  0  0  0  0  0
  -42.0613   63.1252   61.5316 H   0  0  0  0  0  0  0  0  0  0  0  0
  -41.2537   63.9767   60.1872 H   0  0  0  0  0  0  0  0  0  0  0  0
  -41.0908   65.9522   61.4946 H   0  0  0  0  0  0  0  0  0  0  0  0
  -41.8699   65.1119   62.8525 H   0  0  0  0  0  0  0  0  0  0  0  0
  -43.1342   65.6930   60.2191 H   0  0  0  0  0  0  0  0  0  0  0  0
  -43.4002   66.5614   61.7530 H   0  0  0  0  0  0  0  0  0  0  0  0
  -44.0717   63.7093   61.2465 H   0  0  0  0  0  0  0  0  0  0  0  0
  -45.2024   65.0727   61.2709 H   0  0  0  0  0  0  0  0  0  0  0  0
  -43.5604   64.1266   63.5706 H   0  0  0  0  0  0  0  0  0  0  0  0
  -45.2744   63.8666   63.3524 H   0  0  0  0  0  0  0  0  0  0  0  0
  -44.6583   65.4860   63.5786 H   0  0  0  0  0  0  0  0  0  0  0  0
  1  4  1  0  0  0  0
  1 54  1  0  0  0  0
  1 55  1  0  0  0  0
  1 56  1  0  0  0  0
  2 29  2  0  0  0  0
  3  7  1  0  0  0  0
  3  9  2  1  0  0  0
  3 11  1  0  0  0  0
  3 13  1  0  0  0  0
  4  6  1  0  0  0  0
  4 57  1  0  0  0  0
  4 58  1  0  0  0  0
  5 29  1  0  0  0  0
  5 30  1  0  0  0  0
  6  8  1  0  0  0  0
  6 59  1  0  0  0  0
  6 60  1  0  0  0  0
  7 32  1  0  0  0  0
  8 10  1  0  0  0  0
  8 61  1  0  0  0  0
  8 62  1  0  0  0  0
 10 12  1  0  0  0  0
 10 63  1  0  0  0  0
 10 64  1  0  0  0  0
 11 65  1  0  0  0  0
 12 14  1  0  0  0  0
 12 66  1  0  0  0  0
 12 67  1  0  0  0  0
 13 33  1  0  0  0  0
 14 16  1  0  0  0  0
 14 68  1  0  0  0  0
 14 69  1  0  0  0  0
 15 35  1  0  0  0  0
 15 70  1  0  0  0  0
 16 18  1  0  0  0  0
 16 71  1  0  0  0  0
 16 72  1  0  0  0  0
 17 34  1  0  0  0  0
 17 73  1  0  0  0  0
 18 20  1  0  0  0  0
 18 74  1  0  0  0  0
 18 75  1  0  0  0  0
 19 31  1  0  0  0  0
 19 36  1  0  0  0  0
 20 22  1  0  0  0  0
 20 76  1  0  0  0  0
 20 77  1  0  0  0  0
 21 36  2  0  0  0  0
 22 23  1  0  0  0  0
 22 78  1  0  0  0  0
 22 79  1  0  0  0  0
 23 24  1  0  0  0  0
 23 80  1  0  0  0  0
 23 81  1  0  0  0  0
 24 25  1  0  0  0  0
 24 82  1  0  0  0  0
 24 83  1  0  0  0  0
 25 26  1  0  0  0  0
 25 84  1  0  0  0  0
 25 85  1  0  0  0  0
 26 27  1  0  0  0  0
 26 86  1  0  0  0  0
 26 87  1  0  0  0  0
 27 28  1  0  0  0  0
 27 88  1  0  0  0  0
 27 89  1  0  0  0  0
 28 29  1  0  0  0  0
 28 90  1  0  0  0  0
 28 91  1  0  0  0  0
 30 31  1  0  0  0  0
 30 92  1  0  0  0  0
 30 93  1  0  0  0  0
 31 32  1  0  0  0  0
 31 94  1  6  0  0  0
 32 95  1  0  0  0  0
 32 96  1  0  0  0  0
 33 34  1  0  0  0  0
 33 97  1  0  0  0  0
 33 98  1  0  0  0  0
 34 35  1  0  0  0  0
 34 99  1  1  0  0  0
 35100  1  0  0  0  0
 35101  1  0  0  0  0
 36 37  1  0  0  0  0
 37 38  1  0  0  0  0
 37102  1  0  0  0  0
 37103  1  0  0  0  0
 38 39  1  0  0  0  0
 38104  1  0  0  0  0
 38105  1  0  0  0  0
 39 40  1  0  0  0  0
 39106  1  0  0  0  0
 39107  1  0  0  0  0
 40 41  1  0  0  0  0
 40108  1  0  0  0  0
 40109  1  0  0  0  0
 41 42  1  0  0  0  0
 41110  1  0  0  0  0
 41111  1  0  0  0  0
 42 43  1  0  0  0  0
 42112  1  0  0  0  0
 42113  1  0  0  0  0
 43 44  1  0  0  0  0
 43114  1  0  0  0  0
 43115  1  0  0  0  0
 44 45  2  0  0  0  0
 44116  1  0  0  0  0
 45 46  1  0  0  0  0
 45117  1  0  0  0  0
 46 47  1  0  0  0  0
 46118  1  0  0  0  0
 46119  1  0  0  0  0
 47 48  1  0  0  0  0
 47120  1  0  0  0  0
 47121  1  0  0  0  0
 48 49  1  0  0  0  0
 48122  1  0  0  0  0
 48123  1  0  0  0  0
 49 50  1  0  0  0  0
 49124  1  0  0  0  0
 49125  1  0  0  0  0
 50 51  1  0  0  0  0
 50126  1  0  0  0  0
 50127  1  0  0  0  0
 51 52  1  0  0  0  0
 51128  1  0  0  0  0
 51129  1  0  0  0  0
 52 53  1  0  0  0  0
 52130  1  0  0  0  0
 52131  1  0  0  0  0
 53132  1  0  0  0  0
 53133  1  0  0  0  0
 53134  1  0  0  0  0
M  CHG  1   9  -1
M  END
$$$$
/media/chris/experiments/cd1a-new-docking/inputs/ligands/7sh4_ligand.pdb
 OpenBabel07012320073D

134133  0  0  1  0  0  0  0  0999 V2000
  -32.3854   56.6317   55.1899 C   0  0  0  0  0  0  0  0  0  0  0  0
  -34.6172   57.8911   63.1815 O   0  0  0  0  0  0  0  0  0  0  0  0
  -35.6684   62.1020   62.4058 P   0  0  1  0  0  0  0  0  0  0  0  0
  -31.0029   56.0428   55.0239 C   0  0  0  0  0  0  0  0  0  0  0  0
  -36.1511   59.3213   62.4064 O   0  0  0  0  0  0  0  0  0  0  0  0
  -30.2093   56.7298   53.9287 C   0  0  0  0  0  0  0  0  0  0  0  0
  -35.2304   61.1139   63.5864 O   0  0  0  0  0  0  0  0  0  0  0  0
  -29.9683   58.2120   54.1530 C   0  0  0  0  0  0  0  0  0  0  0  0
  -37.0301   62.5959   62.7036 O   0  5  0  0  0  0  0  0  0  0  0  0
  -31.2490   59.0254   54.2782 C   0  0  0  0  0  0  0  0  0  0  0  0
  -34.5810   63.0894   62.2031 O   0  0  0  0  0  0  0  0  0  0  0  0
  -31.0095   60.5070   54.4851 C   0  0  0  0  0  0  0  0  0  0  0  0
  -35.7515   61.1898   61.1005 O   0  0  0  0  0  0  0  0  0  0  0  0
  -32.2883   61.3102   54.6263 C   0  0  0  0  0  0  0  0  0  0  0  0
  -37.5584   61.7528   58.1628 O   0  0  0  0  0  0  0  0  0  0  0  0
  -33.2171   61.2127   53.4213 C   0  0  0  0  0  0  0  0  0  0  0  0
  -38.1876   62.3807   61.7173 O   0  0  0  0  0  0  0  0  0  0  0  0
  -34.4850   62.0292   53.5585 C   0  0  0  0  0  0  0  0  0  0  0  0
  -38.2720   59.8520   65.2990 O   0  0  0  0  0  0  0  0  0  0  0  0
  -35.3402   61.6480   54.7499 C   0  0  0  0  0  0  0  0  0  0  0  0
  -39.8075   59.1219   63.8261 O   0  0  0  0  0  0  0  0  0  0  0  0
  -35.7833   60.2021   54.7123 C   0  0  0  0  0  0  0  0  0  0  0  0
  -36.6484   59.8116   55.8813 C   0  0  0  0  0  0  0  0  0  0  0  0
  -35.9631   60.0033   57.2122 C   0  0  0  0  0  0  0  0  0  0  0  0
  -34.6853   59.2000   57.3462 C   0  0  0  0  0  0  0  0  0  0  0  0
  -34.0101   59.3810   58.6868 C   0  0  0  0  0  0  0  0  0  0  0  0
  -34.8533   58.9519   59.8689 C   0  0  0  0  0  0  0  0  0  0  0  0
  -34.1515   59.1632   61.1998 C   0  0  0  0  0  0  0  0  0  0  0  0
  -34.9553   58.7317   62.3924 C   0  0  0  0  0  0  0  0  0  0  0  0
  -37.0720   58.9080   63.4380 C   0  0  0  0  0  0  0  0  0  0  0  0
  -37.3490   60.1700   64.2050 C   0  0  2  0  0  0  0  0  0  0  0  0
  -36.0840   60.8130   64.7130 C   0  0  0  0  0  0  0  0  0  0  0  0
  -36.9919   60.5429   60.7502 C   0  0  0  0  0  0  0  0  0  0  0  0
  -38.0363   61.6080   60.5227 C   0  0  2  0  0  0  0  0  0  0  0  0
  -37.6953   62.5083   59.3595 C   0  0  0  0  0  0  0  0  0  0  0  0
  -39.4672   59.3329   64.9581 C   0  0  0  0  0  0  0  0  0  0  0  0
  -40.3113   59.0340   66.1581 C   0  0  0  0  0  0  0  0  0  0  0  0
  -40.5996   60.2950   66.9666 C   0  0  0  0  0  0  0  0  0  0  0  0
  -41.3553   61.3634   66.1937 C   0  0  0  0  0  0  0  0  0  0  0  0
  -41.6243   62.6265   67.0036 C   0  0  0  0  0  0  0  0  0  0  0  0
  -42.3932   63.6930   66.2461 C   0  0  0  0  0  0  0  0  0  0  0  0
  -41.7073   64.1863   64.9689 C   0  0  0  0  0  0  0  0  0  0  0  0
  -42.4624   65.2743   64.2024 C   0  0  0  0  0  0  0  0  0  0  0  0
  -41.7394   65.6937   62.9577 C   0  0  0  0  0  0  0  0  0  0  0  0
  -40.8502   66.6620   62.8520 C   0  0  0  0  0  0  0  0  0  0  0  0
  -40.3740   67.5478   63.9597 C   0  0  0  0  0  0  0  0  0  0  0  0
  -41.2157   68.8132   64.0962 C   0  0  0  0  0  0  0  0  0  0  0  0
  -41.2325   69.6721   62.8439 C   0  0  0  0  0  0  0  0  0  0  0  0
  -39.8558   70.1453   62.4104 C   0  0  0  0  0  0  0  0  0  0  0  0
  -39.8530   71.0206   61.1681 C   0  0  0  0  0  0  0  0  0  0  0  0
  -40.4419   70.3364   59.9439 C   0  0  0  0  0  0  0  0  0  0  0  0
  -40.4324   71.1884   58.6902 C   0  0  0  0  0  0  0  0  0  0  0  0
  -41.2037   72.4685   58.8513 C   0  0  0  0  0  0  0  0  0  0  0  0
  -32.9019   56.1143   55.9713 H   0  0  0  0  0  0  0  0  0  0  0  0
  -32.9292   56.5290   54.2741 H   0  0  0  0  0  0  0  0  0  0  0  0
  -32.3037   57.6683   55.4419 H   0  0  0  0  0  0  0  0  0  0  0  0
  -31.0983   55.0054   54.7799 H   0  0  0  0  0  0  0  0  0  0  0  0
  -30.4762   56.1823   55.9448 H   0  0  0  0  0  0  0  0  0  0  0  0
  -30.7429   56.6146   53.0084 H   0  0  0  0  0  0  0  0  0  0  0  0
  -29.2454   56.2655   53.9179 H   0  0  0  0  0  0  0  0  0  0  0  0
  -29.4056   58.5921   53.3261 H   0  0  0  0  0  0  0  0  0  0  0  0
  -29.4436   58.3078   55.0806 H   0  0  0  0  0  0  0  0  0  0  0  0
  -31.8057   58.6531   55.1127 H   0  0  0  0  0  0  0  0  0  0  0  0
  -31.7791   58.9195   53.3549 H   0  0  0  0  0  0  0  0  0  0  0  0
  -34.5103   63.6579   62.9859 H   0  0  0  0  0  0  0  0  0  0  0  0
  -30.4639   60.8829   53.6449 H   0  0  0  0  0  0  0  0  0  0  0  0
  -30.4666   60.6142   55.4009 H   0  0  0  0  0  0  0  0  0  0  0  0
  -32.0263   62.3380   54.7671 H   0  0  0  0  0  0  0  0  0  0  0  0
  -32.8196   60.9027   55.4608 H   0  0  0  0  0  0  0  0  0  0  0  0
  -37.3398   62.3474   57.4283 H   0  0  0  0  0  0  0  0  0  0  0  0
  -33.4895   60.1867   53.2877 H   0  0  0  0  0  0  0  0  0  0  0  0
  -32.6819   61.6073   52.5830 H   0  0  0  0  0  0  0  0  0  0  0  0
  -38.4063   61.7927   62.4571 H   0  0  0  0  0  0  0  0  0  0  0  0
  -35.0675   61.8972   52.6707 H   0  0  0  0  0  0  0  0  0  0  0  0
  -34.1835   63.0450   53.7074 H   0  0  0  0  0  0  0  0  0  0  0  0
  -36.2093   62.2720   54.7611 H   0  0  0  0  0  0  0  0  0  0  0  0
  -34.7460   61.7809   55.6298 H   0  0  0  0  0  0  0  0  0  0  0  0
  -34.9125   59.5804   54.7120 H   0  0  0  0  0  0  0  0  0  0  0  0
  -36.3713   60.0747   53.8275 H   0  0  0  0  0  0  0  0  0  0  0  0
  -36.9134   58.7799   55.7798 H   0  0  0  0  0  0  0  0  0  0  0  0
  -37.5085   60.4479   55.8697 H   0  0  0  0  0  0  0  0  0  0  0  0
  -36.6364   59.7034   57.9878 H   0  0  0  0  0  0  0  0  0  0  0  0
  -35.6983   61.0373   57.2877 H   0  0  0  0  0  0  0  0  0  0  0  0
  -34.0067   59.5085   56.5785 H   0  0  0  0  0  0  0  0  0  0  0  0
  -34.9469   58.1663   57.2572 H   0  0  0  0  0  0  0  0  0  0  0  0
  -33.7697   60.4170   58.8044 H   0  0  0  0  0  0  0  0  0  0  0  0
  -33.1440   58.7526   58.6824 H   0  0  0  0  0  0  0  0  0  0  0  0
  -35.0837   57.9122   59.7651 H   0  0  0  0  0  0  0  0  0  0  0  0
  -35.7367   59.5557   59.8709 H   0  0  0  0  0  0  0  0  0  0  0  0
  -33.9317   60.2054   61.3020 H   0  0  0  0  0  0  0  0  0  0  0  0
  -33.2714   58.5548   61.1844 H   0  0  0  0  0  0  0  0  0  0  0  0
  -36.6274   58.1683   64.0706 H   0  0  0  0  0  0  0  0  0  0  0  0
  -37.9610   58.4631   63.0423 H   0  0  0  0  0  0  0  0  0  0  0  0
  -37.7985   60.8886   63.5519 H   0  0  0  0  0  0  0  0  0  0  0  0
  -36.3238   61.7163   65.2340 H   0  0  0  0  0  0  0  0  0  0  0  0
  -35.5811   60.1472   65.3829 H   0  0  0  0  0  0  0  0  0  0  0  0
  -37.3007   59.8980   61.5462 H   0  0  0  0  0  0  0  0  0  0  0  0
  -36.8640   59.9578   59.8635 H   0  0  0  0  0  0  0  0  0  0  0  0
  -38.9568   61.1202   60.2786 H   0  0  0  0  0  0  0  0  0  0  0  0
  -38.4759   63.2291   59.2325 H   0  0  0  0  0  0  0  0  0  0  0  0
  -36.7669   62.9990   59.5648 H   0  0  0  0  0  0  0  0  0  0  0  0
  -39.7956   58.3325   66.7801 H   0  0  0  0  0  0  0  0  0  0  0  0
  -41.2434   58.6308   65.8211 H   0  0  0  0  0  0  0  0  0  0  0  0
  -39.6671   60.7088   67.2892 H   0  0  0  0  0  0  0  0  0  0  0  0
  -41.2247   60.0031   67.7846 H   0  0  0  0  0  0  0  0  0  0  0  0
  -42.2939   60.9551   65.8817 H   0  0  0  0  0  0  0  0  0  0  0  0
  -40.7396   61.6464   65.3656 H   0  0  0  0  0  0  0  0  0  0  0  0
  -40.6843   63.0395   67.3050 H   0  0  0  0  0  0  0  0  0  0  0  0
  -42.2328   62.3376   67.8349 H   0  0  0  0  0  0  0  0  0  0  0  0
  -42.5301   64.5314   66.8967 H   0  0  0  0  0  0  0  0  0  0  0  0
  -43.3153   63.2437   65.9414 H   0  0  0  0  0  0  0  0  0  0  0  0
  -41.5815   63.3481   64.3159 H   0  0  0  0  0  0  0  0  0  0  0  0
  -40.7839   64.6285   65.2796 H   0  0  0  0  0  0  0  0  0  0  0  0
  -42.5777   66.1272   64.8382 H   0  0  0  0  0  0  0  0  0  0  0  0
  -43.4116   64.8744   63.9127 H   0  0  0  0  0  0  0  0  0  0  0  0
  -41.9600   65.1712   62.0955 H   0  0  0  0  0  0  0  0  0  0  0  0
  -40.4446   66.8239   61.9170 H   0  0  0  0  0  0  0  0  0  0  0  0
  -39.3605   67.8290   63.7630 H   0  0  0  0  0  0  0  0  0  0  0  0
  -40.4586   66.9997   64.8747 H   0  0  0  0  0  0  0  0  0  0  0  0
  -40.8204   69.3969   64.9011 H   0  0  0  0  0  0  0  0  0  0  0  0
  -42.2234   68.5011   64.2753 H   0  0  0  0  0  0  0  0  0  0  0  0
  -41.8416   70.5315   63.0317 H   0  0  0  0  0  0  0  0  0  0  0  0
  -41.6181   69.0640   62.0524 H   0  0  0  0  0  0  0  0  0  0  0  0
  -39.2528   69.2836   62.2135 H   0  0  0  0  0  0  0  0  0  0  0  0
  -39.4756   70.7481   63.2086 H   0  0  0  0  0  0  0  0  0  0  0  0
  -38.8423   71.2954   60.9494 H   0  0  0  0  0  0  0  0  0  0  0  0
  -40.4673   71.8707   61.3802 H   0  0  0  0  0  0  0  0  0  0  0  0
  -41.4556   70.0723   60.1623 H   0  0  0  0  0  0  0  0  0  0  0  0
  -39.8258   69.4853   59.7416 H   0  0  0  0  0  0  0  0  0  0  0  0
  -40.8670   70.6255   57.8908 H   0  0  0  0  0  0  0  0  0  0  0  0
  -39.4150   71.4484   58.4846 H   0  0  0  0  0  0  0  0  0  0  0  0
  -42.2290   72.2435   59.0586 H   0  0  0  0  0  0  0  0  0  0  0  0
  -41.1393   73.0397   57.9487 H   0  0  0  0  0  0  0  0  0  0  0  0
  -40.7918   73.0337   59.6611 H   0  0  0  0  0  0  0  0  0  0  0  0
  1  4  1  0  0  0  0
  1 54  1  0  0  0  0
  1 55  1  0  0  0  0
  1 56  1  0  0  0  0
  2 29  2  0  0  0  0
  3  7  1  0  0  0  0
  3  9  2  1  0  0  0
  3 11  1  0  0  0  0
  3 13  1  0  0  0  0
  4  6  1  0  0  0  0
  4 57  1  0  0  0  0
  4 58  1  0  0  0  0
  5 29  1  0  0  0  0
  5 30  1  0  0  0  0
  6  8  1  0  0  0  0
  6 59  1  0  0  0  0
  6 60  1  0  0  0  0
  7 32  1  0  0  0  0
  8 10  1  0  0  0  0
  8 61  1  0  0  0  0
  8 62  1  0  0  0  0
 10 12  1  0  0  0  0
 10 63  1  0  0  0  0
 10 64  1  0  0  0  0
 11 65  1  0  0  0  0
 12 14  1  0  0  0  0
 12 66  1  0  0  0  0
 12 67  1  0  0  0  0
 13 33  1  0  0  0  0
 14 16  1  0  0  0  0
 14 68  1  0  0  0  0
 14 69  1  0  0  0  0
 15 35  1  0  0  0  0
 15 70  1  0  0  0  0
 16 18  1  0  0  0  0
 16 71  1  0  0  0  0
 16 72  1  0  0  0  0
 17 34  1  0  0  0  0
 17 73  1  0  0  0  0
 18 20  1  0  0  0  0
 18 74  1  0  0  0  0
 18 75  1  0  0  0  0
 19 31  1  0  0  0  0
 19 36  1  0  0  0  0
 20 22  1  0  0  0  0
 20 76  1  0  0  0  0
 20 77  1  0  0  0  0
 21 36  2  0  0  0  0
 22 23  1  0  0  0  0
 22 78  1  0  0  0  0
 22 79  1  0  0  0  0
 23 24  1  0  0  0  0
 23 80  1  0  0  0  0
 23 81  1  0  0  0  0
 24 25  1  0  0  0  0
 24 82  1  0  0  0  0
 24 83  1  0  0  0  0
 25 26  1  0  0  0  0
 25 84  1  0  0  0  0
 25 85  1  0  0  0  0
 26 27  1  0  0  0  0
 26 86  1  0  0  0  0
 26 87  1  0  0  0  0
 27 28  1  0  0  0  0
 27 88  1  0  0  0  0
 27 89  1  0  0  0  0
 28 29  1  0  0  0  0
 28 90  1  0  0  0  0
 28 91  1  0  0  0  0
 30 31  1  0  0  0  0
 30 92  1  0  0  0  0
 30 93  1  0  0  0  0
 31 32  1  0  0  0  0
 31 94  1  6  0  0  0
 32 95  1  0  0  0  0
 32 96  1  0  0  0  0
 33 34  1  0  0  0  0
 33 97  1  0  0  0  0
 33 98  1  0  0  0  0
 34 35  1  0  0  0  0
 34 99  1  6  0  0  0
 35100  1  0  0  0  0
 35101  1  0  0  0  0
 36 37  1  0  0  0  0
 37 38  1  0  0  0  0
 37102  1  0  0  0  0
 37103  1  0  0  0  0
 38 39  1  0  0  0  0
 38104  1  0  0  0  0
 38105  1  0  0  0  0
 39 40  1  0  0  0  0
 39106  1  0  0  0  0
 39107  1  0  0  0  0
 40 41  1  0  0  0  0
 40108  1  0  0  0  0
 40109  1  0  0  0  0
 41 42  1  0  0  0  0
 41110  1  0  0  0  0
 41111  1  0  0  0  0
 42 43  1  0  0  0  0
 42112  1  0  0  0  0
 42113  1  0  0  0  0
 43 44  1  0  0  0  0
 43114  1  0  0  0  0
 43115  1  0  0  0  0
 44 45  2  0  0  0  0
 44116  1  0  0  0  0
 45 46  1  0  0  0  0
 45117  1  0  0  0  0
 46 47  1  0  0  0  0
 46118  1  0  0  0  0
 46119  1  0  0  0  0
 47 48  1  0  0  0  0
 47120  1  0  0  0  0
 47121  1  0  0  0  0
 48 49  1  0  0  0  0
 48122  1  0  0  0  0
 48123  1  0  0  0  0
 49 50  1  0  0  0  0
 49124  1  0  0  0  0
 49125  1  0  0  0  0
 50 51  1  0  0  0  0
 50126  1  0  0  0  0
 50127  1  0  0  0  0
 51 52  1  0  0  0  0
 51128  1  0  0  0  0
 51129  1  0  0  0  0
 52 53  1  0  0  0  0
 52130  1  0  0  0  0
 52131  1  0  0  0  0
 53132  1  0  0  0  0
 53133  1  0  0  0  0
 53134  1  0  0  0  0
M  CHG  1   9  -1
M  END
$$$$
/media/chris/experiments/cd1a-new-docking/inputs/ligands/7sh4_ligand.pdb
 OpenBabel07012320073D

134133  0  0  1  0  0  0  0  0999 V2000
  -29.9731   67.5978   68.4826 C   0  0  0  0  0  0  0  0  0  0  0  0
  -34.4565   59.2318   63.8622 O   0  0  0  0  0  0  0  0  0  0  0  0
  -35.3336   62.9877   66.0786 P   0  0  1  0  0  0  0  0  0  0  0  0
  -28.4722   67.7074   68.6280 C   0  0  0  0  0  0  0  0  0  0  0  0
  -36.1511   59.3213   62.4064 O   0  0  0  0  0  0  0  0  0  0  0  0
  -27.8057   66.3535   68.7827 C   0  0  0  0  0  0  0  0  0  0  0  0
  -36.4293   62.0282   65.4148 O   0  0  0  0  0  0  0  0  0  0  0  0
  -28.0075   65.4085   67.6117 C   0  0  0  0  0  0  0  0  0  0  0  0
  -34.0856   62.8690   65.2943 O   0  5  0  0  0  0  0  0  0  0  0  0
  -27.3424   64.0523   67.8015 C   0  0  0  0  0  0  0  0  0  0  0  0
  -35.9402   64.3294   66.2534 O   0  0  0  0  0  0  0  0  0  0  0  0
  -27.5289   63.1146   66.6263 C   0  0  0  0  0  0  0  0  0  0  0  0
  -35.0625   62.3801   67.5278 O   0  0  0  0  0  0  0  0  0  0  0  0
  -26.8789   61.7592   66.8277 C   0  0  0  0  0  0  0  0  0  0  0  0
  -32.2101   63.3904   70.4461 O   0  0  0  0  0  0  0  0  0  0  0  0
  -27.0443   60.8112   65.6454 C   0  0  0  0  0  0  0  0  0  0  0  0
  -34.0846   60.4566   69.3044 O   0  0  0  0  0  0  0  0  0  0  0  0
  -28.4876   60.5124   65.2979 C   0  0  0  0  0  0  0  0  0  0  0  0
  -38.2720   59.8520   65.2990 O   0  0  0  0  0  0  0  0  0  0  0  0
  -28.6585   59.5571   64.1341 C   0  0  0  0  0  0  0  0  0  0  0  0
  -39.9885   59.4115   63.9134 O   0  0  0  0  0  0  0  0  0  0  0  0
  -30.1107   59.2937   63.8027 C   0  0  0  0  0  0  0  0  0  0  0  0
  -30.2978   58.3327   62.6585 C   0  0  0  0  0  0  0  0  0  0  0  0
  -29.6575   58.8090   61.3776 C   0  0  0  0  0  0  0  0  0  0  0  0
  -30.1971   60.1424   60.9010 C   0  0  0  0  0  0  0  0  0  0  0  0
  -31.6866   60.1201   60.6430 C   0  0  0  0  0  0  0  0  0  0  0  0
  -32.5221   59.7866   61.8610 C   0  0  0  0  0  0  0  0  0  0  0  0
  -34.0115   59.7562   61.5623 C   0  0  0  0  0  0  0  0  0  0  0  0
  -34.8698   59.4444   62.7543 C   0  0  0  0  0  0  0  0  0  0  0  0
  -37.0720   58.9080   63.4380 C   0  0  0  0  0  0  0  0  0  0  0  0
  -37.3490   60.1700   64.2050 C   0  0  2  0  0  0  0  0  0  0  0  0
  -36.0840   60.8130   64.7130 C   0  0  0  0  0  0  0  0  0  0  0  0
  -33.7652   62.5269   68.1406 C   0  0  0  0  0  0  0  0  0  0  0  0
  -33.7951   61.8458   69.4868 C   0  0  2  0  0  0  0  0  0  0  0  0
  -32.4999   62.0131   70.2446 C   0  0  0  0  0  0  0  0  0  0  0  0
  -39.5790   59.7587   64.9875 C   0  0  0  0  0  0  0  0  0  0  0  0
  -40.4582   60.1211   66.1441 C   0  0  0  0  0  0  0  0  0  0  0  0
  -41.7796   59.3604   66.1015 C   0  0  0  0  0  0  0  0  0  0  0  0
  -41.6236   57.8499   66.1669 C   0  0  0  0  0  0  0  0  0  0  0  0
  -42.9477   57.0970   66.1066 C   0  0  0  0  0  0  0  0  0  0  0  0
  -43.7369   57.3376   64.8331 C   0  0  0  0  0  0  0  0  0  0  0  0
  -43.0184   56.9133   63.5491 C   0  0  0  0  0  0  0  0  0  0  0  0
  -43.7945   57.1651   62.2546 C   0  0  0  0  0  0  0  0  0  0  0  0
  -43.0365   56.7096   61.0438 C   0  0  0  0  0  0  0  0  0  0  0  0
  -41.8486   57.1300   60.6543 C   0  0  0  0  0  0  0  0  0  0  0  0
  -41.0045   58.1540   61.3451 C   0  0  0  0  0  0  0  0  0  0  0  0
  -40.1284   58.9385   60.3727 C   0  0  0  0  0  0  0  0  0  0  0  0
  -39.1722   58.0684   59.5759 C   0  0  0  0  0  0  0  0  0  0  0  0
  -39.8680   57.0337   58.7085 C   0  0  0  0  0  0  0  0  0  0  0  0
  -40.7974   57.6161   57.6566 C   0  0  0  0  0  0  0  0  0  0  0  0
  -40.0912   58.5214   56.6589 C   0  0  0  0  0  0  0  0  0  0  0  0
  -39.0041   57.8342   55.8565 C   0  0  0  0  0  0  0  0  0  0  0  0
  -38.3173   58.7622   54.8939 C   0  0  0  0  0  0  0  0  0  0  0  0
  -30.3935   68.5761   68.3770 H   0  0  0  0  0  0  0  0  0  0  0  0
  -30.3821   67.1257   69.3513 H   0  0  0  0  0  0  0  0  0  0  0  0
  -30.2058   67.0142   67.6165 H   0  0  0  0  0  0  0  0  0  0  0  0
  -28.2530   68.2990   69.4922 H   0  0  0  0  0  0  0  0  0  0  0  0
  -28.0902   68.1590   67.7364 H   0  0  0  0  0  0  0  0  0  0  0  0
  -28.2012   65.8859   69.6601 H   0  0  0  0  0  0  0  0  0  0  0  0
  -26.7538   66.5400   68.8422 H   0  0  0  0  0  0  0  0  0  0  0  0
  -27.5998   65.8653   66.7342 H   0  0  0  0  0  0  0  0  0  0  0  0
  -29.0597   65.2330   67.5277 H   0  0  0  0  0  0  0  0  0  0  0  0
  -27.7590   63.5903   68.6721 H   0  0  0  0  0  0  0  0  0  0  0  0
  -26.2916   64.2293   67.8976 H   0  0  0  0  0  0  0  0  0  0  0  0
  -36.1151   64.7210   65.3834 H   0  0  0  0  0  0  0  0  0  0  0  0
  -27.1011   63.5702   65.7578 H   0  0  0  0  0  0  0  0  0  0  0  0
  -28.5804   62.9478   66.5193 H   0  0  0  0  0  0  0  0  0  0  0  0
  -27.3161   61.3011   67.6902 H   0  0  0  0  0  0  0  0  0  0  0  0
  -25.8292   61.9328   66.9413 H   0  0  0  0  0  0  0  0  0  0  0  0
  -31.3761   63.4774   70.9336 H   0  0  0  0  0  0  0  0  0  0  0  0
  -26.5565   59.8887   65.8821 H   0  0  0  0  0  0  0  0  0  0  0  0
  -26.6133   61.2963   64.7947 H   0  0  0  0  0  0  0  0  0  0  0  0
  -34.9178   60.3612   68.8170 H   0  0  0  0  0  0  0  0  0  0  0  0
  -28.9714   61.4340   65.0500 H   0  0  0  0  0  0  0  0  0  0  0  0
  -28.9190   60.0365   66.1537 H   0  0  0  0  0  0  0  0  0  0  0  0
  -28.1901   58.6277   64.3826 H   0  0  0  0  0  0  0  0  0  0  0  0
  -28.2084   60.0103   63.2756 H   0  0  0  0  0  0  0  0  0  0  0  0
  -30.5737   60.2231   63.5443 H   0  0  0  0  0  0  0  0  0  0  0  0
  -30.5559   58.8467   64.6669 H   0  0  0  0  0  0  0  0  0  0  0  0
  -31.3464   58.2050   62.4886 H   0  0  0  0  0  0  0  0  0  0  0  0
  -29.8225   57.4137   62.9314 H   0  0  0  0  0  0  0  0  0  0  0  0
  -29.8352   58.0784   60.6163 H   0  0  0  0  0  0  0  0  0  0  0  0
  -28.6137   58.9398   61.5731 H   0  0  0  0  0  0  0  0  0  0  0  0
  -29.6978   60.4068   59.9924 H   0  0  0  0  0  0  0  0  0  0  0  0
  -30.0181   60.8557   61.6782 H   0  0  0  0  0  0  0  0  0  0  0  0
  -31.8857   59.3878   59.8887 H   0  0  0  0  0  0  0  0  0  0  0  0
  -31.9617   61.1096   60.3428 H   0  0  0  0  0  0  0  0  0  0  0  0
  -32.3393   60.5248   62.6136 H   0  0  0  0  0  0  0  0  0  0  0  0
  -32.2389   58.8080   62.1880 H   0  0  0  0  0  0  0  0  0  0  0  0
  -34.1893   59.0104   60.8159 H   0  0  0  0  0  0  0  0  0  0  0  0
  -34.2809   60.7392   61.2368 H   0  0  0  0  0  0  0  0  0  0  0  0
  -36.6274   58.1683   64.0706 H   0  0  0  0  0  0  0  0  0  0  0  0
  -37.9610   58.4631   63.0423 H   0  0  0  0  0  0  0  0  0  0  0  0
  -37.7985   60.8886   63.5519 H   0  0  0  0  0  0  0  0  0  0  0  0
  -35.5824   60.1428   65.3795 H   0  0  0  0  0  0  0  0  0  0  0  0
  -35.4356   61.0386   63.8923 H   0  0  0  0  0  0  0  0  0  0  0  0
  -33.5401   63.5654   68.2658 H   0  0  0  0  0  0  0  0  0  0  0  0
  -33.0135   62.0843   67.5210 H   0  0  0  0  0  0  0  0  0  0  0  0
  -34.5606   62.3092   70.0736 H   0  0  0  0  0  0  0  0  0  0  0  0
  -32.5841   61.5291   71.1952 H   0  0  0  0  0  0  0  0  0  0  0  0
  -31.7082   61.5748   69.6737 H   0  0  0  0  0  0  0  0  0  0  0  0
  -40.6604   61.1713   66.1115 H   0  0  0  0  0  0  0  0  0  0  0  0
  -39.9489   59.8592   67.0479 H   0  0  0  0  0  0  0  0  0  0  0  0
  -42.2816   59.6080   65.1896 H   0  0  0  0  0  0  0  0  0  0  0  0
  -42.3342   59.6529   66.9685 H   0  0  0  0  0  0  0  0  0  0  0  0
  -41.1336   57.5998   67.0846 H   0  0  0  0  0  0  0  0  0  0  0  0
  -41.0557   57.5555   65.3092 H   0  0  0  0  0  0  0  0  0  0  0  0
  -43.5478   57.4044   66.9375 H   0  0  0  0  0  0  0  0  0  0  0  0
  -42.7121   56.0536   66.1324 H   0  0  0  0  0  0  0  0  0  0  0  0
  -43.9511   58.3838   64.7657 H   0  0  0  0  0  0  0  0  0  0  0  0
  -44.6170   56.7331   64.9025 H   0  0  0  0  0  0  0  0  0  0  0  0
  -42.8152   55.8648   63.6145 H   0  0  0  0  0  0  0  0  0  0  0  0
  -42.1368   57.5166   63.4889 H   0  0  0  0  0  0  0  0  0  0  0  0
  -43.9872   58.2139   62.1665 H   0  0  0  0  0  0  0  0  0  0  0  0
  -44.7051   56.6053   62.3026 H   0  0  0  0  0  0  0  0  0  0  0  0
  -43.4907   55.9941   60.4550 H   0  0  0  0  0  0  0  0  0  0  0  0
  -41.4652   56.7132   59.7916 H   0  0  0  0  0  0  0  0  0  0  0  0
  -40.3735   57.6583   62.0528 H   0  0  0  0  0  0  0  0  0  0  0  0
  -41.6620   58.8488   61.8247 H   0  0  0  0  0  0  0  0  0  0  0  0
  -39.5542   59.6475   60.9317 H   0  0  0  0  0  0  0  0  0  0  0  0
  -40.7840   59.4083   59.6697 H   0  0  0  0  0  0  0  0  0  0  0  0
  -38.5292   57.5573   60.2616 H   0  0  0  0  0  0  0  0  0  0  0  0
  -38.6332   58.7173   58.9176 H   0  0  0  0  0  0  0  0  0  0  0  0
  -40.4430   56.3952   59.3461 H   0  0  0  0  0  0  0  0  0  0  0  0
  -39.0978   56.5124   58.1793 H   0  0  0  0  0  0  0  0  0  0  0  0
  -41.5561   58.1849   58.1524 H   0  0  0  0  0  0  0  0  0  0  0  0
  -41.2029   56.7942   57.1044 H   0  0  0  0  0  0  0  0  0  0  0  0
  -39.6483   59.3330   57.1975 H   0  0  0  0  0  0  0  0  0  0  0  0
  -40.8328   58.8439   55.9583 H   0  0  0  0  0  0  0  0  0  0  0  0
  -39.4436   57.0310   55.3028 H   0  0  0  0  0  0  0  0  0  0  0  0
  -38.2667   57.4825   56.5474 H   0  0  0  0  0  0  0  0  0  0  0  0
  -39.0293   59.1333   54.1866 H   0  0  0  0  0  0  0  0  0  0  0  0
  -37.5445   58.2322   54.3774 H   0  0  0  0  0  0  0  0  0  0  0  0
  -37.8891   59.5817   55.4324 H   0  0  0  0  0  0  0  0  0  0  0  0
  1  4  1  0  0  0  0
  1 54  1  0  0  0  0
  1 55  1  0  0  0  0
  1 56  1  0  0  0  0
  2 29  2  0  0  0  0
  3  7  1  0  0  0  0
  3  9  2  6  0  0  0
  3 11  1  0  0  0  0
  3 13  1  0  0  0  0
  4  6  1  0  0  0  0
  4 57  1  0  0  0  0
  4 58  1  0  0  0  0
  5 29  1  0  0  0  0
  5 30  1  0  0  0  0
  6  8  1  0  0  0  0
  6 59  1  0  0  0  0
  6 60  1  0  0  0  0
  7 32  1  0  0  0  0
  8 10  1  0  0  0  0
  8 61  1  0  0  0  0
  8 62  1  0  0  0  0
 10 12  1  0  0  0  0
 10 63  1  0  0  0  0
 10 64  1  0  0  0  0
 11 65  1  0  0  0  0
 12 14  1  0  0  0  0
 12 66  1  0  0  0  0
 12 67  1  0  0  0  0
 13 33  1  0  0  0  0
 14 16  1  0  0  0  0
 14 68  1  0  0  0  0
 14 69  1  0  0  0  0
 15 35  1  0  0  0  0
 15 70  1  0  0  0  0
 16 18  1  0  0  0  0
 16 71  1  0  0  0  0
 16 72  1  0  0  0  0
 17 34  1  0  0  0  0
 17 73  1  0  0  0  0
 18 20  1  0  0  0  0
 18 74  1  0  0  0  0
 18 75  1  0  0  0  0
 19 31  1  0  0  0  0
 19 36  1  0  0  0  0
 20 22  1  0  0  0  0
 20 76  1  0  0  0  0
 20 77  1  0  0  0  0
 21 36  2  0  0  0  0
 22 23  1  0  0  0  0
 22 78  1  0  0  0  0
 22 79  1  0  0  0  0
 23 24  1  0  0  0  0
 23 80  1  0  0  0  0
 23 81  1  0  0  0  0
 24 25  1  0  0  0  0
 24 82  1  0  0  0  0
 24 83  1  0  0  0  0
 25 26  1  0  0  0  0
 25 84  1  0  0  0  0
 25 85  1  0  0  0  0
 26 27  1  0  0  0  0
 26 86  1  0  0  0  0
 26 87  1  0  0  0  0
 27 28  1  0  0  0  0
 27 88  1  0  0  0  0
 27 89  1  0  0  0  0
 28 29  1  0  0  0  0
 28 90  1  0  0  0  0
 28 91  1  0  0  0  0
 30 31  1  0  0  0  0
 30 92  1  0  0  0  0
 30 93  1  0  0  0  0
 31 32  1  0  0  0  0
 31 94  1  6  0  0  0
 32 95  1  0  0  0  0
 32 96  1  0  0  0  0
 33 34  1  0  0  0  0
 33 97  1  0  0  0  0
 33 98  1  0  0  0  0
 34 35  1  0  0  0  0
 34 99  1  1  0  0  0
 35100  1  0  0  0  0
 35101  1  0  0  0  0
 36 37  1  0  0  0  0
 37 38  1  0  0  0  0
 37102  1  0  0  0  0
 37103  1  0  0  0  0
 38 39  1  0  0  0  0
 38104  1  0  0  0  0
 38105  1  0  0  0  0
 39 40  1  0  0  0  0
 39106  1  0  0  0  0
 39107  1  0  0  0  0
 40 41  1  0  0  0  0
 40108  1  0  0  0  0
 40109  1  0  0  0  0
 41 42  1  0  0  0  0
 41110  1  0  0  0  0
 41111  1  0  0  0  0
 42 43  1  0  0  0  0
 42112  1  0  0  0  0
 42113  1  0  0  0  0
 43 44  1  0  0  0  0
 43114  1  0  0  0  0
 43115  1  0  0  0  0
 44 45  2  0  0  0  0
 44116  1  0  0  0  0
 45 46  1  0  0  0  0
 45117  1  0  0  0  0
 46 47  1  0  0  0  0
 46118  1  0  0  0  0
 46119  1  0  0  0  0
 47 48  1  0  0  0  0
 47120  1  0  0  0  0
 47121  1  0  0  0  0
 48 49  1  0  0  0  0
 48122  1  0  0  0  0
 48123  1  0  0  0  0
 49 50  1  0  0  0  0
 49124  1  0  0  0  0
 49125  1  0  0  0  0
 50 51  1  0  0  0  0
 50126  1  0  0  0  0
 50127  1  0  0  0  0
 51 52  1  0  0  0  0
 51128  1  0  0  0  0
 51129  1  0  0  0  0
 52 53  1  0  0  0  0
 52130  1  0  0  0  0
 52131  1  0  0  0  0
 53132  1  0  0  0  0
 53133  1  0  0  0  0
 53134  1  0  0  0  0
M  CHG  1   9  -1
M  END
$$$$
/media/chris/experiments/cd1a-new-docking/inputs/ligands/7sh4_ligand.pdb
 OpenBabel07012320073D

134133  0  0  1  0  0  0  0  0999 V2000
  -42.7729   63.0084   62.7115 C   0  0  0  0  0  0  0  0  0  0  0  0
  -38.2161   59.9780   61.2765 O   0  0  0  0  0  0  0  0  0  0  0  0
  -34.0491   60.2433   66.3537 P   0  0  1  0  0  0  0  0  0  0  0  0
  -42.7399   62.3082   61.3720 C   0  0  0  0  0  0  0  0  0  0  0  0
  -38.3690   58.5038   62.9506 O   0  0  0  0  0  0  0  0  0  0  0  0
  -44.0137   61.5333   61.0928 C   0  0  0  0  0  0  0  0  0  0  0  0
  -35.4212   59.8922   65.6081 O   0  0  0  0  0  0  0  0  0  0  0  0
  -45.2748   62.3776   61.0509 C   0  0  0  0  0  0  0  0  0  0  0  0
  -34.0061   61.7057   66.5688 O   0  5  0  0  0  0  0  0  0  0  0  0
  -46.5390   61.5718   60.7860 C   0  0  0  0  0  0  0  0  0  0  0  0
  -33.9191   59.3465   67.5274 O   0  0  0  0  0  0  0  0  0  0  0  0
  -46.5129   60.8149   59.4739 C   0  0  0  0  0  0  0  0  0  0  0  0
  -32.8969   59.8652   65.3183 O   0  0  0  0  0  0  0  0  0  0  0  0
  -47.7814   60.0276   59.2071 C   0  0  0  0  0  0  0  0  0  0  0  0
  -31.4835   63.7734   65.2136 O   0  0  0  0  0  0  0  0  0  0  0  0
  -48.0983   58.9841   60.2723 C   0  0  0  0  0  0  0  0  0  0  0  0
  -29.9182   61.7038   66.3515 O   0  0  0  0  0  0  0  0  0  0  0  0
  -47.0137   57.9424   60.4502 C   0  0  0  0  0  0  0  0  0  0  0  0
  -38.2720   59.8520   65.2990 O   0  0  0  0  0  0  0  0  0  0  0  0
  -46.7071   57.1484   59.1965 C   0  0  0  0  0  0  0  0  0  0  0  0
  -36.8606   59.5894   67.0308 O   0  0  0  0  0  0  0  0  0  0  0  0
  -45.6324   56.1062   59.4130 C   0  0  0  0  0  0  0  0  0  0  0  0
  -44.3215   56.6864   59.8740 C   0  0  0  0  0  0  0  0  0  0  0  0
  -43.2508   55.6412   60.0710 C   0  0  0  0  0  0  0  0  0  0  0  0
  -41.9348   56.2186   60.5511 C   0  0  0  0  0  0  0  0  0  0  0  0
  -41.3543   57.2403   59.5998 C   0  0  0  0  0  0  0  0  0  0  0  0
  -40.0298   57.8219   60.0469 C   0  0  0  0  0  0  0  0  0  0  0  0
  -40.1178   58.5178   61.3946 C   0  0  0  0  0  0  0  0  0  0  0  0
  -38.8234   59.1206   61.8593 C   0  0  0  0  0  0  0  0  0  0  0  0
  -37.0720   58.9080   63.4380 C   0  0  0  0  0  0  0  0  0  0  0  0
  -37.3490   60.1700   64.2050 C   0  0  2  0  0  0  0  0  0  0  0  0
  -36.0840   60.8130   64.7130 C   0  0  0  0  0  0  0  0  0  0  0  0
  -31.5128   60.0453   65.6815 C   0  0  0  0  0  0  0  0  0  0  0  0
  -31.2915   61.5026   66.0043 C   0  0  2  0  0  0  0  0  0  0  0  0
  -31.6781   62.4098   64.8609 C   0  0  0  0  0  0  0  0  0  0  0  0
  -37.8399   60.0926   66.5518 C   0  0  0  0  0  0  0  0  0  0  0  0
  -38.7148   61.0747   67.2675 C   0  0  0  0  0  0  0  0  0  0  0  0
  -39.8670   61.5436   66.3848 C   0  0  0  0  0  0  0  0  0  0  0  0
  -40.7820   62.5570   67.0525 C   0  0  0  0  0  0  0  0  0  0  0  0
  -41.9403   63.0073   66.1696 C   0  0  0  0  0  0  0  0  0  0  0  0
  -42.8690   61.8833   65.7495 C   0  0  0  0  0  0  0  0  0  0  0  0
  -43.5567   61.1582   66.9099 C   0  0  0  0  0  0  0  0  0  0  0  0
  -42.6123   60.5027   67.9198 C   0  0  0  0  0  0  0  0  0  0  0  0
  -43.3564   59.7995   69.0151 C   0  0  0  0  0  0  0  0  0  0  0  0
  -43.7377   60.3175   70.1665 C   0  0  0  0  0  0  0  0  0  0  0  0
  -43.5068   61.7241   70.6211 C   0  0  0  0  0  0  0  0  0  0  0  0
  -44.6462   62.6586   70.2250 C   0  0  0  0  0  0  0  0  0  0  0  0
  -44.4323   64.0983   70.6583 C   0  0  0  0  0  0  0  0  0  0  0  0
  -43.1920   64.7379   70.0585 C   0  0  0  0  0  0  0  0  0  0  0  0
  -43.1909   64.8075   68.5404 C   0  0  0  0  0  0  0  0  0  0  0  0
  -41.9316   65.4363   67.9639 C   0  0  0  0  0  0  0  0  0  0  0  0
  -41.9195   65.5299   66.4510 C   0  0  0  0  0  0  0  0  0  0  0  0
  -43.0442   66.3686   65.9113 C   0  0  0  0  0  0  0  0  0  0  0  0
  -41.8553   63.5383   62.8597 H   0  0  0  0  0  0  0  0  0  0  0  0
  -42.8962   62.2842   63.4895 H   0  0  0  0  0  0  0  0  0  0  0  0
  -43.5907   63.6981   62.7335 H   0  0  0  0  0  0  0  0  0  0  0  0
  -41.9142   61.6279   61.3601 H   0  0  0  0  0  0  0  0  0  0  0  0
  -42.6414   63.0576   60.6146 H   0  0  0  0  0  0  0  0  0  0  0  0
  -44.1309   60.7973   61.8605 H   0  0  0  0  0  0  0  0  0  0  0  0
  -43.9014   61.1098   60.1166 H   0  0  0  0  0  0  0  0  0  0  0  0
  -45.1688   63.1058   60.2741 H   0  0  0  0  0  0  0  0  0  0  0  0
  -45.3848   62.8256   62.0164 H   0  0  0  0  0  0  0  0  0  0  0  0
  -47.3716   62.2438   60.7722 H   0  0  0  0  0  0  0  0  0  0  0  0
  -46.6159   60.8438   61.5664 H   0  0  0  0  0  0  0  0  0  0  0  0
  -34.6110   59.5574   68.1737 H   0  0  0  0  0  0  0  0  0  0  0  0
  -45.6882   60.1334   59.4919 H   0  0  0  0  0  0  0  0  0  0  0  0
  -46.4213   61.5403   58.6927 H   0  0  0  0  0  0  0  0  0  0  0  0
  -47.6758   59.5276   58.2670 H   0  0  0  0  0  0  0  0  0  0  0  0
  -48.5887   60.7298   59.2114 H   0  0  0  0  0  0  0  0  0  0  0  0
  -31.7369   64.3396   64.4679 H   0  0  0  0  0  0  0  0  0  0  0  0
  -49.0035   58.4846   59.9964 H   0  0  0  0  0  0  0  0  0  0  0  0
  -48.1850   59.5053   61.2027 H   0  0  0  0  0  0  0  0  0  0  0  0
  -29.6811   61.1166   67.0862 H   0  0  0  0  0  0  0  0  0  0  0  0
  -47.3254   57.2594   61.2127 H   0  0  0  0  0  0  0  0  0  0  0  0
  -46.1189   58.4693   60.7084 H   0  0  0  0  0  0  0  0  0  0  0  0
  -46.3795   57.8247   58.4347 H   0  0  0  0  0  0  0  0  0  0  0  0
  -47.6020   56.6353   58.9123 H   0  0  0  0  0  0  0  0  0  0  0  0
  -45.4692   55.5903   58.4899 H   0  0  0  0  0  0  0  0  0  0  0  0
  -45.9778   55.4520   60.1861 H   0  0  0  0  0  0  0  0  0  0  0  0
  -44.4803   57.1913   60.8039 H   0  0  0  0  0  0  0  0  0  0  0  0
  -43.9806   57.3537   59.1102 H   0  0  0  0  0  0  0  0  0  0  0  0
  -43.0842   55.1448   59.1378 H   0  0  0  0  0  0  0  0  0  0  0  0
  -43.5980   54.9686   60.8273 H   0  0  0  0  0  0  0  0  0  0  0  0
  -41.2324   55.4192   60.6626 H   0  0  0  0  0  0  0  0  0  0  0  0
  -42.1241   56.7171   61.4788 H   0  0  0  0  0  0  0  0  0  0  0  0
  -42.0560   58.0418   59.4991 H   0  0  0  0  0  0  0  0  0  0  0  0
  -41.1710   56.7317   58.6764 H   0  0  0  0  0  0  0  0  0  0  0  0
  -39.7040   58.5322   59.3159 H   0  0  0  0  0  0  0  0  0  0  0  0
  -39.3391   57.0109   60.1473 H   0  0  0  0  0  0  0  0  0  0  0  0
  -40.4351   57.8009   62.1228 H   0  0  0  0  0  0  0  0  0  0  0  0
  -40.8105   59.3252   61.2802 H   0  0  0  0  0  0  0  0  0  0  0  0
  -36.4020   59.0962   62.6252 H   0  0  0  0  0  0  0  0  0  0  0  0
  -36.6048   58.1555   64.0382 H   0  0  0  0  0  0  0  0  0  0  0  0
  -37.7985   60.8886   63.5519 H   0  0  0  0  0  0  0  0  0  0  0  0
  -35.4401   61.0403   63.8892 H   0  0  0  0  0  0  0  0  0  0  0  0
  -36.3193   61.7188   65.2317 H   0  0  0  0  0  0  0  0  0  0  0  0
  -30.8843   59.7563   64.8652 H   0  0  0  0  0  0  0  0  0  0  0  0
  -31.2737   59.4400   66.5308 H   0  0  0  0  0  0  0  0  0  0  0  0
  -31.9228   61.7569   66.8299 H   0  0  0  0  0  0  0  0  0  0  0  0
  -31.0742   62.1778   64.0087 H   0  0  0  0  0  0  0  0  0  0  0  0
  -32.7128   62.2570   64.6352 H   0  0  0  0  0  0  0  0  0  0  0  0
  -38.1265   61.9224   67.5508 H   0  0  0  0  0  0  0  0  0  0  0  0
  -39.1267   60.5919   68.1290 H   0  0  0  0  0  0  0  0  0  0  0  0
  -40.4518   60.6898   66.1126 H   0  0  0  0  0  0  0  0  0  0  0  0
  -39.4308   62.0301   65.5375 H   0  0  0  0  0  0  0  0  0  0  0  0
  -40.2013   63.4169   67.3134 H   0  0  0  0  0  0  0  0  0  0  0  0
  -41.2080   62.0786   67.9096 H   0  0  0  0  0  0  0  0  0  0  0  0
  -41.5357   63.4571   65.2871 H   0  0  0  0  0  0  0  0  0  0  0  0
  -42.5243   63.6909   66.7498 H   0  0  0  0  0  0  0  0  0  0  0  0
  -42.2971   61.1656   65.1994 H   0  0  0  0  0  0  0  0  0  0  0  0
  -43.6471   62.3333   65.1690 H   0  0  0  0  0  0  0  0  0  0  0  0
  -44.1830   60.3945   66.4983 H   0  0  0  0  0  0  0  0  0  0  0  0
  -44.0958   61.9078   67.4506 H   0  0  0  0  0  0  0  0  0  0  0  0
  -41.9930   61.2593   68.3543 H   0  0  0  0  0  0  0  0  0  0  0  0
  -42.0276   59.7738   67.3986 H   0  0  0  0  0  0  0  0  0  0  0  0
  -43.5947   58.8088   68.8513 H   0  0  0  0  0  0  0  0  0  0  0  0
  -44.2430   59.6938   70.8151 H   0  0  0  0  0  0  0  0  0  0  0  0
  -42.5997   62.0827   70.1813 H   0  0  0  0  0  0  0  0  0  0  0  0
  -43.4484   61.7159   71.6895 H   0  0  0  0  0  0  0  0  0  0  0  0
  -45.5487   62.3007   70.6747 H   0  0  0  0  0  0  0  0  0  0  0  0
  -44.6949   62.6573   69.1561 H   0  0  0  0  0  0  0  0  0  0  0  0
  -44.3422   64.1205   71.7243 H   0  0  0  0  0  0  0  0  0  0  0  0
  -45.2739   64.6588   70.3084 H   0  0  0  0  0  0  0  0  0  0  0  0
  -42.3399   64.1693   70.3676 H   0  0  0  0  0  0  0  0  0  0  0  0
  -43.1703   65.7483   70.4097 H   0  0  0  0  0  0  0  0  0  0  0  0
  -44.0335   65.3880   68.2272 H   0  0  0  0  0  0  0  0  0  0  0  0
  -43.2350   63.8015   68.1786 H   0  0  0  0  0  0  0  0  0  0  0  0
  -41.0923   64.8476   68.2702 H   0  0  0  0  0  0  0  0  0  0  0  0
  -41.8920   66.4395   68.3340 H   0  0  0  0  0  0  0  0  0  0  0  0
  -42.0044   64.5429   66.0465 H   0  0  0  0  0  0  0  0  0  0  0  0
  -41.0013   65.9983   66.1640 H   0  0  0  0  0  0  0  0  0  0  0  0
  -43.9804   65.9265   66.1815 H   0  0  0  0  0  0  0  0  0  0  0  0
  -42.9695   66.4221   64.8452 H   0  0  0  0  0  0  0  0  0  0  0  0
  -42.9833   67.3544   66.3230 H   0  0  0  0  0  0  0  0  0  0  0  0
  1  4  1  0  0  0  0
  1 54  1  0  0  0  0
  1 55  1  0  0  0  0
  1 56  1  0  0  0  0
  2 29  2  0  0  0  0
  3  7  1  0  0  0  0
  3  9  2  1  0  0  0
  3 11  1  0  0  0  0
  3 13  1  0  0  0  0
  4  6  1  0  0  0  0
  4 57  1  0  0  0  0
  4 58  1  0  0  0  0
  5 29  1  0  0  0  0
  5 30  1  0  0  0  0
  6  8  1  0  0  0  0
  6 59  1  0  0  0  0
  6 60  1  0  0  0  0
  7 32  1  0  0  0  0
  8 10  1  0  0  0  0
  8 61  1  0  0  0  0
  8 62  1  0  0  0  0
 10 12  1  0  0  0  0
 10 63  1  0  0  0  0
 10 64  1  0  0  0  0
 11 65  1  0  0  0  0
 12 14  1  0  0  0  0
 12 66  1  0  0  0  0
 12 67  1  0  0  0  0
 13 33  1  0  0  0  0
 14 16  1  0  0  0  0
 14 68  1  0  0  0  0
 14 69  1  0  0  0  0
 15 35  1  0  0  0  0
 15 70  1  0  0  0  0
 16 18  1  0  0  0  0
 16 71  1  0  0  0  0
 16 72  1  0  0  0  0
 17 34  1  0  0  0  0
 17 73  1  0  0  0  0
 18 20  1  0  0  0  0
 18 74  1  0  0  0  0
 18 75  1  0  0  0  0
 19 31  1  0  0  0  0
 19 36  1  0  0  0  0
 20 22  1  0  0  0  0
 20 76  1  0  0  0  0
 20 77  1  0  0  0  0
 21 36  2  0  0  0  0
 22 23  1  0  0  0  0
 22 78  1  0  0  0  0
 22 79  1  0  0  0  0
 23 24  1  0  0  0  0
 23 80  1  0  0  0  0
 23 81  1  0  0  0  0
 24 25  1  0  0  0  0
 24 82  1  0  0  0  0
 24 83  1  0  0  0  0
 25 26  1  0  0  0  0
 25 84  1  0  0  0  0
 25 85  1  0  0  0  0
 26 27  1  0  0  0  0
 26 86  1  0  0  0  0
 26 87  1  0  0  0  0
 27 28  1  0  0  0  0
 27 88  1  0  0  0  0
 27 89  1  0  0  0  0
 28 29  1  0  0  0  0
 28 90  1  0  0  0  0
 28 91  1  0  0  0  0
 30 31  1  0  0  0  0
 30 92  1  0  0  0  0
 30 93  1  0  0  0  0
 31 32  1  0  0  0  0
 31 94  1  6  0  0  0
 32 95  1  0  0  0  0
 32 96  1  0  0  0  0
 33 34  1  0  0  0  0
 33 97  1  0  0  0  0
 33 98  1  0  0  0  0
 34 35  1  0  0  0  0
 34 99  1  1  0  0  0
 35100  1  0  0  0  0
 35101  1  0  0  0  0
 36 37  1  0  0  0  0
 37 38  1  0  0  0  0
 37102  1  0  0  0  0
 37103  1  0  0  0  0
 38 39  1  0  0  0  0
 38104  1  0  0  0  0
 38105  1  0  0  0  0
 39 40  1  0  0  0  0
 39106  1  0  0  0  0
 39107  1  0  0  0  0
 40 41  1  0  0  0  0
 40108  1  0  0  0  0
 40109  1  0  0  0  0
 41 42  1  0  0  0  0
 41110  1  0  0  0  0
 41111  1  0  0  0  0
 42 43  1  0  0  0  0
 42112  1  0  0  0  0
 42113  1  0  0  0  0
 43 44  1  0  0  0  0
 43114  1  0  0  0  0
 43115  1  0  0  0  0
 44 45  2  0  0  0  0
 44116  1  0  0  0  0
 45 46  1  0  0  0  0
 45117  1  0  0  0  0
 46 47  1  0  0  0  0
 46118  1  0  0  0  0
 46119  1  0  0  0  0
 47 48  1  0  0  0  0
 47120  1  0  0  0  0
 47121  1  0  0  0  0
 48 49  1  0  0  0  0
 48122  1  0  0  0  0
 48123  1  0  0  0  0
 49 50  1  0  0  0  0
 49124  1  0  0  0  0
 49125  1  0  0  0  0
 50 51  1  0  0  0  0
 50126  1  0  0  0  0
 50127  1  0  0  0  0
 51 52  1  0  0  0  0
 51128  1  0  0  0  0
 51129  1  0  0  0  0
 52 53  1  0  0  0  0
 52130  1  0  0  0  0
 52131  1  0  0  0  0
 53132  1  0  0  0  0
 53133  1  0  0  0  0
 53134  1  0  0  0  0
M  CHG  1   9  -1
M  END
$$$$
/media/chris/experiments/cd1a-new-docking/inputs/ligands/7sh4_ligand.pdb
 OpenBabel07012320073D

134133  0  0  1  0  0  0  0  0999 V2000
  -25.2999   65.2258   59.4615 C   0  0  0  0  0  0  0  0  0  0  0  0
  -38.9960   60.3074   61.7875 O   0  0  0  0  0  0  0  0  0  0  0  0
  -34.0491   60.2433   66.3537 P   0  0  1  0  0  0  0  0  0  0  0  0
  -26.7914   65.4422   59.3419 C   0  0  0  0  0  0  0  0  0  0  0  0
  -38.3690   58.5038   62.9506 O   0  0  0  0  0  0  0  0  0  0  0  0
  -27.5512   64.9093   60.5418 C   0  0  0  0  0  0  0  0  0  0  0  0
  -35.4212   59.8922   65.6081 O   0  0  0  0  0  0  0  0  0  0  0  0
  -29.0576   65.0843   60.4688 C   0  0  0  0  0  0  0  0  0  0  0  0
  -34.2885   60.1710   67.8112 O   0  5  0  0  0  0  0  0  0  0  0  0
  -29.7924   64.5561   61.6930 C   0  0  0  0  0  0  0  0  0  0  0  0
  -32.9766   59.4052   65.7656 O   0  0  0  0  0  0  0  0  0  0  0  0
  -29.5666   63.0797   61.9468 C   0  0  0  0  0  0  0  0  0  0  0  0
  -33.7429   61.7632   65.9812 O   0  0  0  0  0  0  0  0  0  0  0  0
  -30.3143   62.5551   63.1575 C   0  0  0  0  0  0  0  0  0  0  0  0
  -33.8527   62.9332   69.9689 O   0  0  0  0  0  0  0  0  0  0  0  0
  -30.0826   61.0740   63.4347 C   0  0  0  0  0  0  0  0  0  0  0  0
  -31.4256   63.0127   68.5090 O   0  0  0  0  0  0  0  0  0  0  0  0
  -30.4891   60.1668   62.2924 C   0  0  0  0  0  0  0  0  0  0  0  0
  -38.2720   59.8520   65.2990 O   0  0  0  0  0  0  0  0  0  0  0  0
  -31.9508   60.2740   61.9076 C   0  0  0  0  0  0  0  0  0  0  0  0
  -39.8075   59.1219   63.8261 O   0  0  0  0  0  0  0  0  0  0  0  0
  -32.3269   59.3433   60.7760 C   0  0  0  0  0  0  0  0  0  0  0  0
  -33.7731   59.4498   60.3701 C   0  0  0  0  0  0  0  0  0  0  0  0
  -34.1429   58.5057   59.2523 C   0  0  0  0  0  0  0  0  0  0  0  0
  -35.5933   58.6216   58.8291 C   0  0  0  0  0  0  0  0  0  0  0  0
  -36.5627   58.3402   59.9546 C   0  0  0  0  0  0  0  0  0  0  0  0
  -38.0203   58.4324   59.5553 C   0  0  0  0  0  0  0  0  0  0  0  0
  -38.9658   58.1609   60.7132 C   0  0  0  0  0  0  0  0  0  0  0  0
  -38.8234   59.1206   61.8593 C   0  0  0  0  0  0  0  0  0  0  0  0
  -37.0720   58.9080   63.4380 C   0  0  0  0  0  0  0  0  0  0  0  0
  -37.3490   60.1700   64.2050 C   0  0  2  0  0  0  0  0  0  0  0  0
  -36.0840   60.8130   64.7130 C   0  0  0  0  0  0  0  0  0  0  0  0
  -32.5522   62.4034   66.4837 C   0  0  0  0  0  0  0  0  0  0  0  0
  -32.5926   62.3666   67.9917 C   0  0  2  0  0  0  0  0  0  0  0  0
  -33.8373   63.0142   68.5494 C   0  0  0  0  0  0  0  0  0  0  0  0
  -39.4672   59.3329   64.9581 C   0  0  0  0  0  0  0  0  0  0  0  0
  -40.3113   59.0340   66.1581 C   0  0  0  0  0  0  0  0  0  0  0  0
  -39.4546   58.6893   67.3722 C   0  0  0  0  0  0  0  0  0  0  0  0
  -40.2578   58.3591   68.6196 C   0  0  0  0  0  0  0  0  0  0  0  0
  -39.3939   58.0325   69.8323 C   0  0  0  0  0  0  0  0  0  0  0  0
  -38.4649   56.8503   69.6277 C   0  0  0  0  0  0  0  0  0  0  0  0
  -37.6029   56.4999   70.8439 C   0  0  0  0  0  0  0  0  0  0  0  0
  -36.6798   57.6184   71.3322 C   0  0  0  0  0  0  0  0  0  0  0  0
  -35.7164   58.0592   70.2713 C   0  0  0  0  0  0  0  0  0  0  0  0
  -34.5100   57.5734   70.0521 C   0  0  0  0  0  0  0  0  0  0  0  0
  -33.8486   56.4731   70.8204 C   0  0  0  0  0  0  0  0  0  0  0  0
  -34.7333   55.9305   71.9390 C   0  0  0  0  0  0  0  0  0  0  0  0
  -34.0818   54.8229   72.7483 C   0  0  0  0  0  0  0  0  0  0  0  0
  -33.6878   53.6127   71.9193 C   0  0  0  0  0  0  0  0  0  0  0  0
  -34.8431   52.9432   71.1937 C   0  0  0  0  0  0  0  0  0  0  0  0
  -34.4256   51.7247   70.3847 C   0  0  0  0  0  0  0  0  0  0  0  0
  -35.5623   51.0531   69.6400 C   0  0  0  0  0  0  0  0  0  0  0  0
  -36.2220   51.9636   68.6423 C   0  0  0  0  0  0  0  0  0  0  0  0
  -24.8119   65.6177   58.5937 H   0  0  0  0  0  0  0  0  0  0  0  0
  -25.0968   64.1784   59.5425 H   0  0  0  0  0  0  0  0  0  0  0  0
  -24.9353   65.7282   60.3331 H   0  0  0  0  0  0  0  0  0  0  0  0
  -27.1418   64.9419   58.4634 H   0  0  0  0  0  0  0  0  0  0  0  0
  -26.9647   66.4967   59.2881 H   0  0  0  0  0  0  0  0  0  0  0  0
  -27.1984   65.4201   61.4133 H   0  0  0  0  0  0  0  0  0  0  0  0
  -27.3709   63.8550   60.5693 H   0  0  0  0  0  0  0  0  0  0  0  0
  -29.4175   64.5622   59.6069 H   0  0  0  0  0  0  0  0  0  0  0  0
  -29.2493   66.1357   60.4171 H   0  0  0  0  0  0  0  0  0  0  0  0
  -30.8408   64.7189   61.5544 H   0  0  0  0  0  0  0  0  0  0  0  0
  -29.4071   65.0825   62.5411 H   0  0  0  0  0  0  0  0  0  0  0  0
  -33.1408   58.4733   65.9789 H   0  0  0  0  0  0  0  0  0  0  0  0
  -28.5198   62.9179   62.0983 H   0  0  0  0  0  0  0  0  0  0  0  0
  -29.9381   62.5522   61.0932 H   0  0  0  0  0  0  0  0  0  0  0  0
  -31.3614   62.7080   62.9988 H   0  0  0  0  0  0  0  0  0  0  0  0
  -29.9440   63.0909   64.0065 H   0  0  0  0  0  0  0  0  0  0  0  0
  -34.6583   63.3537   70.3080 H   0  0  0  0  0  0  0  0  0  0  0  0
  -30.6487   60.8004   64.3005 H   0  0  0  0  0  0  0  0  0  0  0  0
  -29.0298   60.9447   63.5756 H   0  0  0  0  0  0  0  0  0  0  0  0
  -30.6329   62.5890   68.1444 H   0  0  0  0  0  0  0  0  0  0  0  0
  -30.2904   59.1553   62.5795 H   0  0  0  0  0  0  0  0  0  0  0  0
  -29.9218   60.4728   61.4383 H   0  0  0  0  0  0  0  0  0  0  0  0
  -32.1519   61.2802   61.6042 H   0  0  0  0  0  0  0  0  0  0  0  0
  -32.5310   59.9946   62.7620 H   0  0  0  0  0  0  0  0  0  0  0  0
  -32.1348   58.3374   61.0861 H   0  0  0  0  0  0  0  0  0  0  0  0
  -31.7389   59.6239   59.9273 H   0  0  0  0  0  0  0  0  0  0  0  0
  -33.9636   60.4520   60.0471 H   0  0  0  0  0  0  0  0  0  0  0  0
  -34.3648   59.1853   61.2215 H   0  0  0  0  0  0  0  0  0  0  0  0
  -33.9633   57.5032   59.5804 H   0  0  0  0  0  0  0  0  0  0  0  0
  -33.5426   58.7648   58.4053 H   0  0  0  0  0  0  0  0  0  0  0  0
  -35.7749   57.9221   58.0401 H   0  0  0  0  0  0  0  0  0  0  0  0
  -35.7544   59.6312   58.5136 H   0  0  0  0  0  0  0  0  0  0  0  0
  -36.3835   59.0480   60.7368 H   0  0  0  0  0  0  0  0  0  0  0  0
  -36.3915   57.3299   60.2628 H   0  0  0  0  0  0  0  0  0  0  0  0
  -38.2096   57.7154   58.7839 H   0  0  0  0  0  0  0  0  0  0  0  0
  -38.2001   59.4325   59.2201 H   0  0  0  0  0  0  0  0  0  0  0  0
  -38.7763   57.1726   61.0770 H   0  0  0  0  0  0  0  0  0  0  0  0
  -39.9595   58.2784   60.3342 H   0  0  0  0  0  0  0  0  0  0  0  0
  -36.4020   59.0962   62.6252 H   0  0  0  0  0  0  0  0  0  0  0  0
  -36.6048   58.1555   64.0382 H   0  0  0  0  0  0  0  0  0  0  0  0
  -37.7985   60.8886   63.5519 H   0  0  0  0  0  0  0  0  0  0  0  0
  -35.4401   61.0403   63.8892 H   0  0  0  0  0  0  0  0  0  0  0  0
  -36.3193   61.7188   65.2317 H   0  0  0  0  0  0  0  0  0  0  0  0
  -32.5185   63.4188   66.1477 H   0  0  0  0  0  0  0  0  0  0  0  0
  -31.6819   61.8938   66.1264 H   0  0  0  0  0  0  0  0  0  0  0  0
  -32.6130   61.3409   68.2958 H   0  0  0  0  0  0  0  0  0  0  0  0
  -33.8597   64.0429   68.2560 H   0  0  0  0  0  0  0  0  0  0  0  0
  -34.6939   62.5002   68.1661 H   0  0  0  0  0  0  0  0  0  0  0  0
  -40.9498   58.2046   65.9363 H   0  0  0  0  0  0  0  0  0  0  0  0
  -40.8865   59.9061   66.3897 H   0  0  0  0  0  0  0  0  0  0  0  0
  -38.8250   59.5269   67.5889 H   0  0  0  0  0  0  0  0  0  0  0  0
  -38.8979   57.8110   67.1200 H   0  0  0  0  0  0  0  0  0  0  0  0
  -40.8782   57.5133   68.4084 H   0  0  0  0  0  0  0  0  0  0  0  0
  -40.8279   59.2305   68.8657 H   0  0  0  0  0  0  0  0  0  0  0  0
  -40.0400   57.8140   70.6567 H   0  0  0  0  0  0  0  0  0  0  0  0
  -38.7739   58.8864   70.0099 H   0  0  0  0  0  0  0  0  0  0  0  0
  -37.8127   57.0758   68.8100 H   0  0  0  0  0  0  0  0  0  0  0  0
  -39.0898   56.0014   69.4438 H   0  0  0  0  0  0  0  0  0  0  0  0
  -36.9952   55.6575   70.5872 H   0  0  0  0  0  0  0  0  0  0  0  0
  -38.2849   56.3067   71.6454 H   0  0  0  0  0  0  0  0  0  0  0  0
  -36.1252   57.2641   72.1759 H   0  0  0  0  0  0  0  0  0  0  0  0
  -37.2895   58.4582   71.5927 H   0  0  0  0  0  0  0  0  0  0  0  0
  -36.0292   58.8207   69.6490 H   0  0  0  0  0  0  0  0  0  0  0  0
  -33.9715   57.9916   69.2775 H   0  0  0  0  0  0  0  0  0  0  0  0
  -32.9439   56.8499   71.2500 H   0  0  0  0  0  0  0  0  0  0  0  0
  -33.6551   55.6707   70.1395 H   0  0  0  0  0  0  0  0  0  0  0  0
  -35.6320   55.5468   71.5031 H   0  0  0  0  0  0  0  0  0  0  0  0
  -34.9202   56.7414   72.6116 H   0  0  0  0  0  0  0  0  0  0  0  0
  -34.7709   54.5057   73.5030 H   0  0  0  0  0  0  0  0  0  0  0  0
  -33.1810   55.2258   73.1619 H   0  0  0  0  0  0  0  0  0  0  0  0
  -33.2401   52.8921   72.5714 H   0  0  0  0  0  0  0  0  0  0  0  0
  -33.0176   53.9662   71.1638 H   0  0  0  0  0  0  0  0  0  0  0  0
  -35.2846   53.6562   70.5291 H   0  0  0  0  0  0  0  0  0  0  0  0
  -35.5309   52.6052   71.9405 H   0  0  0  0  0  0  0  0  0  0  0  0
  -33.9941   51.0097   71.0537 H   0  0  0  0  0  0  0  0  0  0  0  0
  -33.7346   52.0696   69.6442 H   0  0  0  0  0  0  0  0  0  0  0  0
  -36.2963   50.7353   70.3507 H   0  0  0  0  0  0  0  0  0  0  0  0
  -35.1501   50.2268   69.0994 H   0  0  0  0  0  0  0  0  0  0  0  0
  -36.6461   52.8035   69.1518 H   0  0  0  0  0  0  0  0  0  0  0  0
  -36.9948   51.4302   68.1292 H   0  0  0  0  0  0  0  0  0  0  0  0
  -35.4947   52.3051   67.9357 H   0  0  0  0  0  0  0  0  0  0  0  0
  1  4  1  0  0  0  0
  1 54  1  0  0  0  0
  1 55  1  0  0  0  0
  1 56  1  0  0  0  0
  2 29  2  0  0  0  0
  3  7  1  0  0  0  0
  3  9  2  1  0  0  0
  3 11  1  0  0  0  0
  3 13  1  0  0  0  0
  4  6  1  0  0  0  0
  4 57  1  0  0  0  0
  4 58  1  0  0  0  0
  5 29  1  0  0  0  0
  5 30  1  0  0  0  0
  6  8  1  0  0  0  0
  6 59  1  0  0  0  0
  6 60  1  0  0  0  0
  7 32  1  0  0  0  0
  8 10  1  0  0  0  0
  8 61  1  0  0  0  0
  8 62  1  0  0  0  0
 10 12  1  0  0  0  0
 10 63  1  0  0  0  0
 10 64  1  0  0  0  0
 11 65  1  0  0  0  0
 12 14  1  0  0  0  0
 12 66  1  0  0  0  0
 12 67  1  0  0  0  0
 13 33  1  0  0  0  0
 14 16  1  0  0  0  0
 14 68  1  0  0  0  0
 14 69  1  0  0  0  0
 15 35  1  0  0  0  0
 15 70  1  0  0  0  0
 16 18  1  0  0  0  0
 16 71  1  0  0  0  0
 16 72  1  0  0  0  0
 17 34  1  0  0  0  0
 17 73  1  0  0  0  0
 18 20  1  0  0  0  0
 18 74  1  0  0  0  0
 18 75  1  0  0  0  0
 19 31  1  0  0  0  0
 19 36  1  0  0  0  0
 20 22  1  0  0  0  0
 20 76  1  0  0  0  0
 20 77  1  0  0  0  0
 21 36  2  0  0  0  0
 22 23  1  0  0  0  0
 22 78  1  0  0  0  0
 22 79  1  0  0  0  0
 23 24  1  0  0  0  0
 23 80  1  0  0  0  0
 23 81  1  0  0  0  0
 24 25  1  0  0  0  0
 24 82  1  0  0  0  0
 24 83  1  0  0  0  0
 25 26  1  0  0  0  0
 25 84  1  0  0  0  0
 25 85  1  0  0  0  0
 26 27  1  0  0  0  0
 26 86  1  0  0  0  0
 26 87  1  0  0  0  0
 27 28  1  0  0  0  0
 27 88  1  0  0  0  0
 27 89  1  0  0  0  0
 28 29  1  0  0  0  0
 28 90  1  0  0  0  0
 28 91  1  0  0  0  0
 30 31  1  0  0  0  0
 30 92  1  0  0  0  0
 30 93  1  0  0  0  0
 31 32  1  0  0  0  0
 31 94  1  6  0  0  0
 32 95  1  0  0  0  0
 32 96  1  0  0  0  0
 33 34  1  0  0  0  0
 33 97  1  0  0  0  0
 33 98  1  0  0  0  0
 34 35  1  0  0  0  0
 34 99  1  1  0  0  0
 35100  1  0  0  0  0
 35101  1  0  0  0  0
 36 37  1  0  0  0  0
 37 38  1  0  0  0  0
 37102  1  0  0  0  0
 37103  1  0  0  0  0
 38 39  1  0  0  0  0
 38104  1  0  0  0  0
 38105  1  0  0  0  0
 39 40  1  0  0  0  0
 39106  1  0  0  0  0
 39107  1  0  0  0  0
 40 41  1  0  0  0  0
 40108  1  0  0  0  0
 40109  1  0  0  0  0
 41 42  1  0  0  0  0
 41110  1  0  0  0  0
 41111  1  0  0  0  0
 42 43  1  0  0  0  0
 42112  1  0  0  0  0
 42113  1  0  0  0  0
 43 44  1  0  0  0  0
 43114  1  0  0  0  0
 43115  1  0  0  0  0
 44 45  2  0  0  0  0
 44116  1  0  0  0  0
 45 46  1  0  0  0  0
 45117  1  0  0  0  0
 46 47  1  0  0  0  0
 46118  1  0  0  0  0
 46119  1  0  0  0  0
 47 48  1  0  0  0  0
 47120  1  0  0  0  0
 47121  1  0  0  0  0
 48 49  1  0  0  0  0
 48122  1  0  0  0  0
 48123  1  0  0  0  0
 49 50  1  0  0  0  0
 49124  1  0  0  0  0
 49125  1  0  0  0  0
 50 51  1  0  0  0  0
 50126  1  0  0  0  0
 50127  1  0  0  0  0
 51 52  1  0  0  0  0
 51128  1  0  0  0  0
 51129  1  0  0  0  0
 52 53  1  0  0  0  0
 52130  1  0  0  0  0
 52131  1  0  0  0  0
 53132  1  0  0  0  0
 53133  1  0  0  0  0
 53134  1  0  0  0  0
M  CHG  1   9  -1
M  END
$$$$
/media/chris/experiments/cd1a-new-docking/inputs/ligands/7sh4_ligand.pdb
 OpenBabel07012320073D

134133  0  0  1  0  0  0  0  0999 V2000
  -45.1998   55.8101   68.9126 C   0  0  0  0  0  0  0  0  0  0  0  0
  -37.9049   59.0864   60.8424 O   0  0  0  0  0  0  0  0  0  0  0  0
  -34.6970   59.9912   62.5780 P   0  0  1  0  0  0  0  0  0  0  0  0
  -45.6398   55.7619   67.4670 C   0  0  0  0  0  0  0  0  0  0  0  0
  -38.3690   58.5038   62.9506 O   0  0  0  0  0  0  0  0  0  0  0  0
  -46.5043   56.9486   67.0856 C   0  0  0  0  0  0  0  0  0  0  0  0
  -35.2304   61.1139   63.5864 O   0  0  0  0  0  0  0  0  0  0  0  0
  -46.9903   56.9444   65.6472 C   0  0  0  0  0  0  0  0  0  0  0  0
  -34.5796   58.7215   63.3270 O   0  5  0  0  0  0  0  0  0  0  0  0
  -47.8408   58.1548   65.2879 C   0  0  0  0  0  0  0  0  0  0  0  0
  -35.5431   60.0245   61.3608 O   0  0  0  0  0  0  0  0  0  0  0  0
  -48.3403   58.1431   63.8577 C   0  0  0  0  0  0  0  0  0  0  0  0
  -33.2283   60.4562   62.1666 O   0  0  0  0  0  0  0  0  0  0  0  0
  -47.2253   58.1066   62.8303 C   0  0  0  0  0  0  0  0  0  0  0  0
  -29.0475   60.5617   61.6167 O   0  0  0  0  0  0  0  0  0  0  0  0
  -47.7134   58.1116   61.3860 C   0  0  0  0  0  0  0  0  0  0  0  0
  -31.3377   62.0880   60.9433 O   0  0  0  0  0  0  0  0  0  0  0  0
  -46.5982   58.0581   60.3630 C   0  0  0  0  0  0  0  0  0  0  0  0
  -38.2720   59.8520   65.2990 O   0  0  0  0  0  0  0  0  0  0  0  0
  -45.6192   59.2111   60.4545 C   0  0  0  0  0  0  0  0  0  0  0  0
  -40.0171   59.9196   63.8811 O   0  0  0  0  0  0  0  0  0  0  0  0
  -44.5289   59.1362   59.4087 C   0  0  0  0  0  0  0  0  0  0  0  0
  -43.5376   60.2664   59.4968 C   0  0  0  0  0  0  0  0  0  0  0  0
  -42.4635   60.1925   58.4393 C   0  0  0  0  0  0  0  0  0  0  0  0
  -41.6523   58.9142   58.5014 C   0  0  0  0  0  0  0  0  0  0  0  0
  -40.9506   58.7222   59.8268 C   0  0  0  0  0  0  0  0  0  0  0  0
  -40.1183   57.4601   59.9108 C   0  0  0  0  0  0  0  0  0  0  0  0
  -39.4418   57.2903   61.2605 C   0  0  0  0  0  0  0  0  0  0  0  0
  -38.5165   58.4143   61.6284 C   0  0  0  0  0  0  0  0  0  0  0  0
  -37.0720   58.9080   63.4380 C   0  0  0  0  0  0  0  0  0  0  0  0
  -37.3490   60.1700   64.2050 C   0  0  2  0  0  0  0  0  0  0  0  0
  -36.0840   60.8130   64.7130 C   0  0  0  0  0  0  0  0  0  0  0  0
  -32.7027   60.1199   60.8664 C   0  0  0  0  0  0  0  0  0  0  0  0
  -31.3010   60.6692   60.7632 C   0  0  2  0  0  0  0  0  0  0  0  0
  -30.3622   60.0409   61.7650 C   0  0  0  0  0  0  0  0  0  0  0  0
  -39.5790   59.7587   64.9875 C   0  0  0  0  0  0  0  0  0  0  0  0
  -40.4161   59.4128   66.1798 C   0  0  0  0  0  0  0  0  0  0  0  0
  -41.8178   60.0040   66.0691 C   0  0  0  0  0  0  0  0  0  0  0  0
  -41.8399   61.5189   65.9476 C   0  0  0  0  0  0  0  0  0  0  0  0
  -43.2450   62.1027   65.8546 C   0  0  0  0  0  0  0  0  0  0  0  0
  -43.2775   63.6134   65.7160 C   0  0  0  0  0  0  0  0  0  0  0  0
  -44.6833   64.2156   65.6385 C   0  0  0  0  0  0  0  0  0  0  0  0
  -45.5426   63.7167   64.4748 C   0  0  0  0  0  0  0  0  0  0  0  0
  -44.9113   63.9993   63.1446 C   0  0  0  0  0  0  0  0  0  0  0  0
  -45.0399   63.2839   62.0441 C   0  0  0  0  0  0  0  0  0  0  0  0
  -45.8491   62.0346   61.8930 C   0  0  0  0  0  0  0  0  0  0  0  0
  -46.9417   62.1727   60.8368 C   0  0  0  0  0  0  0  0  0  0  0  0
  -47.9321   63.2868   61.1265 C   0  0  0  0  0  0  0  0  0  0  0  0
  -47.2968   64.6647   61.1965 C   0  0  0  0  0  0  0  0  0  0  0  0
  -46.6108   65.1076   59.9148 C   0  0  0  0  0  0  0  0  0  0  0  0
  -47.5518   65.1937   58.7228 C   0  0  0  0  0  0  0  0  0  0  0  0
  -48.6885   66.1812   58.8977 C   0  0  0  0  0  0  0  0  0  0  0  0
  -48.2079   67.5904   59.1048 C   0  0  0  0  0  0  0  0  0  0  0  0
  -44.5952   54.9545   69.1302 H   0  0  0  0  0  0  0  0  0  0  0  0
  -46.0609   55.8092   69.5478 H   0  0  0  0  0  0  0  0  0  0  0  0
  -44.6318   56.7008   69.0830 H   0  0  0  0  0  0  0  0  0  0  0  0
  -46.1995   54.8639   67.3080 H   0  0  0  0  0  0  0  0  0  0  0  0
  -44.7609   55.7893   66.8574 H   0  0  0  0  0  0  0  0  0  0  0  0
  -45.9338   57.8402   67.2419 H   0  0  0  0  0  0  0  0  0  0  0  0
  -47.3788   56.8947   67.6998 H   0  0  0  0  0  0  0  0  0  0  0  0
  -47.5744   56.0618   65.4900 H   0  0  0  0  0  0  0  0  0  0  0  0
  -46.1221   56.9744   65.0225 H   0  0  0  0  0  0  0  0  0  0  0  0
  -47.2526   59.0366   65.4334 H   0  0  0  0  0  0  0  0  0  0  0  0
  -48.7030   58.1311   65.9212 H   0  0  0  0  0  0  0  0  0  0  0  0
  -36.4443   59.7449   61.5856 H   0  0  0  0  0  0  0  0  0  0  0  0
  -48.9229   59.0257   63.6947 H   0  0  0  0  0  0  0  0  0  0  0  0
  -48.9154   57.2496   63.7314 H   0  0  0  0  0  0  0  0  0  0  0  0
  -46.6509   57.2178   62.9883 H   0  0  0  0  0  0  0  0  0  0  0  0
  -46.6496   58.9983   62.9659 H   0  0  0  0  0  0  0  0  0  0  0  0
  -28.4601   60.1469   62.2677 H   0  0  0  0  0  0  0  0  0  0  0  0
  -48.2772   59.0064   61.2238 H   0  0  0  0  0  0  0  0  0  0  0  0
  -48.3008   57.2272   61.2529 H   0  0  0  0  0  0  0  0  0  0  0  0
  -31.9433   62.4807   60.2951 H   0  0  0  0  0  0  0  0  0  0  0  0
  -47.0367   58.0662   59.3870 H   0  0  0  0  0  0  0  0  0  0  0  0
  -46.0423   57.1650   60.5587 H   0  0  0  0  0  0  0  0  0  0  0  0
  -45.1655   59.1988   61.4234 H   0  0  0  0  0  0  0  0  0  0  0  0
  -46.1674   60.1144   60.2854 H   0  0  0  0  0  0  0  0  0  0  0  0
  -44.9848   59.1595   58.4410 H   0  0  0  0  0  0  0  0  0  0  0  0
  -43.9890   58.2283   59.5795 H   0  0  0  0  0  0  0  0  0  0  0  0
  -43.0711   60.2364   60.4593 H   0  0  0  0  0  0  0  0  0  0  0  0
  -44.0767   61.1777   59.3424 H   0  0  0  0  0  0  0  0  0  0  0  0
  -41.8009   61.0225   58.5688 H   0  0  0  0  0  0  0  0  0  0  0  0
  -42.9521   60.2133   57.4876 H   0  0  0  0  0  0  0  0  0  0  0  0
  -40.9151   58.9404   57.7263 H   0  0  0  0  0  0  0  0  0  0  0  0
  -42.3328   58.0976   58.3789 H   0  0  0  0  0  0  0  0  0  0  0  0
  -41.6923   58.6870   60.5972 H   0  0  0  0  0  0  0  0  0  0  0  0
  -40.2750   59.5443   59.9392 H   0  0  0  0  0  0  0  0  0  0  0  0
  -39.3643   57.4966   59.1525 H   0  0  0  0  0  0  0  0  0  0  0  0
  -40.7783   56.6290   59.7742 H   0  0  0  0  0  0  0  0  0  0  0  0
  -38.8762   56.3823   61.2410 H   0  0  0  0  0  0  0  0  0  0  0  0
  -40.2191   57.2775   61.9957 H   0  0  0  0  0  0  0  0  0  0  0  0
  -36.4020   59.0962   62.6252 H   0  0  0  0  0  0  0  0  0  0  0  0
  -36.6048   58.1555   64.0382 H   0  0  0  0  0  0  0  0  0  0  0  0
  -37.7985   60.8886   63.5519 H   0  0  0  0  0  0  0  0  0  0  0  0
  -36.3238   61.7163   65.2340 H   0  0  0  0  0  0  0  0  0  0  0  0
  -35.5811   60.1472   65.3829 H   0  0  0  0  0  0  0  0  0  0  0  0
  -33.3174   60.5526   60.1050 H   0  0  0  0  0  0  0  0  0  0  0  0
  -32.6920   59.0578   60.7374 H   0  0  0  0  0  0  0  0  0  0  0  0
  -30.9238   60.4294   59.7910 H   0  0  0  0  0  0  0  0  0  0  0  0
  -30.7131   60.2494   62.7541 H   0  0  0  0  0  0  0  0  0  0  0  0
  -30.3350   58.9847   61.5958 H   0  0  0  0  0  0  0  0  0  0  0  0
  -39.9445   59.7985   67.0594 H   0  0  0  0  0  0  0  0  0  0  0  0
  -40.5040   58.3476   66.2308 H   0  0  0  0  0  0  0  0  0  0  0  0
  -42.3698   59.7281   66.9432 H   0  0  0  0  0  0  0  0  0  0  0  0
  -42.2490   59.6143   65.1707 H   0  0  0  0  0  0  0  0  0  0  0  0
  -41.2995   61.7956   65.0665 H   0  0  0  0  0  0  0  0  0  0  0  0
  -41.3950   61.9118   66.8378 H   0  0  0  0  0  0  0  0  0  0  0  0
  -43.7802   61.8346   66.7415 H   0  0  0  0  0  0  0  0  0  0  0  0
  -43.6893   61.7008   64.9680 H   0  0  0  0  0  0  0  0  0  0  0  0
  -42.7512   63.8781   64.8228 H   0  0  0  0  0  0  0  0  0  0  0  0
  -42.8260   64.0093   66.6016 H   0  0  0  0  0  0  0  0  0  0  0  0
  -44.5841   65.2769   65.5454 H   0  0  0  0  0  0  0  0  0  0  0  0
  -45.1869   63.9101   66.5318 H   0  0  0  0  0  0  0  0  0  0  0  0
  -46.4944   64.2039   64.5153 H   0  0  0  0  0  0  0  0  0  0  0  0
  -45.6445   62.6560   64.5721 H   0  0  0  0  0  0  0  0  0  0  0  0
  -44.3151   64.8395   63.0839 H   0  0  0  0  0  0  0  0  0  0  0  0
  -44.5347   63.6173   61.2083 H   0  0  0  0  0  0  0  0  0  0  0  0
  -46.3067   61.8059   62.8328 H   0  0  0  0  0  0  0  0  0  0  0  0
  -45.1881   61.2542   61.5782 H   0  0  0  0  0  0  0  0  0  0  0  0
  -47.4785   61.2487   60.7831 H   0  0  0  0  0  0  0  0  0  0  0  0
  -46.4568   62.4167   59.9147 H   0  0  0  0  0  0  0  0  0  0  0  0
  -48.4037   63.0840   62.0653 H   0  0  0  0  0  0  0  0  0  0  0  0
  -48.6295   63.3045   60.3152 H   0  0  0  0  0  0  0  0  0  0  0  0
  -46.5684   64.6576   61.9802 H   0  0  0  0  0  0  0  0  0  0  0  0
  -48.0924   65.3584   61.3715 H   0  0  0  0  0  0  0  0  0  0  0  0
  -45.8362   64.4060   59.6851 H   0  0  0  0  0  0  0  0  0  0  0  0
  -46.2281   66.0921   60.0860 H   0  0  0  0  0  0  0  0  0  0  0  0
  -47.9725   64.2240   58.5569 H   0  0  0  0  0  0  0  0  0  0  0  0
  -46.9685   65.5401   57.8954 H   0  0  0  0  0  0  0  0  0  0  0  0
  -49.2677   65.8888   59.7485 H   0  0  0  0  0  0  0  0  0  0  0  0
  -49.2691   66.1672   57.9991 H   0  0  0  0  0  0  0  0  0  0  0  0
  -47.6217   67.6395   59.9986 H   0  0  0  0  0  0  0  0  0  0  0  0
  -49.0496   68.2448   59.1939 H   0  0  0  0  0  0  0  0  0  0  0  0
  -47.6101   67.8897   58.2693 H   0  0  0  0  0  0  0  0  0  0  0  0
  1  4  1  0  0  0  0
  1 54  1  0  0  0  0
  1 55  1  0  0  0  0
  1 56  1  0  0  0  0
  2 29  2  0  0  0  0
  3  7  1  0  0  0  0
  3  9  2  1  0  0  0
  3 11  1  0  0  0  0
  3 13  1  0  0  0  0
  4  6  1  0  0  0  0
  4 57  1  0  0  0  0
  4 58  1  0  0  0  0
  5 29  1  0  0  0  0
  5 30  1  0  0  0  0
  6  8  1  0  0  0  0
  6 59  1  0  0  0  0
  6 60  1  0  0  0  0
  7 32  1  0  0  0  0
  8 10  1  0  0  0  0
  8 61  1  0  0  0  0
  8 62  1  0  0  0  0
 10 12  1  0  0  0  0
 10 63  1  0  0  0  0
 10 64  1  0  0  0  0
 11 65  1  0  0  0  0
 12 14  1  0  0  0  0
 12 66  1  0  0  0  0
 12 67  1  0  0  0  0
 13 33  1  0  0  0  0
 14 16  1  0  0  0  0
 14 68  1  0  0  0  0
 14 69  1  0  0  0  0
 15 35  1  0  0  0  0
 15 70  1  0  0  0  0
 16 18  1  0  0  0  0
 16 71  1  0  0  0  0
 16 72  1  0  0  0  0
 17 34  1  0  0  0  0
 17 73  1  0  0  0  0
 18 20  1  0  0  0  0
 18 74  1  0  0  0  0
 18 75  1  0  0  0  0
 19 31  1  0  0  0  0
 19 36  1  0  0  0  0
 20 22  1  0  0  0  0
 20 76  1  0  0  0  0
 20 77  1  0  0  0  0
 21 36  2  0  0  0  0
 22 23  1  0  0  0  0
 22 78  1  0  0  0  0
 22 79  1  0  0  0  0
 23 24  1  0  0  0  0
 23 80  1  0  0  0  0
 23 81  1  0  0  0  0
 24 25  1  0  0  0  0
 24 82  1  0  0  0  0
 24 83  1  0  0  0  0
 25 26  1  0  0  0  0
 25 84  1  0  0  0  0
 25 85  1  0  0  0  0
 26 27  1  0  0  0  0
 26 86  1  0  0  0  0
 26 87  1  0  0  0  0
 27 28  1  0  0  0  0
 27 88  1  0  0  0  0
 27 89  1  0  0  0  0
 28 29  1  0  0  0  0
 28 90  1  0  0  0  0
 28 91  1  0  0  0  0
 30 31  1  0  0  0  0
 30 92  1  0  0  0  0
 30 93  1  0  0  0  0
 31 32  1  0  0  0  0
 31 94  1  6  0  0  0
 32 95  1  0  0  0  0
 32 96  1  0  0  0  0
 33 34  1  0  0  0  0
 33 97  1  0  0  0  0
 33 98  1  0  0  0  0
 34 35  1  0  0  0  0
 34 99  1  6  0  0  0
 35100  1  0  0  0  0
 35101  1  0  0  0  0
 36 37  1  0  0  0  0
 37 38  1  0  0  0  0
 37102  1  0  0  0  0
 37103  1  0  0  0  0
 38 39  1  0  0  0  0
 38104  1  0  0  0  0
 38105  1  0  0  0  0
 39 40  1  0  0  0  0
 39106  1  0  0  0  0
 39107  1  0  0  0  0
 40 41  1  0  0  0  0
 40108  1  0  0  0  0
 40109  1  0  0  0  0
 41 42  1  0  0  0  0
 41110  1  0  0  0  0
 41111  1  0  0  0  0
 42 43  1  0  0  0  0
 42112  1  0  0  0  0
 42113  1  0  0  0  0
 43 44  1  0  0  0  0
 43114  1  0  0  0  0
 43115  1  0  0  0  0
 44 45  2  0  0  0  0
 44116  1  0  0  0  0
 45 46  1  0  0  0  0
 45117  1  0  0  0  0
 46 47  1  0  0  0  0
 46118  1  0  0  0  0
 46119  1  0  0  0  0
 47 48  1  0  0  0  0
 47120  1  0  0  0  0
 47121  1  0  0  0  0
 48 49  1  0  0  0  0
 48122  1  0  0  0  0
 48123  1  0  0  0  0
 49 50  1  0  0  0  0
 49124  1  0  0  0  0
 49125  1  0  0  0  0
 50 51  1  0  0  0  0
 50126  1  0  0  0  0
 50127  1  0  0  0  0
 51 52  1  0  0  0  0
 51128  1  0  0  0  0
 51129  1  0  0  0  0
 52 53  1  0  0  0  0
 52130  1  0  0  0  0
 52131  1  0  0  0  0
 53132  1  0  0  0  0
 53133  1  0  0  0  0
 53134  1  0  0  0  0
M  CHG  1   9  -1
M  END
$$$$
/media/chris/experiments/cd1a-new-docking/inputs/ligands/7sh4_ligand.pdb
 OpenBabel07012320073D

134133  0  0  1  0  0  0  0  0999 V2000
  -44.3216   53.2714   70.4328 C   0  0  0  0  0  0  0  0  0  0  0  0
  -34.6407   59.2376   64.6391 O   0  0  0  0  0  0  0  0  0  0  0  0
  -35.6684   62.1020   62.4058 P   0  0  1  0  0  0  0  0  0  0  0  0
  -43.9867   52.1510   69.4744 C   0  0  0  0  0  0  0  0  0  0  0  0
  -36.5027   58.0190   64.4222 O   0  0  0  0  0  0  0  0  0  0  0  0
  -42.9988   52.5797   68.4061 C   0  0  0  0  0  0  0  0  0  0  0  0
  -35.2304   61.1139   63.5864 O   0  0  0  0  0  0  0  0  0  0  0  0
  -42.6378   51.4980   67.4037 C   0  0  0  0  0  0  0  0  0  0  0  0
  -34.4498   62.7510   61.8761 O   0  5  0  0  0  0  0  0  0  0  0  0
  -41.6325   51.9509   66.3541 C   0  0  0  0  0  0  0  0  0  0  0  0
  -36.5373   61.3473   61.4709 O   0  0  0  0  0  0  0  0  0  0  0  0
  -41.2845   50.8773   65.3434 C   0  0  0  0  0  0  0  0  0  0  0  0
  -36.5593   63.2254   63.1038 O   0  0  0  0  0  0  0  0  0  0  0  0
  -40.2699   51.3284   64.3103 C   0  0  0  0  0  0  0  0  0  0  0  0
  -38.7311   65.5517   66.7029 O   0  0  0  0  0  0  0  0  0  0  0  0
  -40.7165   52.5318   63.4878 C   0  0  0  0  0  0  0  0  0  0  0  0
  -38.9226   64.2386   64.1994 O   0  0  0  0  0  0  0  0  0  0  0  0
  -39.7083   52.9690   62.4459 C   0  0  0  0  0  0  0  0  0  0  0  0
  -38.2720   59.8520   65.2990 O   0  0  0  0  0  0  0  0  0  0  0  0
  -38.3589   53.3572   63.0157 C   0  0  0  0  0  0  0  0  0  0  0  0
  -36.9080   59.8350   67.0877 O   0  0  0  0  0  0  0  0  0  0  0  0
  -37.3819   53.8046   61.9512 C   0  0  0  0  0  0  0  0  0  0  0  0
  -36.0300   54.1780   62.4995 C   0  0  0  0  0  0  0  0  0  0  0  0
  -35.0677   54.6390   61.4324 C   0  0  0  0  0  0  0  0  0  0  0  0
  -33.7006   54.9996   61.9776 C   0  0  0  0  0  0  0  0  0  0  0  0
  -33.7469   56.1054   63.0076 C   0  0  0  0  0  0  0  0  0  0  0  0
  -34.5695   55.7754   64.2352 C   0  0  0  0  0  0  0  0  0  0  0  0
  -34.6084   56.9138   65.2406 C   0  0  0  0  0  0  0  0  0  0  0  0
  -35.2107   58.1821   64.7081 C   0  0  0  0  0  0  0  0  0  0  0  0
  -37.0720   58.9080   63.4380 C   0  0  0  0  0  0  0  0  0  0  0  0
  -37.3490   60.1700   64.2050 C   0  0  2  0  0  0  0  0  0  0  0  0
  -36.0840   60.8130   64.7130 C   0  0  0  0  0  0  0  0  0  0  0  0
  -36.7996   63.1759   64.5250 C   0  0  0  0  0  0  0  0  0  0  0  0
  -37.6793   64.3432   64.8997 C   0  0  2  0  0  0  0  0  0  0  0  0
  -37.9244   64.4242   66.3873 C   0  0  0  0  0  0  0  0  0  0  0  0
  -37.7394   59.3002   66.4062 C   0  0  0  0  0  0  0  0  0  0  0  0
  -38.3207   57.9508   66.6951 C   0  0  0  0  0  0  0  0  0  0  0  0
  -38.3353   57.6574   68.1919 C   0  0  0  0  0  0  0  0  0  0  0  0
  -39.1634   58.6393   69.0043 C   0  0  0  0  0  0  0  0  0  0  0  0
  -40.6358   58.6673   68.6106 C   0  0  0  0  0  0  0  0  0  0  0  0
  -41.3475   57.3391   68.7892 C   0  0  0  0  0  0  0  0  0  0  0  0
  -41.3656   56.8149   70.2279 C   0  0  0  0  0  0  0  0  0  0  0  0
  -39.9889   56.5866   70.8556 C   0  0  0  0  0  0  0  0  0  0  0  0
  -39.1707   55.5990   70.0790 C   0  0  0  0  0  0  0  0  0  0  0  0
  -37.8563   55.5761   69.9728 C   0  0  0  0  0  0  0  0  0  0  0  0
  -36.9024   56.5362   70.6105 C   0  0  0  0  0  0  0  0  0  0  0  0
  -35.4483   56.2285   70.2648 C   0  0  0  0  0  0  0  0  0  0  0  0
  -34.4542   57.1767   70.9119 C   0  0  0  0  0  0  0  0  0  0  0  0
  -34.6628   58.6323   70.5308 C   0  0  0  0  0  0  0  0  0  0  0  0
  -34.5630   58.9135   69.0407 C   0  0  0  0  0  0  0  0  0  0  0  0
  -34.7586   60.3798   68.6867 C   0  0  0  0  0  0  0  0  0  0  0  0
  -36.0974   60.9493   69.1123 C   0  0  0  0  0  0  0  0  0  0  0  0
  -36.2623   62.3941   68.7317 C   0  0  0  0  0  0  0  0  0  0  0  0
  -45.0192   52.9190   71.1636 H   0  0  0  0  0  0  0  0  0  0  0  0
  -44.7539   54.0867   69.8912 H   0  0  0  0  0  0  0  0  0  0  0  0
  -43.4289   53.6013   70.9217 H   0  0  0  0  0  0  0  0  0  0  0  0
  -44.8878   51.8253   68.9983 H   0  0  0  0  0  0  0  0  0  0  0  0
  -43.5346   51.3628   70.0394 H   0  0  0  0  0  0  0  0  0  0  0  0
  -42.0998   52.8971   68.8918 H   0  0  0  0  0  0  0  0  0  0  0  0
  -43.4753   53.3597   67.8499 H   0  0  0  0  0  0  0  0  0  0  0  0
  -43.5318   51.1877   66.9042 H   0  0  0  0  0  0  0  0  0  0  0  0
  -42.1810   50.7012   67.9527 H   0  0  0  0  0  0  0  0  0  0  0  0
  -40.7342   52.2495   66.8530 H   0  0  0  0  0  0  0  0  0  0  0  0
  -42.0850   52.7557   65.8133 H   0  0  0  0  0  0  0  0  0  0  0  0
  -36.0169   60.6560   61.0325 H   0  0  0  0  0  0  0  0  0  0  0  0
  -42.1801   50.5872   64.8349 H   0  0  0  0  0  0  0  0  0  0  0  0
  -40.8450   50.0652   65.8840 H   0  0  0  0  0  0  0  0  0  0  0  0
  -40.0853   50.5136   63.6417 H   0  0  0  0  0  0  0  0  0  0  0  0
  -39.3936   51.6275   64.8466 H   0  0  0  0  0  0  0  0  0  0  0  0
  -38.8772   65.5866   67.6612 H   0  0  0  0  0  0  0  0  0  0  0  0
  -40.8890   53.3506   64.1546 H   0  0  0  0  0  0  0  0  0  0  0  0
  -41.6007   52.2383   62.9616 H   0  0  0  0  0  0  0  0  0  0  0  0
  -38.7532   64.1873   63.2457 H   0  0  0  0  0  0  0  0  0  0  0  0
  -40.1084   53.8134   61.9246 H   0  0  0  0  0  0  0  0  0  0  0  0
  -39.5424   52.1284   61.8050 H   0  0  0  0  0  0  0  0  0  0  0  0
  -37.9464   52.5114   63.5251 H   0  0  0  0  0  0  0  0  0  0  0  0
  -38.5138   54.1822   63.6792 H   0  0  0  0  0  0  0  0  0  0  0  0
  -37.7922   54.6568   61.4508 H   0  0  0  0  0  0  0  0  0  0  0  0
  -37.2365   52.9776   61.2880 H   0  0  0  0  0  0  0  0  0  0  0  0
  -35.6125   53.3228   62.9888 H   0  0  0  0  0  0  0  0  0  0  0  0
  -36.1734   54.9947   63.1757 H   0  0  0  0  0  0  0  0  0  0  0  0
  -35.4804   55.5012   60.9516 H   0  0  0  0  0  0  0  0  0  0  0  0
  -34.9339   53.8248   60.7512 H   0  0  0  0  0  0  0  0  0  0  0  0
  -33.0823   55.3173   61.1641 H   0  0  0  0  0  0  0  0  0  0  0  0
  -33.3095   54.1288   62.4610 H   0  0  0  0  0  0  0  0  0  0  0  0
  -34.1654   56.9758   62.5471 H   0  0  0  0  0  0  0  0  0  0  0  0
  -32.7418   56.2564   63.3422 H   0  0  0  0  0  0  0  0  0  0  0  0
  -34.1462   54.9147   64.7094 H   0  0  0  0  0  0  0  0  0  0  0  0
  -35.5737   55.5965   63.9118 H   0  0  0  0  0  0  0  0  0  0  0  0
  -33.6059   57.1224   65.5510 H   0  0  0  0  0  0  0  0  0  0  0  0
  -35.2324   56.5913   66.0478 H   0  0  0  0  0  0  0  0  0  0  0  0
  -37.9762   58.5012   63.0358 H   0  0  0  0  0  0  0  0  0  0  0  0
  -36.4225   59.0678   62.6029 H   0  0  0  0  0  0  0  0  0  0  0  0
  -37.7985   60.8886   63.5519 H   0  0  0  0  0  0  0  0  0  0  0  0
  -36.3238   61.7163   65.2340 H   0  0  0  0  0  0  0  0  0  0  0  0
  -35.5811   60.1472   65.3829 H   0  0  0  0  0  0  0  0  0  0  0  0
  -35.8701   63.2402   65.0512 H   0  0  0  0  0  0  0  0  0  0  0  0
  -37.2792   62.2554   64.7852 H   0  0  0  0  0  0  0  0  0  0  0  0
  -37.1712   65.2421   64.6191 H   0  0  0  0  0  0  0  0  0  0  0  0
  -38.4229   63.5342   66.7102 H   0  0  0  0  0  0  0  0  0  0  0  0
  -36.9831   64.5241   66.8862 H   0  0  0  0  0  0  0  0  0  0  0  0
  -37.7330   57.2059   66.2005 H   0  0  0  0  0  0  0  0  0  0  0  0
  -39.3301   57.9370   66.3403 H   0  0  0  0  0  0  0  0  0  0  0  0
  -37.3279   57.6884   68.5511 H   0  0  0  0  0  0  0  0  0  0  0  0
  -38.7862   56.6949   68.3151 H   0  0  0  0  0  0  0  0  0  0  0  0
  -38.7575   59.6197   68.8661 H   0  0  0  0  0  0  0  0  0  0  0  0
  -39.1172   58.3202   70.0246 H   0  0  0  0  0  0  0  0  0  0  0  0
  -40.7034   58.9494   67.5807 H   0  0  0  0  0  0  0  0  0  0  0  0
  -41.1173   59.3666   69.2618 H   0  0  0  0  0  0  0  0  0  0  0  0
  -40.8575   56.6125   68.1752 H   0  0  0  0  0  0  0  0  0  0  0  0
  -42.3682   57.5020   68.5125 H   0  0  0  0  0  0  0  0  0  0  0  0
  -41.8908   55.8826   70.2339 H   0  0  0  0  0  0  0  0  0  0  0  0
  -41.8373   57.5750   70.8149 H   0  0  0  0  0  0  0  0  0  0  0  0
  -40.1207   56.2180   71.8514 H   0  0  0  0  0  0  0  0  0  0  0  0
  -39.4670   57.5207   70.8529 H   0  0  0  0  0  0  0  0  0  0  0  0
  -39.6890   54.8617   69.5763 H   0  0  0  0  0  0  0  0  0  0  0  0
  -37.4472   54.8251   69.3952 H   0  0  0  0  0  0  0  0  0  0  0  0
  -37.0213   56.4841   71.6726 H   0  0  0  0  0  0  0  0  0  0  0  0
  -37.1261   57.5140   70.2380 H   0  0  0  0  0  0  0  0  0  0  0  0
  -35.3329   56.2910   69.2028 H   0  0  0  0  0  0  0  0  0  0  0  0
  -35.2375   55.2493   70.6410 H   0  0  0  0  0  0  0  0  0  0  0  0
  -33.4681   56.8874   70.6140 H   0  0  0  0  0  0  0  0  0  0  0  0
  -34.5977   57.1065   71.9699 H   0  0  0  0  0  0  0  0  0  0  0  0
  -33.9213   59.2187   71.0320 H   0  0  0  0  0  0  0  0  0  0  0  0
  -35.6614   58.8832   70.8218 H   0  0  0  0  0  0  0  0  0  0  0  0
  -35.3128   58.3403   68.5366 H   0  0  0  0  0  0  0  0  0  0  0  0
  -33.5736   58.6446   68.7347 H   0  0  0  0  0  0  0  0  0  0  0  0
  -34.6724   60.4830   67.6252 H   0  0  0  0  0  0  0  0  0  0  0  0
  -34.0089   60.9270   69.2191 H   0  0  0  0  0  0  0  0  0  0  0  0
  -36.1832   60.8637   70.1754 H   0  0  0  0  0  0  0  0  0  0  0  0
  -36.8596   60.3936   68.6071 H   0  0  0  0  0  0  0  0  0  0  0  0
  -35.5127   62.9798   69.2217 H   0  0  0  0  0  0  0  0  0  0  0  0
  -37.2320   62.7333   69.0307 H   0  0  0  0  0  0  0  0  0  0  0  0
  -36.1594   62.4977   67.6717 H   0  0  0  0  0  0  0  0  0  0  0  0
  1  4  1  0  0  0  0
  1 54  1  0  0  0  0
  1 55  1  0  0  0  0
  1 56  1  0  0  0  0
  2 29  2  0  0  0  0
  3  7  1  0  0  0  0
  3  9  2  6  0  0  0
  3 11  1  0  0  0  0
  3 13  1  0  0  0  0
  4  6  1  0  0  0  0
  4 57  1  0  0  0  0
  4 58  1  0  0  0  0
  5 29  1  0  0  0  0
  5 30  1  0  0  0  0
  6  8  1  0  0  0  0
  6 59  1  0  0  0  0
  6 60  1  0  0  0  0
  7 32  1  0  0  0  0
  8 10  1  0  0  0  0
  8 61  1  0  0  0  0
  8 62  1  0  0  0  0
 10 12  1  0  0  0  0
 10 63  1  0  0  0  0
 10 64  1  0  0  0  0
 11 65  1  0  0  0  0
 12 14  1  0  0  0  0
 12 66  1  0  0  0  0
 12 67  1  0  0  0  0
 13 33  1  0  0  0  0
 14 16  1  0  0  0  0
 14 68  1  0  0  0  0
 14 69  1  0  0  0  0
 15 35  1  0  0  0  0
 15 70  1  0  0  0  0
 16 18  1  0  0  0  0
 16 71  1  0  0  0  0
 16 72  1  0  0  0  0
 17 34  1  0  0  0  0
 17 73  1  0  0  0  0
 18 20  1  0  0  0  0
 18 74  1  0  0  0  0
 18 75  1  0  0  0  0
 19 31  1  0  0  0  0
 19 36  1  0  0  0  0
 20 22  1  0  0  0  0
 20 76  1  0  0  0  0
 20 77  1  0  0  0  0
 21 36  2  0  0  0  0
 22 23  1  0  0  0  0
 22 78  1  0  0  0  0
 22 79  1  0  0  0  0
 23 24  1  0  0  0  0
 23 80  1  0  0  0  0
 23 81  1  0  0  0  0
 24 25  1  0  0  0  0
 24 82  1  0  0  0  0
 24 83  1  0  0  0  0
 25 26  1  0  0  0  0
 25 84  1  0  0  0  0
 25 85  1  0  0  0  0
 26 27  1  0  0  0  0
 26 86  1  0  0  0  0
 26 87  1  0  0  0  0
 27 28  1  0  0  0  0
 27 88  1  0  0  0  0
 27 89  1  0  0  0  0
 28 29  1  0  0  0  0
 28 90  1  0  0  0  0
 28 91  1  0  0  0  0
 30 31  1  0  0  0  0
 30 92  1  0  0  0  0
 30 93  1  0  0  0  0
 31 32  1  0  0  0  0
 31 94  1  6  0  0  0
 32 95  1  0  0  0  0
 32 96  1  0  0  0  0
 33 34  1  0  0  0  0
 33 97  1  0  0  0  0
 33 98  1  0  0  0  0
 34 35  1  0  0  0  0
 34 99  1  6  0  0  0
 35100  1  0  0  0  0
 35101  1  0  0  0  0
 36 37  1  0  0  0  0
 37 38  1  0  0  0  0
 37102  1  0  0  0  0
 37103  1  0  0  0  0
 38 39  1  0  0  0  0
 38104  1  0  0  0  0
 38105  1  0  0  0  0
 39 40  1  0  0  0  0
 39106  1  0  0  0  0
 39107  1  0  0  0  0
 40 41  1  0  0  0  0
 40108  1  0  0  0  0
 40109  1  0  0  0  0
 41 42  1  0  0  0  0
 41110  1  0  0  0  0
 41111  1  0  0  0  0
 42 43  1  0  0  0  0
 42112  1  0  0  0  0
 42113  1  0  0  0  0
 43 44  1  0  0  0  0
 43114  1  0  0  0  0
 43115  1  0  0  0  0
 44 45  2  0  0  0  0
 44116  1  0  0  0  0
 45 46  1  0  0  0  0
 45117  1  0  0  0  0
 46 47  1  0  0  0  0
 46118  1  0  0  0  0
 46119  1  0  0  0  0
 47 48  1  0  0  0  0
 47120  1  0  0  0  0
 47121  1  0  0  0  0
 48 49  1  0  0  0  0
 48122  1  0  0  0  0
 48123  1  0  0  0  0
 49 50  1  0  0  0  0
 49124  1  0  0  0  0
 49125  1  0  0  0  0
 50 51  1  0  0  0  0
 50126  1  0  0  0  0
 50127  1  0  0  0  0
 51 52  1  0  0  0  0
 51128  1  0  0  0  0
 51129  1  0  0  0  0
 52 53  1  0  0  0  0
 52130  1  0  0  0  0
 52131  1  0  0  0  0
 53132  1  0  0  0  0
 53133  1  0  0  0  0
 53134  1  0  0  0  0
M  CHG  1   9  -1
M  END
$$$$
/media/chris/experiments/cd1a-new-docking/inputs/ligands/7sh4_ligand.pdb
 OpenBabel07012320073D

134133  0  0  1  0  0  0  0  0999 V2000
  -43.8713   67.9877   67.3415 C   0  0  0  0  0  0  0  0  0  0  0  0
  -37.6389   58.6496   60.8423 O   0  0  0  0  0  0  0  0  0  0  0  0
  -34.0491   60.2433   66.3537 P   0  0  1  0  0  0  0  0  0  0  0  0
  -43.9775   66.5742   67.8673 C   0  0  0  0  0  0  0  0  0  0  0  0
  -38.3690   58.5038   62.9506 O   0  0  0  0  0  0  0  0  0  0  0  0
  -42.9518   65.6466   67.2440 C   0  0  0  0  0  0  0  0  0  0  0  0
  -35.4212   59.8922   65.6081 O   0  0  0  0  0  0  0  0  0  0  0  0
  -43.0225   64.2075   67.7229 C   0  0  0  0  0  0  0  0  0  0  0  0
  -33.0346   59.2516   65.9368 O   0  5  0  0  0  0  0  0  0  0  0  0
  -44.3539   63.5314   67.4265 C   0  0  0  0  0  0  0  0  0  0  0  0
  -33.7655   61.6836   66.1443 O   0  0  0  0  0  0  0  0  0  0  0  0
  -44.4315   62.1009   67.9190 C   0  0  0  0  0  0  0  0  0  0  0  0
  -34.3431   60.0224   67.9054 O   0  0  0  0  0  0  0  0  0  0  0  0
  -45.7535   61.4266   67.6062 C   0  0  0  0  0  0  0  0  0  0  0  0
  -30.6899   61.9372   67.3851 O   0  0  0  0  0  0  0  0  0  0  0  0
  -45.8517   59.9916   68.1113 C   0  0  0  0  0  0  0  0  0  0  0  0
  -31.1315   60.2570   69.6234 O   0  0  0  0  0  0  0  0  0  0  0  0
  -44.7916   59.0699   67.5458 C   0  0  0  0  0  0  0  0  0  0  0  0
  -38.2720   59.8520   65.2990 O   0  0  0  0  0  0  0  0  0  0  0  0
  -44.8098   58.9602   66.0345 C   0  0  0  0  0  0  0  0  0  0  0  0
  -40.2610   59.8884   64.2489 O   0  0  0  0  0  0  0  0  0  0  0  0
  -43.7504   58.0197   65.5042 C   0  0  0  0  0  0  0  0  0  0  0  0
  -43.7442   57.9125   64.0022 C   0  0  0  0  0  0  0  0  0  0  0  0
  -42.6954   56.9593   63.4834 C   0  0  0  0  0  0  0  0  0  0  0  0
  -42.6743   56.8612   61.9714 C   0  0  0  0  0  0  0  0  0  0  0  0
  -42.3742   58.1805   61.2967 C   0  0  0  0  0  0  0  0  0  0  0  0
  -41.0265   58.7690   61.6572 C   0  0  0  0  0  0  0  0  0  0  0  0
  -39.8676   57.8664   61.2691 C   0  0  0  0  0  0  0  0  0  0  0  0
  -38.5165   58.4143   61.6284 C   0  0  0  0  0  0  0  0  0  0  0  0
  -37.0720   58.9080   63.4380 C   0  0  0  0  0  0  0  0  0  0  0  0
  -37.3490   60.1700   64.2050 C   0  0  2  0  0  0  0  0  0  0  0  0
  -36.0840   60.8130   64.7130 C   0  0  0  0  0  0  0  0  0  0  0  0
  -33.2816   59.6066   68.7887 C   0  0  0  0  0  0  0  0  0  0  0  0
  -32.2020   60.6606   68.7643 C   0  0  2  0  0  0  0  0  0  0  0  0
  -31.6823   60.9191   67.3705 C   0  0  0  0  0  0  0  0  0  0  0  0
  -39.4672   59.3329   64.9581 C   0  0  0  0  0  0  0  0  0  0  0  0
  -39.6789   57.9753   65.5532 C   0  0  0  0  0  0  0  0  0  0  0  0
  -39.6438   58.0216   67.0774 C   0  0  0  0  0  0  0  0  0  0  0  0
  -39.8364   56.6672   67.7397 C   0  0  0  0  0  0  0  0  0  0  0  0
  -38.7647   55.6488   67.3681 C   0  0  0  0  0  0  0  0  0  0  0  0
  -37.3585   56.0617   67.7611 C   0  0  0  0  0  0  0  0  0  0  0  0
  -36.8825   57.3759   67.1354 C   0  0  0  0  0  0  0  0  0  0  0  0
  -35.4597   57.7975   67.5087 C   0  0  0  0  0  0  0  0  0  0  0  0
  -35.2926   57.9738   68.9882 C   0  0  0  0  0  0  0  0  0  0  0  0
  -35.4764   59.0850   69.6744 C   0  0  0  0  0  0  0  0  0  0  0  0
  -35.8940   60.4086   69.1158 C   0  0  0  0  0  0  0  0  0  0  0  0
  -36.7647   60.2665   67.8707 C   0  0  0  0  0  0  0  0  0  0  0  0
  -37.1908   61.5947   67.2702 C   0  0  0  0  0  0  0  0  0  0  0  0
  -37.9868   62.4681   68.2246 C   0  0  0  0  0  0  0  0  0  0  0  0
  -39.2713   61.8358   68.7341 C   0  0  0  0  0  0  0  0  0  0  0  0
  -40.0582   62.7363   69.6741 C   0  0  0  0  0  0  0  0  0  0  0  0
  -41.3349   62.1160   70.2063 C   0  0  0  0  0  0  0  0  0  0  0  0
  -41.0861   60.8636   70.9996 C   0  0  0  0  0  0  0  0  0  0  0  0
  -44.6134   68.5994   67.8106 H   0  0  0  0  0  0  0  0  0  0  0  0
  -44.0268   67.9871   66.2829 H   0  0  0  0  0  0  0  0  0  0  0  0
  -42.8987   68.3770   67.5590 H   0  0  0  0  0  0  0  0  0  0  0  0
  -44.9561   66.1996   67.6506 H   0  0  0  0  0  0  0  0  0  0  0  0
  -43.7932   66.6034   68.9209 H   0  0  0  0  0  0  0  0  0  0  0  0
  -41.9776   66.0260   67.4718 H   0  0  0  0  0  0  0  0  0  0  0  0
  -43.1615   65.6262   66.1949 H   0  0  0  0  0  0  0  0  0  0  0  0
  -42.8650   64.1951   68.7812 H   0  0  0  0  0  0  0  0  0  0  0  0
  -42.2692   63.6630   67.1929 H   0  0  0  0  0  0  0  0  0  0  0  0
  -44.5055   63.5330   66.3673 H   0  0  0  0  0  0  0  0  0  0  0  0
  -45.1085   64.0835   67.9468 H   0  0  0  0  0  0  0  0  0  0  0  0
  -33.5830   61.8440   65.2052 H   0  0  0  0  0  0  0  0  0  0  0  0
  -44.2929   62.0995   68.9800 H   0  0  0  0  0  0  0  0  0  0  0  0
  -43.6680   61.5500   67.4105 H   0  0  0  0  0  0  0  0  0  0  0  0
  -45.8846   61.4194   66.5443 H   0  0  0  0  0  0  0  0  0  0  0  0
  -46.5135   61.9856   68.1110 H   0  0  0  0  0  0  0  0  0  0  0  0
  -30.3688   62.0888   66.4824 H   0  0  0  0  0  0  0  0  0  0  0  0
  -46.8127   59.6048   67.8432 H   0  0  0  0  0  0  0  0  0  0  0  0
  -45.7036   60.0236   69.1705 H   0  0  0  0  0  0  0  0  0  0  0  0
  -31.4766   60.0938   70.5152 H   0  0  0  0  0  0  0  0  0  0  0  0
  -44.9423   58.0930   67.9555 H   0  0  0  0  0  0  0  0  0  0  0  0
  -43.8439   59.4885   67.8135 H   0  0  0  0  0  0  0  0  0  0  0  0
  -44.6437   59.9321   65.6189 H   0  0  0  0  0  0  0  0  0  0  0  0
  -45.7631   58.5658   65.7508 H   0  0  0  0  0  0  0  0  0  0  0  0
  -43.9253   57.0465   65.9130 H   0  0  0  0  0  0  0  0  0  0  0  0
  -42.8006   58.4163   65.7966 H   0  0  0  0  0  0  0  0  0  0  0  0
  -43.5561   58.8826   63.5918 H   0  0  0  0  0  0  0  0  0  0  0  0
  -44.6986   57.5311   63.7046 H   0  0  0  0  0  0  0  0  0  0  0  0
  -42.8912   55.9869   63.8846 H   0  0  0  0  0  0  0  0  0  0  0  0
  -41.7426   57.3365   63.7911 H   0  0  0  0  0  0  0  0  0  0  0  0
  -43.6318   56.5184   61.6388 H   0  0  0  0  0  0  0  0  0  0  0  0
  -41.8917   56.1814   61.7063 H   0  0  0  0  0  0  0  0  0  0  0  0
  -43.1324   58.8812   61.5775 H   0  0  0  0  0  0  0  0  0  0  0  0
  -42.3552   57.9903   60.2439 H   0  0  0  0  0  0  0  0  0  0  0  0
  -40.9954   58.9299   62.7146 H   0  0  0  0  0  0  0  0  0  0  0  0
  -40.9185   59.6842   61.1134 H   0  0  0  0  0  0  0  0  0  0  0  0
  -39.8985   57.7165   60.2101 H   0  0  0  0  0  0  0  0  0  0  0  0
  -39.9877   56.9565   61.8190 H   0  0  0  0  0  0  0  0  0  0  0  0
  -36.4020   59.0962   62.6252 H   0  0  0  0  0  0  0  0  0  0  0  0
  -36.6048   58.1555   64.0382 H   0  0  0  0  0  0  0  0  0  0  0  0
  -37.7985   60.8886   63.5519 H   0  0  0  0  0  0  0  0  0  0  0  0
  -35.4401   61.0403   63.8892 H   0  0  0  0  0  0  0  0  0  0  0  0
  -36.3193   61.7188   65.2317 H   0  0  0  0  0  0  0  0  0  0  0  0
  -32.8811   58.6713   68.4574 H   0  0  0  0  0  0  0  0  0  0  0  0
  -33.6566   59.4871   69.7837 H   0  0  0  0  0  0  0  0  0  0  0  0
  -32.6293   61.5780   69.1118 H   0  0  0  0  0  0  0  0  0  0  0  0
  -31.2556   60.0181   66.9820 H   0  0  0  0  0  0  0  0  0  0  0  0
  -32.4958   61.2403   66.7540 H   0  0  0  0  0  0  0  0  0  0  0  0
  -38.9071   57.3198   65.2073 H   0  0  0  0  0  0  0  0  0  0  0  0
  -40.6424   57.6223   65.2500 H   0  0  0  0  0  0  0  0  0  0  0  0
  -40.4226   58.6742   67.4126 H   0  0  0  0  0  0  0  0  0  0  0  0
  -38.6700   58.3672   67.3551 H   0  0  0  0  0  0  0  0  0  0  0  0
  -40.7889   56.2789   67.4451 H   0  0  0  0  0  0  0  0  0  0  0  0
  -39.7695   56.8221   68.7964 H   0  0  0  0  0  0  0  0  0  0  0  0
  -38.7896   55.5058   66.3080 H   0  0  0  0  0  0  0  0  0  0  0  0
  -38.9873   54.7533   67.9099 H   0  0  0  0  0  0  0  0  0  0  0  0
  -36.6862   55.2857   67.4598 H   0  0  0  0  0  0  0  0  0  0  0  0
  -37.3723   56.2169   68.8197 H   0  0  0  0  0  0  0  0  0  0  0  0
  -37.5502   58.1517   67.4471 H   0  0  0  0  0  0  0  0  0  0  0  0
  -36.8769   57.2161   66.0774 H   0  0  0  0  0  0  0  0  0  0  0  0
  -35.2362   58.7246   67.0235 H   0  0  0  0  0  0  0  0  0  0  0  0
  -34.7931   57.0226   67.1923 H   0  0  0  0  0  0  0  0  0  0  0  0
  -35.0043   57.1405   69.5245 H   0  0  0  0  0  0  0  0  0  0  0  0
  -35.3170   59.0370   70.6929 H   0  0  0  0  0  0  0  0  0  0  0  0
  -35.0170   60.9656   68.8600 H   0  0  0  0  0  0  0  0  0  0  0  0
  -36.4731   60.9097   69.8630 H   0  0  0  0  0  0  0  0  0  0  0  0
  -37.6442   59.7170   68.1342 H   0  0  0  0  0  0  0  0  0  0  0  0
  -36.1756   59.7637   67.1324 H   0  0  0  0  0  0  0  0  0  0  0  0
  -37.7945   61.3980   66.4089 H   0  0  0  0  0  0  0  0  0  0  0  0
  -36.2966   62.1300   67.0279 H   0  0  0  0  0  0  0  0  0  0  0  0
  -38.2395   63.3750   67.7160 H   0  0  0  0  0  0  0  0  0  0  0  0
  -37.3656   62.6281   69.0810 H   0  0  0  0  0  0  0  0  0  0  0  0
  -39.0221   60.9359   69.2565 H   0  0  0  0  0  0  0  0  0  0  0  0
  -39.8914   61.6511   67.8819 H   0  0  0  0  0  0  0  0  0  0  0  0
  -40.3148   63.6305   69.1454 H   0  0  0  0  0  0  0  0  0  0  0  0
  -39.4301   62.9204   70.5205 H   0  0  0  0  0  0  0  0  0  0  0  0
  -41.9695   61.8763   69.3788 H   0  0  0  0  0  0  0  0  0  0  0  0
  -41.7905   62.8281   70.8621 H   0  0  0  0  0  0  0  0  0  0  0  0
  -40.6293   60.1281   70.3710 H   0  0  0  0  0  0  0  0  0  0  0  0
  -42.0157   60.4868   71.3721 H   0  0  0  0  0  0  0  0  0  0  0  0
  -40.4362   61.0846   71.8204 H   0  0  0  0  0  0  0  0  0  0  0  0
  1  4  1  0  0  0  0
  1 54  1  0  0  0  0
  1 55  1  0  0  0  0
  1 56  1  0  0  0  0
  2 29  2  0  0  0  0
  3  7  1  0  0  0  0
  3  9  2  6  0  0  0
  3 11  1  0  0  0  0
  3 13  1  0  0  0  0
  4  6  1  0  0  0  0
  4 57  1  0  0  0  0
  4 58  1  0  0  0  0
  5 29  1  0  0  0  0
  5 30  1  0  0  0  0
  6  8  1  0  0  0  0
  6 59  1  0  0  0  0
  6 60  1  0  0  0  0
  7 32  1  0  0  0  0
  8 10  1  0  0  0  0
  8 61  1  0  0  0  0
  8 62  1  0  0  0  0
 10 12  1  0  0  0  0
 10 63  1  0  0  0  0
 10 64  1  0  0  0  0
 11 65  1  0  0  0  0
 12 14  1  0  0  0  0
 12 66  1  0  0  0  0
 12 67  1  0  0  0  0
 13 33  1  0  0  0  0
 14 16  1  0  0  0  0
 14 68  1  0  0  0  0
 14 69  1  0  0  0  0
 15 35  1  0  0  0  0
 15 70  1  0  0  0  0
 16 18  1  0  0  0  0
 16 71  1  0  0  0  0
 16 72  1  0  0  0  0
 17 34  1  0  0  0  0
 17 73  1  0  0  0  0
 18 20  1  0  0  0  0
 18 74  1  0  0  0  0
 18 75  1  0  0  0  0
 19 31  1  0  0  0  0
 19 36  1  0  0  0  0
 20 22  1  0  0  0  0
 20 76  1  0  0  0  0
 20 77  1  0  0  0  0
 21 36  2  0  0  0  0
 22 23  1  0  0  0  0
 22 78  1  0  0  0  0
 22 79  1  0  0  0  0
 23 24  1  0  0  0  0
 23 80  1  0  0  0  0
 23 81  1  0  0  0  0
 24 25  1  0  0  0  0
 24 82  1  0  0  0  0
 24 83  1  0  0  0  0
 25 26  1  0  0  0  0
 25 84  1  0  0  0  0
 25 85  1  0  0  0  0
 26 27  1  0  0  0  0
 26 86  1  0  0  0  0
 26 87  1  0  0  0  0
 27 28  1  0  0  0  0
 27 88  1  0  0  0  0
 27 89  1  0  0  0  0
 28 29  1  0  0  0  0
 28 90  1  0  0  0  0
 28 91  1  0  0  0  0
 30 31  1  0  0  0  0
 30 92  1  0  0  0  0
 30 93  1  0  0  0  0
 31 32  1  0  0  0  0
 31 94  1  6  0  0  0
 32 95  1  0  0  0  0
 32 96  1  0  0  0  0
 33 34  1  0  0  0  0
 33 97  1  0  0  0  0
 33 98  1  0  0  0  0
 34 35  1  0  0  0  0
 34 99  1  1  0  0  0
 35100  1  0  0  0  0
 35101  1  0  0  0  0
 36 37  1  0  0  0  0
 37 38  1  0  0  0  0
 37102  1  0  0  0  0
 37103  1  0  0  0  0
 38 39  1  0  0  0  0
 38104  1  0  0  0  0
 38105  1  0  0  0  0
 39 40  1  0  0  0  0
 39106  1  0  0  0  0
 39107  1  0  0  0  0
 40 41  1  0  0  0  0
 40108  1  0  0  0  0
 40109  1  0  0  0  0
 41 42  1  0  0  0  0
 41110  1  0  0  0  0
 41111  1  0  0  0  0
 42 43  1  0  0  0  0
 42112  1  0  0  0  0
 42113  1  0  0  0  0
 43 44  1  0  0  0  0
 43114  1  0  0  0  0
 43115  1  0  0  0  0
 44 45  2  0  0  0  0
 44116  1  0  0  0  0
 45 46  1  0  0  0  0
 45117  1  0  0  0  0
 46 47  1  0  0  0  0
 46118  1  0  0  0  0
 46119  1  0  0  0  0
 47 48  1  0  0  0  0
 47120  1  0  0  0  0
 47121  1  0  0  0  0
 48 49  1  0  0  0  0
 48122  1  0  0  0  0
 48123  1  0  0  0  0
 49 50  1  0  0  0  0
 49124  1  0  0  0  0
 49125  1  0  0  0  0
 50 51  1  0  0  0  0
 50126  1  0  0  0  0
 50127  1  0  0  0  0
 51 52  1  0  0  0  0
 51128  1  0  0  0  0
 51129  1  0  0  0  0
 52 53  1  0  0  0  0
 52130  1  0  0  0  0
 52131  1  0  0  0  0
 53132  1  0  0  0  0
 53133  1  0  0  0  0
 53134  1  0  0  0  0
M  CHG  1   9  -1
M  END
$$$$
/media/chris/experiments/cd1a-new-docking/inputs/ligands/7sh4_ligand.pdb
 OpenBabel07012320073D

134133  0  0  1  0  0  0  0  0999 V2000
  -43.2687   50.1502   67.8407 C   0  0  0  0  0  0  0  0  0  0  0  0
  -39.1377   58.0331   64.9968 O   0  0  0  0  0  0  0  0  0  0  0  0
  -34.0491   60.2433   66.3537 P   0  0  1  0  0  0  0  0  0  0  0  0
  -42.5070   49.5798   66.6658 C   0  0  0  0  0  0  0  0  0  0  0  0
  -38.3690   58.5038   62.9506 O   0  0  0  0  0  0  0  0  0  0  0  0
  -41.5482   48.4788   67.0776 C   0  0  0  0  0  0  0  0  0  0  0  0
  -35.4212   59.8922   65.6081 O   0  0  0  0  0  0  0  0  0  0  0  0
  -40.7424   47.8793   65.9390 C   0  0  0  0  0  0  0  0  0  0  0  0
  -33.2899   61.1805   65.4982 O   0  5  0  0  0  0  0  0  0  0  0  0
  -39.8543   48.8881   65.2239 C   0  0  0  0  0  0  0  0  0  0  0  0
  -34.3697   60.6479   67.7438 O   0  0  0  0  0  0  0  0  0  0  0  0
  -39.0626   48.2944   64.0768 C   0  0  0  0  0  0  0  0  0  0  0  0
  -33.2397   58.8709   66.4173 O   0  0  0  0  0  0  0  0  0  0  0  0
  -39.9342   47.7089   62.9824 C   0  0  0  0  0  0  0  0  0  0  0  0
  -32.6286   56.9446   64.9435 O   0  0  0  0  0  0  0  0  0  0  0  0
  -40.8605   48.7222   62.3196 C   0  0  0  0  0  0  0  0  0  0  0  0
  -32.6633   55.8979   68.4545 O   0  0  0  0  0  0  0  0  0  0  0  0
  -40.1331   49.8650   61.6427 C   0  0  0  0  0  0  0  0  0  0  0  0
  -38.2720   59.8520   65.2990 O   0  0  0  0  0  0  0  0  0  0  0  0
  -41.0490   50.8846   60.9965 C   0  0  0  0  0  0  0  0  0  0  0  0
  -37.0574   60.9578   66.8359 O   0  0  0  0  0  0  0  0  0  0  0  0
  -40.2909   52.0024   60.3155 C   0  0  0  0  0  0  0  0  0  0  0  0
  -39.3964   52.7736   61.2497 C   0  0  0  0  0  0  0  0  0  0  0  0
  -40.1479   53.4142   62.3909 C   0  0  0  0  0  0  0  0  0  0  0  0
  -41.2155   54.3862   61.9310 C   0  0  0  0  0  0  0  0  0  0  0  0
  -40.6633   55.5229   61.1011 C   0  0  0  0  0  0  0  0  0  0  0  0
  -39.6272   56.3655   61.8146 C   0  0  0  0  0  0  0  0  0  0  0  0
  -40.1623   57.0052   63.0846 C   0  0  0  0  0  0  0  0  0  0  0  0
  -39.1632   57.8617   63.8078 C   0  0  0  0  0  0  0  0  0  0  0  0
  -37.0720   58.9080   63.4380 C   0  0  0  0  0  0  0  0  0  0  0  0
  -37.3490   60.1700   64.2050 C   0  0  2  0  0  0  0  0  0  0  0  0
  -36.0840   60.8130   64.7130 C   0  0  0  0  0  0  0  0  0  0  0  0
  -33.3983   57.9915   67.5494 C   0  0  0  0  0  0  0  0  0  0  0  0
  -32.5069   56.7908   67.3476 C   0  0  2  0  0  0  0  0  0  0  0  0
  -32.7967   56.0708   66.0525 C   0  0  0  0  0  0  0  0  0  0  0  0
  -37.8399   60.0926   66.5518 C   0  0  0  0  0  0  0  0  0  0  0  0
  -38.4651   59.1659   67.5480 C   0  0  0  0  0  0  0  0  0  0  0  0
  -37.4127   58.3363   68.2767 C   0  0  0  0  0  0  0  0  0  0  0  0
  -37.9895   57.3625   69.2911 C   0  0  0  0  0  0  0  0  0  0  0  0
  -38.8047   58.0368   70.3886 C   0  0  0  0  0  0  0  0  0  0  0  0
  -39.3710   57.0745   71.4161 C   0  0  0  0  0  0  0  0  0  0  0  0
  -40.3014   56.0032   70.8403 C   0  0  0  0  0  0  0  0  0  0  0  0
  -41.5358   56.5364   70.1100 C   0  0  0  0  0  0  0  0  0  0  0  0
  -42.4056   55.4315   69.5899 C   0  0  0  0  0  0  0  0  0  0  0  0
  -42.0552   54.4889   68.7365 C   0  0  0  0  0  0  0  0  0  0  0  0
  -40.7079   54.3244   68.1073 C   0  0  0  0  0  0  0  0  0  0  0  0
  -39.7856   53.4306   68.9314 C   0  0  0  0  0  0  0  0  0  0  0  0
  -40.3117   52.0182   69.1169 C   0  0  0  0  0  0  0  0  0  0  0  0
  -40.5050   51.2632   67.8131 C   0  0  0  0  0  0  0  0  0  0  0  0
  -39.2354   51.0779   66.9987 C   0  0  0  0  0  0  0  0  0  0  0  0
  -38.1582   50.2891   67.7274 C   0  0  0  0  0  0  0  0  0  0  0  0
  -36.8774   50.1083   66.9369 C   0  0  0  0  0  0  0  0  0  0  0  0
  -35.8428   49.3106   67.6805 C   0  0  0  0  0  0  0  0  0  0  0  0
  -43.9285   50.9198   67.4982 H   0  0  0  0  0  0  0  0  0  0  0  0
  -42.5786   50.5606   68.5479 H   0  0  0  0  0  0  0  0  0  0  0  0
  -43.8382   49.3737   68.3073 H   0  0  0  0  0  0  0  0  0  0  0  0
  -41.9484   50.3668   66.2038 H   0  0  0  0  0  0  0  0  0  0  0  0
  -43.2198   49.1557   65.9898 H   0  0  0  0  0  0  0  0  0  0  0  0
  -42.1169   47.6947   67.5322 H   0  0  0  0  0  0  0  0  0  0  0  0
  -40.8415   48.9277   67.7439 H   0  0  0  0  0  0  0  0  0  0  0  0
  -41.4226   47.4622   65.2261 H   0  0  0  0  0  0  0  0  0  0  0  0
  -40.0970   47.1405   66.3662 H   0  0  0  0  0  0  0  0  0  0  0  0
  -39.1661   49.2961   65.9343 H   0  0  0  0  0  0  0  0  0  0  0  0
  -40.4992   49.6333   64.8071 H   0  0  0  0  0  0  0  0  0  0  0  0
  -34.8636   61.4827   67.7318 H   0  0  0  0  0  0  0  0  0  0  0  0
  -38.4361   47.5178   64.4632 H   0  0  0  0  0  0  0  0  0  0  0  0
  -38.4971   49.0899   63.6384 H   0  0  0  0  0  0  0  0  0  0  0  0
  -40.5345   46.9328   63.4092 H   0  0  0  0  0  0  0  0  0  0  0  0
  -39.2747   47.3476   62.2211 H   0  0  0  0  0  0  0  0  0  0  0  0
  -32.8188   56.4649   64.1221 H   0  0  0  0  0  0  0  0  0  0  0  0
  -41.5056   49.1301   63.0694 H   0  0  0  0  0  0  0  0  0  0  0  0
  -41.3982   48.1997   61.5562 H   0  0  0  0  0  0  0  0  0  0  0  0
  -32.4749   56.3706   69.2803 H   0  0  0  0  0  0  0  0  0  0  0  0
  -39.4971   49.4568   60.8852 H   0  0  0  0  0  0  0  0  0  0  0  0
  -39.5883   50.3796   62.4064 H   0  0  0  0  0  0  0  0  0  0  0  0
  -41.6771   51.3079   61.7523 H   0  0  0  0  0  0  0  0  0  0  0  0
  -41.6190   50.3772   60.2464 H   0  0  0  0  0  0  0  0  0  0  0  0
  -40.9989   52.6805   59.8868 H   0  0  0  0  0  0  0  0  0  0  0  0
  -39.6624   51.5528   59.5754 H   0  0  0  0  0  0  0  0  0  0  0  0
  -38.9029   53.5422   60.6923 H   0  0  0  0  0  0  0  0  0  0  0  0
  -38.7017   52.0790   61.6738 H   0  0  0  0  0  0  0  0  0  0  0  0
  -39.4485   53.9425   63.0047 H   0  0  0  0  0  0  0  0  0  0  0  0
  -40.6409   52.6304   62.9270 H   0  0  0  0  0  0  0  0  0  0  0  0
  -41.6969   54.7968   62.7938 H   0  0  0  0  0  0  0  0  0  0  0  0
  -41.8984   53.8417   61.3129 H   0  0  0  0  0  0  0  0  0  0  0  0
  -41.4766   56.1586   60.8192 H   0  0  0  0  0  0  0  0  0  0  0  0
  -40.1730   55.0797   60.2597 H   0  0  0  0  0  0  0  0  0  0  0  0
  -39.3015   57.1403   61.1525 H   0  0  0  0  0  0  0  0  0  0  0  0
  -38.8223   55.7182   62.0941 H   0  0  0  0  0  0  0  0  0  0  0  0
  -40.4779   56.2257   63.7462 H   0  0  0  0  0  0  0  0  0  0  0  0
  -40.9652   57.6487   62.7912 H   0  0  0  0  0  0  0  0  0  0  0  0
  -36.4020   59.0962   62.6252 H   0  0  0  0  0  0  0  0  0  0  0  0
  -36.6048   58.1555   64.0382 H   0  0  0  0  0  0  0  0  0  0  0  0
  -37.7985   60.8886   63.5519 H   0  0  0  0  0  0  0  0  0  0  0  0
  -35.4401   61.0403   63.8892 H   0  0  0  0  0  0  0  0  0  0  0  0
  -36.3193   61.7188   65.2317 H   0  0  0  0  0  0  0  0  0  0  0  0
  -34.4182   57.6764   67.6222 H   0  0  0  0  0  0  0  0  0  0  0  0
  -33.1304   58.5011   68.4513 H   0  0  0  0  0  0  0  0  0  0  0  0
  -31.4959   57.1366   67.2914 H   0  0  0  0  0  0  0  0  0  0  0  0
  -32.1257   55.2434   65.9527 H   0  0  0  0  0  0  0  0  0  0  0  0
  -33.8099   55.7270   66.0691 H   0  0  0  0  0  0  0  0  0  0  0  0
  -39.1349   58.5064   67.0368 H   0  0  0  0  0  0  0  0  0  0  0  0
  -38.9889   59.7547   68.2718 H   0  0  0  0  0  0  0  0  0  0  0  0
  -36.7525   59.0046   68.7890 H   0  0  0  0  0  0  0  0  0  0  0  0
  -36.9107   57.7509   67.5350 H   0  0  0  0  0  0  0  0  0  0  0  0
  -37.1807   56.8315   69.7481 H   0  0  0  0  0  0  0  0  0  0  0  0
  -38.6539   56.7131   68.7603 H   0  0  0  0  0  0  0  0  0  0  0  0
  -39.6194   58.5578   69.9306 H   0  0  0  0  0  0  0  0  0  0  0  0
  -38.1389   58.6913   70.9112 H   0  0  0  0  0  0  0  0  0  0  0  0
  -39.9212   57.6420   72.1373 H   0  0  0  0  0  0  0  0  0  0  0  0
  -38.5360   56.5560   71.8390 H   0  0  0  0  0  0  0  0  0  0  0  0
  -40.6355   55.3861   71.6481 H   0  0  0  0  0  0  0  0  0  0  0  0
  -39.7281   55.4747   70.1076 H   0  0  0  0  0  0  0  0  0  0  0  0
  -41.2154   57.1398   69.2865 H   0  0  0  0  0  0  0  0  0  0  0  0
  -42.1110   57.1068   70.8091 H   0  0  0  0  0  0  0  0  0  0  0  0
  -43.3779   55.4059   69.9349 H   0  0  0  0  0  0  0  0  0  0  0  0
  -42.7788   53.7998   68.4784 H   0  0  0  0  0  0  0  0  0  0  0  0
  -40.2544   55.2886   68.0095 H   0  0  0  0  0  0  0  0  0  0  0  0
  -40.8478   53.8580   67.1545 H   0  0  0  0  0  0  0  0  0  0  0  0
  -39.6596   53.8739   69.8971 H   0  0  0  0  0  0  0  0  0  0  0  0
  -38.8631   53.3532   68.3948 H   0  0  0  0  0  0  0  0  0  0  0  0
  -41.2550   52.0722   69.6192 H   0  0  0  0  0  0  0  0  0  0  0  0
  -39.5783   51.4828   69.6829 H   0  0  0  0  0  0  0  0  0  0  0  0
  -41.2097   51.8029   67.2156 H   0  0  0  0  0  0  0  0  0  0  0  0
  -40.8438   50.2829   68.0761 H   0  0  0  0  0  0  0  0  0  0  0  0
  -38.8434   52.0439   66.7575 H   0  0  0  0  0  0  0  0  0  0  0  0
  -39.4997   50.5184   66.1257 H   0  0  0  0  0  0  0  0  0  0  0  0
  -38.5497   49.3203   67.9577 H   0  0  0  0  0  0  0  0  0  0  0  0
  -37.9032   50.8520   68.6009 H   0  0  0  0  0  0  0  0  0  0  0  0
  -36.4720   51.0739   66.7171 H   0  0  0  0  0  0  0  0  0  0  0  0
  -37.1217   49.5688   66.0458 H   0  0  0  0  0  0  0  0  0  0  0  0
  -35.5753   49.8242   68.5802 H   0  0  0  0  0  0  0  0  0  0  0  0
  -34.9749   49.1917   67.0662 H   0  0  0  0  0  0  0  0  0  0  0  0
  -36.2419   48.3482   67.9243 H   0  0  0  0  0  0  0  0  0  0  0  0
  1  4  1  0  0  0  0
  1 54  1  0  0  0  0
  1 55  1  0  0  0  0
  1 56  1  0  0  0  0
  2 29  2  0  0  0  0
  3  7  1  0  0  0  0
  3  9  2  6  0  0  0
  3 11  1  0  0  0  0
  3 13  1  0  0  0  0
  4  6  1  0  0  0  0
  4 57  1  0  0  0  0
  4 58  1  0  0  0  0
  5 29  1  0  0  0  0
  5 30  1  0  0  0  0
  6  8  1  0  0  0  0
  6 59  1  0  0  0  0
  6 60  1  0  0  0  0
  7 32  1  0  0  0  0
  8 10  1  0  0  0  0
  8 61  1  0  0  0  0
  8 62  1  0  0  0  0
 10 12  1  0  0  0  0
 10 63  1  0  0  0  0
 10 64  1  0  0  0  0
 11 65  1  0  0  0  0
 12 14  1  0  0  0  0
 12 66  1  0  0  0  0
 12 67  1  0  0  0  0
 13 33  1  0  0  0  0
 14 16  1  0  0  0  0
 14 68  1  0  0  0  0
 14 69  1  0  0  0  0
 15 35  1  0  0  0  0
 15 70  1  0  0  0  0
 16 18  1  0  0  0  0
 16 71  1  0  0  0  0
 16 72  1  0  0  0  0
 17 34  1  0  0  0  0
 17 73  1  0  0  0  0
 18 20  1  0  0  0  0
 18 74  1  0  0  0  0
 18 75  1  0  0  0  0
 19 31  1  0  0  0  0
 19 36  1  0  0  0  0
 20 22  1  0  0  0  0
 20 76  1  0  0  0  0
 20 77  1  0  0  0  0
 21 36  2  0  0  0  0
 22 23  1  0  0  0  0
 22 78  1  0  0  0  0
 22 79  1  0  0  0  0
 23 24  1  0  0  0  0
 23 80  1  0  0  0  0
 23 81  1  0  0  0  0
 24 25  1  0  0  0  0
 24 82  1  0  0  0  0
 24 83  1  0  0  0  0
 25 26  1  0  0  0  0
 25 84  1  0  0  0  0
 25 85  1  0  0  0  0
 26 27  1  0  0  0  0
 26 86  1  0  0  0  0
 26 87  1  0  0  0  0
 27 28  1  0  0  0  0
 27 88  1  0  0  0  0
 27 89  1  0  0  0  0
 28 29  1  0  0  0  0
 28 90  1  0  0  0  0
 28 91  1  0  0  0  0
 30 31  1  0  0  0  0
 30 92  1  0  0  0  0
 30 93  1  0  0  0  0
 31 32  1  0  0  0  0
 31 94  1  6  0  0  0
 32 95  1  0  0  0  0
 32 96  1  0  0  0  0
 33 34  1  0  0  0  0
 33 97  1  0  0  0  0
 33 98  1  0  0  0  0
 34 35  1  0  0  0  0
 34 99  1  6  0  0  0
 35100  1  0  0  0  0
 35101  1  0  0  0  0
 36 37  1  0  0  0  0
 37 38  1  0  0  0  0
 37102  1  0  0  0  0
 37103  1  0  0  0  0
 38 39  1  0  0  0  0
 38104  1  0  0  0  0
 38105  1  0  0  0  0
 39 40  1  0  0  0  0
 39106  1  0  0  0  0
 39107  1  0  0  0  0
 40 41  1  0  0  0  0
 40108  1  0  0  0  0
 40109  1  0  0  0  0
 41 42  1  0  0  0  0
 41110  1  0  0  0  0
 41111  1  0  0  0  0
 42 43  1  0  0  0  0
 42112  1  0  0  0  0
 42113  1  0  0  0  0
 43 44  1  0  0  0  0
 43114  1  0  0  0  0
 43115  1  0  0  0  0
 44 45  2  0  0  0  0
 44116  1  0  0  0  0
 45 46  1  0  0  0  0
 45117  1  0  0  0  0
 46 47  1  0  0  0  0
 46118  1  0  0  0  0
 46119  1  0  0  0  0
 47 48  1  0  0  0  0
 47120  1  0  0  0  0
 47121  1  0  0  0  0
 48 49  1  0  0  0  0
 48122  1  0  0  0  0
 48123  1  0  0  0  0
 49 50  1  0  0  0  0
 49124  1  0  0  0  0
 49125  1  0  0  0  0
 50 51  1  0  0  0  0
 50126  1  0  0  0  0
 50127  1  0  0  0  0
 51 52  1  0  0  0  0
 51128  1  0  0  0  0
 51129  1  0  0  0  0
 52 53  1  0  0  0  0
 52130  1  0  0  0  0
 52131  1  0  0  0  0
 53132  1  0  0  0  0
 53133  1  0  0  0  0
 53134  1  0  0  0  0
M  CHG  1   9  -1
M  END
$$$$
/media/chris/experiments/cd1a-new-docking/inputs/ligands/7sh4_ligand.pdb
 OpenBabel07012320073D

134133  0  0  1  0  0  0  0  0999 V2000
  -45.3979   65.2281   59.4722 C   0  0  0  0  0  0  0  0  0  0  0  0
  -34.4809   60.1886   63.6136 O   0  0  0  0  0  0  0  0  0  0  0  0
  -34.0491   60.2433   66.3537 P   0  0  1  0  0  0  0  0  0  0  0  0
  -45.8168   63.8425   59.0359 C   0  0  0  0  0  0  0  0  0  0  0  0
  -36.1511   59.3213   62.4064 O   0  0  0  0  0  0  0  0  0  0  0  0
  -44.6323   62.9686   58.6696 C   0  0  0  0  0  0  0  0  0  0  0  0
  -35.4212   59.8922   65.6081 O   0  0  0  0  0  0  0  0  0  0  0  0
  -43.6450   62.7309   59.7982 C   0  0  0  0  0  0  0  0  0  0  0  0
  -32.9327   59.8051   65.4886 O   0  5  0  0  0  0  0  0  0  0  0  0
  -44.2555   62.0312   61.0045 C   0  0  0  0  0  0  0  0  0  0  0  0
  -34.1055   61.6624   66.7798 O   0  0  0  0  0  0  0  0  0  0  0  0
  -44.8125   60.6574   60.6922 C   0  0  0  0  0  0  0  0  0  0  0  0
  -34.0379   59.3378   67.6662 O   0  0  0  0  0  0  0  0  0  0  0  0
  -43.7679   59.6868   60.1755 C   0  0  0  0  0  0  0  0  0  0  0  0
  -33.8243   62.6612   70.1546 O   0  0  0  0  0  0  0  0  0  0  0  0
  -43.0753   60.1450   58.8971 C   0  0  0  0  0  0  0  0  0  0  0  0
  -36.1412   61.0305   70.1222 O   0  0  0  0  0  0  0  0  0  0  0  0
  -42.0450   59.1658   58.3746 C   0  0  0  0  0  0  0  0  0  0  0  0
  -38.2720   59.8520   65.2990 O   0  0  0  0  0  0  0  0  0  0  0  0
  -40.9230   58.8701   59.3491 C   0  0  0  0  0  0  0  0  0  0  0  0
  -39.8075   59.1219   63.8261 O   0  0  0  0  0  0  0  0  0  0  0  0
  -39.9033   57.9028   58.7901 C   0  0  0  0  0  0  0  0  0  0  0  0
  -38.7900   57.5852   59.7530 C   0  0  0  0  0  0  0  0  0  0  0  0
  -37.7688   56.6328   59.1806 C   0  0  0  0  0  0  0  0  0  0  0  0
  -36.6556   56.2972   60.1522 C   0  0  0  0  0  0  0  0  0  0  0  0
  -35.8842   57.5136   60.6118 C   0  0  0  0  0  0  0  0  0  0  0  0
  -34.7541   57.2053   61.5712 C   0  0  0  0  0  0  0  0  0  0  0  0
  -34.0118   58.4507   62.0254 C   0  0  0  0  0  0  0  0  0  0  0  0
  -34.8698   59.4444   62.7543 C   0  0  0  0  0  0  0  0  0  0  0  0
  -37.0720   58.9080   63.4380 C   0  0  0  0  0  0  0  0  0  0  0  0
  -37.3490   60.1700   64.2050 C   0  0  2  0  0  0  0  0  0  0  0  0
  -36.0840   60.8130   64.7130 C   0  0  0  0  0  0  0  0  0  0  0  0
  -35.0941   59.4656   68.6400 C   0  0  0  0  0  0  0  0  0  0  0  0
  -35.1090   60.8886   69.1417 C   0  0  2  0  0  0  0  0  0  0  0  0
  -33.7791   61.3079   69.7208 C   0  0  0  0  0  0  0  0  0  0  0  0
  -39.4672   59.3329   64.9581 C   0  0  0  0  0  0  0  0  0  0  0  0
  -40.3113   59.0340   66.1581 C   0  0  0  0  0  0  0  0  0  0  0  0
  -41.6203   59.8165   66.1295 C   0  0  0  0  0  0  0  0  0  0  0  0
  -42.5140   59.5670   67.3333 C   0  0  0  0  0  0  0  0  0  0  0  0
  -42.9188   58.1067   67.4999 C   0  0  0  0  0  0  0  0  0  0  0  0
  -43.6737   57.5365   66.3136 C   0  0  0  0  0  0  0  0  0  0  0  0
  -44.1017   56.0750   66.4740 C   0  0  0  0  0  0  0  0  0  0  0  0
  -42.9591   55.0825   66.6998 C   0  0  0  0  0  0  0  0  0  0  0  0
  -41.9729   55.0901   65.5705 C   0  0  0  0  0  0  0  0  0  0  0  0
  -42.0086   54.3362   64.4889 C   0  0  0  0  0  0  0  0  0  0  0  0
  -43.0482   53.3115   64.1612 C   0  0  0  0  0  0  0  0  0  0  0  0
  -43.2610   53.1579   62.6580 C   0  0  0  0  0  0  0  0  0  0  0  0
  -43.6975   54.4396   61.9702 C   0  0  0  0  0  0  0  0  0  0  0  0
  -43.9258   54.2829   60.4767 C   0  0  0  0  0  0  0  0  0  0  0  0
  -44.3470   55.5589   59.7668 C   0  0  0  0  0  0  0  0  0  0  0  0
  -44.5857   55.3722   58.2763 C   0  0  0  0  0  0  0  0  0  0  0  0
  -44.9905   56.6383   57.5477 C   0  0  0  0  0  0  0  0  0  0  0  0
  -43.9472   57.7172   57.6331 C   0  0  0  0  0  0  0  0  0  0  0  0
  -46.2665   65.8023   59.7186 H   0  0  0  0  0  0  0  0  0  0  0  0
  -44.8674   65.7076   58.6763 H   0  0  0  0  0  0  0  0  0  0  0  0
  -44.7633   65.1551   60.3307 H   0  0  0  0  0  0  0  0  0  0  0  0
  -46.4564   63.9298   58.1825 H   0  0  0  0  0  0  0  0  0  0  0  0
  -46.3213   63.3801   59.8585 H   0  0  0  0  0  0  0  0  0  0  0  0
  -44.1092   63.4377   57.8626 H   0  0  0  0  0  0  0  0  0  0  0  0
  -45.0325   62.0103   58.4118 H   0  0  0  0  0  0  0  0  0  0  0  0
  -43.2594   63.6773   60.1153 H   0  0  0  0  0  0  0  0  0  0  0  0
  -42.8803   62.0874   59.4159 H   0  0  0  0  0  0  0  0  0  0  0  0
  -45.0499   62.6403   61.3824 H   0  0  0  0  0  0  0  0  0  0  0  0
  -43.4705   61.8962   61.7190 H   0  0  0  0  0  0  0  0  0  0  0  0
  -34.1133   62.2350   65.9969 H   0  0  0  0  0  0  0  0  0  0  0  0
  -45.5755   60.7617   59.9493 H   0  0  0  0  0  0  0  0  0  0  0  0
  -45.1919   60.2548   61.6081 H   0  0  0  0  0  0  0  0  0  0  0  0
  -44.2461   58.7494   59.9818 H   0  0  0  0  0  0  0  0  0  0  0  0
  -43.0117   59.6153   60.9291 H   0  0  0  0  0  0  0  0  0  0  0  0
  -32.9626   62.9117   70.5228 H   0  0  0  0  0  0  0  0  0  0  0  0
  -42.5863   61.0762   59.0937 H   0  0  0  0  0  0  0  0  0  0  0  0
  -43.8327   60.2303   58.1461 H   0  0  0  0  0  0  0  0  0  0  0  0
  -36.9901   60.7587   69.7396 H   0  0  0  0  0  0  0  0  0  0  0  0
  -41.6168   59.5727   57.4824 H   0  0  0  0  0  0  0  0  0  0  0  0
  -42.5565   58.2418   58.2032 H   0  0  0  0  0  0  0  0  0  0  0  0
  -41.3438   58.4481   60.2378 H   0  0  0  0  0  0  0  0  0  0  0  0
  -40.4178   59.7919   59.5493 H   0  0  0  0  0  0  0  0  0  0  0  0
  -39.4766   58.3320   57.9077 H   0  0  0  0  0  0  0  0  0  0  0  0
  -40.4160   56.9859   58.5863 H   0  0  0  0  0  0  0  0  0  0  0  0
  -39.2138   57.1436   60.6306 H   0  0  0  0  0  0  0  0  0  0  0  0
  -38.2846   58.5027   59.9718 H   0  0  0  0  0  0  0  0  0  0  0  0
  -37.3369   57.0803   58.3098 H   0  0  0  0  0  0  0  0  0  0  0  0
  -38.2781   55.7198   58.9524 H   0  0  0  0  0  0  0  0  0  0  0  0
  -35.9762   55.6240   59.6726 H   0  0  0  0  0  0  0  0  0  0  0  0
  -37.1080   55.8600   61.0177 H   0  0  0  0  0  0  0  0  0  0  0  0
  -36.5659   58.1791   61.0989 H   0  0  0  0  0  0  0  0  0  0  0  0
  -35.4384   57.9430   59.7390 H   0  0  0  0  0  0  0  0  0  0  0  0
  -34.0604   56.5524   61.0840 H   0  0  0  0  0  0  0  0  0  0  0  0
  -35.1834   56.7511   62.4397 H   0  0  0  0  0  0  0  0  0  0  0  0
  -33.6013   58.9309   61.1618 H   0  0  0  0  0  0  0  0  0  0  0  0
  -33.2604   58.1276   62.7152 H   0  0  0  0  0  0  0  0  0  0  0  0
  -36.6274   58.1683   64.0706 H   0  0  0  0  0  0  0  0  0  0  0  0
  -37.9610   58.4631   63.0423 H   0  0  0  0  0  0  0  0  0  0  0  0
  -37.7985   60.8886   63.5519 H   0  0  0  0  0  0  0  0  0  0  0  0
  -35.4401   61.0403   63.8892 H   0  0  0  0  0  0  0  0  0  0  0  0
  -36.3193   61.7188   65.2317 H   0  0  0  0  0  0  0  0  0  0  0  0
  -34.9165   58.7964   69.4558 H   0  0  0  0  0  0  0  0  0  0  0  0
  -36.0363   59.2226   68.1948 H   0  0  0  0  0  0  0  0  0  0  0  0
  -35.3007   61.5303   68.3072 H   0  0  0  0  0  0  0  0  0  0  0  0
  -33.5452   60.6794   70.5546 H   0  0  0  0  0  0  0  0  0  0  0  0
  -33.0291   61.2142   68.9635 H   0  0  0  0  0  0  0  0  0  0  0  0
  -39.7672   59.2987   67.0406 H   0  0  0  0  0  0  0  0  0  0  0  0
  -40.5442   57.9897   66.1532 H   0  0  0  0  0  0  0  0  0  0  0  0
  -42.1588   59.5400   65.2472 H   0  0  0  0  0  0  0  0  0  0  0  0
  -41.3618   60.8547   66.1448 H   0  0  0  0  0  0  0  0  0  0  0  0
  -43.4020   60.1537   67.2229 H   0  0  0  0  0  0  0  0  0  0  0  0
  -41.9527   59.8384   68.2028 H   0  0  0  0  0  0  0  0  0  0  0  0
  -43.5426   58.0271   68.3656 H   0  0  0  0  0  0  0  0  0  0  0  0
  -42.0139   57.5430   67.5910 H   0  0  0  0  0  0  0  0  0  0  0  0
  -43.0438   57.6073   65.4516 H   0  0  0  0  0  0  0  0  0  0  0  0
  -44.5737   58.1082   66.2233 H   0  0  0  0  0  0  0  0  0  0  0  0
  -44.6229   55.7833   65.5862 H   0  0  0  0  0  0  0  0  0  0  0  0
  -44.7060   56.0377   67.3563 H   0  0  0  0  0  0  0  0  0  0  0  0
  -43.3699   54.0989   66.7923 H   0  0  0  0  0  0  0  0  0  0  0  0
  -42.4420   55.3731   67.5904 H   0  0  0  0  0  0  0  0  0  0  0  0
  -41.1856   55.7529   65.6474 H   0  0  0  0  0  0  0  0  0  0  0  0
  -41.2476   54.4654   63.8040 H   0  0  0  0  0  0  0  0  0  0  0  0
  -43.9737   53.6050   64.6109 H   0  0  0  0  0  0  0  0  0  0  0  0
  -42.7089   52.3701   64.5402 H   0  0  0  0  0  0  0  0  0  0  0  0
  -44.0139   52.4149   62.4974 H   0  0  0  0  0  0  0  0  0  0  0  0
  -42.3180   52.8810   62.2350 H   0  0  0  0  0  0  0  0  0  0  0  0
  -42.9388   55.1790   62.1204 H   0  0  0  0  0  0  0  0  0  0  0  0
  -44.6345   54.7231   62.4020 H   0  0  0  0  0  0  0  0  0  0  0  0
  -44.6921   53.5506   60.3306 H   0  0  0  0  0  0  0  0  0  0  0  0
  -42.9861   53.9950   60.0535 H   0  0  0  0  0  0  0  0  0  0  0  0
  -43.5764   56.2897   59.8977 H   0  0  0  0  0  0  0  0  0  0  0  0
  -45.2760   55.8679   60.1986 H   0  0  0  0  0  0  0  0  0  0  0  0
  -45.3638   54.6488   58.1492 H   0  0  0  0  0  0  0  0  0  0  0  0
  -43.6544   55.0586   57.8529 H   0  0  0  0  0  0  0  0  0  0  0  0
  -45.8984   57.0056   57.9786 H   0  0  0  0  0  0  0  0  0  0  0  0
  -45.1142   56.3903   56.5142 H   0  0  0  0  0  0  0  0  0  0  0  0
  -43.7987   57.9895   58.6571 H   0  0  0  0  0  0  0  0  0  0  0  0
  -44.2732   58.5732   57.0801 H   0  0  0  0  0  0  0  0  0  0  0  0
  -43.0270   57.3568   57.2228 H   0  0  0  0  0  0  0  0  0  0  0  0
  1  4  1  0  0  0  0
  1 54  1  0  0  0  0
  1 55  1  0  0  0  0
  1 56  1  0  0  0  0
  2 29  2  0  0  0  0
  3  7  1  0  0  0  0
  3  9  2  6  0  0  0
  3 11  1  0  0  0  0
  3 13  1  0  0  0  0
  4  6  1  0  0  0  0
  4 57  1  0  0  0  0
  4 58  1  0  0  0  0
  5 29  1  0  0  0  0
  5 30  1  0  0  0  0
  6  8  1  0  0  0  0
  6 59  1  0  0  0  0
  6 60  1  0  0  0  0
  7 32  1  0  0  0  0
  8 10  1  0  0  0  0
  8 61  1  0  0  0  0
  8 62  1  0  0  0  0
 10 12  1  0  0  0  0
 10 63  1  0  0  0  0
 10 64  1  0  0  0  0
 11 65  1  0  0  0  0
 12 14  1  0  0  0  0
 12 66  1  0  0  0  0
 12 67  1  0  0  0  0
 13 33  1  0  0  0  0
 14 16  1  0  0  0  0
 14 68  1  0  0  0  0
 14 69  1  0  0  0  0
 15 35  1  0  0  0  0
 15 70  1  0  0  0  0
 16 18  1  0  0  0  0
 16 71  1  0  0  0  0
 16 72  1  0  0  0  0
 17 34  1  0  0  0  0
 17 73  1  0  0  0  0
 18 20  1  0  0  0  0
 18 74  1  0  0  0  0
 18 75  1  0  0  0  0
 19 31  1  0  0  0  0
 19 36  1  0  0  0  0
 20 22  1  0  0  0  0
 20 76  1  0  0  0  0
 20 77  1  0  0  0  0
 21 36  2  0  0  0  0
 22 23  1  0  0  0  0
 22 78  1  0  0  0  0
 22 79  1  0  0  0  0
 23 24  1  0  0  0  0
 23 80  1  0  0  0  0
 23 81  1  0  0  0  0
 24 25  1  0  0  0  0
 24 82  1  0  0  0  0
 24 83  1  0  0  0  0
 25 26  1  0  0  0  0
 25 84  1  0  0  0  0
 25 85  1  0  0  0  0
 26 27  1  0  0  0  0
 26 86  1  0  0  0  0
 26 87  1  0  0  0  0
 27 28  1  0  0  0  0
 27 88  1  0  0  0  0
 27 89  1  0  0  0  0
 28 29  1  0  0  0  0
 28 90  1  0  0  0  0
 28 91  1  0  0  0  0
 30 31  1  0  0  0  0
 30 92  1  0  0  0  0
 30 93  1  0  0  0  0
 31 32  1  0  0  0  0
 31 94  1  6  0  0  0
 32 95  1  0  0  0  0
 32 96  1  0  0  0  0
 33 34  1  0  0  0  0
 33 97  1  0  0  0  0
 33 98  1  0  0  0  0
 34 35  1  0  0  0  0
 34 99  1  6  0  0  0
 35100  1  0  0  0  0
 35101  1  0  0  0  0
 36 37  1  0  0  0  0
 37 38  1  0  0  0  0
 37102  1  0  0  0  0
 37103  1  0  0  0  0
 38 39  1  0  0  0  0
 38104  1  0  0  0  0
 38105  1  0  0  0  0
 39 40  1  0  0  0  0
 39106  1  0  0  0  0
 39107  1  0  0  0  0
 40 41  1  0  0  0  0
 40108  1  0  0  0  0
 40109  1  0  0  0  0
 41 42  1  0  0  0  0
 41110  1  0  0  0  0
 41111  1  0  0  0  0
 42 43  1  0  0  0  0
 42112  1  0  0  0  0
 42113  1  0  0  0  0
 43 44  1  0  0  0  0
 43114  1  0  0  0  0
 43115  1  0  0  0  0
 44 45  2  0  0  0  0
 44116  1  0  0  0  0
 45 46  1  0  0  0  0
 45117  1  0  0  0  0
 46 47  1  0  0  0  0
 46118  1  0  0  0  0
 46119  1  0  0  0  0
 47 48  1  0  0  0  0
 47120  1  0  0  0  0
 47121  1  0  0  0  0
 48 49  1  0  0  0  0
 48122  1  0  0  0  0
 48123  1  0  0  0  0
 49 50  1  0  0  0  0
 49124  1  0  0  0  0
 49125  1  0  0  0  0
 50 51  1  0  0  0  0
 50126  1  0  0  0  0
 50127  1  0  0  0  0
 51 52  1  0  0  0  0
 51128  1  0  0  0  0
 51129  1  0  0  0  0
 52 53  1  0  0  0  0
 52130  1  0  0  0  0
 52131  1  0  0  0  0
 53132  1  0  0  0  0
 53133  1  0  0  0  0
 53134  1  0  0  0  0
M  CHG  1   9  -1
M  END
$$$$
/media/chris/experiments/cd1a-new-docking/inputs/ligands/7sh4_ligand.pdb
 OpenBabel07012320073D

134133  0  0  1  0  0  0  0  0999 V2000
  -32.6161   51.4459   47.9118 C   0  0  0  0  0  0  0  0  0  0  0  0
  -34.4062   58.3144   63.3762 O   0  0  0  0  0  0  0  0  0  0  0  0
  -35.3336   62.9877   66.0786 P   0  0  1  0  0  0  0  0  0  0  0  0
  -31.4905   50.5034   48.2728 C   0  0  0  0  0  0  0  0  0  0  0  0
  -36.1511   59.3213   62.4064 O   0  0  0  0  0  0  0  0  0  0  0  0
  -30.6656   51.0083   49.4414 C   0  0  0  0  0  0  0  0  0  0  0  0
  -36.4293   62.0282   65.4148 O   0  0  0  0  0  0  0  0  0  0  0  0
  -31.4403   51.1901   50.7344 C   0  0  0  0  0  0  0  0  0  0  0  0
  -34.0856   62.8690   65.2943 O   0  5  0  0  0  0  0  0  0  0  0  0
  -30.5916   51.7135   51.8847 C   0  0  0  0  0  0  0  0  0  0  0  0
  -35.9402   64.3294   66.2534 O   0  0  0  0  0  0  0  0  0  0  0  0
  -31.3600   51.8792   53.1799 C   0  0  0  0  0  0  0  0  0  0  0  0
  -35.0625   62.3801   67.5278 O   0  0  0  0  0  0  0  0  0  0  0  0
  -30.5139   52.4169   54.3180 C   0  0  0  0  0  0  0  0  0  0  0  0
  -31.1006   63.6955   68.0241 O   0  0  0  0  0  0  0  0  0  0  0  0
  -31.2705   52.5727   55.6322 C   0  0  0  0  0  0  0  0  0  0  0  0
  -34.4747   64.5856   69.1410 O   0  0  0  0  0  0  0  0  0  0  0  0
  -32.4606   53.5052   55.5464 C   0  0  0  0  0  0  0  0  0  0  0  0
  -38.2720   59.8520   65.2990 O   0  0  0  0  0  0  0  0  0  0  0  0
  -33.2069   53.6773   56.8539 C   0  0  0  0  0  0  0  0  0  0  0  0
  -40.1012   60.3734   64.0980 O   0  0  0  0  0  0  0  0  0  0  0  0
  -34.3986   54.6006   56.7294 C   0  0  0  0  0  0  0  0  0  0  0  0
  -34.0349   55.9870   56.2675 C   0  0  0  0  0  0  0  0  0  0  0  0
  -33.0645   56.6808   57.1920 C   0  0  0  0  0  0  0  0  0  0  0  0
  -33.5908   56.8316   58.6049 C   0  0  0  0  0  0  0  0  0  0  0  0
  -34.8774   57.6223   58.6762 C   0  0  0  0  0  0  0  0  0  0  0  0
  -35.4174   57.8029   60.0792 C   0  0  0  0  0  0  0  0  0  0  0  0
  -34.4561   58.5504   60.9878 C   0  0  0  0  0  0  0  0  0  0  0  0
  -34.9553   58.7317   62.3924 C   0  0  0  0  0  0  0  0  0  0  0  0
  -37.0720   58.9080   63.4380 C   0  0  0  0  0  0  0  0  0  0  0  0
  -37.3490   60.1700   64.2050 C   0  0  2  0  0  0  0  0  0  0  0  0
  -36.0840   60.8130   64.7130 C   0  0  0  0  0  0  0  0  0  0  0  0
  -33.7652   62.5269   68.1406 C   0  0  0  0  0  0  0  0  0  0  0  0
  -33.4777   63.9998   68.2986 C   0  0  2  0  0  0  0  0  0  0  0  0
  -32.1012   64.2595   68.8621 C   0  0  0  0  0  0  0  0  0  0  0  0
  -39.5790   59.7587   64.9875 C   0  0  0  0  0  0  0  0  0  0  0  0
  -40.2973   58.7848   65.8694 C   0  0  0  0  0  0  0  0  0  0  0  0
  -41.4620   58.1235   65.1394 C   0  0  0  0  0  0  0  0  0  0  0  0
  -41.0487   57.3308   63.9103 C   0  0  0  0  0  0  0  0  0  0  0  0
  -42.2202   56.6875   63.1772 C   0  0  0  0  0  0  0  0  0  0  0  0
  -43.2426   57.6806   62.6566 C   0  0  0  0  0  0  0  0  0  0  0  0
  -42.6917   58.6907   61.6461 C   0  0  0  0  0  0  0  0  0  0  0  0
  -43.7068   59.7099   61.1242 C   0  0  0  0  0  0  0  0  0  0  0  0
  -43.1000   60.6527   60.1288 C   0  0  0  0  0  0  0  0  0  0  0  0
  -42.0818   61.4655   60.3334 C   0  0  0  0  0  0  0  0  0  0  0  0
  -41.3147   61.6156   61.6091 C   0  0  0  0  0  0  0  0  0  0  0  0
  -40.7585   63.0247   61.7918 C   0  0  0  0  0  0  0  0  0  0  0  0
  -39.9597   63.2036   63.0710 C   0  0  0  0  0  0  0  0  0  0  0  0
  -38.7413   62.3010   63.1604 C   0  0  0  0  0  0  0  0  0  0  0  0
  -37.7185   62.5126   62.0564 C   0  0  0  0  0  0  0  0  0  0  0  0
  -37.1373   63.9181   62.0306 C   0  0  0  0  0  0  0  0  0  0  0  0
  -36.4047   64.3116   63.2980 C   0  0  0  0  0  0  0  0  0  0  0  0
  -35.8589   65.7112   63.2434 C   0  0  0  0  0  0  0  0  0  0  0  0
  -33.1653   51.0457   47.0853 H   0  0  0  0  0  0  0  0  0  0  0  0
  -32.2109   52.3990   47.6427 H   0  0  0  0  0  0  0  0  0  0  0  0
  -33.2689   51.5602   48.7519 H   0  0  0  0  0  0  0  0  0  0  0  0
  -30.8500   50.3917   47.4229 H   0  0  0  0  0  0  0  0  0  0  0  0
  -31.9265   49.5696   48.5606 H   0  0  0  0  0  0  0  0  0  0  0  0
  -30.2457   51.9540   49.1688 H   0  0  0  0  0  0  0  0  0  0  0  0
  -29.9266   50.2591   49.6351 H   0  0  0  0  0  0  0  0  0  0  0  0
  -31.8497   50.2435   51.0195 H   0  0  0  0  0  0  0  0  0  0  0  0
  -32.1985   51.9212   50.5458 H   0  0  0  0  0  0  0  0  0  0  0  0
  -30.1923   52.6658   51.6043 H   0  0  0  0  0  0  0  0  0  0  0  0
  -29.8262   50.9879   52.0650 H   0  0  0  0  0  0  0  0  0  0  0  0
  -36.1151   64.7210   65.3834 H   0  0  0  0  0  0  0  0  0  0  0  0
  -31.7489   50.9249   53.4679 H   0  0  0  0  0  0  0  0  0  0  0  0
  -32.1353   52.5939   52.9978 H   0  0  0  0  0  0  0  0  0  0  0  0
  -30.1352   53.3759   54.0319 H   0  0  0  0  0  0  0  0  0  0  0  0
  -29.7366   51.7022   54.4907 H   0  0  0  0  0  0  0  0  0  0  0  0
  -30.2250   63.8724   68.4019 H   0  0  0  0  0  0  0  0  0  0  0  0
  -30.5941   52.9560   56.3674 H   0  0  0  0  0  0  0  0  0  0  0  0
  -31.6504   51.6060   55.8892 H   0  0  0  0  0  0  0  0  0  0  0  0
  -35.3540   64.4127   68.7698 H   0  0  0  0  0  0  0  0  0  0  0  0
  -33.1418   53.1147   54.8195 H   0  0  0  0  0  0  0  0  0  0  0  0
  -32.0792   54.4686   55.2795 H   0  0  0  0  0  0  0  0  0  0  0  0
  -32.5345   54.0826   57.5809 H   0  0  0  0  0  0  0  0  0  0  0  0
  -33.5729   52.7152   57.1460 H   0  0  0  0  0  0  0  0  0  0  0  0
  -34.8716   54.6750   57.6863 H   0  0  0  0  0  0  0  0  0  0  0  0
  -35.0474   54.1810   55.9892 H   0  0  0  0  0  0  0  0  0  0  0  0
  -34.9286   56.5725   56.2095 H   0  0  0  0  0  0  0  0  0  0  0  0
  -33.5570   55.8919   55.3149 H   0  0  0  0  0  0  0  0  0  0  0  0
  -32.8586   57.6549   56.8000 H   0  0  0  0  0  0  0  0  0  0  0  0
  -32.1846   56.0742   57.2432 H   0  0  0  0  0  0  0  0  0  0  0  0
  -32.8501   57.3323   59.1928 H   0  0  0  0  0  0  0  0  0  0  0  0
  -33.7985   55.8493   58.9750 H   0  0  0  0  0  0  0  0  0  0  0  0
  -35.6172   57.1127   58.0949 H   0  0  0  0  0  0  0  0  0  0  0  0
  -34.6584   58.6007   58.3025 H   0  0  0  0  0  0  0  0  0  0  0  0
  -35.6052   56.8374   60.5003 H   0  0  0  0  0  0  0  0  0  0  0  0
  -36.3122   58.3853   60.0078 H   0  0  0  0  0  0  0  0  0  0  0  0
  -34.2793   59.5179   60.5666 H   0  0  0  0  0  0  0  0  0  0  0  0
  -33.5672   57.9580   61.0505 H   0  0  0  0  0  0  0  0  0  0  0  0
  -36.6274   58.1683   64.0706 H   0  0  0  0  0  0  0  0  0  0  0  0
  -37.9610   58.4631   63.0423 H   0  0  0  0  0  0  0  0  0  0  0  0
  -37.7985   60.8886   63.5519 H   0  0  0  0  0  0  0  0  0  0  0  0
  -35.5824   60.1428   65.3795 H   0  0  0  0  0  0  0  0  0  0  0  0
  -35.4356   61.0386   63.8923 H   0  0  0  0  0  0  0  0  0  0  0  0
  -33.0190   62.0776   67.5192 H   0  0  0  0  0  0  0  0  0  0  0  0
  -33.7530   62.0451   69.0959 H   0  0  0  0  0  0  0  0  0  0  0  0
  -33.5051   64.4470   67.3269 H   0  0  0  0  0  0  0  0  0  0  0  0
  -31.9447   65.3156   68.9342 H   0  0  0  0  0  0  0  0  0  0  0  0
  -32.0346   63.8076   69.8297 H   0  0  0  0  0  0  0  0  0  0  0  0
  -40.6735   59.3037   66.7262 H   0  0  0  0  0  0  0  0  0  0  0  0
  -39.6059   58.0215   66.1596 H   0  0  0  0  0  0  0  0  0  0  0  0
  -42.1452   58.8879   64.8332 H   0  0  0  0  0  0  0  0  0  0  0  0
  -41.9024   57.4284   65.8234 H   0  0  0  0  0  0  0  0  0  0  0  0
  -40.3756   56.5576   64.2168 H   0  0  0  0  0  0  0  0  0  0  0  0
  -40.5934   58.0203   63.2304 H   0  0  0  0  0  0  0  0  0  0  0  0
  -42.7134   56.0194   63.8520 H   0  0  0  0  0  0  0  0  0  0  0  0
  -41.8138   56.1855   62.3242 H   0  0  0  0  0  0  0  0  0  0  0  0
  -43.6357   58.2233   63.4908 H   0  0  0  0  0  0  0  0  0  0  0  0
  -43.9854   57.1090   62.1405 H   0  0  0  0  0  0  0  0  0  0  0  0
  -42.3092   58.1458   60.8084 H   0  0  0  0  0  0  0  0  0  0  0  0
  -41.9456   59.2543   62.1662 H   0  0  0  0  0  0  0  0  0  0  0  0
  -44.0830   60.2761   61.9506 H   0  0  0  0  0  0  0  0  0  0  0  0
  -44.4904   59.1720   60.6328 H   0  0  0  0  0  0  0  0  0  0  0  0
  -43.5222   60.6670   59.1872 H   0  0  0  0  0  0  0  0  0  0  0  0
  -41.7862   62.0536   59.5385 H   0  0  0  0  0  0  0  0  0  0  0  0
  -40.4994   60.9226   61.6033 H   0  0  0  0  0  0  0  0  0  0  0  0
  -41.9874   61.4232   62.4186 H   0  0  0  0  0  0  0  0  0  0  0  0
  -41.5781   63.7124   61.8062 H   0  0  0  0  0  0  0  0  0  0  0  0
  -40.0890   63.2052   60.9768 H   0  0  0  0  0  0  0  0  0  0  0  0
  -40.5997   62.9907   63.9016 H   0  0  0  0  0  0  0  0  0  0  0  0
  -39.6032   64.2124   63.0789 H   0  0  0  0  0  0  0  0  0  0  0  0
  -39.0740   61.2850   63.1175 H   0  0  0  0  0  0  0  0  0  0  0  0
  -38.2507   62.5419   64.0803 H   0  0  0  0  0  0  0  0  0  0  0  0
  -38.1917   62.3243   61.1154 H   0  0  0  0  0  0  0  0  0  0  0  0
  -36.9081   61.8398   62.2444 H   0  0  0  0  0  0  0  0  0  0  0  0
  -37.9392   64.6099   61.8781 H   0  0  0  0  0  0  0  0  0  0  0  0
  -36.4163   63.9378   61.2403 H   0  0  0  0  0  0  0  0  0  0  0  0
  -35.5912   63.6329   63.4476 H   0  0  0  0  0  0  0  0  0  0  0  0
  -37.1082   64.2709   64.1032 H   0  0  0  0  0  0  0  0  0  0  0  0
  -35.1496   65.7865   62.4458 H   0  0  0  0  0  0  0  0  0  0  0  0
  -35.3787   65.9432   64.1709 H   0  0  0  0  0  0  0  0  0  0  0  0
  -36.6601   66.4001   63.0744 H   0  0  0  0  0  0  0  0  0  0  0  0
  1  4  1  0  0  0  0
  1 54  1  0  0  0  0
  1 55  1  0  0  0  0
  1 56  1  0  0  0  0
  2 29  2  0  0  0  0
  3  7  1  0  0  0  0
  3  9  2  6  0  0  0
  3 11  1  0  0  0  0
  3 13  1  0  0  0  0
  4  6  1  0  0  0  0
  4 57  1  0  0  0  0
  4 58  1  0  0  0  0
  5 29  1  0  0  0  0
  5 30  1  0  0  0  0
  6  8  1  0  0  0  0
  6 59  1  0  0  0  0
  6 60  1  0  0  0  0
  7 32  1  0  0  0  0
  8 10  1  0  0  0  0
  8 61  1  0  0  0  0
  8 62  1  0  0  0  0
 10 12  1  0  0  0  0
 10 63  1  0  0  0  0
 10 64  1  0  0  0  0
 11 65  1  0  0  0  0
 12 14  1  0  0  0  0
 12 66  1  0  0  0  0
 12 67  1  0  0  0  0
 13 33  1  0  0  0  0
 14 16  1  0  0  0  0
 14 68  1  0  0  0  0
 14 69  1  0  0  0  0
 15 35  1  0  0  0  0
 15 70  1  0  0  0  0
 16 18  1  0  0  0  0
 16 71  1  0  0  0  0
 16 72  1  0  0  0  0
 17 34  1  0  0  0  0
 17 73  1  0  0  0  0
 18 20  1  0  0  0  0
 18 74  1  0  0  0  0
 18 75  1  0  0  0  0
 19 31  1  0  0  0  0
 19 36  1  0  0  0  0
 20 22  1  0  0  0  0
 20 76  1  0  0  0  0
 20 77  1  0  0  0  0
 21 36  2  0  0  0  0
 22 23  1  0  0  0  0
 22 78  1  0  0  0  0
 22 79  1  0  0  0  0
 23 24  1  0  0  0  0
 23 80  1  0  0  0  0
 23 81  1  0  0  0  0
 24 25  1  0  0  0  0
 24 82  1  0  0  0  0
 24 83  1  0  0  0  0
 25 26  1  0  0  0  0
 25 84  1  0  0  0  0
 25 85  1  0  0  0  0
 26 27  1  0  0  0  0
 26 86  1  0  0  0  0
 26 87  1  0  0  0  0
 27 28  1  0  0  0  0
 27 88  1  0  0  0  0
 27 89  1  0  0  0  0
 28 29  1  0  0  0  0
 28 90  1  0  0  0  0
 28 91  1  0  0  0  0
 30 31  1  0  0  0  0
 30 92  1  0  0  0  0
 30 93  1  0  0  0  0
 31 32  1  0  0  0  0
 31 94  1  6  0  0  0
 32 95  1  0  0  0  0
 32 96  1  0  0  0  0
 33 34  1  0  0  0  0
 33 97  1  0  0  0  0
 33 98  1  0  0  0  0
 34 35  1  0  0  0  0
 34 99  1  6  0  0  0
 35100  1  0  0  0  0
 35101  1  0  0  0  0
 36 37  1  0  0  0  0
 37 38  1  0  0  0  0
 37102  1  0  0  0  0
 37103  1  0  0  0  0
 38 39  1  0  0  0  0
 38104  1  0  0  0  0
 38105  1  0  0  0  0
 39 40  1  0  0  0  0
 39106  1  0  0  0  0
 39107  1  0  0  0  0
 40 41  1  0  0  0  0
 40108  1  0  0  0  0
 40109  1  0  0  0  0
 41 42  1  0  0  0  0
 41110  1  0  0  0  0
 41111  1  0  0  0  0
 42 43  1  0  0  0  0
 42112  1  0  0  0  0
 42113  1  0  0  0  0
 43 44  1  0  0  0  0
 43114  1  0  0  0  0
 43115  1  0  0  0  0
 44 45  2  0  0  0  0
 44116  1  0  0  0  0
 45 46  1  0  0  0  0
 45117  1  0  0  0  0
 46 47  1  0  0  0  0
 46118  1  0  0  0  0
 46119  1  0  0  0  0
 47 48  1  0  0  0  0
 47120  1  0  0  0  0
 47121  1  0  0  0  0
 48 49  1  0  0  0  0
 48122  1  0  0  0  0
 48123  1  0  0  0  0
 49 50  1  0  0  0  0
 49124  1  0  0  0  0
 49125  1  0  0  0  0
 50 51  1  0  0  0  0
 50126  1  0  0  0  0
 50127  1  0  0  0  0
 51 52  1  0  0  0  0
 51128  1  0  0  0  0
 51129  1  0  0  0  0
 52 53  1  0  0  0  0
 52130  1  0  0  0  0
 52131  1  0  0  0  0
 53132  1  0  0  0  0
 53133  1  0  0  0  0
 53134  1  0  0  0  0
M  CHG  1   9  -1
M  END
$$$$
/media/chris/experiments/cd1a-new-docking/inputs/ligands/7sh4_ligand.pdb
 OpenBabel07012320073D

134133  0  0  1  0  0  0  0  0999 V2000
  -42.2384   47.9359   57.5401 C   0  0  0  0  0  0  0  0  0  0  0  0
  -37.9049   59.0864   60.8424 O   0  0  0  0  0  0  0  0  0  0  0  0
  -34.6970   59.9912   62.5780 P   0  0  1  0  0  0  0  0  0  0  0  0
  -41.3590   49.0746   58.0044 C   0  0  0  0  0  0  0  0  0  0  0  0
  -38.3690   58.5038   62.9506 O   0  0  0  0  0  0  0  0  0  0  0  0
  -40.1729   49.3009   57.0863 C   0  0  0  0  0  0  0  0  0  0  0  0
  -35.2304   61.1139   63.5864 O   0  0  0  0  0  0  0  0  0  0  0  0
  -39.2439   50.4234   57.5133 C   0  0  0  0  0  0  0  0  0  0  0  0
  -34.5796   58.7215   63.3270 O   0  5  0  0  0  0  0  0  0  0  0  0
  -38.0726   50.6389   56.5650 C   0  0  0  0  0  0  0  0  0  0  0  0
  -35.5431   60.0245   61.3608 O   0  0  0  0  0  0  0  0  0  0  0  0
  -37.1359   51.7476   56.9992 C   0  0  0  0  0  0  0  0  0  0  0  0
  -33.2283   60.4562   62.1666 O   0  0  0  0  0  0  0  0  0  0  0  0
  -37.8162   53.0974   57.1231 C   0  0  0  0  0  0  0  0  0  0  0  0
  -29.3843   60.9926   59.3349 O   0  0  0  0  0  0  0  0  0  0  0  0
  -38.4566   53.5893   55.8301 C   0  0  0  0  0  0  0  0  0  0  0  0
  -30.4869   60.0737   61.7779 O   0  0  0  0  0  0  0  0  0  0  0  0
  -39.1203   54.9449   55.9530 C   0  0  0  0  0  0  0  0  0  0  0  0
  -38.2720   59.8520   65.2990 O   0  0  0  0  0  0  0  0  0  0  0  0
  -40.2251   55.0008   56.9887 C   0  0  0  0  0  0  0  0  0  0  0  0
  -40.0171   59.9196   63.8811 O   0  0  0  0  0  0  0  0  0  0  0  0
  -40.8776   56.3628   57.0739 C   0  0  0  0  0  0  0  0  0  0  0  0
  -41.9668   56.4398   58.1108 C   0  0  0  0  0  0  0  0  0  0  0  0
  -42.6233   57.7971   58.1768 C   0  0  0  0  0  0  0  0  0  0  0  0
  -41.6523   58.9142   58.5014 C   0  0  0  0  0  0  0  0  0  0  0  0
  -40.9506   58.7222   59.8268 C   0  0  0  0  0  0  0  0  0  0  0  0
  -40.1183   57.4601   59.9108 C   0  0  0  0  0  0  0  0  0  0  0  0
  -39.4418   57.2903   61.2605 C   0  0  0  0  0  0  0  0  0  0  0  0
  -38.5165   58.4143   61.6284 C   0  0  0  0  0  0  0  0  0  0  0  0
  -37.0720   58.9080   63.4380 C   0  0  0  0  0  0  0  0  0  0  0  0
  -37.3490   60.1700   64.2050 C   0  0  2  0  0  0  0  0  0  0  0  0
  -36.0840   60.8130   64.7130 C   0  0  0  0  0  0  0  0  0  0  0  0
  -32.7027   60.1199   60.8664 C   0  0  0  0  0  0  0  0  0  0  0  0
  -31.3010   60.6692   60.7632 C   0  0  2  0  0  0  0  0  0  0  0  0
  -30.6908   60.4357   59.4020 C   0  0  0  0  0  0  0  0  0  0  0  0
  -39.5790   59.7587   64.9875 C   0  0  0  0  0  0  0  0  0  0  0  0
  -40.4161   59.4128   66.1798 C   0  0  0  0  0  0  0  0  0  0  0  0
  -41.6498   58.6087   65.7822 C   0  0  0  0  0  0  0  0  0  0  0  0
  -42.5642   59.3266   64.8032 C   0  0  0  0  0  0  0  0  0  0  0  0
  -43.8030   58.5230   64.4244 C   0  0  0  0  0  0  0  0  0  0  0  0
  -44.7142   59.2241   63.4341 C   0  0  0  0  0  0  0  0  0  0  0  0
  -44.0625   59.5448   62.0860 C   0  0  0  0  0  0  0  0  0  0  0  0
  -42.8273   60.4453   62.1571 C   0  0  0  0  0  0  0  0  0  0  0  0
  -43.1321   61.7739   62.7816 C   0  0  0  0  0  0  0  0  0  0  0  0
  -42.3033   62.5231   63.4826 C   0  0  0  0  0  0  0  0  0  0  0  0
  -40.8773   62.2016   63.8010 C   0  0  0  0  0  0  0  0  0  0  0  0
  -39.9089   63.2474   63.2562 C   0  0  0  0  0  0  0  0  0  0  0  0
  -39.9789   63.4161   61.7486 C   0  0  0  0  0  0  0  0  0  0  0  0
  -41.3412   63.8640   61.2477 C   0  0  0  0  0  0  0  0  0  0  0  0
  -41.8006   65.2076   61.7890 C   0  0  0  0  0  0  0  0  0  0  0  0
  -43.1739   65.6256   61.2862 C   0  0  0  0  0  0  0  0  0  0  0  0
  -44.2905   64.6713   61.6608 C   0  0  0  0  0  0  0  0  0  0  0  0
  -44.4580   64.5272   63.1477 C   0  0  0  0  0  0  0  0  0  0  0  0
  -43.0572   47.8179   58.2188 H   0  0  0  0  0  0  0  0  0  0  0  0
  -41.6662   47.0322   57.5110 H   0  0  0  0  0  0  0  0  0  0  0  0
  -42.6144   48.1516   56.5618 H   0  0  0  0  0  0  0  0  0  0  0  0
  -40.9961   48.8504   58.9857 H   0  0  0  0  0  0  0  0  0  0  0  0
  -41.9503   49.9664   57.9992 H   0  0  0  0  0  0  0  0  0  0  0  0
  -40.5462   49.5306   56.1102 H   0  0  0  0  0  0  0  0  0  0  0  0
  -39.5931   48.4020   57.1151 H   0  0  0  0  0  0  0  0  0  0  0  0
  -38.8559   50.1910   58.4829 H   0  0  0  0  0  0  0  0  0  0  0  0
  -39.8197   51.3253   57.5109 H   0  0  0  0  0  0  0  0  0  0  0  0
  -38.4608   50.8834   55.5984 H   0  0  0  0  0  0  0  0  0  0  0  0
  -37.5039   49.7326   56.5584 H   0  0  0  0  0  0  0  0  0  0  0  0
  -36.4443   59.7449   61.5856 H   0  0  0  0  0  0  0  0  0  0  0  0
  -36.3496   51.8291   56.2781 H   0  0  0  0  0  0  0  0  0  0  0  0
  -36.7689   51.4886   57.9704 H   0  0  0  0  0  0  0  0  0  0  0  0
  -37.0854   53.8157   57.4312 H   0  0  0  0  0  0  0  0  0  0  0  0
  -38.6060   52.9821   57.8358 H   0  0  0  0  0  0  0  0  0  0  0  0
  -29.0095   60.8328   58.4546 H   0  0  0  0  0  0  0  0  0  0  0  0
  -39.1965   52.8777   55.5283 H   0  0  0  0  0  0  0  0  0  0  0  0
  -37.6697   53.6919   55.1124 H   0  0  0  0  0  0  0  0  0  0  0  0
  -30.8881   60.2298   62.6472 H   0  0  0  0  0  0  0  0  0  0  0  0
  -39.5379   55.2021   55.0020 H   0  0  0  0  0  0  0  0  0  0  0  0
  -38.3637   55.6313   56.2713 H   0  0  0  0  0  0  0  0  0  0  0  0
  -39.8101   54.7598   57.9450 H   0  0  0  0  0  0  0  0  0  0  0  0
  -40.9783   54.2996   56.6957 H   0  0  0  0  0  0  0  0  0  0  0  0
  -41.3009   56.5965   56.1193 H   0  0  0  0  0  0  0  0  0  0  0  0
  -40.1182   57.0597   57.3609 H   0  0  0  0  0  0  0  0  0  0  0  0
  -41.5425   56.2195   59.0681 H   0  0  0  0  0  0  0  0  0  0  0  0
  -42.7211   55.7325   57.8359 H   0  0  0  0  0  0  0  0  0  0  0  0
  -43.3793   57.7730   58.9336 H   0  0  0  0  0  0  0  0  0  0  0  0
  -43.0306   58.0010   57.2086 H   0  0  0  0  0  0  0  0  0  0  0  0
  -42.1927   59.8371   58.5326 H   0  0  0  0  0  0  0  0  0  0  0  0
  -40.9010   58.9160   57.7395 H   0  0  0  0  0  0  0  0  0  0  0  0
  -41.6923   58.6870   60.5972 H   0  0  0  0  0  0  0  0  0  0  0  0
  -40.2750   59.5443   59.9392 H   0  0  0  0  0  0  0  0  0  0  0  0
  -39.3643   57.4966   59.1525 H   0  0  0  0  0  0  0  0  0  0  0  0
  -40.7783   56.6290   59.7742 H   0  0  0  0  0  0  0  0  0  0  0  0
  -38.8762   56.3823   61.2410 H   0  0  0  0  0  0  0  0  0  0  0  0
  -40.2191   57.2775   61.9957 H   0  0  0  0  0  0  0  0  0  0  0  0
  -36.4020   59.0962   62.6252 H   0  0  0  0  0  0  0  0  0  0  0  0
  -36.6048   58.1555   64.0382 H   0  0  0  0  0  0  0  0  0  0  0  0
  -37.7985   60.8886   63.5519 H   0  0  0  0  0  0  0  0  0  0  0  0
  -36.3238   61.7163   65.2340 H   0  0  0  0  0  0  0  0  0  0  0  0
  -35.5811   60.1472   65.3829 H   0  0  0  0  0  0  0  0  0  0  0  0
  -33.3174   60.5526   60.1050 H   0  0  0  0  0  0  0  0  0  0  0  0
  -32.6920   59.0578   60.7374 H   0  0  0  0  0  0  0  0  0  0  0  0
  -31.3511   61.7287   60.9037 H   0  0  0  0  0  0  0  0  0  0  0  0
  -30.6340   59.3831   59.2183 H   0  0  0  0  0  0  0  0  0  0  0  0
  -31.3047   60.9085   58.6640 H   0  0  0  0  0  0  0  0  0  0  0  0
  -40.7297   60.3168   66.6586 H   0  0  0  0  0  0  0  0  0  0  0  0
  -39.8255   58.8158   66.8429 H   0  0  0  0  0  0  0  0  0  0  0  0
  -42.2094   58.3905   66.6677 H   0  0  0  0  0  0  0  0  0  0  0  0
  -41.2994   57.7259   65.2895 H   0  0  0  0  0  0  0  0  0  0  0  0
  -42.0096   59.5337   63.9118 H   0  0  0  0  0  0  0  0  0  0  0  0
  -42.9042   60.2183   65.2871 H   0  0  0  0  0  0  0  0  0  0  0  0
  -44.3621   58.3266   65.3153 H   0  0  0  0  0  0  0  0  0  0  0  0
  -43.4585   57.6286   63.9487 H   0  0  0  0  0  0  0  0  0  0  0  0
  -45.0411   60.1431   63.8739 H   0  0  0  0  0  0  0  0  0  0  0  0
  -45.5178   58.5479   63.2296 H   0  0  0  0  0  0  0  0  0  0  0  0
  -44.7921   60.0316   61.4730 H   0  0  0  0  0  0  0  0  0  0  0  0
  -43.7258   58.6099   61.6890 H   0  0  0  0  0  0  0  0  0  0  0  0
  -42.4604   60.6065   61.1650 H   0  0  0  0  0  0  0  0  0  0  0  0
  -42.0972   59.9549   62.7666 H   0  0  0  0  0  0  0  0  0  0  0  0
  -44.0880   62.1396   62.6493 H   0  0  0  0  0  0  0  0  0  0  0  0
  -42.6735   63.4153   63.8457 H   0  0  0  0  0  0  0  0  0  0  0  0
  -40.6350   61.2521   63.3713 H   0  0  0  0  0  0  0  0  0  0  0  0
  -40.7764   62.1874   64.8662 H   0  0  0  0  0  0  0  0  0  0  0  0
  -38.9134   62.9549   63.5177 H   0  0  0  0  0  0  0  0  0  0  0  0
  -40.1853   64.1859   63.6894 H   0  0  0  0  0  0  0  0  0  0  0  0
  -39.7429   62.4775   61.2922 H   0  0  0  0  0  0  0  0  0  0  0  0
  -39.2812   64.1839   61.4868 H   0  0  0  0  0  0  0  0  0  0  0  0
  -42.0613   63.1252   61.5316 H   0  0  0  0  0  0  0  0  0  0  0  0
  -41.2537   63.9767   60.1872 H   0  0  0  0  0  0  0  0  0  0  0  0
  -41.0908   65.9522   61.4946 H   0  0  0  0  0  0  0  0  0  0  0  0
  -41.8699   65.1119   62.8525 H   0  0  0  0  0  0  0  0  0  0  0  0
  -43.1342   65.6930   60.2191 H   0  0  0  0  0  0  0  0  0  0  0  0
  -43.4002   66.5614   61.7530 H   0  0  0  0  0  0  0  0  0  0  0  0
  -44.0717   63.7093   61.2465 H   0  0  0  0  0  0  0  0  0  0  0  0
  -45.2024   65.0727   61.2709 H   0  0  0  0  0  0  0  0  0  0  0  0
  -43.5604   64.1266   63.5706 H   0  0  0  0  0  0  0  0  0  0  0  0
  -45.2744   63.8666   63.3524 H   0  0  0  0  0  0  0  0  0  0  0  0
  -44.6583   65.4860   63.5786 H   0  0  0  0  0  0  0  0  0  0  0  0
  1  4  1  0  0  0  0
  1 54  1  0  0  0  0
  1 55  1  0  0  0  0
  1 56  1  0  0  0  0
  2 29  2  0  0  0  0
  3  7  1  0  0  0  0
  3  9  2  1  0  0  0
  3 11  1  0  0  0  0
  3 13  1  0  0  0  0
  4  6  1  0  0  0  0
  4 57  1  0  0  0  0
  4 58  1  0  0  0  0
  5 29  1  0  0  0  0
  5 30  1  0  0  0  0
  6  8  1  0  0  0  0
  6 59  1  0  0  0  0
  6 60  1  0  0  0  0
  7 32  1  0  0  0  0
  8 10  1  0  0  0  0
  8 61  1  0  0  0  0
  8 62  1  0  0  0  0
 10 12  1  0  0  0  0
 10 63  1  0  0  0  0
 10 64  1  0  0  0  0
 11 65  1  0  0  0  0
 12 14  1  0  0  0  0
 12 66  1  0  0  0  0
 12 67  1  0  0  0  0
 13 33  1  0  0  0  0
 14 16  1  0  0  0  0
 14 68  1  0  0  0  0
 14 69  1  0  0  0  0
 15 35  1  0  0  0  0
 15 70  1  0  0  0  0
 16 18  1  0  0  0  0
 16 71  1  0  0  0  0
 16 72  1  0  0  0  0
 17 34  1  0  0  0  0
 17 73  1  0  0  0  0
 18 20  1  0  0  0  0
 18 74  1  0  0  0  0
 18 75  1  0  0  0  0
 19 31  1  0  0  0  0
 19 36  1  0  0  0  0
 20 22  1  0  0  0  0
 20 76  1  0  0  0  0
 20 77  1  0  0  0  0
 21 36  2  0  0  0  0
 22 23  1  0  0  0  0
 22 78  1  0  0  0  0
 22 79  1  0  0  0  0
 23 24  1  0  0  0  0
 23 80  1  0  0  0  0
 23 81  1  0  0  0  0
 24 25  1  0  0  0  0
 24 82  1  0  0  0  0
 24 83  1  0  0  0  0
 25 26  1  0  0  0  0
 25 84  1  0  0  0  0
 25 85  1  0  0  0  0
 26 27  1  0  0  0  0
 26 86  1  0  0  0  0
 26 87  1  0  0  0  0
 27 28  1  0  0  0  0
 27 88  1  0  0  0  0
 27 89  1  0  0  0  0
 28 29  1  0  0  0  0
 28 90  1  0  0  0  0
 28 91  1  0  0  0  0
 30 31  1  0  0  0  0
 30 92  1  0  0  0  0
 30 93  1  0  0  0  0
 31 32  1  0  0  0  0
 31 94  1  6  0  0  0
 32 95  1  0  0  0  0
 32 96  1  0  0  0  0
 33 34  1  0  0  0  0
 33 97  1  0  0  0  0
 33 98  1  0  0  0  0
 34 35  1  0  0  0  0
 34 99  1  1  0  0  0
 35100  1  0  0  0  0
 35101  1  0  0  0  0
 36 37  1  0  0  0  0
 37 38  1  0  0  0  0
 37102  1  0  0  0  0
 37103  1  0  0  0  0
 38 39  1  0  0  0  0
 38104  1  0  0  0  0
 38105  1  0  0  0  0
 39 40  1  0  0  0  0
 39106  1  0  0  0  0
 39107  1  0  0  0  0
 40 41  1  0  0  0  0
 40108  1  0  0  0  0
 40109  1  0  0  0  0
 41 42  1  0  0  0  0
 41110  1  0  0  0  0
 41111  1  0  0  0  0
 42 43  1  0  0  0  0
 42112  1  0  0  0  0
 42113  1  0  0  0  0
 43 44  1  0  0  0  0
 43114  1  0  0  0  0
 43115  1  0  0  0  0
 44 45  2  0  0  0  0
 44116  1  0  0  0  0
 45 46  1  0  0  0  0
 45117  1  0  0  0  0
 46 47  1  0  0  0  0
 46118  1  0  0  0  0
 46119  1  0  0  0  0
 47 48  1  0  0  0  0
 47120  1  0  0  0  0
 47121  1  0  0  0  0
 48 49  1  0  0  0  0
 48122  1  0  0  0  0
 48123  1  0  0  0  0
 49 50  1  0  0  0  0
 49124  1  0  0  0  0
 49125  1  0  0  0  0
 50 51  1  0  0  0  0
 50126  1  0  0  0  0
 50127  1  0  0  0  0
 51 52  1  0  0  0  0
 51128  1  0  0  0  0
 51129  1  0  0  0  0
 52 53  1  0  0  0  0
 52130  1  0  0  0  0
 52131  1  0  0  0  0
 53132  1  0  0  0  0
 53133  1  0  0  0  0
 53134  1  0  0  0  0
M  CHG  1   9  -1
M  END
$$$$
/media/chris/experiments/cd1a-new-docking/inputs/ligands/7sh4_ligand.pdb
 OpenBabel07012320073D

134133  0  0  1  0  0  0  0  0999 V2000
  -42.0114   59.0749   52.9052 C   0  0  0  0  0  0  0  0  0  0  0  0
  -38.2161   59.9780   61.2765 O   0  0  0  0  0  0  0  0  0  0  0  0
  -33.7887   61.7905   63.7469 P   0  0  1  0  0  0  0  0  0  0  0  0
  -40.7274   59.5508   53.5461 C   0  0  0  0  0  0  0  0  0  0  0  0
  -38.3690   58.5038   62.9506 O   0  0  0  0  0  0  0  0  0  0  0  0
  -40.3726   58.7571   54.7891 C   0  0  0  0  0  0  0  0  0  0  0  0
  -35.2304   61.1139   63.5864 O   0  0  0  0  0  0  0  0  0  0  0  0
  -39.0991   59.2027   55.4855 C   0  0  0  0  0  0  0  0  0  0  0  0
  -32.9319   61.3103   62.6414 O   0  5  0  0  0  0  0  0  0  0  0  0
  -39.1437   60.6441   55.9732 C   0  0  0  0  0  0  0  0  0  0  0  0
  -33.9806   63.2510   63.9166 O   0  0  0  0  0  0  0  0  0  0  0  0
  -37.8672   61.0950   56.6532 C   0  0  0  0  0  0  0  0  0  0  0  0
  -33.2001   61.2119   65.1113 O   0  0  0  0  0  0  0  0  0  0  0  0
  -37.9232   62.5261   57.1521 C   0  0  0  0  0  0  0  0  0  0  0  0
  -30.7145   60.0623   68.2390 O   0  0  0  0  0  0  0  0  0  0  0  0
  -36.6387   62.9986   57.8237 C   0  0  0  0  0  0  0  0  0  0  0  0
  -32.2218   58.1340   66.8114 O   0  0  0  0  0  0  0  0  0  0  0  0
  -36.2385   62.1728   59.0283 C   0  0  0  0  0  0  0  0  0  0  0  0
  -38.2720   59.8520   65.2990 O   0  0  0  0  0  0  0  0  0  0  0  0
  -37.2762   62.1462   60.1322 C   0  0  0  0  0  0  0  0  0  0  0  0
  -36.6996   58.7906   66.5077 O   0  0  0  0  0  0  0  0  0  0  0  0
  -38.5938   61.5557   59.6814 C   0  0  0  0  0  0  0  0  0  0  0  0
  -39.6417   61.5375   60.7626 C   0  0  0  0  0  0  0  0  0  0  0  0
  -40.9471   60.9312   60.3086 C   0  0  0  0  0  0  0  0  0  0  0  0
  -42.0100   60.9263   61.3885 C   0  0  0  0  0  0  0  0  0  0  0  0
  -41.5965   60.1572   62.6227 C   0  0  0  0  0  0  0  0  0  0  0  0
  -41.2716   58.7008   62.3660 C   0  0  0  0  0  0  0  0  0  0  0  0
  -40.1178   58.5178   61.3946 C   0  0  0  0  0  0  0  0  0  0  0  0
  -38.8234   59.1206   61.8593 C   0  0  0  0  0  0  0  0  0  0  0  0
  -37.0720   58.9080   63.4380 C   0  0  0  0  0  0  0  0  0  0  0  0
  -37.3490   60.1700   64.2050 C   0  0  2  0  0  0  0  0  0  0  0  0
  -36.0840   60.8130   64.7130 C   0  0  0  0  0  0  0  0  0  0  0  0
  -32.9930   59.7928   65.2634 C   0  0  0  0  0  0  0  0  0  0  0  0
  -32.4494   59.5370   66.6476 C   0  0  2  0  0  0  0  0  0  0  0  0
  -31.1783   60.3060   66.9172 C   0  0  0  0  0  0  0  0  0  0  0  0
  -37.8515   58.9548   66.2113 C   0  0  0  0  0  0  0  0  0  0  0  0
  -38.9916   58.2015   66.8235 C   0  0  0  0  0  0  0  0  0  0  0  0
  -39.7730   57.4193   65.7725 C   0  0  0  0  0  0  0  0  0  0  0  0
  -40.9555   56.6462   66.3327 C   0  0  0  0  0  0  0  0  0  0  0  0
  -42.0019   57.5314   67.0000 C   0  0  0  0  0  0  0  0  0  0  0  0
  -43.1788   56.7673   67.5776 C   0  0  0  0  0  0  0  0  0  0  0  0
  -42.8089   55.7569   68.6672 C   0  0  0  0  0  0  0  0  0  0  0  0
  -43.9831   54.9660   69.2480 C   0  0  0  0  0  0  0  0  0  0  0  0
  -45.0167   55.8602   69.8644 C   0  0  0  0  0  0  0  0  0  0  0  0
  -45.0618   56.2632   71.1194 C   0  0  0  0  0  0  0  0  0  0  0  0
  -44.0837   55.9108   72.1953 C   0  0  0  0  0  0  0  0  0  0  0  0
  -42.6680   56.3789   71.8713 C   0  0  0  0  0  0  0  0  0  0  0  0
  -42.5470   57.8833   71.7027 C   0  0  0  0  0  0  0  0  0  0  0  0
  -41.1412   58.3479   71.3635 C   0  0  0  0  0  0  0  0  0  0  0  0
  -40.0901   57.9815   72.3982 C   0  0  0  0  0  0  0  0  0  0  0  0
  -38.6947   58.4724   72.0439 C   0  0  0  0  0  0  0  0  0  0  0  0
  -38.1632   57.9394   70.7281 C   0  0  0  0  0  0  0  0  0  0  0  0
  -38.0867   56.4385   70.6970 C   0  0  0  0  0  0  0  0  0  0  0  0
  -42.2161   59.6646   52.0362 H   0  0  0  0  0  0  0  0  0  0  0  0
  -42.8167   59.1756   53.6025 H   0  0  0  0  0  0  0  0  0  0  0  0
  -41.9099   58.0477   52.6234 H   0  0  0  0  0  0  0  0  0  0  0  0
  -40.8390   60.5802   53.8159 H   0  0  0  0  0  0  0  0  0  0  0  0
  -39.9385   59.4149   52.8361 H   0  0  0  0  0  0  0  0  0  0  0  0
  -40.2568   57.7313   54.5076 H   0  0  0  0  0  0  0  0  0  0  0  0
  -41.1689   58.9157   55.4860 H   0  0  0  0  0  0  0  0  0  0  0  0
  -38.2851   59.1032   54.7982 H   0  0  0  0  0  0  0  0  0  0  0  0
  -38.9803   58.5827   56.3494 H   0  0  0  0  0  0  0  0  0  0  0  0
  -39.9501   60.7406   56.6698 H   0  0  0  0  0  0  0  0  0  0  0  0
  -39.2746   61.2631   55.1103 H   0  0  0  0  0  0  0  0  0  0  0  0
  -34.3389   63.6274   63.0976 H   0  0  0  0  0  0  0  0  0  0  0  0
  -37.0622   61.0111   55.9532 H   0  0  0  0  0  0  0  0  0  0  0  0
  -37.7266   60.4677   57.5085 H   0  0  0  0  0  0  0  0  0  0  0  0
  -38.7217   62.6048   57.8600 H   0  0  0  0  0  0  0  0  0  0  0  0
  -38.0710   63.1479   56.2940 H   0  0  0  0  0  0  0  0  0  0  0  0
  -29.8987   60.5640   68.3931 H   0  0  0  0  0  0  0  0  0  0  0  0
  -36.7764   64.0115   58.1399 H   0  0  0  0  0  0  0  0  0  0  0  0
  -35.8549   62.8973   57.1024 H   0  0  0  0  0  0  0  0  0  0  0  0
  -33.0441   57.6504   66.6359 H   0  0  0  0  0  0  0  0  0  0  0  0
  -35.3328   62.5787   59.4281 H   0  0  0  0  0  0  0  0  0  0  0  0
  -36.1244   61.1650   58.6875 H   0  0  0  0  0  0  0  0  0  0  0  0
  -37.4467   63.1485   60.4658 H   0  0  0  0  0  0  0  0  0  0  0  0
  -36.8965   61.5266   60.9176 H   0  0  0  0  0  0  0  0  0  0  0  0
  -38.4221   60.5501   59.3585 H   0  0  0  0  0  0  0  0  0  0  0  0
  -38.9647   62.1759   58.8923 H   0  0  0  0  0  0  0  0  0  0  0  0
  -39.8243   62.5437   61.0775 H   0  0  0  0  0  0  0  0  0  0  0  0
  -39.2676   60.9309   61.5608 H   0  0  0  0  0  0  0  0  0  0  0  0
  -40.7658   59.9213   60.0052 H   0  0  0  0  0  0  0  0  0  0  0  0
  -41.3143   61.5327   59.5035 H   0  0  0  0  0  0  0  0  0  0  0  0
  -42.8977   60.4806   60.9908 H   0  0  0  0  0  0  0  0  0  0  0  0
  -42.1701   61.9422   61.6839 H   0  0  0  0  0  0  0  0  0  0  0  0
  -42.3975   60.2027   63.3306 H   0  0  0  0  0  0  0  0  0  0  0  0
  -40.6985   60.6138   62.9833 H   0  0  0  0  0  0  0  0  0  0  0  0
  -42.1390   58.2232   61.9605 H   0  0  0  0  0  0  0  0  0  0  0  0
  -40.9794   58.2663   63.2992 H   0  0  0  0  0  0  0  0  0  0  0  0
  -40.3860   58.9738   60.4646 H   0  0  0  0  0  0  0  0  0  0  0  0
  -39.9532   57.4642   61.3061 H   0  0  0  0  0  0  0  0  0  0  0  0
  -36.4020   59.0962   62.6252 H   0  0  0  0  0  0  0  0  0  0  0  0
  -36.6048   58.1555   64.0382 H   0  0  0  0  0  0  0  0  0  0  0  0
  -37.7985   60.8886   63.5519 H   0  0  0  0  0  0  0  0  0  0  0  0
  -36.3238   61.7163   65.2340 H   0  0  0  0  0  0  0  0  0  0  0  0
  -35.5811   60.1472   65.3829 H   0  0  0  0  0  0  0  0  0  0  0  0
  -32.2928   59.4491   64.5309 H   0  0  0  0  0  0  0  0  0  0  0  0
  -33.9166   59.2697   65.1284 H   0  0  0  0  0  0  0  0  0  0  0  0
  -33.1755   59.8790   67.3552 H   0  0  0  0  0  0  0  0  0  0  0  0
  -30.4274   59.9994   66.2193 H   0  0  0  0  0  0  0  0  0  0  0  0
  -31.3795   61.3515   66.8105 H   0  0  0  0  0  0  0  0  0  0  0  0
  -39.6506   58.8960   67.3013 H   0  0  0  0  0  0  0  0  0  0  0  0
  -38.5926   57.5059   67.5319 H   0  0  0  0  0  0  0  0  0  0  0  0
  -39.1068   56.7243   65.3057 H   0  0  0  0  0  0  0  0  0  0  0  0
  -40.1689   58.1357   65.0833 H   0  0  0  0  0  0  0  0  0  0  0  0
  -40.5909   55.9483   67.0572 H   0  0  0  0  0  0  0  0  0  0  0  0
  -41.4340   56.1624   65.5069 H   0  0  0  0  0  0  0  0  0  0  0  0
  -42.3735   58.2210   66.2712 H   0  0  0  0  0  0  0  0  0  0  0  0
  -41.5173   58.0196   67.8196 H   0  0  0  0  0  0  0  0  0  0  0  0
  -43.6572   56.2382   66.7801 H   0  0  0  0  0  0  0  0  0  0  0  0
  -43.8146   57.4932   68.0399 H   0  0  0  0  0  0  0  0  0  0  0  0
  -42.3406   56.2901   69.4680 H   0  0  0  0  0  0  0  0  0  0  0  0
  -42.1686   55.0379   68.2003 H   0  0  0  0  0  0  0  0  0  0  0  0
  -43.6122   54.2992   69.9983 H   0  0  0  0  0  0  0  0  0  0  0  0
  -44.4473   54.4299   68.4467 H   0  0  0  0  0  0  0  0  0  0  0  0
  -45.7698   56.1946   69.2431 H   0  0  0  0  0  0  0  0  0  0  0  0
  -45.8458   56.8798   71.3843 H   0  0  0  0  0  0  0  0  0  0  0  0
  -44.0747   54.8477   72.3166 H   0  0  0  0  0  0  0  0  0  0  0  0
  -44.3934   56.4055   73.0921 H   0  0  0  0  0  0  0  0  0  0  0  0
  -42.3572   55.9107   70.9607 H   0  0  0  0  0  0  0  0  0  0  0  0
  -42.0504   56.1062   72.7014 H   0  0  0  0  0  0  0  0  0  0  0  0
  -42.8460   58.3510   72.6175 H   0  0  0  0  0  0  0  0  0  0  0  0
  -43.1743   58.1575   70.8804 H   0  0  0  0  0  0  0  0  0  0  0  0
  -41.1559   59.4132   71.2646 H   0  0  0  0  0  0  0  0  0  0  0  0
  -40.8651   57.8477   70.4588 H   0  0  0  0  0  0  0  0  0  0  0  0
  -40.0615   56.9158   72.4895 H   0  0  0  0  0  0  0  0  0  0  0  0
  -40.3693   58.4594   73.3140 H   0  0  0  0  0  0  0  0  0  0  0  0
  -38.0254   58.1712   72.8226 H   0  0  0  0  0  0  0  0  0  0  0  0
  -38.7599   59.5354   71.9409 H   0  0  0  0  0  0  0  0  0  0  0  0
  -37.1818   58.3353   70.5701 H   0  0  0  0  0  0  0  0  0  0  0  0
  -38.8420   58.2438   69.9590 H   0  0  0  0  0  0  0  0  0  0  0  0
  -37.4135   56.0999   71.4568 H   0  0  0  0  0  0  0  0  0  0  0  0
  -37.7330   56.1192   69.7390 H   0  0  0  0  0  0  0  0  0  0  0  0
  -39.0590   56.0281   70.8733 H   0  0  0  0  0  0  0  0  0  0  0  0
  1  4  1  0  0  0  0
  1 54  1  0  0  0  0
  1 55  1  0  0  0  0
  1 56  1  0  0  0  0
  2 29  2  0  0  0  0
  3  7  1  0  0  0  0
  3  9  2  6  0  0  0
  3 11  1  0  0  0  0
  3 13  1  0  0  0  0
  4  6  1  0  0  0  0
  4 57  1  0  0  0  0
  4 58  1  0  0  0  0
  5 29  1  0  0  0  0
  5 30  1  0  0  0  0
  6  8  1  0  0  0  0
  6 59  1  0  0  0  0
  6 60  1  0  0  0  0
  7 32  1  0  0  0  0
  8 10  1  0  0  0  0
  8 61  1  0  0  0  0
  8 62  1  0  0  0  0
 10 12  1  0  0  0  0
 10 63  1  0  0  0  0
 10 64  1  0  0  0  0
 11 65  1  0  0  0  0
 12 14  1  0  0  0  0
 12 66  1  0  0  0  0
 12 67  1  0  0  0  0
 13 33  1  0  0  0  0
 14 16  1  0  0  0  0
 14 68  1  0  0  0  0
 14 69  1  0  0  0  0
 15 35  1  0  0  0  0
 15 70  1  0  0  0  0
 16 18  1  0  0  0  0
 16 71  1  0  0  0  0
 16 72  1  0  0  0  0
 17 34  1  0  0  0  0
 17 73  1  0  0  0  0
 18 20  1  0  0  0  0
 18 74  1  0  0  0  0
 18 75  1  0  0  0  0
 19 31  1  0  0  0  0
 19 36  1  0  0  0  0
 20 22  1  0  0  0  0
 20 76  1  0  0  0  0
 20 77  1  0  0  0  0
 21 36  2  0  0  0  0
 22 23  1  0  0  0  0
 22 78  1  0  0  0  0
 22 79  1  0  0  0  0
 23 24  1  0  0  0  0
 23 80  1  0  0  0  0
 23 81  1  0  0  0  0
 24 25  1  0  0  0  0
 24 82  1  0  0  0  0
 24 83  1  0  0  0  0
 25 26  1  0  0  0  0
 25 84  1  0  0  0  0
 25 85  1  0  0  0  0
 26 27  1  0  0  0  0
 26 86  1  0  0  0  0
 26 87  1  0  0  0  0
 27 28  1  0  0  0  0
 27 88  1  0  0  0  0
 27 89  1  0  0  0  0
 28 29  1  0  0  0  0
 28 90  1  0  0  0  0
 28 91  1  0  0  0  0
 30 31  1  0  0  0  0
 30 92  1  0  0  0  0
 30 93  1  0  0  0  0
 31 32  1  0  0  0  0
 31 94  1  6  0  0  0
 32 95  1  0  0  0  0
 32 96  1  0  0  0  0
 33 34  1  0  0  0  0
 33 97  1  0  0  0  0
 33 98  1  0  0  0  0
 34 35  1  0  0  0  0
 34 99  1  1  0  0  0
 35100  1  0  0  0  0
 35101  1  0  0  0  0
 36 37  1  0  0  0  0
 37 38  1  0  0  0  0
 37102  1  0  0  0  0
 37103  1  0  0  0  0
 38 39  1  0  0  0  0
 38104  1  0  0  0  0
 38105  1  0  0  0  0
 39 40  1  0  0  0  0
 39106  1  0  0  0  0
 39107  1  0  0  0  0
 40 41  1  0  0  0  0
 40108  1  0  0  0  0
 40109  1  0  0  0  0
 41 42  1  0  0  0  0
 41110  1  0  0  0  0
 41111  1  0  0  0  0
 42 43  1  0  0  0  0
 42112  1  0  0  0  0
 42113  1  0  0  0  0
 43 44  1  0  0  0  0
 43114  1  0  0  0  0
 43115  1  0  0  0  0
 44 45  2  0  0  0  0
 44116  1  0  0  0  0
 45 46  1  0  0  0  0
 45117  1  0  0  0  0
 46 47  1  0  0  0  0
 46118  1  0  0  0  0
 46119  1  0  0  0  0
 47 48  1  0  0  0  0
 47120  1  0  0  0  0
 47121  1  0  0  0  0
 48 49  1  0  0  0  0
 48122  1  0  0  0  0
 48123  1  0  0  0  0
 49 50  1  0  0  0  0
 49124  1  0  0  0  0
 49125  1  0  0  0  0
 50 51  1  0  0  0  0
 50126  1  0  0  0  0
 50127  1  0  0  0  0
 51 52  1  0  0  0  0
 51128  1  0  0  0  0
 51129  1  0  0  0  0
 52 53  1  0  0  0  0
 52130  1  0  0  0  0
 52131  1  0  0  0  0
 53132  1  0  0  0  0
 53133  1  0  0  0  0
 53134  1  0  0  0  0
M  CHG  1   9  -1
M  END
$$$$
/media/chris/experiments/cd1a-new-docking/inputs/ligands/7sh4_ligand.pdb
 OpenBabel07012320073D

134133  0  0  1  0  0  0  0  0999 V2000
  -45.7976   66.3573   60.5259 C   0  0  0  0  0  0  0  0  0  0  0  0
  -37.4853   59.3943   60.6136 O   0  0  0  0  0  0  0  0  0  0  0  0
  -34.0491   60.2433   66.3537 P   0  0  1  0  0  0  0  0  0  0  0  0
  -44.7097   66.7203   61.5110 C   0  0  0  0  0  0  0  0  0  0  0  0
  -36.1511   59.3213   62.4064 O   0  0  0  0  0  0  0  0  0  0  0  0
  -44.3892   68.2029   61.4986 C   0  0  0  0  0  0  0  0  0  0  0  0
  -35.4212   59.8922   65.6081 O   0  0  0  0  0  0  0  0  0  0  0  0
  -43.2901   68.6234   62.4579 C   0  0  0  0  0  0  0  0  0  0  0  0
  -34.0310   59.5204   67.6436 O   0  5  0  0  0  0  0  0  0  0  0  0
  -41.9498   67.9580   62.1783 C   0  0  0  0  0  0  0  0  0  0  0  0
  -32.9359   60.0247   65.3989 O   0  0  0  0  0  0  0  0  0  0  0  0
  -40.8566   68.3641   63.1454 C   0  0  0  0  0  0  0  0  0  0  0  0
  -34.1263   61.8049   66.6670 O   0  0  0  0  0  0  0  0  0  0  0  0
  -41.1657   68.0101   64.5874 C   0  0  0  0  0  0  0  0  0  0  0  0
  -34.0939   64.5893   64.5555 O   0  0  0  0  0  0  0  0  0  0  0  0
  -41.3533   66.5172   64.8322 C   0  0  0  0  0  0  0  0  0  0  0  0
  -34.8857   64.0674   68.0946 O   0  0  0  0  0  0  0  0  0  0  0  0
  -40.1331   65.6844   64.4994 C   0  0  0  0  0  0  0  0  0  0  0  0
  -38.2720   59.8520   65.2990 O   0  0  0  0  0  0  0  0  0  0  0  0
  -39.6829   65.7960   63.0568 C   0  0  0  0  0  0  0  0  0  0  0  0
  -36.8606   59.5894   67.0308 O   0  0  0  0  0  0  0  0  0  0  0  0
  -38.4734   64.9395   62.7543 C   0  0  0  0  0  0  0  0  0  0  0  0
  -38.0029   65.0521   61.3282 C   0  0  0  0  0  0  0  0  0  0  0  0
  -39.0580   64.6527   60.3259 C   0  0  0  0  0  0  0  0  0  0  0  0
  -39.5368   63.2257   60.5006 C   0  0  0  0  0  0  0  0  0  0  0  0
  -38.4261   62.2083   60.3692 C   0  0  0  0  0  0  0  0  0  0  0  0
  -37.3185   62.3641   61.3897 C   0  0  0  0  0  0  0  0  0  0  0  0
  -36.2118   61.3373   61.2182 C   0  0  0  0  0  0  0  0  0  0  0  0
  -36.6737   59.9130   61.3318 C   0  0  0  0  0  0  0  0  0  0  0  0
  -37.0720   58.9080   63.4380 C   0  0  0  0  0  0  0  0  0  0  0  0
  -37.3490   60.1700   64.2050 C   0  0  2  0  0  0  0  0  0  0  0  0
  -36.0840   60.8130   64.7130 C   0  0  0  0  0  0  0  0  0  0  0  0
  -35.2879   62.5634   66.2728 C   0  0  0  0  0  0  0  0  0  0  0  0
  -35.0772   64.0015   66.6783 C   0  0  2  0  0  0  0  0  0  0  0  0
  -33.9070   64.6345   65.9643 C   0  0  0  0  0  0  0  0  0  0  0  0
  -37.8399   60.0926   66.5518 C   0  0  0  0  0  0  0  0  0  0  0  0
  -38.7148   61.0747   67.2675 C   0  0  0  0  0  0  0  0  0  0  0  0
  -39.8392   60.3741   68.0235 C   0  0  0  0  0  0  0  0  0  0  0  0
  -40.7727   61.3227   68.7576 C   0  0  0  0  0  0  0  0  0  0  0  0
  -41.4901   62.3049   67.8387 C   0  0  0  0  0  0  0  0  0  0  0  0
  -42.4118   63.2676   68.5639 C   0  0  0  0  0  0  0  0  0  0  0  0
  -43.5294   62.5962   69.3671 C   0  0  0  0  0  0  0  0  0  0  0  0
  -44.4785   61.7150   68.5521 C   0  0  0  0  0  0  0  0  0  0  0  0
  -45.1707   62.4836   67.4667 C   0  0  0  0  0  0  0  0  0  0  0  0
  -46.3724   62.2465   66.9776 C   0  0  0  0  0  0  0  0  0  0  0  0
  -47.3011   61.1554   67.4080 C   0  0  0  0  0  0  0  0  0  0  0  0
  -48.7684   61.5430   67.2486 C   0  0  0  0  0  0  0  0  0  0  0  0
  -49.1634   62.7745   68.0446 C   0  0  0  0  0  0  0  0  0  0  0  0
  -48.3965   64.0257   67.6528 C   0  0  0  0  0  0  0  0  0  0  0  0
  -48.5807   64.4498   66.2052 C   0  0  0  0  0  0  0  0  0  0  0  0
  -50.0235   64.7724   65.8476 C   0  0  0  0  0  0  0  0  0  0  0  0
  -50.2297   65.1813   64.4025 C   0  0  0  0  0  0  0  0  0  0  0  0
  -49.4345   66.3995   64.0238 C   0  0  0  0  0  0  0  0  0  0  0  0
  -45.9853   65.3050   60.5736 H   0  0  0  0  0  0  0  0  0  0  0  0
  -45.4850   66.6194   59.5367 H   0  0  0  0  0  0  0  0  0  0  0  0
  -46.6924   66.8907   60.7703 H   0  0  0  0  0  0  0  0  0  0  0  0
  -43.8236   66.1751   61.2606 H   0  0  0  0  0  0  0  0  0  0  0  0
  -45.0601   66.4704   62.4907 H   0  0  0  0  0  0  0  0  0  0  0  0
  -45.2791   68.7382   61.7564 H   0  0  0  0  0  0  0  0  0  0  0  0
  -44.0329   68.4265   60.5148 H   0  0  0  0  0  0  0  0  0  0  0  0
  -43.5932   68.3691   63.4521 H   0  0  0  0  0  0  0  0  0  0  0  0
  -43.1499   69.6767   62.3322 H   0  0  0  0  0  0  0  0  0  0  0  0
  -41.6410   68.2224   61.1885 H   0  0  0  0  0  0  0  0  0  0  0  0
  -42.0933   66.9038   62.2922 H   0  0  0  0  0  0  0  0  0  0  0  0
  -32.8683   59.0794   65.1920 H   0  0  0  0  0  0  0  0  0  0  0  0
  -40.7204   69.4232   63.0779 H   0  0  0  0  0  0  0  0  0  0  0  0
  -39.9748   67.8244   62.8699 H   0  0  0  0  0  0  0  0  0  0  0  0
  -42.0659   68.5136   64.8721 H   0  0  0  0  0  0  0  0  0  0  0  0
  -40.3214   68.3158   65.1693 H   0  0  0  0  0  0  0  0  0  0  0  0
  -33.3334   64.9998   64.1151 H   0  0  0  0  0  0  0  0  0  0  0  0
  -42.1688   66.1765   64.2290 H   0  0  0  0  0  0  0  0  0  0  0  0
  -41.5382   66.3941   65.8789 H   0  0  0  0  0  0  0  0  0  0  0  0
  -35.6426   63.6583   68.5425 H   0  0  0  0  0  0  0  0  0  0  0  0
  -40.3607   64.6587   64.7020 H   0  0  0  0  0  0  0  0  0  0  0  0
  -39.3315   66.0566   65.1026 H   0  0  0  0  0  0  0  0  0  0  0  0
  -39.4386   66.8175   62.8526 H   0  0  0  0  0  0  0  0  0  0  0  0
  -40.4860   65.4500   62.4402 H   0  0  0  0  0  0  0  0  0  0  0  0
  -38.7239   63.9177   62.9491 H   0  0  0  0  0  0  0  0  0  0  0  0
  -37.6764   65.2864   63.3783 H   0  0  0  0  0  0  0  0  0  0  0  0
  -37.1517   64.4168   61.1988 H   0  0  0  0  0  0  0  0  0  0  0  0
  -37.7649   66.0800   61.1499 H   0  0  0  0  0  0  0  0  0  0  0  0
  -38.6495   64.7564   59.3424 H   0  0  0  0  0  0  0  0  0  0  0  0
  -39.9017   65.2924   60.4800 H   0  0  0  0  0  0  0  0  0  0  0  0
  -40.2764   63.0208   59.7550 H   0  0  0  0  0  0  0  0  0  0  0  0
  -39.9326   63.1404   61.4910 H   0  0  0  0  0  0  0  0  0  0  0  0
  -37.9986   62.3023   59.3929 H   0  0  0  0  0  0  0  0  0  0  0  0
  -38.8669   61.2480   60.5378 H   0  0  0  0  0  0  0  0  0  0  0  0
  -37.7373   62.2552   62.3683 H   0  0  0  0  0  0  0  0  0  0  0  0
  -36.8846   63.3321   61.2494 H   0  0  0  0  0  0  0  0  0  0  0  0
  -35.4720   61.5117   61.9713 H   0  0  0  0  0  0  0  0  0  0  0  0
  -35.8290   61.4592   60.2265 H   0  0  0  0  0  0  0  0  0  0  0  0
  -36.6274   58.1683   64.0706 H   0  0  0  0  0  0  0  0  0  0  0  0
  -37.9610   58.4631   63.0423 H   0  0  0  0  0  0  0  0  0  0  0  0
  -37.7985   60.8886   63.5519 H   0  0  0  0  0  0  0  0  0  0  0  0
  -35.4401   61.0403   63.8892 H   0  0  0  0  0  0  0  0  0  0  0  0
  -36.3193   61.7188   65.2317 H   0  0  0  0  0  0  0  0  0  0  0  0
  -36.1567   62.1738   66.7610 H   0  0  0  0  0  0  0  0  0  0  0  0
  -35.4291   62.4965   65.2143 H   0  0  0  0  0  0  0  0  0  0  0  0
  -35.9489   64.5544   66.3967 H   0  0  0  0  0  0  0  0  0  0  0  0
  -33.8165   65.6546   66.2741 H   0  0  0  0  0  0  0  0  0  0  0  0
  -33.0186   64.0915   66.2111 H   0  0  0  0  0  0  0  0  0  0  0  0
  -39.1422   61.7456   66.5519 H   0  0  0  0  0  0  0  0  0  0  0  0
  -38.1139   61.6057   67.9759 H   0  0  0  0  0  0  0  0  0  0  0  0
  -39.4013   59.7109   68.7399 H   0  0  0  0  0  0  0  0  0  0  0  0
  -40.4299   59.8597   67.2945 H   0  0  0  0  0  0  0  0  0  0  0  0
  -40.1984   61.8809   69.4672 H   0  0  0  0  0  0  0  0  0  0  0  0
  -41.5254   60.7231   69.2253 H   0  0  0  0  0  0  0  0  0  0  0  0
  -42.0728   61.7452   67.1371 H   0  0  0  0  0  0  0  0  0  0  0  0
  -40.7337   62.8965   67.3668 H   0  0  0  0  0  0  0  0  0  0  0  0
  -42.8629   63.9099   67.8366 H   0  0  0  0  0  0  0  0  0  0  0  0
  -41.8051   63.7949   69.2701 H   0  0  0  0  0  0  0  0  0  0  0  0
  -44.1097   63.3648   69.8334 H   0  0  0  0  0  0  0  0  0  0  0  0
  -43.0442   61.9448   70.0638 H   0  0  0  0  0  0  0  0  0  0  0  0
  -45.2170   61.3043   69.2086 H   0  0  0  0  0  0  0  0  0  0  0  0
  -43.8973   60.9444   68.0904 H   0  0  0  0  0  0  0  0  0  0  0  0
  -44.6541   63.2795   67.0609 H   0  0  0  0  0  0  0  0  0  0  0  0
  -46.7033   62.8728   66.2270 H   0  0  0  0  0  0  0  0  0  0  0  0
  -47.1148   60.9319   68.4376 H   0  0  0  0  0  0  0  0  0  0  0  0
  -47.1185   60.3064   66.7829 H   0  0  0  0  0  0  0  0  0  0  0  0
  -49.3721   60.7219   67.5744 H   0  0  0  0  0  0  0  0  0  0  0  0
  -48.9202   61.7760   66.2154 H   0  0  0  0  0  0  0  0  0  0  0  0
  -48.9840   62.5788   69.0811 H   0  0  0  0  0  0  0  0  0  0  0  0
  -50.1962   62.9628   67.8378 H   0  0  0  0  0  0  0  0  0  0  0  0
  -47.3549   63.8450   67.8183 H   0  0  0  0  0  0  0  0  0  0  0  0
  -48.7836   64.8212   68.2548 H   0  0  0  0  0  0  0  0  0  0  0  0
  -48.2448   63.6541   65.5736 H   0  0  0  0  0  0  0  0  0  0  0  0
  -48.0131   65.3459   66.0645 H   0  0  0  0  0  0  0  0  0  0  0  0
  -50.3528   65.5753   66.4736 H   0  0  0  0  0  0  0  0  0  0  0  0
  -50.5850   63.8737   65.9956 H   0  0  0  0  0  0  0  0  0  0  0  0
  -51.2681   65.3900   64.2509 H   0  0  0  0  0  0  0  0  0  0  0  0
  -49.8939   64.3728   63.7874 H   0  0  0  0  0  0  0  0  0  0  0  0
  -49.7466   67.2295   64.6225 H   0  0  0  0  0  0  0  0  0  0  0  0
  -49.5967   66.6242   62.9903 H   0  0  0  0  0  0  0  0  0  0  0  0
  -48.3941   66.2118   64.1889 H   0  0  0  0  0  0  0  0  0  0  0  0
  1  4  1  0  0  0  0
  1 54  1  0  0  0  0
  1 55  1  0  0  0  0
  1 56  1  0  0  0  0
  2 29  2  0  0  0  0
  3  7  1  0  0  0  0
  3  9  2  1  0  0  0
  3 11  1  0  0  0  0
  3 13  1  0  0  0  0
  4  6  1  0  0  0  0
  4 57  1  0  0  0  0
  4 58  1  0  0  0  0
  5 29  1  0  0  0  0
  5 30  1  0  0  0  0
  6  8  1  0  0  0  0
  6 59  1  0  0  0  0
  6 60  1  0  0  0  0
  7 32  1  0  0  0  0
  8 10  1  0  0  0  0
  8 61  1  0  0  0  0
  8 62  1  0  0  0  0
 10 12  1  0  0  0  0
 10 63  1  0  0  0  0
 10 64  1  0  0  0  0
 11 65  1  0  0  0  0
 12 14  1  0  0  0  0
 12 66  1  0  0  0  0
 12 67  1  0  0  0  0
 13 33  1  0  0  0  0
 14 16  1  0  0  0  0
 14 68  1  0  0  0  0
 14 69  1  0  0  0  0
 15 35  1  0  0  0  0
 15 70  1  0  0  0  0
 16 18  1  0  0  0  0
 16 71  1  0  0  0  0
 16 72  1  0  0  0  0
 17 34  1  0  0  0  0
 17 73  1  0  0  0  0
 18 20  1  0  0  0  0
 18 74  1  0  0  0  0
 18 75  1  0  0  0  0
 19 31  1  0  0  0  0
 19 36  1  0  0  0  0
 20 22  1  0  0  0  0
 20 76  1  0  0  0  0
 20 77  1  0  0  0  0
 21 36  2  0  0  0  0
 22 23  1  0  0  0  0
 22 78  1  0  0  0  0
 22 79  1  0  0  0  0
 23 24  1  0  0  0  0
 23 80  1  0  0  0  0
 23 81  1  0  0  0  0
 24 25  1  0  0  0  0
 24 82  1  0  0  0  0
 24 83  1  0  0  0  0
 25 26  1  0  0  0  0
 25 84  1  0  0  0  0
 25 85  1  0  0  0  0
 26 27  1  0  0  0  0
 26 86  1  0  0  0  0
 26 87  1  0  0  0  0
 27 28  1  0  0  0  0
 27 88  1  0  0  0  0
 27 89  1  0  0  0  0
 28 29  1  0  0  0  0
 28 90  1  0  0  0  0
 28 91  1  0  0  0  0
 30 31  1  0  0  0  0
 30 92  1  0  0  0  0
 30 93  1  0  0  0  0
 31 32  1  0  0  0  0
 31 94  1  6  0  0  0
 32 95  1  0  0  0  0
 32 96  1  0  0  0  0
 33 34  1  0  0  0  0
 33 97  1  0  0  0  0
 33 98  1  0  0  0  0
 34 35  1  0  0  0  0
 34 99  1  6  0  0  0
 35100  1  0  0  0  0
 35101  1  0  0  0  0
 36 37  1  0  0  0  0
 37 38  1  0  0  0  0
 37102  1  0  0  0  0
 37103  1  0  0  0  0
 38 39  1  0  0  0  0
 38104  1  0  0  0  0
 38105  1  0  0  0  0
 39 40  1  0  0  0  0
 39106  1  0  0  0  0
 39107  1  0  0  0  0
 40 41  1  0  0  0  0
 40108  1  0  0  0  0
 40109  1  0  0  0  0
 41 42  1  0  0  0  0
 41110  1  0  0  0  0
 41111  1  0  0  0  0
 42 43  1  0  0  0  0
 42112  1  0  0  0  0
 42113  1  0  0  0  0
 43 44  1  0  0  0  0
 43114  1  0  0  0  0
 43115  1  0  0  0  0
 44 45  2  0  0  0  0
 44116  1  0  0  0  0
 45 46  1  0  0  0  0
 45117  1  0  0  0  0
 46 47  1  0  0  0  0
 46118  1  0  0  0  0
 46119  1  0  0  0  0
 47 48  1  0  0  0  0
 47120  1  0  0  0  0
 47121  1  0  0  0  0
 48 49  1  0  0  0  0
 48122  1  0  0  0  0
 48123  1  0  0  0  0
 49 50  1  0  0  0  0
 49124  1  0  0  0  0
 49125  1  0  0  0  0
 50 51  1  0  0  0  0
 50126  1  0  0  0  0
 50127  1  0  0  0  0
 51 52  1  0  0  0  0
 51128  1  0  0  0  0
 51129  1  0  0  0  0
 52 53  1  0  0  0  0
 52130  1  0  0  0  0
 52131  1  0  0  0  0
 53132  1  0  0  0  0
 53133  1  0  0  0  0
 53134  1  0  0  0  0
M  CHG  1   9  -1
M  END
$$$$
/media/chris/experiments/cd1a-new-docking/inputs/ligands/7sh4_ligand.pdb
 OpenBabel07012320073D

134133  0  0  1  0  0  0  0  0999 V2000
  -40.6807   48.0168   73.2404 C   0  0  0  0  0  0  0  0  0  0  0  0
  -38.4164   57.8457   65.5656 O   0  0  0  0  0  0  0  0  0  0  0  0
  -37.2082   63.2406   64.7182 P   0  0  1  0  0  0  0  0  0  0  0  0
  -40.4290   47.9012   74.7267 C   0  0  0  0  0  0  0  0  0  0  0  0
  -36.5027   58.0190   64.4222 O   0  0  0  0  0  0  0  0  0  0  0  0
  -39.4524   48.9466   75.2310 C   0  0  0  0  0  0  0  0  0  0  0  0
  -36.4293   62.0282   65.4148 O   0  0  0  0  0  0  0  0  0  0  0  0
  -38.0816   48.9021   74.5798 C   0  0  0  0  0  0  0  0  0  0  0  0
  -37.3745   64.3145   65.7211 O   0  5  0  0  0  0  0  0  0  0  0  0
  -37.1175   49.9507   75.1169 C   0  0  0  0  0  0  0  0  0  0  0  0
  -36.5222   63.5576   63.4424 O   0  0  0  0  0  0  0  0  0  0  0  0
  -37.6064   51.3735   74.9380 C   0  0  0  0  0  0  0  0  0  0  0  0
  -38.6545   62.6678   64.3676 O   0  0  0  0  0  0  0  0  0  0  0  0
  -37.8536   51.7482   73.4893 C   0  0  0  0  0  0  0  0  0  0  0  0
  -42.2778   64.8891   64.6928 O   0  0  0  0  0  0  0  0  0  0  0  0
  -36.6218   51.6266   72.5993 C   0  0  0  0  0  0  0  0  0  0  0  0
  -39.9605   64.7550   63.0447 O   0  0  0  0  0  0  0  0  0  0  0  0
  -36.8679   52.0176   71.1572 C   0  0  0  0  0  0  0  0  0  0  0  0
  -38.2720   59.8520   65.2990 O   0  0  0  0  0  0  0  0  0  0  0  0
  -37.9378   51.1955   70.4675 C   0  0  0  0  0  0  0  0  0  0  0  0
  -36.6868   60.0455   66.8833 O   0  0  0  0  0  0  0  0  0  0  0  0
  -38.1464   51.6001   69.0250 C   0  0  0  0  0  0  0  0  0  0  0  0
  -38.5528   53.0409   68.8612 C   0  0  0  0  0  0  0  0  0  0  0  0
  -38.7750   53.4307   67.4203 C   0  0  0  0  0  0  0  0  0  0  0  0
  -39.1675   54.8842   67.2494 C   0  0  0  0  0  0  0  0  0  0  0  0
  -38.1171   55.8449   67.7586 C   0  0  0  0  0  0  0  0  0  0  0  0
  -36.7792   55.7289   67.0592 C   0  0  0  0  0  0  0  0  0  0  0  0
  -36.8681   56.0112   65.5689 C   0  0  0  0  0  0  0  0  0  0  0  0
  -37.3544   57.3919   65.2342 C   0  0  0  0  0  0  0  0  0  0  0  0
  -37.0720   58.9080   63.4380 C   0  0  0  0  0  0  0  0  0  0  0  0
  -37.3490   60.1700   64.2050 C   0  0  2  0  0  0  0  0  0  0  0  0
  -36.0840   60.8130   64.7130 C   0  0  0  0  0  0  0  0  0  0  0  0
  -39.8305   63.2835   64.9315 C   0  0  0  0  0  0  0  0  0  0  0  0
  -39.8817   64.7202   64.4728 C   0  0  2  0  0  0  0  0  0  0  0  0
  -41.0409   65.4756   65.0772 C   0  0  0  0  0  0  0  0  0  0  0  0
  -37.8399   60.0926   66.5518 C   0  0  0  0  0  0  0  0  0  0  0  0
  -38.9653   60.4431   67.4752 C   0  0  0  0  0  0  0  0  0  0  0  0
  -38.6733   60.0004   68.9054 C   0  0  0  0  0  0  0  0  0  0  0  0
  -39.7895   60.3147   69.8879 C   0  0  0  0  0  0  0  0  0  0  0  0
  -41.1117   59.6377   69.5456 C   0  0  0  0  0  0  0  0  0  0  0  0
  -41.0426   58.1220   69.5290 C   0  0  0  0  0  0  0  0  0  0  0  0
  -40.6445   57.4881   70.8649 C   0  0  0  0  0  0  0  0  0  0  0  0
  -41.5917   57.7777   72.0314 C   0  0  0  0  0  0  0  0  0  0  0  0
  -41.1288   57.1395   73.3067 C   0  0  0  0  0  0  0  0  0  0  0  0
  -41.4453   55.9367   73.7454 C   0  0  0  0  0  0  0  0  0  0  0  0
  -42.3365   54.9521   73.0564 C   0  0  0  0  0  0  0  0  0  0  0  0
  -43.4046   55.6307   72.2037 C   0  0  0  0  0  0  0  0  0  0  0  0
  -44.3196   56.5515   72.9918 C   0  0  0  0  0  0  0  0  0  0  0  0
  -45.3935   57.2140   72.1462 C   0  0  0  0  0  0  0  0  0  0  0  0
  -46.3093   58.1529   72.9138 C   0  0  0  0  0  0  0  0  0  0  0  0
  -47.3860   58.7902   72.0487 C   0  0  0  0  0  0  0  0  0  0  0  0
  -46.8500   59.6111   70.8926 C   0  0  0  0  0  0  0  0  0  0  0  0
  -45.9673   60.7417   71.3423 C   0  0  0  0  0  0  0  0  0  0  0  0
  -41.3734   47.2601   72.9361 H   0  0  0  0  0  0  0  0  0  0  0  0
  -39.7591   47.8901   72.7117 H   0  0  0  0  0  0  0  0  0  0  0  0
  -41.0877   48.9818   73.0215 H   0  0  0  0  0  0  0  0  0  0  0  0
  -40.0298   46.9302   74.9331 H   0  0  0  0  0  0  0  0  0  0  0  0
  -41.3612   48.0568   75.2284 H   0  0  0  0  0  0  0  0  0  0  0  0
  -39.3258   48.8039   76.2839 H   0  0  0  0  0  0  0  0  0  0  0  0
  -39.8739   49.8982   74.9824 H   0  0  0  0  0  0  0  0  0  0  0  0
  -38.2014   49.0597   73.5282 H   0  0  0  0  0  0  0  0  0  0  0  0
  -37.6594   47.9444   74.8022 H   0  0  0  0  0  0  0  0  0  0  0  0
  -36.1845   49.8468   74.6035 H   0  0  0  0  0  0  0  0  0  0  0  0
  -37.0245   49.7812   76.1692 H   0  0  0  0  0  0  0  0  0  0  0  0
  -35.6376   63.9088   63.6294 H   0  0  0  0  0  0  0  0  0  0  0  0
  -36.8701   52.0381   75.3393 H   0  0  0  0  0  0  0  0  0  0  0  0
  -38.5434   51.4519   75.4487 H   0  0  0  0  0  0  0  0  0  0  0  0
  -38.1932   52.7623   73.4572 H   0  0  0  0  0  0  0  0  0  0  0  0
  -38.5789   51.0589   73.1104 H   0  0  0  0  0  0  0  0  0  0  0  0
  -43.0092   65.3873   65.0901 H   0  0  0  0  0  0  0  0  0  0  0  0
  -36.2892   50.6098   72.6210 H   0  0  0  0  0  0  0  0  0  0  0  0
  -35.8905   52.3055   72.9855 H   0  0  0  0  0  0  0  0  0  0  0  0
  -39.2117   64.2672   62.6675 H   0  0  0  0  0  0  0  0  0  0  0  0
  -35.9524   51.8995   70.6161 H   0  0  0  0  0  0  0  0  0  0  0  0
  -37.2146   53.0298   71.1667 H   0  0  0  0  0  0  0  0  0  0  0  0
  -38.8600   51.3222   70.9953 H   0  0  0  0  0  0  0  0  0  0  0  0
  -37.6152   50.1753   70.4734 H   0  0  0  0  0  0  0  0  0  0  0  0
  -38.9130   50.9818   68.6067 H   0  0  0  0  0  0  0  0  0  0  0  0
  -37.2092   51.4771   68.5236 H   0  0  0  0  0  0  0  0  0  0  0  0
  -37.7811   53.6610   69.2671 H   0  0  0  0  0  0  0  0  0  0  0  0
  -39.4821   53.1717   69.3751 H   0  0  0  0  0  0  0  0  0  0  0  0
  -39.5550   52.8182   67.0186 H   0  0  0  0  0  0  0  0  0  0  0  0
  -37.8476   53.2889   66.9057 H   0  0  0  0  0  0  0  0  0  0  0  0
  -40.0765   55.0571   67.7868 H   0  0  0  0  0  0  0  0  0  0  0  0
  -39.2825   55.0630   66.2007 H   0  0  0  0  0  0  0  0  0  0  0  0
  -37.9680   55.6574   68.8015 H   0  0  0  0  0  0  0  0  0  0  0  0
  -38.4819   56.8316   67.5632 H   0  0  0  0  0  0  0  0  0  0  0  0
  -36.4061   54.7356   67.1974 H   0  0  0  0  0  0  0  0  0  0  0  0
  -36.1269   56.4609   67.4876 H   0  0  0  0  0  0  0  0  0  0  0  0
  -37.5409   55.3030   65.1324 H   0  0  0  0  0  0  0  0  0  0  0  0
  -35.8745   55.9314   65.1801 H   0  0  0  0  0  0  0  0  0  0  0  0
  -37.9762   58.5012   63.0358 H   0  0  0  0  0  0  0  0  0  0  0  0
  -36.4225   59.0678   62.6029 H   0  0  0  0  0  0  0  0  0  0  0  0
  -37.7985   60.8886   63.5519 H   0  0  0  0  0  0  0  0  0  0  0  0
  -35.5824   60.1428   65.3795 H   0  0  0  0  0  0  0  0  0  0  0  0
  -35.4356   61.0386   63.8923 H   0  0  0  0  0  0  0  0  0  0  0  0
  -39.7808   63.2467   65.9997 H   0  0  0  0  0  0  0  0  0  0  0  0
  -40.7083   62.7631   64.6099 H   0  0  0  0  0  0  0  0  0  0  0  0
  -38.9877   65.2045   64.8059 H   0  0  0  0  0  0  0  0  0  0  0  0
  -40.9576   65.4524   66.1437 H   0  0  0  0  0  0  0  0  0  0  0  0
  -41.0147   66.4856   64.7248 H   0  0  0  0  0  0  0  0  0  0  0  0
  -39.8570   59.9583   67.1364 H   0  0  0  0  0  0  0  0  0  0  0  0
  -39.0847   61.5064   67.4706 H   0  0  0  0  0  0  0  0  0  0  0  0
  -37.7841   60.4953   69.2362 H   0  0  0  0  0  0  0  0  0  0  0  0
  -38.5680   58.9358   68.8854 H   0  0  0  0  0  0  0  0  0  0  0  0
  -39.9439   61.3735   69.8972 H   0  0  0  0  0  0  0  0  0  0  0  0
  -39.4826   59.9401   70.8421 H   0  0  0  0  0  0  0  0  0  0  0  0
  -41.4195   59.9711   68.5766 H   0  0  0  0  0  0  0  0  0  0  0  0
  -41.8058   59.9076   70.3138 H   0  0  0  0  0  0  0  0  0  0  0  0
  -40.3236   57.8286   68.7929 H   0  0  0  0  0  0  0  0  0  0  0  0
  -42.0311   57.7753   69.3111 H   0  0  0  0  0  0  0  0  0  0  0  0
  -39.6738   57.8530   71.1283 H   0  0  0  0  0  0  0  0  0  0  0  0
  -40.6763   56.4295   70.7125 H   0  0  0  0  0  0  0  0  0  0  0  0
  -42.5628   57.3994   71.7891 H   0  0  0  0  0  0  0  0  0  0  0  0
  -41.6136   58.8367   72.1824 H   0  0  0  0  0  0  0  0  0  0  0  0
  -40.4980   57.6986   73.9021 H   0  0  0  0  0  0  0  0  0  0  0  0
  -41.0400   55.6473   74.6493 H   0  0  0  0  0  0  0  0  0  0  0  0
  -42.8198   54.3494   73.7967 H   0  0  0  0  0  0  0  0  0  0  0  0
  -41.7271   54.3606   72.4056 H   0  0  0  0  0  0  0  0  0  0  0  0
  -44.0030   54.8718   71.7444 H   0  0  0  0  0  0  0  0  0  0  0  0
  -42.8933   56.2371   71.4855 H   0  0  0  0  0  0  0  0  0  0  0  0
  -43.7227   57.3176   73.4410 H   0  0  0  0  0  0  0  0  0  0  0  0
  -44.8216   55.9471   73.7182 H   0  0  0  0  0  0  0  0  0  0  0  0
  -45.9947   56.4455   71.7071 H   0  0  0  0  0  0  0  0  0  0  0  0
  -44.8835   57.8121   71.4202 H   0  0  0  0  0  0  0  0  0  0  0  0
  -45.7139   58.9318   73.3425 H   0  0  0  0  0  0  0  0  0  0  0  0
  -46.8082   57.5679   73.6581 H   0  0  0  0  0  0  0  0  0  0  0  0
  -47.9788   59.4303   72.6683 H   0  0  0  0  0  0  0  0  0  0  0  0
  -47.9504   57.9884   71.6205 H   0  0  0  0  0  0  0  0  0  0  0  0
  -47.6773   60.0181   70.3497 H   0  0  0  0  0  0  0  0  0  0  0  0
  -46.2570   58.9615   70.2833 H   0  0  0  0  0  0  0  0  0  0  0  0
  -46.5315   61.4123   71.9561 H   0  0  0  0  0  0  0  0  0  0  0  0
  -45.5970   61.2670   70.4868 H   0  0  0  0  0  0  0  0  0  0  0  0
  -45.1449   60.3504   71.9040 H   0  0  0  0  0  0  0  0  0  0  0  0
  1  4  1  0  0  0  0
  1 54  1  0  0  0  0
  1 55  1  0  0  0  0
  1 56  1  0  0  0  0
  2 29  2  0  0  0  0
  3  7  1  0  0  0  0
  3  9  2  1  0  0  0
  3 11  1  0  0  0  0
  3 13  1  0  0  0  0
  4  6  1  0  0  0  0
  4 57  1  0  0  0  0
  4 58  1  0  0  0  0
  5 29  1  0  0  0  0
  5 30  1  0  0  0  0
  6  8  1  0  0  0  0
  6 59  1  0  0  0  0
  6 60  1  0  0  0  0
  7 32  1  0  0  0  0
  8 10  1  0  0  0  0
  8 61  1  0  0  0  0
  8 62  1  0  0  0  0
 10 12  1  0  0  0  0
 10 63  1  0  0  0  0
 10 64  1  0  0  0  0
 11 65  1  0  0  0  0
 12 14  1  0  0  0  0
 12 66  1  0  0  0  0
 12 67  1  0  0  0  0
 13 33  1  0  0  0  0
 14 16  1  0  0  0  0
 14 68  1  0  0  0  0
 14 69  1  0  0  0  0
 15 35  1  0  0  0  0
 15 70  1  0  0  0  0
 16 18  1  0  0  0  0
 16 71  1  0  0  0  0
 16 72  1  0  0  0  0
 17 34  1  0  0  0  0
 17 73  1  0  0  0  0
 18 20  1  0  0  0  0
 18 74  1  0  0  0  0
 18 75  1  0  0  0  0
 19 31  1  0  0  0  0
 19 36  1  0  0  0  0
 20 22  1  0  0  0  0
 20 76  1  0  0  0  0
 20 77  1  0  0  0  0
 21 36  2  0  0  0  0
 22 23  1  0  0  0  0
 22 78  1  0  0  0  0
 22 79  1  0  0  0  0
 23 24  1  0  0  0  0
 23 80  1  0  0  0  0
 23 81  1  0  0  0  0
 24 25  1  0  0  0  0
 24 82  1  0  0  0  0
 24 83  1  0  0  0  0
 25 26  1  0  0  0  0
 25 84  1  0  0  0  0
 25 85  1  0  0  0  0
 26 27  1  0  0  0  0
 26 86  1  0  0  0  0
 26 87  1  0  0  0  0
 27 28  1  0  0  0  0
 27 88  1  0  0  0  0
 27 89  1  0  0  0  0
 28 29  1  0  0  0  0
 28 90  1  0  0  0  0
 28 91  1  0  0  0  0
 30 31  1  0  0  0  0
 30 92  1  0  0  0  0
 30 93  1  0  0  0  0
 31 32  1  0  0  0  0
 31 94  1  6  0  0  0
 32 95  1  0  0  0  0
 32 96  1  0  0  0  0
 33 34  1  0  0  0  0
 33 97  1  0  0  0  0
 33 98  1  0  0  0  0
 34 35  1  0  0  0  0
 34 99  1  1  0  0  0
 35100  1  0  0  0  0
 35101  1  0  0  0  0
 36 37  1  0  0  0  0
 37 38  1  0  0  0  0
 37102  1  0  0  0  0
 37103  1  0  0  0  0
 38 39  1  0  0  0  0
 38104  1  0  0  0  0
 38105  1  0  0  0  0
 39 40  1  0  0  0  0
 39106  1  0  0  0  0
 39107  1  0  0  0  0
 40 41  1  0  0  0  0
 40108  1  0  0  0  0
 40109  1  0  0  0  0
 41 42  1  0  0  0  0
 41110  1  0  0  0  0
 41111  1  0  0  0  0
 42 43  1  0  0  0  0
 42112  1  0  0  0  0
 42113  1  0  0  0  0
 43 44  1  0  0  0  0
 43114  1  0  0  0  0
 43115  1  0  0  0  0
 44 45  2  0  0  0  0
 44116  1  0  0  0  0
 45 46  1  0  0  0  0
 45117  1  0  0  0  0
 46 47  1  0  0  0  0
 46118  1  0  0  0  0
 46119  1  0  0  0  0
 47 48  1  0  0  0  0
 47120  1  0  0  0  0
 47121  1  0  0  0  0
 48 49  1  0  0  0  0
 48122  1  0  0  0  0
 48123  1  0  0  0  0
 49 50  1  0  0  0  0
 49124  1  0  0  0  0
 49125  1  0  0  0  0
 50 51  1  0  0  0  0
 50126  1  0  0  0  0
 50127  1  0  0  0  0
 51 52  1  0  0  0  0
 51128  1  0  0  0  0
 51129  1  0  0  0  0
 52 53  1  0  0  0  0
 52130  1  0  0  0  0
 52131  1  0  0  0  0
 53132  1  0  0  0  0
 53133  1  0  0  0  0
 53134  1  0  0  0  0
M  CHG  1   9  -1
M  END
$$$$
/media/chris/experiments/cd1a-new-docking/inputs/ligands/7sh4_ligand.pdb
 OpenBabel07012320073D

134133  0  0  1  0  0  0  0  0999 V2000
  -24.7330   65.8522   57.9511 C   0  0  0  0  0  0  0  0  0  0  0  0
  -34.7602   57.6107   62.7784 O   0  0  0  0  0  0  0  0  0  0  0  0
  -35.3336   62.9877   66.0786 P   0  0  1  0  0  0  0  0  0  0  0  0
  -25.5264   66.1090   56.6900 C   0  0  0  0  0  0  0  0  0  0  0  0
  -36.1511   59.3213   62.4064 O   0  0  0  0  0  0  0  0  0  0  0  0
  -26.9416   66.5712   56.9809 C   0  0  0  0  0  0  0  0  0  0  0  0
  -36.4293   62.0282   65.4148 O   0  0  0  0  0  0  0  0  0  0  0  0
  -27.7733   65.5967   57.7957 C   0  0  0  0  0  0  0  0  0  0  0  0
  -34.1810   62.1547   66.4842 O   0  5  0  0  0  0  0  0  0  0  0  0
  -29.1933   66.0786   58.0579 C   0  0  0  0  0  0  0  0  0  0  0  0
  -35.1004   64.1274   65.1592 O   0  0  0  0  0  0  0  0  0  0  0  0
  -30.0188   65.1145   58.8852 C   0  0  0  0  0  0  0  0  0  0  0  0
  -36.0173   63.5576   67.4017 O   0  0  0  0  0  0  0  0  0  0  0  0
  -30.1619   63.7448   58.2498 C   0  0  0  0  0  0  0  0  0  0  0  0
  -39.4322   64.1090   70.7359 O   0  0  0  0  0  0  0  0  0  0  0  0
  -28.8377   63.0212   58.0331 C   0  0  0  0  0  0  0  0  0  0  0  0
  -37.7042   65.2778   68.8186 O   0  0  0  0  0  0  0  0  0  0  0  0
  -28.9829   61.6611   57.3831 C   0  0  0  0  0  0  0  0  0  0  0  0
  -38.2720   59.8520   65.2990 O   0  0  0  0  0  0  0  0  0  0  0  0
  -29.8417   60.6896   58.1672 C   0  0  0  0  0  0  0  0  0  0  0  0
  -37.1354   58.2625   66.4133 O   0  0  0  0  0  0  0  0  0  0  0  0
  -31.2603   61.1813   58.3518 C   0  0  0  0  0  0  0  0  0  0  0  0
  -32.1226   60.2344   59.1438 C   0  0  0  0  0  0  0  0  0  0  0  0
  -32.2336   58.8686   58.5115 C   0  0  0  0  0  0  0  0  0  0  0  0
  -33.1143   57.9177   59.2964 C   0  0  0  0  0  0  0  0  0  0  0  0
  -32.6263   57.6882   60.7088 C   0  0  0  0  0  0  0  0  0  0  0  0
  -32.5709   58.9412   61.5572 C   0  0  0  0  0  0  0  0  0  0  0  0
  -33.9298   59.6002   61.7224 C   0  0  0  0  0  0  0  0  0  0  0  0
  -34.9553   58.7317   62.3924 C   0  0  0  0  0  0  0  0  0  0  0  0
  -37.0720   58.9080   63.4380 C   0  0  0  0  0  0  0  0  0  0  0  0
  -37.3490   60.1700   64.2050 C   0  0  2  0  0  0  0  0  0  0  0  0
  -36.0840   60.8130   64.7130 C   0  0  0  0  0  0  0  0  0  0  0  0
  -37.3602   63.1618   67.7479 C   0  0  0  0  0  0  0  0  0  0  0  0
  -37.7483   63.8630   69.0264 C   0  0  2  0  0  0  0  0  0  0  0  0
  -39.1158   63.4506   69.5161 C   0  0  0  0  0  0  0  0  0  0  0  0
  -37.7394   59.3002   66.4062 C   0  0  0  0  0  0  0  0  0  0  0  0
  -37.9745   60.1431   67.6212 C   0  0  0  0  0  0  0  0  0  0  0  0
  -39.2752   59.7632   68.3218 C   0  0  0  0  0  0  0  0  0  0  0  0
  -40.5105   59.9066   67.4481 C   0  0  0  0  0  0  0  0  0  0  0  0
  -40.7290   61.3231   66.9288 C   0  0  0  0  0  0  0  0  0  0  0  0
  -41.9694   61.4806   66.0691 C   0  0  0  0  0  0  0  0  0  0  0  0
  -42.1925   62.8950   65.5263 C   0  0  0  0  0  0  0  0  0  0  0  0
  -41.0777   63.4305   64.6253 C   0  0  0  0  0  0  0  0  0  0  0  0
  -39.7547   63.4751   65.3293 C   0  0  0  0  0  0  0  0  0  0  0  0
  -39.2649   64.4852   66.0217 C   0  0  0  0  0  0  0  0  0  0  0  0
  -39.9326   65.8042   66.2512 C   0  0  0  0  0  0  0  0  0  0  0  0
  -41.2611   65.6639   66.9888 C   0  0  0  0  0  0  0  0  0  0  0  0
  -41.9715   66.9857   67.2217 C   0  0  0  0  0  0  0  0  0  0  0  0
  -43.2857   66.8481   67.9708 C   0  0  0  0  0  0  0  0  0  0  0  0
  -44.0205   68.1585   68.1991 C   0  0  0  0  0  0  0  0  0  0  0  0
  -43.2144   69.1744   68.9940 C   0  0  0  0  0  0  0  0  0  0  0  0
  -43.9377   70.4824   69.2464 C   0  0  0  0  0  0  0  0  0  0  0  0
  -43.1056   71.4673   70.0191 C   0  0  0  0  0  0  0  0  0  0  0  0
  -23.7461   65.5299   57.6921 H   0  0  0  0  0  0  0  0  0  0  0  0
  -25.2166   65.0920   58.5281 H   0  0  0  0  0  0  0  0  0  0  0  0
  -24.6747   66.7531   58.5254 H   0  0  0  0  0  0  0  0  0  0  0  0
  -25.5706   65.2036   56.1215 H   0  0  0  0  0  0  0  0  0  0  0  0
  -25.0336   66.8888   56.1477 H   0  0  0  0  0  0  0  0  0  0  0  0
  -27.4379   66.7328   56.0469 H   0  0  0  0  0  0  0  0  0  0  0  0
  -26.8537   67.4595   57.5708 H   0  0  0  0  0  0  0  0  0  0  0  0
  -27.2888   65.4434   58.7373 H   0  0  0  0  0  0  0  0  0  0  0  0
  -27.8483   64.6947   57.2251 H   0  0  0  0  0  0  0  0  0  0  0  0
  -29.6816   66.2201   57.1164 H   0  0  0  0  0  0  0  0  0  0  0  0
  -29.1176   66.9870   58.6181 H   0  0  0  0  0  0  0  0  0  0  0  0
  -34.6839   63.8055   64.3444 H   0  0  0  0  0  0  0  0  0  0  0  0
  -30.9956   65.5310   59.0169 H   0  0  0  0  0  0  0  0  0  0  0  0
  -29.5078   64.9792   59.8155 H   0  0  0  0  0  0  0  0  0  0  0  0
  -30.6405   63.8627   57.3001 H   0  0  0  0  0  0  0  0  0  0  0  0
  -30.7343   63.1470   58.9279 H   0  0  0  0  0  0  0  0  0  0  0  0
  -40.3127   63.8318   71.0340 H   0  0  0  0  0  0  0  0  0  0  0  0
  -28.3646   62.8917   58.9840 H   0  0  0  0  0  0  0  0  0  0  0  0
  -28.2586   63.6249   57.3659 H   0  0  0  0  0  0  0  0  0  0  0  0
  -36.8221   65.5312   68.5045 H   0  0  0  0  0  0  0  0  0  0  0  0
  -28.0075   61.2350   57.2740 H   0  0  0  0  0  0  0  0  0  0  0  0
  -29.4725   61.8181   56.4447 H   0  0  0  0  0  0  0  0  0  0  0  0
  -29.4014   60.5449   59.1316 H   0  0  0  0  0  0  0  0  0  0  0  0
  -29.8862   59.7765   57.6112 H   0  0  0  0  0  0  0  0  0  0  0  0
  -31.7014   61.3148   57.3861 H   0  0  0  0  0  0  0  0  0  0  0  0
  -31.2081   62.0971   58.9025 H   0  0  0  0  0  0  0  0  0  0  0  0
  -33.1039   60.6535   59.2247 H   0  0  0  0  0  0  0  0  0  0  0  0
  -31.6625   60.1073   60.1014 H   0  0  0  0  0  0  0  0  0  0  0  0
  -31.2533   58.4453   58.4419 H   0  0  0  0  0  0  0  0  0  0  0  0
  -32.6840   58.9989   57.5497 H   0  0  0  0  0  0  0  0  0  0  0  0
  -33.1386   56.9770   58.7872 H   0  0  0  0  0  0  0  0  0  0  0  0
  -34.0854   58.3623   59.3622 H   0  0  0  0  0  0  0  0  0  0  0  0
  -31.6418   57.2720   60.6603 H   0  0  0  0  0  0  0  0  0  0  0  0
  -33.3311   57.0319   61.1751 H   0  0  0  0  0  0  0  0  0  0  0  0
  -31.9064   59.6395   61.0928 H   0  0  0  0  0  0  0  0  0  0  0  0
  -32.2301   58.6565   62.5307 H   0  0  0  0  0  0  0  0  0  0  0  0
  -34.2954   59.8643   60.7521 H   0  0  0  0  0  0  0  0  0  0  0  0
  -33.7852   60.4508   62.3553 H   0  0  0  0  0  0  0  0  0  0  0  0
  -36.6274   58.1683   64.0706 H   0  0  0  0  0  0  0  0  0  0  0  0
  -37.9610   58.4631   63.0423 H   0  0  0  0  0  0  0  0  0  0  0  0
  -37.7985   60.8886   63.5519 H   0  0  0  0  0  0  0  0  0  0  0  0
  -35.5824   60.1428   65.3795 H   0  0  0  0  0  0  0  0  0  0  0  0
  -35.4356   61.0386   63.8923 H   0  0  0  0  0  0  0  0  0  0  0  0
  -37.3993   62.1021   67.8906 H   0  0  0  0  0  0  0  0  0  0  0  0
  -38.0363   63.4282   66.9624 H   0  0  0  0  0  0  0  0  0  0  0  0
  -37.0482   63.5784   69.7839 H   0  0  0  0  0  0  0  0  0  0  0  0
  -39.8459   63.7090   68.7778 H   0  0  0  0  0  0  0  0  0  0  0  0
  -39.1166   62.3940   69.6850 H   0  0  0  0  0  0  0  0  0  0  0  0
  -38.0253   61.1706   67.3271 H   0  0  0  0  0  0  0  0  0  0  0  0
  -37.1662   59.9818   68.3034 H   0  0  0  0  0  0  0  0  0  0  0  0
  -39.3932   60.3940   69.1780 H   0  0  0  0  0  0  0  0  0  0  0  0
  -39.1970   58.7282   68.5814 H   0  0  0  0  0  0  0  0  0  0  0  0
  -41.3666   59.6211   68.0230 H   0  0  0  0  0  0  0  0  0  0  0  0
  -40.3659   59.2781   66.5943 H   0  0  0  0  0  0  0  0  0  0  0  0
  -39.8771   61.6026   66.3448 H   0  0  0  0  0  0  0  0  0  0  0  0
  -40.8646   61.9495   67.7856 H   0  0  0  0  0  0  0  0  0  0  0  0
  -42.8207   61.2110   66.6586 H   0  0  0  0  0  0  0  0  0  0  0  0
  -41.8312   60.8471   65.2179 H   0  0  0  0  0  0  0  0  0  0  0  0
  -42.2912   63.5579   66.3604 H   0  0  0  0  0  0  0  0  0  0  0  0
  -43.0693   62.8436   64.9152 H   0  0  0  0  0  0  0  0  0  0  0  0
  -41.3344   64.4204   64.3104 H   0  0  0  0  0  0  0  0  0  0  0  0
  -40.9836   62.7690   63.7895 H   0  0  0  0  0  0  0  0  0  0  0  0
  -39.1674   62.6290   65.2657 H   0  0  0  0  0  0  0  0  0  0  0  0
  -38.3331   64.3532   66.4451 H   0  0  0  0  0  0  0  0  0  0  0  0
  -40.1130   66.2674   65.3037 H   0  0  0  0  0  0  0  0  0  0  0  0
  -39.2826   66.3970   66.8603 H   0  0  0  0  0  0  0  0  0  0  0  0
  -41.0737   65.2089   67.9389 H   0  0  0  0  0  0  0  0  0  0  0  0
  -41.9009   65.0691   66.3709 H   0  0  0  0  0  0  0  0  0  0  0  0
  -42.1698   67.4349   66.2710 H   0  0  0  0  0  0  0  0  0  0  0  0
  -41.3261   67.5851   67.8293 H   0  0  0  0  0  0  0  0  0  0  0  0
  -43.0822   66.4083   68.9248 H   0  0  0  0  0  0  0  0  0  0  0  0
  -43.9230   66.2441   67.3593 H   0  0  0  0  0  0  0  0  0  0  0  0
  -44.9248   67.9515   68.7323 H   0  0  0  0  0  0  0  0  0  0  0  0
  -44.2067   68.5874   67.2367 H   0  0  0  0  0  0  0  0  0  0  0  0
  -42.3160   69.3869   68.4530 H   0  0  0  0  0  0  0  0  0  0  0  0
  -43.0280   68.7365   69.9523 H   0  0  0  0  0  0  0  0  0  0  0  0
  -44.8296   70.2784   69.8013 H   0  0  0  0  0  0  0  0  0  0  0  0
  -44.1546   70.9201   68.2944 H   0  0  0  0  0  0  0  0  0  0  0  0
  -42.8704   71.0592   70.9798 H   0  0  0  0  0  0  0  0  0  0  0  0
  -43.6540   72.3778   70.1429 H   0  0  0  0  0  0  0  0  0  0  0  0
  -42.2003   71.6661   69.4846 H   0  0  0  0  0  0  0  0  0  0  0  0
  1  4  1  0  0  0  0
  1 54  1  0  0  0  0
  1 55  1  0  0  0  0
  1 56  1  0  0  0  0
  2 29  2  0  0  0  0
  3  7  1  0  0  0  0
  3  9  2  1  0  0  0
  3 11  1  0  0  0  0
  3 13  1  0  0  0  0
  4  6  1  0  0  0  0
  4 57  1  0  0  0  0
  4 58  1  0  0  0  0
  5 29  1  0  0  0  0
  5 30  1  0  0  0  0
  6  8  1  0  0  0  0
  6 59  1  0  0  0  0
  6 60  1  0  0  0  0
  7 32  1  0  0  0  0
  8 10  1  0  0  0  0
  8 61  1  0  0  0  0
  8 62  1  0  0  0  0
 10 12  1  0  0  0  0
 10 63  1  0  0  0  0
 10 64  1  0  0  0  0
 11 65  1  0  0  0  0
 12 14  1  0  0  0  0
 12 66  1  0  0  0  0
 12 67  1  0  0  0  0
 13 33  1  0  0  0  0
 14 16  1  0  0  0  0
 14 68  1  0  0  0  0
 14 69  1  0  0  0  0
 15 35  1  0  0  0  0
 15 70  1  0  0  0  0
 16 18  1  0  0  0  0
 16 71  1  0  0  0  0
 16 72  1  0  0  0  0
 17 34  1  0  0  0  0
 17 73  1  0  0  0  0
 18 20  1  0  0  0  0
 18 74  1  0  0  0  0
 18 75  1  0  0  0  0
 19 31  1  0  0  0  0
 19 36  1  0  0  0  0
 20 22  1  0  0  0  0
 20 76  1  0  0  0  0
 20 77  1  0  0  0  0
 21 36  2  0  0  0  0
 22 23  1  0  0  0  0
 22 78  1  0  0  0  0
 22 79  1  0  0  0  0
 23 24  1  0  0  0  0
 23 80  1  0  0  0  0
 23 81  1  0  0  0  0
 24 25  1  0  0  0  0
 24 82  1  0  0  0  0
 24 83  1  0  0  0  0
 25 26  1  0  0  0  0
 25 84  1  0  0  0  0
 25 85  1  0  0  0  0
 26 27  1  0  0  0  0
 26 86  1  0  0  0  0
 26 87  1  0  0  0  0
 27 28  1  0  0  0  0
 27 88  1  0  0  0  0
 27 89  1  0  0  0  0
 28 29  1  0  0  0  0
 28 90  1  0  0  0  0
 28 91  1  0  0  0  0
 30 31  1  0  0  0  0
 30 92  1  0  0  0  0
 30 93  1  0  0  0  0
 31 32  1  0  0  0  0
 31 94  1  6  0  0  0
 32 95  1  0  0  0  0
 32 96  1  0  0  0  0
 33 34  1  0  0  0  0
 33 97  1  0  0  0  0
 33 98  1  0  0  0  0
 34 35  1  0  0  0  0
 34 99  1  1  0  0  0
 35100  1  0  0  0  0
 35101  1  0  0  0  0
 36 37  1  0  0  0  0
 37 38  1  0  0  0  0
 37102  1  0  0  0  0
 37103  1  0  0  0  0
 38 39  1  0  0  0  0
 38104  1  0  0  0  0
 38105  1  0  0  0  0
 39 40  1  0  0  0  0
 39106  1  0  0  0  0
 39107  1  0  0  0  0
 40 41  1  0  0  0  0
 40108  1  0  0  0  0
 40109  1  0  0  0  0
 41 42  1  0  0  0  0
 41110  1  0  0  0  0
 41111  1  0  0  0  0
 42 43  1  0  0  0  0
 42112  1  0  0  0  0
 42113  1  0  0  0  0
 43 44  1  0  0  0  0
 43114  1  0  0  0  0
 43115  1  0  0  0  0
 44 45  2  0  0  0  0
 44116  1  0  0  0  0
 45 46  1  0  0  0  0
 45117  1  0  0  0  0
 46 47  1  0  0  0  0
 46118  1  0  0  0  0
 46119  1  0  0  0  0
 47 48  1  0  0  0  0
 47120  1  0  0  0  0
 47121  1  0  0  0  0
 48 49  1  0  0  0  0
 48122  1  0  0  0  0
 48123  1  0  0  0  0
 49 50  1  0  0  0  0
 49124  1  0  0  0  0
 49125  1  0  0  0  0
 50 51  1  0  0  0  0
 50126  1  0  0  0  0
 50127  1  0  0  0  0
 51 52  1  0  0  0  0
 51128  1  0  0  0  0
 51129  1  0  0  0  0
 52 53  1  0  0  0  0
 52130  1  0  0  0  0
 52131  1  0  0  0  0
 53132  1  0  0  0  0
 53133  1  0  0  0  0
 53134  1  0  0  0  0
M  CHG  1   9  -1
M  END
$$$$
/media/chris/experiments/cd1a-new-docking/inputs/ligands/7sh4_ligand.pdb
 OpenBabel07012320073D

134133  0  0  1  0  0  0  0  0999 V2000
  -53.7444   55.7148   57.2931 C   0  0  0  0  0  0  0  0  0  0  0  0
  -37.9049   59.0864   60.8424 O   0  0  0  0  0  0  0  0  0  0  0  0
  -34.6970   59.9912   62.5780 P   0  0  1  0  0  0  0  0  0  0  0  0
  -52.7667   56.8664   57.3526 C   0  0  0  0  0  0  0  0  0  0  0  0
  -38.3690   58.5038   62.9506 O   0  0  0  0  0  0  0  0  0  0  0  0
  -51.6450   56.7257   56.3411 C   0  0  0  0  0  0  0  0  0  0  0  0
  -35.2304   61.1139   63.5864 O   0  0  0  0  0  0  0  0  0  0  0  0
  -50.6219   57.8473   56.3668 C   0  0  0  0  0  0  0  0  0  0  0  0
  -33.3791   60.4244   62.0659 O   0  5  0  0  0  0  0  0  0  0  0  0
  -49.8974   57.9807   57.6990 C   0  0  0  0  0  0  0  0  0  0  0  0
  -34.8009   58.6760   63.2548 O   0  0  0  0  0  0  0  0  0  0  0  0
  -48.8884   59.1103   57.7310 C   0  0  0  0  0  0  0  0  0  0  0  0
  -35.7239   59.9968   61.3581 O   0  0  0  0  0  0  0  0  0  0  0  0
  -48.1574   59.2280   59.0547 C   0  0  0  0  0  0  0  0  0  0  0  0
  -34.8473   59.6663   58.0614 O   0  0  0  0  0  0  0  0  0  0  0  0
  -47.1508   60.3717   59.1068 C   0  0  0  0  0  0  0  0  0  0  0  0
  -34.9093   57.1002   59.2925 O   0  0  0  0  0  0  0  0  0  0  0  0
  -46.4106   60.4759   60.4238 C   0  0  0  0  0  0  0  0  0  0  0  0
  -38.2720   59.8520   65.2990 O   0  0  0  0  0  0  0  0  0  0  0  0
  -45.4206   61.6214   60.4878 C   0  0  0  0  0  0  0  0  0  0  0  0
  -40.0171   59.9196   63.8811 O   0  0  0  0  0  0  0  0  0  0  0  0
  -44.3523   61.5305   59.4208 C   0  0  0  0  0  0  0  0  0  0  0  0
  -43.5376   60.2664   59.4968 C   0  0  0  0  0  0  0  0  0  0  0  0
  -42.4635   60.1925   58.4393 C   0  0  0  0  0  0  0  0  0  0  0  0
  -41.6523   58.9142   58.5014 C   0  0  0  0  0  0  0  0  0  0  0  0
  -40.9506   58.7222   59.8268 C   0  0  0  0  0  0  0  0  0  0  0  0
  -40.1183   57.4601   59.9108 C   0  0  0  0  0  0  0  0  0  0  0  0
  -39.4418   57.2903   61.2605 C   0  0  0  0  0  0  0  0  0  0  0  0
  -38.5165   58.4143   61.6284 C   0  0  0  0  0  0  0  0  0  0  0  0
  -37.0720   58.9080   63.4380 C   0  0  0  0  0  0  0  0  0  0  0  0
  -37.3490   60.1700   64.2050 C   0  0  2  0  0  0  0  0  0  0  0  0
  -36.0840   60.8130   64.7130 C   0  0  0  0  0  0  0  0  0  0  0  0
  -35.9781   58.7821   60.6234 C   0  0  0  0  0  0  0  0  0  0  0  0
  -34.6738   58.2973   60.0397 C   0  0  2  0  0  0  0  0  0  0  0  0
  -34.0140   59.3362   59.1651 C   0  0  0  0  0  0  0  0  0  0  0  0
  -39.5790   59.7587   64.9875 C   0  0  0  0  0  0  0  0  0  0  0  0
  -40.4161   59.4128   66.1798 C   0  0  0  0  0  0  0  0  0  0  0  0
  -41.8178   60.0040   66.0691 C   0  0  0  0  0  0  0  0  0  0  0  0
  -42.7108   59.7002   67.2608 C   0  0  0  0  0  0  0  0  0  0  0  0
  -44.1149   60.2803   67.1343 C   0  0  0  0  0  0  0  0  0  0  0  0
  -45.0093   59.9969   68.3268 C   0  0  0  0  0  0  0  0  0  0  0  0
  -46.4285   60.5592   68.2061 C   0  0  0  0  0  0  0  0  0  0  0  0
  -47.2440   60.0225   67.0278 C   0  0  0  0  0  0  0  0  0  0  0  0
  -47.4349   58.5373   67.1027 C   0  0  0  0  0  0  0  0  0  0  0  0
  -48.4636   57.8515   66.6434 C   0  0  0  0  0  0  0  0  0  0  0  0
  -49.6607   58.4165   65.9462 C   0  0  0  0  0  0  0  0  0  0  0  0
  -49.8300   57.8593   64.5358 C   0  0  0  0  0  0  0  0  0  0  0  0
  -48.6435   58.1295   63.6273 C   0  0  0  0  0  0  0  0  0  0  0  0
  -47.3443   57.5179   64.1226 C   0  0  0  0  0  0  0  0  0  0  0  0
  -47.3702   56.0040   64.2521 C   0  0  0  0  0  0  0  0  0  0  0  0
  -47.6388   55.2882   62.9371 C   0  0  0  0  0  0  0  0  0  0  0  0
  -48.9575   55.6565   62.2865 C   0  0  0  0  0  0  0  0  0  0  0  0
  -49.1969   54.9183   60.9991 C   0  0  0  0  0  0  0  0  0  0  0  0
  -54.5128   55.8612   58.0231 H   0  0  0  0  0  0  0  0  0  0  0  0
  -53.2295   54.7990   57.4960 H   0  0  0  0  0  0  0  0  0  0  0  0
  -54.1827   55.6690   56.3181 H   0  0  0  0  0  0  0  0  0  0  0  0
  -52.3416   56.9059   58.3337 H   0  0  0  0  0  0  0  0  0  0  0  0
  -53.3038   57.7625   57.1215 H   0  0  0  0  0  0  0  0  0  0  0  0
  -52.0798   56.6938   55.3639 H   0  0  0  0  0  0  0  0  0  0  0  0
  -51.1180   55.8305   56.5974 H   0  0  0  0  0  0  0  0  0  0  0  0
  -51.1251   58.7690   56.1616 H   0  0  0  0  0  0  0  0  0  0  0  0
  -49.8825   57.6144   55.6293 H   0  0  0  0  0  0  0  0  0  0  0  0
  -49.3842   57.0631   57.8981 H   0  0  0  0  0  0  0  0  0  0  0  0
  -50.6387   58.2015   58.4382 H   0  0  0  0  0  0  0  0  0  0  0  0
  -34.1840   58.6476   64.0029 H   0  0  0  0  0  0  0  0  0  0  0  0
  -49.4028   60.0299   57.5448 H   0  0  0  0  0  0  0  0  0  0  0  0
  -48.1537   58.8988   56.9824 H   0  0  0  0  0  0  0  0  0  0  0  0
  -47.6350   58.3114   59.2334 H   0  0  0  0  0  0  0  0  0  0  0  0
  -48.8973   59.4322   59.8002 H   0  0  0  0  0  0  0  0  0  0  0  0
  -34.4072   60.3338   57.5122 H   0  0  0  0  0  0  0  0  0  0  0  0
  -47.6747   61.2898   58.9408 H   0  0  0  0  0  0  0  0  0  0  0  0
  -46.4177   60.1758   58.3523 H   0  0  0  0  0  0  0  0  0  0  0  0
  -35.3330   56.4405   59.8637 H   0  0  0  0  0  0  0  0  0  0  0  0
  -45.8777   59.5618   60.5831 H   0  0  0  0  0  0  0  0  0  0  0  0
  -47.1468   60.6617   61.1777 H   0  0  0  0  0  0  0  0  0  0  0  0
  -44.9476   61.6116   61.4475 H   0  0  0  0  0  0  0  0  0  0  0  0
  -45.9647   62.5280   60.3237 H   0  0  0  0  0  0  0  0  0  0  0  0
  -43.6928   62.3661   59.5291 H   0  0  0  0  0  0  0  0  0  0  0  0
  -44.8506   61.5289   58.4739 H   0  0  0  0  0  0  0  0  0  0  0  0
  -44.1939   59.4300   59.3754 H   0  0  0  0  0  0  0  0  0  0  0  0
  -43.0501   60.2565   60.4493 H   0  0  0  0  0  0  0  0  0  0  0  0
  -41.8009   61.0225   58.5688 H   0  0  0  0  0  0  0  0  0  0  0  0
  -42.9521   60.2133   57.4876 H   0  0  0  0  0  0  0  0  0  0  0  0
  -40.9151   58.9404   57.7263 H   0  0  0  0  0  0  0  0  0  0  0  0
  -42.3328   58.0976   58.3789 H   0  0  0  0  0  0  0  0  0  0  0  0
  -41.6923   58.6870   60.5972 H   0  0  0  0  0  0  0  0  0  0  0  0
  -40.2750   59.5443   59.9392 H   0  0  0  0  0  0  0  0  0  0  0  0
  -39.3643   57.4966   59.1525 H   0  0  0  0  0  0  0  0  0  0  0  0
  -40.7783   56.6290   59.7742 H   0  0  0  0  0  0  0  0  0  0  0  0
  -38.8762   56.3823   61.2410 H   0  0  0  0  0  0  0  0  0  0  0  0
  -40.2191   57.2775   61.9957 H   0  0  0  0  0  0  0  0  0  0  0  0
  -36.4020   59.0962   62.6252 H   0  0  0  0  0  0  0  0  0  0  0  0
  -36.6048   58.1555   64.0382 H   0  0  0  0  0  0  0  0  0  0  0  0
  -37.7985   60.8886   63.5519 H   0  0  0  0  0  0  0  0  0  0  0  0
  -36.3238   61.7163   65.2340 H   0  0  0  0  0  0  0  0  0  0  0  0
  -35.5811   60.1472   65.3829 H   0  0  0  0  0  0  0  0  0  0  0  0
  -36.6768   58.9752   59.8363 H   0  0  0  0  0  0  0  0  0  0  0  0
  -36.3893   58.0382   61.2734 H   0  0  0  0  0  0  0  0  0  0  0  0
  -34.0028   58.1016   60.8499 H   0  0  0  0  0  0  0  0  0  0  0  0
  -33.8315   60.2177   59.7434 H   0  0  0  0  0  0  0  0  0  0  0  0
  -33.0926   58.9386   58.7938 H   0  0  0  0  0  0  0  0  0  0  0  0
  -39.9445   59.7985   67.0594 H   0  0  0  0  0  0  0  0  0  0  0  0
  -40.5040   58.3476   66.2308 H   0  0  0  0  0  0  0  0  0  0  0  0
  -42.2822   59.6074   65.1904 H   0  0  0  0  0  0  0  0  0  0  0  0
  -41.7040   61.0672   66.0296 H   0  0  0  0  0  0  0  0  0  0  0  0
  -42.2542   60.1078   68.1384 H   0  0  0  0  0  0  0  0  0  0  0  0
  -42.8141   58.6365   67.3127 H   0  0  0  0  0  0  0  0  0  0  0  0
  -44.5741   59.8629   66.2625 H   0  0  0  0  0  0  0  0  0  0  0  0
  -44.0066   61.3431   67.0740 H   0  0  0  0  0  0  0  0  0  0  0  0
  -44.5534   60.4246   69.1952 H   0  0  0  0  0  0  0  0  0  0  0  0
  -45.1082   58.9331   68.3861 H   0  0  0  0  0  0  0  0  0  0  0  0
  -46.3559   61.6216   68.1019 H   0  0  0  0  0  0  0  0  0  0  0  0
  -46.9462   60.2508   69.0904 H   0  0  0  0  0  0  0  0  0  0  0  0
  -46.7324   60.2590   66.1182 H   0  0  0  0  0  0  0  0  0  0  0  0
  -48.2104   60.4806   67.0605 H   0  0  0  0  0  0  0  0  0  0  0  0
  -46.6847   57.9963   67.5605 H   0  0  0  0  0  0  0  0  0  0  0  0
  -48.4406   56.8285   66.7776 H   0  0  0  0  0  0  0  0  0  0  0  0
  -49.5527   59.4793   65.8851 H   0  0  0  0  0  0  0  0  0  0  0  0
  -50.5268   58.1420   66.5113 H   0  0  0  0  0  0  0  0  0  0  0  0
  -50.6989   58.3049   64.0984 H   0  0  0  0  0  0  0  0  0  0  0  0
  -49.9187   56.7970   64.6274 H   0  0  0  0  0  0  0  0  0  0  0  0
  -48.5108   59.1885   63.5505 H   0  0  0  0  0  0  0  0  0  0  0  0
  -48.8627   57.6764   62.6830 H   0  0  0  0  0  0  0  0  0  0  0  0
  -47.1253   57.9320   65.0846 H   0  0  0  0  0  0  0  0  0  0  0  0
  -46.6001   57.7482   63.3891 H   0  0  0  0  0  0  0  0  0  0  0  0
  -48.1387   55.7363   64.9468 H   0  0  0  0  0  0  0  0  0  0  0  0
  -46.3997   55.6994   64.5842 H   0  0  0  0  0  0  0  0  0  0  0  0
  -47.6391   54.2344   63.1227 H   0  0  0  0  0  0  0  0  0  0  0  0
  -46.8674   55.5900   62.2599 H   0  0  0  0  0  0  0  0  0  0  0  0
  -48.9572   56.7071   62.0835 H   0  0  0  0  0  0  0  0  0  0  0  0
  -49.7390   55.3841   62.9647 H   0  0  0  0  0  0  0  0  0  0  0  0
  -48.4302   55.1692   60.2962 H   0  0  0  0  0  0  0  0  0  0  0  0
  -50.1505   55.1959   60.6009 H   0  0  0  0  0  0  0  0  0  0  0  0
  -49.1806   53.8645   61.1838 H   0  0  0  0  0  0  0  0  0  0  0  0
  1  4  1  0  0  0  0
  1 54  1  0  0  0  0
  1 55  1  0  0  0  0
  1 56  1  0  0  0  0
  2 29  2  0  0  0  0
  3  7  1  0  0  0  0
  3  9  2  6  0  0  0
  3 11  1  0  0  0  0
  3 13  1  0  0  0  0
  4  6  1  0  0  0  0
  4 57  1  0  0  0  0
  4 58  1  0  0  0  0
  5 29  1  0  0  0  0
  5 30  1  0  0  0  0
  6  8  1  0  0  0  0
  6 59  1  0  0  0  0
  6 60  1  0  0  0  0
  7 32  1  0  0  0  0
  8 10  1  0  0  0  0
  8 61  1  0  0  0  0
  8 62  1  0  0  0  0
 10 12  1  0  0  0  0
 10 63  1  0  0  0  0
 10 64  1  0  0  0  0
 11 65  1  0  0  0  0
 12 14  1  0  0  0  0
 12 66  1  0  0  0  0
 12 67  1  0  0  0  0
 13 33  1  0  0  0  0
 14 16  1  0  0  0  0
 14 68  1  0  0  0  0
 14 69  1  0  0  0  0
 15 35  1  0  0  0  0
 15 70  1  0  0  0  0
 16 18  1  0  0  0  0
 16 71  1  0  0  0  0
 16 72  1  0  0  0  0
 17 34  1  0  0  0  0
 17 73  1  0  0  0  0
 18 20  1  0  0  0  0
 18 74  1  0  0  0  0
 18 75  1  0  0  0  0
 19 31  1  0  0  0  0
 19 36  1  0  0  0  0
 20 22  1  0  0  0  0
 20 76  1  0  0  0  0
 20 77  1  0  0  0  0
 21 36  2  0  0  0  0
 22 23  1  0  0  0  0
 22 78  1  0  0  0  0
 22 79  1  0  0  0  0
 23 24  1  0  0  0  0
 23 80  1  0  0  0  0
 23 81  1  0  0  0  0
 24 25  1  0  0  0  0
 24 82  1  0  0  0  0
 24 83  1  0  0  0  0
 25 26  1  0  0  0  0
 25 84  1  0  0  0  0
 25 85  1  0  0  0  0
 26 27  1  0  0  0  0
 26 86  1  0  0  0  0
 26 87  1  0  0  0  0
 27 28  1  0  0  0  0
 27 88  1  0  0  0  0
 27 89  1  0  0  0  0
 28 29  1  0  0  0  0
 28 90  1  0  0  0  0
 28 91  1  0  0  0  0
 30 31  1  0  0  0  0
 30 92  1  0  0  0  0
 30 93  1  0  0  0  0
 31 32  1  0  0  0  0
 31 94  1  6  0  0  0
 32 95  1  0  0  0  0
 32 96  1  0  0  0  0
 33 34  1  0  0  0  0
 33 97  1  0  0  0  0
 33 98  1  0  0  0  0
 34 35  1  0  0  0  0
 34 99  1  1  0  0  0
 35100  1  0  0  0  0
 35101  1  0  0  0  0
 36 37  1  0  0  0  0
 37 38  1  0  0  0  0
 37102  1  0  0  0  0
 37103  1  0  0  0  0
 38 39  1  0  0  0  0
 38104  1  0  0  0  0
 38105  1  0  0  0  0
 39 40  1  0  0  0  0
 39106  1  0  0  0  0
 39107  1  0  0  0  0
 40 41  1  0  0  0  0
 40108  1  0  0  0  0
 40109  1  0  0  0  0
 41 42  1  0  0  0  0
 41110  1  0  0  0  0
 41111  1  0  0  0  0
 42 43  1  0  0  0  0
 42112  1  0  0  0  0
 42113  1  0  0  0  0
 43 44  1  0  0  0  0
 43114  1  0  0  0  0
 43115  1  0  0  0  0
 44 45  2  0  0  0  0
 44116  1  0  0  0  0
 45 46  1  0  0  0  0
 45117  1  0  0  0  0
 46 47  1  0  0  0  0
 46118  1  0  0  0  0
 46119  1  0  0  0  0
 47 48  1  0  0  0  0
 47120  1  0  0  0  0
 47121  1  0  0  0  0
 48 49  1  0  0  0  0
 48122  1  0  0  0  0
 48123  1  0  0  0  0
 49 50  1  0  0  0  0
 49124  1  0  0  0  0
 49125  1  0  0  0  0
 50 51  1  0  0  0  0
 50126  1  0  0  0  0
 50127  1  0  0  0  0
 51 52  1  0  0  0  0
 51128  1  0  0  0  0
 51129  1  0  0  0  0
 52 53  1  0  0  0  0
 52130  1  0  0  0  0
 52131  1  0  0  0  0
 53132  1  0  0  0  0
 53133  1  0  0  0  0
 53134  1  0  0  0  0
M  CHG  1   9  -1
M  END
$$$$
/media/chris/experiments/cd1a-new-docking/inputs/ligands/7sh4_ligand.pdb
 OpenBabel07012320073D

134133  0  0  1  0  0  0  0  0999 V2000
  -48.5416   54.5474   59.8083 C   0  0  0  0  0  0  0  0  0  0  0  0
  -38.3399   56.7492   64.5309 O   0  0  0  0  0  0  0  0  0  0  0  0
  -35.6684   62.1020   62.4058 P   0  0  1  0  0  0  0  0  0  0  0  0
  -47.4511   55.3378   60.4954 C   0  0  0  0  0  0  0  0  0  0  0  0
  -36.5027   58.0190   64.4222 O   0  0  0  0  0  0  0  0  0  0  0  0
  -46.6339   56.1641   59.5206 C   0  0  0  0  0  0  0  0  0  0  0  0
  -35.2304   61.1139   63.5864 O   0  0  0  0  0  0  0  0  0  0  0  0
  -45.5115   56.9671   60.1535 C   0  0  0  0  0  0  0  0  0  0  0  0
  -37.0301   62.5959   62.7036 O   0  5  0  0  0  0  0  0  0  0  0  0
  -44.7194   57.7993   59.1547 C   0  0  0  0  0  0  0  0  0  0  0  0
  -34.5810   63.0894   62.2031 O   0  0  0  0  0  0  0  0  0  0  0  0
  -44.0655   56.9775   58.0629 C   0  0  0  0  0  0  0  0  0  0  0  0
  -35.7515   61.1898   61.1005 O   0  0  0  0  0  0  0  0  0  0  0  0
  -43.0953   55.9379   58.5903 C   0  0  0  0  0  0  0  0  0  0  0  0
  -38.7054   61.5929   58.0541 O   0  0  0  0  0  0  0  0  0  0  0  0
  -41.9456   56.5204   59.4046 C   0  0  0  0  0  0  0  0  0  0  0  0
  -36.3983   62.9482   59.0264 O   0  0  0  0  0  0  0  0  0  0  0  0
  -40.9696   55.4814   59.9154 C   0  0  0  0  0  0  0  0  0  0  0  0
  -38.2720   59.8520   65.2990 O   0  0  0  0  0  0  0  0  0  0  0  0
  -40.2829   54.6878   58.8223 C   0  0  0  0  0  0  0  0  0  0  0  0
  -37.5278   61.1795   66.9555 O   0  0  0  0  0  0  0  0  0  0  0  0
  -39.3284   53.6483   59.3666 C   0  0  0  0  0  0  0  0  0  0  0  0
  -38.2299   54.2317   60.2155 C   0  0  0  0  0  0  0  0  0  0  0  0
  -37.2731   53.1891   60.7400 C   0  0  0  0  0  0  0  0  0  0  0  0
  -36.1758   53.7699   61.6088 C   0  0  0  0  0  0  0  0  0  0  0  0
  -36.7041   54.4724   62.8389 C   0  0  0  0  0  0  0  0  0  0  0  0
  -35.6293   55.0774   63.7172 C   0  0  0  0  0  0  0  0  0  0  0  0
  -36.1936   55.7599   64.9518 C   0  0  0  0  0  0  0  0  0  0  0  0
  -37.1513   56.8767   64.6514 C   0  0  0  0  0  0  0  0  0  0  0  0
  -37.0720   58.9080   63.4380 C   0  0  0  0  0  0  0  0  0  0  0  0
  -37.3490   60.1700   64.2050 C   0  0  2  0  0  0  0  0  0  0  0  0
  -36.0840   60.8130   64.7130 C   0  0  0  0  0  0  0  0  0  0  0  0
  -36.9973   61.0668   60.3844 C   0  0  0  0  0  0  0  0  0  0  0  0
  -37.4067   62.4371   59.9032 C   0  0  2  0  0  0  0  0  0  0  0  0
  -38.7461   62.4252   59.2062 C   0  0  0  0  0  0  0  0  0  0  0  0
  -37.8399   60.0926   66.5518 C   0  0  0  0  0  0  0  0  0  0  0  0
  -37.8132   58.8482   67.3841 C   0  0  0  0  0  0  0  0  0  0  0  0
  -37.3389   59.1363   68.8050 C   0  0  0  0  0  0  0  0  0  0  0  0
  -35.9454   59.7386   68.8794 C   0  0  0  0  0  0  0  0  0  0  0  0
  -35.4726   60.0075   70.3034 C   0  0  0  0  0  0  0  0  0  0  0  0
  -36.3638   60.9589   71.0801 C   0  0  0  0  0  0  0  0  0  0  0  0
  -37.8058   60.4762   71.2607 C   0  0  0  0  0  0  0  0  0  0  0  0
  -37.9611   59.1582   72.0225 C   0  0  0  0  0  0  0  0  0  0  0  0
  -37.2413   58.0284   71.3492 C   0  0  0  0  0  0  0  0  0  0  0  0
  -35.9950   57.6520   71.5601 C   0  0  0  0  0  0  0  0  0  0  0  0
  -35.0349   58.2771   72.5222 C   0  0  0  0  0  0  0  0  0  0  0  0
  -33.7877   58.8199   71.8306 C   0  0  0  0  0  0  0  0  0  0  0  0
  -33.0020   57.7636   71.0736 C   0  0  0  0  0  0  0  0  0  0  0  0
  -31.7513   58.3005   70.3991 C   0  0  0  0  0  0  0  0  0  0  0  0
  -32.0068   59.4034   69.3853 C   0  0  0  0  0  0  0  0  0  0  0  0
  -30.7413   59.9120   68.7119 C   0  0  0  0  0  0  0  0  0  0  0  0
  -30.9743   61.0246   67.7092 C   0  0  0  0  0  0  0  0  0  0  0  0
  -31.8941   60.6174   66.5921 C   0  0  0  0  0  0  0  0  0  0  0  0
  -49.0866   53.9840   60.5367 H   0  0  0  0  0  0  0  0  0  0  0  0
  -48.1035   53.8800   59.0959 H   0  0  0  0  0  0  0  0  0  0  0  0
  -49.2064   55.2188   59.3062 H   0  0  0  0  0  0  0  0  0  0  0  0
  -46.7984   54.6561   60.9995 H   0  0  0  0  0  0  0  0  0  0  0  0
  -47.9198   56.0119   61.1815 H   0  0  0  0  0  0  0  0  0  0  0  0
  -47.2941   56.8462   59.0269 H   0  0  0  0  0  0  0  0  0  0  0  0
  -46.1686   55.4698   58.8525 H   0  0  0  0  0  0  0  0  0  0  0  0
  -44.8399   56.2879   60.6358 H   0  0  0  0  0  0  0  0  0  0  0  0
  -45.9638   57.6499   60.8421 H   0  0  0  0  0  0  0  0  0  0  0  0
  -43.9543   58.3265   59.6854 H   0  0  0  0  0  0  0  0  0  0  0  0
  -45.4129   58.4596   58.6773 H   0  0  0  0  0  0  0  0  0  0  0  0
  -34.5103   63.6579   62.9859 H   0  0  0  0  0  0  0  0  0  0  0  0
  -43.5327   57.6398   57.4130 H   0  0  0  0  0  0  0  0  0  0  0  0
  -44.8457   56.4515   57.5534 H   0  0  0  0  0  0  0  0  0  0  0  0
  -42.6830   55.4087   57.7567 H   0  0  0  0  0  0  0  0  0  0  0  0
  -43.6499   55.3019   59.2482 H   0  0  0  0  0  0  0  0  0  0  0  0
  -39.5731   61.5981   57.6207 H   0  0  0  0  0  0  0  0  0  0  0  0
  -42.3568   57.0390   60.2454 H   0  0  0  0  0  0  0  0  0  0  0  0
  -41.3981   57.1675   58.7516 H   0  0  0  0  0  0  0  0  0  0  0  0
  -35.5431   62.9513   59.4842 H   0  0  0  0  0  0  0  0  0  0  0  0
  -41.5036   54.7979   60.5420 H   0  0  0  0  0  0  0  0  0  0  0  0
  -40.2024   56.0106   60.4411 H   0  0  0  0  0  0  0  0  0  0  0  0
  -39.7340   55.3646   58.2014 H   0  0  0  0  0  0  0  0  0  0  0  0
  -41.0420   54.1725   58.2718 H   0  0  0  0  0  0  0  0  0  0  0  0
  -38.8823   53.1325   58.5421 H   0  0  0  0  0  0  0  0  0  0  0  0
  -39.8977   52.9935   59.9928 H   0  0  0  0  0  0  0  0  0  0  0  0
  -38.6739   54.7365   61.0479 H   0  0  0  0  0  0  0  0  0  0  0  0
  -37.6678   54.8996   59.5968 H   0  0  0  0  0  0  0  0  0  0  0  0
  -36.8207   52.6929   59.9070 H   0  0  0  0  0  0  0  0  0  0  0  0
  -37.8389   52.5160   61.3497 H   0  0  0  0  0  0  0  0  0  0  0  0
  -35.6177   54.4739   61.0276 H   0  0  0  0  0  0  0  0  0  0  0  0
  -35.5677   52.9552   61.9425 H   0  0  0  0  0  0  0  0  0  0  0  0
  -37.2531   53.7622   63.4213 H   0  0  0  0  0  0  0  0  0  0  0  0
  -37.3113   55.2828   62.4934 H   0  0  0  0  0  0  0  0  0  0  0  0
  -35.0866   55.8004   63.1447 H   0  0  0  0  0  0  0  0  0  0  0  0
  -34.9981   54.2800   64.0498 H   0  0  0  0  0  0  0  0  0  0  0  0
  -35.3778   56.1597   65.5171 H   0  0  0  0  0  0  0  0  0  0  0  0
  -36.7448   55.0173   65.4900 H   0  0  0  0  0  0  0  0  0  0  0  0
  -37.9762   58.5012   63.0358 H   0  0  0  0  0  0  0  0  0  0  0  0
  -36.4225   59.0678   62.6029 H   0  0  0  0  0  0  0  0  0  0  0  0
  -37.7985   60.8886   63.5519 H   0  0  0  0  0  0  0  0  0  0  0  0
  -36.3238   61.7163   65.2340 H   0  0  0  0  0  0  0  0  0  0  0  0
  -35.5811   60.1472   65.3829 H   0  0  0  0  0  0  0  0  0  0  0  0
  -37.7502   60.6719   61.0340 H   0  0  0  0  0  0  0  0  0  0  0  0
  -36.8793   60.4047   59.5521 H   0  0  0  0  0  0  0  0  0  0  0  0
  -37.5078   63.0705   60.7597 H   0  0  0  0  0  0  0  0  0  0  0  0
  -39.4898   62.0553   59.8807 H   0  0  0  0  0  0  0  0  0  0  0  0
  -38.9844   63.4229   58.9017 H   0  0  0  0  0  0  0  0  0  0  0  0
  -37.1485   58.1418   66.9322 H   0  0  0  0  0  0  0  0  0  0  0  0
  -38.8077   58.4568   67.4350 H   0  0  0  0  0  0  0  0  0  0  0  0
  -37.3382   58.2171   69.3527 H   0  0  0  0  0  0  0  0  0  0  0  0
  -38.0119   59.8594   69.2162 H   0  0  0  0  0  0  0  0  0  0  0  0
  -35.9480   60.6645   68.3431 H   0  0  0  0  0  0  0  0  0  0  0  0
  -35.2715   59.0244   68.4544 H   0  0  0  0  0  0  0  0  0  0  0  0
  -34.4899   60.4285   70.2579 H   0  0  0  0  0  0  0  0  0  0  0  0
  -35.4958   59.0705   70.8196 H   0  0  0  0  0  0  0  0  0  0  0  0
  -36.3872   61.8938   70.5602 H   0  0  0  0  0  0  0  0  0  0  0  0
  -35.9440   61.0352   72.0613 H   0  0  0  0  0  0  0  0  0  0  0  0
  -38.2367   60.3499   70.2894 H   0  0  0  0  0  0  0  0  0  0  0  0
  -38.2962   61.2207   71.8524 H   0  0  0  0  0  0  0  0  0  0  0  0
  -39.0015   58.9162   72.0842 H   0  0  0  0  0  0  0  0  0  0  0  0
  -37.5338   59.2878   72.9948 H   0  0  0  0  0  0  0  0  0  0  0  0
  -37.7756   57.4903   70.6492 H   0  0  0  0  0  0  0  0  0  0  0  0
  -35.6494   56.8505   71.0093 H   0  0  0  0  0  0  0  0  0  0  0  0
  -34.7371   57.5398   73.2382 H   0  0  0  0  0  0  0  0  0  0  0  0
  -35.5324   59.1005   72.9906 H   0  0  0  0  0  0  0  0  0  0  0  0
  -33.1485   59.2486   72.5739 H   0  0  0  0  0  0  0  0  0  0  0  0
  -34.1171   59.5404   71.1113 H   0  0  0  0  0  0  0  0  0  0  0  0
  -33.6374   57.3436   70.3221 H   0  0  0  0  0  0  0  0  0  0  0  0
  -32.6831   57.0366   71.7911 H   0  0  0  0  0  0  0  0  0  0  0  0
  -31.2684   57.4890   69.8958 H   0  0  0  0  0  0  0  0  0  0  0  0
  -31.1493   58.7307   71.1720 H   0  0  0  0  0  0  0  0  0  0  0  0
  -32.4763   60.2232   69.8876 H   0  0  0  0  0  0  0  0  0  0  0  0
  -32.6273   58.9890   68.6184 H   0  0  0  0  0  0  0  0  0  0  0  0
  -30.2799   59.0921   68.2021 H   0  0  0  0  0  0  0  0  0  0  0  0
  -30.1244   60.3197   69.4853 H   0  0  0  0  0  0  0  0  0  0  0  0
  -30.0322   61.3099   67.2897 H   0  0  0  0  0  0  0  0  0  0  0  0
  -31.4385   61.8360   68.2298 H   0  0  0  0  0  0  0  0  0  0  0  0
  -31.4581   59.8049   66.0494 H   0  0  0  0  0  0  0  0  0  0  0  0
  -32.0438   61.4470   65.9331 H   0  0  0  0  0  0  0  0  0  0  0  0
  -32.8351   60.3106   66.9988 H   0  0  0  0  0  0  0  0  0  0  0  0
  1  4  1  0  0  0  0
  1 54  1  0  0  0  0
  1 55  1  0  0  0  0
  1 56  1  0  0  0  0
  2 29  2  0  0  0  0
  3  7  1  0  0  0  0
  3  9  2  1  0  0  0
  3 11  1  0  0  0  0
  3 13  1  0  0  0  0
  4  6  1  0  0  0  0
  4 57  1  0  0  0  0
  4 58  1  0  0  0  0
  5 29  1  0  0  0  0
  5 30  1  0  0  0  0
  6  8  1  0  0  0  0
  6 59  1  0  0  0  0
  6 60  1  0  0  0  0
  7 32  1  0  0  0  0
  8 10  1  0  0  0  0
  8 61  1  0  0  0  0
  8 62  1  0  0  0  0
 10 12  1  0  0  0  0
 10 63  1  0  0  0  0
 10 64  1  0  0  0  0
 11 65  1  0  0  0  0
 12 14  1  0  0  0  0
 12 66  1  0  0  0  0
 12 67  1  0  0  0  0
 13 33  1  0  0  0  0
 14 16  1  0  0  0  0
 14 68  1  0  0  0  0
 14 69  1  0  0  0  0
 15 35  1  0  0  0  0
 15 70  1  0  0  0  0
 16 18  1  0  0  0  0
 16 71  1  0  0  0  0
 16 72  1  0  0  0  0
 17 34  1  0  0  0  0
 17 73  1  0  0  0  0
 18 20  1  0  0  0  0
 18 74  1  0  0  0  0
 18 75  1  0  0  0  0
 19 31  1  0  0  0  0
 19 36  1  0  0  0  0
 20 22  1  0  0  0  0
 20 76  1  0  0  0  0
 20 77  1  0  0  0  0
 21 36  2  0  0  0  0
 22 23  1  0  0  0  0
 22 78  1  0  0  0  0
 22 79  1  0  0  0  0
 23 24  1  0  0  0  0
 23 80  1  0  0  0  0
 23 81  1  0  0  0  0
 24 25  1  0  0  0  0
 24 82  1  0  0  0  0
 24 83  1  0  0  0  0
 25 26  1  0  0  0  0
 25 84  1  0  0  0  0
 25 85  1  0  0  0  0
 26 27  1  0  0  0  0
 26 86  1  0  0  0  0
 26 87  1  0  0  0  0
 27 28  1  0  0  0  0
 27 88  1  0  0  0  0
 27 89  1  0  0  0  0
 28 29  1  0  0  0  0
 28 90  1  0  0  0  0
 28 91  1  0  0  0  0
 30 31  1  0  0  0  0
 30 92  1  0  0  0  0
 30 93  1  0  0  0  0
 31 32  1  0  0  0  0
 31 94  1  6  0  0  0
 32 95  1  0  0  0  0
 32 96  1  0  0  0  0
 33 34  1  0  0  0  0
 33 97  1  0  0  0  0
 33 98  1  0  0  0  0
 34 35  1  0  0  0  0
 34 99  1  1  0  0  0
 35100  1  0  0  0  0
 35101  1  0  0  0  0
 36 37  1  0  0  0  0
 37 38  1  0  0  0  0
 37102  1  0  0  0  0
 37103  1  0  0  0  0
 38 39  1  0  0  0  0
 38104  1  0  0  0  0
 38105  1  0  0  0  0
 39 40  1  0  0  0  0
 39106  1  0  0  0  0
 39107  1  0  0  0  0
 40 41  1  0  0  0  0
 40108  1  0  0  0  0
 40109  1  0  0  0  0
 41 42  1  0  0  0  0
 41110  1  0  0  0  0
 41111  1  0  0  0  0
 42 43  1  0  0  0  0
 42112  1  0  0  0  0
 42113  1  0  0  0  0
 43 44  1  0  0  0  0
 43114  1  0  0  0  0
 43115  1  0  0  0  0
 44 45  2  0  0  0  0
 44116  1  0  0  0  0
 45 46  1  0  0  0  0
 45117  1  0  0  0  0
 46 47  1  0  0  0  0
 46118  1  0  0  0  0
 46119  1  0  0  0  0
 47 48  1  0  0  0  0
 47120  1  0  0  0  0
 47121  1  0  0  0  0
 48 49  1  0  0  0  0
 48122  1  0  0  0  0
 48123  1  0  0  0  0
 49 50  1  0  0  0  0
 49124  1  0  0  0  0
 49125  1  0  0  0  0
 50 51  1  0  0  0  0
 50126  1  0  0  0  0
 50127  1  0  0  0  0
 51 52  1  0  0  0  0
 51128  1  0  0  0  0
 51129  1  0  0  0  0
 52 53  1  0  0  0  0
 52130  1  0  0  0  0
 52131  1  0  0  0  0
 53132  1  0  0  0  0
 53133  1  0  0  0  0
 53134  1  0  0  0  0
M  CHG  1   9  -1
M  END
$$$$
/media/chris/experiments/cd1a-new-docking/inputs/ligands/7sh4_ligand.pdb
 OpenBabel07012320073D

134133  0  0  1  0  0  0  0  0999 V2000
  -41.3036   60.3304   49.9882 C   0  0  0  0  0  0  0  0  0  0  0  0
  -37.6819   60.5663   61.3545 O   0  0  0  0  0  0  0  0  0  0  0  0
  -35.3336   62.9877   66.0786 P   0  0  1  0  0  0  0  0  0  0  0  0
  -42.0523   60.4755   51.2936 C   0  0  0  0  0  0  0  0  0  0  0  0
  -36.1511   59.3213   62.4064 O   0  0  0  0  0  0  0  0  0  0  0  0
  -41.4324   61.5194   52.2030 C   0  0  0  0  0  0  0  0  0  0  0  0
  -36.4293   62.0282   65.4148 O   0  0  0  0  0  0  0  0  0  0  0  0
  -39.9886   61.2501   52.5878 C   0  0  0  0  0  0  0  0  0  0  0  0
  -35.4468   64.3191   65.4452 O   0  5  0  0  0  0  0  0  0  0  0  0
  -39.0411   61.1939   51.3976 C   0  0  0  0  0  0  0  0  0  0  0  0
  -35.4637   62.8865   67.5523 O   0  0  0  0  0  0  0  0  0  0  0  0
  -38.9877   62.4825   50.6025 C   0  0  0  0  0  0  0  0  0  0  0  0
  -33.9236   62.3666   65.6676 O   0  0  0  0  0  0  0  0  0  0  0  0
  -38.5119   63.6721   51.4141 C   0  0  0  0  0  0  0  0  0  0  0  0
  -29.8571   61.2465   65.7006 O   0  0  0  0  0  0  0  0  0  0  0  0
  -37.1038   63.5147   51.9766 C   0  0  0  0  0  0  0  0  0  0  0  0
  -32.1767   60.8525   64.1219 O   0  0  0  0  0  0  0  0  0  0  0  0
  -36.6383   64.6971   52.8005 C   0  0  0  0  0  0  0  0  0  0  0  0
  -38.2720   59.8520   65.2990 O   0  0  0  0  0  0  0  0  0  0  0  0
  -37.4939   64.9764   54.0196 C   0  0  0  0  0  0  0  0  0  0  0  0
  -39.9885   59.4115   63.9134 O   0  0  0  0  0  0  0  0  0  0  0  0
  -37.5225   63.8176   54.9914 C   0  0  0  0  0  0  0  0  0  0  0  0
  -36.1649   63.4618   55.5373 C   0  0  0  0  0  0  0  0  0  0  0  0
  -36.2010   62.2941   56.4926 C   0  0  0  0  0  0  0  0  0  0  0  0
  -34.8394   61.9434   57.0576 C   0  0  0  0  0  0  0  0  0  0  0  0
  -34.8762   60.7626   58.0011 C   0  0  0  0  0  0  0  0  0  0  0  0
  -35.7768   60.9567   59.2027 C   0  0  0  0  0  0  0  0  0  0  0  0
  -35.7767   59.7589   60.1375 C   0  0  0  0  0  0  0  0  0  0  0  0
  -36.6737   59.9130   61.3318 C   0  0  0  0  0  0  0  0  0  0  0  0
  -37.0720   58.9080   63.4380 C   0  0  0  0  0  0  0  0  0  0  0  0
  -37.3490   60.1700   64.2050 C   0  0  2  0  0  0  0  0  0  0  0  0
  -36.0840   60.8130   64.7130 C   0  0  0  0  0  0  0  0  0  0  0  0
  -33.5913   61.0161   66.0492 C   0  0  0  0  0  0  0  0  0  0  0  0
  -32.2030   60.7072   65.5449 C   0  0  2  0  0  0  0  0  0  0  0  0
  -31.1523   61.5874   66.1781 C   0  0  0  0  0  0  0  0  0  0  0  0
  -39.5790   59.7587   64.9875 C   0  0  0  0  0  0  0  0  0  0  0  0
  -40.4582   60.1211   66.1441 C   0  0  0  0  0  0  0  0  0  0  0  0
  -39.7897   59.7987   67.4767 C   0  0  0  0  0  0  0  0  0  0  0  0
  -40.6428   60.1298   68.6902 C   0  0  0  0  0  0  0  0  0  0  0  0
  -41.0329   61.6008   68.7783 C   0  0  0  0  0  0  0  0  0  0  0  0
  -39.8507   62.5495   68.8471 C   0  0  0  0  0  0  0  0  0  0  0  0
  -40.2277   64.0299   68.9531 C   0  0  0  0  0  0  0  0  0  0  0  0
  -39.0463   65.0010   69.0064 C   0  0  0  0  0  0  0  0  0  0  0  0
  -38.1459   64.7316   70.1746 C   0  0  0  0  0  0  0  0  0  0  0  0
  -37.8567   65.5657   71.1545 C   0  0  0  0  0  0  0  0  0  0  0  0
  -38.3714   66.9623   71.3057 C   0  0  0  0  0  0  0  0  0  0  0  0
  -39.8919   67.0128   71.4239 C   0  0  0  0  0  0  0  0  0  0  0  0
  -40.4354   66.2578   72.6243 C   0  0  0  0  0  0  0  0  0  0  0  0
  -41.9501   66.2938   72.7327 C   0  0  0  0  0  0  0  0  0  0  0  0
  -42.5128   65.5577   73.9373 C   0  0  0  0  0  0  0  0  0  0  0  0
  -44.0315   65.5939   74.0140 C   0  0  0  0  0  0  0  0  0  0  0  0
  -44.6107   64.8790   75.2186 C   0  0  0  0  0  0  0  0  0  0  0  0
  -46.1129   64.9206   75.2527 C   0  0  0  0  0  0  0  0  0  0  0  0
  -41.7790   59.5851   49.3854 H   0  0  0  0  0  0  0  0  0  0  0  0
  -40.2938   60.0376   50.1869 H   0  0  0  0  0  0  0  0  0  0  0  0
  -41.3081   61.2657   49.4686 H   0  0  0  0  0  0  0  0  0  0  0  0
  -42.0472   59.5326   51.7994 H   0  0  0  0  0  0  0  0  0  0  0  0
  -43.0484   60.7924   51.0649 H   0  0  0  0  0  0  0  0  0  0  0  0
  -42.0131   61.5665   53.1005 H   0  0  0  0  0  0  0  0  0  0  0  0
  -41.4319   62.4371   51.6527 H   0  0  0  0  0  0  0  0  0  0  0  0
  -39.9444   60.3117   53.0999 H   0  0  0  0  0  0  0  0  0  0  0  0
  -39.6707   62.0652   53.2038 H   0  0  0  0  0  0  0  0  0  0  0  0
  -39.3624   60.4080   50.7465 H   0  0  0  0  0  0  0  0  0  0  0  0
  -38.0588   61.0247   51.7866 H   0  0  0  0  0  0  0  0  0  0  0  0
  -36.3159   63.2589   67.8279 H   0  0  0  0  0  0  0  0  0  0  0  0
  -39.9696   62.6944   50.2338 H   0  0  0  0  0  0  0  0  0  0  0  0
  -38.2814   62.3367   49.8121 H   0  0  0  0  0  0  0  0  0  0  0  0
  -39.1873   63.8133   52.2320 H   0  0  0  0  0  0  0  0  0  0  0  0
  -38.4884   64.5107   50.7501 H   0  0  0  0  0  0  0  0  0  0  0  0
  -29.1969   61.8217   66.1180 H   0  0  0  0  0  0  0  0  0  0  0  0
  -36.4263   63.3862   51.1585 H   0  0  0  0  0  0  0  0  0  0  0  0
  -37.1225   62.6679   52.6304 H   0  0  0  0  0  0  0  0  0  0  0  0
  -32.8550   60.2832   63.7261 H   0  0  0  0  0  0  0  0  0  0  0  0
  -36.6483   65.5662   52.1765 H   0  0  0  0  0  0  0  0  0  0  0  0
  -35.6592   64.4571   53.1590 H   0  0  0  0  0  0  0  0  0  0  0  0
  -38.4942   65.1772   53.6969 H   0  0  0  0  0  0  0  0  0  0  0  0
  -37.0664   65.8147   54.5290 H   0  0  0  0  0  0  0  0  0  0  0  0
  -37.9203   62.9618   54.4872 H   0  0  0  0  0  0  0  0  0  0  0  0
  -38.1285   64.1160   55.8212 H   0  0  0  0  0  0  0  0  0  0  0  0
  -35.7713   64.3125   56.0533 H   0  0  0  0  0  0  0  0  0  0  0  0
  -35.5509   63.1782   54.7082 H   0  0  0  0  0  0  0  0  0  0  0  0
  -36.5836   61.4408   55.9726 H   0  0  0  0  0  0  0  0  0  0  0  0
  -36.8241   62.5755   57.3157 H   0  0  0  0  0  0  0  0  0  0  0  0
  -34.4619   62.7922   57.5885 H   0  0  0  0  0  0  0  0  0  0  0  0
  -34.2113   61.6748   56.2340 H   0  0  0  0  0  0  0  0  0  0  0  0
  -33.8817   60.5827   58.3525 H   0  0  0  0  0  0  0  0  0  0  0  0
  -35.2754   59.9386   57.4473 H   0  0  0  0  0  0  0  0  0  0  0  0
  -36.7763   61.1213   58.8579 H   0  0  0  0  0  0  0  0  0  0  0  0
  -35.4038   61.7951   59.7530 H   0  0  0  0  0  0  0  0  0  0  0  0
  -34.7769   59.6047   60.4859 H   0  0  0  0  0  0  0  0  0  0  0  0
  -36.1512   58.9290   59.5754 H   0  0  0  0  0  0  0  0  0  0  0  0
  -36.6274   58.1683   64.0706 H   0  0  0  0  0  0  0  0  0  0  0  0
  -37.9610   58.4631   63.0423 H   0  0  0  0  0  0  0  0  0  0  0  0
  -37.7985   60.8886   63.5519 H   0  0  0  0  0  0  0  0  0  0  0  0
  -35.5824   60.1428   65.3795 H   0  0  0  0  0  0  0  0  0  0  0  0
  -35.4356   61.0386   63.8923 H   0  0  0  0  0  0  0  0  0  0  0  0
  -34.2933   60.3348   65.6157 H   0  0  0  0  0  0  0  0  0  0  0  0
  -33.6268   60.9154   67.1139 H   0  0  0  0  0  0  0  0  0  0  0  0
  -31.9698   59.6993   65.8182 H   0  0  0  0  0  0  0  0  0  0  0  0
  -31.3580   62.6093   65.9366 H   0  0  0  0  0  0  0  0  0  0  0  0
  -31.1768   61.4444   67.2382 H   0  0  0  0  0  0  0  0  0  0  0  0
  -41.3727   59.5704   66.0717 H   0  0  0  0  0  0  0  0  0  0  0  0
  -40.6439   61.1742   66.1077 H   0  0  0  0  0  0  0  0  0  0  0  0
  -38.8802   60.3587   67.5414 H   0  0  0  0  0  0  0  0  0  0  0  0
  -39.6236   58.7418   67.4930 H   0  0  0  0  0  0  0  0  0  0  0  0
  -40.0926   59.8723   69.5711 H   0  0  0  0  0  0  0  0  0  0  0  0
  -41.5497   59.5693   68.5988 H   0  0  0  0  0  0  0  0  0  0  0  0
  -41.6270   61.7393   69.6574 H   0  0  0  0  0  0  0  0  0  0  0  0
  -41.5655   61.8343   67.8802 H   0  0  0  0  0  0  0  0  0  0  0  0
  -39.2642   62.4169   67.9620 H   0  0  0  0  0  0  0  0  0  0  0  0
  -39.3184   62.3069   69.7430 H   0  0  0  0  0  0  0  0  0  0  0  0
  -40.8048   64.1615   69.8445 H   0  0  0  0  0  0  0  0  0  0  0  0
  -40.7646   64.2644   68.0578 H   0  0  0  0  0  0  0  0  0  0  0  0
  -39.4236   65.9992   69.0847 H   0  0  0  0  0  0  0  0  0  0  0  0
  -38.4730   64.8712   68.1123 H   0  0  0  0  0  0  0  0  0  0  0  0
  -37.7078   63.7982   70.2163 H   0  0  0  0  0  0  0  0  0  0  0  0
  -37.2146   65.2226   71.8859 H   0  0  0  0  0  0  0  0  0  0  0  0
  -38.0743   67.5324   70.4504 H   0  0  0  0  0  0  0  0  0  0  0  0
  -37.9608   67.3652   72.2079 H   0  0  0  0  0  0  0  0  0  0  0  0
  -40.3142   66.5875   70.5376 H   0  0  0  0  0  0  0  0  0  0  0  0
  -40.1621   68.0403   71.5518 H   0  0  0  0  0  0  0  0  0  0  0  0
  -40.0227   66.6912   73.5113 H   0  0  0  0  0  0  0  0  0  0  0  0
  -40.1545   65.2325   72.5025 H   0  0  0  0  0  0  0  0  0  0  0  0
  -42.3591   65.8504   71.8490 H   0  0  0  0  0  0  0  0  0  0  0  0
  -42.2227   67.3218   72.8493 H   0  0  0  0  0  0  0  0  0  0  0  0
  -42.1178   66.0076   74.8242 H   0  0  0  0  0  0  0  0  0  0  0  0
  -42.2263   64.5312   73.8415 H   0  0  0  0  0  0  0  0  0  0  0  0
  -44.4230   65.1340   73.1307 H   0  0  0  0  0  0  0  0  0  0  0  0
  -44.3100   66.6230   74.1043 H   0  0  0  0  0  0  0  0  0  0  0  0
  -44.2354   65.3447   76.1059 H   0  0  0  0  0  0  0  0  0  0  0  0
  -44.3178   63.8518   75.1558 H   0  0  0  0  0  0  0  0  0  0  0  0
  -46.4403   65.9373   75.3157 H   0  0  0  0  0  0  0  0  0  0  0  0
  -46.4655   64.3789   76.1055 H   0  0  0  0  0  0  0  0  0  0  0  0
  -46.5024   64.4751   74.3612 H   0  0  0  0  0  0  0  0  0  0  0  0
  1  4  1  0  0  0  0
  1 54  1  0  0  0  0
  1 55  1  0  0  0  0
  1 56  1  0  0  0  0
  2 29  2  0  0  0  0
  3  7  1  0  0  0  0
  3  9  2  6  0  0  0
  3 11  1  0  0  0  0
  3 13  1  0  0  0  0
  4  6  1  0  0  0  0
  4 57  1  0  0  0  0
  4 58  1  0  0  0  0
  5 29  1  0  0  0  0
  5 30  1  0  0  0  0
  6  8  1  0  0  0  0
  6 59  1  0  0  0  0
  6 60  1  0  0  0  0
  7 32  1  0  0  0  0
  8 10  1  0  0  0  0
  8 61  1  0  0  0  0
  8 62  1  0  0  0  0
 10 12  1  0  0  0  0
 10 63  1  0  0  0  0
 10 64  1  0  0  0  0
 11 65  1  0  0  0  0
 12 14  1  0  0  0  0
 12 66  1  0  0  0  0
 12 67  1  0  0  0  0
 13 33  1  0  0  0  0
 14 16  1  0  0  0  0
 14 68  1  0  0  0  0
 14 69  1  0  0  0  0
 15 35  1  0  0  0  0
 15 70  1  0  0  0  0
 16 18  1  0  0  0  0
 16 71  1  0  0  0  0
 16 72  1  0  0  0  0
 17 34  1  0  0  0  0
 17 73  1  0  0  0  0
 18 20  1  0  0  0  0
 18 74  1  0  0  0  0
 18 75  1  0  0  0  0
 19 31  1  0  0  0  0
 19 36  1  0  0  0  0
 20 22  1  0  0  0  0
 20 76  1  0  0  0  0
 20 77  1  0  0  0  0
 21 36  2  0  0  0  0
 22 23  1  0  0  0  0
 22 78  1  0  0  0  0
 22 79  1  0  0  0  0
 23 24  1  0  0  0  0
 23 80  1  0  0  0  0
 23 81  1  0  0  0  0
 24 25  1  0  0  0  0
 24 82  1  0  0  0  0
 24 83  1  0  0  0  0
 25 26  1  0  0  0  0
 25 84  1  0  0  0  0
 25 85  1  0  0  0  0
 26 27  1  0  0  0  0
 26 86  1  0  0  0  0
 26 87  1  0  0  0  0
 27 28  1  0  0  0  0
 27 88  1  0  0  0  0
 27 89  1  0  0  0  0
 28 29  1  0  0  0  0
 28 90  1  0  0  0  0
 28 91  1  0  0  0  0
 30 31  1  0  0  0  0
 30 92  1  0  0  0  0
 30 93  1  0  0  0  0
 31 32  1  0  0  0  0
 31 94  1  6  0  0  0
 32 95  1  0  0  0  0
 32 96  1  0  0  0  0
 33 34  1  0  0  0  0
 33 97  1  0  0  0  0
 33 98  1  0  0  0  0
 34 35  1  0  0  0  0
 34 99  1  1  0  0  0
 35100  1  0  0  0  0
 35101  1  0  0  0  0
 36 37  1  0  0  0  0
 37 38  1  0  0  0  0
 37102  1  0  0  0  0
 37103  1  0  0  0  0
 38 39  1  0  0  0  0
 38104  1  0  0  0  0
 38105  1  0  0  0  0
 39 40  1  0  0  0  0
 39106  1  0  0  0  0
 39107  1  0  0  0  0
 40 41  1  0  0  0  0
 40108  1  0  0  0  0
 40109  1  0  0  0  0
 41 42  1  0  0  0  0
 41110  1  0  0  0  0
 41111  1  0  0  0  0
 42 43  1  0  0  0  0
 42112  1  0  0  0  0
 42113  1  0  0  0  0
 43 44  1  0  0  0  0
 43114  1  0  0  0  0
 43115  1  0  0  0  0
 44 45  2  0  0  0  0
 44116  1  0  0  0  0
 45 46  1  0  0  0  0
 45117  1  0  0  0  0
 46 47  1  0  0  0  0
 46118  1  0  0  0  0
 46119  1  0  0  0  0
 47 48  1  0  0  0  0
 47120  1  0  0  0  0
 47121  1  0  0  0  0
 48 49  1  0  0  0  0
 48122  1  0  0  0  0
 48123  1  0  0  0  0
 49 50  1  0  0  0  0
 49124  1  0  0  0  0
 49125  1  0  0  0  0
 50 51  1  0  0  0  0
 50126  1  0  0  0  0
 50127  1  0  0  0  0
 51 52  1  0  0  0  0
 51128  1  0  0  0  0
 51129  1  0  0  0  0
 52 53  1  0  0  0  0
 52130  1  0  0  0  0
 52131  1  0  0  0  0
 53132  1  0  0  0  0
 53133  1  0  0  0  0
 53134  1  0  0  0  0
M  CHG  1   9  -1
M  END
$$$$
/media/chris/experiments/cd1a-new-docking/inputs/ligands/7sh4_ligand.pdb
 OpenBabel07012320073D

134133  0  0  1  0  0  0  0  0999 V2000
  -42.7812   47.6911   55.5265 C   0  0  0  0  0  0  0  0  0  0  0  0
  -34.6407   59.2376   64.6391 O   0  0  0  0  0  0  0  0  0  0  0  0
  -35.6684   62.1020   62.4058 P   0  0  1  0  0  0  0  0  0  0  0  0
  -41.4101   47.9581   56.1050 C   0  0  0  0  0  0  0  0  0  0  0  0
  -36.5027   58.0190   64.4222 O   0  0  0  0  0  0  0  0  0  0  0  0
  -41.4099   49.1204   57.0798 C   0  0  0  0  0  0  0  0  0  0  0  0
  -35.2304   61.1139   63.5864 O   0  0  0  0  0  0  0  0  0  0  0  0
  -40.0540   49.4455   57.6805 C   0  0  0  0  0  0  0  0  0  0  0  0
  -34.4498   62.7510   61.8761 O   0  5  0  0  0  0  0  0  0  0  0  0
  -40.0868   50.6043   58.6672 C   0  0  0  0  0  0  0  0  0  0  0  0
  -36.5373   61.3473   61.4709 O   0  0  0  0  0  0  0  0  0  0  0  0
  -38.7313   50.9405   59.2544 C   0  0  0  0  0  0  0  0  0  0  0  0
  -36.5593   63.2254   63.1038 O   0  0  0  0  0  0  0  0  0  0  0  0
  -38.7724   52.0844   60.2494 C   0  0  0  0  0  0  0  0  0  0  0  0
  -38.7311   65.5517   66.7029 O   0  0  0  0  0  0  0  0  0  0  0  0
  -39.6561   51.8183   61.4628 C   0  0  0  0  0  0  0  0  0  0  0  0
  -38.9226   64.2386   64.1994 O   0  0  0  0  0  0  0  0  0  0  0  0
  -39.7083   52.9690   62.4459 C   0  0  0  0  0  0  0  0  0  0  0  0
  -38.2720   59.8520   65.2990 O   0  0  0  0  0  0  0  0  0  0  0  0
  -38.3589   53.3572   63.0157 C   0  0  0  0  0  0  0  0  0  0  0  0
  -37.5387   57.8263   65.9462 O   0  0  0  0  0  0  0  0  0  0  0  0
  -37.3819   53.8046   61.9512 C   0  0  0  0  0  0  0  0  0  0  0  0
  -36.0300   54.1780   62.4995 C   0  0  0  0  0  0  0  0  0  0  0  0
  -35.0677   54.6390   61.4324 C   0  0  0  0  0  0  0  0  0  0  0  0
  -33.7006   54.9996   61.9776 C   0  0  0  0  0  0  0  0  0  0  0  0
  -33.7469   56.1054   63.0076 C   0  0  0  0  0  0  0  0  0  0  0  0
  -34.5695   55.7754   64.2352 C   0  0  0  0  0  0  0  0  0  0  0  0
  -34.6084   56.9138   65.2406 C   0  0  0  0  0  0  0  0  0  0  0  0
  -35.2107   58.1821   64.7081 C   0  0  0  0  0  0  0  0  0  0  0  0
  -37.0720   58.9080   63.4380 C   0  0  0  0  0  0  0  0  0  0  0  0
  -37.3490   60.1700   64.2050 C   0  0  2  0  0  0  0  0  0  0  0  0
  -36.0840   60.8130   64.7130 C   0  0  0  0  0  0  0  0  0  0  0  0
  -36.7996   63.1759   64.5250 C   0  0  0  0  0  0  0  0  0  0  0  0
  -37.6793   64.3432   64.8997 C   0  0  2  0  0  0  0  0  0  0  0  0
  -37.9244   64.4242   66.3873 C   0  0  0  0  0  0  0  0  0  0  0  0
  -37.8515   58.9548   66.2113 C   0  0  0  0  0  0  0  0  0  0  0  0
  -37.8033   59.5376   67.5897 C   0  0  0  0  0  0  0  0  0  0  0  0
  -36.7106   58.8884   68.4331 C   0  0  0  0  0  0  0  0  0  0  0  0
  -35.3104   59.0632   67.8684 C   0  0  0  0  0  0  0  0  0  0  0  0
  -34.8790   60.5204   67.7482 C   0  0  0  0  0  0  0  0  0  0  0  0
  -34.8459   61.2650   69.0699 C   0  0  0  0  0  0  0  0  0  0  0  0
  -34.4305   62.7349   68.9623 C   0  0  0  0  0  0  0  0  0  0  0  0
  -33.0434   62.9779   68.3635 C   0  0  0  0  0  0  0  0  0  0  0  0
  -31.9605   62.3121   69.1585 C   0  0  0  0  0  0  0  0  0  0  0  0
  -30.8182   61.8434   68.6948 C   0  0  0  0  0  0  0  0  0  0  0  0
  -30.3621   61.8802   67.2704 C   0  0  0  0  0  0  0  0  0  0  0  0
  -28.9935   61.2329   67.0803 C   0  0  0  0  0  0  0  0  0  0  0  0
  -28.9533   59.7661   67.4716 C   0  0  0  0  0  0  0  0  0  0  0  0
  -29.3247   59.5116   68.9224 C   0  0  0  0  0  0  0  0  0  0  0  0
  -28.4330   60.2136   69.9331 C   0  0  0  0  0  0  0  0  0  0  0  0
  -28.8147   59.9294   71.3778 C   0  0  0  0  0  0  0  0  0  0  0  0
  -30.2287   60.3388   71.7397 C   0  0  0  0  0  0  0  0  0  0  0  0
  -30.5651   60.0589   73.1778 C   0  0  0  0  0  0  0  0  0  0  0  0
  -42.7274   46.8655   54.8480 H   0  0  0  0  0  0  0  0  0  0  0  0
  -43.1235   48.5601   55.0044 H   0  0  0  0  0  0  0  0  0  0  0  0
  -43.4631   47.4587   56.3177 H   0  0  0  0  0  0  0  0  0  0  0  0
  -40.7368   48.1814   55.3039 H   0  0  0  0  0  0  0  0  0  0  0  0
  -41.1060   47.0831   56.6406 H   0  0  0  0  0  0  0  0  0  0  0  0
  -42.0807   48.8846   57.8794 H   0  0  0  0  0  0  0  0  0  0  0  0
  -41.7071   49.9830   56.5209 H   0  0  0  0  0  0  0  0  0  0  0  0
  -39.3833   49.6970   56.8856 H   0  0  0  0  0  0  0  0  0  0  0  0
  -39.7355   48.5801   58.2232 H   0  0  0  0  0  0  0  0  0  0  0  0
  -40.7481   50.3477   59.4683 H   0  0  0  0  0  0  0  0  0  0  0  0
  -40.4170   51.4668   58.1269 H   0  0  0  0  0  0  0  0  0  0  0  0
  -36.0169   60.6560   61.0325 H   0  0  0  0  0  0  0  0  0  0  0  0
  -38.0728   51.2098   58.4551 H   0  0  0  0  0  0  0  0  0  0  0  0
  -38.3926   50.0741   59.7832 H   0  0  0  0  0  0  0  0  0  0  0  0
  -39.1427   52.9539   59.7475 H   0  0  0  0  0  0  0  0  0  0  0  0
  -37.7750   52.2134   60.6147 H   0  0  0  0  0  0  0  0  0  0  0  0
  -38.8772   65.5866   67.6612 H   0  0  0  0  0  0  0  0  0  0  0  0
  -39.2787   50.9564   61.9723 H   0  0  0  0  0  0  0  0  0  0  0  0
  -40.6516   51.6754   61.0976 H   0  0  0  0  0  0  0  0  0  0  0  0
  -38.7532   64.1873   63.2457 H   0  0  0  0  0  0  0  0  0  0  0  0
  -40.3478   52.6894   63.2569 H   0  0  0  0  0  0  0  0  0  0  0  0
  -40.0719   53.8190   61.9072 H   0  0  0  0  0  0  0  0  0  0  0  0
  -37.9464   52.5114   63.5251 H   0  0  0  0  0  0  0  0  0  0  0  0
  -38.5138   54.1822   63.6792 H   0  0  0  0  0  0  0  0  0  0  0  0
  -37.7922   54.6568   61.4508 H   0  0  0  0  0  0  0  0  0  0  0  0
  -37.2365   52.9776   61.2880 H   0  0  0  0  0  0  0  0  0  0  0  0
  -35.6125   53.3228   62.9888 H   0  0  0  0  0  0  0  0  0  0  0  0
  -36.1734   54.9947   63.1757 H   0  0  0  0  0  0  0  0  0  0  0  0
  -35.4804   55.5012   60.9516 H   0  0  0  0  0  0  0  0  0  0  0  0
  -34.9339   53.8248   60.7512 H   0  0  0  0  0  0  0  0  0  0  0  0
  -33.0823   55.3173   61.1641 H   0  0  0  0  0  0  0  0  0  0  0  0
  -33.3095   54.1288   62.4610 H   0  0  0  0  0  0  0  0  0  0  0  0
  -34.1654   56.9758   62.5471 H   0  0  0  0  0  0  0  0  0  0  0  0
  -32.7418   56.2564   63.3422 H   0  0  0  0  0  0  0  0  0  0  0  0
  -34.1462   54.9147   64.7094 H   0  0  0  0  0  0  0  0  0  0  0  0
  -35.5737   55.5965   63.9118 H   0  0  0  0  0  0  0  0  0  0  0  0
  -33.6059   57.1224   65.5510 H   0  0  0  0  0  0  0  0  0  0  0  0
  -35.2324   56.5913   66.0478 H   0  0  0  0  0  0  0  0  0  0  0  0
  -37.9762   58.5012   63.0358 H   0  0  0  0  0  0  0  0  0  0  0  0
  -36.4225   59.0678   62.6029 H   0  0  0  0  0  0  0  0  0  0  0  0
  -37.7985   60.8886   63.5519 H   0  0  0  0  0  0  0  0  0  0  0  0
  -36.3238   61.7163   65.2340 H   0  0  0  0  0  0  0  0  0  0  0  0
  -35.5811   60.1472   65.3829 H   0  0  0  0  0  0  0  0  0  0  0  0
  -35.8701   63.2402   65.0512 H   0  0  0  0  0  0  0  0  0  0  0  0
  -37.2792   62.2554   64.7852 H   0  0  0  0  0  0  0  0  0  0  0  0
  -37.1712   65.2421   64.6191 H   0  0  0  0  0  0  0  0  0  0  0  0
  -38.4229   63.5342   66.7102 H   0  0  0  0  0  0  0  0  0  0  0  0
  -36.9831   64.5241   66.8862 H   0  0  0  0  0  0  0  0  0  0  0  0
  -38.7487   59.3824   68.0662 H   0  0  0  0  0  0  0  0  0  0  0  0
  -37.5863   60.5820   67.5053 H   0  0  0  0  0  0  0  0  0  0  0  0
  -36.9171   57.8408   68.5033 H   0  0  0  0  0  0  0  0  0  0  0  0
  -36.7239   59.3747   69.3861 H   0  0  0  0  0  0  0  0  0  0  0  0
  -35.2804   58.6201   66.8949 H   0  0  0  0  0  0  0  0  0  0  0  0
  -34.6353   58.5911   68.5512 H   0  0  0  0  0  0  0  0  0  0  0  0
  -35.5641   61.0215   67.0968 H   0  0  0  0  0  0  0  0  0  0  0  0
  -33.8782   60.5168   67.3697 H   0  0  0  0  0  0  0  0  0  0  0  0
  -34.1521   60.7683   69.7156 H   0  0  0  0  0  0  0  0  0  0  0  0
  -35.8473   61.2593   69.4467 H   0  0  0  0  0  0  0  0  0  0  0  0
  -34.4447   63.1558   69.9460 H   0  0  0  0  0  0  0  0  0  0  0  0
  -35.1277   63.1922   68.2917 H   0  0  0  0  0  0  0  0  0  0  0  0
  -32.8570   64.0313   68.3414 H   0  0  0  0  0  0  0  0  0  0  0  0
  -33.0325   62.5605   67.3784 H   0  0  0  0  0  0  0  0  0  0  0  0
  -32.1257   62.2103   70.1721 H   0  0  0  0  0  0  0  0  0  0  0  0
  -30.1787   61.4102   69.3792 H   0  0  0  0  0  0  0  0  0  0  0  0
  -30.3064   62.9008   66.9539 H   0  0  0  0  0  0  0  0  0  0  0  0
  -31.0683   61.3266   66.6876 H   0  0  0  0  0  0  0  0  0  0  0  0
  -28.2829   61.7623   67.6801 H   0  0  0  0  0  0  0  0  0  0  0  0
  -28.7648   61.2848   66.0363 H   0  0  0  0  0  0  0  0  0  0  0  0
  -27.9615   59.3996   67.3074 H   0  0  0  0  0  0  0  0  0  0  0  0
  -29.6796   59.2615   66.8694 H   0  0  0  0  0  0  0  0  0  0  0  0
  -29.2686   58.4583   69.1019 H   0  0  0  0  0  0  0  0  0  0  0  0
  -30.3095   59.9072   69.0585 H   0  0  0  0  0  0  0  0  0  0  0  0
  -28.4976   61.2687   69.7668 H   0  0  0  0  0  0  0  0  0  0  0  0
  -27.4403   59.8409   69.7902 H   0  0  0  0  0  0  0  0  0  0  0  0
  -28.1384   60.4609   72.0142 H   0  0  0  0  0  0  0  0  0  0  0  0
  -28.7594   58.8687   71.5072 H   0  0  0  0  0  0  0  0  0  0  0  0
  -30.9111   59.7985   71.1173 H   0  0  0  0  0  0  0  0  0  0  0  0
  -30.3070   61.3954   71.5898 H   0  0  0  0  0  0  0  0  0  0  0  0
  -30.4961   59.0071   73.3620 H   0  0  0  0  0  0  0  0  0  0  0  0
  -31.5610   60.3922   73.3825 H   0  0  0  0  0  0  0  0  0  0  0  0
  -29.8776   60.5780   73.8124 H   0  0  0  0  0  0  0  0  0  0  0  0
  1  4  1  0  0  0  0
  1 54  1  0  0  0  0
  1 55  1  0  0  0  0
  1 56  1  0  0  0  0
  2 29  2  0  0  0  0
  3  7  1  0  0  0  0
  3  9  2  6  0  0  0
  3 11  1  0  0  0  0
  3 13  1  0  0  0  0
  4  6  1  0  0  0  0
  4 57  1  0  0  0  0
  4 58  1  0  0  0  0
  5 29  1  0  0  0  0
  5 30  1  0  0  0  0
  6  8  1  0  0  0  0
  6 59  1  0  0  0  0
  6 60  1  0  0  0  0
  7 32  1  0  0  0  0
  8 10  1  0  0  0  0
  8 61  1  0  0  0  0
  8 62  1  0  0  0  0
 10 12  1  0  0  0  0
 10 63  1  0  0  0  0
 10 64  1  0  0  0  0
 11 65  1  0  0  0  0
 12 14  1  0  0  0  0
 12 66  1  0  0  0  0
 12 67  1  0  0  0  0
 13 33  1  0  0  0  0
 14 16  1  0  0  0  0
 14 68  1  0  0  0  0
 14 69  1  0  0  0  0
 15 35  1  0  0  0  0
 15 70  1  0  0  0  0
 16 18  1  0  0  0  0
 16 71  1  0  0  0  0
 16 72  1  0  0  0  0
 17 34  1  0  0  0  0
 17 73  1  0  0  0  0
 18 20  1  0  0  0  0
 18 74  1  0  0  0  0
 18 75  1  0  0  0  0
 19 31  1  0  0  0  0
 19 36  1  0  0  0  0
 20 22  1  0  0  0  0
 20 76  1  0  0  0  0
 20 77  1  0  0  0  0
 21 36  2  0  0  0  0
 22 23  1  0  0  0  0
 22 78  1  0  0  0  0
 22 79  1  0  0  0  0
 23 24  1  0  0  0  0
 23 80  1  0  0  0  0
 23 81  1  0  0  0  0
 24 25  1  0  0  0  0
 24 82  1  0  0  0  0
 24 83  1  0  0  0  0
 25 26  1  0  0  0  0
 25 84  1  0  0  0  0
 25 85  1  0  0  0  0
 26 27  1  0  0  0  0
 26 86  1  0  0  0  0
 26 87  1  0  0  0  0
 27 28  1  0  0  0  0
 27 88  1  0  0  0  0
 27 89  1  0  0  0  0
 28 29  1  0  0  0  0
 28 90  1  0  0  0  0
 28 91  1  0  0  0  0
 30 31  1  0  0  0  0
 30 92  1  0  0  0  0
 30 93  1  0  0  0  0
 31 32  1  0  0  0  0
 31 94  1  6  0  0  0
 32 95  1  0  0  0  0
 32 96  1  0  0  0  0
 33 34  1  0  0  0  0
 33 97  1  0  0  0  0
 33 98  1  0  0  0  0
 34 35  1  0  0  0  0
 34 99  1  6  0  0  0
 35100  1  0  0  0  0
 35101  1  0  0  0  0
 36 37  1  0  0  0  0
 37 38  1  0  0  0  0
 37102  1  0  0  0  0
 37103  1  0  0  0  0
 38 39  1  0  0  0  0
 38104  1  0  0  0  0
 38105  1  0  0  0  0
 39 40  1  0  0  0  0
 39106  1  0  0  0  0
 39107  1  0  0  0  0
 40 41  1  0  0  0  0
 40108  1  0  0  0  0
 40109  1  0  0  0  0
 41 42  1  0  0  0  0
 41110  1  0  0  0  0
 41111  1  0  0  0  0
 42 43  1  0  0  0  0
 42112  1  0  0  0  0
 42113  1  0  0  0  0
 43 44  1  0  0  0  0
 43114  1  0  0  0  0
 43115  1  0  0  0  0
 44 45  2  0  0  0  0
 44116  1  0  0  0  0
 45 46  1  0  0  0  0
 45117  1  0  0  0  0
 46 47  1  0  0  0  0
 46118  1  0  0  0  0
 46119  1  0  0  0  0
 47 48  1  0  0  0  0
 47120  1  0  0  0  0
 47121  1  0  0  0  0
 48 49  1  0  0  0  0
 48122  1  0  0  0  0
 48123  1  0  0  0  0
 49 50  1  0  0  0  0
 49124  1  0  0  0  0
 49125  1  0  0  0  0
 50 51  1  0  0  0  0
 50126  1  0  0  0  0
 50127  1  0  0  0  0
 51 52  1  0  0  0  0
 51128  1  0  0  0  0
 51129  1  0  0  0  0
 52 53  1  0  0  0  0
 52130  1  0  0  0  0
 52131  1  0  0  0  0
 53132  1  0  0  0  0
 53133  1  0  0  0  0
 53134  1  0  0  0  0
M  CHG  1   9  -1
M  END
$$$$
/media/chris/experiments/cd1a-new-docking/inputs/ligands/7sh4_ligand.pdb
 OpenBabel07012320073D

134133  0  0  1  0  0  0  0  0999 V2000
  -43.3918   48.0558   69.6323 C   0  0  0  0  0  0  0  0  0  0  0  0
  -34.4016   58.5984   63.9234 O   0  0  0  0  0  0  0  0  0  0  0  0
  -35.3336   62.9877   66.0786 P   0  0  1  0  0  0  0  0  0  0  0  0
  -43.7816   48.3357   68.1986 C   0  0  0  0  0  0  0  0  0  0  0  0
  -36.5027   58.0190   64.4222 O   0  0  0  0  0  0  0  0  0  0  0  0
  -43.1270   49.5918   67.6559 C   0  0  0  0  0  0  0  0  0  0  0  0
  -36.4293   62.0282   65.4148 O   0  0  0  0  0  0  0  0  0  0  0  0
  -43.4533   50.8607   68.4232 C   0  0  0  0  0  0  0  0  0  0  0  0
  -35.6139   63.0686   67.5284 O   0  5  0  0  0  0  0  0  0  0  0  0
  -42.7968   52.1073   67.8466 C   0  0  0  0  0  0  0  0  0  0  0  0
  -33.9933   62.5329   65.6366 O   0  0  0  0  0  0  0  0  0  0  0  0
  -41.2841   52.0340   67.8069 C   0  0  0  0  0  0  0  0  0  0  0  0
  -35.5952   64.4282   65.4468 O   0  0  0  0  0  0  0  0  0  0  0  0
  -40.7582   50.8956   66.9539 C   0  0  0  0  0  0  0  0  0  0  0  0
  -33.9227   68.1767   66.3551 O   0  0  0  0  0  0  0  0  0  0  0  0
  -39.2371   50.7996   66.9186 C   0  0  0  0  0  0  0  0  0  0  0  0
  -37.0574   66.7804   65.0711 O   0  0  0  0  0  0  0  0  0  0  0  0
  -38.5577   52.0433   66.3849 C   0  0  0  0  0  0  0  0  0  0  0  0
  -38.2720   59.8520   65.2990 O   0  0  0  0  0  0  0  0  0  0  0  0
  -38.8301   53.2935   67.1968 C   0  0  0  0  0  0  0  0  0  0  0  0
  -40.2187   60.6541   64.5071 O   0  0  0  0  0  0  0  0  0  0  0  0
  -38.3515   53.1772   68.6270 C   0  0  0  0  0  0  0  0  0  0  0  0
  -36.8678   52.9483   68.7439 C   0  0  0  0  0  0  0  0  0  0  0  0
  -36.0496   54.0681   68.1489 C   0  0  0  0  0  0  0  0  0  0  0  0
  -36.2959   55.4063   68.8158 C   0  0  0  0  0  0  0  0  0  0  0  0
  -35.4876   56.5292   68.2064 C   0  0  0  0  0  0  0  0  0  0  0  0
  -35.7768   56.7771   66.7409 C   0  0  0  0  0  0  0  0  0  0  0  0
  -34.9357   57.8997   66.1571 C   0  0  0  0  0  0  0  0  0  0  0  0
  -35.2107   58.1821   64.7081 C   0  0  0  0  0  0  0  0  0  0  0  0
  -37.0720   58.9080   63.4380 C   0  0  0  0  0  0  0  0  0  0  0  0
  -37.3490   60.1700   64.2050 C   0  0  2  0  0  0  0  0  0  0  0  0
  -36.0840   60.8130   64.7130 C   0  0  0  0  0  0  0  0  0  0  0  0
  -35.3006   65.6154   66.2108 C   0  0  0  0  0  0  0  0  0  0  0  0
  -35.6601   66.8198   65.3758 C   0  0  2  0  0  0  0  0  0  0  0  0
  -35.3128   68.1193   66.0618 C   0  0  0  0  0  0  0  0  0  0  0  0
  -39.5790   59.7587   64.9875 C   0  0  0  0  0  0  0  0  0  0  0  0
  -40.1328   58.4017   65.2941 C   0  0  0  0  0  0  0  0  0  0  0  0
  -41.6086   58.3030   64.9212 C   0  0  0  0  0  0  0  0  0  0  0  0
  -42.2321   56.9508   65.2257 C   0  0  0  0  0  0  0  0  0  0  0  0
  -41.5541   55.7906   64.5058 C   0  0  0  0  0  0  0  0  0  0  0  0
  -41.5701   55.9092   62.9932 C   0  0  0  0  0  0  0  0  0  0  0  0
  -40.8541   57.1464   62.4439 C   0  0  0  0  0  0  0  0  0  0  0  0
  -40.8760   57.2892   60.9205 C   0  0  0  0  0  0  0  0  0  0  0  0
  -42.2717   57.3950   60.3831 C   0  0  0  0  0  0  0  0  0  0  0  0
  -42.7761   58.4003   59.6944 C   0  0  0  0  0  0  0  0  0  0  0  0
  -42.0554   59.6514   59.3024 C   0  0  0  0  0  0  0  0  0  0  0  0
  -42.7156   60.9054   59.8681 C   0  0  0  0  0  0  0  0  0  0  0  0
  -42.7661   60.9359   61.3855 C   0  0  0  0  0  0  0  0  0  0  0  0
  -43.4384   62.1762   61.9486 C   0  0  0  0  0  0  0  0  0  0  0  0
  -43.4839   62.2336   63.4665 C   0  0  0  0  0  0  0  0  0  0  0  0
  -44.2218   61.0614   64.0950 C   0  0  0  0  0  0  0  0  0  0  0  0
  -44.2923   61.1100   65.6084 C   0  0  0  0  0  0  0  0  0  0  0  0
  -45.0103   62.3283   66.1183 C   0  0  0  0  0  0  0  0  0  0  0  0
  -43.8780   47.1631   69.9663 H   0  0  0  0  0  0  0  0  0  0  0  0
  -43.6902   48.8770   70.2499 H   0  0  0  0  0  0  0  0  0  0  0  0
  -42.3312   47.9291   69.6953 H   0  0  0  0  0  0  0  0  0  0  0  0
  -44.8440   48.4525   68.1479 H   0  0  0  0  0  0  0  0  0  0  0  0
  -43.4489   47.5112   67.6032 H   0  0  0  0  0  0  0  0  0  0  0  0
  -43.4469   49.7234   66.6433 H   0  0  0  0  0  0  0  0  0  0  0  0
  -42.0710   49.4461   67.7487 H   0  0  0  0  0  0  0  0  0  0  0  0
  -43.1213   50.7400   69.4333 H   0  0  0  0  0  0  0  0  0  0  0  0
  -44.5115   51.0041   68.3571 H   0  0  0  0  0  0  0  0  0  0  0  0
  -43.0790   52.9466   68.4473 H   0  0  0  0  0  0  0  0  0  0  0  0
  -43.1329   52.1990   66.8349 H   0  0  0  0  0  0  0  0  0  0  0  0
  -33.8103   61.6561   66.0090 H   0  0  0  0  0  0  0  0  0  0  0  0
  -40.9246   51.9031   68.8061 H   0  0  0  0  0  0  0  0  0  0  0  0
  -40.9353   52.9451   67.3675 H   0  0  0  0  0  0  0  0  0  0  0  0
  -41.1099   51.0347   65.9529 H   0  0  0  0  0  0  0  0  0  0  0  0
  -41.1158   49.9881   67.3935 H   0  0  0  0  0  0  0  0  0  0  0  0
  -33.7194   69.0171   66.7946 H   0  0  0  0  0  0  0  0  0  0  0  0
  -38.9657   49.9733   66.2953 H   0  0  0  0  0  0  0  0  0  0  0  0
  -38.9095   50.6755   67.9296 H   0  0  0  0  0  0  0  0  0  0  0  0
  -37.2689   65.9422   64.6311 H   0  0  0  0  0  0  0  0  0  0  0  0
  -38.9002   52.2106   65.3851 H   0  0  0  0  0  0  0  0  0  0  0  0
  -37.5038   51.8655   66.4362 H   0  0  0  0  0  0  0  0  0  0  0  0
  -39.8846   53.4748   67.2025 H   0  0  0  0  0  0  0  0  0  0  0  0
  -38.2924   54.0983   66.7407 H   0  0  0  0  0  0  0  0  0  0  0  0
  -38.8589   52.3561   69.0888 H   0  0  0  0  0  0  0  0  0  0  0  0
  -38.5666   54.1080   69.1089 H   0  0  0  0  0  0  0  0  0  0  0  0
  -36.6219   52.0392   68.2359 H   0  0  0  0  0  0  0  0  0  0  0  0
  -36.6327   52.8993   69.7866 H   0  0  0  0  0  0  0  0  0  0  0  0
  -36.2956   54.1549   67.1111 H   0  0  0  0  0  0  0  0  0  0  0  0
  -35.0188   53.8232   68.2982 H   0  0  0  0  0  0  0  0  0  0  0  0
  -36.0380   55.3236   69.8510 H   0  0  0  0  0  0  0  0  0  0  0  0
  -37.3297   55.6460   68.6789 H   0  0  0  0  0  0  0  0  0  0  0  0
  -34.4498   56.2890   68.3077 H   0  0  0  0  0  0  0  0  0  0  0  0
  -35.7591   57.4225   68.7290 H   0  0  0  0  0  0  0  0  0  0  0  0
  -36.8102   57.0335   66.6349 H   0  0  0  0  0  0  0  0  0  0  0  0
  -35.5336   55.8816   66.2083 H   0  0  0  0  0  0  0  0  0  0  0  0
  -33.9041   57.6338   66.2577 H   0  0  0  0  0  0  0  0  0  0  0  0
  -35.1884   58.7877   66.6978 H   0  0  0  0  0  0  0  0  0  0  0  0
  -37.9762   58.5012   63.0358 H   0  0  0  0  0  0  0  0  0  0  0  0
  -36.4225   59.0678   62.6029 H   0  0  0  0  0  0  0  0  0  0  0  0
  -37.7985   60.8886   63.5519 H   0  0  0  0  0  0  0  0  0  0  0  0
  -35.5824   60.1428   65.3795 H   0  0  0  0  0  0  0  0  0  0  0  0
  -35.4356   61.0386   63.8923 H   0  0  0  0  0  0  0  0  0  0  0  0
  -34.2584   65.6408   66.4519 H   0  0  0  0  0  0  0  0  0  0  0  0
  -35.8642   65.6169   67.1203 H   0  0  0  0  0  0  0  0  0  0  0  0
  -35.0838   66.7803   64.4751 H   0  0  0  0  0  0  0  0  0  0  0  0
  -35.5702   68.9354   65.4194 H   0  0  0  0  0  0  0  0  0  0  0  0
  -35.8608   68.1816   66.9787 H   0  0  0  0  0  0  0  0  0  0  0  0
  -40.0253   58.2109   66.3415 H   0  0  0  0  0  0  0  0  0  0  0  0
  -39.5919   57.6802   64.7181 H   0  0  0  0  0  0  0  0  0  0  0  0
  -41.7039   58.4892   63.8718 H   0  0  0  0  0  0  0  0  0  0  0  0
  -42.1279   59.0253   65.5157 H   0  0  0  0  0  0  0  0  0  0  0  0
  -43.2601   56.9780   64.9302 H   0  0  0  0  0  0  0  0  0  0  0  0
  -42.1151   56.7803   66.2755 H   0  0  0  0  0  0  0  0  0  0  0  0
  -42.0567   54.8860   64.7778 H   0  0  0  0  0  0  0  0  0  0  0  0
  -40.5271   55.7976   64.8062 H   0  0  0  0  0  0  0  0  0  0  0  0
  -42.5901   55.9436   62.6718 H   0  0  0  0  0  0  0  0  0  0  0  0
  -41.0401   55.0595   62.6165 H   0  0  0  0  0  0  0  0  0  0  0  0
  -39.8320   57.1039   62.7577 H   0  0  0  0  0  0  0  0  0  0  0  0
  -41.3847   57.9920   62.8291 H   0  0  0  0  0  0  0  0  0  0  0  0
  -40.4036   56.4326   60.4870 H   0  0  0  0  0  0  0  0  0  0  0  0
  -40.3565   58.1896   60.6669 H   0  0  0  0  0  0  0  0  0  0  0  0
  -42.9021   56.5999   60.5714 H   0  0  0  0  0  0  0  0  0  0  0  0
  -43.7610   58.3160   59.3980 H   0  0  0  0  0  0  0  0  0  0  0  0
  -42.0440   59.7210   58.2347 H   0  0  0  0  0  0  0  0  0  0  0  0
  -41.0646   59.5958   59.7025 H   0  0  0  0  0  0  0  0  0  0  0  0
  -43.7172   60.9574   59.4955 H   0  0  0  0  0  0  0  0  0  0  0  0
  -42.1212   61.7393   59.5577 H   0  0  0  0  0  0  0  0  0  0  0  0
  -41.7637   60.8963   61.7579 H   0  0  0  0  0  0  0  0  0  0  0  0
  -43.3501   60.0949   61.6963 H   0  0  0  0  0  0  0  0  0  0  0  0
  -44.4434   62.2069   61.5826 H   0  0  0  0  0  0  0  0  0  0  0  0
  -42.8515   63.0121   61.6296 H   0  0  0  0  0  0  0  0  0  0  0  0
  -43.9756   63.1385   63.7568 H   0  0  0  0  0  0  0  0  0  0  0  0
  -42.4727   62.1923   63.8140 H   0  0  0  0  0  0  0  0  0  0  0  0
  -43.7216   60.1591   63.8113 H   0  0  0  0  0  0  0  0  0  0  0  0
  -45.2299   61.1065   63.7390 H   0  0  0  0  0  0  0  0  0  0  0  0
  -43.2955   61.1126   65.9973 H   0  0  0  0  0  0  0  0  0  0  0  0
  -44.8424   60.2517   65.9335 H   0  0  0  0  0  0  0  0  0  0  0  0
  -44.4843   63.2075   65.8096 H   0  0  0  0  0  0  0  0  0  0  0  0
  -45.0539   62.2954   67.1869 H   0  0  0  0  0  0  0  0  0  0  0  0
  -46.0037   62.3491   65.7212 H   0  0  0  0  0  0  0  0  0  0  0  0
  1  4  1  0  0  0  0
  1 54  1  0  0  0  0
  1 55  1  0  0  0  0
  1 56  1  0  0  0  0
  2 29  2  0  0  0  0
  3  7  1  0  0  0  0
  3  9  2  1  0  0  0
  3 11  1  0  0  0  0
  3 13  1  0  0  0  0
  4  6  1  0  0  0  0
  4 57  1  0  0  0  0
  4 58  1  0  0  0  0
  5 29  1  0  0  0  0
  5 30  1  0  0  0  0
  6  8  1  0  0  0  0
  6 59  1  0  0  0  0
  6 60  1  0  0  0  0
  7 32  1  0  0  0  0
  8 10  1  0  0  0  0
  8 61  1  0  0  0  0
  8 62  1  0  0  0  0
 10 12  1  0  0  0  0
 10 63  1  0  0  0  0
 10 64  1  0  0  0  0
 11 65  1  0  0  0  0
 12 14  1  0  0  0  0
 12 66  1  0  0  0  0
 12 67  1  0  0  0  0
 13 33  1  0  0  0  0
 14 16  1  0  0  0  0
 14 68  1  0  0  0  0
 14 69  1  0  0  0  0
 15 35  1  0  0  0  0
 15 70  1  0  0  0  0
 16 18  1  0  0  0  0
 16 71  1  0  0  0  0
 16 72  1  0  0  0  0
 17 34  1  0  0  0  0
 17 73  1  0  0  0  0
 18 20  1  0  0  0  0
 18 74  1  0  0  0  0
 18 75  1  0  0  0  0
 19 31  1  0  0  0  0
 19 36  1  0  0  0  0
 20 22  1  0  0  0  0
 20 76  1  0  0  0  0
 20 77  1  0  0  0  0
 21 36  2  0  0  0  0
 22 23  1  0  0  0  0
 22 78  1  0  0  0  0
 22 79  1  0  0  0  0
 23 24  1  0  0  0  0
 23 80  1  0  0  0  0
 23 81  1  0  0  0  0
 24 25  1  0  0  0  0
 24 82  1  0  0  0  0
 24 83  1  0  0  0  0
 25 26  1  0  0  0  0
 25 84  1  0  0  0  0
 25 85  1  0  0  0  0
 26 27  1  0  0  0  0
 26 86  1  0  0  0  0
 26 87  1  0  0  0  0
 27 28  1  0  0  0  0
 27 88  1  0  0  0  0
 27 89  1  0  0  0  0
 28 29  1  0  0  0  0
 28 90  1  0  0  0  0
 28 91  1  0  0  0  0
 30 31  1  0  0  0  0
 30 92  1  0  0  0  0
 30 93  1  0  0  0  0
 31 32  1  0  0  0  0
 31 94  1  6  0  0  0
 32 95  1  0  0  0  0
 32 96  1  0  0  0  0
 33 34  1  0  0  0  0
 33 97  1  0  0  0  0
 33 98  1  0  0  0  0
 34 35  1  0  0  0  0
 34 99  1  6  0  0  0
 35100  1  0  0  0  0
 35101  1  0  0  0  0
 36 37  1  0  0  0  0
 37 38  1  0  0  0  0
 37102  1  0  0  0  0
 37103  1  0  0  0  0
 38 39  1  0  0  0  0
 38104  1  0  0  0  0
 38105  1  0  0  0  0
 39 40  1  0  0  0  0
 39106  1  0  0  0  0
 39107  1  0  0  0  0
 40 41  1  0  0  0  0
 40108  1  0  0  0  0
 40109  1  0  0  0  0
 41 42  1  0  0  0  0
 41110  1  0  0  0  0
 41111  1  0  0  0  0
 42 43  1  0  0  0  0
 42112  1  0  0  0  0
 42113  1  0  0  0  0
 43 44  1  0  0  0  0
 43114  1  0  0  0  0
 43115  1  0  0  0  0
 44 45  2  0  0  0  0
 44116  1  0  0  0  0
 45 46  1  0  0  0  0
 45117  1  0  0  0  0
 46 47  1  0  0  0  0
 46118  1  0  0  0  0
 46119  1  0  0  0  0
 47 48  1  0  0  0  0
 47120  1  0  0  0  0
 47121  1  0  0  0  0
 48 49  1  0  0  0  0
 48122  1  0  0  0  0
 48123  1  0  0  0  0
 49 50  1  0  0  0  0
 49124  1  0  0  0  0
 49125  1  0  0  0  0
 50 51  1  0  0  0  0
 50126  1  0  0  0  0
 50127  1  0  0  0  0
 51 52  1  0  0  0  0
 51128  1  0  0  0  0
 51129  1  0  0  0  0
 52 53  1  0  0  0  0
 52130  1  0  0  0  0
 52131  1  0  0  0  0
 53132  1  0  0  0  0
 53133  1  0  0  0  0
 53134  1  0  0  0  0
M  CHG  1   9  -1
M  END
$$$$
/media/chris/experiments/cd1a-new-docking/inputs/ligands/7sh4_ligand.pdb
 OpenBabel07012320073D

134133  0  0  1  0  0  0  0  0999 V2000
  -37.9385   54.1908   58.6148 C   0  0  0  0  0  0  0  0  0  0  0  0
  -38.2161   59.9780   61.2765 O   0  0  0  0  0  0  0  0  0  0  0  0
  -34.0491   60.2433   66.3537 P   0  0  1  0  0  0  0  0  0  0  0  0
  -39.2920   54.7510   58.9888 C   0  0  0  0  0  0  0  0  0  0  0  0
  -38.3690   58.5038   62.9506 O   0  0  0  0  0  0  0  0  0  0  0  0
  -39.6879   54.4056   60.4118 C   0  0  0  0  0  0  0  0  0  0  0  0
  -35.4212   59.8922   65.6081 O   0  0  0  0  0  0  0  0  0  0  0  0
  -39.7657   52.9182   60.7064 C   0  0  0  0  0  0  0  0  0  0  0  0
  -33.0291   60.5333   65.3231 O   0  5  0  0  0  0  0  0  0  0  0  0
  -38.4449   52.1877   60.5074 C   0  0  0  0  0  0  0  0  0  0  0  0
  -34.3335   61.2715   67.3836 O   0  0  0  0  0  0  0  0  0  0  0  0
  -37.3307   52.6935   61.4006 C   0  0  0  0  0  0  0  0  0  0  0  0
  -33.6214   58.9031   67.1045 O   0  0  0  0  0  0  0  0  0  0  0  0
  -37.6302   52.5457   62.8800 C   0  0  0  0  0  0  0  0  0  0  0  0
  -31.2590   59.6722   66.8157 O   0  0  0  0  0  0  0  0  0  0  0  0
  -36.5242   53.0665   63.7909 C   0  0  0  0  0  0  0  0  0  0  0  0
  -32.2508   59.9064   70.3350 O   0  0  0  0  0  0  0  0  0  0  0  0
  -36.8191   52.9020   65.2671 C   0  0  0  0  0  0  0  0  0  0  0  0
  -38.2720   59.8520   65.2990 O   0  0  0  0  0  0  0  0  0  0  0  0
  -38.0779   53.6081   65.7287 C   0  0  0  0  0  0  0  0  0  0  0  0
  -36.7587   60.5453   66.8121 O   0  0  0  0  0  0  0  0  0  0  0  0
  -38.0355   55.0997   65.4807 C   0  0  0  0  0  0  0  0  0  0  0  0
  -39.2728   55.8188   65.9493 C   0  0  0  0  0  0  0  0  0  0  0  0
  -40.5322   55.3209   65.2833 C   0  0  0  0  0  0  0  0  0  0  0  0
  -40.5063   55.4652   63.7751 C   0  0  0  0  0  0  0  0  0  0  0  0
  -40.3281   56.8959   63.3202 C   0  0  0  0  0  0  0  0  0  0  0  0
  -40.3156   57.0716   61.8163 C   0  0  0  0  0  0  0  0  0  0  0  0
  -40.1178   58.5178   61.3946 C   0  0  0  0  0  0  0  0  0  0  0  0
  -38.8234   59.1206   61.8593 C   0  0  0  0  0  0  0  0  0  0  0  0
  -37.0720   58.9080   63.4380 C   0  0  0  0  0  0  0  0  0  0  0  0
  -37.3490   60.1700   64.2050 C   0  0  2  0  0  0  0  0  0  0  0  0
  -36.0840   60.8130   64.7130 C   0  0  0  0  0  0  0  0  0  0  0  0
  -33.4738   58.8955   68.5392 C   0  0  0  0  0  0  0  0  0  0  0  0
  -32.4231   59.9114   68.9147 C   0  0  2  0  0  0  0  0  0  0  0  0
  -31.1029   59.6535   68.2288 C   0  0  0  0  0  0  0  0  0  0  0  0
  -37.8399   60.0926   66.5518 C   0  0  0  0  0  0  0  0  0  0  0  0
  -38.8741   59.7460   67.5776 C   0  0  0  0  0  0  0  0  0  0  0  0
  -38.3798   60.0389   68.9906 C   0  0  0  0  0  0  0  0  0  0  0  0
  -39.3822   59.6908   70.0788 C   0  0  0  0  0  0  0  0  0  0  0  0
  -38.8870   60.0024   71.4864 C   0  0  0  0  0  0  0  0  0  0  0  0
  -39.8739   59.6428   72.5814 C   0  0  0  0  0  0  0  0  0  0  0  0
  -41.2270   60.3522   72.4771 C   0  0  0  0  0  0  0  0  0  0  0  0
  -41.1662   61.8806   72.5184 C   0  0  0  0  0  0  0  0  0  0  0  0
  -42.5275   62.5027   72.4285 C   0  0  0  0  0  0  0  0  0  0  0  0
  -43.3952   62.3597   71.4457 C   0  0  0  0  0  0  0  0  0  0  0  0
  -43.2010   61.5403   70.2090 C   0  0  0  0  0  0  0  0  0  0  0  0
  -44.2488   60.4398   70.0691 C   0  0  0  0  0  0  0  0  0  0  0  0
  -44.0676   59.5796   68.8308 C   0  0  0  0  0  0  0  0  0  0  0  0
  -45.1204   58.4948   68.6825 C   0  0  0  0  0  0  0  0  0  0  0  0
  -44.9466   57.6120   67.4578 C   0  0  0  0  0  0  0  0  0  0  0  0
  -46.0223   56.5450   67.3227 C   0  0  0  0  0  0  0  0  0  0  0  0
  -47.4292   57.0935   67.1903 C   0  0  0  0  0  0  0  0  0  0  0  0
  -48.4666   56.0116   67.0761 C   0  0  0  0  0  0  0  0  0  0  0  0
  -37.7069   54.4614   57.6058 H   0  0  0  0  0  0  0  0  0  0  0  0
  -37.9571   53.1246   58.7029 H   0  0  0  0  0  0  0  0  0  0  0  0
  -37.1935   54.5900   59.2710 H   0  0  0  0  0  0  0  0  0  0  0  0
  -40.0260   54.3506   58.3211 H   0  0  0  0  0  0  0  0  0  0  0  0
  -39.2353   55.8170   58.9157 H   0  0  0  0  0  0  0  0  0  0  0  0
  -40.6496   54.8338   60.6034 H   0  0  0  0  0  0  0  0  0  0  0  0
  -38.9183   54.7984   61.0430 H   0  0  0  0  0  0  0  0  0  0  0  0
  -40.4947   52.4821   60.0558 H   0  0  0  0  0  0  0  0  0  0  0  0
  -40.0284   52.8159   61.7386 H   0  0  0  0  0  0  0  0  0  0  0  0
  -38.1422   52.3080   59.4882 H   0  0  0  0  0  0  0  0  0  0  0  0
  -38.6118   51.1626   60.7645 H   0  0  0  0  0  0  0  0  0  0  0  0
  -34.5967   62.0987   66.9506 H   0  0  0  0  0  0  0  0  0  0  0  0
  -37.1704   53.7300   61.1890 H   0  0  0  0  0  0  0  0  0  0  0  0
  -36.4652   52.0996   61.1928 H   0  0  0  0  0  0  0  0  0  0  0  0
  -37.7792   51.5074   63.0912 H   0  0  0  0  0  0  0  0  0  0  0  0
  -38.5001   53.1356   63.0805 H   0  0  0  0  0  0  0  0  0  0  0  0
  -30.4018   59.5049   66.3935 H   0  0  0  0  0  0  0  0  0  0  0  0
  -36.3835   54.1078   63.5891 H   0  0  0  0  0  0  0  0  0  0  0  0
  -35.6497   52.4865   63.5817 H   0  0  0  0  0  0  0  0  0  0  0  0
  -33.1043   60.0729   70.7648 H   0  0  0  0  0  0  0  0  0  0  0  0
  -35.9917   53.2940   65.8209 H   0  0  0  0  0  0  0  0  0  0  0  0
  -36.9717   51.8566   65.4369 H   0  0  0  0  0  0  0  0  0  0  0  0
  -38.1999   53.4390   66.7782 H   0  0  0  0  0  0  0  0  0  0  0  0
  -38.8963   53.2102   65.1657 H   0  0  0  0  0  0  0  0  0  0  0  0
  -37.9242   55.2658   64.4295 H   0  0  0  0  0  0  0  0  0  0  0  0
  -37.2118   55.4899   66.0410 H   0  0  0  0  0  0  0  0  0  0  0  0
  -39.1630   56.8614   65.7349 H   0  0  0  0  0  0  0  0  0  0  0  0
  -39.3716   55.6351   66.9987 H   0  0  0  0  0  0  0  0  0  0  0  0
  -41.3619   55.8790   65.6642 H   0  0  0  0  0  0  0  0  0  0  0  0
  -40.6162   54.2768   65.5016 H   0  0  0  0  0  0  0  0  0  0  0  0
  -41.4299   55.0950   63.3815 H   0  0  0  0  0  0  0  0  0  0  0  0
  -39.6664   54.9085   63.4152 H   0  0  0  0  0  0  0  0  0  0  0  0
  -39.3991   57.2583   63.7082 H   0  0  0  0  0  0  0  0  0  0  0  0
  -41.1717   57.4427   63.6868 H   0  0  0  0  0  0  0  0  0  0  0  0
  -41.2489   56.7255   61.4238 H   0  0  0  0  0  0  0  0  0  0  0  0
  -39.4906   56.5083   61.4328 H   0  0  0  0  0  0  0  0  0  0  0  0
  -40.9220   59.0979   61.7965 H   0  0  0  0  0  0  0  0  0  0  0  0
  -40.0958   58.5269   60.3249 H   0  0  0  0  0  0  0  0  0  0  0  0
  -36.4020   59.0962   62.6252 H   0  0  0  0  0  0  0  0  0  0  0  0
  -36.6048   58.1555   64.0382 H   0  0  0  0  0  0  0  0  0  0  0  0
  -37.7985   60.8886   63.5519 H   0  0  0  0  0  0  0  0  0  0  0  0
  -35.4401   61.0403   63.8892 H   0  0  0  0  0  0  0  0  0  0  0  0
  -36.3193   61.7188   65.2317 H   0  0  0  0  0  0  0  0  0  0  0  0
  -33.1696   57.9231   68.8661 H   0  0  0  0  0  0  0  0  0  0  0  0
  -34.4051   59.1397   69.0061 H   0  0  0  0  0  0  0  0  0  0  0  0
  -32.7613   60.8720   68.5865 H   0  0  0  0  0  0  0  0  0  0  0  0
  -30.4042   60.4116   68.5152 H   0  0  0  0  0  0  0  0  0  0  0  0
  -30.7451   58.6888   68.5227 H   0  0  0  0  0  0  0  0  0  0  0  0
  -39.1062   58.7044   67.4994 H   0  0  0  0  0  0  0  0  0  0  0  0
  -39.7422   60.3443   67.3948 H   0  0  0  0  0  0  0  0  0  0  0  0
  -38.1568   61.0831   69.0598 H   0  0  0  0  0  0  0  0  0  0  0  0
  -37.5198   59.4233   69.1525 H   0  0  0  0  0  0  0  0  0  0  0  0
  -39.5963   58.6441   70.0194 H   0  0  0  0  0  0  0  0  0  0  0  0
  -40.2502   60.2936   69.9107 H   0  0  0  0  0  0  0  0  0  0  0  0
  -38.6843   61.0513   71.5473 H   0  0  0  0  0  0  0  0  0  0  0  0
  -38.0145   59.4043   71.6472 H   0  0  0  0  0  0  0  0  0  0  0  0
  -39.4350   59.8976   73.5234 H   0  0  0  0  0  0  0  0  0  0  0  0
  -40.0714   58.5960   72.4803 H   0  0  0  0  0  0  0  0  0  0  0  0
  -41.8370   60.0231   73.2923 H   0  0  0  0  0  0  0  0  0  0  0  0
  -41.6230   60.0966   71.5166 H   0  0  0  0  0  0  0  0  0  0  0  0
  -40.5749   62.2246   71.6956 H   0  0  0  0  0  0  0  0  0  0  0  0
  -40.7343   62.1677   73.4542 H   0  0  0  0  0  0  0  0  0  0  0  0
  -42.8148   63.1043   73.2163 H   0  0  0  0  0  0  0  0  0  0  0  0
  -44.2930   62.8601   71.5384 H   0  0  0  0  0  0  0  0  0  0  0  0
  -42.2315   61.0891   70.2446 H   0  0  0  0  0  0  0  0  0  0  0  0
  -43.2994   62.1930   69.3668 H   0  0  0  0  0  0  0  0  0  0  0  0
  -45.2152   60.8969   70.0247 H   0  0  0  0  0  0  0  0  0  0  0  0
  -44.1410   59.7954   70.9165 H   0  0  0  0  0  0  0  0  0  0  0  0
  -43.1061   59.1128   68.8814 H   0  0  0  0  0  0  0  0  0  0  0  0
  -44.1630   60.2263   67.9837 H   0  0  0  0  0  0  0  0  0  0  0  0
  -46.0793   58.9656   68.6219 H   0  0  0  0  0  0  0  0  0  0  0  0
  -45.0214   57.8558   69.5350 H   0  0  0  0  0  0  0  0  0  0  0  0
  -43.9947   57.1274   67.5216 H   0  0  0  0  0  0  0  0  0  0  0  0
  -45.0218   58.2459   66.5990 H   0  0  0  0  0  0  0  0  0  0  0  0
  -45.9860   55.9204   68.1907 H   0  0  0  0  0  0  0  0  0  0  0  0
  -45.8142   56.0117   66.4187 H   0  0  0  0  0  0  0  0  0  0  0  0
  -47.4764   57.7065   66.3146 H   0  0  0  0  0  0  0  0  0  0  0  0
  -47.6424   57.6524   68.0775 H   0  0  0  0  0  0  0  0  0  0  0  0
  -48.2819   55.4318   66.1960 H   0  0  0  0  0  0  0  0  0  0  0  0
  -49.4386   56.4547   67.0137 H   0  0  0  0  0  0  0  0  0  0  0  0
  -48.4179   55.3784   67.9372 H   0  0  0  0  0  0  0  0  0  0  0  0
  1  4  1  0  0  0  0
  1 54  1  0  0  0  0
  1 55  1  0  0  0  0
  1 56  1  0  0  0  0
  2 29  2  0  0  0  0
  3  7  1  0  0  0  0
  3  9  2  6  0  0  0
  3 11  1  0  0  0  0
  3 13  1  0  0  0  0
  4  6  1  0  0  0  0
  4 57  1  0  0  0  0
  4 58  1  0  0  0  0
  5 29  1  0  0  0  0
  5 30  1  0  0  0  0
  6  8  1  0  0  0  0
  6 59  1  0  0  0  0
  6 60  1  0  0  0  0
  7 32  1  0  0  0  0
  8 10  1  0  0  0  0
  8 61  1  0  0  0  0
  8 62  1  0  0  0  0
 10 12  1  0  0  0  0
 10 63  1  0  0  0  0
 10 64  1  0  0  0  0
 11 65  1  0  0  0  0
 12 14  1  0  0  0  0
 12 66  1  0  0  0  0
 12 67  1  0  0  0  0
 13 33  1  0  0  0  0
 14 16  1  0  0  0  0
 14 68  1  0  0  0  0
 14 69  1  0  0  0  0
 15 35  1  0  0  0  0
 15 70  1  0  0  0  0
 16 18  1  0  0  0  0
 16 71  1  0  0  0  0
 16 72  1  0  0  0  0
 17 34  1  0  0  0  0
 17 73  1  0  0  0  0
 18 20  1  0  0  0  0
 18 74  1  0  0  0  0
 18 75  1  0  0  0  0
 19 31  1  0  0  0  0
 19 36  1  0  0  0  0
 20 22  1  0  0  0  0
 20 76  1  0  0  0  0
 20 77  1  0  0  0  0
 21 36  2  0  0  0  0
 22 23  1  0  0  0  0
 22 78  1  0  0  0  0
 22 79  1  0  0  0  0
 23 24  1  0  0  0  0
 23 80  1  0  0  0  0
 23 81  1  0  0  0  0
 24 25  1  0  0  0  0
 24 82  1  0  0  0  0
 24 83  1  0  0  0  0
 25 26  1  0  0  0  0
 25 84  1  0  0  0  0
 25 85  1  0  0  0  0
 26 27  1  0  0  0  0
 26 86  1  0  0  0  0
 26 87  1  0  0  0  0
 27 28  1  0  0  0  0
 27 88  1  0  0  0  0
 27 89  1  0  0  0  0
 28 29  1  0  0  0  0
 28 90  1  0  0  0  0
 28 91  1  0  0  0  0
 30 31  1  0  0  0  0
 30 92  1  0  0  0  0
 30 93  1  0  0  0  0
 31 32  1  0  0  0  0
 31 94  1  6  0  0  0
 32 95  1  0  0  0  0
 32 96  1  0  0  0  0
 33 34  1  0  0  0  0
 33 97  1  0  0  0  0
 33 98  1  0  0  0  0
 34 35  1  0  0  0  0
 34 99  1  6  0  0  0
 35100  1  0  0  0  0
 35101  1  0  0  0  0
 36 37  1  0  0  0  0
 37 38  1  0  0  0  0
 37102  1  0  0  0  0
 37103  1  0  0  0  0
 38 39  1  0  0  0  0
 38104  1  0  0  0  0
 38105  1  0  0  0  0
 39 40  1  0  0  0  0
 39106  1  0  0  0  0
 39107  1  0  0  0  0
 40 41  1  0  0  0  0
 40108  1  0  0  0  0
 40109  1  0  0  0  0
 41 42  1  0  0  0  0
 41110  1  0  0  0  0
 41111  1  0  0  0  0
 42 43  1  0  0  0  0
 42112  1  0  0  0  0
 42113  1  0  0  0  0
 43 44  1  0  0  0  0
 43114  1  0  0  0  0
 43115  1  0  0  0  0
 44 45  2  0  0  0  0
 44116  1  0  0  0  0
 45 46  1  0  0  0  0
 45117  1  0  0  0  0
 46 47  1  0  0  0  0
 46118  1  0  0  0  0
 46119  1  0  0  0  0
 47 48  1  0  0  0  0
 47120  1  0  0  0  0
 47121  1  0  0  0  0
 48 49  1  0  0  0  0
 48122  1  0  0  0  0
 48123  1  0  0  0  0
 49 50  1  0  0  0  0
 49124  1  0  0  0  0
 49125  1  0  0  0  0
 50 51  1  0  0  0  0
 50126  1  0  0  0  0
 50127  1  0  0  0  0
 51 52  1  0  0  0  0
 51128  1  0  0  0  0
 51129  1  0  0  0  0
 52 53  1  0  0  0  0
 52130  1  0  0  0  0
 52131  1  0  0  0  0
 53132  1  0  0  0  0
 53133  1  0  0  0  0
 53134  1  0  0  0  0
M  CHG  1   9  -1
M  END
$$$$
/media/chris/experiments/cd1a-new-docking/inputs/ligands/7sh4_ligand.pdb
 OpenBabel07012320073D

134133  0  0  1  0  0  0  0  0999 V2000
  -43.4096   64.8945   59.1384 C   0  0  0  0  0  0  0  0  0  0  0  0
  -38.9960   60.3074   61.7875 O   0  0  0  0  0  0  0  0  0  0  0  0
  -34.0491   60.2433   66.3537 P   0  0  1  0  0  0  0  0  0  0  0  0
  -42.9705   66.0389   60.0236 C   0  0  0  0  0  0  0  0  0  0  0  0
  -38.3690   58.5038   62.9506 O   0  0  0  0  0  0  0  0  0  0  0  0
  -41.8808   66.8790   59.3849 C   0  0  0  0  0  0  0  0  0  0  0  0
  -35.4212   59.8922   65.6081 O   0  0  0  0  0  0  0  0  0  0  0  0
  -41.3880   68.0348   60.2371 C   0  0  0  0  0  0  0  0  0  0  0  0
  -34.2885   60.1710   67.8112 O   0  5  0  0  0  0  0  0  0  0  0  0
  -40.3075   68.8702   59.5647 C   0  0  0  0  0  0  0  0  0  0  0  0
  -32.9766   59.4052   65.7656 O   0  0  0  0  0  0  0  0  0  0  0  0
  -39.0688   68.0790   59.1974 C   0  0  0  0  0  0  0  0  0  0  0  0
  -33.7429   61.7632   65.9812 O   0  0  0  0  0  0  0  0  0  0  0  0
  -38.3974   67.4231   60.3887 C   0  0  0  0  0  0  0  0  0  0  0  0
  -33.8527   62.9332   69.9689 O   0  0  0  0  0  0  0  0  0  0  0  0
  -37.1395   66.6375   60.0357 C   0  0  0  0  0  0  0  0  0  0  0  0
  -31.4256   63.0127   68.5090 O   0  0  0  0  0  0  0  0  0  0  0  0
  -37.3760   65.5164   59.0454 C   0  0  0  0  0  0  0  0  0  0  0  0
  -38.2720   59.8520   65.2990 O   0  0  0  0  0  0  0  0  0  0  0  0
  -36.1324   64.7210   58.7034 C   0  0  0  0  0  0  0  0  0  0  0  0
  -39.8075   59.1219   63.8261 O   0  0  0  0  0  0  0  0  0  0  0  0
  -36.4000   63.6211   57.7000 C   0  0  0  0  0  0  0  0  0  0  0  0
  -37.4232   62.6205   58.1686 C   0  0  0  0  0  0  0  0  0  0  0  0
  -37.6710   61.5180   57.1683 C   0  0  0  0  0  0  0  0  0  0  0  0
  -38.7124   60.5181   57.6286 C   0  0  0  0  0  0  0  0  0  0  0  0
  -38.3436   59.8337   58.9252 C   0  0  0  0  0  0  0  0  0  0  0  0
  -39.3594   58.8163   59.4003 C   0  0  0  0  0  0  0  0  0  0  0  0
  -38.9658   58.1609   60.7132 C   0  0  0  0  0  0  0  0  0  0  0  0
  -38.8234   59.1206   61.8593 C   0  0  0  0  0  0  0  0  0  0  0  0
  -37.0720   58.9080   63.4380 C   0  0  0  0  0  0  0  0  0  0  0  0
  -37.3490   60.1700   64.2050 C   0  0  2  0  0  0  0  0  0  0  0  0
  -36.0840   60.8130   64.7130 C   0  0  0  0  0  0  0  0  0  0  0  0
  -32.5522   62.4034   66.4837 C   0  0  0  0  0  0  0  0  0  0  0  0
  -32.5926   62.3666   67.9917 C   0  0  2  0  0  0  0  0  0  0  0  0
  -33.8373   63.0142   68.5494 C   0  0  0  0  0  0  0  0  0  0  0  0
  -39.4672   59.3329   64.9581 C   0  0  0  0  0  0  0  0  0  0  0  0
  -40.3113   59.0340   66.1581 C   0  0  0  0  0  0  0  0  0  0  0  0
  -39.4546   58.6893   67.3722 C   0  0  0  0  0  0  0  0  0  0  0  0
  -40.2578   58.3591   68.6196 C   0  0  0  0  0  0  0  0  0  0  0  0
  -39.3939   58.0325   69.8323 C   0  0  0  0  0  0  0  0  0  0  0  0
  -38.4649   56.8503   69.6277 C   0  0  0  0  0  0  0  0  0  0  0  0
  -37.6029   56.4999   70.8439 C   0  0  0  0  0  0  0  0  0  0  0  0
  -36.6798   57.6184   71.3322 C   0  0  0  0  0  0  0  0  0  0  0  0
  -35.7164   58.0592   70.2713 C   0  0  0  0  0  0  0  0  0  0  0  0
  -34.5100   57.5734   70.0521 C   0  0  0  0  0  0  0  0  0  0  0  0
  -33.8486   56.4731   70.8204 C   0  0  0  0  0  0  0  0  0  0  0  0
  -34.7333   55.9305   71.9390 C   0  0  0  0  0  0  0  0  0  0  0  0
  -34.0818   54.8229   72.7483 C   0  0  0  0  0  0  0  0  0  0  0  0
  -33.6878   53.6127   71.9193 C   0  0  0  0  0  0  0  0  0  0  0  0
  -34.8431   52.9432   71.1937 C   0  0  0  0  0  0  0  0  0  0  0  0
  -34.4256   51.7247   70.3847 C   0  0  0  0  0  0  0  0  0  0  0  0
  -35.5623   51.0531   69.6400 C   0  0  0  0  0  0  0  0  0  0  0  0
  -35.1163   49.8441   68.8659 C   0  0  0  0  0  0  0  0  0  0  0  0
  -44.1762   64.3352   59.6327 H   0  0  0  0  0  0  0  0  0  0  0  0
  -42.5741   64.2562   58.9399 H   0  0  0  0  0  0  0  0  0  0  0  0
  -43.7892   65.2823   58.2162 H   0  0  0  0  0  0  0  0  0  0  0  0
  -42.6006   65.6386   60.9444 H   0  0  0  0  0  0  0  0  0  0  0  0
  -43.8185   66.6714   60.1835 H   0  0  0  0  0  0  0  0  0  0  0  0
  -42.2626   67.2794   58.4691 H   0  0  0  0  0  0  0  0  0  0  0  0
  -41.0425   66.2292   59.2437 H   0  0  0  0  0  0  0  0  0  0  0  0
  -40.9911   67.6382   61.1482 H   0  0  0  0  0  0  0  0  0  0  0  0
  -42.2248   68.6802   60.4048 H   0  0  0  0  0  0  0  0  0  0  0  0
  -40.0215   69.6548   60.2337 H   0  0  0  0  0  0  0  0  0  0  0  0
  -40.7227   69.2440   58.6522 H   0  0  0  0  0  0  0  0  0  0  0  0
  -33.1408   58.4733   65.9789 H   0  0  0  0  0  0  0  0  0  0  0  0
  -38.3675   68.7422   58.7355 H   0  0  0  0  0  0  0  0  0  0  0  0
  -39.3788   67.2950   58.5385 H   0  0  0  0  0  0  0  0  0  0  0  0
  -39.0969   66.7525   60.8422 H   0  0  0  0  0  0  0  0  0  0  0  0
  -38.0961   68.2109   61.0471 H   0  0  0  0  0  0  0  0  0  0  0  0
  -34.6583   63.3537   70.3080 H   0  0  0  0  0  0  0  0  0  0  0  0
  -36.7424   66.2149   60.9349 H   0  0  0  0  0  0  0  0  0  0  0  0
  -36.4630   67.3248   59.5722 H   0  0  0  0  0  0  0  0  0  0  0  0
  -30.6329   62.5890   68.1444 H   0  0  0  0  0  0  0  0  0  0  0  0
  -37.7620   65.9415   58.1425 H   0  0  0  0  0  0  0  0  0  0  0  0
  -38.0605   64.8359   59.5072 H   0  0  0  0  0  0  0  0  0  0  0  0
  -35.7506   64.2802   59.6005 H   0  0  0  0  0  0  0  0  0  0  0  0
  -35.4284   65.3957   58.2629 H   0  0  0  0  0  0  0  0  0  0  0  0
  -35.4824   63.1045   57.5102 H   0  0  0  0  0  0  0  0  0  0  0  0
  -36.7922   64.0853   56.8193 H   0  0  0  0  0  0  0  0  0  0  0  0
  -38.3453   63.1334   58.3461 H   0  0  0  0  0  0  0  0  0  0  0  0
  -37.0415   62.1654   59.0586 H   0  0  0  0  0  0  0  0  0  0  0  0
  -36.7510   60.9980   57.0003 H   0  0  0  0  0  0  0  0  0  0  0  0
  -38.0424   61.9760   56.2755 H   0  0  0  0  0  0  0  0  0  0  0  0
  -38.8271   59.7721   56.8701 H   0  0  0  0  0  0  0  0  0  0  0  0
  -39.6203   61.0581   57.7992 H   0  0  0  0  0  0  0  0  0  0  0  0
  -38.2395   60.5827   59.6823 H   0  0  0  0  0  0  0  0  0  0  0  0
  -37.4347   59.2992   58.7434 H   0  0  0  0  0  0  0  0  0  0  0  0
  -39.4563   58.0557   58.6539 H   0  0  0  0  0  0  0  0  0  0  0  0
  -40.2822   59.3333   59.5619 H   0  0  0  0  0  0  0  0  0  0  0  0
  -38.0288   57.6637   60.5729 H   0  0  0  0  0  0  0  0  0  0  0  0
  -39.7564   57.4876   60.9711 H   0  0  0  0  0  0  0  0  0  0  0  0
  -36.4020   59.0962   62.6252 H   0  0  0  0  0  0  0  0  0  0  0  0
  -36.6048   58.1555   64.0382 H   0  0  0  0  0  0  0  0  0  0  0  0
  -37.7985   60.8886   63.5519 H   0  0  0  0  0  0  0  0  0  0  0  0
  -35.4401   61.0403   63.8892 H   0  0  0  0  0  0  0  0  0  0  0  0
  -36.3193   61.7188   65.2317 H   0  0  0  0  0  0  0  0  0  0  0  0
  -32.5185   63.4188   66.1477 H   0  0  0  0  0  0  0  0  0  0  0  0
  -31.6819   61.8938   66.1264 H   0  0  0  0  0  0  0  0  0  0  0  0
  -32.6130   61.3409   68.2958 H   0  0  0  0  0  0  0  0  0  0  0  0
  -33.8597   64.0429   68.2560 H   0  0  0  0  0  0  0  0  0  0  0  0
  -34.6939   62.5002   68.1661 H   0  0  0  0  0  0  0  0  0  0  0  0
  -40.9498   58.2046   65.9363 H   0  0  0  0  0  0  0  0  0  0  0  0
  -40.8865   59.9061   66.3897 H   0  0  0  0  0  0  0  0  0  0  0  0
  -38.8250   59.5269   67.5889 H   0  0  0  0  0  0  0  0  0  0  0  0
  -38.8979   57.8110   67.1200 H   0  0  0  0  0  0  0  0  0  0  0  0
  -40.8782   57.5133   68.4084 H   0  0  0  0  0  0  0  0  0  0  0  0
  -40.8279   59.2305   68.8657 H   0  0  0  0  0  0  0  0  0  0  0  0
  -40.0400   57.8140   70.6567 H   0  0  0  0  0  0  0  0  0  0  0  0
  -38.7739   58.8864   70.0099 H   0  0  0  0  0  0  0  0  0  0  0  0
  -37.8127   57.0758   68.8100 H   0  0  0  0  0  0  0  0  0  0  0  0
  -39.0898   56.0014   69.4438 H   0  0  0  0  0  0  0  0  0  0  0  0
  -36.9952   55.6575   70.5872 H   0  0  0  0  0  0  0  0  0  0  0  0
  -38.2849   56.3067   71.6454 H   0  0  0  0  0  0  0  0  0  0  0  0
  -36.1252   57.2641   72.1759 H   0  0  0  0  0  0  0  0  0  0  0  0
  -37.2895   58.4582   71.5927 H   0  0  0  0  0  0  0  0  0  0  0  0
  -36.0292   58.8207   69.6490 H   0  0  0  0  0  0  0  0  0  0  0  0
  -33.9715   57.9916   69.2775 H   0  0  0  0  0  0  0  0  0  0  0  0
  -32.9439   56.8499   71.2500 H   0  0  0  0  0  0  0  0  0  0  0  0
  -33.6551   55.6707   70.1395 H   0  0  0  0  0  0  0  0  0  0  0  0
  -35.6320   55.5468   71.5031 H   0  0  0  0  0  0  0  0  0  0  0  0
  -34.9202   56.7414   72.6116 H   0  0  0  0  0  0  0  0  0  0  0  0
  -34.7709   54.5057   73.5030 H   0  0  0  0  0  0  0  0  0  0  0  0
  -33.1810   55.2258   73.1619 H   0  0  0  0  0  0  0  0  0  0  0  0
  -33.2401   52.8921   72.5714 H   0  0  0  0  0  0  0  0  0  0  0  0
  -33.0176   53.9662   71.1638 H   0  0  0  0  0  0  0  0  0  0  0  0
  -35.2846   53.6562   70.5291 H   0  0  0  0  0  0  0  0  0  0  0  0
  -35.5309   52.6052   71.9405 H   0  0  0  0  0  0  0  0  0  0  0  0
  -33.9941   51.0097   71.0537 H   0  0  0  0  0  0  0  0  0  0  0  0
  -33.7346   52.0696   69.6442 H   0  0  0  0  0  0  0  0  0  0  0  0
  -35.9879   51.7585   68.9573 H   0  0  0  0  0  0  0  0  0  0  0  0
  -36.2754   50.7254   70.3673 H   0  0  0  0  0  0  0  0  0  0  0  0
  -34.4000   50.1378   68.1273 H   0  0  0  0  0  0  0  0  0  0  0  0
  -35.9611   49.3967   68.3853 H   0  0  0  0  0  0  0  0  0  0  0  0
  -34.6703   49.1373   69.5341 H   0  0  0  0  0  0  0  0  0  0  0  0
  1  4  1  0  0  0  0
  1 54  1  0  0  0  0
  1 55  1  0  0  0  0
  1 56  1  0  0  0  0
  2 29  2  0  0  0  0
  3  7  1  0  0  0  0
  3  9  2  1  0  0  0
  3 11  1  0  0  0  0
  3 13  1  0  0  0  0
  4  6  1  0  0  0  0
  4 57  1  0  0  0  0
  4 58  1  0  0  0  0
  5 29  1  0  0  0  0
  5 30  1  0  0  0  0
  6  8  1  0  0  0  0
  6 59  1  0  0  0  0
  6 60  1  0  0  0  0
  7 32  1  0  0  0  0
  8 10  1  0  0  0  0
  8 61  1  0  0  0  0
  8 62  1  0  0  0  0
 10 12  1  0  0  0  0
 10 63  1  0  0  0  0
 10 64  1  0  0  0  0
 11 65  1  0  0  0  0
 12 14  1  0  0  0  0
 12 66  1  0  0  0  0
 12 67  1  0  0  0  0
 13 33  1  0  0  0  0
 14 16  1  0  0  0  0
 14 68  1  0  0  0  0
 14 69  1  0  0  0  0
 15 35  1  0  0  0  0
 15 70  1  0  0  0  0
 16 18  1  0  0  0  0
 16 71  1  0  0  0  0
 16 72  1  0  0  0  0
 17 34  1  0  0  0  0
 17 73  1  0  0  0  0
 18 20  1  0  0  0  0
 18 74  1  0  0  0  0
 18 75  1  0  0  0  0
 19 31  1  0  0  0  0
 19 36  1  0  0  0  0
 20 22  1  0  0  0  0
 20 76  1  0  0  0  0
 20 77  1  0  0  0  0
 21 36  2  0  0  0  0
 22 23  1  0  0  0  0
 22 78  1  0  0  0  0
 22 79  1  0  0  0  0
 23 24  1  0  0  0  0
 23 80  1  0  0  0  0
 23 81  1  0  0  0  0
 24 25  1  0  0  0  0
 24 82  1  0  0  0  0
 24 83  1  0  0  0  0
 25 26  1  0  0  0  0
 25 84  1  0  0  0  0
 25 85  1  0  0  0  0
 26 27  1  0  0  0  0
 26 86  1  0  0  0  0
 26 87  1  0  0  0  0
 27 28  1  0  0  0  0
 27 88  1  0  0  0  0
 27 89  1  0  0  0  0
 28 29  1  0  0  0  0
 28 90  1  0  0  0  0
 28 91  1  0  0  0  0
 30 31  1  0  0  0  0
 30 92  1  0  0  0  0
 30 93  1  0  0  0  0
 31 32  1  0  0  0  0
 31 94  1  6  0  0  0
 32 95  1  0  0  0  0
 32 96  1  0  0  0  0
 33 34  1  0  0  0  0
 33 97  1  0  0  0  0
 33 98  1  0  0  0  0
 34 35  1  0  0  0  0
 34 99  1  1  0  0  0
 35100  1  0  0  0  0
 35101  1  0  0  0  0
 36 37  1  0  0  0  0
 37 38  1  0  0  0  0
 37102  1  0  0  0  0
 37103  1  0  0  0  0
 38 39  1  0  0  0  0
 38104  1  0  0  0  0
 38105  1  0  0  0  0
 39 40  1  0  0  0  0
 39106  1  0  0  0  0
 39107  1  0  0  0  0
 40 41  1  0  0  0  0
 40108  1  0  0  0  0
 40109  1  0  0  0  0
 41 42  1  0  0  0  0
 41110  1  0  0  0  0
 41111  1  0  0  0  0
 42 43  1  0  0  0  0
 42112  1  0  0  0  0
 42113  1  0  0  0  0
 43 44  1  0  0  0  0
 43114  1  0  0  0  0
 43115  1  0  0  0  0
 44 45  2  0  0  0  0
 44116  1  0  0  0  0
 45 46  1  0  0  0  0
 45117  1  0  0  0  0
 46 47  1  0  0  0  0
 46118  1  0  0  0  0
 46119  1  0  0  0  0
 47 48  1  0  0  0  0
 47120  1  0  0  0  0
 47121  1  0  0  0  0
 48 49  1  0  0  0  0
 48122  1  0  0  0  0
 48123  1  0  0  0  0
 49 50  1  0  0  0  0
 49124  1  0  0  0  0
 49125  1  0  0  0  0
 50 51  1  0  0  0  0
 50126  1  0  0  0  0
 50127  1  0  0  0  0
 51 52  1  0  0  0  0
 51128  1  0  0  0  0
 51129  1  0  0  0  0
 52 53  1  0  0  0  0
 52130  1  0  0  0  0
 52131  1  0  0  0  0
 53132  1  0  0  0  0
 53133  1  0  0  0  0
 53134  1  0  0  0  0
M  CHG  1   9  -1
M  END
$$$$
/media/chris/experiments/cd1a-new-docking/inputs/ligands/7sh4_ligand.pdb
 OpenBabel07012320073D

134133  0  0  1  0  0  0  0  0999 V2000
  -44.9690   58.3405   70.9559 C   0  0  0  0  0  0  0  0  0  0  0  0
  -39.1377   58.0331   64.9968 O   0  0  0  0  0  0  0  0  0  0  0  0
  -34.0491   60.2433   66.3537 P   0  0  1  0  0  0  0  0  0  0  0  0
  -45.4123   57.0583   71.6231 C   0  0  0  0  0  0  0  0  0  0  0  0
  -38.3690   58.5038   62.9506 O   0  0  0  0  0  0  0  0  0  0  0  0
  -46.2372   56.1813   70.7003 C   0  0  0  0  0  0  0  0  0  0  0  0
  -35.4212   59.8922   65.6081 O   0  0  0  0  0  0  0  0  0  0  0  0
  -45.5170   55.7279   69.4430 C   0  0  0  0  0  0  0  0  0  0  0  0
  -33.2993   58.9839   66.5499 O   0  5  0  0  0  0  0  0  0  0  0  0
  -45.0381   56.8772   68.5671 C   0  0  0  0  0  0  0  0  0  0  0  0
  -33.3962   61.3541   65.6199 O   0  0  0  0  0  0  0  0  0  0  0  0
  -44.3342   56.4255   67.3038 C   0  0  0  0  0  0  0  0  0  0  0  0
  -34.4765   60.7892   67.7897 O   0  0  0  0  0  0  0  0  0  0  0  0
  -45.2109   55.5892   66.3916 C   0  0  0  0  0  0  0  0  0  0  0  0
  -34.9123   61.2233   71.9627 O   0  0  0  0  0  0  0  0  0  0  0  0
  -44.5099   55.1135   65.1242 C   0  0  0  0  0  0  0  0  0  0  0  0
  -35.6114   62.5888   69.5805 O   0  0  0  0  0  0  0  0  0  0  0  0
  -45.3930   54.2930   64.2076 C   0  0  0  0  0  0  0  0  0  0  0  0
  -38.2720   59.8520   65.2990 O   0  0  0  0  0  0  0  0  0  0  0  0
  -44.6969   53.8030   62.9540 C   0  0  0  0  0  0  0  0  0  0  0  0
  -36.8606   59.5894   67.0308 O   0  0  0  0  0  0  0  0  0  0  0  0
  -43.5158   52.9069   63.2539 C   0  0  0  0  0  0  0  0  0  0  0  0
  -42.8025   52.4247   62.0184 C   0  0  0  0  0  0  0  0  0  0  0  0
  -42.2369   53.5501   61.1870 C   0  0  0  0  0  0  0  0  0  0  0  0
  -41.2155   54.3862   61.9310 C   0  0  0  0  0  0  0  0  0  0  0  0
  -40.6633   55.5229   61.1011 C   0  0  0  0  0  0  0  0  0  0  0  0
  -39.6272   56.3655   61.8146 C   0  0  0  0  0  0  0  0  0  0  0  0
  -40.1623   57.0052   63.0846 C   0  0  0  0  0  0  0  0  0  0  0  0
  -39.1632   57.8617   63.8078 C   0  0  0  0  0  0  0  0  0  0  0  0
  -37.0720   58.9080   63.4380 C   0  0  0  0  0  0  0  0  0  0  0  0
  -37.3490   60.1700   64.2050 C   0  0  2  0  0  0  0  0  0  0  0  0
  -36.0840   60.8130   64.7130 C   0  0  0  0  0  0  0  0  0  0  0  0
  -33.6574   61.7669   68.4630 C   0  0  0  0  0  0  0  0  0  0  0  0
  -34.2910   62.0817   69.7958 C   0  0  2  0  0  0  0  0  0  0  0  0
  -34.3368   60.8799   70.7087 C   0  0  0  0  0  0  0  0  0  0  0  0
  -37.8399   60.0926   66.5518 C   0  0  0  0  0  0  0  0  0  0  0  0
  -38.7148   61.0747   67.2675 C   0  0  0  0  0  0  0  0  0  0  0  0
  -38.7725   62.4104   66.5332 C   0  0  0  0  0  0  0  0  0  0  0  0
  -39.6339   63.4559   67.2224 C   0  0  0  0  0  0  0  0  0  0  0  0
  -41.0863   63.0284   67.4001 C   0  0  0  0  0  0  0  0  0  0  0  0
  -41.8003   62.7135   66.0987 C   0  0  0  0  0  0  0  0  0  0  0  0
  -43.2656   62.2990   66.2606 C   0  0  0  0  0  0  0  0  0  0  0  0
  -43.4999   61.0572   67.1235 C   0  0  0  0  0  0  0  0  0  0  0  0
  -43.0063   61.2433   68.5270 C   0  0  0  0  0  0  0  0  0  0  0  0
  -43.7260   61.1762   69.6301 C   0  0  0  0  0  0  0  0  0  0  0  0
  -45.1936   60.8972   69.7110 C   0  0  0  0  0  0  0  0  0  0  0  0
  -46.0322   62.1711   69.6604 C   0  0  0  0  0  0  0  0  0  0  0  0
  -45.8504   62.9701   68.3819 C   0  0  0  0  0  0  0  0  0  0  0  0
  -46.6721   64.2469   68.3386 C   0  0  0  0  0  0  0  0  0  0  0  0
  -48.1720   64.0348   68.4607 C   0  0  0  0  0  0  0  0  0  0  0  0
  -48.5856   63.3721   69.7659 C   0  0  0  0  0  0  0  0  0  0  0  0
  -48.2182   64.1604   71.0075 C   0  0  0  0  0  0  0  0  0  0  0  0
  -48.8656   65.5164   71.0481 C   0  0  0  0  0  0  0  0  0  0  0  0
  -44.3930   58.9210   71.6460 H   0  0  0  0  0  0  0  0  0  0  0  0
  -45.8288   58.8994   70.6505 H   0  0  0  0  0  0  0  0  0  0  0  0
  -44.3714   58.1087   70.0992 H   0  0  0  0  0  0  0  0  0  0  0  0
  -46.0018   57.3037   72.4817 H   0  0  0  0  0  0  0  0  0  0  0  0
  -44.5337   56.5109   71.8941 H   0  0  0  0  0  0  0  0  0  0  0  0
  -47.1062   56.7320   70.4062 H   0  0  0  0  0  0  0  0  0  0  0  0
  -46.4673   55.2943   71.2528 H   0  0  0  0  0  0  0  0  0  0  0  0
  -46.1867   55.1218   68.8694 H   0  0  0  0  0  0  0  0  0  0  0  0
  -44.6475   55.1888   69.7565 H   0  0  0  0  0  0  0  0  0  0  0  0
  -44.3588   57.4763   69.1368 H   0  0  0  0  0  0  0  0  0  0  0  0
  -45.9068   57.4232   68.2637 H   0  0  0  0  0  0  0  0  0  0  0  0
  -33.1263   61.0462   64.7406 H   0  0  0  0  0  0  0  0  0  0  0  0
  -43.4805   55.8431   67.5810 H   0  0  0  0  0  0  0  0  0  0  0  0
  -44.0637   57.3069   66.7608 H   0  0  0  0  0  0  0  0  0  0  0  0
  -46.0582   56.1775   66.1070 H   0  0  0  0  0  0  0  0  0  0  0  0
  -45.4841   54.7133   66.9420 H   0  0  0  0  0  0  0  0  0  0  0  0
  -34.9331   60.4399   72.5343 H   0  0  0  0  0  0  0  0  0  0  0  0
  -43.6698   54.5147   65.4080 H   0  0  0  0  0  0  0  0  0  0  0  0
  -44.2238   55.9889   64.5794 H   0  0  0  0  0  0  0  0  0  0  0  0
  -35.5700   63.3597   68.9933 H   0  0  0  0  0  0  0  0  0  0  0  0
  -46.2265   54.8968   63.9150 H   0  0  0  0  0  0  0  0  0  0  0  0
  -45.6858   53.4235   64.7581 H   0  0  0  0  0  0  0  0  0  0  0  0
  -44.3513   54.6511   62.4007 H   0  0  0  0  0  0  0  0  0  0  0  0
  -45.4052   53.2276   62.3953 H   0  0  0  0  0  0  0  0  0  0  0  0
  -43.8660   52.0546   63.7978 H   0  0  0  0  0  0  0  0  0  0  0  0
  -42.8147   53.4861   63.8177 H   0  0  0  0  0  0  0  0  0  0  0  0
  -43.4953   51.8724   61.4185 H   0  0  0  0  0  0  0  0  0  0  0  0
  -41.9806   51.8193   62.3391 H   0  0  0  0  0  0  0  0  0  0  0  0
  -43.0417   54.1866   60.8837 H   0  0  0  0  0  0  0  0  0  0  0  0
  -41.7375   53.1077   60.3504 H   0  0  0  0  0  0  0  0  0  0  0  0
  -40.4044   53.7526   62.2235 H   0  0  0  0  0  0  0  0  0  0  0  0
  -41.7103   54.8183   62.7756 H   0  0  0  0  0  0  0  0  0  0  0  0
  -41.4766   56.1586   60.8192 H   0  0  0  0  0  0  0  0  0  0  0  0
  -40.1730   55.0797   60.2597 H   0  0  0  0  0  0  0  0  0  0  0  0
  -39.3015   57.1403   61.1525 H   0  0  0  0  0  0  0  0  0  0  0  0
  -38.8223   55.7182   62.0941 H   0  0  0  0  0  0  0  0  0  0  0  0
  -40.4779   56.2257   63.7462 H   0  0  0  0  0  0  0  0  0  0  0  0
  -40.9652   57.6487   62.7912 H   0  0  0  0  0  0  0  0  0  0  0  0
  -36.4020   59.0962   62.6252 H   0  0  0  0  0  0  0  0  0  0  0  0
  -36.6048   58.1555   64.0382 H   0  0  0  0  0  0  0  0  0  0  0  0
  -37.7985   60.8886   63.5519 H   0  0  0  0  0  0  0  0  0  0  0  0
  -35.4401   61.0403   63.8892 H   0  0  0  0  0  0  0  0  0  0  0  0
  -36.3193   61.7188   65.2317 H   0  0  0  0  0  0  0  0  0  0  0  0
  -33.5975   62.6569   67.8720 H   0  0  0  0  0  0  0  0  0  0  0  0
  -32.6693   61.3825   68.6070 H   0  0  0  0  0  0  0  0  0  0  0  0
  -33.6866   62.8186   70.2822 H   0  0  0  0  0  0  0  0  0  0  0  0
  -34.9253   60.1128   70.2504 H   0  0  0  0  0  0  0  0  0  0  0  0
  -33.3377   60.5335   70.8720 H   0  0  0  0  0  0  0  0  0  0  0  0
  -38.3252   61.2351   68.2511 H   0  0  0  0  0  0  0  0  0  0  0  0
  -39.7053   60.6724   67.3111 H   0  0  0  0  0  0  0  0  0  0  0  0
  -39.1688   62.2397   65.5541 H   0  0  0  0  0  0  0  0  0  0  0  0
  -37.7746   62.7959   66.5113 H   0  0  0  0  0  0  0  0  0  0  0  0
  -39.6138   64.3508   66.6362 H   0  0  0  0  0  0  0  0  0  0  0  0
  -39.2275   63.6018   68.2014 H   0  0  0  0  0  0  0  0  0  0  0  0
  -41.6129   63.8209   67.8896 H   0  0  0  0  0  0  0  0  0  0  0  0
  -41.0754   62.1253   67.9737 H   0  0  0  0  0  0  0  0  0  0  0  0
  -41.2783   61.9136   65.6166 H   0  0  0  0  0  0  0  0  0  0  0  0
  -41.8021   63.6179   65.5269 H   0  0  0  0  0  0  0  0  0  0  0  0
  -43.6643   62.1054   65.2867 H   0  0  0  0  0  0  0  0  0  0  0  0
  -43.7488   63.1081   66.7672 H   0  0  0  0  0  0  0  0  0  0  0  0
  -42.9844   60.2292   66.6835 H   0  0  0  0  0  0  0  0  0  0  0  0
  -44.5543   60.8803   67.1662 H   0  0  0  0  0  0  0  0  0  0  0  0
  -42.0006   61.4443   68.6415 H   0  0  0  0  0  0  0  0  0  0  0  0
  -43.2299   61.3308   70.5218 H   0  0  0  0  0  0  0  0  0  0  0  0
  -45.3965   60.3887   70.6303 H   0  0  0  0  0  0  0  0  0  0  0  0
  -45.4588   60.2986   68.8646 H   0  0  0  0  0  0  0  0  0  0  0  0
  -45.7563   62.7904   70.4882 H   0  0  0  0  0  0  0  0  0  0  0  0
  -47.0588   61.8719   69.6993 H   0  0  0  0  0  0  0  0  0  0  0  0
  -46.1380   62.3549   67.5550 H   0  0  0  0  0  0  0  0  0  0  0  0
  -44.8210   63.2587   68.3368 H   0  0  0  0  0  0  0  0  0  0  0  0
  -46.4786   64.7376   67.4076 H   0  0  0  0  0  0  0  0  0  0  0  0
  -46.3767   64.8282   69.1869 H   0  0  0  0  0  0  0  0  0  0  0  0
  -48.4939   63.4158   67.6495 H   0  0  0  0  0  0  0  0  0  0  0  0
  -48.6298   65.0016   68.4391 H   0  0  0  0  0  0  0  0  0  0  0  0
  -48.1088   62.4159   69.8224 H   0  0  0  0  0  0  0  0  0  0  0  0
  -49.6532   63.3032   69.7505 H   0  0  0  0  0  0  0  0  0  0  0  0
  -47.1560   64.2876   71.0300 H   0  0  0  0  0  0  0  0  0  0  0  0
  -48.5695   63.6096   71.8549 H   0  0  0  0  0  0  0  0  0  0  0  0
  -48.5345   66.0949   70.2111 H   0  0  0  0  0  0  0  0  0  0  0  0
  -48.5943   66.0142   71.9555 H   0  0  0  0  0  0  0  0  0  0  0  0
  -49.9290   65.4053   71.0065 H   0  0  0  0  0  0  0  0  0  0  0  0
  1  4  1  0  0  0  0
  1 54  1  0  0  0  0
  1 55  1  0  0  0  0
  1 56  1  0  0  0  0
  2 29  2  0  0  0  0
  3  7  1  0  0  0  0
  3  9  2  1  0  0  0
  3 11  1  0  0  0  0
  3 13  1  0  0  0  0
  4  6  1  0  0  0  0
  4 57  1  0  0  0  0
  4 58  1  0  0  0  0
  5 29  1  0  0  0  0
  5 30  1  0  0  0  0
  6  8  1  0  0  0  0
  6 59  1  0  0  0  0
  6 60  1  0  0  0  0
  7 32  1  0  0  0  0
  8 10  1  0  0  0  0
  8 61  1  0  0  0  0
  8 62  1  0  0  0  0
 10 12  1  0  0  0  0
 10 63  1  0  0  0  0
 10 64  1  0  0  0  0
 11 65  1  0  0  0  0
 12 14  1  0  0  0  0
 12 66  1  0  0  0  0
 12 67  1  0  0  0  0
 13 33  1  0  0  0  0
 14 16  1  0  0  0  0
 14 68  1  0  0  0  0
 14 69  1  0  0  0  0
 15 35  1  0  0  0  0
 15 70  1  0  0  0  0
 16 18  1  0  0  0  0
 16 71  1  0  0  0  0
 16 72  1  0  0  0  0
 17 34  1  0  0  0  0
 17 73  1  0  0  0  0
 18 20  1  0  0  0  0
 18 74  1  0  0  0  0
 18 75  1  0  0  0  0
 19 31  1  0  0  0  0
 19 36  1  0  0  0  0
 20 22  1  0  0  0  0
 20 76  1  0  0  0  0
 20 77  1  0  0  0  0
 21 36  2  0  0  0  0
 22 23  1  0  0  0  0
 22 78  1  0  0  0  0
 22 79  1  0  0  0  0
 23 24  1  0  0  0  0
 23 80  1  0  0  0  0
 23 81  1  0  0  0  0
 24 25  1  0  0  0  0
 24 82  1  0  0  0  0
 24 83  1  0  0  0  0
 25 26  1  0  0  0  0
 25 84  1  0  0  0  0
 25 85  1  0  0  0  0
 26 27  1  0  0  0  0
 26 86  1  0  0  0  0
 26 87  1  0  0  0  0
 27 28  1  0  0  0  0
 27 88  1  0  0  0  0
 27 89  1  0  0  0  0
 28 29  1  0  0  0  0
 28 90  1  0  0  0  0
 28 91  1  0  0  0  0
 30 31  1  0  0  0  0
 30 92  1  0  0  0  0
 30 93  1  0  0  0  0
 31 32  1  0  0  0  0
 31 94  1  6  0  0  0
 32 95  1  0  0  0  0
 32 96  1  0  0  0  0
 33 34  1  0  0  0  0
 33 97  1  0  0  0  0
 33 98  1  0  0  0  0
 34 35  1  0  0  0  0
 34 99  1  1  0  0  0
 35100  1  0  0  0  0
 35101  1  0  0  0  0
 36 37  1  0  0  0  0
 37 38  1  0  0  0  0
 37102  1  0  0  0  0
 37103  1  0  0  0  0
 38 39  1  0  0  0  0
 38104  1  0  0  0  0
 38105  1  0  0  0  0
 39 40  1  0  0  0  0
 39106  1  0  0  0  0
 39107  1  0  0  0  0
 40 41  1  0  0  0  0
 40108  1  0  0  0  0
 40109  1  0  0  0  0
 41 42  1  0  0  0  0
 41110  1  0  0  0  0
 41111  1  0  0  0  0
 42 43  1  0  0  0  0
 42112  1  0  0  0  0
 42113  1  0  0  0  0
 43 44  1  0  0  0  0
 43114  1  0  0  0  0
 43115  1  0  0  0  0
 44 45  2  0  0  0  0
 44116  1  0  0  0  0
 45 46  1  0  0  0  0
 45117  1  0  0  0  0
 46 47  1  0  0  0  0
 46118  1  0  0  0  0
 46119  1  0  0  0  0
 47 48  1  0  0  0  0
 47120  1  0  0  0  0
 47121  1  0  0  0  0
 48 49  1  0  0  0  0
 48122  1  0  0  0  0
 48123  1  0  0  0  0
 49 50  1  0  0  0  0
 49124  1  0  0  0  0
 49125  1  0  0  0  0
 50 51  1  0  0  0  0
 50126  1  0  0  0  0
 50127  1  0  0  0  0
 51 52  1  0  0  0  0
 51128  1  0  0  0  0
 51129  1  0  0  0  0
 52 53  1  0  0  0  0
 52130  1  0  0  0  0
 52131  1  0  0  0  0
 53132  1  0  0  0  0
 53133  1  0  0  0  0
 53134  1  0  0  0  0
M  CHG  1   9  -1
M  END
$$$$
/media/chris/experiments/cd1a-new-docking/inputs/ligands/7sh4_ligand.pdb
 OpenBabel07012320073D

134133  0  0  1  0  0  0  0  0999 V2000
  -26.7077   57.4196   49.1693 C   0  0  0  0  0  0  0  0  0  0  0  0
  -34.7602   57.6107   62.7784 O   0  0  0  0  0  0  0  0  0  0  0  0
  -35.3336   62.9877   66.0786 P   0  0  1  0  0  0  0  0  0  0  0  0
  -26.4820   58.5879   50.1020 C   0  0  0  0  0  0  0  0  0  0  0  0
  -36.1511   59.3213   62.4064 O   0  0  0  0  0  0  0  0  0  0  0  0
  -27.7422   59.4026   50.3240 C   0  0  0  0  0  0  0  0  0  0  0  0
  -36.4293   62.0282   65.4148 O   0  0  0  0  0  0  0  0  0  0  0  0
  -27.5709   60.6008   51.2406 C   0  0  0  0  0  0  0  0  0  0  0  0
  -34.9300   63.9895   65.0686 O   0  5  0  0  0  0  0  0  0  0  0  0
  -28.8546   61.3895   51.4588 C   0  0  0  0  0  0  0  0  0  0  0  0
  -35.8630   63.4617   67.3801 O   0  0  0  0  0  0  0  0  0  0  0  0
  -29.9641   60.5791   52.0972 C   0  0  0  0  0  0  0  0  0  0  0  0
  -34.0759   62.0526   66.3727 O   0  0  0  0  0  0  0  0  0  0  0  0
  -29.6060   60.0440   53.4704 C   0  0  0  0  0  0  0  0  0  0  0  0
  -31.6110   64.3150   63.9053 O   0  0  0  0  0  0  0  0  0  0  0  0
  -29.2905   61.1282   54.4947 C   0  0  0  0  0  0  0  0  0  0  0  0
  -31.1879   64.2592   66.7064 O   0  0  0  0  0  0  0  0  0  0  0  0
  -28.9170   60.5900   55.8600 C   0  0  0  0  0  0  0  0  0  0  0  0
  -38.2720   59.8520   65.2990 O   0  0  0  0  0  0  0  0  0  0  0  0
  -29.9915   59.7373   56.5037 C   0  0  0  0  0  0  0  0  0  0  0  0
  -39.6513   58.6615   63.9798 O   0  0  0  0  0  0  0  0  0  0  0  0
  -29.5934   59.2304   57.8722 C   0  0  0  0  0  0  0  0  0  0  0  0
  -30.6443   58.3670   58.5187 C   0  0  0  0  0  0  0  0  0  0  0  0
  -30.2453   57.8800   59.8903 C   0  0  0  0  0  0  0  0  0  0  0  0
  -31.2927   56.9968   60.5376 C   0  0  0  0  0  0  0  0  0  0  0  0
  -32.6263   57.6882   60.7088 C   0  0  0  0  0  0  0  0  0  0  0  0
  -32.5709   58.9412   61.5572 C   0  0  0  0  0  0  0  0  0  0  0  0
  -33.9298   59.6002   61.7224 C   0  0  0  0  0  0  0  0  0  0  0  0
  -34.9553   58.7317   62.3924 C   0  0  0  0  0  0  0  0  0  0  0  0
  -37.0720   58.9080   63.4380 C   0  0  0  0  0  0  0  0  0  0  0  0
  -37.3490   60.1700   64.2050 C   0  0  2  0  0  0  0  0  0  0  0  0
  -36.0840   60.8130   64.7130 C   0  0  0  0  0  0  0  0  0  0  0  0
  -32.8966   62.6037   66.9936 C   0  0  0  0  0  0  0  0  0  0  0  0
  -32.3690   63.7106   66.1140 C   0  0  2  0  0  0  0  0  0  0  0  0
  -32.0769   63.2391   64.7097 C   0  0  0  0  0  0  0  0  0  0  0  0
  -39.4672   59.3329   64.9581 C   0  0  0  0  0  0  0  0  0  0  0  0
  -40.5321   59.6773   65.9527 C   0  0  0  0  0  0  0  0  0  0  0  0
  -41.6671   60.4650   65.3061 C   0  0  0  0  0  0  0  0  0  0  0  0
  -42.7724   60.8588   66.2720 C   0  0  0  0  0  0  0  0  0  0  0  0
  -43.4410   59.6692   66.9515 C   0  0  0  0  0  0  0  0  0  0  0  0
  -44.0806   58.6874   65.9874 C   0  0  0  0  0  0  0  0  0  0  0  0
  -45.1688   59.2896   65.0941 C   0  0  0  0  0  0  0  0  0  0  0  0
  -46.3550   59.9067   65.8381 C   0  0  0  0  0  0  0  0  0  0  0  0
  -47.0574   58.9080   66.7083 C   0  0  0  0  0  0  0  0  0  0  0  0
  -48.3384   58.9003   67.0220 C   0  0  0  0  0  0  0  0  0  0  0  0
  -49.3638   59.8918   66.5704 C   0  0  0  0  0  0  0  0  0  0  0  0
  -50.0223   60.6211   67.7378 C   0  0  0  0  0  0  0  0  0  0  0  0
  -51.0808   61.6231   67.3114 C   0  0  0  0  0  0  0  0  0  0  0  0
  -51.7245   62.3614   68.4724 C   0  0  0  0  0  0  0  0  0  0  0  0
  -52.7989   63.3570   68.0674 C   0  0  0  0  0  0  0  0  0  0  0  0
  -53.4158   64.0951   69.2457 C   0  0  0  0  0  0  0  0  0  0  0  0
  -54.0733   63.1919   70.2702 C   0  0  0  0  0  0  0  0  0  0  0  0
  -55.1808   62.3600   69.6864 C   0  0  0  0  0  0  0  0  0  0  0  0
  -25.7922   56.8795   49.0462 H   0  0  0  0  0  0  0  0  0  0  0  0
  -27.0391   57.7812   48.2183 H   0  0  0  0  0  0  0  0  0  0  0  0
  -27.4514   56.7712   49.5833 H   0  0  0  0  0  0  0  0  0  0  0  0
  -25.7315   59.2238   49.6808 H   0  0  0  0  0  0  0  0  0  0  0  0
  -26.1765   58.1949   51.0491 H   0  0  0  0  0  0  0  0  0  0  0  0
  -28.4834   58.7598   50.7510 H   0  0  0  0  0  0  0  0  0  0  0  0
  -28.0223   59.7919   49.3675 H   0  0  0  0  0  0  0  0  0  0  0  0
  -26.8413   61.2545   50.8101 H   0  0  0  0  0  0  0  0  0  0  0  0
  -27.2674   60.2248   52.1953 H   0  0  0  0  0  0  0  0  0  0  0  0
  -29.1985   61.7449   50.5100 H   0  0  0  0  0  0  0  0  0  0  0  0
  -28.6216   62.1873   52.1327 H   0  0  0  0  0  0  0  0  0  0  0  0
  -36.6310   64.0342   67.2275 H   0  0  0  0  0  0  0  0  0  0  0  0
  -30.1895   59.7507   51.4587 H   0  0  0  0  0  0  0  0  0  0  0  0
  -30.8014   61.2335   52.2218 H   0  0  0  0  0  0  0  0  0  0  0  0
  -28.7472   59.4133   53.3725 H   0  0  0  0  0  0  0  0  0  0  0  0
  -30.4646   59.5173   53.8313 H   0  0  0  0  0  0  0  0  0  0  0  0
  -31.4290   63.9930   63.0086 H   0  0  0  0  0  0  0  0  0  0  0  0
  -30.1534   61.7517   54.6025 H   0  0  0  0  0  0  0  0  0  0  0  0
  -28.4403   61.6647   54.1283 H   0  0  0  0  0  0  0  0  0  0  0  0
  -31.3871   64.5585   67.6073 H   0  0  0  0  0  0  0  0  0  0  0  0
  -28.7153   61.4198   56.5047 H   0  0  0  0  0  0  0  0  0  0  0  0
  -28.0644   59.9587   55.7203 H   0  0  0  0  0  0  0  0  0  0  0  0
  -30.1864   58.8969   55.8708 H   0  0  0  0  0  0  0  0  0  0  0  0
  -30.8599   60.3504   56.6265 H   0  0  0  0  0  0  0  0  0  0  0  0
  -29.4097   60.0728   58.5058 H   0  0  0  0  0  0  0  0  0  0  0  0
  -28.7215   58.6238   57.7431 H   0  0  0  0  0  0  0  0  0  0  0  0
  -30.8197   57.5171   57.8928 H   0  0  0  0  0  0  0  0  0  0  0  0
  -31.5234   58.9658   58.6349 H   0  0  0  0  0  0  0  0  0  0  0  0
  -30.0817   58.7303   60.5189 H   0  0  0  0  0  0  0  0  0  0  0  0
  -29.3600   57.2905   59.7735 H   0  0  0  0  0  0  0  0  0  0  0  0
  -30.9377   56.6978   61.5016 H   0  0  0  0  0  0  0  0  0  0  0  0
  -31.4480   56.1588   59.8907 H   0  0  0  0  0  0  0  0  0  0  0  0
  -33.3042   57.0005   61.1698 H   0  0  0  0  0  0  0  0  0  0  0  0
  -32.9433   57.9912   59.7329 H   0  0  0  0  0  0  0  0  0  0  0  0
  -31.9064   59.6395   61.0928 H   0  0  0  0  0  0  0  0  0  0  0  0
  -32.2301   58.6565   62.5307 H   0  0  0  0  0  0  0  0  0  0  0  0
  -34.2954   59.8643   60.7521 H   0  0  0  0  0  0  0  0  0  0  0  0
  -33.7852   60.4508   62.3553 H   0  0  0  0  0  0  0  0  0  0  0  0
  -36.6274   58.1683   64.0706 H   0  0  0  0  0  0  0  0  0  0  0  0
  -37.9610   58.4631   63.0423 H   0  0  0  0  0  0  0  0  0  0  0  0
  -37.7985   60.8886   63.5519 H   0  0  0  0  0  0  0  0  0  0  0  0
  -35.5824   60.1428   65.3795 H   0  0  0  0  0  0  0  0  0  0  0  0
  -35.4356   61.0386   63.8923 H   0  0  0  0  0  0  0  0  0  0  0  0
  -32.1537   61.8409   67.0993 H   0  0  0  0  0  0  0  0  0  0  0  0
  -33.1364   62.9871   67.9633 H   0  0  0  0  0  0  0  0  0  0  0  0
  -33.1277   64.4612   66.0382 H   0  0  0  0  0  0  0  0  0  0  0  0
  -31.3275   62.4760   64.7441 H   0  0  0  0  0  0  0  0  0  0  0  0
  -32.9787   62.8545   64.2812 H   0  0  0  0  0  0  0  0  0  0  0  0
  -40.1005   60.2674   66.7340 H   0  0  0  0  0  0  0  0  0  0  0  0
  -40.9352   58.7659   66.3422 H   0  0  0  0  0  0  0  0  0  0  0  0
  -42.0953   59.8640   64.5312 H   0  0  0  0  0  0  0  0  0  0  0  0
  -41.2417   61.3735   64.9340 H   0  0  0  0  0  0  0  0  0  0  0  0
  -43.5181   61.4017   65.7298 H   0  0  0  0  0  0  0  0  0  0  0  0
  -42.3207   61.4476   67.0429 H   0  0  0  0  0  0  0  0  0  0  0  0
  -44.2006   60.0397   67.6077 H   0  0  0  0  0  0  0  0  0  0  0  0
  -42.6718   59.1367   67.4708 H   0  0  0  0  0  0  0  0  0  0  0  0
  -44.5179   57.8954   66.5586 H   0  0  0  0  0  0  0  0  0  0  0  0
  -43.3021   58.3528   65.3340 H   0  0  0  0  0  0  0  0  0  0  0  0
  -45.5434   58.5135   64.4599 H   0  0  0  0  0  0  0  0  0  0  0  0
  -44.7040   60.0915   64.5594 H   0  0  0  0  0  0  0  0  0  0  0  0
  -47.0509   60.2890   65.1209 H   0  0  0  0  0  0  0  0  0  0  0  0
  -45.9791   60.6855   66.4683 H   0  0  0  0  0  0  0  0  0  0  0  0
  -46.4795   58.1492   67.1021 H   0  0  0  0  0  0  0  0  0  0  0  0
  -48.6643   58.1383   67.6369 H   0  0  0  0  0  0  0  0  0  0  0  0
  -50.1203   59.3758   66.0170 H   0  0  0  0  0  0  0  0  0  0  0  0
  -48.8669   60.6231   65.9678 H   0  0  0  0  0  0  0  0  0  0  0  0
  -49.2630   61.1427   68.2821 H   0  0  0  0  0  0  0  0  0  0  0  0
  -50.5142   59.8800   68.3326 H   0  0  0  0  0  0  0  0  0  0  0  0
  -51.8464   61.0995   66.7779 H   0  0  0  0  0  0  0  0  0  0  0  0
  -50.5912   62.3573   66.7064 H   0  0  0  0  0  0  0  0  0  0  0  0
  -50.9579   62.8920   68.9974 H   0  0  0  0  0  0  0  0  0  0  0  0
  -52.2074   61.6203   69.0744 H   0  0  0  0  0  0  0  0  0  0  0  0
  -53.5751   62.8281   67.5549 H   0  0  0  0  0  0  0  0  0  0  0  0
  -52.3302   64.0911   67.4459 H   0  0  0  0  0  0  0  0  0  0  0  0
  -54.1561   64.7694   68.8687 H   0  0  0  0  0  0  0  0  0  0  0  0
  -52.6147   64.5966   69.7474 H   0  0  0  0  0  0  0  0  0  0  0  0
  -54.4779   63.7997   71.0524 H   0  0  0  0  0  0  0  0  0  0  0  0
  -53.3246   62.5210   70.6366 H   0  0  0  0  0  0  0  0  0  0  0  0
  -55.9489   63.0026   69.3095 H   0  0  0  0  0  0  0  0  0  0  0  0
  -55.5877   61.7247   70.4452 H   0  0  0  0  0  0  0  0  0  0  0  0
  -54.7942   61.7605   68.8889 H   0  0  0  0  0  0  0  0  0  0  0  0
  1  4  1  0  0  0  0
  1 54  1  0  0  0  0
  1 55  1  0  0  0  0
  1 56  1  0  0  0  0
  2 29  2  0  0  0  0
  3  7  1  0  0  0  0
  3  9  2  6  0  0  0
  3 11  1  0  0  0  0
  3 13  1  0  0  0  0
  4  6  1  0  0  0  0
  4 57  1  0  0  0  0
  4 58  1  0  0  0  0
  5 29  1  0  0  0  0
  5 30  1  0  0  0  0
  6  8  1  0  0  0  0
  6 59  1  0  0  0  0
  6 60  1  0  0  0  0
  7 32  1  0  0  0  0
  8 10  1  0  0  0  0
  8 61  1  0  0  0  0
  8 62  1  0  0  0  0
 10 12  1  0  0  0  0
 10 63  1  0  0  0  0
 10 64  1  0  0  0  0
 11 65  1  0  0  0  0
 12 14  1  0  0  0  0
 12 66  1  0  0  0  0
 12 67  1  0  0  0  0
 13 33  1  0  0  0  0
 14 16  1  0  0  0  0
 14 68  1  0  0  0  0
 14 69  1  0  0  0  0
 15 35  1  0  0  0  0
 15 70  1  0  0  0  0
 16 18  1  0  0  0  0
 16 71  1  0  0  0  0
 16 72  1  0  0  0  0
 17 34  1  0  0  0  0
 17 73  1  0  0  0  0
 18 20  1  0  0  0  0
 18 74  1  0  0  0  0
 18 75  1  0  0  0  0
 19 31  1  0  0  0  0
 19 36  1  0  0  0  0
 20 22  1  0  0  0  0
 20 76  1  0  0  0  0
 20 77  1  0  0  0  0
 21 36  2  0  0  0  0
 22 23  1  0  0  0  0
 22 78  1  0  0  0  0
 22 79  1  0  0  0  0
 23 24  1  0  0  0  0
 23 80  1  0  0  0  0
 23 81  1  0  0  0  0
 24 25  1  0  0  0  0
 24 82  1  0  0  0  0
 24 83  1  0  0  0  0
 25 26  1  0  0  0  0
 25 84  1  0  0  0  0
 25 85  1  0  0  0  0
 26 27  1  0  0  0  0
 26 86  1  0  0  0  0
 26 87  1  0  0  0  0
 27 28  1  0  0  0  0
 27 88  1  0  0  0  0
 27 89  1  0  0  0  0
 28 29  1  0  0  0  0
 28 90  1  0  0  0  0
 28 91  1  0  0  0  0
 30 31  1  0  0  0  0
 30 92  1  0  0  0  0
 30 93  1  0  0  0  0
 31 32  1  0  0  0  0
 31 94  1  6  0  0  0
 32 95  1  0  0  0  0
 32 96  1  0  0  0  0
 33 34  1  0  0  0  0
 33 97  1  0  0  0  0
 33 98  1  0  0  0  0
 34 35  1  0  0  0  0
 34 99  1  6  0  0  0
 35100  1  0  0  0  0
 35101  1  0  0  0  0
 36 37  1  0  0  0  0
 37 38  1  0  0  0  0
 37102  1  0  0  0  0
 37103  1  0  0  0  0
 38 39  1  0  0  0  0
 38104  1  0  0  0  0
 38105  1  0  0  0  0
 39 40  1  0  0  0  0
 39106  1  0  0  0  0
 39107  1  0  0  0  0
 40 41  1  0  0  0  0
 40108  1  0  0  0  0
 40109  1  0  0  0  0
 41 42  1  0  0  0  0
 41110  1  0  0  0  0
 41111  1  0  0  0  0
 42 43  1  0  0  0  0
 42112  1  0  0  0  0
 42113  1  0  0  0  0
 43 44  1  0  0  0  0
 43114  1  0  0  0  0
 43115  1  0  0  0  0
 44 45  2  0  0  0  0
 44116  1  0  0  0  0
 45 46  1  0  0  0  0
 45117  1  0  0  0  0
 46 47  1  0  0  0  0
 46118  1  0  0  0  0
 46119  1  0  0  0  0
 47 48  1  0  0  0  0
 47120  1  0  0  0  0
 47121  1  0  0  0  0
 48 49  1  0  0  0  0
 48122  1  0  0  0  0
 48123  1  0  0  0  0
 49 50  1  0  0  0  0
 49124  1  0  0  0  0
 49125  1  0  0  0  0
 50 51  1  0  0  0  0
 50126  1  0  0  0  0
 50127  1  0  0  0  0
 51 52  1  0  0  0  0
 51128  1  0  0  0  0
 51129  1  0  0  0  0
 52 53  1  0  0  0  0
 52130  1  0  0  0  0
 52131  1  0  0  0  0
 53132  1  0  0  0  0
 53133  1  0  0  0  0
 53134  1  0  0  0  0
M  CHG  1   9  -1
M  END
$$$$
/media/chris/experiments/cd1a-new-docking/inputs/ligands/7sh4_ligand.pdb
 OpenBabel07012320073D

134133  0  0  1  0  0  0  0  0999 V2000
  -28.4951   65.7695   53.6053 C   0  0  0  0  0  0  0  0  0  0  0  0
  -34.6751   59.9610   63.9592 O   0  0  0  0  0  0  0  0  0  0  0  0
  -34.0491   60.2433   66.3537 P   0  0  1  0  0  0  0  0  0  0  0  0
  -29.3183   65.8979   54.8669 C   0  0  0  0  0  0  0  0  0  0  0  0
  -36.1511   59.3213   62.4064 O   0  0  0  0  0  0  0  0  0  0  0  0
  -28.4605   66.1320   56.0959 C   0  0  0  0  0  0  0  0  0  0  0  0
  -35.4212   59.8922   65.6081 O   0  0  0  0  0  0  0  0  0  0  0  0
  -29.2338   66.2521   57.3970 C   0  0  0  0  0  0  0  0  0  0  0  0
  -34.2885   60.1710   67.8112 O   0  5  0  0  0  0  0  0  0  0  0  0
  -28.3495   66.5035   58.6104 C   0  0  0  0  0  0  0  0  0  0  0  0
  -32.9766   59.4052   65.7656 O   0  0  0  0  0  0  0  0  0  0  0  0
  -29.1187   66.6066   59.9115 C   0  0  0  0  0  0  0  0  0  0  0  0
  -33.7429   61.7632   65.9812 O   0  0  0  0  0  0  0  0  0  0  0  0
  -28.2348   66.8739   61.1146 C   0  0  0  0  0  0  0  0  0  0  0  0
  -33.8976   64.3863   68.1816 O   0  0  0  0  0  0  0  0  0  0  0  0
  -27.1737   65.8057   61.3531 C   0  0  0  0  0  0  0  0  0  0  0  0
  -31.4256   63.0127   68.5090 O   0  0  0  0  0  0  0  0  0  0  0  0
  -27.7405   64.4193   61.5762 C   0  0  0  0  0  0  0  0  0  0  0  0
  -38.2720   59.8520   65.2990 O   0  0  0  0  0  0  0  0  0  0  0  0
  -28.6783   64.3181   62.7622 C   0  0  0  0  0  0  0  0  0  0  0  0
  -40.2610   59.8884   64.2489 O   0  0  0  0  0  0  0  0  0  0  0  0
  -29.2126   62.9178   62.9667 C   0  0  0  0  0  0  0  0  0  0  0  0
  -30.1598   62.8038   64.1318 C   0  0  0  0  0  0  0  0  0  0  0  0
  -31.3859   63.6709   63.9820 C   0  0  0  0  0  0  0  0  0  0  0  0
  -32.2165   63.3239   62.7631 C   0  0  0  0  0  0  0  0  0  0  0  0
  -32.7391   61.9054   62.7872 C   0  0  0  0  0  0  0  0  0  0  0  0
  -33.5591   61.5259   61.5722 C   0  0  0  0  0  0  0  0  0  0  0  0
  -34.0822   60.1009   61.6372 C   0  0  0  0  0  0  0  0  0  0  0  0
  -34.9861   59.8321   62.8059 C   0  0  0  0  0  0  0  0  0  0  0  0
  -37.0720   58.9080   63.4380 C   0  0  0  0  0  0  0  0  0  0  0  0
  -37.3490   60.1700   64.2050 C   0  0  2  0  0  0  0  0  0  0  0  0
  -36.0840   60.8130   64.7130 C   0  0  0  0  0  0  0  0  0  0  0  0
  -32.5522   62.4034   66.4837 C   0  0  0  0  0  0  0  0  0  0  0  0
  -32.5926   62.3666   67.9917 C   0  0  2  0  0  0  0  0  0  0  0  0
  -33.8373   63.0142   68.5494 C   0  0  0  0  0  0  0  0  0  0  0  0
  -39.4672   59.3329   64.9581 C   0  0  0  0  0  0  0  0  0  0  0  0
  -39.6789   57.9753   65.5532 C   0  0  0  0  0  0  0  0  0  0  0  0
  -39.1801   56.8736   64.6235 C   0  0  0  0  0  0  0  0  0  0  0  0
  -39.3839   55.4691   65.1673 C   0  0  0  0  0  0  0  0  0  0  0  0
  -38.8674   54.3752   64.2397 C   0  0  0  0  0  0  0  0  0  0  0  0
  -37.3783   54.4562   63.9595 C   0  0  0  0  0  0  0  0  0  0  0  0
  -36.4892   54.3310   65.2000 C   0  0  0  0  0  0  0  0  0  0  0  0
  -36.7231   55.3908   66.2789 C   0  0  0  0  0  0  0  0  0  0  0  0
  -35.8067   55.2140   67.4523 C   0  0  0  0  0  0  0  0  0  0  0  0
  -36.0423   54.4976   68.5343 C   0  0  0  0  0  0  0  0  0  0  0  0
  -37.2800   53.7060   68.8167 C   0  0  0  0  0  0  0  0  0  0  0  0
  -38.3025   53.8015   67.6880 C   0  0  0  0  0  0  0  0  0  0  0  0
  -39.5780   53.0213   67.9535 C   0  0  0  0  0  0  0  0  0  0  0  0
  -39.3500   51.5352   68.1699 C   0  0  0  0  0  0  0  0  0  0  0  0
  -38.6883   50.8230   67.0019 C   0  0  0  0  0  0  0  0  0  0  0  0
  -38.4866   49.3337   67.2363 C   0  0  0  0  0  0  0  0  0  0  0  0
  -37.8123   48.6090   66.0884 C   0  0  0  0  0  0  0  0  0  0  0  0
  -36.4358   49.1373   65.7956 C   0  0  0  0  0  0  0  0  0  0  0  0
  -29.1445   65.6062   52.7707 H   0  0  0  0  0  0  0  0  0  0  0  0
  -27.8224   64.9430   53.7008 H   0  0  0  0  0  0  0  0  0  0  0  0
  -27.9358   66.6686   53.4513 H   0  0  0  0  0  0  0  0  0  0  0  0
  -29.8779   64.9965   55.0052 H   0  0  0  0  0  0  0  0  0  0  0  0
  -29.9615   66.7451   54.7519 H   0  0  0  0  0  0  0  0  0  0  0  0
  -27.9104   67.0382   55.9505 H   0  0  0  0  0  0  0  0  0  0  0  0
  -27.8342   65.2701   56.1955 H   0  0  0  0  0  0  0  0  0  0  0  0
  -29.7739   65.3420   57.5547 H   0  0  0  0  0  0  0  0  0  0  0  0
  -29.8816   67.0982   57.3000 H   0  0  0  0  0  0  0  0  0  0  0  0
  -27.8187   67.4199   58.4579 H   0  0  0  0  0  0  0  0  0  0  0  0
  -27.6936   65.6628   58.6998 H   0  0  0  0  0  0  0  0  0  0  0  0
  -33.1408   58.4733   65.9789 H   0  0  0  0  0  0  0  0  0  0  0  0
  -29.6397   65.6858   60.0713 H   0  0  0  0  0  0  0  0  0  0  0  0
  -29.7858   67.4381   59.8188 H   0  0  0  0  0  0  0  0  0  0  0  0
  -28.8569   66.9304   61.9833 H   0  0  0  0  0  0  0  0  0  0  0  0
  -27.7152   67.7889   60.9201 H   0  0  0  0  0  0  0  0  0  0  0  0
  -34.7025   64.7843   68.5485 H   0  0  0  0  0  0  0  0  0  0  0  0
  -26.6063   66.0812   62.2174 H   0  0  0  0  0  0  0  0  0  0  0  0
  -26.5749   65.7585   60.4676 H   0  0  0  0  0  0  0  0  0  0  0  0
  -30.6329   62.5890   68.1444 H   0  0  0  0  0  0  0  0  0  0  0  0
  -26.9253   63.7443   61.7338 H   0  0  0  0  0  0  0  0  0  0  0  0
  -28.3151   64.1771   60.7067 H   0  0  0  0  0  0  0  0  0  0  0  0
  -29.5041   64.9796   62.6028 H   0  0  0  0  0  0  0  0  0  0  0  0
  -28.1221   64.5826   63.6372 H   0  0  0  0  0  0  0  0  0  0  0  0
  -28.3855   62.2605   63.1364 H   0  0  0  0  0  0  0  0  0  0  0  0
  -29.7619   62.6574   62.0862 H   0  0  0  0  0  0  0  0  0  0  0  0
  -29.6423   63.0958   65.0217 H   0  0  0  0  0  0  0  0  0  0  0  0
  -30.4903   61.7872   64.1773 H   0  0  0  0  0  0  0  0  0  0  0  0
  -31.0733   64.6910   63.9015 H   0  0  0  0  0  0  0  0  0  0  0  0
  -31.9995   63.5056   64.8428 H   0  0  0  0  0  0  0  0  0  0  0  0
  -31.6098   63.4487   61.8906 H   0  0  0  0  0  0  0  0  0  0  0  0
  -33.0642   63.9767   62.7578 H   0  0  0  0  0  0  0  0  0  0  0  0
  -33.3526   61.7884   63.6560 H   0  0  0  0  0  0  0  0  0  0  0  0
  -31.8839   61.2624   62.7942 H   0  0  0  0  0  0  0  0  0  0  0  0
  -32.9459   61.6256   60.7010 H   0  0  0  0  0  0  0  0  0  0  0  0
  -34.4060   62.1789   61.5380 H   0  0  0  0  0  0  0  0  0  0  0  0
  -33.2447   59.4381   61.7009 H   0  0  0  0  0  0  0  0  0  0  0  0
  -34.6658   59.9460   60.7539 H   0  0  0  0  0  0  0  0  0  0  0  0
  -36.6274   58.1683   64.0706 H   0  0  0  0  0  0  0  0  0  0  0  0
  -37.9610   58.4631   63.0423 H   0  0  0  0  0  0  0  0  0  0  0  0
  -37.7985   60.8886   63.5519 H   0  0  0  0  0  0  0  0  0  0  0  0
  -35.4401   61.0403   63.8892 H   0  0  0  0  0  0  0  0  0  0  0  0
  -36.3193   61.7188   65.2317 H   0  0  0  0  0  0  0  0  0  0  0  0
  -32.5185   63.4188   66.1477 H   0  0  0  0  0  0  0  0  0  0  0  0
  -31.6819   61.8938   66.1264 H   0  0  0  0  0  0  0  0  0  0  0  0
  -32.6130   61.3409   68.2958 H   0  0  0  0  0  0  0  0  0  0  0  0
  -34.6986   62.5092   68.1647 H   0  0  0  0  0  0  0  0  0  0  0  0
  -33.8124   62.9448   69.6169 H   0  0  0  0  0  0  0  0  0  0  0  0
  -40.7243   57.8329   65.7315 H   0  0  0  0  0  0  0  0  0  0  0  0
  -39.1256   57.9193   66.4673 H   0  0  0  0  0  0  0  0  0  0  0  0
  -38.1335   57.0217   64.4569 H   0  0  0  0  0  0  0  0  0  0  0  0
  -39.7536   56.9441   63.7230 H   0  0  0  0  0  0  0  0  0  0  0  0
  -40.4314   55.3148   65.3219 H   0  0  0  0  0  0  0  0  0  0  0  0
  -38.8241   55.4001   66.0765 H   0  0  0  0  0  0  0  0  0  0  0  0
  -39.3895   54.4491   63.3087 H   0  0  0  0  0  0  0  0  0  0  0  0
  -39.0389   53.4425   64.7353 H   0  0  0  0  0  0  0  0  0  0  0  0
  -37.1763   55.4001   63.4979 H   0  0  0  0  0  0  0  0  0  0  0  0
  -37.1418   53.6230   63.3312 H   0  0  0  0  0  0  0  0  0  0  0  0
  -35.4691   54.3994   64.8845 H   0  0  0  0  0  0  0  0  0  0  0  0
  -36.7359   53.3914   65.6485 H   0  0  0  0  0  0  0  0  0  0  0  0
  -37.7354   55.3200   66.6181 H   0  0  0  0  0  0  0  0  0  0  0  0
  -36.5239   56.3494   65.8472 H   0  0  0  0  0  0  0  0  0  0  0  0
  -34.8989   55.7028   67.4090 H   0  0  0  0  0  0  0  0  0  0  0  0
  -35.3029   54.4815   69.2542 H   0  0  0  0  0  0  0  0  0  0  0  0
  -37.7261   54.0753   69.7165 H   0  0  0  0  0  0  0  0  0  0  0  0
  -36.9954   52.6790   68.9127 H   0  0  0  0  0  0  0  0  0  0  0  0
  -37.8545   53.4226   66.7932 H   0  0  0  0  0  0  0  0  0  0  0  0
  -38.5779   54.8318   67.6014 H   0  0  0  0  0  0  0  0  0  0  0  0
  -40.2303   53.1444   67.1143 H   0  0  0  0  0  0  0  0  0  0  0  0
  -39.9992   53.4084   68.8577 H   0  0  0  0  0  0  0  0  0  0  0  0
  -40.2989   51.0740   68.3486 H   0  0  0  0  0  0  0  0  0  0  0  0
  -38.6797   51.4476   68.9993 H   0  0  0  0  0  0  0  0  0  0  0  0
  -37.7323   51.2714   66.8291 H   0  0  0  0  0  0  0  0  0  0  0  0
  -39.3413   50.9240   66.1602 H   0  0  0  0  0  0  0  0  0  0  0  0
  -39.4452   48.8868   67.3983 H   0  0  0  0  0  0  0  0  0  0  0  0
  -37.8374   49.2410   68.0818 H   0  0  0  0  0  0  0  0  0  0  0  0
  -38.4154   48.7211   65.2117 H   0  0  0  0  0  0  0  0  0  0  0  0
  -37.7103   47.5819   66.3707 H   0  0  0  0  0  0  0  0  0  0  0  0
  -36.5021   50.1661   65.5091 H   0  0  0  0  0  0  0  0  0  0  0  0
  -35.9991   48.5726   64.9985 H   0  0  0  0  0  0  0  0  0  0  0  0
  -35.8264   49.0493   66.6707 H   0  0  0  0  0  0  0  0  0  0  0  0
  1  4  1  0  0  0  0
  1 54  1  0  0  0  0
  1 55  1  0  0  0  0
  1 56  1  0  0  0  0
  2 29  2  0  0  0  0
  3  7  1  0  0  0  0
  3  9  2  1  0  0  0
  3 11  1  0  0  0  0
  3 13  1  0  0  0  0
  4  6  1  0  0  0  0
  4 57  1  0  0  0  0
  4 58  1  0  0  0  0
  5 29  1  0  0  0  0
  5 30  1  0  0  0  0
  6  8  1  0  0  0  0
  6 59  1  0  0  0  0
  6 60  1  0  0  0  0
  7 32  1  0  0  0  0
  8 10  1  0  0  0  0
  8 61  1  0  0  0  0
  8 62  1  0  0  0  0
 10 12  1  0  0  0  0
 10 63  1  0  0  0  0
 10 64  1  0  0  0  0
 11 65  1  0  0  0  0
 12 14  1  0  0  0  0
 12 66  1  0  0  0  0
 12 67  1  0  0  0  0
 13 33  1  0  0  0  0
 14 16  1  0  0  0  0
 14 68  1  0  0  0  0
 14 69  1  0  0  0  0
 15 35  1  0  0  0  0
 15 70  1  0  0  0  0
 16 18  1  0  0  0  0
 16 71  1  0  0  0  0
 16 72  1  0  0  0  0
 17 34  1  0  0  0  0
 17 73  1  0  0  0  0
 18 20  1  0  0  0  0
 18 74  1  0  0  0  0
 18 75  1  0  0  0  0
 19 31  1  0  0  0  0
 19 36  1  0  0  0  0
 20 22  1  0  0  0  0
 20 76  1  0  0  0  0
 20 77  1  0  0  0  0
 21 36  2  0  0  0  0
 22 23  1  0  0  0  0
 22 78  1  0  0  0  0
 22 79  1  0  0  0  0
 23 24  1  0  0  0  0
 23 80  1  0  0  0  0
 23 81  1  0  0  0  0
 24 25  1  0  0  0  0
 24 82  1  0  0  0  0
 24 83  1  0  0  0  0
 25 26  1  0  0  0  0
 25 84  1  0  0  0  0
 25 85  1  0  0  0  0
 26 27  1  0  0  0  0
 26 86  1  0  0  0  0
 26 87  1  0  0  0  0
 27 28  1  0  0  0  0
 27 88  1  0  0  0  0
 27 89  1  0  0  0  0
 28 29  1  0  0  0  0
 28 90  1  0  0  0  0
 28 91  1  0  0  0  0
 30 31  1  0  0  0  0
 30 92  1  0  0  0  0
 30 93  1  0  0  0  0
 31 32  1  0  0  0  0
 31 94  1  6  0  0  0
 32 95  1  0  0  0  0
 32 96  1  0  0  0  0
 33 34  1  0  0  0  0
 33 97  1  0  0  0  0
 33 98  1  0  0  0  0
 34 35  1  0  0  0  0
 34 99  1  1  0  0  0
 35100  1  0  0  0  0
 35101  1  0  0  0  0
 36 37  1  0  0  0  0
 37 38  1  0  0  0  0
 37102  1  0  0  0  0
 37103  1  0  0  0  0
 38 39  1  0  0  0  0
 38104  1  0  0  0  0
 38105  1  0  0  0  0
 39 40  1  0  0  0  0
 39106  1  0  0  0  0
 39107  1  0  0  0  0
 40 41  1  0  0  0  0
 40108  1  0  0  0  0
 40109  1  0  0  0  0
 41 42  1  0  0  0  0
 41110  1  0  0  0  0
 41111  1  0  0  0  0
 42 43  1  0  0  0  0
 42112  1  0  0  0  0
 42113  1  0  0  0  0
 43 44  1  0  0  0  0
 43114  1  0  0  0  0
 43115  1  0  0  0  0
 44 45  2  0  0  0  0
 44116  1  0  0  0  0
 45 46  1  0  0  0  0
 45117  1  0  0  0  0
 46 47  1  0  0  0  0
 46118  1  0  0  0  0
 46119  1  0  0  0  0
 47 48  1  0  0  0  0
 47120  1  0  0  0  0
 47121  1  0  0  0  0
 48 49  1  0  0  0  0
 48122  1  0  0  0  0
 48123  1  0  0  0  0
 49 50  1  0  0  0  0
 49124  1  0  0  0  0
 49125  1  0  0  0  0
 50 51  1  0  0  0  0
 50126  1  0  0  0  0
 50127  1  0  0  0  0
 51 52  1  0  0  0  0
 51128  1  0  0  0  0
 51129  1  0  0  0  0
 52 53  1  0  0  0  0
 52130  1  0  0  0  0
 52131  1  0  0  0  0
 53132  1  0  0  0  0
 53133  1  0  0  0  0
 53134  1  0  0  0  0
M  CHG  1   9  -1
M  END
$$$$
/media/chris/experiments/cd1a-new-docking/inputs/ligands/7sh4_ligand.pdb
 OpenBabel07012320073D

134133  0  0  1  0  0  0  0  0999 V2000
  -45.0486   47.1220   57.8861 C   0  0  0  0  0  0  0  0  0  0  0  0
  -34.4062   58.3144   63.3762 O   0  0  0  0  0  0  0  0  0  0  0  0
  -35.3336   62.9877   66.0786 P   0  0  1  0  0  0  0  0  0  0  0  0
  -44.6671   48.3537   57.0968 C   0  0  0  0  0  0  0  0  0  0  0  0
  -36.1511   59.3213   62.4064 O   0  0  0  0  0  0  0  0  0  0  0  0
  -43.8419   49.3309   57.9125 C   0  0  0  0  0  0  0  0  0  0  0  0
  -36.4293   62.0282   65.4148 O   0  0  0  0  0  0  0  0  0  0  0  0
  -42.5216   48.7788   58.4197 C   0  0  0  0  0  0  0  0  0  0  0  0
  -34.4368   63.4694   65.0061 O   0  5  0  0  0  0  0  0  0  0  0  0
  -41.7229   49.7749   59.2487 C   0  0  0  0  0  0  0  0  0  0  0  0
  -36.0410   63.9852   66.9173 O   0  0  0  0  0  0  0  0  0  0  0  0
  -41.3719   51.0445   58.5003 C   0  0  0  0  0  0  0  0  0  0  0  0
  -34.4817   62.0497   67.0468 O   0  0  0  0  0  0  0  0  0  0  0  0
  -40.5618   52.0260   59.3252 C   0  0  0  0  0  0  0  0  0  0  0  0
  -30.3770   62.0362   67.9548 O   0  0  0  0  0  0  0  0  0  0  0  0
  -40.2159   53.3158   58.5898 C   0  0  0  0  0  0  0  0  0  0  0  0
  -33.1734   59.6786   67.7386 O   0  0  0  0  0  0  0  0  0  0  0  0
  -39.3927   54.2863   59.4105 C   0  0  0  0  0  0  0  0  0  0  0  0
  -38.2720   59.8520   65.2990 O   0  0  0  0  0  0  0  0  0  0  0  0
  -39.0599   55.5776   58.6908 C   0  0  0  0  0  0  0  0  0  0  0  0
  -40.1012   60.3734   64.0980 O   0  0  0  0  0  0  0  0  0  0  0  0
  -38.2234   56.5163   59.5317 C   0  0  0  0  0  0  0  0  0  0  0  0
  -37.8981   57.8120   58.8367 C   0  0  0  0  0  0  0  0  0  0  0  0
  -37.1367   57.6153   57.5486 C   0  0  0  0  0  0  0  0  0  0  0  0
  -35.8166   56.8964   57.7399 C   0  0  0  0  0  0  0  0  0  0  0  0
  -34.8774   57.6223   58.6762 C   0  0  0  0  0  0  0  0  0  0  0  0
  -35.4174   57.8029   60.0792 C   0  0  0  0  0  0  0  0  0  0  0  0
  -34.4561   58.5504   60.9878 C   0  0  0  0  0  0  0  0  0  0  0  0
  -34.9553   58.7317   62.3924 C   0  0  0  0  0  0  0  0  0  0  0  0
  -37.0720   58.9080   63.4380 C   0  0  0  0  0  0  0  0  0  0  0  0
  -37.3490   60.1700   64.2050 C   0  0  2  0  0  0  0  0  0  0  0  0
  -36.0840   60.8130   64.7130 C   0  0  0  0  0  0  0  0  0  0  0  0
  -33.0629   61.8967   66.8384 C   0  0  0  0  0  0  0  0  0  0  0  0
  -32.5283   60.9475   67.8826 C   0  0  2  0  0  0  0  0  0  0  0  0
  -31.0299   60.7830   67.7967 C   0  0  0  0  0  0  0  0  0  0  0  0
  -39.5790   59.7587   64.9875 C   0  0  0  0  0  0  0  0  0  0  0  0
  -40.2973   58.7848   65.8694 C   0  0  0  0  0  0  0  0  0  0  0  0
  -40.9171   57.6499   65.0603 C   0  0  0  0  0  0  0  0  0  0  0  0
  -39.9059   56.8244   64.2817 C   0  0  0  0  0  0  0  0  0  0  0  0
  -40.5353   55.7033   63.4627 C   0  0  0  0  0  0  0  0  0  0  0  0
  -41.5167   56.1844   62.4101 C   0  0  0  0  0  0  0  0  0  0  0  0
  -42.7037   56.9790   62.9620 C   0  0  0  0  0  0  0  0  0  0  0  0
  -43.7115   57.4568   61.9144 C   0  0  0  0  0  0  0  0  0  0  0  0
  -44.8340   58.2400   62.5264 C   0  0  0  0  0  0  0  0  0  0  0  0
  -45.6802   57.8167   63.4451 C   0  0  0  0  0  0  0  0  0  0  0  0
  -45.6950   56.4587   64.0728 C   0  0  0  0  0  0  0  0  0  0  0  0
  -47.0985   56.0220   64.4827 C   0  0  0  0  0  0  0  0  0  0  0  0
  -47.1436   54.6532   65.1389 C   0  0  0  0  0  0  0  0  0  0  0  0
  -46.3301   54.5632   66.4185 C   0  0  0  0  0  0  0  0  0  0  0  0
  -46.7783   55.5121   67.5177 C   0  0  0  0  0  0  0  0  0  0  0  0
  -48.2110   55.2785   67.9723 C   0  0  0  0  0  0  0  0  0  0  0  0
  -48.4646   53.8981   68.5450 C   0  0  0  0  0  0  0  0  0  0  0  0
  -49.8932   53.6975   68.9678 C   0  0  0  0  0  0  0  0  0  0  0  0
  -45.6272   46.4675   57.2683 H   0  0  0  0  0  0  0  0  0  0  0  0
  -45.6261   47.4100   58.7396 H   0  0  0  0  0  0  0  0  0  0  0  0
  -44.1624   46.6168   58.2091 H   0  0  0  0  0  0  0  0  0  0  0  0
  -45.5609   48.8451   56.7735 H   0  0  0  0  0  0  0  0  0  0  0  0
  -44.0712   48.0374   56.2663 H   0  0  0  0  0  0  0  0  0  0  0  0
  -44.4235   49.6332   58.7582 H   0  0  0  0  0  0  0  0  0  0  0  0
  -43.5985   50.1409   57.2571 H   0  0  0  0  0  0  0  0  0  0  0  0
  -41.9299   48.4890   57.5766 H   0  0  0  0  0  0  0  0  0  0  0  0
  -42.7519   47.9520   59.0586 H   0  0  0  0  0  0  0  0  0  0  0  0
  -40.8141   49.3038   59.5601 H   0  0  0  0  0  0  0  0  0  0  0  0
  -42.3388   50.0590   60.0762 H   0  0  0  0  0  0  0  0  0  0  0  0
  -36.5678   64.5693   66.3497 H   0  0  0  0  0  0  0  0  0  0  0  0
  -42.2804   51.5231   58.1996 H   0  0  0  0  0  0  0  0  0  0  0  0
  -40.7678   50.7611   57.6638 H   0  0  0  0  0  0  0  0  0  0  0  0
  -39.6490   51.5488   59.6154 H   0  0  0  0  0  0  0  0  0  0  0  0
  -41.1675   52.3002   60.1635 H   0  0  0  0  0  0  0  0  0  0  0  0
  -29.4170   61.9103   67.8967 H   0  0  0  0  0  0  0  0  0  0  0  0
  -41.1284   53.7998   58.3105 H   0  0  0  0  0  0  0  0  0  0  0  0
  -39.6215   53.0417   57.7433 H   0  0  0  0  0  0  0  0  0  0  0  0
  -34.1345   59.7963   67.7953 H   0  0  0  0  0  0  0  0  0  0  0  0
  -38.4754   53.8053   59.6793 H   0  0  0  0  0  0  0  0  0  0  0  0
  -39.9851   54.5509   60.2614 H   0  0  0  0  0  0  0  0  0  0  0  0
  -39.9737   56.0711   58.4333 H   0  0  0  0  0  0  0  0  0  0  0  0
  -38.4879   55.3252   57.8225 H   0  0  0  0  0  0  0  0  0  0  0  0
  -37.3059   56.0242   59.7786 H   0  0  0  0  0  0  0  0  0  0  0  0
  -38.7983   56.7595   60.4007 H   0  0  0  0  0  0  0  0  0  0  0  0
  -37.3054   58.4125   59.4948 H   0  0  0  0  0  0  0  0  0  0  0  0
  -38.8258   58.2851   58.5910 H   0  0  0  0  0  0  0  0  0  0  0  0
  -36.9419   58.5755   57.1185 H   0  0  0  0  0  0  0  0  0  0  0  0
  -37.7419   57.0050   56.9113 H   0  0  0  0  0  0  0  0  0  0  0  0
  -35.3401   56.7996   56.7867 H   0  0  0  0  0  0  0  0  0  0  0  0
  -36.0319   55.9442   58.1780 H   0  0  0  0  0  0  0  0  0  0  0  0
  -34.6768   58.5902   58.2666 H   0  0  0  0  0  0  0  0  0  0  0  0
  -33.9986   57.0177   58.7603 H   0  0  0  0  0  0  0  0  0  0  0  0
  -35.6052   56.8374   60.5003 H   0  0  0  0  0  0  0  0  0  0  0  0
  -36.3122   58.3853   60.0078 H   0  0  0  0  0  0  0  0  0  0  0  0
  -34.2793   59.5179   60.5666 H   0  0  0  0  0  0  0  0  0  0  0  0
  -33.5672   57.9580   61.0505 H   0  0  0  0  0  0  0  0  0  0  0  0
  -36.6274   58.1683   64.0706 H   0  0  0  0  0  0  0  0  0  0  0  0
  -37.9610   58.4631   63.0423 H   0  0  0  0  0  0  0  0  0  0  0  0
  -37.7985   60.8886   63.5519 H   0  0  0  0  0  0  0  0  0  0  0  0
  -35.5824   60.1428   65.3795 H   0  0  0  0  0  0  0  0  0  0  0  0
  -35.4356   61.0386   63.8923 H   0  0  0  0  0  0  0  0  0  0  0  0
  -32.5793   62.8466   66.9320 H   0  0  0  0  0  0  0  0  0  0  0  0
  -32.8745   61.5099   65.8587 H   0  0  0  0  0  0  0  0  0  0  0  0
  -32.7406   61.3632   68.8454 H   0  0  0  0  0  0  0  0  0  0  0  0
  -30.7047   60.1176   68.5690 H   0  0  0  0  0  0  0  0  0  0  0  0
  -30.7820   60.3848   66.8350 H   0  0  0  0  0  0  0  0  0  0  0  0
  -41.0729   59.2998   66.3967 H   0  0  0  0  0  0  0  0  0  0  0  0
  -39.5885   58.3631   66.5511 H   0  0  0  0  0  0  0  0  0  0  0  0
  -41.6131   58.0723   64.3660 H   0  0  0  0  0  0  0  0  0  0  0  0
  -41.3843   56.9890   65.7602 H   0  0  0  0  0  0  0  0  0  0  0  0
  -39.2170   56.3906   64.9760 H   0  0  0  0  0  0  0  0  0  0  0  0
  -39.4254   57.4859   63.5915 H   0  0  0  0  0  0  0  0  0  0  0  0
  -41.0535   55.0481   64.1314 H   0  0  0  0  0  0  0  0  0  0  0  0
  -39.7381   55.2147   62.9426 H   0  0  0  0  0  0  0  0  0  0  0  0
  -41.8988   55.3285   61.8940 H   0  0  0  0  0  0  0  0  0  0  0  0
  -40.9751   56.8513   61.7724 H   0  0  0  0  0  0  0  0  0  0  0  0
  -42.3191   57.8397   63.4681 H   0  0  0  0  0  0  0  0  0  0  0  0
  -43.2371   56.3089   63.6033 H   0  0  0  0  0  0  0  0  0  0  0  0
  -44.1192   56.6035   61.4138 H   0  0  0  0  0  0  0  0  0  0  0  0
  -43.1963   58.0990   61.2310 H   0  0  0  0  0  0  0  0  0  0  0  0
  -44.9570   59.2096   62.1948 H   0  0  0  0  0  0  0  0  0  0  0  0
  -46.4001   58.4853   63.7608 H   0  0  0  0  0  0  0  0  0  0  0  0
  -45.0726   56.4756   64.9430 H   0  0  0  0  0  0  0  0  0  0  0  0
  -45.3353   55.7600   63.3466 H   0  0  0  0  0  0  0  0  0  0  0  0
  -47.7140   55.9978   63.6078 H   0  0  0  0  0  0  0  0  0  0  0  0
  -47.4470   56.7281   65.2071 H   0  0  0  0  0  0  0  0  0  0  0  0
  -46.7629   53.9331   64.4450 H   0  0  0  0  0  0  0  0  0  0  0  0
  -48.1635   54.4659   65.4026 H   0  0  0  0  0  0  0  0  0  0  0  0
  -45.3100   54.7834   66.1823 H   0  0  0  0  0  0  0  0  0  0  0  0
  -46.4670   53.5719   66.7973 H   0  0  0  0  0  0  0  0  0  0  0  0
  -46.6976   56.5149   67.1534 H   0  0  0  0  0  0  0  0  0  0  0  0
  -46.1466   55.3359   68.3631 H   0  0  0  0  0  0  0  0  0  0  0  0
  -48.8567   55.4162   67.1303 H   0  0  0  0  0  0  0  0  0  0  0  0
  -48.4012   55.9775   68.7598 H   0  0  0  0  0  0  0  0  0  0  0  0
  -47.8330   53.7602   69.3976 H   0  0  0  0  0  0  0  0  0  0  0  0
  -48.2529   53.1856   67.7754 H   0  0  0  0  0  0  0  0  0  0  0  0
  -50.1384   54.3971   69.7394 H   0  0  0  0  0  0  0  0  0  0  0  0
  -50.0194   52.7010   69.3365 H   0  0  0  0  0  0  0  0  0  0  0  0
  -50.5385   53.8517   68.1284 H   0  0  0  0  0  0  0  0  0  0  0  0
  1  4  1  0  0  0  0
  1 54  1  0  0  0  0
  1 55  1  0  0  0  0
  1 56  1  0  0  0  0
  2 29  2  0  0  0  0
  3  7  1  0  0  0  0
  3  9  2  6  0  0  0
  3 11  1  0  0  0  0
  3 13  1  0  0  0  0
  4  6  1  0  0  0  0
  4 57  1  0  0  0  0
  4 58  1  0  0  0  0
  5 29  1  0  0  0  0
  5 30  1  0  0  0  0
  6  8  1  0  0  0  0
  6 59  1  0  0  0  0
  6 60  1  0  0  0  0
  7 32  1  0  0  0  0
  8 10  1  0  0  0  0
  8 61  1  0  0  0  0
  8 62  1  0  0  0  0
 10 12  1  0  0  0  0
 10 63  1  0  0  0  0
 10 64  1  0  0  0  0
 11 65  1  0  0  0  0
 12 14  1  0  0  0  0
 12 66  1  0  0  0  0
 12 67  1  0  0  0  0
 13 33  1  0  0  0  0
 14 16  1  0  0  0  0
 14 68  1  0  0  0  0
 14 69  1  0  0  0  0
 15 35  1  0  0  0  0
 15 70  1  0  0  0  0
 16 18  1  0  0  0  0
 16 71  1  0  0  0  0
 16 72  1  0  0  0  0
 17 34  1  0  0  0  0
 17 73  1  0  0  0  0
 18 20  1  0  0  0  0
 18 74  1  0  0  0  0
 18 75  1  0  0  0  0
 19 31  1  0  0  0  0
 19 36  1  0  0  0  0
 20 22  1  0  0  0  0
 20 76  1  0  0  0  0
 20 77  1  0  0  0  0
 21 36  2  0  0  0  0
 22 23  1  0  0  0  0
 22 78  1  0  0  0  0
 22 79  1  0  0  0  0
 23 24  1  0  0  0  0
 23 80  1  0  0  0  0
 23 81  1  0  0  0  0
 24 25  1  0  0  0  0
 24 82  1  0  0  0  0
 24 83  1  0  0  0  0
 25 26  1  0  0  0  0
 25 84  1  0  0  0  0
 25 85  1  0  0  0  0
 26 27  1  0  0  0  0
 26 86  1  0  0  0  0
 26 87  1  0  0  0  0
 27 28  1  0  0  0  0
 27 88  1  0  0  0  0
 27 89  1  0  0  0  0
 28 29  1  0  0  0  0
 28 90  1  0  0  0  0
 28 91  1  0  0  0  0
 30 31  1  0  0  0  0
 30 92  1  0  0  0  0
 30 93  1  0  0  0  0
 31 32  1  0  0  0  0
 31 94  1  6  0  0  0
 32 95  1  0  0  0  0
 32 96  1  0  0  0  0
 33 34  1  0  0  0  0
 33 97  1  0  0  0  0
 33 98  1  0  0  0  0
 34 35  1  0  0  0  0
 34 99  1  1  0  0  0
 35100  1  0  0  0  0
 35101  1  0  0  0  0
 36 37  1  0  0  0  0
 37 38  1  0  0  0  0
 37102  1  0  0  0  0
 37103  1  0  0  0  0
 38 39  1  0  0  0  0
 38104  1  0  0  0  0
 38105  1  0  0  0  0
 39 40  1  0  0  0  0
 39106  1  0  0  0  0
 39107  1  0  0  0  0
 40 41  1  0  0  0  0
 40108  1  0  0  0  0
 40109  1  0  0  0  0
 41 42  1  0  0  0  0
 41110  1  0  0  0  0
 41111  1  0  0  0  0
 42 43  1  0  0  0  0
 42112  1  0  0  0  0
 42113  1  0  0  0  0
 43 44  1  0  0  0  0
 43114  1  0  0  0  0
 43115  1  0  0  0  0
 44 45  2  0  0  0  0
 44116  1  0  0  0  0
 45 46  1  0  0  0  0
 45117  1  0  0  0  0
 46 47  1  0  0  0  0
 46118  1  0  0  0  0
 46119  1  0  0  0  0
 47 48  1  0  0  0  0
 47120  1  0  0  0  0
 47121  1  0  0  0  0
 48 49  1  0  0  0  0
 48122  1  0  0  0  0
 48123  1  0  0  0  0
 49 50  1  0  0  0  0
 49124  1  0  0  0  0
 49125  1  0  0  0  0
 50 51  1  0  0  0  0
 50126  1  0  0  0  0
 50127  1  0  0  0  0
 51 52  1  0  0  0  0
 51128  1  0  0  0  0
 51129  1  0  0  0  0
 52 53  1  0  0  0  0
 52130  1  0  0  0  0
 52131  1  0  0  0  0
 53132  1  0  0  0  0
 53133  1  0  0  0  0
 53134  1  0  0  0  0
M  CHG  1   9  -1
M  END
$$$$
/media/chris/experiments/cd1a-new-docking/inputs/ligands/7sh4_ligand.pdb
 OpenBabel07012320073D

134133  0  0  1  0  0  0  0  0999 V2000
  -27.8118   60.9233   55.5717 C   0  0  0  0  0  0  0  0  0  0  0  0
  -37.6819   60.5663   61.3545 O   0  0  0  0  0  0  0  0  0  0  0  0
  -35.3336   62.9877   66.0786 P   0  0  1  0  0  0  0  0  0  0  0  0
  -28.8173   60.9295   56.7008 C   0  0  0  0  0  0  0  0  0  0  0  0
  -36.1511   59.3213   62.4064 O   0  0  0  0  0  0  0  0  0  0  0  0
  -30.2483   60.8661   56.2013 C   0  0  0  0  0  0  0  0  0  0  0  0
  -36.4293   62.0282   65.4148 O   0  0  0  0  0  0  0  0  0  0  0  0
  -31.3036   60.8864   57.2926 C   0  0  0  0  0  0  0  0  0  0  0  0
  -34.9300   63.9895   65.0686 O   0  5  0  0  0  0  0  0  0  0  0  0
  -32.7288   60.8045   56.7636 C   0  0  0  0  0  0  0  0  0  0  0  0
  -35.8630   63.4617   67.3801 O   0  0  0  0  0  0  0  0  0  0  0  0
  -33.0149   59.5382   55.9828 C   0  0  0  0  0  0  0  0  0  0  0  0
  -34.0759   62.0526   66.3727 O   0  0  0  0  0  0  0  0  0  0  0  0
  -32.8373   58.2731   56.8002 C   0  0  0  0  0  0  0  0  0  0  0  0
  -32.9666   64.0914   67.3048 O   0  0  0  0  0  0  0  0  0  0  0  0
  -33.1056   56.9900   56.0218 C   0  0  0  0  0  0  0  0  0  0  0  0
  -33.8157   61.7610   70.0015 O   0  0  0  0  0  0  0  0  0  0  0  0
  -32.9438   55.7295   56.8454 C   0  0  0  0  0  0  0  0  0  0  0  0
  -38.2720   59.8520   65.2990 O   0  0  0  0  0  0  0  0  0  0  0  0
  -31.5607   55.5515   57.4382 C   0  0  0  0  0  0  0  0  0  0  0  0
  -39.6513   58.6615   63.9798 O   0  0  0  0  0  0  0  0  0  0  0  0
  -31.1776   56.6753   58.3754 C   0  0  0  0  0  0  0  0  0  0  0  0
  -32.0987   56.8063   59.5594 C   0  0  0  0  0  0  0  0  0  0  0  0
  -31.7186   57.9405   60.4796 C   0  0  0  0  0  0  0  0  0  0  0  0
  -32.6329   58.0654   61.6815 C   0  0  0  0  0  0  0  0  0  0  0  0
  -34.0785   58.2971   61.3042 C   0  0  0  0  0  0  0  0  0  0  0  0
  -34.3125   59.5482   60.4841 C   0  0  0  0  0  0  0  0  0  0  0  0
  -35.7767   59.7589   60.1375 C   0  0  0  0  0  0  0  0  0  0  0  0
  -36.6737   59.9130   61.3318 C   0  0  0  0  0  0  0  0  0  0  0  0
  -37.0720   58.9080   63.4380 C   0  0  0  0  0  0  0  0  0  0  0  0
  -37.3490   60.1700   64.2050 C   0  0  2  0  0  0  0  0  0  0  0  0
  -36.0840   60.8130   64.7130 C   0  0  0  0  0  0  0  0  0  0  0  0
  -33.9612   61.3753   67.6409 C   0  0  0  0  0  0  0  0  0  0  0  0
  -33.9457   62.4141   68.7353 C   0  0  2  0  0  0  0  0  0  0  0  0
  -32.8381   63.4241   68.5537 C   0  0  0  0  0  0  0  0  0  0  0  0
  -39.4672   59.3329   64.9581 C   0  0  0  0  0  0  0  0  0  0  0  0
  -40.5321   59.6773   65.9527 C   0  0  0  0  0  0  0  0  0  0  0  0
  -41.6671   60.4650   65.3061 C   0  0  0  0  0  0  0  0  0  0  0  0
  -42.7724   60.8588   66.2720 C   0  0  0  0  0  0  0  0  0  0  0  0
  -43.4410   59.6692   66.9515 C   0  0  0  0  0  0  0  0  0  0  0  0
  -44.0806   58.6874   65.9874 C   0  0  0  0  0  0  0  0  0  0  0  0
  -45.1688   59.2896   65.0941 C   0  0  0  0  0  0  0  0  0  0  0  0
  -45.8355   58.3081   64.1277 C   0  0  0  0  0  0  0  0  0  0  0  0
  -44.8484   57.6804   63.1898 C   0  0  0  0  0  0  0  0  0  0  0  0
  -45.0829   57.2713   61.9581 C   0  0  0  0  0  0  0  0  0  0  0  0
  -46.3906   57.3506   61.2356 C   0  0  0  0  0  0  0  0  0  0  0  0
  -46.9060   55.9782   60.8120 C   0  0  0  0  0  0  0  0  0  0  0  0
  -47.1525   55.0339   61.9755 C   0  0  0  0  0  0  0  0  0  0  0  0
  -47.6493   53.6621   61.5529 C   0  0  0  0  0  0  0  0  0  0  0  0
  -47.9182   52.7075   62.7044 C   0  0  0  0  0  0  0  0  0  0  0  0
  -48.3982   51.3361   62.2547 C   0  0  0  0  0  0  0  0  0  0  0  0
  -48.6878   50.3750   63.3905 C   0  0  0  0  0  0  0  0  0  0  0  0
  -47.4868   50.1214   64.2582 C   0  0  0  0  0  0  0  0  0  0  0  0
  -26.8220   60.9692   55.9754 H   0  0  0  0  0  0  0  0  0  0  0  0
  -27.9792   61.7708   54.9404 H   0  0  0  0  0  0  0  0  0  0  0  0
  -27.9227   60.0255   55.0003 H   0  0  0  0  0  0  0  0  0  0  0  0
  -28.6911   61.8277   57.2684 H   0  0  0  0  0  0  0  0  0  0  0  0
  -28.6417   60.0597   57.2987 H   0  0  0  0  0  0  0  0  0  0  0  0
  -30.3658   59.9621   55.6410 H   0  0  0  0  0  0  0  0  0  0  0  0
  -30.4028   61.7480   55.6155 H   0  0  0  0  0  0  0  0  0  0  0  0
  -31.2001   61.7960   57.8465 H   0  0  0  0  0  0  0  0  0  0  0  0
  -31.1440   60.0199   57.8997 H   0  0  0  0  0  0  0  0  0  0  0  0
  -32.8999   61.6434   56.1219 H   0  0  0  0  0  0  0  0  0  0  0  0
  -33.3789   60.8024   57.6135 H   0  0  0  0  0  0  0  0  0  0  0  0
  -36.6310   64.0342   67.2275 H   0  0  0  0  0  0  0  0  0  0  0  0
  -32.3489   59.4978   55.1463 H   0  0  0  0  0  0  0  0  0  0  0  0
  -34.0409   59.5780   55.6816 H   0  0  0  0  0  0  0  0  0  0  0  0
  -33.5120   58.3108   57.6298 H   0  0  0  0  0  0  0  0  0  0  0  0
  -31.8119   58.2422   57.1045 H   0  0  0  0  0  0  0  0  0  0  0  0
  -32.2475   64.7349   67.2066 H   0  0  0  0  0  0  0  0  0  0  0  0
  -32.4227   56.9455   55.1993 H   0  0  0  0  0  0  0  0  0  0  0  0
  -34.1270   57.0259   55.7050 H   0  0  0  0  0  0  0  0  0  0  0  0
  -34.5316   61.1152   70.1073 H   0  0  0  0  0  0  0  0  0  0  0  0
  -33.1509   54.8886   56.2170 H   0  0  0  0  0  0  0  0  0  0  0  0
  -33.6242   55.8084   57.6674 H   0  0  0  0  0  0  0  0  0  0  0  0
  -30.8487   55.5136   56.6403 H   0  0  0  0  0  0  0  0  0  0  0  0
  -31.5671   54.6450   58.0066 H   0  0  0  0  0  0  0  0  0  0  0  0
  -31.1958   57.5946   57.8281 H   0  0  0  0  0  0  0  0  0  0  0  0
  -30.2032   56.4509   58.7563 H   0  0  0  0  0  0  0  0  0  0  0  0
  -32.0714   55.8925   60.1154 H   0  0  0  0  0  0  0  0  0  0  0  0
  -33.0778   57.0150   59.1817 H   0  0  0  0  0  0  0  0  0  0  0  0
  -31.7577   58.8554   59.9260 H   0  0  0  0  0  0  0  0  0  0  0  0
  -30.7351   57.7356   60.8479 H   0  0  0  0  0  0  0  0  0  0  0  0
  -32.3003   58.8888   62.2785 H   0  0  0  0  0  0  0  0  0  0  0  0
  -32.5865   57.1395   62.2158 H   0  0  0  0  0  0  0  0  0  0  0  0
  -34.6522   58.3734   62.2042 H   0  0  0  0  0  0  0  0  0  0  0  0
  -34.3735   57.4694   60.6937 H   0  0  0  0  0  0  0  0  0  0  0  0
  -33.7536   59.4707   59.5750 H   0  0  0  0  0  0  0  0  0  0  0  0
  -33.9973   60.3837   61.0736 H   0  0  0  0  0  0  0  0  0  0  0  0
  -36.1128   58.9154   59.5715 H   0  0  0  0  0  0  0  0  0  0  0  0
  -35.8348   60.6752   59.5879 H   0  0  0  0  0  0  0  0  0  0  0  0
  -36.6274   58.1683   64.0706 H   0  0  0  0  0  0  0  0  0  0  0  0
  -37.9610   58.4631   63.0423 H   0  0  0  0  0  0  0  0  0  0  0  0
  -37.7985   60.8886   63.5519 H   0  0  0  0  0  0  0  0  0  0  0  0
  -35.5824   60.1428   65.3795 H   0  0  0  0  0  0  0  0  0  0  0  0
  -35.4356   61.0386   63.8923 H   0  0  0  0  0  0  0  0  0  0  0  0
  -33.0538   60.8089   67.6674 H   0  0  0  0  0  0  0  0  0  0  0  0
  -34.7869   60.7088   67.7780 H   0  0  0  0  0  0  0  0  0  0  0  0
  -34.8687   62.9537   68.6905 H   0  0  0  0  0  0  0  0  0  0  0  0
  -32.8865   64.1443   69.3435 H   0  0  0  0  0  0  0  0  0  0  0  0
  -31.8988   62.9122   68.5753 H   0  0  0  0  0  0  0  0  0  0  0  0
  -40.1005   60.2674   66.7340 H   0  0  0  0  0  0  0  0  0  0  0  0
  -40.9352   58.7659   66.3422 H   0  0  0  0  0  0  0  0  0  0  0  0
  -42.0953   59.8640   64.5312 H   0  0  0  0  0  0  0  0  0  0  0  0
  -41.2417   61.3735   64.9340 H   0  0  0  0  0  0  0  0  0  0  0  0
  -43.5181   61.4017   65.7298 H   0  0  0  0  0  0  0  0  0  0  0  0
  -42.3207   61.4476   67.0429 H   0  0  0  0  0  0  0  0  0  0  0  0
  -44.2006   60.0397   67.6077 H   0  0  0  0  0  0  0  0  0  0  0  0
  -42.6718   59.1367   67.4708 H   0  0  0  0  0  0  0  0  0  0  0  0
  -44.5179   57.8954   66.5586 H   0  0  0  0  0  0  0  0  0  0  0  0
  -43.3021   58.3528   65.3340 H   0  0  0  0  0  0  0  0  0  0  0  0
  -44.7263   60.0739   64.5163 H   0  0  0  0  0  0  0  0  0  0  0  0
  -45.9408   59.6277   65.7534 H   0  0  0  0  0  0  0  0  0  0  0  0
  -46.5699   58.8340   63.5541 H   0  0  0  0  0  0  0  0  0  0  0  0
  -46.2813   57.5270   64.7074 H   0  0  0  0  0  0  0  0  0  0  0  0
  -43.8873   57.5557   63.5443 H   0  0  0  0  0  0  0  0  0  0  0  0
  -44.2895   56.8574   61.4442 H   0  0  0  0  0  0  0  0  0  0  0  0
  -46.2641   57.9548   60.3617 H   0  0  0  0  0  0  0  0  0  0  0  0
  -47.1082   57.7756   61.9060 H   0  0  0  0  0  0  0  0  0  0  0  0
  -46.1831   55.5317   60.1616 H   0  0  0  0  0  0  0  0  0  0  0  0
  -47.8483   56.1329   60.3293 H   0  0  0  0  0  0  0  0  0  0  0  0
  -47.8845   55.4749   62.6194 H   0  0  0  0  0  0  0  0  0  0  0  0
  -46.2124   54.8890   62.4656 H   0  0  0  0  0  0  0  0  0  0  0  0
  -46.9104   53.2200   60.9177 H   0  0  0  0  0  0  0  0  0  0  0  0
  -48.5864   53.8162   61.0599 H   0  0  0  0  0  0  0  0  0  0  0  0
  -48.6677   53.1391   63.3344 H   0  0  0  0  0  0  0  0  0  0  0  0
  -46.9905   52.5641   63.2180 H   0  0  0  0  0  0  0  0  0  0  0  0
  -47.6421   50.9031   61.6336 H   0  0  0  0  0  0  0  0  0  0  0  0
  -49.3226   51.4884   61.7379 H   0  0  0  0  0  0  0  0  0  0  0  0
  -49.0132   49.4437   62.9761 H   0  0  0  0  0  0  0  0  0  0  0  0
  -49.4418   50.8203   64.0055 H   0  0  0  0  0  0  0  0  0  0  0  0
  -46.7112   49.6747   63.6719 H   0  0  0  0  0  0  0  0  0  0  0  0
  -47.7561   49.4610   65.0559 H   0  0  0  0  0  0  0  0  0  0  0  0
  -47.1382   51.0478   64.6645 H   0  0  0  0  0  0  0  0  0  0  0  0
  1  4  1  0  0  0  0
  1 54  1  0  0  0  0
  1 55  1  0  0  0  0
  1 56  1  0  0  0  0
  2 29  2  0  0  0  0
  3  7  1  0  0  0  0
  3  9  2  6  0  0  0
  3 11  1  0  0  0  0
  3 13  1  0  0  0  0
  4  6  1  0  0  0  0
  4 57  1  0  0  0  0
  4 58  1  0  0  0  0
  5 29  1  0  0  0  0
  5 30  1  0  0  0  0
  6  8  1  0  0  0  0
  6 59  1  0  0  0  0
  6 60  1  0  0  0  0
  7 32  1  0  0  0  0
  8 10  1  0  0  0  0
  8 61  1  0  0  0  0
  8 62  1  0  0  0  0
 10 12  1  0  0  0  0
 10 63  1  0  0  0  0
 10 64  1  0  0  0  0
 11 65  1  0  0  0  0
 12 14  1  0  0  0  0
 12 66  1  0  0  0  0
 12 67  1  0  0  0  0
 13 33  1  0  0  0  0
 14 16  1  0  0  0  0
 14 68  1  0  0  0  0
 14 69  1  0  0  0  0
 15 35  1  0  0  0  0
 15 70  1  0  0  0  0
 16 18  1  0  0  0  0
 16 71  1  0  0  0  0
 16 72  1  0  0  0  0
 17 34  1  0  0  0  0
 17 73  1  0  0  0  0
 18 20  1  0  0  0  0
 18 74  1  0  0  0  0
 18 75  1  0  0  0  0
 19 31  1  0  0  0  0
 19 36  1  0  0  0  0
 20 22  1  0  0  0  0
 20 76  1  0  0  0  0
 20 77  1  0  0  0  0
 21 36  2  0  0  0  0
 22 23  1  0  0  0  0
 22 78  1  0  0  0  0
 22 79  1  0  0  0  0
 23 24  1  0  0  0  0
 23 80  1  0  0  0  0
 23 81  1  0  0  0  0
 24 25  1  0  0  0  0
 24 82  1  0  0  0  0
 24 83  1  0  0  0  0
 25 26  1  0  0  0  0
 25 84  1  0  0  0  0
 25 85  1  0  0  0  0
 26 27  1  0  0  0  0
 26 86  1  0  0  0  0
 26 87  1  0  0  0  0
 27 28  1  0  0  0  0
 27 88  1  0  0  0  0
 27 89  1  0  0  0  0
 28 29  1  0  0  0  0
 28 90  1  0  0  0  0
 28 91  1  0  0  0  0
 30 31  1  0  0  0  0
 30 92  1  0  0  0  0
 30 93  1  0  0  0  0
 31 32  1  0  0  0  0
 31 94  1  6  0  0  0
 32 95  1  0  0  0  0
 32 96  1  0  0  0  0
 33 34  1  0  0  0  0
 33 97  1  0  0  0  0
 33 98  1  0  0  0  0
 34 35  1  0  0  0  0
 34 99  1  6  0  0  0
 35100  1  0  0  0  0
 35101  1  0  0  0  0
 36 37  1  0  0  0  0
 37 38  1  0  0  0  0
 37102  1  0  0  0  0
 37103  1  0  0  0  0
 38 39  1  0  0  0  0
 38104  1  0  0  0  0
 38105  1  0  0  0  0
 39 40  1  0  0  0  0
 39106  1  0  0  0  0
 39107  1  0  0  0  0
 40 41  1  0  0  0  0
 40108  1  0  0  0  0
 40109  1  0  0  0  0
 41 42  1  0  0  0  0
 41110  1  0  0  0  0
 41111  1  0  0  0  0
 42 43  1  0  0  0  0
 42112  1  0  0  0  0
 42113  1  0  0  0  0
 43 44  1  0  0  0  0
 43114  1  0  0  0  0
 43115  1  0  0  0  0
 44 45  2  0  0  0  0
 44116  1  0  0  0  0
 45 46  1  0  0  0  0
 45117  1  0  0  0  0
 46 47  1  0  0  0  0
 46118  1  0  0  0  0
 46119  1  0  0  0  0
 47 48  1  0  0  0  0
 47120  1  0  0  0  0
 47121  1  0  0  0  0
 48 49  1  0  0  0  0
 48122  1  0  0  0  0
 48123  1  0  0  0  0
 49 50  1  0  0  0  0
 49124  1  0  0  0  0
 49125  1  0  0  0  0
 50 51  1  0  0  0  0
 50126  1  0  0  0  0
 50127  1  0  0  0  0
 51 52  1  0  0  0  0
 51128  1  0  0  0  0
 51129  1  0  0  0  0
 52 53  1  0  0  0  0
 52130  1  0  0  0  0
 52131  1  0  0  0  0
 53132  1  0  0  0  0
 53133  1  0  0  0  0
 53134  1  0  0  0  0
M  CHG  1   9  -1
M  END
$$$$
/media/chris/experiments/cd1a-new-docking/inputs/ligands/7sh4_ligand.pdb
 OpenBabel07012320073D

134133  0  0  1  0  0  0  0  0999 V2000
  -44.2559   51.3392   54.1570 C   0  0  0  0  0  0  0  0  0  0  0  0
  -39.2991   60.4756   62.4545 O   0  0  0  0  0  0  0  0  0  0  0  0
  -34.0491   60.2433   66.3537 P   0  0  1  0  0  0  0  0  0  0  0  0
  -42.7772   51.1622   53.8961 C   0  0  0  0  0  0  0  0  0  0  0  0
  -38.3690   58.5038   62.9506 O   0  0  0  0  0  0  0  0  0  0  0  0
  -42.0242   52.4788   53.9189 C   0  0  0  0  0  0  0  0  0  0  0  0
  -35.4212   59.8922   65.6081 O   0  0  0  0  0  0  0  0  0  0  0  0
  -42.0919   53.2267   55.2385 C   0  0  0  0  0  0  0  0  0  0  0  0
  -33.2899   61.1805   65.4982 O   0  5  0  0  0  0  0  0  0  0  0  0
  -41.3421   54.5515   55.2272 C   0  0  0  0  0  0  0  0  0  0  0  0
  -34.3697   60.6479   67.7438 O   0  0  0  0  0  0  0  0  0  0  0  0
  -39.8663   54.4114   54.9147 C   0  0  0  0  0  0  0  0  0  0  0  0
  -33.2397   58.8709   66.4173 O   0  0  0  0  0  0  0  0  0  0  0  0
  -39.1208   55.7321   54.9214 C   0  0  0  0  0  0  0  0  0  0  0  0
  -36.2062   57.0374   68.6802 O   0  0  0  0  0  0  0  0  0  0  0  0
  -39.6539   56.7494   53.9189 C   0  0  0  0  0  0  0  0  0  0  0  0
  -35.6889   56.1935   66.0253 O   0  0  0  0  0  0  0  0  0  0  0  0
  -38.8967   58.0608   53.9164 C   0  0  0  0  0  0  0  0  0  0  0  0
  -38.2720   59.8520   65.2990 O   0  0  0  0  0  0  0  0  0  0  0  0
  -38.9005   58.7796   55.2504 C   0  0  0  0  0  0  0  0  0  0  0  0
  -37.1354   58.2625   66.4133 O   0  0  0  0  0  0  0  0  0  0  0  0
  -38.2595   57.9672   56.3537 C   0  0  0  0  0  0  0  0  0  0  0  0
  -38.2703   58.6608   57.6902 C   0  0  0  0  0  0  0  0  0  0  0  0
  -37.5468   59.9851   57.6732 C   0  0  0  0  0  0  0  0  0  0  0  0
  -37.5406   60.6788   59.0203 C   0  0  0  0  0  0  0  0  0  0  0  0
  -38.9293   60.9656   59.5449 C   0  0  0  0  0  0  0  0  0  0  0  0
  -39.7789   59.7306   59.7584 C   0  0  0  0  0  0  0  0  0  0  0  0
  -39.1768   58.7699   60.7698 C   0  0  0  0  0  0  0  0  0  0  0  0
  -39.0024   59.3540   62.1421 C   0  0  0  0  0  0  0  0  0  0  0  0
  -37.0720   58.9080   63.4380 C   0  0  0  0  0  0  0  0  0  0  0  0
  -37.3490   60.1700   64.2050 C   0  0  2  0  0  0  0  0  0  0  0  0
  -36.0840   60.8130   64.7130 C   0  0  0  0  0  0  0  0  0  0  0  0
  -33.8095   57.6705   65.8565 C   0  0  0  0  0  0  0  0  0  0  0  0
  -35.1162   57.3915   66.5577 C   0  0  2  0  0  0  0  0  0  0  0  0
  -34.9512   57.2701   68.0537 C   0  0  0  0  0  0  0  0  0  0  0  0
  -37.7394   59.3002   66.4062 C   0  0  0  0  0  0  0  0  0  0  0  0
  -37.9745   60.1431   67.6212 C   0  0  0  0  0  0  0  0  0  0  0  0
  -36.8474   59.9862   68.6369 C   0  0  0  0  0  0  0  0  0  0  0  0
  -37.0390   60.8067   69.9019 C   0  0  0  0  0  0  0  0  0  0  0  0
  -35.9000   60.6572   70.9039 C   0  0  0  0  0  0  0  0  0  0  0  0
  -36.0898   61.4594   72.1779 C   0  0  0  0  0  0  0  0  0  0  0  0
  -34.9450   61.3323   73.1869 C   0  0  0  0  0  0  0  0  0  0  0  0
  -33.5781   61.8016   72.6840 C   0  0  0  0  0  0  0  0  0  0  0  0
  -32.5065   61.6312   73.7187 C   0  0  0  0  0  0  0  0  0  0  0  0
  -31.2281   61.3948   73.4968 C   0  0  0  0  0  0  0  0  0  0  0  0
  -30.5771   61.2483   72.1577 C   0  0  0  0  0  0  0  0  0  0  0  0
  -29.9190   59.8835   71.9764 C   0  0  0  0  0  0  0  0  0  0  0  0
  -30.8907   58.7205   72.0743 C   0  0  0  0  0  0  0  0  0  0  0  0
  -30.2331   57.3611   71.9108 C   0  0  0  0  0  0  0  0  0  0  0  0
  -31.1918   56.1845   71.9888 C   0  0  0  0  0  0  0  0  0  0  0  0
  -31.9469   56.1049   73.3068 C   0  0  0  0  0  0  0  0  0  0  0  0
  -32.8144   57.3127   73.6006 C   0  0  0  0  0  0  0  0  0  0  0  0
  -33.5317   57.2070   74.9174 C   0  0  0  0  0  0  0  0  0  0  0  0
  -44.7395   50.3851   54.1303 H   0  0  0  0  0  0  0  0  0  0  0  0
  -44.6772   51.9737   53.4055 H   0  0  0  0  0  0  0  0  0  0  0  0
  -44.3975   51.7840   55.1198 H   0  0  0  0  0  0  0  0  0  0  0  0
  -42.6496   50.7100   52.9348 H   0  0  0  0  0  0  0  0  0  0  0  0
  -42.3800   50.5457   54.6753 H   0  0  0  0  0  0  0  0  0  0  0  0
  -42.4328   53.1095   53.1572 H   0  0  0  0  0  0  0  0  0  0  0  0
  -40.9934   52.2397   53.7601 H   0  0  0  0  0  0  0  0  0  0  0  0
  -41.6703   52.6059   56.0012 H   0  0  0  0  0  0  0  0  0  0  0  0
  -43.1223   53.4508   55.4197 H   0  0  0  0  0  0  0  0  0  0  0  0
  -41.4420   55.0048   56.1912 H   0  0  0  0  0  0  0  0  0  0  0  0
  -41.7718   55.1482   54.4499 H   0  0  0  0  0  0  0  0  0  0  0  0
  -34.8636   61.4827   67.7318 H   0  0  0  0  0  0  0  0  0  0  0  0
  -39.7654   53.9699   53.9452 H   0  0  0  0  0  0  0  0  0  0  0  0
  -39.4372   53.8027   55.6831 H   0  0  0  0  0  0  0  0  0  0  0  0
  -38.0935   55.5400   54.6920 H   0  0  0  0  0  0  0  0  0  0  0  0
  -39.2527   56.1575   55.8943 H   0  0  0  0  0  0  0  0  0  0  0  0
  -36.0800   56.9623   69.6390 H   0  0  0  0  0  0  0  0  0  0  0  0
  -40.6777   56.9515   54.1557 H   0  0  0  0  0  0  0  0  0  0  0  0
  -39.5353   56.3195   52.9463 H   0  0  0  0  0  0  0  0  0  0  0  0
  -35.7902   56.2827   65.0647 H   0  0  0  0  0  0  0  0  0  0  0  0
  -39.3417   58.7044   53.1866 H   0  0  0  0  0  0  0  0  0  0  0  0
  -37.8763   57.8277   53.6943 H   0  0  0  0  0  0  0  0  0  0  0  0
  -39.9137   58.9884   55.5237 H   0  0  0  0  0  0  0  0  0  0  0  0
  -38.3284   59.6765   55.1356 H   0  0  0  0  0  0  0  0  0  0  0  0
  -37.2435   57.7690   56.0826 H   0  0  0  0  0  0  0  0  0  0  0  0
  -38.8323   57.0696   56.4588 H   0  0  0  0  0  0  0  0  0  0  0  0
  -37.7985   58.0238   58.4088 H   0  0  0  0  0  0  0  0  0  0  0  0
  -39.2919   58.8575   57.9404 H   0  0  0  0  0  0  0  0  0  0  0  0
  -38.0265   60.6257   56.9629 H   0  0  0  0  0  0  0  0  0  0  0  0
  -36.5281   59.7878   57.4122 H   0  0  0  0  0  0  0  0  0  0  0  0
  -37.0146   61.6056   58.9240 H   0  0  0  0  0  0  0  0  0  0  0  0
  -37.0657   60.0198   59.7168 H   0  0  0  0  0  0  0  0  0  0  0  0
  -39.4290   61.5996   58.8427 H   0  0  0  0  0  0  0  0  0  0  0  0
  -38.8072   61.4245   60.5038 H   0  0  0  0  0  0  0  0  0  0  0  0
  -39.8832   59.2214   58.8231 H   0  0  0  0  0  0  0  0  0  0  0  0
  -40.7244   60.0523   60.1425 H   0  0  0  0  0  0  0  0  0  0  0  0
  -38.2168   58.4625   60.4109 H   0  0  0  0  0  0  0  0  0  0  0  0
  -39.8626   57.9543   60.8666 H   0  0  0  0  0  0  0  0  0  0  0  0
  -36.4020   59.0962   62.6252 H   0  0  0  0  0  0  0  0  0  0  0  0
  -36.6048   58.1555   64.0382 H   0  0  0  0  0  0  0  0  0  0  0  0
  -37.7985   60.8886   63.5519 H   0  0  0  0  0  0  0  0  0  0  0  0
  -35.4401   61.0403   63.8892 H   0  0  0  0  0  0  0  0  0  0  0  0
  -36.3193   61.7188   65.2317 H   0  0  0  0  0  0  0  0  0  0  0  0
  -33.1386   56.8498   66.0021 H   0  0  0  0  0  0  0  0  0  0  0  0
  -33.9750   57.7975   64.8070 H   0  0  0  0  0  0  0  0  0  0  0  0
  -35.7677   58.2222   66.3834 H   0  0  0  0  0  0  0  0  0  0  0  0
  -34.2941   56.4537   68.2695 H   0  0  0  0  0  0  0  0  0  0  0  0
  -34.5430   58.1846   68.4302 H   0  0  0  0  0  0  0  0  0  0  0  0
  -38.8965   59.8473   68.0766 H   0  0  0  0  0  0  0  0  0  0  0  0
  -38.0119   61.1682   67.3167 H   0  0  0  0  0  0  0  0  0  0  0  0
  -35.9319   60.2902   68.1737 H   0  0  0  0  0  0  0  0  0  0  0  0
  -36.8368   58.9579   68.9325 H   0  0  0  0  0  0  0  0  0  0  0  0
  -37.9475   60.4945   70.3732 H   0  0  0  0  0  0  0  0  0  0  0  0
  -37.0658   61.8352   69.6080 H   0  0  0  0  0  0  0  0  0  0  0  0
  -34.9943   60.9805   70.4346 H   0  0  0  0  0  0  0  0  0  0  0  0
  -35.8712   59.6262   71.1886 H   0  0  0  0  0  0  0  0  0  0  0  0
  -36.9902   61.1267   72.6508 H   0  0  0  0  0  0  0  0  0  0  0  0
  -36.1248   62.4883   71.8864 H   0  0  0  0  0  0  0  0  0  0  0  0
  -34.8601   60.3020   73.4632 H   0  0  0  0  0  0  0  0  0  0  0  0
  -35.1971   61.9747   74.0046 H   0  0  0  0  0  0  0  0  0  0  0  0
  -33.6437   62.8371   72.4227 H   0  0  0  0  0  0  0  0  0  0  0  0
  -33.3158   61.2029   71.8369 H   0  0  0  0  0  0  0  0  0  0  0  0
  -32.7992   61.7066   74.7055 H   0  0  0  0  0  0  0  0  0  0  0  0
  -30.6194   61.3022   74.3249 H   0  0  0  0  0  0  0  0  0  0  0  0
  -29.8293   62.0066   72.0545 H   0  0  0  0  0  0  0  0  0  0  0  0
  -31.3389   61.3444   71.4126 H   0  0  0  0  0  0  0  0  0  0  0  0
  -29.1726   59.7650   72.7338 H   0  0  0  0  0  0  0  0  0  0  0  0
  -29.5055   59.8639   70.9898 H   0  0  0  0  0  0  0  0  0  0  0  0
  -31.6300   58.8326   71.3090 H   0  0  0  0  0  0  0  0  0  0  0  0
  -31.3134   58.7476   73.0569 H   0  0  0  0  0  0  0  0  0  0  0  0
  -29.5019   57.2483   72.6837 H   0  0  0  0  0  0  0  0  0  0  0  0
  -29.8093   57.3440   70.9285 H   0  0  0  0  0  0  0  0  0  0  0  0
  -30.6311   55.2817   71.8644 H   0  0  0  0  0  0  0  0  0  0  0  0
  -31.9196   56.3191   71.2161 H   0  0  0  0  0  0  0  0  0  0  0  0
  -31.2325   56.0048   74.0971 H   0  0  0  0  0  0  0  0  0  0  0  0
  -32.6051   55.2645   73.2335 H   0  0  0  0  0  0  0  0  0  0  0  0
  -33.5417   57.4091   72.8217 H   0  0  0  0  0  0  0  0  0  0  0  0
  -32.1719   58.1668   73.6509 H   0  0  0  0  0  0  0  0  0  0  0  0
  -34.1850   56.3597   74.9007 H   0  0  0  0  0  0  0  0  0  0  0  0
  -34.1041   58.0955   75.0841 H   0  0  0  0  0  0  0  0  0  0  0  0
  -32.8165   57.0905   75.7047 H   0  0  0  0  0  0  0  0  0  0  0  0
  1  4  1  0  0  0  0
  1 54  1  0  0  0  0
  1 55  1  0  0  0  0
  1 56  1  0  0  0  0
  2 29  2  0  0  0  0
  3  7  1  0  0  0  0
  3  9  2  6  0  0  0
  3 11  1  0  0  0  0
  3 13  1  0  0  0  0
  4  6  1  0  0  0  0
  4 57  1  0  0  0  0
  4 58  1  0  0  0  0
  5 29  1  0  0  0  0
  5 30  1  0  0  0  0
  6  8  1  0  0  0  0
  6 59  1  0  0  0  0
  6 60  1  0  0  0  0
  7 32  1  0  0  0  0
  8 10  1  0  0  0  0
  8 61  1  0  0  0  0
  8 62  1  0  0  0  0
 10 12  1  0  0  0  0
 10 63  1  0  0  0  0
 10 64  1  0  0  0  0
 11 65  1  0  0  0  0
 12 14  1  0  0  0  0
 12 66  1  0  0  0  0
 12 67  1  0  0  0  0
 13 33  1  0  0  0  0
 14 16  1  0  0  0  0
 14 68  1  0  0  0  0
 14 69  1  0  0  0  0
 15 35  1  0  0  0  0
 15 70  1  0  0  0  0
 16 18  1  0  0  0  0
 16 71  1  0  0  0  0
 16 72  1  0  0  0  0
 17 34  1  0  0  0  0
 17 73  1  0  0  0  0
 18 20  1  0  0  0  0
 18 74  1  0  0  0  0
 18 75  1  0  0  0  0
 19 31  1  0  0  0  0
 19 36  1  0  0  0  0
 20 22  1  0  0  0  0
 20 76  1  0  0  0  0
 20 77  1  0  0  0  0
 21 36  2  0  0  0  0
 22 23  1  0  0  0  0
 22 78  1  0  0  0  0
 22 79  1  0  0  0  0
 23 24  1  0  0  0  0
 23 80  1  0  0  0  0
 23 81  1  0  0  0  0
 24 25  1  0  0  0  0
 24 82  1  0  0  0  0
 24 83  1  0  0  0  0
 25 26  1  0  0  0  0
 25 84  1  0  0  0  0
 25 85  1  0  0  0  0
 26 27  1  0  0  0  0
 26 86  1  0  0  0  0
 26 87  1  0  0  0  0
 27 28  1  0  0  0  0
 27 88  1  0  0  0  0
 27 89  1  0  0  0  0
 28 29  1  0  0  0  0
 28 90  1  0  0  0  0
 28 91  1  0  0  0  0
 30 31  1  0  0  0  0
 30 92  1  0  0  0  0
 30 93  1  0  0  0  0
 31 32  1  0  0  0  0
 31 94  1  6  0  0  0
 32 95  1  0  0  0  0
 32 96  1  0  0  0  0
 33 34  1  0  0  0  0
 33 97  1  0  0  0  0
 33 98  1  0  0  0  0
 34 35  1  0  0  0  0
 34 99  1  6  0  0  0
 35100  1  0  0  0  0
 35101  1  0  0  0  0
 36 37  1  0  0  0  0
 37 38  1  0  0  0  0
 37102  1  0  0  0  0
 37103  1  0  0  0  0
 38 39  1  0  0  0  0
 38104  1  0  0  0  0
 38105  1  0  0  0  0
 39 40  1  0  0  0  0
 39106  1  0  0  0  0
 39107  1  0  0  0  0
 40 41  1  0  0  0  0
 40108  1  0  0  0  0
 40109  1  0  0  0  0
 41 42  1  0  0  0  0
 41110  1  0  0  0  0
 41111  1  0  0  0  0
 42 43  1  0  0  0  0
 42112  1  0  0  0  0
 42113  1  0  0  0  0
 43 44  1  0  0  0  0
 43114  1  0  0  0  0
 43115  1  0  0  0  0
 44 45  2  0  0  0  0
 44116  1  0  0  0  0
 45 46  1  0  0  0  0
 45117  1  0  0  0  0
 46 47  1  0  0  0  0
 46118  1  0  0  0  0
 46119  1  0  0  0  0
 47 48  1  0  0  0  0
 47120  1  0  0  0  0
 47121  1  0  0  0  0
 48 49  1  0  0  0  0
 48122  1  0  0  0  0
 48123  1  0  0  0  0
 49 50  1  0  0  0  0
 49124  1  0  0  0  0
 49125  1  0  0  0  0
 50 51  1  0  0  0  0
 50126  1  0  0  0  0
 50127  1  0  0  0  0
 51 52  1  0  0  0  0
 51128  1  0  0  0  0
 51129  1  0  0  0  0
 52 53  1  0  0  0  0
 52130  1  0  0  0  0
 52131  1  0  0  0  0
 53132  1  0  0  0  0
 53133  1  0  0  0  0
 53134  1  0  0  0  0
M  CHG  1   9  -1
M  END
$$$$
/media/chris/experiments/cd1a-new-docking/inputs/ligands/7sh4_ligand.pdb
 OpenBabel07012320073D

134133  0  0  1  0  0  0  0  0999 V2000
  -39.2793   62.7346   58.4903 C   0  0  0  0  0  0  0  0  0  0  0  0
  -37.6219   58.1394   60.8749 O   0  0  0  0  0  0  0  0  0  0  0  0
  -34.6970   59.9912   62.5780 P   0  0  1  0  0  0  0  0  0  0  0  0
  -40.1153   63.8019   59.1595 C   0  0  0  0  0  0  0  0  0  0  0  0
  -38.3690   58.5038   62.9506 O   0  0  0  0  0  0  0  0  0  0  0  0
  -41.5033   63.9115   58.5575 C   0  0  0  0  0  0  0  0  0  0  0  0
  -35.2304   61.1139   63.5864 O   0  0  0  0  0  0  0  0  0  0  0  0
  -41.5290   64.2415   57.0757 C   0  0  0  0  0  0  0  0  0  0  0  0
  -34.5796   58.7215   63.3270 O   0  5  0  0  0  0  0  0  0  0  0  0
  -40.8480   65.5592   56.7331 C   0  0  0  0  0  0  0  0  0  0  0  0
  -35.5431   60.0245   61.3608 O   0  0  0  0  0  0  0  0  0  0  0  0
  -40.8879   65.8976   55.2570 C   0  0  0  0  0  0  0  0  0  0  0  0
  -33.2283   60.4562   62.1666 O   0  0  0  0  0  0  0  0  0  0  0  0
  -40.2231   64.8532   54.3810 C   0  0  0  0  0  0  0  0  0  0  0  0
  -35.4439   60.0719   59.4916 O   0  0  0  0  0  0  0  0  0  0  0  0
  -40.8617   63.4718   54.4710 C   0  0  0  0  0  0  0  0  0  0  0  0
  -32.3436   58.4057   60.5095 O   0  0  0  0  0  0  0  0  0  0  0  0
  -40.1850   62.4274   53.6081 C   0  0  0  0  0  0  0  0  0  0  0  0
  -38.2720   59.8520   65.2990 O   0  0  0  0  0  0  0  0  0  0  0  0
  -38.7304   62.1852   53.9568 C   0  0  0  0  0  0  0  0  0  0  0  0
  -40.0171   59.9196   63.8811 O   0  0  0  0  0  0  0  0  0  0  0  0
  -38.5438   61.6925   55.3748 C   0  0  0  0  0  0  0  0  0  0  0  0
  -39.2368   60.3841   55.6490 C   0  0  0  0  0  0  0  0  0  0  0  0
  -39.0591   59.9092   57.0704 C   0  0  0  0  0  0  0  0  0  0  0  0
  -39.7407   58.5843   57.3463 C   0  0  0  0  0  0  0  0  0  0  0  0
  -39.5751   58.1196   58.7754 C   0  0  0  0  0  0  0  0  0  0  0  0
  -40.1542   59.0656   59.8062 C   0  0  0  0  0  0  0  0  0  0  0  0
  -39.9554   58.5765   61.2308 C   0  0  0  0  0  0  0  0  0  0  0  0
  -38.5165   58.4143   61.6284 C   0  0  0  0  0  0  0  0  0  0  0  0
  -37.0720   58.9080   63.4380 C   0  0  0  0  0  0  0  0  0  0  0  0
  -37.3490   60.1700   64.2050 C   0  0  2  0  0  0  0  0  0  0  0  0
  -36.0840   60.8130   64.7130 C   0  0  0  0  0  0  0  0  0  0  0  0
  -32.9150   60.7168   60.7832 C   0  0  0  0  0  0  0  0  0  0  0  0
  -33.1662   59.4561   59.9929 C   0  0  2  0  0  0  0  0  0  0  0  0
  -34.6178   59.0414   60.0182 C   0  0  0  0  0  0  0  0  0  0  0  0
  -39.5790   59.7587   64.9875 C   0  0  0  0  0  0  0  0  0  0  0  0
  -40.4161   59.4128   66.1798 C   0  0  0  0  0  0  0  0  0  0  0  0
  -41.4550   60.4925   66.4655 C   0  0  0  0  0  0  0  0  0  0  0  0
  -42.3257   60.2047   67.6775 C   0  0  0  0  0  0  0  0  0  0  0  0
  -41.5397   60.0835   68.9780 C   0  0  0  0  0  0  0  0  0  0  0  0
  -42.3981   59.7794   70.1917 C   0  0  0  0  0  0  0  0  0  0  0  0
  -41.6237   59.6715   71.5084 C   0  0  0  0  0  0  0  0  0  0  0  0
  -40.5392   58.5925   71.5400 C   0  0  0  0  0  0  0  0  0  0  0  0
  -41.0969   57.2235   71.2893 C   0  0  0  0  0  0  0  0  0  0  0  0
  -40.4741   56.2126   70.7152 C   0  0  0  0  0  0  0  0  0  0  0  0
  -39.0722   56.2214   70.1928 C   0  0  0  0  0  0  0  0  0  0  0  0
  -38.6732   54.8851   69.5734 C   0  0  0  0  0  0  0  0  0  0  0  0
  -39.5347   54.4804   68.3901 C   0  0  0  0  0  0  0  0  0  0  0  0
  -39.1485   53.1422   67.7839 C   0  0  0  0  0  0  0  0  0  0  0  0
  -39.9884   52.7271   66.5874 C   0  0  0  0  0  0  0  0  0  0  0  0
  -39.5934   51.3767   66.0094 C   0  0  0  0  0  0  0  0  0  0  0  0
  -39.7303   50.2205   66.9801 C   0  0  0  0  0  0  0  0  0  0  0  0
  -41.1415   50.0296   67.4616 C   0  0  0  0  0  0  0  0  0  0  0  0
  -38.3137   62.6977   58.9497 H   0  0  0  0  0  0  0  0  0  0  0  0
  -39.1713   62.9655   57.4511 H   0  0  0  0  0  0  0  0  0  0  0  0
  -39.7613   61.7852   58.5965 H   0  0  0  0  0  0  0  0  0  0  0  0
  -39.6193   64.7439   59.0530 H   0  0  0  0  0  0  0  0  0  0  0  0
  -40.2266   63.5314   60.1888 H   0  0  0  0  0  0  0  0  0  0  0  0
  -42.0330   64.6809   59.0794 H   0  0  0  0  0  0  0  0  0  0  0  0
  -41.9536   62.9462   58.6595 H   0  0  0  0  0  0  0  0  0  0  0  0
  -42.5496   64.2958   56.7589 H   0  0  0  0  0  0  0  0  0  0  0  0
  -40.9873   63.4681   56.5725 H   0  0  0  0  0  0  0  0  0  0  0  0
  -39.8243   65.5003   57.0389 H   0  0  0  0  0  0  0  0  0  0  0  0
  -41.3826   66.3311   57.2462 H   0  0  0  0  0  0  0  0  0  0  0  0
  -36.4443   59.7449   61.5856 H   0  0  0  0  0  0  0  0  0  0  0  0
  -40.3877   66.8320   55.1096 H   0  0  0  0  0  0  0  0  0  0  0  0
  -41.9180   65.9405   54.9706 H   0  0  0  0  0  0  0  0  0  0  0  0
  -39.1978   64.7698   54.6758 H   0  0  0  0  0  0  0  0  0  0  0  0
  -40.3350   65.1810   53.3687 H   0  0  0  0  0  0  0  0  0  0  0  0
  -36.3709   59.7875   59.5162 H   0  0  0  0  0  0  0  0  0  0  0  0
  -41.8836   63.5522   54.1641 H   0  0  0  0  0  0  0  0  0  0  0  0
  -40.7628   63.1486   55.4862 H   0  0  0  0  0  0  0  0  0  0  0  0
  -31.4142   58.6828   60.4884 H   0  0  0  0  0  0  0  0  0  0  0  0
  -40.2373   62.7485   52.5887 H   0  0  0  0  0  0  0  0  0  0  0  0
  -40.7009   61.5055   53.7777 H   0  0  0  0  0  0  0  0  0  0  0  0
  -38.1930   63.1030   53.8399 H   0  0  0  0  0  0  0  0  0  0  0  0
  -38.3631   61.4247   53.2997 H   0  0  0  0  0  0  0  0  0  0  0  0
  -38.9343   62.4301   56.0443 H   0  0  0  0  0  0  0  0  0  0  0  0
  -37.4957   61.5312   55.5179 H   0  0  0  0  0  0  0  0  0  0  0  0
  -38.8379   59.6421   54.9892 H   0  0  0  0  0  0  0  0  0  0  0  0
  -40.2840   60.5373   55.4913 H   0  0  0  0  0  0  0  0  0  0  0  0
  -39.4689   60.6462   57.7290 H   0  0  0  0  0  0  0  0  0  0  0  0
  -38.0106   59.7669   57.2296 H   0  0  0  0  0  0  0  0  0  0  0  0
  -39.3222   57.8441   56.6967 H   0  0  0  0  0  0  0  0  0  0  0  0
  -40.7878   58.7217   57.1742 H   0  0  0  0  0  0  0  0  0  0  0  0
  -38.5295   58.0073   58.9728 H   0  0  0  0  0  0  0  0  0  0  0  0
  -40.1147   57.1999   58.8643 H   0  0  0  0  0  0  0  0  0  0  0  0
  -41.2033   59.1696   59.6236 H   0  0  0  0  0  0  0  0  0  0  0  0
  -39.6405   59.9994   59.7113 H   0  0  0  0  0  0  0  0  0  0  0  0
  -40.4406   57.6281   61.3313 H   0  0  0  0  0  0  0  0  0  0  0  0
  -40.3709   59.3236   61.8743 H   0  0  0  0  0  0  0  0  0  0  0  0
  -36.4020   59.0962   62.6252 H   0  0  0  0  0  0  0  0  0  0  0  0
  -36.6048   58.1555   64.0382 H   0  0  0  0  0  0  0  0  0  0  0  0
  -37.7985   60.8886   63.5519 H   0  0  0  0  0  0  0  0  0  0  0  0
  -36.3238   61.7163   65.2340 H   0  0  0  0  0  0  0  0  0  0  0  0
  -35.5811   60.1472   65.3829 H   0  0  0  0  0  0  0  0  0  0  0  0
  -31.8875   61.0015   60.6926 H   0  0  0  0  0  0  0  0  0  0  0  0
  -33.5264   61.5122   60.4110 H   0  0  0  0  0  0  0  0  0  0  0  0
  -32.9169   59.6526   58.9710 H   0  0  0  0  0  0  0  0  0  0  0  0
  -34.7408   58.1570   59.4287 H   0  0  0  0  0  0  0  0  0  0  0  0
  -34.9047   58.8547   61.0319 H   0  0  0  0  0  0  0  0  0  0  0  0
  -39.7793   59.3085   67.0333 H   0  0  0  0  0  0  0  0  0  0  0  0
  -40.9308   58.4974   65.9746 H   0  0  0  0  0  0  0  0  0  0  0  0
  -42.0897   60.5842   65.6090 H   0  0  0  0  0  0  0  0  0  0  0  0
  -40.9169   61.3929   66.6766 H   0  0  0  0  0  0  0  0  0  0  0  0
  -42.8461   59.2850   67.5097 H   0  0  0  0  0  0  0  0  0  0  0  0
  -42.9920   61.0344   67.7896 H   0  0  0  0  0  0  0  0  0  0  0  0
  -41.0291   61.0079   69.1501 H   0  0  0  0  0  0  0  0  0  0  0  0
  -40.8688   59.2584   68.8586 H   0  0  0  0  0  0  0  0  0  0  0  0
  -42.8990   58.8492   70.0218 H   0  0  0  0  0  0  0  0  0  0  0  0
  -43.0710   60.6040   70.3019 H   0  0  0  0  0  0  0  0  0  0  0  0
  -42.3248   59.4591   72.2883 H   0  0  0  0  0  0  0  0  0  0  0  0
  -41.1168   60.6057   71.6321 H   0  0  0  0  0  0  0  0  0  0  0  0
  -40.0702   58.6030   72.5017 H   0  0  0  0  0  0  0  0  0  0  0  0
  -39.8367   58.8091   70.7625 H   0  0  0  0  0  0  0  0  0  0  0  0
  -42.0673   57.0551   71.5975 H   0  0  0  0  0  0  0  0  0  0  0  0
  -41.0039   55.3324   70.6169 H   0  0  0  0  0  0  0  0  0  0  0  0
  -38.4057   56.4378   71.0014 H   0  0  0  0  0  0  0  0  0  0  0  0
  -39.0144   56.9660   69.4266 H   0  0  0  0  0  0  0  0  0  0  0  0
  -38.7530   54.1272   70.3245 H   0  0  0  0  0  0  0  0  0  0  0  0
  -37.6730   54.9949   69.2095 H   0  0  0  0  0  0  0  0  0  0  0  0
  -39.4452   55.2323   67.6341 H   0  0  0  0  0  0  0  0  0  0  0  0
  -40.5371   54.3827   68.7515 H   0  0  0  0  0  0  0  0  0  0  0  0
  -39.2492   52.3914   68.5396 H   0  0  0  0  0  0  0  0  0  0  0  0
  -38.1443   53.2469   67.4296 H   0  0  0  0  0  0  0  0  0  0  0  0
  -39.8790   53.4680   65.8231 H   0  0  0  0  0  0  0  0  0  0  0  0
  -40.9996   52.6412   66.9266 H   0  0  0  0  0  0  0  0  0  0  0  0
  -38.5719   51.4320   65.6956 H   0  0  0  0  0  0  0  0  0  0  0  0
  -40.2659   51.1801   65.2007 H   0  0  0  0  0  0  0  0  0  0  0  0
  -39.1027   50.4080   67.8261 H   0  0  0  0  0  0  0  0  0  0  0  0
  -39.4426   49.3292   66.4628 H   0  0  0  0  0  0  0  0  0  0  0  0
  -41.4614   50.9061   67.9852 H   0  0  0  0  0  0  0  0  0  0  0  0
  -41.1830   49.1864   68.1190 H   0  0  0  0  0  0  0  0  0  0  0  0
  -41.7845   49.8602   66.6233 H   0  0  0  0  0  0  0  0  0  0  0  0
  1  4  1  0  0  0  0
  1 54  1  0  0  0  0
  1 55  1  0  0  0  0
  1 56  1  0  0  0  0
  2 29  2  0  0  0  0
  3  7  1  0  0  0  0
  3  9  2  1  0  0  0
  3 11  1  0  0  0  0
  3 13  1  0  0  0  0
  4  6  1  0  0  0  0
  4 57  1  0  0  0  0
  4 58  1  0  0  0  0
  5 29  1  0  0  0  0
  5 30  1  0  0  0  0
  6  8  1  0  0  0  0
  6 59  1  0  0  0  0
  6 60  1  0  0  0  0
  7 32  1  0  0  0  0
  8 10  1  0  0  0  0
  8 61  1  0  0  0  0
  8 62  1  0  0  0  0
 10 12  1  0  0  0  0
 10 63  1  0  0  0  0
 10 64  1  0  0  0  0
 11 65  1  0  0  0  0
 12 14  1  0  0  0  0
 12 66  1  0  0  0  0
 12 67  1  0  0  0  0
 13 33  1  0  0  0  0
 14 16  1  0  0  0  0
 14 68  1  0  0  0  0
 14 69  1  0  0  0  0
 15 35  1  0  0  0  0
 15 70  1  0  0  0  0
 16 18  1  0  0  0  0
 16 71  1  0  0  0  0
 16 72  1  0  0  0  0
 17 34  1  0  0  0  0
 17 73  1  0  0  0  0
 18 20  1  0  0  0  0
 18 74  1  0  0  0  0
 18 75  1  0  0  0  0
 19 31  1  0  0  0  0
 19 36  1  0  0  0  0
 20 22  1  0  0  0  0
 20 76  1  0  0  0  0
 20 77  1  0  0  0  0
 21 36  2  0  0  0  0
 22 23  1  0  0  0  0
 22 78  1  0  0  0  0
 22 79  1  0  0  0  0
 23 24  1  0  0  0  0
 23 80  1  0  0  0  0
 23 81  1  0  0  0  0
 24 25  1  0  0  0  0
 24 82  1  0  0  0  0
 24 83  1  0  0  0  0
 25 26  1  0  0  0  0
 25 84  1  0  0  0  0
 25 85  1  0  0  0  0
 26 27  1  0  0  0  0
 26 86  1  0  0  0  0
 26 87  1  0  0  0  0
 27 28  1  0  0  0  0
 27 88  1  0  0  0  0
 27 89  1  0  0  0  0
 28 29  1  0  0  0  0
 28 90  1  0  0  0  0
 28 91  1  0  0  0  0
 30 31  1  0  0  0  0
 30 92  1  0  0  0  0
 30 93  1  0  0  0  0
 31 32  1  0  0  0  0
 31 94  1  6  0  0  0
 32 95  1  0  0  0  0
 32 96  1  0  0  0  0
 33 34  1  0  0  0  0
 33 97  1  0  0  0  0
 33 98  1  0  0  0  0
 34 35  1  0  0  0  0
 34 99  1  6  0  0  0
 35100  1  0  0  0  0
 35101  1  0  0  0  0
 36 37  1  0  0  0  0
 37 38  1  0  0  0  0
 37102  1  0  0  0  0
 37103  1  0  0  0  0
 38 39  1  0  0  0  0
 38104  1  0  0  0  0
 38105  1  0  0  0  0
 39 40  1  0  0  0  0
 39106  1  0  0  0  0
 39107  1  0  0  0  0
 40 41  1  0  0  0  0
 40108  1  0  0  0  0
 40109  1  0  0  0  0
 41 42  1  0  0  0  0
 41110  1  0  0  0  0
 41111  1  0  0  0  0
 42 43  1  0  0  0  0
 42112  1  0  0  0  0
 42113  1  0  0  0  0
 43 44  1  0  0  0  0
 43114  1  0  0  0  0
 43115  1  0  0  0  0
 44 45  2  0  0  0  0
 44116  1  0  0  0  0
 45 46  1  0  0  0  0
 45117  1  0  0  0  0
 46 47  1  0  0  0  0
 46118  1  0  0  0  0
 46119  1  0  0  0  0
 47 48  1  0  0  0  0
 47120  1  0  0  0  0
 47121  1  0  0  0  0
 48 49  1  0  0  0  0
 48122  1  0  0  0  0
 48123  1  0  0  0  0
 49 50  1  0  0  0  0
 49124  1  0  0  0  0
 49125  1  0  0  0  0
 50 51  1  0  0  0  0
 50126  1  0  0  0  0
 50127  1  0  0  0  0
 51 52  1  0  0  0  0
 51128  1  0  0  0  0
 51129  1  0  0  0  0
 52 53  1  0  0  0  0
 52130  1  0  0  0  0
 52131  1  0  0  0  0
 53132  1  0  0  0  0
 53133  1  0  0  0  0
 53134  1  0  0  0  0
M  CHG  1   9  -1
M  END
$$$$
/media/chris/experiments/cd1a-new-docking/inputs/ligands/7sh4_ligand.pdb
 OpenBabel07012320073D

134133  0  0  1  0  0  0  0  0999 V2000
  -45.0496   55.5263   65.8661 C   0  0  0  0  0  0  0  0  0  0  0  0
  -37.6219   58.1394   60.8749 O   0  0  0  0  0  0  0  0  0  0  0  0
  -34.0491   60.2433   66.3537 P   0  0  1  0  0  0  0  0  0  0  0  0
  -46.2401   54.7507   66.3828 C   0  0  0  0  0  0  0  0  0  0  0  0
  -38.3690   58.5038   62.9506 O   0  0  0  0  0  0  0  0  0  0  0  0
  -47.5564   55.2982   65.8643 C   0  0  0  0  0  0  0  0  0  0  0  0
  -35.4212   59.8922   65.6081 O   0  0  0  0  0  0  0  0  0  0  0  0
  -47.8266   56.7486   66.2229 C   0  0  0  0  0  0  0  0  0  0  0  0
  -33.0346   59.2516   65.9368 O   0  5  0  0  0  0  0  0  0  0  0  0
  -46.7873   57.7158   65.6736 C   0  0  0  0  0  0  0  0  0  0  0  0
  -33.7655   61.6836   66.1443 O   0  0  0  0  0  0  0  0  0  0  0  0
  -47.0469   59.1615   66.0451 C   0  0  0  0  0  0  0  0  0  0  0  0
  -34.3431   60.0224   67.9054 O   0  0  0  0  0  0  0  0  0  0  0  0
  -46.0181   60.1226   65.4813 C   0  0  0  0  0  0  0  0  0  0  0  0
  -30.6899   61.9372   67.3851 O   0  0  0  0  0  0  0  0  0  0  0  0
  -46.2576   61.5794   65.8616 C   0  0  0  0  0  0  0  0  0  0  0  0
  -31.1315   60.2570   69.6234 O   0  0  0  0  0  0  0  0  0  0  0  0
  -45.2383   62.5383   65.2830 C   0  0  0  0  0  0  0  0  0  0  0  0
  -38.2720   59.8520   65.2990 O   0  0  0  0  0  0  0  0  0  0  0  0
  -43.8106   62.2493   65.7006 C   0  0  0  0  0  0  0  0  0  0  0  0
  -40.2610   59.8884   64.2489 O   0  0  0  0  0  0  0  0  0  0  0  0
  -43.3405   60.8791   65.2650 C   0  0  0  0  0  0  0  0  0  0  0  0
  -43.3595   60.6876   63.7715 C   0  0  0  0  0  0  0  0  0  0  0  0
  -42.9051   59.3123   63.3476 C   0  0  0  0  0  0  0  0  0  0  0  0
  -42.9064   59.1207   61.8445 C   0  0  0  0  0  0  0  0  0  0  0  0
  -41.9840   60.0784   61.1248 C   0  0  0  0  0  0  0  0  0  0  0  0
  -40.5281   59.9534   61.5215 C   0  0  0  0  0  0  0  0  0  0  0  0
  -39.9554   58.5765   61.2308 C   0  0  0  0  0  0  0  0  0  0  0  0
  -38.5165   58.4143   61.6284 C   0  0  0  0  0  0  0  0  0  0  0  0
  -37.0720   58.9080   63.4380 C   0  0  0  0  0  0  0  0  0  0  0  0
  -37.3490   60.1700   64.2050 C   0  0  2  0  0  0  0  0  0  0  0  0
  -36.0840   60.8130   64.7130 C   0  0  0  0  0  0  0  0  0  0  0  0
  -33.2816   59.6066   68.7887 C   0  0  0  0  0  0  0  0  0  0  0  0
  -32.2020   60.6606   68.7643 C   0  0  2  0  0  0  0  0  0  0  0  0
  -31.6823   60.9191   67.3705 C   0  0  0  0  0  0  0  0  0  0  0  0
  -39.4672   59.3329   64.9581 C   0  0  0  0  0  0  0  0  0  0  0  0
  -39.6789   57.9753   65.5532 C   0  0  0  0  0  0  0  0  0  0  0  0
  -40.9037   57.9483   66.4619 C   0  0  0  0  0  0  0  0  0  0  0  0
  -41.1607   56.5977   67.1099 C   0  0  0  0  0  0  0  0  0  0  0  0
  -41.3763   55.4709   66.1061 C   0  0  0  0  0  0  0  0  0  0  0  0
  -40.1928   55.2273   65.1883 C   0  0  0  0  0  0  0  0  0  0  0  0
  -40.4016   54.1091   64.1631 C   0  0  0  0  0  0  0  0  0  0  0  0
  -39.2105   53.8398   63.2410 C   0  0  0  0  0  0  0  0  0  0  0  0
  -38.8293   55.0502   62.4425 C   0  0  0  0  0  0  0  0  0  0  0  0
  -39.2870   55.3839   61.2515 C   0  0  0  0  0  0  0  0  0  0  0  0
  -40.2894   54.6200   60.4452 C   0  0  0  0  0  0  0  0  0  0  0  0
  -40.5824   55.2818   59.1019 C   0  0  0  0  0  0  0  0  0  0  0  0
  -41.6100   54.5379   58.2671 C   0  0  0  0  0  0  0  0  0  0  0  0
  -41.2098   53.1102   57.9375 C   0  0  0  0  0  0  0  0  0  0  0  0
  -39.9077   52.9838   57.1641 C   0  0  0  0  0  0  0  0  0  0  0  0
  -39.5379   51.5463   56.8316 C   0  0  0  0  0  0  0  0  0  0  0  0
  -38.2329   51.3989   56.0746 C   0  0  0  0  0  0  0  0  0  0  0  0
  -37.0529   51.9271   56.8415 C   0  0  0  0  0  0  0  0  0  0  0  0
  -44.1496   55.1020   66.2594 H   0  0  0  0  0  0  0  0  0  0  0  0
  -45.1275   56.5475   66.1758 H   0  0  0  0  0  0  0  0  0  0  0  0
  -45.0293   55.4783   64.7974 H   0  0  0  0  0  0  0  0  0  0  0  0
  -46.2447   54.8001   67.4517 H   0  0  0  0  0  0  0  0  0  0  0  0
  -46.1475   53.7424   66.0372 H   0  0  0  0  0  0  0  0  0  0  0  0
  -48.3476   54.7021   66.2688 H   0  0  0  0  0  0  0  0  0  0  0  0
  -47.5009   55.2566   64.7966 H   0  0  0  0  0  0  0  0  0  0  0  0
  -47.8405   56.8365   67.2892 H   0  0  0  0  0  0  0  0  0  0  0  0
  -48.7648   57.0116   65.7807 H   0  0  0  0  0  0  0  0  0  0  0  0
  -46.7823   57.6366   64.6066 H   0  0  0  0  0  0  0  0  0  0  0  0
  -45.8471   57.4449   66.1067 H   0  0  0  0  0  0  0  0  0  0  0  0
  -33.5830   61.8440   65.2052 H   0  0  0  0  0  0  0  0  0  0  0  0
  -47.0393   59.2441   67.1119 H   0  0  0  0  0  0  0  0  0  0  0  0
  -47.9936   59.4303   65.6252 H   0  0  0  0  0  0  0  0  0  0  0  0
  -46.0353   60.0462   64.4141 H   0  0  0  0  0  0  0  0  0  0  0  0
  -45.0729   59.8448   65.8987 H   0  0  0  0  0  0  0  0  0  0  0  0
  -30.3688   62.0888   66.4824 H   0  0  0  0  0  0  0  0  0  0  0  0
  -46.2278   61.6587   66.9282 H   0  0  0  0  0  0  0  0  0  0  0  0
  -47.2089   61.8545   65.4565 H   0  0  0  0  0  0  0  0  0  0  0  0
  -31.4766   60.0938   70.5152 H   0  0  0  0  0  0  0  0  0  0  0  0
  -45.4883   63.5281   65.6035 H   0  0  0  0  0  0  0  0  0  0  0  0
  -45.2776   62.4261   64.2197 H   0  0  0  0  0  0  0  0  0  0  0  0
  -43.7470   62.3099   66.7670 H   0  0  0  0  0  0  0  0  0  0  0  0
  -43.1821   62.9728   65.2247 H   0  0  0  0  0  0  0  0  0  0  0  0
  -43.9788   60.1443   65.7095 H   0  0  0  0  0  0  0  0  0  0  0  0
  -42.3241   60.7776   65.5838 H   0  0  0  0  0  0  0  0  0  0  0  0
  -42.7112   61.4132   63.3264 H   0  0  0  0  0  0  0  0  0  0  0  0
  -44.3723   60.8042   63.4468 H   0  0  0  0  0  0  0  0  0  0  0  0
  -43.5610   58.5879   63.7834 H   0  0  0  0  0  0  0  0  0  0  0  0
  -41.8958   59.1934   63.6826 H   0  0  0  0  0  0  0  0  0  0  0  0
  -43.9023   59.2703   61.4828 H   0  0  0  0  0  0  0  0  0  0  0  0
  -42.5541   58.1296   61.6484 H   0  0  0  0  0  0  0  0  0  0  0  0
  -42.3051   61.0768   61.3367 H   0  0  0  0  0  0  0  0  0  0  0  0
  -42.0411   59.8369   60.0839 H   0  0  0  0  0  0  0  0  0  0  0  0
  -40.4419   60.1451   62.5706 H   0  0  0  0  0  0  0  0  0  0  0  0
  -39.9741   60.6619   60.9419 H   0  0  0  0  0  0  0  0  0  0  0  0
  -40.0361   58.3941   60.1796 H   0  0  0  0  0  0  0  0  0  0  0  0
  -40.5175   57.8788   61.8158 H   0  0  0  0  0  0  0  0  0  0  0  0
  -36.4020   59.0962   62.6252 H   0  0  0  0  0  0  0  0  0  0  0  0
  -36.6048   58.1555   64.0382 H   0  0  0  0  0  0  0  0  0  0  0  0
  -37.7985   60.8886   63.5519 H   0  0  0  0  0  0  0  0  0  0  0  0
  -35.4401   61.0403   63.8892 H   0  0  0  0  0  0  0  0  0  0  0  0
  -36.3193   61.7188   65.2317 H   0  0  0  0  0  0  0  0  0  0  0  0
  -32.8811   58.6713   68.4574 H   0  0  0  0  0  0  0  0  0  0  0  0
  -33.6566   59.4871   69.7837 H   0  0  0  0  0  0  0  0  0  0  0  0
  -32.6293   61.5780   69.1118 H   0  0  0  0  0  0  0  0  0  0  0  0
  -31.2556   60.0181   66.9820 H   0  0  0  0  0  0  0  0  0  0  0  0
  -32.4958   61.2403   66.7540 H   0  0  0  0  0  0  0  0  0  0  0  0
  -38.8153   57.7080   66.1256 H   0  0  0  0  0  0  0  0  0  0  0  0
  -39.8372   57.2800   64.7554 H   0  0  0  0  0  0  0  0  0  0  0  0
  -41.7616   58.2107   65.8788 H   0  0  0  0  0  0  0  0  0  0  0  0
  -40.7174   58.6424   67.2546 H   0  0  0  0  0  0  0  0  0  0  0  0
  -42.0344   56.6770   67.7224 H   0  0  0  0  0  0  0  0  0  0  0  0
  -40.2876   56.3502   67.6769 H   0  0  0  0  0  0  0  0  0  0  0  0
  -42.2253   55.7158   65.5026 H   0  0  0  0  0  0  0  0  0  0  0  0
  -41.5185   54.5744   66.6727 H   0  0  0  0  0  0  0  0  0  0  0  0
  -39.3481   54.9719   65.7935 H   0  0  0  0  0  0  0  0  0  0  0  0
  -40.0512   56.1288   64.6297 H   0  0  0  0  0  0  0  0  0  0  0  0
  -41.2400   54.3722   63.5526 H   0  0  0  0  0  0  0  0  0  0  0  0
  -40.5487   53.2122   64.7278 H   0  0  0  0  0  0  0  0  0  0  0  0
  -39.4677   53.0492   62.5674 H   0  0  0  0  0  0  0  0  0  0  0  0
  -38.3744   53.5725   63.8529 H   0  0  0  0  0  0  0  0  0  0  0  0
  -38.1381   55.6873   62.8684 H   0  0  0  0  0  0  0  0  0  0  0  0
  -38.9189   56.2541   60.8365 H   0  0  0  0  0  0  0  0  0  0  0  0
  -41.2007   54.5551   61.0022 H   0  0  0  0  0  0  0  0  0  0  0  0
  -39.8797   53.6512   60.2488 H   0  0  0  0  0  0  0  0  0  0  0  0
  -39.6700   55.3358   58.5455 H   0  0  0  0  0  0  0  0  0  0  0  0
  -40.9899   56.2487   59.3115 H   0  0  0  0  0  0  0  0  0  0  0  0
  -41.7494   55.0702   57.3495 H   0  0  0  0  0  0  0  0  0  0  0  0
  -42.5067   54.4853   58.8485 H   0  0  0  0  0  0  0  0  0  0  0  0
  -41.9903   52.6709   57.3520 H   0  0  0  0  0  0  0  0  0  0  0  0
  -41.0581   52.6127   58.8726 H   0  0  0  0  0  0  0  0  0  0  0  0
  -39.1215   53.4086   57.7525 H   0  0  0  0  0  0  0  0  0  0  0  0
  -40.0417   53.4977   56.2352 H   0  0  0  0  0  0  0  0  0  0  0  0
  -40.3211   51.1280   56.2346 H   0  0  0  0  0  0  0  0  0  0  0  0
  -39.4108   51.0382   57.7646 H   0  0  0  0  0  0  0  0  0  0  0  0
  -38.3098   51.9362   55.1524 H   0  0  0  0  0  0  0  0  0  0  0  0
  -38.0705   50.3539   55.9121 H   0  0  0  0  0  0  0  0  0  0  0  0
  -37.1839   52.9737   57.0214 H   0  0  0  0  0  0  0  0  0  0  0  0
  -36.1597   51.7720   56.2731 H   0  0  0  0  0  0  0  0  0  0  0  0
  -36.9751   51.4116   57.7759 H   0  0  0  0  0  0  0  0  0  0  0  0
  1  4  1  0  0  0  0
  1 54  1  0  0  0  0
  1 55  1  0  0  0  0
  1 56  1  0  0  0  0
  2 29  2  0  0  0  0
  3  7  1  0  0  0  0
  3  9  2  6  0  0  0
  3 11  1  0  0  0  0
  3 13  1  0  0  0  0
  4  6  1  0  0  0  0
  4 57  1  0  0  0  0
  4 58  1  0  0  0  0
  5 29  1  0  0  0  0
  5 30  1  0  0  0  0
  6  8  1  0  0  0  0
  6 59  1  0  0  0  0
  6 60  1  0  0  0  0
  7 32  1  0  0  0  0
  8 10  1  0  0  0  0
  8 61  1  0  0  0  0
  8 62  1  0  0  0  0
 10 12  1  0  0  0  0
 10 63  1  0  0  0  0
 10 64  1  0  0  0  0
 11 65  1  0  0  0  0
 12 14  1  0  0  0  0
 12 66  1  0  0  0  0
 12 67  1  0  0  0  0
 13 33  1  0  0  0  0
 14 16  1  0  0  0  0
 14 68  1  0  0  0  0
 14 69  1  0  0  0  0
 15 35  1  0  0  0  0
 15 70  1  0  0  0  0
 16 18  1  0  0  0  0
 16 71  1  0  0  0  0
 16 72  1  0  0  0  0
 17 34  1  0  0  0  0
 17 73  1  0  0  0  0
 18 20  1  0  0  0  0
 18 74  1  0  0  0  0
 18 75  1  0  0  0  0
 19 31  1  0  0  0  0
 19 36  1  0  0  0  0
 20 22  1  0  0  0  0
 20 76  1  0  0  0  0
 20 77  1  0  0  0  0
 21 36  2  0  0  0  0
 22 23  1  0  0  0  0
 22 78  1  0  0  0  0
 22 79  1  0  0  0  0
 23 24  1  0  0  0  0
 23 80  1  0  0  0  0
 23 81  1  0  0  0  0
 24 25  1  0  0  0  0
 24 82  1  0  0  0  0
 24 83  1  0  0  0  0
 25 26  1  0  0  0  0
 25 84  1  0  0  0  0
 25 85  1  0  0  0  0
 26 27  1  0  0  0  0
 26 86  1  0  0  0  0
 26 87  1  0  0  0  0
 27 28  1  0  0  0  0
 27 88  1  0  0  0  0
 27 89  1  0  0  0  0
 28 29  1  0  0  0  0
 28 90  1  0  0  0  0
 28 91  1  0  0  0  0
 30 31  1  0  0  0  0
 30 92  1  0  0  0  0
 30 93  1  0  0  0  0
 31 32  1  0  0  0  0
 31 94  1  6  0  0  0
 32 95  1  0  0  0  0
 32 96  1  0  0  0  0
 33 34  1  0  0  0  0
 33 97  1  0  0  0  0
 33 98  1  0  0  0  0
 34 35  1  0  0  0  0
 34 99  1  1  0  0  0
 35100  1  0  0  0  0
 35101  1  0  0  0  0
 36 37  1  0  0  0  0
 37 38  1  0  0  0  0
 37102  1  0  0  0  0
 37103  1  0  0  0  0
 38 39  1  0  0  0  0
 38104  1  0  0  0  0
 38105  1  0  0  0  0
 39 40  1  0  0  0  0
 39106  1  0  0  0  0
 39107  1  0  0  0  0
 40 41  1  0  0  0  0
 40108  1  0  0  0  0
 40109  1  0  0  0  0
 41 42  1  0  0  0  0
 41110  1  0  0  0  0
 41111  1  0  0  0  0
 42 43  1  0  0  0  0
 42112  1  0  0  0  0
 42113  1  0  0  0  0
 43 44  1  0  0  0  0
 43114  1  0  0  0  0
 43115  1  0  0  0  0
 44 45  2  0  0  0  0
 44116  1  0  0  0  0
 45 46  1  0  0  0  0
 45117  1  0  0  0  0
 46 47  1  0  0  0  0
 46118  1  0  0  0  0
 46119  1  0  0  0  0
 47 48  1  0  0  0  0
 47120  1  0  0  0  0
 47121  1  0  0  0  0
 48 49  1  0  0  0  0
 48122  1  0  0  0  0
 48123  1  0  0  0  0
 49 50  1  0  0  0  0
 49124  1  0  0  0  0
 49125  1  0  0  0  0
 50 51  1  0  0  0  0
 50126  1  0  0  0  0
 50127  1  0  0  0  0
 51 52  1  0  0  0  0
 51128  1  0  0  0  0
 51129  1  0  0  0  0
 52 53  1  0  0  0  0
 52130  1  0  0  0  0
 52131  1  0  0  0  0
 53132  1  0  0  0  0
 53133  1  0  0  0  0
 53134  1  0  0  0  0
M  CHG  1   9  -1
M  END
$$$$
/media/chris/experiments/cd1a-new-docking/inputs/ligands/7sh4_ligand.pdb
 OpenBabel07012320073D

134133  0  0  1  0  0  0  0  0999 V2000
  -40.3099   61.1533   58.0961 C   0  0  0  0  0  0  0  0  0  0  0  0
  -37.6819   60.5663   61.3545 O   0  0  0  0  0  0  0  0  0  0  0  0
  -34.0491   60.2433   66.3537 P   0  0  1  0  0  0  0  0  0  0  0  0
  -41.2250   61.8460   59.0801 C   0  0  0  0  0  0  0  0  0  0  0  0
  -36.1511   59.3213   62.4064 O   0  0  0  0  0  0  0  0  0  0  0  0
  -42.0734   62.9191   58.4244 C   0  0  0  0  0  0  0  0  0  0  0  0
  -35.4212   59.8922   65.6081 O   0  0  0  0  0  0  0  0  0  0  0  0
  -41.2856   64.0274   57.7490 C   0  0  0  0  0  0  0  0  0  0  0  0
  -34.2885   60.1710   67.8112 O   0  5  0  0  0  0  0  0  0  0  0  0
  -40.3615   64.7817   58.6949 C   0  0  0  0  0  0  0  0  0  0  0  0
  -32.9766   59.4052   65.7656 O   0  0  0  0  0  0  0  0  0  0  0  0
  -39.5876   65.8988   58.0254 C   0  0  0  0  0  0  0  0  0  0  0  0
  -33.7429   61.7632   65.9812 O   0  0  0  0  0  0  0  0  0  0  0  0
  -38.7073   65.4232   56.8857 C   0  0  0  0  0  0  0  0  0  0  0  0
  -33.0168   65.9084   66.2684 O   0  0  0  0  0  0  0  0  0  0  0  0
  -37.9095   66.5349   56.2137 C   0  0  0  0  0  0  0  0  0  0  0  0
  -33.0696   63.8725   64.2985 O   0  0  0  0  0  0  0  0  0  0  0  0
  -37.0445   66.0592   55.0653 C   0  0  0  0  0  0  0  0  0  0  0  0
  -38.2720   59.8520   65.2990 O   0  0  0  0  0  0  0  0  0  0  0  0
  -36.0180   65.0151   55.4556 C   0  0  0  0  0  0  0  0  0  0  0  0
  -40.2187   60.6541   64.5071 O   0  0  0  0  0  0  0  0  0  0  0  0
  -36.6469   63.7564   56.0108 C   0  0  0  0  0  0  0  0  0  0  0  0
  -35.6391   62.7148   56.4194 C   0  0  0  0  0  0  0  0  0  0  0  0
  -34.7027   63.1930   57.5020 C   0  0  0  0  0  0  0  0  0  0  0  0
  -33.6759   62.1538   57.9043 C   0  0  0  0  0  0  0  0  0  0  0  0
  -34.2976   60.8762   58.4210 C   0  0  0  0  0  0  0  0  0  0  0  0
  -35.1827   61.0640   59.6351 C   0  0  0  0  0  0  0  0  0  0  0  0
  -35.7767   59.7589   60.1375 C   0  0  0  0  0  0  0  0  0  0  0  0
  -36.6737   59.9130   61.3318 C   0  0  0  0  0  0  0  0  0  0  0  0
  -37.0720   58.9080   63.4380 C   0  0  0  0  0  0  0  0  0  0  0  0
  -37.3490   60.1700   64.2050 C   0  0  2  0  0  0  0  0  0  0  0  0
  -36.0840   60.8130   64.7130 C   0  0  0  0  0  0  0  0  0  0  0  0
  -32.3791   62.2243   65.8952 C   0  0  0  0  0  0  0  0  0  0  0  0
  -32.3943   63.6925   65.5470 C   0  0  2  0  0  0  0  0  0  0  0  0
  -33.0485   64.5308   66.6189 C   0  0  0  0  0  0  0  0  0  0  0  0
  -39.5790   59.7587   64.9875 C   0  0  0  0  0  0  0  0  0  0  0  0
  -40.1328   58.4017   65.2941 C   0  0  0  0  0  0  0  0  0  0  0  0
  -39.3947   57.3102   64.5257 C   0  0  0  0  0  0  0  0  0  0  0  0
  -39.9244   55.9091   64.7837 C   0  0  0  0  0  0  0  0  0  0  0  0
  -39.8550   55.4910   66.2480 C   0  0  0  0  0  0  0  0  0  0  0  0
  -38.4527   55.5036   66.8274 C   0  0  0  0  0  0  0  0  0  0  0  0
  -38.3655   55.0693   68.2932 C   0  0  0  0  0  0  0  0  0  0  0  0
  -38.8449   53.6448   68.5804 C   0  0  0  0  0  0  0  0  0  0  0  0
  -38.0431   52.6185   67.8376 C   0  0  0  0  0  0  0  0  0  0  0  0
  -37.3328   51.6408   68.3658 C   0  0  0  0  0  0  0  0  0  0  0  0
  -37.1797   51.3499   69.8254 C   0  0  0  0  0  0  0  0  0  0  0  0
  -38.2422   50.3837   70.3411 C   0  0  0  0  0  0  0  0  0  0  0  0
  -38.2130   49.0261   69.6611 C   0  0  0  0  0  0  0  0  0  0  0  0
  -39.2814   48.0698   70.1623 C   0  0  0  0  0  0  0  0  0  0  0  0
  -39.2581   46.6995   69.5058 C   0  0  0  0  0  0  0  0  0  0  0  0
  -39.4440   46.7477   67.9968 C   0  0  0  0  0  0  0  0  0  0  0  0
  -39.4404   45.3884   67.3259 C   0  0  0  0  0  0  0  0  0  0  0  0
  -40.5453   44.4950   67.8164 C   0  0  0  0  0  0  0  0  0  0  0  0
  -39.7356   60.4086   58.6064 H   0  0  0  0  0  0  0  0  0  0  0  0
  -39.6509   61.8718   57.6552 H   0  0  0  0  0  0  0  0  0  0  0  0
  -40.8955   60.6892   57.3302 H   0  0  0  0  0  0  0  0  0  0  0  0
  -40.6283   62.2989   59.8441 H   0  0  0  0  0  0  0  0  0  0  0  0
  -41.8868   61.1090   59.4847 H   0  0  0  0  0  0  0  0  0  0  0  0
  -42.6918   63.3612   59.1774 H   0  0  0  0  0  0  0  0  0  0  0  0
  -42.6320   62.4324   57.6525 H   0  0  0  0  0  0  0  0  0  0  0  0
  -41.9778   64.7244   57.3249 H   0  0  0  0  0  0  0  0  0  0  0  0
  -40.6671   63.5660   57.0077 H   0  0  0  0  0  0  0  0  0  0  0  0
  -39.6616   64.0867   59.1095 H   0  0  0  0  0  0  0  0  0  0  0  0
  -40.9793   65.2330   59.4430 H   0  0  0  0  0  0  0  0  0  0  0  0
  -33.1408   58.4733   65.9789 H   0  0  0  0  0  0  0  0  0  0  0  0
  -38.9673   66.3690   58.7596 H   0  0  0  0  0  0  0  0  0  0  0  0
  -40.3052   66.5747   57.6092 H   0  0  0  0  0  0  0  0  0  0  0  0
  -39.3311   64.9633   56.1479 H   0  0  0  0  0  0  0  0  0  0  0  0
  -37.9968   64.7426   57.3062 H   0  0  0  0  0  0  0  0  0  0  0  0
  -33.4409   66.4298   66.9678 H   0  0  0  0  0  0  0  0  0  0  0  0
  -37.2762   66.9868   56.9482 H   0  0  0  0  0  0  0  0  0  0  0  0
  -38.6189   67.2236   55.8045 H   0  0  0  0  0  0  0  0  0  0  0  0
  -32.6412   63.3298   63.6181 H   0  0  0  0  0  0  0  0  0  0  0  0
  -36.5274   66.9044   54.6615 H   0  0  0  0  0  0  0  0  0  0  0  0
  -37.6995   65.5980   54.3559 H   0  0  0  0  0  0  0  0  0  0  0  0
  -35.3719   65.4318   56.1998 H   0  0  0  0  0  0  0  0  0  0  0  0
  -35.4803   64.7443   54.5710 H   0  0  0  0  0  0  0  0  0  0  0  0
  -37.2840   63.3362   55.2609 H   0  0  0  0  0  0  0  0  0  0  0  0
  -37.1879   64.0351   56.8910 H   0  0  0  0  0  0  0  0  0  0  0  0
  -35.0592   62.4463   55.5612 H   0  0  0  0  0  0  0  0  0  0  0  0
  -36.1821   61.8804   56.8115 H   0  0  0  0  0  0  0  0  0  0  0  0
  -35.2822   63.4500   58.3640 H   0  0  0  0  0  0  0  0  0  0  0  0
  -34.1683   64.0339   57.1119 H   0  0  0  0  0  0  0  0  0  0  0  0
  -33.0566   62.5666   58.6731 H   0  0  0  0  0  0  0  0  0  0  0  0
  -33.1138   61.9043   57.0287 H   0  0  0  0  0  0  0  0  0  0  0  0
  -33.5096   60.2008   58.6813 H   0  0  0  0  0  0  0  0  0  0  0  0
  -34.9238   60.5006   57.6389 H   0  0  0  0  0  0  0  0  0  0  0  0
  -35.9821   61.7264   59.3763 H   0  0  0  0  0  0  0  0  0  0  0  0
  -34.5740   61.4640   60.4189 H   0  0  0  0  0  0  0  0  0  0  0  0
  -34.9731   59.1042   60.4030 H   0  0  0  0  0  0  0  0  0  0  0  0
  -36.3819   59.3704   59.3452 H   0  0  0  0  0  0  0  0  0  0  0  0
  -36.6274   58.1683   64.0706 H   0  0  0  0  0  0  0  0  0  0  0  0
  -37.9610   58.4631   63.0423 H   0  0  0  0  0  0  0  0  0  0  0  0
  -37.7985   60.8886   63.5519 H   0  0  0  0  0  0  0  0  0  0  0  0
  -35.4401   61.0403   63.8892 H   0  0  0  0  0  0  0  0  0  0  0  0
  -36.3193   61.7188   65.2317 H   0  0  0  0  0  0  0  0  0  0  0  0
  -31.8600   61.6780   65.1357 H   0  0  0  0  0  0  0  0  0  0  0  0
  -31.8800   62.0731   66.8296 H   0  0  0  0  0  0  0  0  0  0  0  0
  -31.3797   64.0234   65.4698 H   0  0  0  0  0  0  0  0  0  0  0  0
  -34.0662   64.2212   66.7347 H   0  0  0  0  0  0  0  0  0  0  0  0
  -32.5131   64.3965   67.5355 H   0  0  0  0  0  0  0  0  0  0  0  0
  -41.1676   58.3790   65.0228 H   0  0  0  0  0  0  0  0  0  0  0  0
  -40.0095   58.2174   66.3409 H   0  0  0  0  0  0  0  0  0  0  0  0
  -38.3632   57.3377   64.8088 H   0  0  0  0  0  0  0  0  0  0  0  0
  -39.5407   57.5105   63.4848 H   0  0  0  0  0  0  0  0  0  0  0  0
  -39.3470   55.2175   64.2065 H   0  0  0  0  0  0  0  0  0  0  0  0
  -40.9576   55.9079   64.5054 H   0  0  0  0  0  0  0  0  0  0  0  0
  -40.2455   54.4985   66.3334 H   0  0  0  0  0  0  0  0  0  0  0  0
  -40.4254   56.2071   66.8018 H   0  0  0  0  0  0  0  0  0  0  0  0
  -38.0687   56.4994   66.7508 H   0  0  0  0  0  0  0  0  0  0  0  0
  -37.8857   54.7911   66.2654 H   0  0  0  0  0  0  0  0  0  0  0  0
  -38.9612   55.7423   68.8739 H   0  0  0  0  0  0  0  0  0  0  0  0
  -37.3264   55.0898   68.5477 H   0  0  0  0  0  0  0  0  0  0  0  0
  -39.8703   53.5602   68.2865 H   0  0  0  0  0  0  0  0  0  0  0  0
  -38.7243   53.4618   69.6277 H   0  0  0  0  0  0  0  0  0  0  0  0
  -38.0475   52.6837   66.8076 H   0  0  0  0  0  0  0  0  0  0  0  0
  -36.8355   51.0177   67.7105 H   0  0  0  0  0  0  0  0  0  0  0  0
  -37.2579   52.2684   70.3688 H   0  0  0  0  0  0  0  0  0  0  0  0
  -36.2242   50.8900   69.9677 H   0  0  0  0  0  0  0  0  0  0  0  0
  -39.2048   50.8220   70.1794 H   0  0  0  0  0  0  0  0  0  0  0  0
  -38.0383   50.2187   71.3784 H   0  0  0  0  0  0  0  0  0  0  0  0
  -37.2546   48.5825   69.8332 H   0  0  0  0  0  0  0  0  0  0  0  0
  -38.4046   49.1926   68.6216 H   0  0  0  0  0  0  0  0  0  0  0  0
  -40.2384   48.5120   69.9792 H   0  0  0  0  0  0  0  0  0  0  0  0
  -39.0856   47.9125   71.2024 H   0  0  0  0  0  0  0  0  0  0  0  0
  -40.0456   46.1091   69.9255 H   0  0  0  0  0  0  0  0  0  0  0  0
  -38.2924   46.2775   69.6911 H   0  0  0  0  0  0  0  0  0  0  0  0
  -38.6492   47.3299   67.5794 H   0  0  0  0  0  0  0  0  0  0  0  0
  -40.4088   47.1752   67.8197 H   0  0  0  0  0  0  0  0  0  0  0  0
  -38.5026   44.9123   67.5227 H   0  0  0  0  0  0  0  0  0  0  0  0
  -39.5933   45.5453   66.2786 H   0  0  0  0  0  0  0  0  0  0  0  0
  -40.4218   44.3175   68.8643 H   0  0  0  0  0  0  0  0  0  0  0  0
  -40.5110   43.5638   67.2905 H   0  0  0  0  0  0  0  0  0  0  0  0
  -41.4895   44.9676   67.6436 H   0  0  0  0  0  0  0  0  0  0  0  0
  1  4  1  0  0  0  0
  1 54  1  0  0  0  0
  1 55  1  0  0  0  0
  1 56  1  0  0  0  0
  2 29  2  0  0  0  0
  3  7  1  0  0  0  0
  3  9  2  1  0  0  0
  3 11  1  0  0  0  0
  3 13  1  0  0  0  0
  4  6  1  0  0  0  0
  4 57  1  0  0  0  0
  4 58  1  0  0  0  0
  5 29  1  0  0  0  0
  5 30  1  0  0  0  0
  6  8  1  0  0  0  0
  6 59  1  0  0  0  0
  6 60  1  0  0  0  0
  7 32  1  0  0  0  0
  8 10  1  0  0  0  0
  8 61  1  0  0  0  0
  8 62  1  0  0  0  0
 10 12  1  0  0  0  0
 10 63  1  0  0  0  0
 10 64  1  0  0  0  0
 11 65  1  0  0  0  0
 12 14  1  0  0  0  0
 12 66  1  0  0  0  0
 12 67  1  0  0  0  0
 13 33  1  0  0  0  0
 14 16  1  0  0  0  0
 14 68  1  0  0  0  0
 14 69  1  0  0  0  0
 15 35  1  0  0  0  0
 15 70  1  0  0  0  0
 16 18  1  0  0  0  0
 16 71  1  0  0  0  0
 16 72  1  0  0  0  0
 17 34  1  0  0  0  0
 17 73  1  0  0  0  0
 18 20  1  0  0  0  0
 18 74  1  0  0  0  0
 18 75  1  0  0  0  0
 19 31  1  0  0  0  0
 19 36  1  0  0  0  0
 20 22  1  0  0  0  0
 20 76  1  0  0  0  0
 20 77  1  0  0  0  0
 21 36  2  0  0  0  0
 22 23  1  0  0  0  0
 22 78  1  0  0  0  0
 22 79  1  0  0  0  0
 23 24  1  0  0  0  0
 23 80  1  0  0  0  0
 23 81  1  0  0  0  0
 24 25  1  0  0  0  0
 24 82  1  0  0  0  0
 24 83  1  0  0  0  0
 25 26  1  0  0  0  0
 25 84  1  0  0  0  0
 25 85  1  0  0  0  0
 26 27  1  0  0  0  0
 26 86  1  0  0  0  0
 26 87  1  0  0  0  0
 27 28  1  0  0  0  0
 27 88  1  0  0  0  0
 27 89  1  0  0  0  0
 28 29  1  0  0  0  0
 28 90  1  0  0  0  0
 28 91  1  0  0  0  0
 30 31  1  0  0  0  0
 30 92  1  0  0  0  0
 30 93  1  0  0  0  0
 31 32  1  0  0  0  0
 31 94  1  6  0  0  0
 32 95  1  0  0  0  0
 32 96  1  0  0  0  0
 33 34  1  0  0  0  0
 33 97  1  0  0  0  0
 33 98  1  0  0  0  0
 34 35  1  0  0  0  0
 34 99  1  6  0  0  0
 35100  1  0  0  0  0
 35101  1  0  0  0  0
 36 37  1  0  0  0  0
 37 38  1  0  0  0  0
 37102  1  0  0  0  0
 37103  1  0  0  0  0
 38 39  1  0  0  0  0
 38104  1  0  0  0  0
 38105  1  0  0  0  0
 39 40  1  0  0  0  0
 39106  1  0  0  0  0
 39107  1  0  0  0  0
 40 41  1  0  0  0  0
 40108  1  0  0  0  0
 40109  1  0  0  0  0
 41 42  1  0  0  0  0
 41110  1  0  0  0  0
 41111  1  0  0  0  0
 42 43  1  0  0  0  0
 42112  1  0  0  0  0
 42113  1  0  0  0  0
 43 44  1  0  0  0  0
 43114  1  0  0  0  0
 43115  1  0  0  0  0
 44 45  2  0  0  0  0
 44116  1  0  0  0  0
 45 46  1  0  0  0  0
 45117  1  0  0  0  0
 46 47  1  0  0  0  0
 46118  1  0  0  0  0
 46119  1  0  0  0  0
 47 48  1  0  0  0  0
 47120  1  0  0  0  0
 47121  1  0  0  0  0
 48 49  1  0  0  0  0
 48122  1  0  0  0  0
 48123  1  0  0  0  0
 49 50  1  0  0  0  0
 49124  1  0  0  0  0
 49125  1  0  0  0  0
 50 51  1  0  0  0  0
 50126  1  0  0  0  0
 50127  1  0  0  0  0
 51 52  1  0  0  0  0
 51128  1  0  0  0  0
 51129  1  0  0  0  0
 52 53  1  0  0  0  0
 52130  1  0  0  0  0
 52131  1  0  0  0  0
 53132  1  0  0  0  0
 53133  1  0  0  0  0
 53134  1  0  0  0  0
M  CHG  1   9  -1
M  END
$$$$
/media/chris/experiments/cd1a-new-docking/inputs/ligands/7sh4_ligand.pdb
 OpenBabel07012320073D

134133  0  0  1  0  0  0  0  0999 V2000
  -27.0880   55.2713   51.7348 C   0  0  0  0  0  0  0  0  0  0  0  0
  -39.2991   60.4756   62.4545 O   0  0  0  0  0  0  0  0  0  0  0  0
  -33.7887   61.7905   63.7469 P   0  0  1  0  0  0  0  0  0  0  0  0
  -28.3353   54.4174   51.7652 C   0  0  0  0  0  0  0  0  0  0  0  0
  -38.3690   58.5038   62.9506 O   0  0  0  0  0  0  0  0  0  0  0  0
  -29.5981   55.2435   51.9195 C   0  0  0  0  0  0  0  0  0  0  0  0
  -35.2304   61.1139   63.5864 O   0  0  0  0  0  0  0  0  0  0  0  0
  -30.8829   54.4362   51.9732 C   0  0  0  0  0  0  0  0  0  0  0  0
  -33.9679   63.0971   64.4159 O   0  5  0  0  0  0  0  0  0  0  0  0
  -30.9406   53.4597   53.1397 C   0  0  0  0  0  0  0  0  0  0  0  0
  -32.8774   60.7949   64.3610 O   0  0  0  0  0  0  0  0  0  0  0  0
  -30.8561   54.1287   54.4964 C   0  0  0  0  0  0  0  0  0  0  0  0
  -33.2833   62.0655   62.2597 O   0  0  0  0  0  0  0  0  0  0  0  0
  -31.9869   55.1048   54.7585 C   0  0  0  0  0  0  0  0  0  0  0  0
  -33.1578   59.5316   58.8344 O   0  0  0  0  0  0  0  0  0  0  0  0
  -33.3721   54.4687   54.7349 C   0  0  0  0  0  0  0  0  0  0  0  0
  -31.6453   61.6210   60.0390 O   0  0  0  0  0  0  0  0  0  0  0  0
  -34.4999   55.4491   54.9802 C   0  0  0  0  0  0  0  0  0  0  0  0
  -38.2720   59.8520   65.2990 O   0  0  0  0  0  0  0  0  0  0  0  0
  -34.4162   56.1672   56.3120 C   0  0  0  0  0  0  0  0  0  0  0  0
  -37.0868   58.0613   65.9691 O   0  0  0  0  0  0  0  0  0  0  0  0
  -35.5657   57.1255   56.5323 C   0  0  0  0  0  0  0  0  0  0  0  0
  -35.4884   57.8600   57.8446 C   0  0  0  0  0  0  0  0  0  0  0  0
  -36.6480   58.8008   58.0630 C   0  0  0  0  0  0  0  0  0  0  0  0
  -36.5654   59.5547   59.3748 C   0  0  0  0  0  0  0  0  0  0  0  0
  -37.7370   60.4838   59.5984 C   0  0  0  0  0  0  0  0  0  0  0  0
  -39.0807   59.7873   59.6455 C   0  0  0  0  0  0  0  0  0  0  0  0
  -39.1768   58.7699   60.7698 C   0  0  0  0  0  0  0  0  0  0  0  0
  -39.0024   59.3540   62.1421 C   0  0  0  0  0  0  0  0  0  0  0  0
  -37.0720   58.9080   63.4380 C   0  0  0  0  0  0  0  0  0  0  0  0
  -37.3490   60.1700   64.2050 C   0  0  2  0  0  0  0  0  0  0  0  0
  -36.0840   60.8130   64.7130 C   0  0  0  0  0  0  0  0  0  0  0  0
  -33.7102   61.2071   61.1823 C   0  0  0  0  0  0  0  0  0  0  0  0
  -33.0680   61.6911   59.9054 C   0  0  2  0  0  0  0  0  0  0  0  0
  -33.5178   60.9006   58.7002 C   0  0  0  0  0  0  0  0  0  0  0  0
  -37.8515   58.9548   66.2113 C   0  0  0  0  0  0  0  0  0  0  0  0
  -38.4362   59.2157   67.5649 C   0  0  0  0  0  0  0  0  0  0  0  0
  -37.5478   60.1430   68.3881 C   0  0  0  0  0  0  0  0  0  0  0  0
  -37.3408   61.5130   67.7634 C   0  0  0  0  0  0  0  0  0  0  0  0
  -38.6335   62.2985   67.5741 C   0  0  0  0  0  0  0  0  0  0  0  0
  -38.4395   63.6612   66.9355 C   0  0  0  0  0  0  0  0  0  0  0  0
  -39.7279   64.4687   66.7545 C   0  0  0  0  0  0  0  0  0  0  0  0
  -39.5512   65.8387   66.0962 C   0  0  0  0  0  0  0  0  0  0  0  0
  -38.6281   66.7256   66.8768 C   0  0  0  0  0  0  0  0  0  0  0  0
  -38.7831   67.1184   68.1263 C   0  0  0  0  0  0  0  0  0  0  0  0
  -39.9187   66.7569   69.0307 C   0  0  0  0  0  0  0  0  0  0  0  0
  -39.4536   66.0204   70.2836 C   0  0  0  0  0  0  0  0  0  0  0  0
  -40.5867   65.6248   71.2141 C   0  0  0  0  0  0  0  0  0  0  0  0
  -40.1224   64.9067   72.4695 C   0  0  0  0  0  0  0  0  0  0  0  0
  -39.3565   63.6196   72.2119 C   0  0  0  0  0  0  0  0  0  0  0  0
  -40.1554   62.5848   71.4343 C   0  0  0  0  0  0  0  0  0  0  0  0
  -41.4423   62.1557   72.1108 C   0  0  0  0  0  0  0  0  0  0  0  0
  -42.3987   63.2967   72.3180 C   0  0  0  0  0  0  0  0  0  0  0  0
  -26.2285   54.6434   51.6249 H   0  0  0  0  0  0  0  0  0  0  0  0
  -27.0116   55.8238   52.6479 H   0  0  0  0  0  0  0  0  0  0  0  0
  -27.1409   55.9508   50.9100 H   0  0  0  0  0  0  0  0  0  0  0  0
  -28.2664   53.7378   52.5888 H   0  0  0  0  0  0  0  0  0  0  0  0
  -28.3976   53.8976   50.8320 H   0  0  0  0  0  0  0  0  0  0  0  0
  -29.6609   55.9146   51.0885 H   0  0  0  0  0  0  0  0  0  0  0  0
  -29.5174   55.7452   52.8612 H   0  0  0  0  0  0  0  0  0  0  0  0
  -30.9719   53.8812   51.0628 H   0  0  0  0  0  0  0  0  0  0  0  0
  -31.6852   55.1316   52.1060 H   0  0  0  0  0  0  0  0  0  0  0  0
  -30.1231   52.7754   53.0486 H   0  0  0  0  0  0  0  0  0  0  0  0
  -31.8901   52.9689   53.0909 H   0  0  0  0  0  0  0  0  0  0  0  0
  -33.1648   60.6103   65.2688 H   0  0  0  0  0  0  0  0  0  0  0  0
  -29.9291   54.6598   54.5554 H   0  0  0  0  0  0  0  0  0  0  0  0
  -30.9278   53.3569   55.2340 H   0  0  0  0  0  0  0  0  0  0  0  0
  -31.9538   55.8674   54.0087 H   0  0  0  0  0  0  0  0  0  0  0  0
  -31.8401   55.4912   55.7455 H   0  0  0  0  0  0  0  0  0  0  0  0
  -33.4546   59.0410   58.0520 H   0  0  0  0  0  0  0  0  0  0  0  0
  -33.4099   53.7146   55.4930 H   0  0  0  0  0  0  0  0  0  0  0  0
  -33.5147   54.0697   53.7524 H   0  0  0  0  0  0  0  0  0  0  0  0
  -31.3679   62.1318   60.8155 H   0  0  0  0  0  0  0  0  0  0  0  0
  -35.4251   54.9128   54.9451 H   0  0  0  0  0  0  0  0  0  0  0  0
  -34.4280   56.1989   54.2202 H   0  0  0  0  0  0  0  0  0  0  0  0
  -33.4998   56.7185   56.3465 H   0  0  0  0  0  0  0  0  0  0  0  0
  -34.4617   55.4258   57.0821 H   0  0  0  0  0  0  0  0  0  0  0  0
  -36.4799   56.5699   56.5078 H   0  0  0  0  0  0  0  0  0  0  0  0
  -35.5182   57.8600   55.7557 H   0  0  0  0  0  0  0  0  0  0  0  0
  -34.5810   58.4266   57.8652 H   0  0  0  0  0  0  0  0  0  0  0  0
  -35.5195   57.1273   58.6238 H   0  0  0  0  0  0  0  0  0  0  0  0
  -37.5541   58.2318   58.0541 H   0  0  0  0  0  0  0  0  0  0  0  0
  -36.6216   59.5262   57.2769 H   0  0  0  0  0  0  0  0  0  0  0  0
  -35.6657   60.1339   59.3789 H   0  0  0  0  0  0  0  0  0  0  0  0
  -36.5780   58.8295   60.1614 H   0  0  0  0  0  0  0  0  0  0  0  0
  -37.7565   61.1973   58.8013 H   0  0  0  0  0  0  0  0  0  0  0  0
  -37.5917   60.9370   60.5567 H   0  0  0  0  0  0  0  0  0  0  0  0
  -39.2377   59.2839   58.7144 H   0  0  0  0  0  0  0  0  0  0  0  0
  -39.8253   60.5350   59.8227 H   0  0  0  0  0  0  0  0  0  0  0  0
  -38.4176   58.0310   60.6201 H   0  0  0  0  0  0  0  0  0  0  0  0
  -40.1649   58.3609   60.7319 H   0  0  0  0  0  0  0  0  0  0  0  0
  -36.4020   59.0962   62.6252 H   0  0  0  0  0  0  0  0  0  0  0  0
  -36.6048   58.1555   64.0382 H   0  0  0  0  0  0  0  0  0  0  0  0
  -37.7985   60.8886   63.5519 H   0  0  0  0  0  0  0  0  0  0  0  0
  -36.3238   61.7163   65.2340 H   0  0  0  0  0  0  0  0  0  0  0  0
  -35.5811   60.1472   65.3829 H   0  0  0  0  0  0  0  0  0  0  0  0
  -34.7754   61.2469   61.0888 H   0  0  0  0  0  0  0  0  0  0  0  0
  -33.4198   60.1964   61.3800 H   0  0  0  0  0  0  0  0  0  0  0  0
  -33.3751   62.7035   59.7453 H   0  0  0  0  0  0  0  0  0  0  0  0
  -34.5810   60.9767   58.6069 H   0  0  0  0  0  0  0  0  0  0  0  0
  -33.0394   61.2984   57.8297 H   0  0  0  0  0  0  0  0  0  0  0  0
  -38.5424   58.2856   68.0830 H   0  0  0  0  0  0  0  0  0  0  0  0
  -39.3865   59.6897   67.4345 H   0  0  0  0  0  0  0  0  0  0  0  0
  -36.5912   59.6777   68.5040 H   0  0  0  0  0  0  0  0  0  0  0  0
  -38.0445   60.2998   69.3227 H   0  0  0  0  0  0  0  0  0  0  0  0
  -36.8808   61.3825   66.8062 H   0  0  0  0  0  0  0  0  0  0  0  0
  -36.7273   62.0754   68.4361 H   0  0  0  0  0  0  0  0  0  0  0  0
  -39.0861   62.4378   68.5336 H   0  0  0  0  0  0  0  0  0  0  0  0
  -39.2472   61.7288   66.9079 H   0  0  0  0  0  0  0  0  0  0  0  0
  -37.9969   63.5183   65.9719 H   0  0  0  0  0  0  0  0  0  0  0  0
  -37.8199   64.2235   67.6023 H   0  0  0  0  0  0  0  0  0  0  0  0
  -40.1626   64.6193   67.7206 H   0  0  0  0  0  0  0  0  0  0  0  0
  -40.3452   63.8985   66.0922 H   0  0  0  0  0  0  0  0  0  0  0  0
  -40.5075   66.3133   66.0256 H   0  0  0  0  0  0  0  0  0  0  0  0
  -39.1207   65.6859   65.1287 H   0  0  0  0  0  0  0  0  0  0  0  0
  -37.7853   67.0633   66.3862 H   0  0  0  0  0  0  0  0  0  0  0  0
  -38.0520   67.7331   68.5170 H   0  0  0  0  0  0  0  0  0  0  0  0
  -40.5979   66.1275   68.4946 H   0  0  0  0  0  0  0  0  0  0  0  0
  -40.3891   67.6659   69.3427 H   0  0  0  0  0  0  0  0  0  0  0  0
  -38.7822   66.6575   70.8205 H   0  0  0  0  0  0  0  0  0  0  0  0
  -38.9846   65.1151   69.9587 H   0  0  0  0  0  0  0  0  0  0  0  0
  -41.2515   64.9778   70.6809 H   0  0  0  0  0  0  0  0  0  0  0  0
  -41.0633   66.5295   71.5291 H   0  0  0  0  0  0  0  0  0  0  0  0
  -40.9845   64.6707   73.0577 H   0  0  0  0  0  0  0  0  0  0  0  0
  -39.4455   65.5695   72.9668 H   0  0  0  0  0  0  0  0  0  0  0  0
  -39.0795   63.1957   73.1544 H   0  0  0  0  0  0  0  0  0  0  0  0
  -38.5050   63.8735   71.6157 H   0  0  0  0  0  0  0  0  0  0  0  0
  -39.5418   61.7185   71.3006 H   0  0  0  0  0  0  0  0  0  0  0  0
  -40.4332   63.0434   70.5084 H   0  0  0  0  0  0  0  0  0  0  0  0
  -41.2031   61.7324   73.0639 H   0  0  0  0  0  0  0  0  0  0  0  0
  -41.9219   61.4450   71.4705 H   0  0  0  0  0  0  0  0  0  0  0  0
  -41.9485   64.0280   72.9563 H   0  0  0  0  0  0  0  0  0  0  0  0
  -43.2965   62.9317   72.7716 H   0  0  0  0  0  0  0  0  0  0  0  0
  -42.6320   63.7426   71.3738 H   0  0  0  0  0  0  0  0  0  0  0  0
  1  4  1  0  0  0  0
  1 54  1  0  0  0  0
  1 55  1  0  0  0  0
  1 56  1  0  0  0  0
  2 29  2  0  0  0  0
  3  7  1  0  0  0  0
  3  9  2  1  0  0  0
  3 11  1  0  0  0  0
  3 13  1  0  0  0  0
  4  6  1  0  0  0  0
  4 57  1  0  0  0  0
  4 58  1  0  0  0  0
  5 29  1  0  0  0  0
  5 30  1  0  0  0  0
  6  8  1  0  0  0  0
  6 59  1  0  0  0  0
  6 60  1  0  0  0  0
  7 32  1  0  0  0  0
  8 10  1  0  0  0  0
  8 61  1  0  0  0  0
  8 62  1  0  0  0  0
 10 12  1  0  0  0  0
 10 63  1  0  0  0  0
 10 64  1  0  0  0  0
 11 65  1  0  0  0  0
 12 14  1  0  0  0  0
 12 66  1  0  0  0  0
 12 67  1  0  0  0  0
 13 33  1  0  0  0  0
 14 16  1  0  0  0  0
 14 68  1  0  0  0  0
 14 69  1  0  0  0  0
 15 35  1  0  0  0  0
 15 70  1  0  0  0  0
 16 18  1  0  0  0  0
 16 71  1  0  0  0  0
 16 72  1  0  0  0  0
 17 34  1  0  0  0  0
 17 73  1  0  0  0  0
 18 20  1  0  0  0  0
 18 74  1  0  0  0  0
 18 75  1  0  0  0  0
 19 31  1  0  0  0  0
 19 36  1  0  0  0  0
 20 22  1  0  0  0  0
 20 76  1  0  0  0  0
 20 77  1  0  0  0  0
 21 36  2  0  0  0  0
 22 23  1  0  0  0  0
 22 78  1  0  0  0  0
 22 79  1  0  0  0  0
 23 24  1  0  0  0  0
 23 80  1  0  0  0  0
 23 81  1  0  0  0  0
 24 25  1  0  0  0  0
 24 82  1  0  0  0  0
 24 83  1  0  0  0  0
 25 26  1  0  0  0  0
 25 84  1  0  0  0  0
 25 85  1  0  0  0  0
 26 27  1  0  0  0  0
 26 86  1  0  0  0  0
 26 87  1  0  0  0  0
 27 28  1  0  0  0  0
 27 88  1  0  0  0  0
 27 89  1  0  0  0  0
 28 29  1  0  0  0  0
 28 90  1  0  0  0  0
 28 91  1  0  0  0  0
 30 31  1  0  0  0  0
 30 92  1  0  0  0  0
 30 93  1  0  0  0  0
 31 32  1  0  0  0  0
 31 94  1  6  0  0  0
 32 95  1  0  0  0  0
 32 96  1  0  0  0  0
 33 34  1  0  0  0  0
 33 97  1  0  0  0  0
 33 98  1  0  0  0  0
 34 35  1  0  0  0  0
 34 99  1  6  0  0  0
 35100  1  0  0  0  0
 35101  1  0  0  0  0
 36 37  1  0  0  0  0
 37 38  1  0  0  0  0
 37102  1  0  0  0  0
 37103  1  0  0  0  0
 38 39  1  0  0  0  0
 38104  1  0  0  0  0
 38105  1  0  0  0  0
 39 40  1  0  0  0  0
 39106  1  0  0  0  0
 39107  1  0  0  0  0
 40 41  1  0  0  0  0
 40108  1  0  0  0  0
 40109  1  0  0  0  0
 41 42  1  0  0  0  0
 41110  1  0  0  0  0
 41111  1  0  0  0  0
 42 43  1  0  0  0  0
 42112  1  0  0  0  0
 42113  1  0  0  0  0
 43 44  1  0  0  0  0
 43114  1  0  0  0  0
 43115  1  0  0  0  0
 44 45  2  0  0  0  0
 44116  1  0  0  0  0
 45 46  1  0  0  0  0
 45117  1  0  0  0  0
 46 47  1  0  0  0  0
 46118  1  0  0  0  0
 46119  1  0  0  0  0
 47 48  1  0  0  0  0
 47120  1  0  0  0  0
 47121  1  0  0  0  0
 48 49  1  0  0  0  0
 48122  1  0  0  0  0
 48123  1  0  0  0  0
 49 50  1  0  0  0  0
 49124  1  0  0  0  0
 49125  1  0  0  0  0
 50 51  1  0  0  0  0
 50126  1  0  0  0  0
 50127  1  0  0  0  0
 51 52  1  0  0  0  0
 51128  1  0  0  0  0
 51129  1  0  0  0  0
 52 53  1  0  0  0  0
 52130  1  0  0  0  0
 52131  1  0  0  0  0
 53132  1  0  0  0  0
 53133  1  0  0  0  0
 53134  1  0  0  0  0
M  CHG  1   9  -1
M  END
$$$$
/media/chris/experiments/cd1a-new-docking/inputs/ligands/7sh4_ligand.pdb
 OpenBabel07012320073D

134133  0  0  1  0  0  0  0  0999 V2000
  -39.7453   50.1483   73.8825 C   0  0  0  0  0  0  0  0  0  0  0  0
  -38.9960   60.3074   61.7875 O   0  0  0  0  0  0  0  0  0  0  0  0
  -34.0491   60.2433   66.3537 P   0  0  1  0  0  0  0  0  0  0  0  0
  -38.8037   50.9256   72.9908 C   0  0  0  0  0  0  0  0  0  0  0  0
  -38.3690   58.5038   62.9506 O   0  0  0  0  0  0  0  0  0  0  0  0
  -39.3686   52.2752   72.5900 C   0  0  0  0  0  0  0  0  0  0  0  0
  -35.4212   59.8922   65.6081 O   0  0  0  0  0  0  0  0  0  0  0  0
  -38.4717   53.0942   71.6791 C   0  0  0  0  0  0  0  0  0  0  0  0
  -34.2885   60.1710   67.8112 O   0  5  0  0  0  0  0  0  0  0  0  0
  -39.0560   54.4498   71.3071 C   0  0  0  0  0  0  0  0  0  0  0  0
  -32.9766   59.4052   65.7656 O   0  0  0  0  0  0  0  0  0  0  0  0
  -40.3889   54.3612   70.5925 C   0  0  0  0  0  0  0  0  0  0  0  0
  -33.7429   61.7632   65.9812 O   0  0  0  0  0  0  0  0  0  0  0  0
  -40.9582   55.7137   70.2092 C   0  0  0  0  0  0  0  0  0  0  0  0
  -30.2806   61.8000   68.2820 O   0  0  0  0  0  0  0  0  0  0  0  0
  -42.3079   55.6402   69.5042 C   0  0  0  0  0  0  0  0  0  0  0  0
  -30.1387   62.0061   65.4597 O   0  0  0  0  0  0  0  0  0  0  0  0
  -42.2841   54.8400   68.2187 C   0  0  0  0  0  0  0  0  0  0  0  0
  -38.2720   59.8520   65.2990 O   0  0  0  0  0  0  0  0  0  0  0  0
  -41.3211   55.3722   67.1768 C   0  0  0  0  0  0  0  0  0  0  0  0
  -39.8075   59.1219   63.8261 O   0  0  0  0  0  0  0  0  0  0  0  0
  -41.3345   54.5608   65.9002 C   0  0  0  0  0  0  0  0  0  0  0  0
  -40.3702   55.0668   64.8602 C   0  0  0  0  0  0  0  0  0  0  0  0
  -40.4029   54.2615   63.5843 C   0  0  0  0  0  0  0  0  0  0  0  0
  -39.4218   54.7569   62.5411 C   0  0  0  0  0  0  0  0  0  0  0  0
  -39.6626   56.1938   62.1372 C   0  0  0  0  0  0  0  0  0  0  0  0
  -38.7064   56.7102   61.0828 C   0  0  0  0  0  0  0  0  0  0  0  0
  -38.9658   58.1609   60.7132 C   0  0  0  0  0  0  0  0  0  0  0  0
  -38.8234   59.1206   61.8593 C   0  0  0  0  0  0  0  0  0  0  0  0
  -37.0720   58.9080   63.4380 C   0  0  0  0  0  0  0  0  0  0  0  0
  -37.3490   60.1700   64.2050 C   0  0  2  0  0  0  0  0  0  0  0  0
  -36.0840   60.8130   64.7130 C   0  0  0  0  0  0  0  0  0  0  0  0
  -32.5267   62.1046   65.2852 C   0  0  0  0  0  0  0  0  0  0  0  0
  -31.3560   61.6605   66.1274 C   0  0  2  0  0  0  0  0  0  0  0  0
  -31.3811   62.2647   67.5109 C   0  0  0  0  0  0  0  0  0  0  0  0
  -39.4672   59.3329   64.9581 C   0  0  0  0  0  0  0  0  0  0  0  0
  -40.3113   59.0340   66.1581 C   0  0  0  0  0  0  0  0  0  0  0  0
  -39.4546   58.6893   67.3722 C   0  0  0  0  0  0  0  0  0  0  0  0
  -40.2578   58.3591   68.6196 C   0  0  0  0  0  0  0  0  0  0  0  0
  -39.3939   58.0325   69.8323 C   0  0  0  0  0  0  0  0  0  0  0  0
  -38.4649   56.8503   69.6277 C   0  0  0  0  0  0  0  0  0  0  0  0
  -37.6029   56.4999   70.8439 C   0  0  0  0  0  0  0  0  0  0  0  0
  -36.6798   57.6184   71.3322 C   0  0  0  0  0  0  0  0  0  0  0  0
  -35.7164   58.0592   70.2713 C   0  0  0  0  0  0  0  0  0  0  0  0
  -34.5100   57.5734   70.0521 C   0  0  0  0  0  0  0  0  0  0  0  0
  -33.8486   56.4731   70.8204 C   0  0  0  0  0  0  0  0  0  0  0  0
  -34.7333   55.9305   71.9390 C   0  0  0  0  0  0  0  0  0  0  0  0
  -34.0818   54.8229   72.7483 C   0  0  0  0  0  0  0  0  0  0  0  0
  -33.6878   53.6127   71.9193 C   0  0  0  0  0  0  0  0  0  0  0  0
  -34.8431   52.9432   71.1937 C   0  0  0  0  0  0  0  0  0  0  0  0
  -34.4256   51.7247   70.3847 C   0  0  0  0  0  0  0  0  0  0  0  0
  -33.3937   52.0135   69.3126 C   0  0  0  0  0  0  0  0  0  0  0  0
  -32.1087   52.5558   69.8732 C   0  0  0  0  0  0  0  0  0  0  0  0
  -39.3019   49.2080   74.1357 H   0  0  0  0  0  0  0  0  0  0  0  0
  -40.6677   49.9803   73.3668 H   0  0  0  0  0  0  0  0  0  0  0  0
  -39.9326   50.7064   74.7759 H   0  0  0  0  0  0  0  0  0  0  0  0
  -38.6186   50.3540   72.1054 H   0  0  0  0  0  0  0  0  0  0  0  0
  -37.9026   51.0995   73.5409 H   0  0  0  0  0  0  0  0  0  0  0  0
  -39.5439   52.8408   73.4812 H   0  0  0  0  0  0  0  0  0  0  0  0
  -40.2613   52.0759   72.0349 H   0  0  0  0  0  0  0  0  0  0  0  0
  -38.3057   52.5390   70.7795 H   0  0  0  0  0  0  0  0  0  0  0  0
  -37.5648   53.2799   72.2158 H   0  0  0  0  0  0  0  0  0  0  0  0
  -38.3618   54.9530   70.6669 H   0  0  0  0  0  0  0  0  0  0  0  0
  -39.2250   54.9798   72.2212 H   0  0  0  0  0  0  0  0  0  0  0  0
  -33.1408   58.4733   65.9789 H   0  0  0  0  0  0  0  0  0  0  0  0
  -41.0872   53.8696   71.2371 H   0  0  0  0  0  0  0  0  0  0  0  0
  -40.2250   53.8189   69.6847 H   0  0  0  0  0  0  0  0  0  0  0  0
  -40.2632   56.1986   69.5560 H   0  0  0  0  0  0  0  0  0  0  0  0
  -41.1133   56.2539   71.1197 H   0  0  0  0  0  0  0  0  0  0  0  0
  -30.3139   62.1985   69.1658 H   0  0  0  0  0  0  0  0  0  0  0  0
  -42.6234   56.6367   69.2752 H   0  0  0  0  0  0  0  0  0  0  0  0
  -42.9800   55.1402   70.1698 H   0  0  0  0  0  0  0  0  0  0  0  0
  -30.1336   61.6130   64.5729 H   0  0  0  0  0  0  0  0  0  0  0  0
  -43.2690   54.8464   67.8006 H   0  0  0  0  0  0  0  0  0  0  0  0
  -41.9500   53.8560   68.4739 H   0  0  0  0  0  0  0  0  0  0  0  0
  -40.3318   55.3534   67.5838 H   0  0  0  0  0  0  0  0  0  0  0  0
  -41.6291   56.3668   66.9305 H   0  0  0  0  0  0  0  0  0  0  0  0
  -42.3223   54.5902   65.4899 H   0  0  0  0  0  0  0  0  0  0  0  0
  -41.0319   53.5665   66.1546 H   0  0  0  0  0  0  0  0  0  0  0  0
  -39.3803   55.0255   65.2643 H   0  0  0  0  0  0  0  0  0  0  0  0
  -40.6601   56.0672   64.6149 H   0  0  0  0  0  0  0  0  0  0  0  0
  -41.3900   54.3132   63.1746 H   0  0  0  0  0  0  0  0  0  0  0  0
  -40.1233   53.2592   63.8334 H   0  0  0  0  0  0  0  0  0  0  0  0
  -39.5084   54.1395   61.6716 H   0  0  0  0  0  0  0  0  0  0  0  0
  -38.4439   54.7058   62.9724 H   0  0  0  0  0  0  0  0  0  0  0  0
  -39.5655   56.8080   63.0079 H   0  0  0  0  0  0  0  0  0  0  0  0
  -40.6426   56.2331   61.7095 H   0  0  0  0  0  0  0  0  0  0  0  0
  -38.8102   56.1095   60.2034 H   0  0  0  0  0  0  0  0  0  0  0  0
  -37.7178   56.6525   61.4881 H   0  0  0  0  0  0  0  0  0  0  0  0
  -39.9629   58.2375   60.3327 H   0  0  0  0  0  0  0  0  0  0  0  0
  -38.2253   58.4321   59.9900 H   0  0  0  0  0  0  0  0  0  0  0  0
  -36.4020   59.0962   62.6252 H   0  0  0  0  0  0  0  0  0  0  0  0
  -36.6048   58.1555   64.0382 H   0  0  0  0  0  0  0  0  0  0  0  0
  -37.7985   60.8886   63.5519 H   0  0  0  0  0  0  0  0  0  0  0  0
  -35.4401   61.0403   63.8892 H   0  0  0  0  0  0  0  0  0  0  0  0
  -36.3193   61.7188   65.2317 H   0  0  0  0  0  0  0  0  0  0  0  0
  -32.4820   63.1628   65.1333 H   0  0  0  0  0  0  0  0  0  0  0  0
  -32.4995   61.6188   64.3322 H   0  0  0  0  0  0  0  0  0  0  0  0
  -31.4221   60.5997   66.2504 H   0  0  0  0  0  0  0  0  0  0  0  0
  -31.3281   63.3304   67.4298 H   0  0  0  0  0  0  0  0  0  0  0  0
  -32.2890   61.9742   67.9969 H   0  0  0  0  0  0  0  0  0  0  0  0
  -40.9498   58.2046   65.9363 H   0  0  0  0  0  0  0  0  0  0  0  0
  -40.8865   59.9061   66.3897 H   0  0  0  0  0  0  0  0  0  0  0  0
  -38.8250   59.5269   67.5889 H   0  0  0  0  0  0  0  0  0  0  0  0
  -38.8979   57.8110   67.1200 H   0  0  0  0  0  0  0  0  0  0  0  0
  -40.8782   57.5133   68.4084 H   0  0  0  0  0  0  0  0  0  0  0  0
  -40.8279   59.2305   68.8657 H   0  0  0  0  0  0  0  0  0  0  0  0
  -40.0400   57.8140   70.6567 H   0  0  0  0  0  0  0  0  0  0  0  0
  -38.7739   58.8864   70.0099 H   0  0  0  0  0  0  0  0  0  0  0  0
  -37.8127   57.0758   68.8100 H   0  0  0  0  0  0  0  0  0  0  0  0
  -39.0898   56.0014   69.4438 H   0  0  0  0  0  0  0  0  0  0  0  0
  -36.9952   55.6575   70.5872 H   0  0  0  0  0  0  0  0  0  0  0  0
  -38.2849   56.3067   71.6454 H   0  0  0  0  0  0  0  0  0  0  0  0
  -36.1252   57.2641   72.1759 H   0  0  0  0  0  0  0  0  0  0  0  0
  -37.2895   58.4582   71.5927 H   0  0  0  0  0  0  0  0  0  0  0  0
  -36.0292   58.8207   69.6490 H   0  0  0  0  0  0  0  0  0  0  0  0
  -33.9715   57.9916   69.2775 H   0  0  0  0  0  0  0  0  0  0  0  0
  -32.9439   56.8499   71.2500 H   0  0  0  0  0  0  0  0  0  0  0  0
  -33.6551   55.6707   70.1395 H   0  0  0  0  0  0  0  0  0  0  0  0
  -35.6320   55.5468   71.5031 H   0  0  0  0  0  0  0  0  0  0  0  0
  -34.9202   56.7414   72.6116 H   0  0  0  0  0  0  0  0  0  0  0  0
  -34.7709   54.5057   73.5030 H   0  0  0  0  0  0  0  0  0  0  0  0
  -33.1810   55.2258   73.1619 H   0  0  0  0  0  0  0  0  0  0  0  0
  -33.2401   52.8921   72.5714 H   0  0  0  0  0  0  0  0  0  0  0  0
  -33.0176   53.9662   71.1638 H   0  0  0  0  0  0  0  0  0  0  0  0
  -35.2846   53.6562   70.5291 H   0  0  0  0  0  0  0  0  0  0  0  0
  -35.5309   52.6052   71.9405 H   0  0  0  0  0  0  0  0  0  0  0  0
  -35.2966   51.3213   69.9120 H   0  0  0  0  0  0  0  0  0  0  0  0
  -33.9719   51.0408   71.0714 H   0  0  0  0  0  0  0  0  0  0  0  0
  -33.8000   52.7320   68.6316 H   0  0  0  0  0  0  0  0  0  0  0  0
  -33.1678   51.0885   68.8246 H   0  0  0  0  0  0  0  0  0  0  0  0
  -32.2999   53.4842   70.3697 H   0  0  0  0  0  0  0  0  0  0  0  0
  -31.4111   52.7140   69.0775 H   0  0  0  0  0  0  0  0  0  0  0  0
  -31.7005   51.8553   70.5715 H   0  0  0  0  0  0  0  0  0  0  0  0
  1  4  1  0  0  0  0
  1 54  1  0  0  0  0
  1 55  1  0  0  0  0
  1 56  1  0  0  0  0
  2 29  2  0  0  0  0
  3  7  1  0  0  0  0
  3  9  2  1  0  0  0
  3 11  1  0  0  0  0
  3 13  1  0  0  0  0
  4  6  1  0  0  0  0
  4 57  1  0  0  0  0
  4 58  1  0  0  0  0
  5 29  1  0  0  0  0
  5 30  1  0  0  0  0
  6  8  1  0  0  0  0
  6 59  1  0  0  0  0
  6 60  1  0  0  0  0
  7 32  1  0  0  0  0
  8 10  1  0  0  0  0
  8 61  1  0  0  0  0
  8 62  1  0  0  0  0
 10 12  1  0  0  0  0
 10 63  1  0  0  0  0
 10 64  1  0  0  0  0
 11 65  1  0  0  0  0
 12 14  1  0  0  0  0
 12 66  1  0  0  0  0
 12 67  1  0  0  0  0
 13 33  1  0  0  0  0
 14 16  1  0  0  0  0
 14 68  1  0  0  0  0
 14 69  1  0  0  0  0
 15 35  1  0  0  0  0
 15 70  1  0  0  0  0
 16 18  1  0  0  0  0
 16 71  1  0  0  0  0
 16 72  1  0  0  0  0
 17 34  1  0  0  0  0
 17 73  1  0  0  0  0
 18 20  1  0  0  0  0
 18 74  1  0  0  0  0
 18 75  1  0  0  0  0
 19 31  1  0  0  0  0
 19 36  1  0  0  0  0
 20 22  1  0  0  0  0
 20 76  1  0  0  0  0
 20 77  1  0  0  0  0
 21 36  2  0  0  0  0
 22 23  1  0  0  0  0
 22 78  1  0  0  0  0
 22 79  1  0  0  0  0
 23 24  1  0  0  0  0
 23 80  1  0  0  0  0
 23 81  1  0  0  0  0
 24 25  1  0  0  0  0
 24 82  1  0  0  0  0
 24 83  1  0  0  0  0
 25 26  1  0  0  0  0
 25 84  1  0  0  0  0
 25 85  1  0  0  0  0
 26 27  1  0  0  0  0
 26 86  1  0  0  0  0
 26 87  1  0  0  0  0
 27 28  1  0  0  0  0
 27 88  1  0  0  0  0
 27 89  1  0  0  0  0
 28 29  1  0  0  0  0
 28 90  1  0  0  0  0
 28 91  1  0  0  0  0
 30 31  1  0  0  0  0
 30 92  1  0  0  0  0
 30 93  1  0  0  0  0
 31 32  1  0  0  0  0
 31 94  1  6  0  0  0
 32 95  1  0  0  0  0
 32 96  1  0  0  0  0
 33 34  1  0  0  0  0
 33 97  1  0  0  0  0
 33 98  1  0  0  0  0
 34 35  1  0  0  0  0
 34 99  1  1  0  0  0
 35100  1  0  0  0  0
 35101  1  0  0  0  0
 36 37  1  0  0  0  0
 37 38  1  0  0  0  0
 37102  1  0  0  0  0
 37103  1  0  0  0  0
 38 39  1  0  0  0  0
 38104  1  0  0  0  0
 38105  1  0  0  0  0
 39 40  1  0  0  0  0
 39106  1  0  0  0  0
 39107  1  0  0  0  0
 40 41  1  0  0  0  0
 40108  1  0  0  0  0
 40109  1  0  0  0  0
 41 42  1  0  0  0  0
 41110  1  0  0  0  0
 41111  1  0  0  0  0
 42 43  1  0  0  0  0
 42112  1  0  0  0  0
 42113  1  0  0  0  0
 43 44  1  0  0  0  0
 43114  1  0  0  0  0
 43115  1  0  0  0  0
 44 45  2  0  0  0  0
 44116  1  0  0  0  0
 45 46  1  0  0  0  0
 45117  1  0  0  0  0
 46 47  1  0  0  0  0
 46118  1  0  0  0  0
 46119  1  0  0  0  0
 47 48  1  0  0  0  0
 47120  1  0  0  0  0
 47121  1  0  0  0  0
 48 49  1  0  0  0  0
 48122  1  0  0  0  0
 48123  1  0  0  0  0
 49 50  1  0  0  0  0
 49124  1  0  0  0  0
 49125  1  0  0  0  0
 50 51  1  0  0  0  0
 50126  1  0  0  0  0
 50127  1  0  0  0  0
 51 52  1  0  0  0  0
 51128  1  0  0  0  0
 51129  1  0  0  0  0
 52 53  1  0  0  0  0
 52130  1  0  0  0  0
 52131  1  0  0  0  0
 53132  1  0  0  0  0
 53133  1  0  0  0  0
 53134  1  0  0  0  0
M  CHG  1   9  -1
M  END
$$$$
/media/chris/experiments/cd1a-new-docking/inputs/ligands/7sh4_ligand.pdb
 OpenBabel07012320073D

134133  0  0  1  0  0  0  0  0999 V2000
  -48.7741   58.3816   68.5381 C   0  0  0  0  0  0  0  0  0  0  0  0
  -38.3503   59.3356   60.8753 O   0  0  0  0  0  0  0  0  0  0  0  0
  -34.0491   60.2433   66.3537 P   0  0  1  0  0  0  0  0  0  0  0  0
  -47.5704   57.5329   68.8796 C   0  0  0  0  0  0  0  0  0  0  0  0
  -38.3690   58.5038   62.9506 O   0  0  0  0  0  0  0  0  0  0  0  0
  -46.3224   57.9744   68.1389 C   0  0  0  0  0  0  0  0  0  0  0  0
  -35.4212   59.8922   65.6081 O   0  0  0  0  0  0  0  0  0  0  0  0
  -45.0840   57.1459   68.4305 C   0  0  0  0  0  0  0  0  0  0  0  0
  -33.0346   59.2516   65.9368 O   0  5  0  0  0  0  0  0  0  0  0  0
  -45.2308   55.6778   68.0555 C   0  0  0  0  0  0  0  0  0  0  0  0
  -33.7655   61.6836   66.1443 O   0  0  0  0  0  0  0  0  0  0  0  0
  -44.0015   54.8469   68.3617 C   0  0  0  0  0  0  0  0  0  0  0  0
  -34.3431   60.0224   67.9054 O   0  0  0  0  0  0  0  0  0  0  0  0
  -44.1470   53.3888   67.9706 C   0  0  0  0  0  0  0  0  0  0  0  0
  -30.6899   61.9372   67.3851 O   0  0  0  0  0  0  0  0  0  0  0  0
  -42.9232   52.5372   68.2888 C   0  0  0  0  0  0  0  0  0  0  0  0
  -31.1315   60.2570   69.6234 O   0  0  0  0  0  0  0  0  0  0  0  0
  -41.6560   53.0076   67.6061 C   0  0  0  0  0  0  0  0  0  0  0  0
  -38.2720   59.8520   65.2990 O   0  0  0  0  0  0  0  0  0  0  0  0
  -41.7406   53.0303   66.0933 C   0  0  0  0  0  0  0  0  0  0  0  0
  -39.8075   59.1219   63.8261 O   0  0  0  0  0  0  0  0  0  0  0  0
  -40.4539   53.4882   65.4430 C   0  0  0  0  0  0  0  0  0  0  0  0
  -40.5269   53.5325   63.9395 C   0  0  0  0  0  0  0  0  0  0  0  0
  -39.2337   53.9741   63.2991 C   0  0  0  0  0  0  0  0  0  0  0  0
  -39.3078   54.0364   61.7870 C   0  0  0  0  0  0  0  0  0  0  0  0
  -40.3478   55.0121   61.2849 C   0  0  0  0  0  0  0  0  0  0  0  0
  -40.1111   56.4453   61.7122 C   0  0  0  0  0  0  0  0  0  0  0  0
  -38.7894   56.9990   61.2075 C   0  0  0  0  0  0  0  0  0  0  0  0
  -38.5165   58.4143   61.6284 C   0  0  0  0  0  0  0  0  0  0  0  0
  -37.0720   58.9080   63.4380 C   0  0  0  0  0  0  0  0  0  0  0  0
  -37.3490   60.1700   64.2050 C   0  0  2  0  0  0  0  0  0  0  0  0
  -36.0840   60.8130   64.7130 C   0  0  0  0  0  0  0  0  0  0  0  0
  -33.2816   59.6066   68.7887 C   0  0  0  0  0  0  0  0  0  0  0  0
  -32.2020   60.6606   68.7643 C   0  0  2  0  0  0  0  0  0  0  0  0
  -31.6823   60.9191   67.3705 C   0  0  0  0  0  0  0  0  0  0  0  0
  -39.4672   59.3329   64.9581 C   0  0  0  0  0  0  0  0  0  0  0  0
  -40.3113   59.0340   66.1581 C   0  0  0  0  0  0  0  0  0  0  0  0
  -41.7976   59.1725   65.8444 C   0  0  0  0  0  0  0  0  0  0  0  0
  -42.7063   58.8973   67.0313 C   0  0  0  0  0  0  0  0  0  0  0  0
  -42.4785   59.8423   68.2056 C   0  0  0  0  0  0  0  0  0  0  0  0
  -41.0675   59.8054   68.7625 C   0  0  0  0  0  0  0  0  0  0  0  0
  -40.8287   60.7374   69.9538 C   0  0  0  0  0  0  0  0  0  0  0  0
  -39.4057   60.7243   70.5163 C   0  0  0  0  0  0  0  0  0  0  0  0
  -38.9964   59.3604   70.9856 C   0  0  0  0  0  0  0  0  0  0  0  0
  -39.1545   58.8643   72.1974 C   0  0  0  0  0  0  0  0  0  0  0  0
  -39.7806   59.5634   73.3626 C   0  0  0  0  0  0  0  0  0  0  0  0
  -40.8412   60.5734   72.9343 C   0  0  0  0  0  0  0  0  0  0  0  0
  -41.4835   61.3121   74.0954 C   0  0  0  0  0  0  0  0  0  0  0  0
  -42.1731   60.3978   75.0933 C   0  0  0  0  0  0  0  0  0  0  0  0
  -43.2859   59.5473   74.5034 C   0  0  0  0  0  0  0  0  0  0  0  0
  -43.9716   58.6535   75.5255 C   0  0  0  0  0  0  0  0  0  0  0  0
  -45.0737   57.7849   74.9523 C   0  0  0  0  0  0  0  0  0  0  0  0
  -44.5780   56.8401   73.8933 C   0  0  0  0  0  0  0  0  0  0  0  0
  -49.6245   58.0306   69.0844 H   0  0  0  0  0  0  0  0  0  0  0  0
  -48.9717   58.3144   67.4887 H   0  0  0  0  0  0  0  0  0  0  0  0
  -48.5778   59.4005   68.7996 H   0  0  0  0  0  0  0  0  0  0  0  0
  -47.7821   56.5165   68.6208 H   0  0  0  0  0  0  0  0  0  0  0  0
  -47.3826   57.6398   69.9276 H   0  0  0  0  0  0  0  0  0  0  0  0
  -46.1159   58.9888   68.4093 H   0  0  0  0  0  0  0  0  0  0  0  0
  -46.5302   57.8500   67.0966 H   0  0  0  0  0  0  0  0  0  0  0  0
  -44.8742   57.2082   69.4778 H   0  0  0  0  0  0  0  0  0  0  0  0
  -44.2915   57.5449   67.8323 H   0  0  0  0  0  0  0  0  0  0  0  0
  -45.4284   55.6151   67.0058 H   0  0  0  0  0  0  0  0  0  0  0  0
  -46.0313   55.2823   68.6451 H   0  0  0  0  0  0  0  0  0  0  0  0
  -33.5830   61.8440   65.2052 H   0  0  0  0  0  0  0  0  0  0  0  0
  -43.8107   54.8986   69.4133 H   0  0  0  0  0  0  0  0  0  0  0  0
  -43.1961   55.2499   67.7840 H   0  0  0  0  0  0  0  0  0  0  0  0
  -44.3268   53.3392   66.9170 H   0  0  0  0  0  0  0  0  0  0  0  0
  -44.9579   52.9931   68.5458 H   0  0  0  0  0  0  0  0  0  0  0  0
  -30.3688   62.0888   66.4824 H   0  0  0  0  0  0  0  0  0  0  0  0
  -43.1212   51.5328   67.9774 H   0  0  0  0  0  0  0  0  0  0  0  0
  -42.7559   52.6141   69.3429 H   0  0  0  0  0  0  0  0  0  0  0  0
  -31.4766   60.0938   70.5152 H   0  0  0  0  0  0  0  0  0  0  0  0
  -40.8590   52.3519   67.8883 H   0  0  0  0  0  0  0  0  0  0  0  0
  -41.4920   54.0169   67.9212 H   0  0  0  0  0  0  0  0  0  0  0  0
  -42.5261   53.6969   65.8044 H   0  0  0  0  0  0  0  0  0  0  0  0
  -41.9299   52.0295   65.7653 H   0  0  0  0  0  0  0  0  0  0  0  0
  -39.6726   52.8137   65.7250 H   0  0  0  0  0  0  0  0  0  0  0  0
  -40.2674   54.4865   65.7799 H   0  0  0  0  0  0  0  0  0  0  0  0
  -41.2990   54.2167   63.6557 H   0  0  0  0  0  0  0  0  0  0  0  0
  -40.7293   52.5383   63.5995 H   0  0  0  0  0  0  0  0  0  0  0  0
  -38.4646   53.2827   63.5738 H   0  0  0  0  0  0  0  0  0  0  0  0
  -39.0273   54.9641   63.6487 H   0  0  0  0  0  0  0  0  0  0  0  0
  -39.5485   53.0616   61.4171 H   0  0  0  0  0  0  0  0  0  0  0  0
  -38.3559   54.3744   61.4341 H   0  0  0  0  0  0  0  0  0  0  0  0
  -41.3032   54.7047   61.6559 H   0  0  0  0  0  0  0  0  0  0  0  0
  -40.2938   54.9967   60.2164 H   0  0  0  0  0  0  0  0  0  0  0  0
  -40.1139   56.4883   62.7814 H   0  0  0  0  0  0  0  0  0  0  0  0
  -40.8928   57.0411   61.2893 H   0  0  0  0  0  0  0  0  0  0  0  0
  -38.7960   56.9619   60.1381 H   0  0  0  0  0  0  0  0  0  0  0  0
  -38.0177   56.3951   61.6373 H   0  0  0  0  0  0  0  0  0  0  0  0
  -36.4020   59.0962   62.6252 H   0  0  0  0  0  0  0  0  0  0  0  0
  -36.6048   58.1555   64.0382 H   0  0  0  0  0  0  0  0  0  0  0  0
  -37.7985   60.8886   63.5519 H   0  0  0  0  0  0  0  0  0  0  0  0
  -35.4401   61.0403   63.8892 H   0  0  0  0  0  0  0  0  0  0  0  0
  -36.3193   61.7188   65.2317 H   0  0  0  0  0  0  0  0  0  0  0  0
  -32.8811   58.6713   68.4574 H   0  0  0  0  0  0  0  0  0  0  0  0
  -33.6566   59.4871   69.7837 H   0  0  0  0  0  0  0  0  0  0  0  0
  -32.6293   61.5780   69.1118 H   0  0  0  0  0  0  0  0  0  0  0  0
  -31.2556   60.0181   66.9820 H   0  0  0  0  0  0  0  0  0  0  0  0
  -32.4958   61.2403   66.7540 H   0  0  0  0  0  0  0  0  0  0  0  0
  -40.0562   59.7168   66.9415 H   0  0  0  0  0  0  0  0  0  0  0  0
  -40.1240   58.0239   66.4573 H   0  0  0  0  0  0  0  0  0  0  0  0
  -42.0431   58.4818   65.0650 H   0  0  0  0  0  0  0  0  0  0  0  0
  -41.9608   60.1905   65.5580 H   0  0  0  0  0  0  0  0  0  0  0  0
  -42.5333   57.8954   67.3647 H   0  0  0  0  0  0  0  0  0  0  0  0
  -43.7120   59.0472   66.6981 H   0  0  0  0  0  0  0  0  0  0  0  0
  -43.1566   59.5750   68.9890 H   0  0  0  0  0  0  0  0  0  0  0  0
  -42.6415   60.8348   67.8405 H   0  0  0  0  0  0  0  0  0  0  0  0
  -40.3925   60.0836   67.9803 H   0  0  0  0  0  0  0  0  0  0  0  0
  -40.9080   58.8094   69.1195 H   0  0  0  0  0  0  0  0  0  0  0  0
  -41.4973   60.4501   70.7382 H   0  0  0  0  0  0  0  0  0  0  0  0
  -40.9958   61.7305   69.5921 H   0  0  0  0  0  0  0  0  0  0  0  0
  -39.3550   61.4027   71.3422 H   0  0  0  0  0  0  0  0  0  0  0  0
  -38.7390   61.0162   69.7320 H   0  0  0  0  0  0  0  0  0  0  0  0
  -38.5448   58.7470   70.2893 H   0  0  0  0  0  0  0  0  0  0  0  0
  -38.8142   57.9032   72.3569 H   0  0  0  0  0  0  0  0  0  0  0  0
  -39.0158   60.0779   73.9059 H   0  0  0  0  0  0  0  0  0  0  0  0
  -40.2610   58.8229   73.9673 H   0  0  0  0  0  0  0  0  0  0  0  0
  -41.6078   60.0524   72.3997 H   0  0  0  0  0  0  0  0  0  0  0  0
  -40.3493   61.3069   72.3303 H   0  0  0  0  0  0  0  0  0  0  0  0
  -42.2097   61.9927   73.7027 H   0  0  0  0  0  0  0  0  0  0  0  0
  -40.6975   61.8129   74.6210 H   0  0  0  0  0  0  0  0  0  0  0  0
  -42.5915   61.0046   75.8690 H   0  0  0  0  0  0  0  0  0  0  0  0
  -41.4272   59.7186   75.4501 H   0  0  0  0  0  0  0  0  0  0  0  0
  -42.8690   58.9278   73.7370 H   0  0  0  0  0  0  0  0  0  0  0  0
  -44.0277   60.2182   74.1233 H   0  0  0  0  0  0  0  0  0  0  0  0
  -44.3962   59.2766   76.2847 H   0  0  0  0  0  0  0  0  0  0  0  0
  -43.2229   57.9896   75.9044 H   0  0  0  0  0  0  0  0  0  0  0  0
  -45.8205   58.4192   74.5224 H   0  0  0  0  0  0  0  0  0  0  0  0
  -45.4681   57.1942   75.7525 H   0  0  0  0  0  0  0  0  0  0  0  0
  -44.1756   57.4005   73.0754 H   0  0  0  0  0  0  0  0  0  0  0  0
  -45.3899   56.2357   73.5463 H   0  0  0  0  0  0  0  0  0  0  0  0
  -43.8158   56.2117   74.3044 H   0  0  0  0  0  0  0  0  0  0  0  0
  1  4  1  0  0  0  0
  1 54  1  0  0  0  0
  1 55  1  0  0  0  0
  1 56  1  0  0  0  0
  2 29  2  0  0  0  0
  3  7  1  0  0  0  0
  3  9  2  6  0  0  0
  3 11  1  0  0  0  0
  3 13  1  0  0  0  0
  4  6  1  0  0  0  0
  4 57  1  0  0  0  0
  4 58  1  0  0  0  0
  5 29  1  0  0  0  0
  5 30  1  0  0  0  0
  6  8  1  0  0  0  0
  6 59  1  0  0  0  0
  6 60  1  0  0  0  0
  7 32  1  0  0  0  0
  8 10  1  0  0  0  0
  8 61  1  0  0  0  0
  8 62  1  0  0  0  0
 10 12  1  0  0  0  0
 10 63  1  0  0  0  0
 10 64  1  0  0  0  0
 11 65  1  0  0  0  0
 12 14  1  0  0  0  0
 12 66  1  0  0  0  0
 12 67  1  0  0  0  0
 13 33  1  0  0  0  0
 14 16  1  0  0  0  0
 14 68  1  0  0  0  0
 14 69  1  0  0  0  0
 15 35  1  0  0  0  0
 15 70  1  0  0  0  0
 16 18  1  0  0  0  0
 16 71  1  0  0  0  0
 16 72  1  0  0  0  0
 17 34  1  0  0  0  0
 17 73  1  0  0  0  0
 18 20  1  0  0  0  0
 18 74  1  0  0  0  0
 18 75  1  0  0  0  0
 19 31  1  0  0  0  0
 19 36  1  0  0  0  0
 20 22  1  0  0  0  0
 20 76  1  0  0  0  0
 20 77  1  0  0  0  0
 21 36  2  0  0  0  0
 22 23  1  0  0  0  0
 22 78  1  0  0  0  0
 22 79  1  0  0  0  0
 23 24  1  0  0  0  0
 23 80  1  0  0  0  0
 23 81  1  0  0  0  0
 24 25  1  0  0  0  0
 24 82  1  0  0  0  0
 24 83  1  0  0  0  0
 25 26  1  0  0  0  0
 25 84  1  0  0  0  0
 25 85  1  0  0  0  0
 26 27  1  0  0  0  0
 26 86  1  0  0  0  0
 26 87  1  0  0  0  0
 27 28  1  0  0  0  0
 27 88  1  0  0  0  0
 27 89  1  0  0  0  0
 28 29  1  0  0  0  0
 28 90  1  0  0  0  0
 28 91  1  0  0  0  0
 30 31  1  0  0  0  0
 30 92  1  0  0  0  0
 30 93  1  0  0  0  0
 31 32  1  0  0  0  0
 31 94  1  6  0  0  0
 32 95  1  0  0  0  0
 32 96  1  0  0  0  0
 33 34  1  0  0  0  0
 33 97  1  0  0  0  0
 33 98  1  0  0  0  0
 34 35  1  0  0  0  0
 34 99  1  1  0  0  0
 35100  1  0  0  0  0
 35101  1  0  0  0  0
 36 37  1  0  0  0  0
 37 38  1  0  0  0  0
 37102  1  0  0  0  0
 37103  1  0  0  0  0
 38 39  1  0  0  0  0
 38104  1  0  0  0  0
 38105  1  0  0  0  0
 39 40  1  0  0  0  0
 39106  1  0  0  0  0
 39107  1  0  0  0  0
 40 41  1  0  0  0  0
 40108  1  0  0  0  0
 40109  1  0  0  0  0
 41 42  1  0  0  0  0
 41110  1  0  0  0  0
 41111  1  0  0  0  0
 42 43  1  0  0  0  0
 42112  1  0  0  0  0
 42113  1  0  0  0  0
 43 44  1  0  0  0  0
 43114  1  0  0  0  0
 43115  1  0  0  0  0
 44 45  2  0  0  0  0
 44116  1  0  0  0  0
 45 46  1  0  0  0  0
 45117  1  0  0  0  0
 46 47  1  0  0  0  0
 46118  1  0  0  0  0
 46119  1  0  0  0  0
 47 48  1  0  0  0  0
 47120  1  0  0  0  0
 47121  1  0  0  0  0
 48 49  1  0  0  0  0
 48122  1  0  0  0  0
 48123  1  0  0  0  0
 49 50  1  0  0  0  0
 49124  1  0  0  0  0
 49125  1  0  0  0  0
 50 51  1  0  0  0  0
 50126  1  0  0  0  0
 50127  1  0  0  0  0
 51 52  1  0  0  0  0
 51128  1  0  0  0  0
 51129  1  0  0  0  0
 52 53  1  0  0  0  0
 52130  1  0  0  0  0
 52131  1  0  0  0  0
 53132  1  0  0  0  0
 53133  1  0  0  0  0
 53134  1  0  0  0  0
M  CHG  1   9  -1
M  END
$$$$
/media/chris/experiments/cd1a-new-docking/inputs/ligands/7sh4_ligand.pdb
 OpenBabel07012320073D

134133  0  0  1  0  0  0  0  0999 V2000
  -38.6261   61.0921   54.0781 C   0  0  0  0  0  0  0  0  0  0  0  0
  -38.7576   57.1691   64.7019 O   0  0  0  0  0  0  0  0  0  0  0  0
  -34.0491   60.2433   66.3537 P   0  0  1  0  0  0  0  0  0  0  0  0
  -39.8034   60.1820   54.3460 C   0  0  0  0  0  0  0  0  0  0  0  0
  -38.3690   58.5038   62.9506 O   0  0  0  0  0  0  0  0  0  0  0  0
  -39.9509   59.8452   55.8176 C   0  0  0  0  0  0  0  0  0  0  0  0
  -35.4212   59.8922   65.6081 O   0  0  0  0  0  0  0  0  0  0  0  0
  -41.1087   58.9190   56.1444 C   0  0  0  0  0  0  0  0  0  0  0  0
  -33.2993   58.9839   66.5499 O   0  5  0  0  0  0  0  0  0  0  0  0
  -41.0114   57.5593   55.4668 C   0  0  0  0  0  0  0  0  0  0  0  0
  -33.3962   61.3541   65.6199 O   0  0  0  0  0  0  0  0  0  0  0  0
  -39.7758   56.7738   55.8561 C   0  0  0  0  0  0  0  0  0  0  0  0
  -34.4765   60.7892   67.7897 O   0  0  0  0  0  0  0  0  0  0  0  0
  -39.6988   56.4680   57.3396 C   0  0  0  0  0  0  0  0  0  0  0  0
  -32.0337   61.0838   68.2395 O   0  0  0  0  0  0  0  0  0  0  0  0
  -40.8608   55.6299   57.8604 C   0  0  0  0  0  0  0  0  0  0  0  0
  -33.6558   64.3451   67.8431 O   0  0  0  0  0  0  0  0  0  0  0  0
  -40.7895   55.3407   59.3452 C   0  0  0  0  0  0  0  0  0  0  0  0
  -38.2720   59.8520   65.2990 O   0  0  0  0  0  0  0  0  0  0  0  0
  -41.9331   54.4937   59.8658 C   0  0  0  0  0  0  0  0  0  0  0  0
  -37.0574   60.9578   66.8359 O   0  0  0  0  0  0  0  0  0  0  0  0
  -43.2850   55.1317   59.6348 C   0  0  0  0  0  0  0  0  0  0  0  0
  -43.4292   56.4802   60.2892 C   0  0  0  0  0  0  0  0  0  0  0  0
  -43.2408   56.4325   61.7858 C   0  0  0  0  0  0  0  0  0  0  0  0
  -43.4018   57.7847   62.4505 C   0  0  0  0  0  0  0  0  0  0  0  0
  -42.4241   58.8171   61.9368 C   0  0  0  0  0  0  0  0  0  0  0  0
  -40.9694   58.4421   62.1262 C   0  0  0  0  0  0  0  0  0  0  0  0
  -40.6044   58.2192   63.5841 C   0  0  0  0  0  0  0  0  0  0  0  0
  -39.1632   57.8617   63.8078 C   0  0  0  0  0  0  0  0  0  0  0  0
  -37.0720   58.9080   63.4380 C   0  0  0  0  0  0  0  0  0  0  0  0
  -37.3490   60.1700   64.2050 C   0  0  2  0  0  0  0  0  0  0  0  0
  -36.0840   60.8130   64.7130 C   0  0  0  0  0  0  0  0  0  0  0  0
  -34.7117   62.1986   67.9851 C   0  0  0  0  0  0  0  0  0  0  0  0
  -33.4464   62.9446   67.6393 C   0  0  2  0  0  0  0  0  0  0  0  0
  -32.2615   62.4719   68.4469 C   0  0  0  0  0  0  0  0  0  0  0  0
  -37.8399   60.0926   66.5518 C   0  0  0  0  0  0  0  0  0  0  0  0
  -38.4651   59.1659   67.5480 C   0  0  0  0  0  0  0  0  0  0  0  0
  -37.6309   57.9028   67.7365 C   0  0  0  0  0  0  0  0  0  0  0  0
  -38.2251   56.9137   68.7257 C   0  0  0  0  0  0  0  0  0  0  0  0
  -38.4114   57.4885   70.1253 C   0  0  0  0  0  0  0  0  0  0  0  0
  -38.9885   56.5035   71.1249 C   0  0  0  0  0  0  0  0  0  0  0  0
  -39.1971   57.0723   72.5314 C   0  0  0  0  0  0  0  0  0  0  0  0
  -37.9336   57.5992   73.2151 C   0  0  0  0  0  0  0  0  0  0  0  0
  -38.2130   58.1232   74.5918 C   0  0  0  0  0  0  0  0  0  0  0  0
  -38.5363   59.3610   74.9125 C   0  0  0  0  0  0  0  0  0  0  0  0
  -38.6939   60.5064   73.9631 C   0  0  0  0  0  0  0  0  0  0  0  0
  -40.1229   60.6410   73.4451 C   0  0  0  0  0  0  0  0  0  0  0  0
  -41.1468   60.8889   74.5388 C   0  0  0  0  0  0  0  0  0  0  0  0
  -42.5716   61.0060   74.0253 C   0  0  0  0  0  0  0  0  0  0  0  0
  -43.0880   59.7668   73.3131 C   0  0  0  0  0  0  0  0  0  0  0  0
  -44.5099   59.9153   72.7937 C   0  0  0  0  0  0  0  0  0  0  0  0
  -45.0487   58.6828   72.0948 C   0  0  0  0  0  0  0  0  0  0  0  0
  -46.4486   58.8713   71.5804 C   0  0  0  0  0  0  0  0  0  0  0  0
  -38.5663   61.2986   53.0299 H   0  0  0  0  0  0  0  0  0  0  0  0
  -37.7248   60.6132   54.3993 H   0  0  0  0  0  0  0  0  0  0  0  0
  -38.7542   62.0084   54.6154 H   0  0  0  0  0  0  0  0  0  0  0  0
  -39.6671   59.2734   53.7975 H   0  0  0  0  0  0  0  0  0  0  0  0
  -40.6898   60.6964   54.0386 H   0  0  0  0  0  0  0  0  0  0  0  0
  -40.0931   60.7589   56.3559 H   0  0  0  0  0  0  0  0  0  0  0  0
  -39.0594   59.3246   56.0989 H   0  0  0  0  0  0  0  0  0  0  0  0
  -42.0171   59.3892   55.8304 H   0  0  0  0  0  0  0  0  0  0  0  0
  -41.0839   58.7460   57.2001 H   0  0  0  0  0  0  0  0  0  0  0  0
  -40.9966   57.7097   54.4075 H   0  0  0  0  0  0  0  0  0  0  0  0
  -41.8587   56.9889   55.7854 H   0  0  0  0  0  0  0  0  0  0  0  0
  -33.1263   61.0462   64.7406 H   0  0  0  0  0  0  0  0  0  0  0  0
  -38.9120   57.3425   55.5818 H   0  0  0  0  0  0  0  0  0  0  0  0
  -39.8229   55.8363   55.3425 H   0  0  0  0  0  0  0  0  0  0  0  0
  -39.6861   57.3948   57.8741 H   0  0  0  0  0  0  0  0  0  0  0  0
  -38.8093   55.8929   57.4916 H   0  0  0  0  0  0  0  0  0  0  0  0
  -31.2700   60.7994   68.7655 H   0  0  0  0  0  0  0  0  0  0  0  0
  -40.8663   54.6977   57.3352 H   0  0  0  0  0  0  0  0  0  0  0  0
  -41.7525   56.1981   57.6964 H   0  0  0  0  0  0  0  0  0  0  0  0
  -34.4187   64.6375   67.3201 H   0  0  0  0  0  0  0  0  0  0  0  0
  -40.7960   56.2732   59.8699 H   0  0  0  0  0  0  0  0  0  0  0  0
  -39.8921   54.7812   59.5079 H   0  0  0  0  0  0  0  0  0  0  0  0
  -41.7992   54.3468   60.9172 H   0  0  0  0  0  0  0  0  0  0  0  0
  -41.9178   53.5668   59.3314 H   0  0  0  0  0  0  0  0  0  0  0  0
  -44.0385   54.4816   60.0278 H   0  0  0  0  0  0  0  0  0  0  0  0
  -43.3886   55.2795   58.5801 H   0  0  0  0  0  0  0  0  0  0  0  0
  -44.4085   56.8574   60.0807 H   0  0  0  0  0  0  0  0  0  0  0  0
  -42.6641   57.1130   59.8903 H   0  0  0  0  0  0  0  0  0  0  0  0
  -42.2570   56.0665   61.9933 H   0  0  0  0  0  0  0  0  0  0  0  0
  -44.0000   55.7909   62.1818 H   0  0  0  0  0  0  0  0  0  0  0  0
  -43.2511   57.6669   63.5033 H   0  0  0  0  0  0  0  0  0  0  0  0
  -44.3865   58.1367   62.2242 H   0  0  0  0  0  0  0  0  0  0  0  0
  -42.6038   59.7363   62.4542 H   0  0  0  0  0  0  0  0  0  0  0  0
  -42.5865   58.8967   60.8822 H   0  0  0  0  0  0  0  0  0  0  0  0
  -40.3595   59.2308   61.7378 H   0  0  0  0  0  0  0  0  0  0  0  0
  -40.8039   57.5207   61.6080 H   0  0  0  0  0  0  0  0  0  0  0  0
  -41.2108   57.4238   63.9645 H   0  0  0  0  0  0  0  0  0  0  0  0
  -40.7743   59.1466   64.0899 H   0  0  0  0  0  0  0  0  0  0  0  0
  -36.4020   59.0962   62.6252 H   0  0  0  0  0  0  0  0  0  0  0  0
  -36.6048   58.1555   64.0382 H   0  0  0  0  0  0  0  0  0  0  0  0
  -37.7985   60.8886   63.5519 H   0  0  0  0  0  0  0  0  0  0  0  0
  -35.4401   61.0403   63.8892 H   0  0  0  0  0  0  0  0  0  0  0  0
  -36.3193   61.7188   65.2317 H   0  0  0  0  0  0  0  0  0  0  0  0
  -34.9726   62.3834   69.0063 H   0  0  0  0  0  0  0  0  0  0  0  0
  -35.5153   62.5276   67.3599 H   0  0  0  0  0  0  0  0  0  0  0  0
  -33.2197   62.7502   66.6118 H   0  0  0  0  0  0  0  0  0  0  0  0
  -31.3919   63.0191   68.1480 H   0  0  0  0  0  0  0  0  0  0  0  0
  -32.4647   62.6360   69.4845 H   0  0  0  0  0  0  0  0  0  0  0  0
  -39.4398   58.8906   67.2028 H   0  0  0  0  0  0  0  0  0  0  0  0
  -38.5233   59.6733   68.4882 H   0  0  0  0  0  0  0  0  0  0  0  0
  -36.6613   58.1888   68.0873 H   0  0  0  0  0  0  0  0  0  0  0  0
  -37.5958   57.4096   66.7876 H   0  0  0  0  0  0  0  0  0  0  0  0
  -37.5732   56.0678   68.7914 H   0  0  0  0  0  0  0  0  0  0  0  0
  -39.1966   56.6512   68.3622 H   0  0  0  0  0  0  0  0  0  0  0  0
  -39.0725   58.3272   70.0593 H   0  0  0  0  0  0  0  0  0  0  0  0
  -37.4390   57.7574   70.4816 H   0  0  0  0  0  0  0  0  0  0  0  0
  -38.3202   55.6710   71.1972 H   0  0  0  0  0  0  0  0  0  0  0  0
  -39.9573   56.2331   70.7600 H   0  0  0  0  0  0  0  0  0  0  0  0
  -39.6064   56.2969   73.1446 H   0  0  0  0  0  0  0  0  0  0  0  0
  -39.8465   57.9150   72.4175 H   0  0  0  0  0  0  0  0  0  0  0  0
  -37.5245   58.3900   72.6216 H   0  0  0  0  0  0  0  0  0  0  0  0
  -37.2449   56.7854   73.3062 H   0  0  0  0  0  0  0  0  0  0  0  0
  -38.1456   57.4462   75.3677 H   0  0  0  0  0  0  0  0  0  0  0  0
  -38.6955   59.5580   75.9130 H   0  0  0  0  0  0  0  0  0  0  0  0
  -38.0395   60.3547   73.1302 H   0  0  0  0  0  0  0  0  0  0  0  0
  -38.4532   61.4044   74.4928 H   0  0  0  0  0  0  0  0  0  0  0  0
  -40.3844   59.7370   72.9359 H   0  0  0  0  0  0  0  0  0  0  0  0
  -40.1426   61.4934   72.7987 H   0  0  0  0  0  0  0  0  0  0  0  0
  -40.8923   61.7994   75.0400 H   0  0  0  0  0  0  0  0  0  0  0  0
  -41.1182   60.0420   75.1922 H   0  0  0  0  0  0  0  0  0  0  0  0
  -42.6136   61.8271   73.3405 H   0  0  0  0  0  0  0  0  0  0  0  0
  -43.1944   61.1455   74.8841 H   0  0  0  0  0  0  0  0  0  0  0  0
  -43.0617   58.9460   73.9990 H   0  0  0  0  0  0  0  0  0  0  0  0
  -42.4574   59.6055   72.4638 H   0  0  0  0  0  0  0  0  0  0  0  0
  -44.5305   60.7300   72.1004 H   0  0  0  0  0  0  0  0  0  0  0  0
  -45.1331   60.0812   73.6476 H   0  0  0  0  0  0  0  0  0  0  0  0
  -45.0459   57.8677   72.7880 H   0  0  0  0  0  0  0  0  0  0  0  0
  -44.4188   58.4886   71.2520 H   0  0  0  0  0  0  0  0  0  0  0  0
  -47.1066   59.0681   72.4009 H   0  0  0  0  0  0  0  0  0  0  0  0
  -46.7652   57.9833   71.0743 H   0  0  0  0  0  0  0  0  0  0  0  0
  -46.4703   59.6967   70.8998 H   0  0  0  0  0  0  0  0  0  0  0  0
  1  4  1  0  0  0  0
  1 54  1  0  0  0  0
  1 55  1  0  0  0  0
  1 56  1  0  0  0  0
  2 29  2  0  0  0  0
  3  7  1  0  0  0  0
  3  9  2  1  0  0  0
  3 11  1  0  0  0  0
  3 13  1  0  0  0  0
  4  6  1  0  0  0  0
  4 57  1  0  0  0  0
  4 58  1  0  0  0  0
  5 29  1  0  0  0  0
  5 30  1  0  0  0  0
  6  8  1  0  0  0  0
  6 59  1  0  0  0  0
  6 60  1  0  0  0  0
  7 32  1  0  0  0  0
  8 10  1  0  0  0  0
  8 61  1  0  0  0  0
  8 62  1  0  0  0  0
 10 12  1  0  0  0  0
 10 63  1  0  0  0  0
 10 64  1  0  0  0  0
 11 65  1  0  0  0  0
 12 14  1  0  0  0  0
 12 66  1  0  0  0  0
 12 67  1  0  0  0  0
 13 33  1  0  0  0  0
 14 16  1  0  0  0  0
 14 68  1  0  0  0  0
 14 69  1  0  0  0  0
 15 35  1  0  0  0  0
 15 70  1  0  0  0  0
 16 18  1  0  0  0  0
 16 71  1  0  0  0  0
 16 72  1  0  0  0  0
 17 34  1  0  0  0  0
 17 73  1  0  0  0  0
 18 20  1  0  0  0  0
 18 74  1  0  0  0  0
 18 75  1  0  0  0  0
 19 31  1  0  0  0  0
 19 36  1  0  0  0  0
 20 22  1  0  0  0  0
 20 76  1  0  0  0  0
 20 77  1  0  0  0  0
 21 36  2  0  0  0  0
 22 23  1  0  0  0  0
 22 78  1  0  0  0  0
 22 79  1  0  0  0  0
 23 24  1  0  0  0  0
 23 80  1  0  0  0  0
 23 81  1  0  0  0  0
 24 25  1  0  0  0  0
 24 82  1  0  0  0  0
 24 83  1  0  0  0  0
 25 26  1  0  0  0  0
 25 84  1  0  0  0  0
 25 85  1  0  0  0  0
 26 27  1  0  0  0  0
 26 86  1  0  0  0  0
 26 87  1  0  0  0  0
 27 28  1  0  0  0  0
 27 88  1  0  0  0  0
 27 89  1  0  0  0  0
 28 29  1  0  0  0  0
 28 90  1  0  0  0  0
 28 91  1  0  0  0  0
 30 31  1  0  0  0  0
 30 92  1  0  0  0  0
 30 93  1  0  0  0  0
 31 32  1  0  0  0  0
 31 94  1  6  0  0  0
 32 95  1  0  0  0  0
 32 96  1  0  0  0  0
 33 34  1  0  0  0  0
 33 97  1  0  0  0  0
 33 98  1  0  0  0  0
 34 35  1  0  0  0  0
 34 99  1  6  0  0  0
 35100  1  0  0  0  0
 35101  1  0  0  0  0
 36 37  1  0  0  0  0
 37 38  1  0  0  0  0
 37102  1  0  0  0  0
 37103  1  0  0  0  0
 38 39  1  0  0  0  0
 38104  1  0  0  0  0
 38105  1  0  0  0  0
 39 40  1  0  0  0  0
 39106  1  0  0  0  0
 39107  1  0  0  0  0
 40 41  1  0  0  0  0
 40108  1  0  0  0  0
 40109  1  0  0  0  0
 41 42  1  0  0  0  0
 41110  1  0  0  0  0
 41111  1  0  0  0  0
 42 43  1  0  0  0  0
 42112  1  0  0  0  0
 42113  1  0  0  0  0
 43 44  1  0  0  0  0
 43114  1  0  0  0  0
 43115  1  0  0  0  0
 44 45  2  0  0  0  0
 44116  1  0  0  0  0
 45 46  1  0  0  0  0
 45117  1  0  0  0  0
 46 47  1  0  0  0  0
 46118  1  0  0  0  0
 46119  1  0  0  0  0
 47 48  1  0  0  0  0
 47120  1  0  0  0  0
 47121  1  0  0  0  0
 48 49  1  0  0  0  0
 48122  1  0  0  0  0
 48123  1  0  0  0  0
 49 50  1  0  0  0  0
 49124  1  0  0  0  0
 49125  1  0  0  0  0
 50 51  1  0  0  0  0
 50126  1  0  0  0  0
 50127  1  0  0  0  0
 51 52  1  0  0  0  0
 51128  1  0  0  0  0
 51129  1  0  0  0  0
 52 53  1  0  0  0  0
 52130  1  0  0  0  0
 52131  1  0  0  0  0
 53132  1  0  0  0  0
 53133  1  0  0  0  0
 53134  1  0  0  0  0
M  CHG  1   9  -1
M  END
$$$$
/media/chris/experiments/cd1a-new-docking/inputs/ligands/7sh4_ligand.pdb
 OpenBabel07012320073D

134133  0  0  1  0  0  0  0  0999 V2000
  -36.1573   53.5196   55.6016 C   0  0  0  0  0  0  0  0  0  0  0  0
  -34.4062   58.3144   63.3762 O   0  0  0  0  0  0  0  0  0  0  0  0
  -35.6684   62.1020   62.4058 P   0  0  1  0  0  0  0  0  0  0  0  0
  -34.7734   52.9110   55.6120 C   0  0  0  0  0  0  0  0  0  0  0  0
  -36.1511   59.3213   62.4064 O   0  0  0  0  0  0  0  0  0  0  0  0
  -33.7744   53.7588   56.3765 C   0  0  0  0  0  0  0  0  0  0  0  0
  -35.2304   61.1139   63.5864 O   0  0  0  0  0  0  0  0  0  0  0  0
  -33.5969   55.1686   55.8417 C   0  0  0  0  0  0  0  0  0  0  0  0
  -35.6503   61.3386   61.1394 O   0  5  0  0  0  0  0  0  0  0  0  0
  -33.1258   55.2167   54.3949 C   0  0  0  0  0  0  0  0  0  0  0  0
  -36.9239   62.7783   62.8119 O   0  0  0  0  0  0  0  0  0  0  0  0
  -32.9321   56.6229   53.8656 C   0  0  0  0  0  0  0  0  0  0  0  0
  -34.5198   63.2055   62.3305 O   0  0  0  0  0  0  0  0  0  0  0  0
  -34.1932   57.4640   53.9138 C   0  0  0  0  0  0  0  0  0  0  0  0
  -32.6765   64.2425   59.5486 O   0  0  0  0  0  0  0  0  0  0  0  0
  -35.3547   56.8850   53.1141 C   0  0  0  0  0  0  0  0  0  0  0  0
  -33.9999   61.0218   60.6889 O   0  0  0  0  0  0  0  0  0  0  0  0
  -36.6070   57.7357   53.1505 C   0  0  0  0  0  0  0  0  0  0  0  0
  -38.2720   59.8520   65.2990 O   0  0  0  0  0  0  0  0  0  0  0  0
  -37.1593   57.9638   54.5430 C   0  0  0  0  0  0  0  0  0  0  0  0
  -40.0171   59.9196   63.8811 O   0  0  0  0  0  0  0  0  0  0  0  0
  -37.5167   56.6743   55.2483 C   0  0  0  0  0  0  0  0  0  0  0  0
  -38.0830   56.8846   56.6276 C   0  0  0  0  0  0  0  0  0  0  0  0
  -37.1367   57.6153   57.5486 C   0  0  0  0  0  0  0  0  0  0  0  0
  -35.8166   56.8964   57.7399 C   0  0  0  0  0  0  0  0  0  0  0  0
  -34.8774   57.6223   58.6762 C   0  0  0  0  0  0  0  0  0  0  0  0
  -35.4174   57.8029   60.0792 C   0  0  0  0  0  0  0  0  0  0  0  0
  -34.4561   58.5504   60.9878 C   0  0  0  0  0  0  0  0  0  0  0  0
  -34.9553   58.7317   62.3924 C   0  0  0  0  0  0  0  0  0  0  0  0
  -37.0720   58.9080   63.4380 C   0  0  0  0  0  0  0  0  0  0  0  0
  -37.3490   60.1700   64.2050 C   0  0  2  0  0  0  0  0  0  0  0  0
  -36.0840   60.8130   64.7130 C   0  0  0  0  0  0  0  0  0  0  0  0
  -33.1622   62.8151   62.0398 C   0  0  0  0  0  0  0  0  0  0  0  0
  -33.1358   62.1621   60.6797 C   0  0  2  0  0  0  0  0  0  0  0  0
  -33.5389   63.1124   59.5778 C   0  0  0  0  0  0  0  0  0  0  0  0
  -39.5790   59.7587   64.9875 C   0  0  0  0  0  0  0  0  0  0  0  0
  -40.4161   59.4128   66.1798 C   0  0  0  0  0  0  0  0  0  0  0  0
  -41.8914   59.2929   65.8111 C   0  0  0  0  0  0  0  0  0  0  0  0
  -42.1838   58.2134   64.7820 C   0  0  0  0  0  0  0  0  0  0  0  0
  -41.7940   56.8127   65.2400 C   0  0  0  0  0  0  0  0  0  0  0  0
  -42.0663   55.7296   64.2128 C   0  0  0  0  0  0  0  0  0  0  0  0
  -41.6953   54.3146   64.6659 C   0  0  0  0  0  0  0  0  0  0  0  0
  -40.2245   54.1140   65.0372 C   0  0  0  0  0  0  0  0  0  0  0  0
  -39.9344   52.7032   65.4536 C   0  0  0  0  0  0  0  0  0  0  0  0
  -39.9950   52.2151   66.6773 C   0  0  0  0  0  0  0  0  0  0  0  0
  -40.3698   52.9723   67.9120 C   0  0  0  0  0  0  0  0  0  0  0  0
  -39.1608   53.5997   68.5999 C   0  0  0  0  0  0  0  0  0  0  0  0
  -38.1092   52.5898   69.0248 C   0  0  0  0  0  0  0  0  0  0  0  0
  -36.9134   53.2123   69.7247 C   0  0  0  0  0  0  0  0  0  0  0  0
  -35.8416   52.2195   70.1430 C   0  0  0  0  0  0  0  0  0  0  0  0
  -36.3474   51.1483   71.0971 C   0  0  0  0  0  0  0  0  0  0  0  0
  -35.2880   50.1582   71.5390 C   0  0  0  0  0  0  0  0  0  0  0  0
  -34.6681   49.4173   70.3873 C   0  0  0  0  0  0  0  0  0  0  0  0
  -36.8216   52.8857   55.0521 H   0  0  0  0  0  0  0  0  0  0  0  0
  -36.1196   54.4835   55.1387 H   0  0  0  0  0  0  0  0  0  0  0  0
  -36.5103   53.6202   56.6067 H   0  0  0  0  0  0  0  0  0  0  0  0
  -34.4354   52.8087   54.6019 H   0  0  0  0  0  0  0  0  0  0  0  0
  -34.8381   51.9619   56.1019 H   0  0  0  0  0  0  0  0  0  0  0  0
  -32.8247   53.2672   56.3415 H   0  0  0  0  0  0  0  0  0  0  0  0
  -34.1609   53.8590   57.3692 H   0  0  0  0  0  0  0  0  0  0  0  0
  -32.8748   55.6726   56.4495 H   0  0  0  0  0  0  0  0  0  0  0  0
  -34.5568   55.6401   55.8750 H   0  0  0  0  0  0  0  0  0  0  0  0
  -33.8540   54.7234   53.7856 H   0  0  0  0  0  0  0  0  0  0  0  0
  -32.1713   54.7343   54.3599 H   0  0  0  0  0  0  0  0  0  0  0  0
  -37.6400   62.1261   62.8650 H   0  0  0  0  0  0  0  0  0  0  0  0
  -32.6047   56.5605   52.8489 H   0  0  0  0  0  0  0  0  0  0  0  0
  -32.2100   57.1003   54.4946 H   0  0  0  0  0  0  0  0  0  0  0  0
  -33.9660   58.4339   53.5232 H   0  0  0  0  0  0  0  0  0  0  0  0
  -34.5061   57.4950   54.9365 H   0  0  0  0  0  0  0  0  0  0  0  0
  -32.9508   64.8403   58.8357 H   0  0  0  0  0  0  0  0  0  0  0  0
  -35.5907   55.9203   53.5124 H   0  0  0  0  0  0  0  0  0  0  0  0
  -35.0381   56.8406   52.0929 H   0  0  0  0  0  0  0  0  0  0  0  0
  -33.7320   60.4189   61.4000 H   0  0  0  0  0  0  0  0  0  0  0  0
  -37.3601   57.2504   52.5655 H   0  0  0  0  0  0  0  0  0  0  0  0
  -36.3388   58.6966   52.7636 H   0  0  0  0  0  0  0  0  0  0  0  0
  -38.0394   58.5678   54.4674 H   0  0  0  0  0  0  0  0  0  0  0  0
  -36.3965   58.4458   55.1180 H   0  0  0  0  0  0  0  0  0  0  0  0
  -36.6327   56.0772   55.3320 H   0  0  0  0  0  0  0  0  0  0  0  0
  -38.2748   56.1947   54.6651 H   0  0  0  0  0  0  0  0  0  0  0  0
  -38.3044   55.9288   57.0547 H   0  0  0  0  0  0  0  0  0  0  0  0
  -38.9600   57.4889   56.5248 H   0  0  0  0  0  0  0  0  0  0  0  0
  -37.6069   57.7230   58.5037 H   0  0  0  0  0  0  0  0  0  0  0  0
  -36.9213   58.5615   57.0979 H   0  0  0  0  0  0  0  0  0  0  0  0
  -35.3401   56.7996   56.7867 H   0  0  0  0  0  0  0  0  0  0  0  0
  -36.0319   55.9442   58.1780 H   0  0  0  0  0  0  0  0  0  0  0  0
  -34.6768   58.5902   58.2666 H   0  0  0  0  0  0  0  0  0  0  0  0
  -33.9986   57.0177   58.7603 H   0  0  0  0  0  0  0  0  0  0  0  0
  -35.6052   56.8374   60.5003 H   0  0  0  0  0  0  0  0  0  0  0  0
  -36.3122   58.3853   60.0078 H   0  0  0  0  0  0  0  0  0  0  0  0
  -34.2793   59.5179   60.5666 H   0  0  0  0  0  0  0  0  0  0  0  0
  -33.5672   57.9580   61.0505 H   0  0  0  0  0  0  0  0  0  0  0  0
  -36.6274   58.1683   64.0706 H   0  0  0  0  0  0  0  0  0  0  0  0
  -37.9610   58.4631   63.0423 H   0  0  0  0  0  0  0  0  0  0  0  0
  -37.7985   60.8886   63.5519 H   0  0  0  0  0  0  0  0  0  0  0  0
  -36.3238   61.7163   65.2340 H   0  0  0  0  0  0  0  0  0  0  0  0
  -35.5811   60.1472   65.3829 H   0  0  0  0  0  0  0  0  0  0  0  0
  -32.8188   62.1229   62.7799 H   0  0  0  0  0  0  0  0  0  0  0  0
  -32.5229   63.6731   62.0484 H   0  0  0  0  0  0  0  0  0  0  0  0
  -32.1289   61.8615   60.4780 H   0  0  0  0  0  0  0  0  0  0  0  0
  -33.4838   62.6041   58.6379 H   0  0  0  0  0  0  0  0  0  0  0  0
  -34.5386   63.4472   59.7607 H   0  0  0  0  0  0  0  0  0  0  0  0
  -40.3033   60.1791   66.9180 H   0  0  0  0  0  0  0  0  0  0  0  0
  -40.0868   58.4678   66.5585 H   0  0  0  0  0  0  0  0  0  0  0  0
  -42.2171   60.2323   65.4157 H   0  0  0  0  0  0  0  0  0  0  0  0
  -42.4133   59.0197   66.7044 H   0  0  0  0  0  0  0  0  0  0  0  0
  -41.6399   58.4410   63.8891 H   0  0  0  0  0  0  0  0  0  0  0  0
  -43.2420   58.2089   64.6236 H   0  0  0  0  0  0  0  0  0  0  0  0
  -42.3472   56.5824   66.1265 H   0  0  0  0  0  0  0  0  0  0  0  0
  -40.7369   56.8239   65.4054 H   0  0  0  0  0  0  0  0  0  0  0  0
  -41.5035   55.9562   63.3315 H   0  0  0  0  0  0  0  0  0  0  0  0
  -43.1233   55.7278   64.0465 H   0  0  0  0  0  0  0  0  0  0  0  0
  -41.9308   53.6397   63.8697 H   0  0  0  0  0  0  0  0  0  0  0  0
  -42.2547   54.1329   65.5598 H   0  0  0  0  0  0  0  0  0  0  0  0
  -39.9807   54.7696   65.8469 H   0  0  0  0  0  0  0  0  0  0  0  0
  -39.6341   54.3296   64.1712 H   0  0  0  0  0  0  0  0  0  0  0  0
  -39.6592   52.0469   64.7062 H   0  0  0  0  0  0  0  0  0  0  0  0
  -39.7618   51.2166   66.7943 H   0  0  0  0  0  0  0  0  0  0  0  0
  -40.8440   52.3003   68.5964 H   0  0  0  0  0  0  0  0  0  0  0  0
  -41.0271   53.7650   67.6214 H   0  0  0  0  0  0  0  0  0  0  0  0
  -39.5000   54.1210   69.4706 H   0  0  0  0  0  0  0  0  0  0  0  0
  -38.6991   54.2518   67.8883 H   0  0  0  0  0  0  0  0  0  0  0  0
  -37.7611   52.0771   68.1525 H   0  0  0  0  0  0  0  0  0  0  0  0
  -38.5745   51.9301   69.7271 H   0  0  0  0  0  0  0  0  0  0  0  0
  -37.2639   53.7151   70.6018 H   0  0  0  0  0  0  0  0  0  0  0  0
  -36.4570   53.8734   69.0179 H   0  0  0  0  0  0  0  0  0  0  0  0
  -35.0515   52.7567   70.6247 H   0  0  0  0  0  0  0  0  0  0  0  0
  -35.5105   51.7207   69.2561 H   0  0  0  0  0  0  0  0  0  0  0  0
  -37.1301   50.6064   70.6085 H   0  0  0  0  0  0  0  0  0  0  0  0
  -36.6811   51.6549   71.9785 H   0  0  0  0  0  0  0  0  0  0  0  0
  -35.7384   49.4477   72.2001 H   0  0  0  0  0  0  0  0  0  0  0  0
  -34.5105   50.7120   72.0223 H   0  0  0  0  0  0  0  0  0  0  0  0
  -35.4214   48.8512   69.8805 H   0  0  0  0  0  0  0  0  0  0  0  0
  -33.9115   48.7559   70.7546 H   0  0  0  0  0  0  0  0  0  0  0  0
  -34.2301   50.1176   69.7070 H   0  0  0  0  0  0  0  0  0  0  0  0
  1  4  1  0  0  0  0
  1 54  1  0  0  0  0
  1 55  1  0  0  0  0
  1 56  1  0  0  0  0
  2 29  2  0  0  0  0
  3  7  1  0  0  0  0
  3  9  2  6  0  0  0
  3 11  1  0  0  0  0
  3 13  1  0  0  0  0
  4  6  1  0  0  0  0
  4 57  1  0  0  0  0
  4 58  1  0  0  0  0
  5 29  1  0  0  0  0
  5 30  1  0  0  0  0
  6  8  1  0  0  0  0
  6 59  1  0  0  0  0
  6 60  1  0  0  0  0
  7 32  1  0  0  0  0
  8 10  1  0  0  0  0
  8 61  1  0  0  0  0
  8 62  1  0  0  0  0
 10 12  1  0  0  0  0
 10 63  1  0  0  0  0
 10 64  1  0  0  0  0
 11 65  1  0  0  0  0
 12 14  1  0  0  0  0
 12 66  1  0  0  0  0
 12 67  1  0  0  0  0
 13 33  1  0  0  0  0
 14 16  1  0  0  0  0
 14 68  1  0  0  0  0
 14 69  1  0  0  0  0
 15 35  1  0  0  0  0
 15 70  1  0  0  0  0
 16 18  1  0  0  0  0
 16 71  1  0  0  0  0
 16 72  1  0  0  0  0
 17 34  1  0  0  0  0
 17 73  1  0  0  0  0
 18 20  1  0  0  0  0
 18 74  1  0  0  0  0
 18 75  1  0  0  0  0
 19 31  1  0  0  0  0
 19 36  1  0  0  0  0
 20 22  1  0  0  0  0
 20 76  1  0  0  0  0
 20 77  1  0  0  0  0
 21 36  2  0  0  0  0
 22 23  1  0  0  0  0
 22 78  1  0  0  0  0
 22 79  1  0  0  0  0
 23 24  1  0  0  0  0
 23 80  1  0  0  0  0
 23 81  1  0  0  0  0
 24 25  1  0  0  0  0
 24 82  1  0  0  0  0
 24 83  1  0  0  0  0
 25 26  1  0  0  0  0
 25 84  1  0  0  0  0
 25 85  1  0  0  0  0
 26 27  1  0  0  0  0
 26 86  1  0  0  0  0
 26 87  1  0  0  0  0
 27 28  1  0  0  0  0
 27 88  1  0  0  0  0
 27 89  1  0  0  0  0
 28 29  1  0  0  0  0
 28 90  1  0  0  0  0
 28 91  1  0  0  0  0
 30 31  1  0  0  0  0
 30 92  1  0  0  0  0
 30 93  1  0  0  0  0
 31 32  1  0  0  0  0
 31 94  1  6  0  0  0
 32 95  1  0  0  0  0
 32 96  1  0  0  0  0
 33 34  1  0  0  0  0
 33 97  1  0  0  0  0
 33 98  1  0  0  0  0
 34 35  1  0  0  0  0
 34 99  1  6  0  0  0
 35100  1  0  0  0  0
 35101  1  0  0  0  0
 36 37  1  0  0  0  0
 37 38  1  0  0  0  0
 37102  1  0  0  0  0
 37103  1  0  0  0  0
 38 39  1  0  0  0  0
 38104  1  0  0  0  0
 38105  1  0  0  0  0
 39 40  1  0  0  0  0
 39106  1  0  0  0  0
 39107  1  0  0  0  0
 40 41  1  0  0  0  0
 40108  1  0  0  0  0
 40109  1  0  0  0  0
 41 42  1  0  0  0  0
 41110  1  0  0  0  0
 41111  1  0  0  0  0
 42 43  1  0  0  0  0
 42112  1  0  0  0  0
 42113  1  0  0  0  0
 43 44  1  0  0  0  0
 43114  1  0  0  0  0
 43115  1  0  0  0  0
 44 45  2  0  0  0  0
 44116  1  0  0  0  0
 45 46  1  0  0  0  0
 45117  1  0  0  0  0
 46 47  1  0  0  0  0
 46118  1  0  0  0  0
 46119  1  0  0  0  0
 47 48  1  0  0  0  0
 47120  1  0  0  0  0
 47121  1  0  0  0  0
 48 49  1  0  0  0  0
 48122  1  0  0  0  0
 48123  1  0  0  0  0
 49 50  1  0  0  0  0
 49124  1  0  0  0  0
 49125  1  0  0  0  0
 50 51  1  0  0  0  0
 50126  1  0  0  0  0
 50127  1  0  0  0  0
 51 52  1  0  0  0  0
 51128  1  0  0  0  0
 51129  1  0  0  0  0
 52 53  1  0  0  0  0
 52130  1  0  0  0  0
 52131  1  0  0  0  0
 53132  1  0  0  0  0
 53133  1  0  0  0  0
 53134  1  0  0  0  0
M  CHG  1   9  -1
M  END
$$$$
/media/chris/experiments/cd1a-new-docking/inputs/ligands/7sh4_ligand.pdb
 OpenBabel07012320073D

134133  0  0  1  0  0  0  0  0999 V2000
  -40.3253   66.5929   58.7917 C   0  0  0  0  0  0  0  0  0  0  0  0
  -38.2654   59.0910   60.7957 O   0  0  0  0  0  0  0  0  0  0  0  0
  -34.0491   60.2433   66.3537 P   0  0  1  0  0  0  0  0  0  0  0  0
  -38.9132   66.0922   58.5892 C   0  0  0  0  0  0  0  0  0  0  0  0
  -38.3690   58.5038   62.9506 O   0  0  0  0  0  0  0  0  0  0  0  0
  -38.5164   65.0491   59.6166 C   0  0  0  0  0  0  0  0  0  0  0  0
  -35.4212   59.8922   65.6081 O   0  0  0  0  0  0  0  0  0  0  0  0
  -39.3707   63.7940   59.6103 C   0  0  0  0  0  0  0  0  0  0  0  0
  -33.0346   59.2516   65.9368 O   0  5  0  0  0  0  0  0  0  0  0  0
  -38.9608   62.7727   60.6622 C   0  0  0  0  0  0  0  0  0  0  0  0
  -33.7655   61.6836   66.1443 O   0  0  0  0  0  0  0  0  0  0  0  0
  -39.0585   63.2909   62.0824 C   0  0  0  0  0  0  0  0  0  0  0  0
  -34.3431   60.0224   67.9054 O   0  0  0  0  0  0  0  0  0  0  0  0
  -40.4632   63.7042   62.4778 C   0  0  0  0  0  0  0  0  0  0  0  0
  -35.9668   58.2580   67.1938 O   0  0  0  0  0  0  0  0  0  0  0  0
  -41.0551   64.8030   61.6024 C   0  0  0  0  0  0  0  0  0  0  0  0
  -33.0297   56.7260   68.7593 O   0  0  0  0  0  0  0  0  0  0  0  0
  -42.4510   65.2250   62.0103 C   0  0  0  0  0  0  0  0  0  0  0  0
  -38.2720   59.8520   65.2990 O   0  0  0  0  0  0  0  0  0  0  0  0
  -43.4695   64.1034   61.9812 C   0  0  0  0  0  0  0  0  0  0  0  0
  -36.7587   60.5453   66.8121 O   0  0  0  0  0  0  0  0  0  0  0  0
  -43.6118   63.4788   60.6109 C   0  0  0  0  0  0  0  0  0  0  0  0
  -44.6329   62.3731   60.5611 C   0  0  0  0  0  0  0  0  0  0  0  0
  -44.3201   61.2387   61.5060 C   0  0  0  0  0  0  0  0  0  0  0  0
  -42.9795   60.5874   61.2329 C   0  0  0  0  0  0  0  0  0  0  0  0
  -42.6766   59.4404   62.1702 C   0  0  0  0  0  0  0  0  0  0  0  0
  -41.3347   58.7814   61.9305 C   0  0  0  0  0  0  0  0  0  0  0  0
  -40.1689   59.7397   62.1066 C   0  0  0  0  0  0  0  0  0  0  0  0
  -38.8234   59.1206   61.8593 C   0  0  0  0  0  0  0  0  0  0  0  0
  -37.0720   58.9080   63.4380 C   0  0  0  0  0  0  0  0  0  0  0  0
  -37.3490   60.1700   64.2050 C   0  0  2  0  0  0  0  0  0  0  0  0
  -36.0840   60.8130   64.7130 C   0  0  0  0  0  0  0  0  0  0  0  0
  -33.5776   59.0565   68.6543 C   0  0  0  0  0  0  0  0  0  0  0  0
  -33.7696   57.7013   68.0190 C   0  0  2  0  0  0  0  0  0  0  0  0
  -35.2241   57.3036   67.9416 C   0  0  0  0  0  0  0  0  0  0  0  0
  -37.8399   60.0926   66.5518 C   0  0  0  0  0  0  0  0  0  0  0  0
  -38.8741   59.7460   67.5776 C   0  0  0  0  0  0  0  0  0  0  0  0
  -38.3798   60.0389   68.9906 C   0  0  0  0  0  0  0  0  0  0  0  0
  -38.0393   61.5000   69.2340 C   0  0  0  0  0  0  0  0  0  0  0  0
  -37.5301   61.7810   70.6431 C   0  0  0  0  0  0  0  0  0  0  0  0
  -38.5112   61.4089   71.7392 C   0  0  0  0  0  0  0  0  0  0  0  0
  -38.0197   61.7015   73.1597 C   0  0  0  0  0  0  0  0  0  0  0  0
  -38.9911   61.3162   74.2775 C   0  0  0  0  0  0  0  0  0  0  0  0
  -40.3055   62.0267   74.1535 C   0  0  0  0  0  0  0  0  0  0  0  0
  -41.3696   61.6054   73.4979 C   0  0  0  0  0  0  0  0  0  0  0  0
  -41.4874   60.3219   72.7383 C   0  0  0  0  0  0  0  0  0  0  0  0
  -42.9126   59.7767   72.7337 C   0  0  0  0  0  0  0  0  0  0  0  0
  -43.0608   58.4644   71.9839 C   0  0  0  0  0  0  0  0  0  0  0  0
  -44.4826   57.9302   71.9647 C   0  0  0  0  0  0  0  0  0  0  0  0
  -44.6488   56.6085   71.2333 C   0  0  0  0  0  0  0  0  0  0  0  0
  -43.8352   55.4748   71.8388 C   0  0  0  0  0  0  0  0  0  0  0  0
  -44.1912   55.1526   73.2766 C   0  0  0  0  0  0  0  0  0  0  0  0
  -43.3567   54.0400   73.8469 C   0  0  0  0  0  0  0  0  0  0  0  0
  -40.5553   67.3236   58.0446 H   0  0  0  0  0  0  0  0  0  0  0  0
  -40.4111   67.0357   59.7620 H   0  0  0  0  0  0  0  0  0  0  0  0
  -41.0091   65.7737   58.7118 H   0  0  0  0  0  0  0  0  0  0  0  0
  -38.2408   66.9211   58.6637 H   0  0  0  0  0  0  0  0  0  0  0  0
  -38.8650   65.6338   57.6235 H   0  0  0  0  0  0  0  0  0  0  0  0
  -38.5856   65.4943   60.5871 H   0  0  0  0  0  0  0  0  0  0  0  0
  -37.5236   64.7397   59.3646 H   0  0  0  0  0  0  0  0  0  0  0  0
  -39.2929   63.3366   58.6462 H   0  0  0  0  0  0  0  0  0  0  0  0
  -40.3720   64.0947   59.8383 H   0  0  0  0  0  0  0  0  0  0  0  0
  -37.9473   62.4842   60.4765 H   0  0  0  0  0  0  0  0  0  0  0  0
  -39.6399   61.9497   60.5814 H   0  0  0  0  0  0  0  0  0  0  0  0
  -33.5830   61.8440   65.2052 H   0  0  0  0  0  0  0  0  0  0  0  0
  -38.4154   64.1407   62.1783 H   0  0  0  0  0  0  0  0  0  0  0  0
  -38.7706   62.4903   62.7312 H   0  0  0  0  0  0  0  0  0  0  0  0
  -40.4389   64.0554   63.4882 H   0  0  0  0  0  0  0  0  0  0  0  0
  -41.0855   62.8423   62.3564 H   0  0  0  0  0  0  0  0  0  0  0  0
  -36.8970   57.9857   67.1553 H   0  0  0  0  0  0  0  0  0  0  0  0
  -41.0915   64.4477   60.5938 H   0  0  0  0  0  0  0  0  0  0  0  0
  -40.4258   65.6614   61.7121 H   0  0  0  0  0  0  0  0  0  0  0  0
  -32.0978   56.9914   68.8026 H   0  0  0  0  0  0  0  0  0  0  0  0
  -42.7785   65.9938   61.3420 H   0  0  0  0  0  0  0  0  0  0  0  0
  -42.3885   65.5589   63.0250 H   0  0  0  0  0  0  0  0  0  0  0  0
  -44.4194   64.4958   62.2788 H   0  0  0  0  0  0  0  0  0  0  0  0
  -43.1291   63.3406   62.6500 H   0  0  0  0  0  0  0  0  0  0  0  0
  -42.6632   63.0779   60.3206 H   0  0  0  0  0  0  0  0  0  0  0  0
  -43.9461   64.2479   59.9463 H   0  0  0  0  0  0  0  0  0  0  0  0
  -44.6684   61.9865   59.5641 H   0  0  0  0  0  0  0  0  0  0  0  0
  -45.5713   62.7903   60.8614 H   0  0  0  0  0  0  0  0  0  0  0  0
  -45.0847   60.4962   61.4110 H   0  0  0  0  0  0  0  0  0  0  0  0
  -44.2792   61.6491   62.4933 H   0  0  0  0  0  0  0  0  0  0  0  0
  -42.2134   61.3265   61.3402 H   0  0  0  0  0  0  0  0  0  0  0  0
  -43.0144   60.1884   60.2406 H   0  0  0  0  0  0  0  0  0  0  0  0
  -43.4400   58.7000   62.0522 H   0  0  0  0  0  0  0  0  0  0  0  0
  -42.6461   59.8503   63.1581 H   0  0  0  0  0  0  0  0  0  0  0  0
  -41.3151   58.3989   60.9314 H   0  0  0  0  0  0  0  0  0  0  0  0
  -41.2240   58.0024   62.6557 H   0  0  0  0  0  0  0  0  0  0  0  0
  -40.1883   60.1118   63.1096 H   0  0  0  0  0  0  0  0  0  0  0  0
  -40.2918   60.5123   61.3766 H   0  0  0  0  0  0  0  0  0  0  0  0
  -36.4020   59.0962   62.6252 H   0  0  0  0  0  0  0  0  0  0  0  0
  -36.6048   58.1555   64.0382 H   0  0  0  0  0  0  0  0  0  0  0  0
  -37.7985   60.8886   63.5519 H   0  0  0  0  0  0  0  0  0  0  0  0
  -35.4401   61.0403   63.8892 H   0  0  0  0  0  0  0  0  0  0  0  0
  -36.3193   61.7188   65.2317 H   0  0  0  0  0  0  0  0  0  0  0  0
  -33.9192   59.0321   69.6681 H   0  0  0  0  0  0  0  0  0  0  0  0
  -32.5413   59.3227   68.6469 H   0  0  0  0  0  0  0  0  0  0  0  0
  -33.4082   57.7547   67.0133 H   0  0  0  0  0  0  0  0  0  0  0  0
  -35.3022   56.3477   67.4672 H   0  0  0  0  0  0  0  0  0  0  0  0
  -35.6219   57.2590   68.9339 H   0  0  0  0  0  0  0  0  0  0  0  0
  -39.1062   58.7044   67.4994 H   0  0  0  0  0  0  0  0  0  0  0  0
  -39.7422   60.3443   67.3948 H   0  0  0  0  0  0  0  0  0  0  0  0
  -37.5014   59.4543   69.1681 H   0  0  0  0  0  0  0  0  0  0  0  0
  -39.1798   59.7916   69.6568 H   0  0  0  0  0  0  0  0  0  0  0  0
  -38.9203   62.0847   69.0697 H   0  0  0  0  0  0  0  0  0  0  0  0
  -37.2500   61.7552   68.5581 H   0  0  0  0  0  0  0  0  0  0  0  0
  -37.3181   62.8268   70.7220 H   0  0  0  0  0  0  0  0  0  0  0  0
  -36.6614   61.1727   70.7854 H   0  0  0  0  0  0  0  0  0  0  0  0
  -38.7130   60.3608   71.6649 H   0  0  0  0  0  0  0  0  0  0  0  0
  -39.3798   62.0150   71.5877 H   0  0  0  0  0  0  0  0  0  0  0  0
  -37.8290   62.7517   73.2343 H   0  0  0  0  0  0  0  0  0  0  0  0
  -37.1481   61.0975   73.3026 H   0  0  0  0  0  0  0  0  0  0  0  0
  -38.5504   61.5681   75.2194 H   0  0  0  0  0  0  0  0  0  0  0  0
  -39.1770   60.2650   74.2042 H   0  0  0  0  0  0  0  0  0  0  0  0
  -40.3859   62.9387   74.6297 H   0  0  0  0  0  0  0  0  0  0  0  0
  -42.1992   62.2191   73.5101 H   0  0  0  0  0  0  0  0  0  0  0  0
  -40.8433   59.5958   73.1887 H   0  0  0  0  0  0  0  0  0  0  0  0
  -41.2097   60.5170   71.7235 H   0  0  0  0  0  0  0  0  0  0  0  0
  -43.5506   60.5025   72.2741 H   0  0  0  0  0  0  0  0  0  0  0  0
  -43.1786   59.5870   73.7526 H   0  0  0  0  0  0  0  0  0  0  0  0
  -42.4321   57.7355   72.4512 H   0  0  0  0  0  0  0  0  0  0  0  0
  -42.7829   58.6514   70.9677 H   0  0  0  0  0  0  0  0  0  0  0  0
  -45.1064   58.6570   71.4877 H   0  0  0  0  0  0  0  0  0  0  0  0
  -44.7542   57.7505   72.9840 H   0  0  0  0  0  0  0  0  0  0  0  0
  -44.3402   56.7422   70.2176 H   0  0  0  0  0  0  0  0  0  0  0  0
  -45.6798   56.3329   71.3107 H   0  0  0  0  0  0  0  0  0  0  0  0
  -42.8011   55.7474   71.8023 H   0  0  0  0  0  0  0  0  0  0  0  0
  -44.0540   54.5989   71.2645 H   0  0  0  0  0  0  0  0  0  0  0  0
  -45.2206   54.8636   73.3175 H   0  0  0  0  0  0  0  0  0  0  0  0
  -44.0021   56.0294   73.8600 H   0  0  0  0  0  0  0  0  0  0  0  0
  -43.5227   53.1451   73.2843 H   0  0  0  0  0  0  0  0  0  0  0  0
  -43.6313   53.8755   74.8679 H   0  0  0  0  0  0  0  0  0  0  0  0
  -42.3219   54.3074   73.7945 H   0  0  0  0  0  0  0  0  0  0  0  0
  1  4  1  0  0  0  0
  1 54  1  0  0  0  0
  1 55  1  0  0  0  0
  1 56  1  0  0  0  0
  2 29  2  0  0  0  0
  3  7  1  0  0  0  0
  3  9  2  6  0  0  0
  3 11  1  0  0  0  0
  3 13  1  0  0  0  0
  4  6  1  0  0  0  0
  4 57  1  0  0  0  0
  4 58  1  0  0  0  0
  5 29  1  0  0  0  0
  5 30  1  0  0  0  0
  6  8  1  0  0  0  0
  6 59  1  0  0  0  0
  6 60  1  0  0  0  0
  7 32  1  0  0  0  0
  8 10  1  0  0  0  0
  8 61  1  0  0  0  0
  8 62  1  0  0  0  0
 10 12  1  0  0  0  0
 10 63  1  0  0  0  0
 10 64  1  0  0  0  0
 11 65  1  0  0  0  0
 12 14  1  0  0  0  0
 12 66  1  0  0  0  0
 12 67  1  0  0  0  0
 13 33  1  0  0  0  0
 14 16  1  0  0  0  0
 14 68  1  0  0  0  0
 14 69  1  0  0  0  0
 15 35  1  0  0  0  0
 15 70  1  0  0  0  0
 16 18  1  0  0  0  0
 16 71  1  0  0  0  0
 16 72  1  0  0  0  0
 17 34  1  0  0  0  0
 17 73  1  0  0  0  0
 18 20  1  0  0  0  0
 18 74  1  0  0  0  0
 18 75  1  0  0  0  0
 19 31  1  0  0  0  0
 19 36  1  0  0  0  0
 20 22  1  0  0  0  0
 20 76  1  0  0  0  0
 20 77  1  0  0  0  0
 21 36  2  0  0  0  0
 22 23  1  0  0  0  0
 22 78  1  0  0  0  0
 22 79  1  0  0  0  0
 23 24  1  0  0  0  0
 23 80  1  0  0  0  0
 23 81  1  0  0  0  0
 24 25  1  0  0  0  0
 24 82  1  0  0  0  0
 24 83  1  0  0  0  0
 25 26  1  0  0  0  0
 25 84  1  0  0  0  0
 25 85  1  0  0  0  0
 26 27  1  0  0  0  0
 26 86  1  0  0  0  0
 26 87  1  0  0  0  0
 27 28  1  0  0  0  0
 27 88  1  0  0  0  0
 27 89  1  0  0  0  0
 28 29  1  0  0  0  0
 28 90  1  0  0  0  0
 28 91  1  0  0  0  0
 30 31  1  0  0  0  0
 30 92  1  0  0  0  0
 30 93  1  0  0  0  0
 31 32  1  0  0  0  0
 31 94  1  6  0  0  0
 32 95  1  0  0  0  0
 32 96  1  0  0  0  0
 33 34  1  0  0  0  0
 33 97  1  0  0  0  0
 33 98  1  0  0  0  0
 34 35  1  0  0  0  0
 34 99  1  6  0  0  0
 35100  1  0  0  0  0
 35101  1  0  0  0  0
 36 37  1  0  0  0  0
 37 38  1  0  0  0  0
 37102  1  0  0  0  0
 37103  1  0  0  0  0
 38 39  1  0  0  0  0
 38104  1  0  0  0  0
 38105  1  0  0  0  0
 39 40  1  0  0  0  0
 39106  1  0  0  0  0
 39107  1  0  0  0  0
 40 41  1  0  0  0  0
 40108  1  0  0  0  0
 40109  1  0  0  0  0
 41 42  1  0  0  0  0
 41110  1  0  0  0  0
 41111  1  0  0  0  0
 42 43  1  0  0  0  0
 42112  1  0  0  0  0
 42113  1  0  0  0  0
 43 44  1  0  0  0  0
 43114  1  0  0  0  0
 43115  1  0  0  0  0
 44 45  2  0  0  0  0
 44116  1  0  0  0  0
 45 46  1  0  0  0  0
 45117  1  0  0  0  0
 46 47  1  0  0  0  0
 46118  1  0  0  0  0
 46119  1  0  0  0  0
 47 48  1  0  0  0  0
 47120  1  0  0  0  0
 47121  1  0  0  0  0
 48 49  1  0  0  0  0
 48122  1  0  0  0  0
 48123  1  0  0  0  0
 49 50  1  0  0  0  0
 49124  1  0  0  0  0
 49125  1  0  0  0  0
 50 51  1  0  0  0  0
 50126  1  0  0  0  0
 50127  1  0  0  0  0
 51 52  1  0  0  0  0
 51128  1  0  0  0  0
 51129  1  0  0  0  0
 52 53  1  0  0  0  0
 52130  1  0  0  0  0
 52131  1  0  0  0  0
 53132  1  0  0  0  0
 53133  1  0  0  0  0
 53134  1  0  0  0  0
M  CHG  1   9  -1
M  END
$$$$
/media/chris/experiments/cd1a-new-docking/inputs/ligands/7sh4_ligand.pdb
 OpenBabel07012320073D

134133  0  0  1  0  0  0  0  0999 V2000
  -33.1275   71.0844   64.8002 C   0  0  0  0  0  0  0  0  0  0  0  0
  -34.4401   59.5252   63.8312 O   0  0  0  0  0  0  0  0  0  0  0  0
  -35.3336   62.9877   66.0786 P   0  0  1  0  0  0  0  0  0  0  0  0
  -31.7810   70.6722   64.2499 C   0  0  0  0  0  0  0  0  0  0  0  0
  -36.1511   59.3213   62.4064 O   0  0  0  0  0  0  0  0  0  0  0  0
  -31.3367   71.5469   63.0929 C   0  0  0  0  0  0  0  0  0  0  0  0
  -36.4293   62.0282   65.4148 O   0  0  0  0  0  0  0  0  0  0  0  0
  -32.2797   71.5541   61.9031 C   0  0  0  0  0  0  0  0  0  0  0  0
  -34.0856   62.8690   65.2943 O   0  5  0  0  0  0  0  0  0  0  0  0
  -33.6743   72.0672   62.2339 C   0  0  0  0  0  0  0  0  0  0  0  0
  -35.9402   64.3294   66.2534 O   0  0  0  0  0  0  0  0  0  0  0  0
  -34.6209   72.0587   61.0511 C   0  0  0  0  0  0  0  0  0  0  0  0
  -35.0625   62.3801   67.5278 O   0  0  0  0  0  0  0  0  0  0  0  0
  -34.8498   70.6757   60.4722 C   0  0  0  0  0  0  0  0  0  0  0  0
  -34.1076   62.0053   71.6193 O   0  0  0  0  0  0  0  0  0  0  0  0
  -35.4633   69.6862   61.4562 C   0  0  0  0  0  0  0  0  0  0  0  0
  -35.0177   60.3939   69.4737 O   0  0  0  0  0  0  0  0  0  0  0  0
  -35.6748   68.3017   60.8801 C   0  0  0  0  0  0  0  0  0  0  0  0
  -38.2720   59.8520   65.2990 O   0  0  0  0  0  0  0  0  0  0  0  0
  -34.4011   67.6226   60.4192 C   0  0  0  0  0  0  0  0  0  0  0  0
  -40.2187   60.6541   64.5071 O   0  0  0  0  0  0  0  0  0  0  0  0
  -33.4056   67.4246   61.5408 C   0  0  0  0  0  0  0  0  0  0  0  0
  -33.9286   66.5619   62.6587 C   0  0  0  0  0  0  0  0  0  0  0  0
  -34.2903   65.1678   62.2079 C   0  0  0  0  0  0  0  0  0  0  0  0
  -33.1145   64.4021   61.6358 C   0  0  0  0  0  0  0  0  0  0  0  0
  -33.4836   63.0120   61.1696 C   0  0  0  0  0  0  0  0  0  0  0  0
  -34.0562   62.1254   62.2552 C   0  0  0  0  0  0  0  0  0  0  0  0
  -34.3998   60.7320   61.7564 C   0  0  0  0  0  0  0  0  0  0  0  0
  -34.9861   59.8321   62.8059 C   0  0  0  0  0  0  0  0  0  0  0  0
  -37.0720   58.9080   63.4380 C   0  0  0  0  0  0  0  0  0  0  0  0
  -37.3490   60.1700   64.2050 C   0  0  2  0  0  0  0  0  0  0  0  0
  -36.0840   60.8130   64.7130 C   0  0  0  0  0  0  0  0  0  0  0  0
  -36.1454   62.2562   68.4724 C   0  0  0  0  0  0  0  0  0  0  0  0
  -35.5968   61.6725   69.7511 C   0  0  2  0  0  0  0  0  0  0  0  0
  -34.5780   62.5752   70.4045 C   0  0  0  0  0  0  0  0  0  0  0  0
  -39.5790   59.7587   64.9875 C   0  0  0  0  0  0  0  0  0  0  0  0
  -40.1328   58.4017   65.2941 C   0  0  0  0  0  0  0  0  0  0  0  0
  -39.0633   57.3210   65.1719 C   0  0  0  0  0  0  0  0  0  0  0  0
  -39.5709   55.9167   65.4556 C   0  0  0  0  0  0  0  0  0  0  0  0
  -38.4921   54.8451   65.3478 C   0  0  0  0  0  0  0  0  0  0  0  0
  -37.8346   54.7667   63.9826 C   0  0  0  0  0  0  0  0  0  0  0  0
  -37.1190   56.0482   63.5460 C   0  0  0  0  0  0  0  0  0  0  0  0
  -36.4650   55.9907   62.1638 C   0  0  0  0  0  0  0  0  0  0  0  0
  -35.7712   57.2728   61.8133 C   0  0  0  0  0  0  0  0  0  0  0  0
  -36.0351   58.0553   60.7850 C   0  0  0  0  0  0  0  0  0  0  0  0
  -37.0895   57.8255   59.7487 C   0  0  0  0  0  0  0  0  0  0  0  0
  -38.4927   57.7776   60.3463 C   0  0  0  0  0  0  0  0  0  0  0  0
  -38.9002   59.0608   61.0489 C   0  0  0  0  0  0  0  0  0  0  0  0
  -40.2904   59.0073   61.6585 C   0  0  0  0  0  0  0  0  0  0  0  0
  -41.4047   58.7326   60.6623 C   0  0  0  0  0  0  0  0  0  0  0  0
  -42.7879   58.7008   61.2944 C   0  0  0  0  0  0  0  0  0  0  0  0
  -43.9112   58.4112   60.3186 C   0  0  0  0  0  0  0  0  0  0  0  0
  -43.7689   57.0731   59.6486 C   0  0  0  0  0  0  0  0  0  0  0  0
  -33.3942   70.4389   65.6109 H   0  0  0  0  0  0  0  0  0  0  0  0
  -33.8655   71.0119   64.0289 H   0  0  0  0  0  0  0  0  0  0  0  0
  -33.0757   72.0941   65.1505 H   0  0  0  0  0  0  0  0  0  0  0  0
  -31.8440   69.6594   63.9105 H   0  0  0  0  0  0  0  0  0  0  0  0
  -31.0614   70.7788   65.0345 H   0  0  0  0  0  0  0  0  0  0  0  0
  -30.3818   71.1981   62.7591 H   0  0  0  0  0  0  0  0  0  0  0  0
  -31.3125   72.5499   63.4649 H   0  0  0  0  0  0  0  0  0  0  0  0
  -32.3662   70.5535   61.5339 H   0  0  0  0  0  0  0  0  0  0  0  0
  -31.8639   72.2211   61.1771 H   0  0  0  0  0  0  0  0  0  0  0  0
  -33.5888   73.0720   62.5915 H   0  0  0  0  0  0  0  0  0  0  0  0
  -34.0850   71.4068   62.9688 H   0  0  0  0  0  0  0  0  0  0  0  0
  -36.1151   64.7210   65.3834 H   0  0  0  0  0  0  0  0  0  0  0  0
  -34.2119   72.6837   60.2849 H   0  0  0  0  0  0  0  0  0  0  0  0
  -35.5671   72.4149   61.4015 H   0  0  0  0  0  0  0  0  0  0  0  0
  -33.9075   70.2868   60.1472 H   0  0  0  0  0  0  0  0  0  0  0  0
  -35.5481   70.7876   59.6692 H   0  0  0  0  0  0  0  0  0  0  0  0
  -33.4553   62.5987   72.0235 H   0  0  0  0  0  0  0  0  0  0  0  0
  -36.4115   70.0685   61.7719 H   0  0  0  0  0  0  0  0  0  0  0  0
  -34.7722   69.5838   62.2666 H   0  0  0  0  0  0  0  0  0  0  0  0
  -35.6804   59.8229   69.0546 H   0  0  0  0  0  0  0  0  0  0  0  0
  -36.3343   68.3839   60.0415 H   0  0  0  0  0  0  0  0  0  0  0  0
  -36.0792   67.6988   61.6661 H   0  0  0  0  0  0  0  0  0  0  0  0
  -33.9469   68.2255   59.6609 H   0  0  0  0  0  0  0  0  0  0  0  0
  -34.6671   66.6546   60.0488 H   0  0  0  0  0  0  0  0  0  0  0  0
  -33.1521   68.3834   61.9424 H   0  0  0  0  0  0  0  0  0  0  0  0
  -32.5568   66.9231   61.1251 H   0  0  0  0  0  0  0  0  0  0  0  0
  -34.8021   67.0255   63.0672 H   0  0  0  0  0  0  0  0  0  0  0  0
  -33.1480   66.4711   63.3848 H   0  0  0  0  0  0  0  0  0  0  0  0
  -35.0480   65.2393   61.4558 H   0  0  0  0  0  0  0  0  0  0  0  0
  -34.6294   64.6325   63.0701 H   0  0  0  0  0  0  0  0  0  0  0  0
  -32.3616   64.3192   62.3916 H   0  0  0  0  0  0  0  0  0  0  0  0
  -32.7658   64.9436   60.7814 H   0  0  0  0  0  0  0  0  0  0  0  0
  -32.6031   62.5429   60.7827 H   0  0  0  0  0  0  0  0  0  0  0  0
  -34.2495   63.1284   60.4315 H   0  0  0  0  0  0  0  0  0  0  0  0
  -34.9463   62.5817   62.6353 H   0  0  0  0  0  0  0  0  0  0  0  0
  -33.3089   62.0210   63.0138 H   0  0  0  0  0  0  0  0  0  0  0  0
  -33.5047   60.2775   61.3860 H   0  0  0  0  0  0  0  0  0  0  0  0
  -35.1468   60.8508   60.9996 H   0  0  0  0  0  0  0  0  0  0  0  0
  -36.6274   58.1683   64.0706 H   0  0  0  0  0  0  0  0  0  0  0  0
  -37.9610   58.4631   63.0423 H   0  0  0  0  0  0  0  0  0  0  0  0
  -37.7985   60.8886   63.5519 H   0  0  0  0  0  0  0  0  0  0  0  0
  -35.5824   60.1428   65.3795 H   0  0  0  0  0  0  0  0  0  0  0  0
  -35.4356   61.0386   63.8923 H   0  0  0  0  0  0  0  0  0  0  0  0
  -36.8999   61.6101   68.0746 H   0  0  0  0  0  0  0  0  0  0  0  0
  -36.5793   63.2156   68.6624 H   0  0  0  0  0  0  0  0  0  0  0  0
  -36.4082   61.5692   70.4409 H   0  0  0  0  0  0  0  0  0  0  0  0
  -33.7522   62.7131   69.7382 H   0  0  0  0  0  0  0  0  0  0  0  0
  -35.0404   63.5153   70.6219 H   0  0  0  0  0  0  0  0  0  0  0  0
  -40.9250   58.1862   64.6079 H   0  0  0  0  0  0  0  0  0  0  0  0
  -40.4925   58.4057   66.3019 H   0  0  0  0  0  0  0  0  0  0  0  0
  -38.2797   57.5425   65.8659 H   0  0  0  0  0  0  0  0  0  0  0  0
  -38.7274   57.3302   64.1560 H   0  0  0  0  0  0  0  0  0  0  0  0
  -40.3456   55.6887   64.7537 H   0  0  0  0  0  0  0  0  0  0  0  0
  -39.9223   55.9081   66.4662 H   0  0  0  0  0  0  0  0  0  0  0  0
  -38.9379   53.8961   65.5616 H   0  0  0  0  0  0  0  0  0  0  0  0
  -37.7250   55.1065   66.0465 H   0  0  0  0  0  0  0  0  0  0  0  0
  -38.5914   54.5440   63.2598 H   0  0  0  0  0  0  0  0  0  0  0  0
  -37.0834   54.0077   64.0506 H   0  0  0  0  0  0  0  0  0  0  0  0
  -36.3558   56.2624   64.2646 H   0  0  0  0  0  0  0  0  0  0  0  0
  -37.8740   56.8041   63.4860 H   0  0  0  0  0  0  0  0  0  0  0  0
  -37.2214   55.7967   61.4322 H   0  0  0  0  0  0  0  0  0  0  0  0
  -35.7306   55.2126   62.1793 H   0  0  0  0  0  0  0  0  0  0  0  0
  -35.0093   57.5738   62.4409 H   0  0  0  0  0  0  0  0  0  0  0  0
  -35.4600   58.9064   60.6858 H   0  0  0  0  0  0  0  0  0  0  0  0
  -36.8928   56.8948   59.2589 H   0  0  0  0  0  0  0  0  0  0  0  0
  -37.0556   58.6453   59.0619 H   0  0  0  0  0  0  0  0  0  0  0  0
  -38.5309   56.9772   61.0555 H   0  0  0  0  0  0  0  0  0  0  0  0
  -39.1744   57.6353   59.5339 H   0  0  0  0  0  0  0  0  0  0  0  0
  -38.8740   59.8589   60.3367 H   0  0  0  0  0  0  0  0  0  0  0  0
  -38.2110   59.2095   61.8537 H   0  0  0  0  0  0  0  0  0  0  0  0
  -40.4861   59.9488   62.1277 H   0  0  0  0  0  0  0  0  0  0  0  0
  -40.2894   58.1889   62.3478 H   0  0  0  0  0  0  0  0  0  0  0  0
  -41.2209   57.7846   60.2013 H   0  0  0  0  0  0  0  0  0  0  0  0
  -41.3998   59.5351   59.9547 H   0  0  0  0  0  0  0  0  0  0  0  0
  -42.9725   59.6534   61.7453 H   0  0  0  0  0  0  0  0  0  0  0  0
  -42.7831   57.8998   62.0038 H   0  0  0  0  0  0  0  0  0  0  0  0
  -43.9152   59.1719   59.5661 H   0  0  0  0  0  0  0  0  0  0  0  0
  -44.8256   58.3983   60.8741 H   0  0  0  0  0  0  0  0  0  0  0  0
  -42.8611   57.0524   59.0826 H   0  0  0  0  0  0  0  0  0  0  0  0
  -44.6005   56.9113   58.9950 H   0  0  0  0  0  0  0  0  0  0  0  0
  -43.7438   56.3032   60.3913 H   0  0  0  0  0  0  0  0  0  0  0  0
  1  4  1  0  0  0  0
  1 54  1  0  0  0  0
  1 55  1  0  0  0  0
  1 56  1  0  0  0  0
  2 29  2  0  0  0  0
  3  7  1  0  0  0  0
  3  9  2  6  0  0  0
  3 11  1  0  0  0  0
  3 13  1  0  0  0  0
  4  6  1  0  0  0  0
  4 57  1  0  0  0  0
  4 58  1  0  0  0  0
  5 29  1  0  0  0  0
  5 30  1  0  0  0  0
  6  8  1  0  0  0  0
  6 59  1  0  0  0  0
  6 60  1  0  0  0  0
  7 32  1  0  0  0  0
  8 10  1  0  0  0  0
  8 61  1  0  0  0  0
  8 62  1  0  0  0  0
 10 12  1  0  0  0  0
 10 63  1  0  0  0  0
 10 64  1  0  0  0  0
 11 65  1  0  0  0  0
 12 14  1  0  0  0  0
 12 66  1  0  0  0  0
 12 67  1  0  0  0  0
 13 33  1  0  0  0  0
 14 16  1  0  0  0  0
 14 68  1  0  0  0  0
 14 69  1  0  0  0  0
 15 35  1  0  0  0  0
 15 70  1  0  0  0  0
 16 18  1  0  0  0  0
 16 71  1  0  0  0  0
 16 72  1  0  0  0  0
 17 34  1  0  0  0  0
 17 73  1  0  0  0  0
 18 20  1  0  0  0  0
 18 74  1  0  0  0  0
 18 75  1  0  0  0  0
 19 31  1  0  0  0  0
 19 36  1  0  0  0  0
 20 22  1  0  0  0  0
 20 76  1  0  0  0  0
 20 77  1  0  0  0  0
 21 36  2  0  0  0  0
 22 23  1  0  0  0  0
 22 78  1  0  0  0  0
 22 79  1  0  0  0  0
 23 24  1  0  0  0  0
 23 80  1  0  0  0  0
 23 81  1  0  0  0  0
 24 25  1  0  0  0  0
 24 82  1  0  0  0  0
 24 83  1  0  0  0  0
 25 26  1  0  0  0  0
 25 84  1  0  0  0  0
 25 85  1  0  0  0  0
 26 27  1  0  0  0  0
 26 86  1  0  0  0  0
 26 87  1  0  0  0  0
 27 28  1  0  0  0  0
 27 88  1  0  0  0  0
 27 89  1  0  0  0  0
 28 29  1  0  0  0  0
 28 90  1  0  0  0  0
 28 91  1  0  0  0  0
 30 31  1  0  0  0  0
 30 92  1  0  0  0  0
 30 93  1  0  0  0  0
 31 32  1  0  0  0  0
 31 94  1  6  0  0  0
 32 95  1  0  0  0  0
 32 96  1  0  0  0  0
 33 34  1  0  0  0  0
 33 97  1  0  0  0  0
 33 98  1  0  0  0  0
 34 35  1  0  0  0  0
 34 99  1  1  0  0  0
 35100  1  0  0  0  0
 35101  1  0  0  0  0
 36 37  1  0  0  0  0
 37 38  1  0  0  0  0
 37102  1  0  0  0  0
 37103  1  0  0  0  0
 38 39  1  0  0  0  0
 38104  1  0  0  0  0
 38105  1  0  0  0  0
 39 40  1  0  0  0  0
 39106  1  0  0  0  0
 39107  1  0  0  0  0
 40 41  1  0  0  0  0
 40108  1  0  0  0  0
 40109  1  0  0  0  0
 41 42  1  0  0  0  0
 41110  1  0  0  0  0
 41111  1  0  0  0  0
 42 43  1  0  0  0  0
 42112  1  0  0  0  0
 42113  1  0  0  0  0
 43 44  1  0  0  0  0
 43114  1  0  0  0  0
 43115  1  0  0  0  0
 44 45  2  0  0  0  0
 44116  1  0  0  0  0
 45 46  1  0  0  0  0
 45117  1  0  0  0  0
 46 47  1  0  0  0  0
 46118  1  0  0  0  0
 46119  1  0  0  0  0
 47 48  1  0  0  0  0
 47120  1  0  0  0  0
 47121  1  0  0  0  0
 48 49  1  0  0  0  0
 48122  1  0  0  0  0
 48123  1  0  0  0  0
 49 50  1  0  0  0  0
 49124  1  0  0  0  0
 49125  1  0  0  0  0
 50 51  1  0  0  0  0
 50126  1  0  0  0  0
 50127  1  0  0  0  0
 51 52  1  0  0  0  0
 51128  1  0  0  0  0
 51129  1  0  0  0  0
 52 53  1  0  0  0  0
 52130  1  0  0  0  0
 52131  1  0  0  0  0
 53132  1  0  0  0  0
 53133  1  0  0  0  0
 53134  1  0  0  0  0
M  CHG  1   9  -1
M  END
$$$$
/media/chris/experiments/cd1a-new-docking/inputs/ligands/7sh4_ligand.pdb
 OpenBabel07012320073D

134133  0  0  1  0  0  0  0  0999 V2000
  -37.7090   52.7062   66.3710 C   0  0  0  0  0  0  0  0  0  0  0  0
  -39.2991   60.4756   62.4545 O   0  0  0  0  0  0  0  0  0  0  0  0
  -33.7887   61.7905   63.7469 P   0  0  1  0  0  0  0  0  0  0  0  0
  -38.8129   53.2237   65.4769 C   0  0  0  0  0  0  0  0  0  0  0  0
  -38.3690   58.5038   62.9506 O   0  0  0  0  0  0  0  0  0  0  0  0
  -38.8728   54.7392   65.4499 C   0  0  0  0  0  0  0  0  0  0  0  0
  -35.2304   61.1139   63.5864 O   0  0  0  0  0  0  0  0  0  0  0  0
  -39.9752   55.3161   64.5799 C   0  0  0  0  0  0  0  0  0  0  0  0
  -33.2354   61.3842   65.0567 O   0  5  0  0  0  0  0  0  0  0  0  0
  -41.3742   54.9032   65.0156 C   0  0  0  0  0  0  0  0  0  0  0  0
  -33.0045   61.5019   62.5219 O   0  0  0  0  0  0  0  0  0  0  0  0
  -42.4741   55.4647   64.1379 C   0  0  0  0  0  0  0  0  0  0  0  0
  -34.0620   63.3608   63.7950 O   0  0  0  0  0  0  0  0  0  0  0  0
  -43.8665   55.0643   64.5863 C   0  0  0  0  0  0  0  0  0  0  0  0
  -37.8473   65.1788   63.0638 O   0  0  0  0  0  0  0  0  0  0  0  0
  -44.9825   55.6085   63.7019 C   0  0  0  0  0  0  0  0  0  0  0  0
  -36.5396   63.6277   65.0609 O   0  0  0  0  0  0  0  0  0  0  0  0
  -44.9072   55.1399   62.2638 C   0  0  0  0  0  0  0  0  0  0  0  0
  -38.2720   59.8520   65.2990 O   0  0  0  0  0  0  0  0  0  0  0  0
  -43.6212   55.5179   61.5568 C   0  0  0  0  0  0  0  0  0  0  0  0
  -36.7804   58.4135   66.1741 O   0  0  0  0  0  0  0  0  0  0  0  0
  -43.5858   55.0499   60.1188 C   0  0  0  0  0  0  0  0  0  0  0  0
  -42.3068   55.4031   59.4068 C   0  0  0  0  0  0  0  0  0  0  0  0
  -42.0440   56.8887   59.3686 C   0  0  0  0  0  0  0  0  0  0  0  0
  -40.7664   57.2498   58.6381 C   0  0  0  0  0  0  0  0  0  0  0  0
  -40.4973   58.7374   58.6162 C   0  0  0  0  0  0  0  0  0  0  0  0
  -40.3385   59.3592   59.9876 C   0  0  0  0  0  0  0  0  0  0  0  0
  -39.1768   58.7699   60.7698 C   0  0  0  0  0  0  0  0  0  0  0  0
  -39.0024   59.3540   62.1421 C   0  0  0  0  0  0  0  0  0  0  0  0
  -37.0720   58.9080   63.4380 C   0  0  0  0  0  0  0  0  0  0  0  0
  -37.3490   60.1700   64.2050 C   0  0  2  0  0  0  0  0  0  0  0  0
  -36.0840   60.8130   64.7130 C   0  0  0  0  0  0  0  0  0  0  0  0
  -35.1954   63.9175   63.0983 C   0  0  0  0  0  0  0  0  0  0  0  0
  -36.4517   63.3070   63.6694 C   0  0  2  0  0  0  0  0  0  0  0  0
  -37.6949   63.7699   62.9484 C   0  0  0  0  0  0  0  0  0  0  0  0
  -37.8515   58.9548   66.2113 C   0  0  0  0  0  0  0  0  0  0  0  0
  -38.8701   58.7278   67.2850 C   0  0  0  0  0  0  0  0  0  0  0  0
  -39.7205   59.9720   67.5207 C   0  0  0  0  0  0  0  0  0  0  0  0
  -40.5084   60.4202   66.3008 C   0  0  0  0  0  0  0  0  0  0  0  0
  -41.3420   61.6738   66.5401 C   0  0  0  0  0  0  0  0  0  0  0  0
  -42.3666   61.5308   67.6501 C   0  0  0  0  0  0  0  0  0  0  0  0
  -43.2232   62.7772   67.8904 C   0  0  0  0  0  0  0  0  0  0  0  0
  -44.2500   62.6546   69.0182 C   0  0  0  0  0  0  0  0  0  0  0  0
  -45.0607   63.9051   69.1826 C   0  0  0  0  0  0  0  0  0  0  0  0
  -46.2019   64.1879   68.5850 C   0  0  0  0  0  0  0  0  0  0  0  0
  -46.9302   63.3133   67.6139 C   0  0  0  0  0  0  0  0  0  0  0  0
  -45.9869   62.4184   66.8152 C   0  0  0  0  0  0  0  0  0  0  0  0
  -46.6963   61.5302   65.8082 C   0  0  0  0  0  0  0  0  0  0  0  0
  -47.7141   60.5917   66.4331 C   0  0  0  0  0  0  0  0  0  0  0  0
  -47.1388   59.6359   67.4650 C   0  0  0  0  0  0  0  0  0  0  0  0
  -46.0502   58.7296   66.9106 C   0  0  0  0  0  0  0  0  0  0  0  0
  -46.4983   57.8520   65.7587 C   0  0  0  0  0  0  0  0  0  0  0  0
  -47.6358   56.9419   66.1294 C   0  0  0  0  0  0  0  0  0  0  0  0
  -37.7093   51.6363   66.3553 H   0  0  0  0  0  0  0  0  0  0  0  0
  -37.8707   53.0482   67.3718 H   0  0  0  0  0  0  0  0  0  0  0  0
  -36.7656   53.0678   66.0186 H   0  0  0  0  0  0  0  0  0  0  0  0
  -39.7491   52.8492   65.8351 H   0  0  0  0  0  0  0  0  0  0  0  0
  -38.6110   52.8874   64.4814 H   0  0  0  0  0  0  0  0  0  0  0  0
  -37.9352   55.1031   65.0846 H   0  0  0  0  0  0  0  0  0  0  0  0
  -39.0845   55.0507   66.4514 H   0  0  0  0  0  0  0  0  0  0  0  0
  -39.8220   54.9832   63.5746 H   0  0  0  0  0  0  0  0  0  0  0  0
  -39.9203   56.3810   64.6687 H   0  0  0  0  0  0  0  0  0  0  0  0
  -41.5318   55.2469   66.0165 H   0  0  0  0  0  0  0  0  0  0  0  0
  -41.4249   53.8373   64.9382 H   0  0  0  0  0  0  0  0  0  0  0  0
  -32.8250   60.5501   62.4697 H   0  0  0  0  0  0  0  0  0  0  0  0
  -42.3247   55.1110   63.1391 H   0  0  0  0  0  0  0  0  0  0  0  0
  -42.4161   56.5311   64.2024 H   0  0  0  0  0  0  0  0  0  0  0  0
  -44.0174   55.4285   65.5811 H   0  0  0  0  0  0  0  0  0  0  0  0
  -43.9163   53.9971   64.5267 H   0  0  0  0  0  0  0  0  0  0  0  0
  -38.6499   65.4567   62.5952 H   0  0  0  0  0  0  0  0  0  0  0  0
  -44.9297   56.6771   63.7115 H   0  0  0  0  0  0  0  0  0  0  0  0
  -45.9041   55.2400   64.1015 H   0  0  0  0  0  0  0  0  0  0  0  0
  -35.7365   63.3260   65.5136 H   0  0  0  0  0  0  0  0  0  0  0  0
  -45.7255   55.5716   61.7264 H   0  0  0  0  0  0  0  0  0  0  0  0
  -44.9450   54.0708   62.2851 H   0  0  0  0  0  0  0  0  0  0  0  0
  -42.7999   55.0757   62.0810 H   0  0  0  0  0  0  0  0  0  0  0  0
  -43.5580   56.5860   61.5506 H   0  0  0  0  0  0  0  0  0  0  0  0
  -44.4018   55.5020   59.5947 H   0  0  0  0  0  0  0  0  0  0  0  0
  -43.6557   53.9823   60.1321 H   0  0  0  0  0  0  0  0  0  0  0  0
  -42.3650   55.0412   58.4015 H   0  0  0  0  0  0  0  0  0  0  0  0
  -41.5031   54.9498   59.9486 H   0  0  0  0  0  0  0  0  0  0  0  0
  -41.9740   57.2478   60.3741 H   0  0  0  0  0  0  0  0  0  0  0  0
  -42.8540   57.3415   58.8358 H   0  0  0  0  0  0  0  0  0  0  0  0
  -40.8411   56.9021   57.6289 H   0  0  0  0  0  0  0  0  0  0  0  0
  -39.9568   56.7863   59.1621 H   0  0  0  0  0  0  0  0  0  0  0  0
  -41.3148   59.2192   58.1218 H   0  0  0  0  0  0  0  0  0  0  0  0
  -39.5663   58.8741   58.1067 H   0  0  0  0  0  0  0  0  0  0  0  0
  -41.2398   59.1998   60.5418 H   0  0  0  0  0  0  0  0  0  0  0  0
  -40.1377   60.4009   59.8480 H   0  0  0  0  0  0  0  0  0  0  0  0
  -38.2777   58.9402   60.2153 H   0  0  0  0  0  0  0  0  0  0  0  0
  -39.3902   57.7298   60.9021 H   0  0  0  0  0  0  0  0  0  0  0  0
  -36.4020   59.0962   62.6252 H   0  0  0  0  0  0  0  0  0  0  0  0
  -36.6048   58.1555   64.0382 H   0  0  0  0  0  0  0  0  0  0  0  0
  -37.7985   60.8886   63.5519 H   0  0  0  0  0  0  0  0  0  0  0  0
  -36.3238   61.7163   65.2340 H   0  0  0  0  0  0  0  0  0  0  0  0
  -35.5811   60.1472   65.3829 H   0  0  0  0  0  0  0  0  0  0  0  0
  -35.1254   63.6909   62.0550 H   0  0  0  0  0  0  0  0  0  0  0  0
  -35.2154   64.9805   63.2188 H   0  0  0  0  0  0  0  0  0  0  0  0
  -36.3924   62.2468   63.5372 H   0  0  0  0  0  0  0  0  0  0  0  0
  -37.6188   63.5084   61.9136 H   0  0  0  0  0  0  0  0  0  0  0  0
  -38.5458   63.2944   63.3897 H   0  0  0  0  0  0  0  0  0  0  0  0
  -38.3664   58.4736   68.1941 H   0  0  0  0  0  0  0  0  0  0  0  0
  -39.5160   57.9339   66.9727 H   0  0  0  0  0  0  0  0  0  0  0  0
  -39.0733   60.7713   67.8160 H   0  0  0  0  0  0  0  0  0  0  0  0
  -40.4349   59.7210   68.2767 H   0  0  0  0  0  0  0  0  0  0  0  0
  -41.1657   59.6267   66.0123 H   0  0  0  0  0  0  0  0  0  0  0  0
  -39.7972   60.6570   65.5372 H   0  0  0  0  0  0  0  0  0  0  0  0
  -41.8587   61.9124   65.6339 H   0  0  0  0  0  0  0  0  0  0  0  0
  -40.6634   62.4439   66.8423 H   0  0  0  0  0  0  0  0  0  0  0  0
  -41.8466   61.3031   68.5571 H   0  0  0  0  0  0  0  0  0  0  0  0
  -43.0379   60.7552   67.3456 H   0  0  0  0  0  0  0  0  0  0  0  0
  -43.7502   62.9962   66.9853 H   0  0  0  0  0  0  0  0  0  0  0  0
  -42.5458   63.5501   68.1883 H   0  0  0  0  0  0  0  0  0  0  0  0
  -43.7341   62.4552   69.9342 H   0  0  0  0  0  0  0  0  0  0  0  0
  -44.9200   61.8586   68.7683 H   0  0  0  0  0  0  0  0  0  0  0  0
  -44.6875   64.6174   69.8294 H   0  0  0  0  0  0  0  0  0  0  0  0
  -46.6332   65.0985   68.8082 H   0  0  0  0  0  0  0  0  0  0  0  0
  -47.4734   63.9344   66.9327 H   0  0  0  0  0  0  0  0  0  0  0  0
  -47.5850   62.6790   68.1741 H   0  0  0  0  0  0  0  0  0  0  0  0
  -45.4532   61.7933   67.5003 H   0  0  0  0  0  0  0  0  0  0  0  0
  -45.3376   63.0635   66.2611 H   0  0  0  0  0  0  0  0  0  0  0  0
  -45.9613   60.9417   65.2999 H   0  0  0  0  0  0  0  0  0  0  0  0
  -47.2321   62.1759   65.1442 H   0  0  0  0  0  0  0  0  0  0  0  0
  -48.1583   60.0118   65.6513 H   0  0  0  0  0  0  0  0  0  0  0  0
  -48.4201   61.2082   66.9492 H   0  0  0  0  0  0  0  0  0  0  0  0
  -47.9323   59.0230   67.8388 H   0  0  0  0  0  0  0  0  0  0  0  0
  -46.6917   60.2325   68.2326 H   0  0  0  0  0  0  0  0  0  0  0  0
  -45.7065   58.0958   67.7012 H   0  0  0  0  0  0  0  0  0  0  0  0
  -45.2827   59.3698   66.5285 H   0  0  0  0  0  0  0  0  0  0  0  0
  -45.6700   57.2530   65.4427 H   0  0  0  0  0  0  0  0  0  0  0  0
  -46.8425   58.4966   64.9770 H   0  0  0  0  0  0  0  0  0  0  0  0
  -47.3240   56.2818   66.9117 H   0  0  0  0  0  0  0  0  0  0  0  0
  -47.9273   56.3688   65.2742 H   0  0  0  0  0  0  0  0  0  0  0  0
  -48.4657   57.5272   66.4663 H   0  0  0  0  0  0  0  0  0  0  0  0
  1  4  1  0  0  0  0
  1 54  1  0  0  0  0
  1 55  1  0  0  0  0
  1 56  1  0  0  0  0
  2 29  2  0  0  0  0
  3  7  1  0  0  0  0
  3  9  2  1  0  0  0
  3 11  1  0  0  0  0
  3 13  1  0  0  0  0
  4  6  1  0  0  0  0
  4 57  1  0  0  0  0
  4 58  1  0  0  0  0
  5 29  1  0  0  0  0
  5 30  1  0  0  0  0
  6  8  1  0  0  0  0
  6 59  1  0  0  0  0
  6 60  1  0  0  0  0
  7 32  1  0  0  0  0
  8 10  1  0  0  0  0
  8 61  1  0  0  0  0
  8 62  1  0  0  0  0
 10 12  1  0  0  0  0
 10 63  1  0  0  0  0
 10 64  1  0  0  0  0
 11 65  1  0  0  0  0
 12 14  1  0  0  0  0
 12 66  1  0  0  0  0
 12 67  1  0  0  0  0
 13 33  1  0  0  0  0
 14 16  1  0  0  0  0
 14 68  1  0  0  0  0
 14 69  1  0  0  0  0
 15 35  1  0  0  0  0
 15 70  1  0  0  0  0
 16 18  1  0  0  0  0
 16 71  1  0  0  0  0
 16 72  1  0  0  0  0
 17 34  1  0  0  0  0
 17 73  1  0  0  0  0
 18 20  1  0  0  0  0
 18 74  1  0  0  0  0
 18 75  1  0  0  0  0
 19 31  1  0  0  0  0
 19 36  1  0  0  0  0
 20 22  1  0  0  0  0
 20 76  1  0  0  0  0
 20 77  1  0  0  0  0
 21 36  2  0  0  0  0
 22 23  1  0  0  0  0
 22 78  1  0  0  0  0
 22 79  1  0  0  0  0
 23 24  1  0  0  0  0
 23 80  1  0  0  0  0
 23 81  1  0  0  0  0
 24 25  1  0  0  0  0
 24 82  1  0  0  0  0
 24 83  1  0  0  0  0
 25 26  1  0  0  0  0
 25 84  1  0  0  0  0
 25 85  1  0  0  0  0
 26 27  1  0  0  0  0
 26 86  1  0  0  0  0
 26 87  1  0  0  0  0
 27 28  1  0  0  0  0
 27 88  1  0  0  0  0
 27 89  1  0  0  0  0
 28 29  1  0  0  0  0
 28 90  1  0  0  0  0
 28 91  1  0  0  0  0
 30 31  1  0  0  0  0
 30 92  1  0  0  0  0
 30 93  1  0  0  0  0
 31 32  1  0  0  0  0
 31 94  1  6  0  0  0
 32 95  1  0  0  0  0
 32 96  1  0  0  0  0
 33 34  1  0  0  0  0
 33 97  1  0  0  0  0
 33 98  1  0  0  0  0
 34 35  1  0  0  0  0
 34 99  1  6  0  0  0
 35100  1  0  0  0  0
 35101  1  0  0  0  0
 36 37  1  0  0  0  0
 37 38  1  0  0  0  0
 37102  1  0  0  0  0
 37103  1  0  0  0  0
 38 39  1  0  0  0  0
 38104  1  0  0  0  0
 38105  1  0  0  0  0
 39 40  1  0  0  0  0
 39106  1  0  0  0  0
 39107  1  0  0  0  0
 40 41  1  0  0  0  0
 40108  1  0  0  0  0
 40109  1  0  0  0  0
 41 42  1  0  0  0  0
 41110  1  0  0  0  0
 41111  1  0  0  0  0
 42 43  1  0  0  0  0
 42112  1  0  0  0  0
 42113  1  0  0  0  0
 43 44  1  0  0  0  0
 43114  1  0  0  0  0
 43115  1  0  0  0  0
 44 45  2  0  0  0  0
 44116  1  0  0  0  0
 45 46  1  0  0  0  0
 45117  1  0  0  0  0
 46 47  1  0  0  0  0
 46118  1  0  0  0  0
 46119  1  0  0  0  0
 47 48  1  0  0  0  0
 47120  1  0  0  0  0
 47121  1  0  0  0  0
 48 49  1  0  0  0  0
 48122  1  0  0  0  0
 48123  1  0  0  0  0
 49 50  1  0  0  0  0
 49124  1  0  0  0  0
 49125  1  0  0  0  0
 50 51  1  0  0  0  0
 50126  1  0  0  0  0
 50127  1  0  0  0  0
 51 52  1  0  0  0  0
 51128  1  0  0  0  0
 51129  1  0  0  0  0
 52 53  1  0  0  0  0
 52130  1  0  0  0  0
 52131  1  0  0  0  0
 53132  1  0  0  0  0
 53133  1  0  0  0  0
 53134  1  0  0  0  0
M  CHG  1   9  -1
M  END
$$$$
/media/chris/experiments/cd1a-new-docking/inputs/ligands/7sh4_ligand.pdb
 OpenBabel07012320073D

134133  0  0  1  0  0  0  0  0999 V2000
  -47.2644   54.7354   66.1940 C   0  0  0  0  0  0  0  0  0  0  0  0
  -38.8668   60.5468   62.1907 O   0  0  0  0  0  0  0  0  0  0  0  0
  -35.3336   62.9877   66.0786 P   0  0  1  0  0  0  0  0  0  0  0  0
  -46.5045   53.4822   65.8226 C   0  0  0  0  0  0  0  0  0  0  0  0
  -38.3690   58.5038   62.9506 O   0  0  0  0  0  0  0  0  0  0  0  0
  -47.1938   52.6911   64.7271 C   0  0  0  0  0  0  0  0  0  0  0  0
  -36.4293   62.0282   65.4148 O   0  0  0  0  0  0  0  0  0  0  0  0
  -47.3636   53.4369   63.4156 C   0  0  0  0  0  0  0  0  0  0  0  0
  -34.1810   62.1547   66.4842 O   0  5  0  0  0  0  0  0  0  0  0  0
  -48.0730   52.6253   62.3406 C   0  0  0  0  0  0  0  0  0  0  0  0
  -35.1004   64.1274   65.1592 O   0  0  0  0  0  0  0  0  0  0  0  0
  -47.3623   51.3354   61.9855 C   0  0  0  0  0  0  0  0  0  0  0  0
  -36.0173   63.5576   67.4017 O   0  0  0  0  0  0  0  0  0  0  0  0
  -45.9501   51.5464   61.4742 C   0  0  0  0  0  0  0  0  0  0  0  0
  -39.0643   65.3793   65.2384 O   0  0  0  0  0  0  0  0  0  0  0  0
  -45.8674   52.4139   60.2234 C   0  0  0  0  0  0  0  0  0  0  0  0
  -39.6215   63.1954   66.9554 O   0  0  0  0  0  0  0  0  0  0  0  0
  -44.4576   52.6087   59.7059 C   0  0  0  0  0  0  0  0  0  0  0  0
  -38.2720   59.8520   65.2990 O   0  0  0  0  0  0  0  0  0  0  0  0
  -43.5177   53.2580   60.7013 C   0  0  0  0  0  0  0  0  0  0  0  0
  -37.1354   58.2625   66.4133 O   0  0  0  0  0  0  0  0  0  0  0  0
  -42.1238   53.4532   60.1473 C   0  0  0  0  0  0  0  0  0  0  0  0
  -41.1725   54.0824   61.1305 C   0  0  0  0  0  0  0  0  0  0  0  0
  -41.6271   55.4413   61.6039 C   0  0  0  0  0  0  0  0  0  0  0  0
  -40.6643   56.0856   62.5806 C   0  0  0  0  0  0  0  0  0  0  0  0
  -39.2898   56.3138   61.9935 C   0  0  0  0  0  0  0  0  0  0  0  0
  -39.2748   57.2287   60.7871 C   0  0  0  0  0  0  0  0  0  0  0  0
  -39.7958   58.6215   61.0986 C   0  0  0  0  0  0  0  0  0  0  0  0
  -39.0024   59.3540   62.1421 C   0  0  0  0  0  0  0  0  0  0  0  0
  -37.0720   58.9080   63.4380 C   0  0  0  0  0  0  0  0  0  0  0  0
  -37.3490   60.1700   64.2050 C   0  0  2  0  0  0  0  0  0  0  0  0
  -36.0840   60.8130   64.7130 C   0  0  0  0  0  0  0  0  0  0  0  0
  -37.3602   63.1618   67.7479 C   0  0  0  0  0  0  0  0  0  0  0  0
  -38.2804   63.5657   66.6222 C   0  0  2  0  0  0  0  0  0  0  0  0
  -38.2072   65.0437   66.3221 C   0  0  0  0  0  0  0  0  0  0  0  0
  -37.7394   59.3002   66.4062 C   0  0  0  0  0  0  0  0  0  0  0  0
  -37.9745   60.1431   67.6212 C   0  0  0  0  0  0  0  0  0  0  0  0
  -36.8474   59.9862   68.6369 C   0  0  0  0  0  0  0  0  0  0  0  0
  -37.0390   60.8067   69.9019 C   0  0  0  0  0  0  0  0  0  0  0  0
  -35.9000   60.6572   70.9039 C   0  0  0  0  0  0  0  0  0  0  0  0
  -34.5488   61.0979   70.3724 C   0  0  0  0  0  0  0  0  0  0  0  0
  -33.3919   60.9376   71.3627 C   0  0  0  0  0  0  0  0  0  0  0  0
  -33.1282   59.5046   71.8301 C   0  0  0  0  0  0  0  0  0  0  0  0
  -34.3226   58.9027   72.5077 C   0  0  0  0  0  0  0  0  0  0  0  0
  -34.6577   57.6272   72.5263 C   0  0  0  0  0  0  0  0  0  0  0  0
  -33.9099   56.5085   71.8723 C   0  0  0  0  0  0  0  0  0  0  0  0
  -33.1599   56.9614   70.6230 C   0  0  0  0  0  0  0  0  0  0  0  0
  -34.0602   57.5525   69.5524 C   0  0  0  0  0  0  0  0  0  0  0  0
  -33.3159   57.9878   68.3018 C   0  0  0  0  0  0  0  0  0  0  0  0
  -34.1974   58.5978   67.2247 C   0  0  0  0  0  0  0  0  0  0  0  0
  -35.2883   57.6593   66.7316 C   0  0  0  0  0  0  0  0  0  0  0  0
  -36.2629   57.2194   67.8061 C   0  0  0  0  0  0  0  0  0  0  0  0
  -37.3158   56.2805   67.2870 C   0  0  0  0  0  0  0  0  0  0  0  0
  -46.7387   55.2553   66.9675 H   0  0  0  0  0  0  0  0  0  0  0  0
  -48.2408   54.4704   66.5423 H   0  0  0  0  0  0  0  0  0  0  0  0
  -47.3515   55.3674   65.3350 H   0  0  0  0  0  0  0  0  0  0  0  0
  -46.4177   52.8630   66.6910 H   0  0  0  0  0  0  0  0  0  0  0  0
  -45.5445   53.7796   65.4555 H   0  0  0  0  0  0  0  0  0  0  0  0
  -48.1645   52.4108   65.0791 H   0  0  0  0  0  0  0  0  0  0  0  0
  -46.5629   51.8525   64.5179 H   0  0  0  0  0  0  0  0  0  0  0  0
  -46.3942   53.7063   63.0516 H   0  0  0  0  0  0  0  0  0  0  0  0
  -47.9744   54.2919   63.6176 H   0  0  0  0  0  0  0  0  0  0  0  0
  -48.1465   53.2251   61.4575 H   0  0  0  0  0  0  0  0  0  0  0  0
  -49.0321   52.3573   62.7320 H   0  0  0  0  0  0  0  0  0  0  0  0
  -34.6839   63.8055   64.3444 H   0  0  0  0  0  0  0  0  0  0  0  0
  -47.9266   50.8352   61.2264 H   0  0  0  0  0  0  0  0  0  0  0  0
  -47.2901   50.7573   62.8830 H   0  0  0  0  0  0  0  0  0  0  0  0
  -45.5272   50.5897   61.2489 H   0  0  0  0  0  0  0  0  0  0  0  0
  -45.4154   52.0617   62.2446 H   0  0  0  0  0  0  0  0  0  0  0  0
  -39.0036   66.3310   65.0609 H   0  0  0  0  0  0  0  0  0  0  0  0
  -46.2786   53.3750   60.4517 H   0  0  0  0  0  0  0  0  0  0  0  0
  -46.4135   51.9063   59.4558 H   0  0  0  0  0  0  0  0  0  0  0  0
  -39.6566   62.2449   67.1460 H   0  0  0  0  0  0  0  0  0  0  0  0
  -44.5022   53.2265   58.8334 H   0  0  0  0  0  0  0  0  0  0  0  0
  -44.0662   51.6339   59.5022 H   0  0  0  0  0  0  0  0  0  0  0  0
  -43.4567   52.6364   61.5701 H   0  0  0  0  0  0  0  0  0  0  0  0
  -43.9113   54.2255   60.9335 H   0  0  0  0  0  0  0  0  0  0  0  0
  -42.1866   54.0837   59.2851 H   0  0  0  0  0  0  0  0  0  0  0  0
  -41.7387   52.4832   59.9115 H   0  0  0  0  0  0  0  0  0  0  0  0
  -40.2167   54.1871   60.6610 H   0  0  0  0  0  0  0  0  0  0  0  0
  -41.1287   53.4431   61.9874 H   0  0  0  0  0  0  0  0  0  0  0  0
  -42.5774   55.3340   62.0839 H   0  0  0  0  0  0  0  0  0  0  0  0
  -41.6807   56.0762   60.7443 H   0  0  0  0  0  0  0  0  0  0  0  0
  -40.5683   55.4485   63.4349 H   0  0  0  0  0  0  0  0  0  0  0  0
  -41.0645   57.0437   62.8389 H   0  0  0  0  0  0  0  0  0  0  0  0
  -38.8882   55.3662   61.7011 H   0  0  0  0  0  0  0  0  0  0  0  0
  -38.7074   56.7946   62.7515 H   0  0  0  0  0  0  0  0  0  0  0  0
  -39.8874   56.7974   60.0232 H   0  0  0  0  0  0  0  0  0  0  0  0
  -38.2575   57.3284   60.4707 H   0  0  0  0  0  0  0  0  0  0  0  0
  -40.8047   58.5334   61.4441 H   0  0  0  0  0  0  0  0  0  0  0  0
  -39.7163   59.1897   60.1954 H   0  0  0  0  0  0  0  0  0  0  0  0
  -36.4020   59.0962   62.6252 H   0  0  0  0  0  0  0  0  0  0  0  0
  -36.6048   58.1555   64.0382 H   0  0  0  0  0  0  0  0  0  0  0  0
  -37.7985   60.8886   63.5519 H   0  0  0  0  0  0  0  0  0  0  0  0
  -35.5824   60.1428   65.3795 H   0  0  0  0  0  0  0  0  0  0  0  0
  -35.4356   61.0386   63.8923 H   0  0  0  0  0  0  0  0  0  0  0  0
  -37.6592   63.6498   68.6519 H   0  0  0  0  0  0  0  0  0  0  0  0
  -37.4047   62.1032   67.8975 H   0  0  0  0  0  0  0  0  0  0  0  0
  -37.9639   63.0531   65.7379 H   0  0  0  0  0  0  0  0  0  0  0  0
  -38.5064   65.5935   67.1899 H   0  0  0  0  0  0  0  0  0  0  0  0
  -37.2012   65.2911   66.0545 H   0  0  0  0  0  0  0  0  0  0  0  0
  -38.8965   59.8473   68.0766 H   0  0  0  0  0  0  0  0  0  0  0  0
  -38.0119   61.1682   67.3167 H   0  0  0  0  0  0  0  0  0  0  0  0
  -35.9319   60.2902   68.1737 H   0  0  0  0  0  0  0  0  0  0  0  0
  -36.8368   58.9579   68.9325 H   0  0  0  0  0  0  0  0  0  0  0  0
  -37.9475   60.4945   70.3732 H   0  0  0  0  0  0  0  0  0  0  0  0
  -37.0658   61.8352   69.6080 H   0  0  0  0  0  0  0  0  0  0  0  0
  -35.8315   59.6269   71.1844 H   0  0  0  0  0  0  0  0  0  0  0  0
  -36.1301   61.2950   71.7317 H   0  0  0  0  0  0  0  0  0  0  0  0
  -34.6169   62.1312   70.1029 H   0  0  0  0  0  0  0  0  0  0  0  0
  -34.3274   60.4616   69.5412 H   0  0  0  0  0  0  0  0  0  0  0  0
  -33.6095   61.5323   72.2251 H   0  0  0  0  0  0  0  0  0  0  0  0
  -32.5100   61.2469   70.8416 H   0  0  0  0  0  0  0  0  0  0  0  0
  -32.3086   59.5115   72.5179 H   0  0  0  0  0  0  0  0  0  0  0  0
  -32.9063   58.9124   70.9670 H   0  0  0  0  0  0  0  0  0  0  0  0
  -34.9463   59.5529   73.0110 H   0  0  0  0  0  0  0  0  0  0  0  0
  -35.5168   57.3773   73.0405 H   0  0  0  0  0  0  0  0  0  0  0  0
  -34.6066   55.7446   71.5967 H   0  0  0  0  0  0  0  0  0  0  0  0
  -33.1871   56.1461   72.5731 H   0  0  0  0  0  0  0  0  0  0  0  0
  -32.6520   56.1157   70.2085 H   0  0  0  0  0  0  0  0  0  0  0  0
  -32.4848   57.7342   70.9261 H   0  0  0  0  0  0  0  0  0  0  0  0
  -34.5587   58.4055   69.9631 H   0  0  0  0  0  0  0  0  0  0  0  0
  -34.7433   56.7833   69.2582 H   0  0  0  0  0  0  0  0  0  0  0  0
  -32.8273   57.1305   67.8881 H   0  0  0  0  0  0  0  0  0  0  0  0
  -32.6322   58.7529   68.6052 H   0  0  0  0  0  0  0  0  0  0  0  0
  -33.5799   58.8661   66.3931 H   0  0  0  0  0  0  0  0  0  0  0  0
  -34.6840   59.4463   67.6586 H   0  0  0  0  0  0  0  0  0  0  0  0
  -34.8214   56.7868   66.3246 H   0  0  0  0  0  0  0  0  0  0  0  0
  -35.8562   58.2029   66.0057 H   0  0  0  0  0  0  0  0  0  0  0  0
  -36.7452   58.0867   68.2062 H   0  0  0  0  0  0  0  0  0  0  0  0
  -35.7042   56.6961   68.5537 H   0  0  0  0  0  0  0  0  0  0  0  0
  -37.8946   56.7745   66.5347 H   0  0  0  0  0  0  0  0  0  0  0  0
  -37.9558   55.9826   68.0911 H   0  0  0  0  0  0  0  0  0  0  0  0
  -36.8465   55.4161   66.8656 H   0  0  0  0  0  0  0  0  0  0  0  0
  1  4  1  0  0  0  0
  1 54  1  0  0  0  0
  1 55  1  0  0  0  0
  1 56  1  0  0  0  0
  2 29  2  0  0  0  0
  3  7  1  0  0  0  0
  3  9  2  1  0  0  0
  3 11  1  0  0  0  0
  3 13  1  0  0  0  0
  4  6  1  0  0  0  0
  4 57  1  0  0  0  0
  4 58  1  0  0  0  0
  5 29  1  0  0  0  0
  5 30  1  0  0  0  0
  6  8  1  0  0  0  0
  6 59  1  0  0  0  0
  6 60  1  0  0  0  0
  7 32  1  0  0  0  0
  8 10  1  0  0  0  0
  8 61  1  0  0  0  0
  8 62  1  0  0  0  0
 10 12  1  0  0  0  0
 10 63  1  0  0  0  0
 10 64  1  0  0  0  0
 11 65  1  0  0  0  0
 12 14  1  0  0  0  0
 12 66  1  0  0  0  0
 12 67  1  0  0  0  0
 13 33  1  0  0  0  0
 14 16  1  0  0  0  0
 14 68  1  0  0  0  0
 14 69  1  0  0  0  0
 15 35  1  0  0  0  0
 15 70  1  0  0  0  0
 16 18  1  0  0  0  0
 16 71  1  0  0  0  0
 16 72  1  0  0  0  0
 17 34  1  0  0  0  0
 17 73  1  0  0  0  0
 18 20  1  0  0  0  0
 18 74  1  0  0  0  0
 18 75  1  0  0  0  0
 19 31  1  0  0  0  0
 19 36  1  0  0  0  0
 20 22  1  0  0  0  0
 20 76  1  0  0  0  0
 20 77  1  0  0  0  0
 21 36  2  0  0  0  0
 22 23  1  0  0  0  0
 22 78  1  0  0  0  0
 22 79  1  0  0  0  0
 23 24  1  0  0  0  0
 23 80  1  0  0  0  0
 23 81  1  0  0  0  0
 24 25  1  0  0  0  0
 24 82  1  0  0  0  0
 24 83  1  0  0  0  0
 25 26  1  0  0  0  0
 25 84  1  0  0  0  0
 25 85  1  0  0  0  0
 26 27  1  0  0  0  0
 26 86  1  0  0  0  0
 26 87  1  0  0  0  0
 27 28  1  0  0  0  0
 27 88  1  0  0  0  0
 27 89  1  0  0  0  0
 28 29  1  0  0  0  0
 28 90  1  0  0  0  0
 28 91  1  0  0  0  0
 30 31  1  0  0  0  0
 30 92  1  0  0  0  0
 30 93  1  0  0  0  0
 31 32  1  0  0  0  0
 31 94  1  6  0  0  0
 32 95  1  0  0  0  0
 32 96  1  0  0  0  0
 33 34  1  0  0  0  0
 33 97  1  0  0  0  0
 33 98  1  0  0  0  0
 34 35  1  0  0  0  0
 34 99  1  6  0  0  0
 35100  1  0  0  0  0
 35101  1  0  0  0  0
 36 37  1  0  0  0  0
 37 38  1  0  0  0  0
 37102  1  0  0  0  0
 37103  1  0  0  0  0
 38 39  1  0  0  0  0
 38104  1  0  0  0  0
 38105  1  0  0  0  0
 39 40  1  0  0  0  0
 39106  1  0  0  0  0
 39107  1  0  0  0  0
 40 41  1  0  0  0  0
 40108  1  0  0  0  0
 40109  1  0  0  0  0
 41 42  1  0  0  0  0
 41110  1  0  0  0  0
 41111  1  0  0  0  0
 42 43  1  0  0  0  0
 42112  1  0  0  0  0
 42113  1  0  0  0  0
 43 44  1  0  0  0  0
 43114  1  0  0  0  0
 43115  1  0  0  0  0
 44 45  2  0  0  0  0
 44116  1  0  0  0  0
 45 46  1  0  0  0  0
 45117  1  0  0  0  0
 46 47  1  0  0  0  0
 46118  1  0  0  0  0
 46119  1  0  0  0  0
 47 48  1  0  0  0  0
 47120  1  0  0  0  0
 47121  1  0  0  0  0
 48 49  1  0  0  0  0
 48122  1  0  0  0  0
 48123  1  0  0  0  0
 49 50  1  0  0  0  0
 49124  1  0  0  0  0
 49125  1  0  0  0  0
 50 51  1  0  0  0  0
 50126  1  0  0  0  0
 50127  1  0  0  0  0
 51 52  1  0  0  0  0
 51128  1  0  0  0  0
 51129  1  0  0  0  0
 52 53  1  0  0  0  0
 52130  1  0  0  0  0
 52131  1  0  0  0  0
 53132  1  0  0  0  0
 53133  1  0  0  0  0
 53134  1  0  0  0  0
M  CHG  1   9  -1
M  END
$$$$
/media/chris/experiments/cd1a-new-docking/inputs/ligands/7sh4_ligand.pdb
 OpenBabel07012320073D

134133  0  0  1  0  0  0  0  0999 V2000
  -36.2735   60.1014   47.2020 C   0  0  0  0  0  0  0  0  0  0  0  0
  -34.5047   59.7410   63.8599 O   0  0  0  0  0  0  0  0  0  0  0  0
  -37.2082   63.2406   64.7182 P   0  0  1  0  0  0  0  0  0  0  0  0
  -36.9204   60.7601   48.3993 C   0  0  0  0  0  0  0  0  0  0  0  0
  -36.1511   59.3213   62.4064 O   0  0  0  0  0  0  0  0  0  0  0  0
  -35.9908   60.8252   49.5962 C   0  0  0  0  0  0  0  0  0  0  0  0
  -36.4293   62.0282   65.4148 O   0  0  0  0  0  0  0  0  0  0  0  0
  -35.4948   59.4777   50.0895 C   0  0  0  0  0  0  0  0  0  0  0  0
  -38.5219   62.7387   64.2612 O   0  5  0  0  0  0  0  0  0  0  0  0
  -36.6125   58.5344   50.5120 C   0  0  0  0  0  0  0  0  0  0  0  0
  -37.1705   64.4028   65.6384 O   0  0  0  0  0  0  0  0  0  0  0  0
  -37.4796   59.0814   51.6274 C   0  0  0  0  0  0  0  0  0  0  0  0
  -36.3475   63.6096   63.4275 O   0  0  0  0  0  0  0  0  0  0  0  0
  -36.7063   59.3934   52.8942 C   0  0  0  0  0  0  0  0  0  0  0  0
  -37.9981   64.7509   59.6669 O   0  0  0  0  0  0  0  0  0  0  0  0
  -35.9857   58.1904   53.4921 C   0  0  0  0  0  0  0  0  0  0  0  0
  -37.6513   65.8042   62.2889 O   0  0  0  0  0  0  0  0  0  0  0  0
  -35.2284   58.5018   54.7660 C   0  0  0  0  0  0  0  0  0  0  0  0
  -38.2720   59.8520   65.2990 O   0  0  0  0  0  0  0  0  0  0  0  0
  -34.1601   59.5645   54.6063 C   0  0  0  0  0  0  0  0  0  0  0  0
  -36.6868   60.0455   66.8833 O   0  0  0  0  0  0  0  0  0  0  0  0
  -33.4121   59.8389   55.8921 C   0  0  0  0  0  0  0  0  0  0  0  0
  -34.3026   60.3036   57.0140 C   0  0  0  0  0  0  0  0  0  0  0  0
  -33.5454   60.5911   58.2874 C   0  0  0  0  0  0  0  0  0  0  0  0
  -32.7919   59.3881   58.8177 C   0  0  0  0  0  0  0  0  0  0  0  0
  -32.0482   59.6747   60.1025 C   0  0  0  0  0  0  0  0  0  0  0  0
  -32.9369   60.1019   61.2515 C   0  0  0  0  0  0  0  0  0  0  0  0
  -33.9609   59.0445   61.6279 C   0  0  0  0  0  0  0  0  0  0  0  0
  -34.8698   59.4444   62.7543 C   0  0  0  0  0  0  0  0  0  0  0  0
  -37.0720   58.9080   63.4380 C   0  0  0  0  0  0  0  0  0  0  0  0
  -37.3490   60.1700   64.2050 C   0  0  2  0  0  0  0  0  0  0  0  0
  -36.0840   60.8130   64.7130 C   0  0  0  0  0  0  0  0  0  0  0  0
  -36.9404   63.5222   62.1157 C   0  0  0  0  0  0  0  0  0  0  0  0
  -38.1135   64.4697   62.0598 C   0  0  2  0  0  0  0  0  0  0  0  0
  -38.8526   64.3927   60.7454 C   0  0  0  0  0  0  0  0  0  0  0  0
  -37.8399   60.0926   66.5518 C   0  0  0  0  0  0  0  0  0  0  0  0
  -38.9653   60.4431   67.4752 C   0  0  0  0  0  0  0  0  0  0  0  0
  -38.6733   60.0004   68.9054 C   0  0  0  0  0  0  0  0  0  0  0  0
  -37.4360   60.6443   69.5094 C   0  0  0  0  0  0  0  0  0  0  0  0
  -37.5192   62.1641   69.5940 C   0  0  0  0  0  0  0  0  0  0  0  0
  -36.2817   62.8180   70.1801 C   0  0  0  0  0  0  0  0  0  0  0  0
  -34.9943   62.5676   69.3896 C   0  0  0  0  0  0  0  0  0  0  0  0
  -35.0051   63.0796   67.9476 C   0  0  0  0  0  0  0  0  0  0  0  0
  -33.7203   62.7840   67.2336 C   0  0  0  0  0  0  0  0  0  0  0  0
  -32.6537   63.5578   67.1791 C   0  0  0  0  0  0  0  0  0  0  0  0
  -32.5026   64.8993   67.8240 C   0  0  0  0  0  0  0  0  0  0  0  0
  -33.8316   65.6386   67.9484 C   0  0  0  0  0  0  0  0  0  0  0  0
  -34.5199   65.8834   66.6171 C   0  0  0  0  0  0  0  0  0  0  0  0
  -35.8346   66.6343   66.7391 C   0  0  0  0  0  0  0  0  0  0  0  0
  -36.5475   66.8745   65.4187 C   0  0  0  0  0  0  0  0  0  0  0  0
  -37.8522   67.6426   65.5658 C   0  0  0  0  0  0  0  0  0  0  0  0
  -38.8758   66.9654   66.4554 C   0  0  0  0  0  0  0  0  0  0  0  0
  -39.2616   65.5988   65.9622 C   0  0  0  0  0  0  0  0  0  0  0  0
  -36.9677   60.0805   46.3880 H   0  0  0  0  0  0  0  0  0  0  0  0
  -35.9902   59.1011   47.4550 H   0  0  0  0  0  0  0  0  0  0  0  0
  -35.4047   60.6566   46.9157 H   0  0  0  0  0  0  0  0  0  0  0  0
  -37.7912   60.2004   48.6705 H   0  0  0  0  0  0  0  0  0  0  0  0
  -37.1692   61.7638   48.1245 H   0  0  0  0  0  0  0  0  0  0  0  0
  -36.5140   61.3017   50.3988 H   0  0  0  0  0  0  0  0  0  0  0  0
  -35.1252   61.3670   49.2769 H   0  0  0  0  0  0  0  0  0  0  0  0
  -34.8535   59.6404   50.9304 H   0  0  0  0  0  0  0  0  0  0  0  0
  -34.9841   59.0129   49.2721 H   0  0  0  0  0  0  0  0  0  0  0  0
  -36.1732   57.6170   50.8442 H   0  0  0  0  0  0  0  0  0  0  0  0
  -37.2461   58.3979   49.6606 H   0  0  0  0  0  0  0  0  0  0  0  0
  -37.6885   64.2024   66.4336 H   0  0  0  0  0  0  0  0  0  0  0  0
  -38.2316   58.3563   51.8590 H   0  0  0  0  0  0  0  0  0  0  0  0
  -37.8991   60.0019   51.2787 H   0  0  0  0  0  0  0  0  0  0  0  0
  -37.3925   59.7712   53.6230 H   0  0  0  0  0  0  0  0  0  0  0  0
  -35.9530   60.1059   52.6298 H   0  0  0  0  0  0  0  0  0  0  0  0
  -38.4898   64.6954   58.8327 H   0  0  0  0  0  0  0  0  0  0  0  0
  -35.2901   57.8200   52.7683 H   0  0  0  0  0  0  0  0  0  0  0  0
  -36.7368   57.4713   53.7443 H   0  0  0  0  0  0  0  0  0  0  0  0
  -37.1786   65.8418   63.1351 H   0  0  0  0  0  0  0  0  0  0  0  0
  -34.7594   57.6023   55.1066 H   0  0  0  0  0  0  0  0  0  0  0  0
  -35.9430   58.8849   55.4641 H   0  0  0  0  0  0  0  0  0  0  0  0
  -34.6255   60.4714   54.2809 H   0  0  0  0  0  0  0  0  0  0  0  0
  -33.4508   59.2045   53.8906 H   0  0  0  0  0  0  0  0  0  0  0  0
  -32.6803   60.5966   55.7038 H   0  0  0  0  0  0  0  0  0  0  0  0
  -32.9681   58.9163   56.2025 H   0  0  0  0  0  0  0  0  0  0  0  0
  -35.0268   59.5414   57.2126 H   0  0  0  0  0  0  0  0  0  0  0  0
  -34.7611   61.2183   56.7009 H   0  0  0  0  0  0  0  0  0  0  0  0
  -34.2429   60.9113   59.0330 H   0  0  0  0  0  0  0  0  0  0  0  0
  -32.8216   61.3466   58.0636 H   0  0  0  0  0  0  0  0  0  0  0  0
  -32.0854   59.0752   58.0776 H   0  0  0  0  0  0  0  0  0  0  0  0
  -33.5134   58.6269   59.0292 H   0  0  0  0  0  0  0  0  0  0  0  0
  -31.3429   60.4571   59.9147 H   0  0  0  0  0  0  0  0  0  0  0  0
  -31.5815   58.7585   60.3987 H   0  0  0  0  0  0  0  0  0  0  0  0
  -33.4550   60.9946   60.9695 H   0  0  0  0  0  0  0  0  0  0  0  0
  -32.3089   60.2601   62.1033 H   0  0  0  0  0  0  0  0  0  0  0  0
  -33.4372   58.1576   61.9175 H   0  0  0  0  0  0  0  0  0  0  0  0
  -34.5813   58.8964   60.7687 H   0  0  0  0  0  0  0  0  0  0  0  0
  -36.6274   58.1683   64.0706 H   0  0  0  0  0  0  0  0  0  0  0  0
  -37.9610   58.4631   63.0423 H   0  0  0  0  0  0  0  0  0  0  0  0
  -37.7985   60.8886   63.5519 H   0  0  0  0  0  0  0  0  0  0  0  0
  -35.5824   60.1428   65.3795 H   0  0  0  0  0  0  0  0  0  0  0  0
  -35.4356   61.0386   63.8923 H   0  0  0  0  0  0  0  0  0  0  0  0
  -37.2749   62.5218   61.9362 H   0  0  0  0  0  0  0  0  0  0  0  0
  -36.2205   63.7836   61.3685 H   0  0  0  0  0  0  0  0  0  0  0  0
  -38.8061   64.1820   62.8230 H   0  0  0  0  0  0  0  0  0  0  0  0
  -39.2039   63.3928   60.5981 H   0  0  0  0  0  0  0  0  0  0  0  0
  -39.6762   65.0752   60.7732 H   0  0  0  0  0  0  0  0  0  0  0  0
  -39.8570   59.9583   67.1364 H   0  0  0  0  0  0  0  0  0  0  0  0
  -39.0847   61.5064   67.4706 H   0  0  0  0  0  0  0  0  0  0  0  0
  -38.5361   58.9393   68.9081 H   0  0  0  0  0  0  0  0  0  0  0  0
  -39.5063   60.3088   69.5020 H   0  0  0  0  0  0  0  0  0  0  0  0
  -36.5910   60.3847   68.9065 H   0  0  0  0  0  0  0  0  0  0  0  0
  -37.3488   60.2783   70.5110 H   0  0  0  0  0  0  0  0  0  0  0  0
  -38.3580   62.4216   70.2064 H   0  0  0  0  0  0  0  0  0  0  0  0
  -37.6149   62.5253   68.5914 H   0  0  0  0  0  0  0  0  0  0  0  0
  -36.1431   62.4413   71.1720 H   0  0  0  0  0  0  0  0  0  0  0  0
  -36.4543   63.8736   70.1528 H   0  0  0  0  0  0  0  0  0  0  0  0
  -34.8211   61.5120   69.3648 H   0  0  0  0  0  0  0  0  0  0  0  0
  -34.2254   63.1152   69.8933 H   0  0  0  0  0  0  0  0  0  0  0  0
  -35.1577   64.1386   67.9588 H   0  0  0  0  0  0  0  0  0  0  0  0
  -35.7941   62.5787   67.4265 H   0  0  0  0  0  0  0  0  0  0  0  0
  -33.6649   61.8829   66.7336 H   0  0  0  0  0  0  0  0  0  0  0  0
  -31.8472   63.2046   66.6408 H   0  0  0  0  0  0  0  0  0  0  0  0
  -31.8344   65.4908   67.2338 H   0  0  0  0  0  0  0  0  0  0  0  0
  -32.1217   64.7450   68.8120 H   0  0  0  0  0  0  0  0  0  0  0  0
  -33.6498   66.5847   68.4139 H   0  0  0  0  0  0  0  0  0  0  0  0
  -34.4824   65.0175   68.5278 H   0  0  0  0  0  0  0  0  0  0  0  0
  -34.7128   64.9367   66.1573 H   0  0  0  0  0  0  0  0  0  0  0  0
  -33.8636   66.4943   66.0331 H   0  0  0  0  0  0  0  0  0  0  0  0
  -35.6364   67.5844   67.1897 H   0  0  0  0  0  0  0  0  0  0  0  0
  -36.4830   66.0195   67.3278 H   0  0  0  0  0  0  0  0  0  0  0  0
  -36.7611   65.9262   64.9715 H   0  0  0  0  0  0  0  0  0  0  0  0
  -35.8972   67.4707   64.8133 H   0  0  0  0  0  0  0  0  0  0  0  0
  -38.2813   67.7643   64.5932 H   0  0  0  0  0  0  0  0  0  0  0  0
  -37.6090   68.5746   66.0317 H   0  0  0  0  0  0  0  0  0  0  0  0
  -39.7537   67.5760   66.4929 H   0  0  0  0  0  0  0  0  0  0  0  0
  -38.4341   66.8464   67.4227 H   0  0  0  0  0  0  0  0  0  0  0  0
  -39.7080   65.6823   64.9933 H   0  0  0  0  0  0  0  0  0  0  0  0
  -39.9621   65.1592   66.6410 H   0  0  0  0  0  0  0  0  0  0  0  0
  -38.3892   64.9823   65.9010 H   0  0  0  0  0  0  0  0  0  0  0  0
  1  4  1  0  0  0  0
  1 54  1  0  0  0  0
  1 55  1  0  0  0  0
  1 56  1  0  0  0  0
  2 29  2  0  0  0  0
  3  7  1  0  0  0  0
  3  9  2  6  0  0  0
  3 11  1  0  0  0  0
  3 13  1  0  0  0  0
  4  6  1  0  0  0  0
  4 57  1  0  0  0  0
  4 58  1  0  0  0  0
  5 29  1  0  0  0  0
  5 30  1  0  0  0  0
  6  8  1  0  0  0  0
  6 59  1  0  0  0  0
  6 60  1  0  0  0  0
  7 32  1  0  0  0  0
  8 10  1  0  0  0  0
  8 61  1  0  0  0  0
  8 62  1  0  0  0  0
 10 12  1  0  0  0  0
 10 63  1  0  0  0  0
 10 64  1  0  0  0  0
 11 65  1  0  0  0  0
 12 14  1  0  0  0  0
 12 66  1  0  0  0  0
 12 67  1  0  0  0  0
 13 33  1  0  0  0  0
 14 16  1  0  0  0  0
 14 68  1  0  0  0  0
 14 69  1  0  0  0  0
 15 35  1  0  0  0  0
 15 70  1  0  0  0  0
 16 18  1  0  0  0  0
 16 71  1  0  0  0  0
 16 72  1  0  0  0  0
 17 34  1  0  0  0  0
 17 73  1  0  0  0  0
 18 20  1  0  0  0  0
 18 74  1  0  0  0  0
 18 75  1  0  0  0  0
 19 31  1  0  0  0  0
 19 36  1  0  0  0  0
 20 22  1  0  0  0  0
 20 76  1  0  0  0  0
 20 77  1  0  0  0  0
 21 36  2  0  0  0  0
 22 23  1  0  0  0  0
 22 78  1  0  0  0  0
 22 79  1  0  0  0  0
 23 24  1  0  0  0  0
 23 80  1  0  0  0  0
 23 81  1  0  0  0  0
 24 25  1  0  0  0  0
 24 82  1  0  0  0  0
 24 83  1  0  0  0  0
 25 26  1  0  0  0  0
 25 84  1  0  0  0  0
 25 85  1  0  0  0  0
 26 27  1  0  0  0  0
 26 86  1  0  0  0  0
 26 87  1  0  0  0  0
 27 28  1  0  0  0  0
 27 88  1  0  0  0  0
 27 89  1  0  0  0  0
 28 29  1  0  0  0  0
 28 90  1  0  0  0  0
 28 91  1  0  0  0  0
 30 31  1  0  0  0  0
 30 92  1  0  0  0  0
 30 93  1  0  0  0  0
 31 32  1  0  0  0  0
 31 94  1  6  0  0  0
 32 95  1  0  0  0  0
 32 96  1  0  0  0  0
 33 34  1  0  0  0  0
 33 97  1  0  0  0  0
 33 98  1  0  0  0  0
 34 35  1  0  0  0  0
 34 99  1  1  0  0  0
 35100  1  0  0  0  0
 35101  1  0  0  0  0
 36 37  1  0  0  0  0
 37 38  1  0  0  0  0
 37102  1  0  0  0  0
 37103  1  0  0  0  0
 38 39  1  0  0  0  0
 38104  1  0  0  0  0
 38105  1  0  0  0  0
 39 40  1  0  0  0  0
 39106  1  0  0  0  0
 39107  1  0  0  0  0
 40 41  1  0  0  0  0
 40108  1  0  0  0  0
 40109  1  0  0  0  0
 41 42  1  0  0  0  0
 41110  1  0  0  0  0
 41111  1  0  0  0  0
 42 43  1  0  0  0  0
 42112  1  0  0  0  0
 42113  1  0  0  0  0
 43 44  1  0  0  0  0
 43114  1  0  0  0  0
 43115  1  0  0  0  0
 44 45  2  0  0  0  0
 44116  1  0  0  0  0
 45 46  1  0  0  0  0
 45117  1  0  0  0  0
 46 47  1  0  0  0  0
 46118  1  0  0  0  0
 46119  1  0  0  0  0
 47 48  1  0  0  0  0
 47120  1  0  0  0  0
 47121  1  0  0  0  0
 48 49  1  0  0  0  0
 48122  1  0  0  0  0
 48123  1  0  0  0  0
 49 50  1  0  0  0  0
 49124  1  0  0  0  0
 49125  1  0  0  0  0
 50 51  1  0  0  0  0
 50126  1  0  0  0  0
 50127  1  0  0  0  0
 51 52  1  0  0  0  0
 51128  1  0  0  0  0
 51129  1  0  0  0  0
 52 53  1  0  0  0  0
 52130  1  0  0  0  0
 52131  1  0  0  0  0
 53132  1  0  0  0  0
 53133  1  0  0  0  0
 53134  1  0  0  0  0
M  CHG  1   9  -1
M  END
$$$$
/media/chris/experiments/cd1a-new-docking/inputs/ligands/7sh4_ligand.pdb
 OpenBabel07012320073D

134133  0  0  1  0  0  0  0  0999 V2000
  -37.9448   50.2575   65.7293 C   0  0  0  0  0  0  0  0  0  0  0  0
  -38.8554   57.6102   64.9417 O   0  0  0  0  0  0  0  0  0  0  0  0
  -34.0491   60.2433   66.3537 P   0  0  1  0  0  0  0  0  0  0  0  0
  -38.1663   51.1200   64.5075 C   0  0  0  0  0  0  0  0  0  0  0  0
  -38.3690   58.5038   62.9506 O   0  0  0  0  0  0  0  0  0  0  0  0
  -39.5339   50.9045   63.8876 C   0  0  0  0  0  0  0  0  0  0  0  0
  -35.4212   59.8922   65.6081 O   0  0  0  0  0  0  0  0  0  0  0  0
  -40.7034   51.2282   64.8003 C   0  0  0  0  0  0  0  0  0  0  0  0
  -33.0291   60.5333   65.3231 O   0  5  0  0  0  0  0  0  0  0  0  0
  -40.7350   52.6795   65.2586 C   0  0  0  0  0  0  0  0  0  0  0  0
  -34.3335   61.2715   67.3836 O   0  0  0  0  0  0  0  0  0  0  0  0
  -40.8552   53.6731   64.1213 C   0  0  0  0  0  0  0  0  0  0  0  0
  -33.6214   58.9031   67.1045 O   0  0  0  0  0  0  0  0  0  0  0  0
  -42.1210   53.5028   63.3035 C   0  0  0  0  0  0  0  0  0  0  0  0
  -33.7955   60.2140   69.2276 O   0  0  0  0  0  0  0  0  0  0  0  0
  -43.4052   53.6859   64.1044 C   0  0  0  0  0  0  0  0  0  0  0  0
  -36.5351   57.7917   69.0009 O   0  0  0  0  0  0  0  0  0  0  0  0
  -44.6671   53.4985   63.2886 C   0  0  0  0  0  0  0  0  0  0  0  0
  -38.2720   59.8520   65.2990 O   0  0  0  0  0  0  0  0  0  0  0  0
  -44.7924   54.4500   62.1159 C   0  0  0  0  0  0  0  0  0  0  0  0
  -36.7587   60.5453   66.8121 O   0  0  0  0  0  0  0  0  0  0  0  0
  -44.7870   55.9023   62.5388 C   0  0  0  0  0  0  0  0  0  0  0  0
  -44.9278   56.8609   61.3860 C   0  0  0  0  0  0  0  0  0  0  0  0
  -43.8263   56.7200   60.3640 C   0  0  0  0  0  0  0  0  0  0  0  0
  -42.4445   56.9536   60.9404 C   0  0  0  0  0  0  0  0  0  0  0  0
  -42.2808   58.3285   61.5474 C   0  0  0  0  0  0  0  0  0  0  0  0
  -40.9033   58.5954   62.1164 C   0  0  0  0  0  0  0  0  0  0  0  0
  -40.5185   57.6139   63.2105 C   0  0  0  0  0  0  0  0  0  0  0  0
  -39.1632   57.8617   63.8078 C   0  0  0  0  0  0  0  0  0  0  0  0
  -37.0720   58.9080   63.4380 C   0  0  0  0  0  0  0  0  0  0  0  0
  -37.3490   60.1700   64.2050 C   0  0  2  0  0  0  0  0  0  0  0  0
  -36.0840   60.8130   64.7130 C   0  0  0  0  0  0  0  0  0  0  0  0
  -34.6297   57.9778   67.5595 C   0  0  0  0  0  0  0  0  0  0  0  0
  -35.5368   58.6997   68.5255 C   0  0  2  0  0  0  0  0  0  0  0  0
  -34.7801   59.2972   69.6875 C   0  0  0  0  0  0  0  0  0  0  0  0
  -37.8399   60.0926   66.5518 C   0  0  0  0  0  0  0  0  0  0  0  0
  -38.8741   59.7460   67.5776 C   0  0  0  0  0  0  0  0  0  0  0  0
  -38.3798   60.0389   68.9906 C   0  0  0  0  0  0  0  0  0  0  0  0
  -39.3822   59.6908   70.0788 C   0  0  0  0  0  0  0  0  0  0  0  0
  -38.8870   60.0024   71.4864 C   0  0  0  0  0  0  0  0  0  0  0  0
  -39.8739   59.6428   72.5814 C   0  0  0  0  0  0  0  0  0  0  0  0
  -41.2270   60.3522   72.4771 C   0  0  0  0  0  0  0  0  0  0  0  0
  -42.2276   60.0128   73.5840 C   0  0  0  0  0  0  0  0  0  0  0  0
  -42.5450   58.5481   73.6289 C   0  0  0  0  0  0  0  0  0  0  0  0
  -43.0642   57.8248   72.6559 C   0  0  0  0  0  0  0  0  0  0  0  0
  -43.4453   58.3183   71.2960 C   0  0  0  0  0  0  0  0  0  0  0  0
  -42.6839   57.6043   70.1829 C   0  0  0  0  0  0  0  0  0  0  0  0
  -43.0372   58.0959   68.7902 C   0  0  0  0  0  0  0  0  0  0  0  0
  -42.2919   57.3736   67.6811 C   0  0  0  0  0  0  0  0  0  0  0  0
  -42.6193   57.8629   66.2801 C   0  0  0  0  0  0  0  0  0  0  0  0
  -42.2843   59.3298   66.0572 C   0  0  0  0  0  0  0  0  0  0  0  0
  -40.8174   59.6671   66.2366 C   0  0  0  0  0  0  0  0  0  0  0  0
  -40.5263   61.1267   66.0255 C   0  0  0  0  0  0  0  0  0  0  0  0
  -36.9697   50.4464   66.1272 H   0  0  0  0  0  0  0  0  0  0  0  0
  -38.0251   49.2259   65.4569 H   0  0  0  0  0  0  0  0  0  0  0  0
  -38.6828   50.4897   66.4685 H   0  0  0  0  0  0  0  0  0  0  0  0
  -37.4182   50.8838   63.7799 H   0  0  0  0  0  0  0  0  0  0  0  0
  -38.1052   52.1430   64.8150 H   0  0  0  0  0  0  0  0  0  0  0  0
  -39.6108   49.8769   63.5994 H   0  0  0  0  0  0  0  0  0  0  0  0
  -39.6004   51.5803   63.0607 H   0  0  0  0  0  0  0  0  0  0  0  0
  -40.6410   50.6015   65.6653 H   0  0  0  0  0  0  0  0  0  0  0  0
  -41.5973   51.0572   64.2376 H   0  0  0  0  0  0  0  0  0  0  0  0
  -39.8312   52.8851   65.7931 H   0  0  0  0  0  0  0  0  0  0  0  0
  -41.6053   52.7962   65.8700 H   0  0  0  0  0  0  0  0  0  0  0  0
  -34.5967   62.0987   66.9506 H   0  0  0  0  0  0  0  0  0  0  0  0
  -40.0132   53.5495   63.4726 H   0  0  0  0  0  0  0  0  0  0  0  0
  -40.8900   54.6496   64.5574 H   0  0  0  0  0  0  0  0  0  0  0  0
  -42.1221   52.5175   62.8862 H   0  0  0  0  0  0  0  0  0  0  0  0
  -42.1113   54.2670   62.5546 H   0  0  0  0  0  0  0  0  0  0  0  0
  -33.3208   60.5866   69.9871 H   0  0  0  0  0  0  0  0  0  0  0  0
  -43.4106   54.6754   64.5114 H   0  0  0  0  0  0  0  0  0  0  0  0
  -43.4096   52.9308   64.8625 H   0  0  0  0  0  0  0  0  0  0  0  0
  -37.0144   57.4144   68.2468 H   0  0  0  0  0  0  0  0  0  0  0  0
  -45.5087   53.6462   63.9326 H   0  0  0  0  0  0  0  0  0  0  0  0
  -44.6273   52.5099   62.8811 H   0  0  0  0  0  0  0  0  0  0  0  0
  -45.7105   54.2455   61.6058 H   0  0  0  0  0  0  0  0  0  0  0  0
  -43.9443   54.2950   61.4822 H   0  0  0  0  0  0  0  0  0  0  0  0
  -43.8635   56.1066   63.0390 H   0  0  0  0  0  0  0  0  0  0  0  0
  -45.6334   56.0488   63.1768 H   0  0  0  0  0  0  0  0  0  0  0  0
  -44.9115   57.8598   61.7693 H   0  0  0  0  0  0  0  0  0  0  0  0
  -45.8512   56.6367   60.8942 H   0  0  0  0  0  0  0  0  0  0  0  0
  -43.9938   57.4319   59.5830 H   0  0  0  0  0  0  0  0  0  0  0  0
  -43.8543   55.7133   60.0027 H   0  0  0  0  0  0  0  0  0  0  0  0
  -41.7247   56.8391   60.1570 H   0  0  0  0  0  0  0  0  0  0  0  0
  -42.3001   56.2392   61.7238 H   0  0  0  0  0  0  0  0  0  0  0  0
  -42.9960   58.4345   62.3362 H   0  0  0  0  0  0  0  0  0  0  0  0
  -42.4289   59.0337   60.7564 H   0  0  0  0  0  0  0  0  0  0  0  0
  -40.8871   59.5848   62.5234 H   0  0  0  0  0  0  0  0  0  0  0  0
  -40.1980   58.4826   61.3196 H   0  0  0  0  0  0  0  0  0  0  0  0
  -40.5275   56.6277   62.7956 H   0  0  0  0  0  0  0  0  0  0  0  0
  -41.2305   57.7370   63.9996 H   0  0  0  0  0  0  0  0  0  0  0  0
  -36.4020   59.0962   62.6252 H   0  0  0  0  0  0  0  0  0  0  0  0
  -36.6048   58.1555   64.0382 H   0  0  0  0  0  0  0  0  0  0  0  0
  -37.7985   60.8886   63.5519 H   0  0  0  0  0  0  0  0  0  0  0  0
  -35.4401   61.0403   63.8892 H   0  0  0  0  0  0  0  0  0  0  0  0
  -36.3193   61.7188   65.2317 H   0  0  0  0  0  0  0  0  0  0  0  0
  -34.1644   57.1491   68.0511 H   0  0  0  0  0  0  0  0  0  0  0  0
  -35.1948   57.6114   66.7281 H   0  0  0  0  0  0  0  0  0  0  0  0
  -35.9952   59.5126   68.0023 H   0  0  0  0  0  0  0  0  0  0  0  0
  -35.4670   59.8109   70.3271 H   0  0  0  0  0  0  0  0  0  0  0  0
  -34.2931   58.5090   70.2228 H   0  0  0  0  0  0  0  0  0  0  0  0
  -39.1062   58.7044   67.4994 H   0  0  0  0  0  0  0  0  0  0  0  0
  -39.7422   60.3443   67.3948 H   0  0  0  0  0  0  0  0  0  0  0  0
  -38.1568   61.0831   69.0598 H   0  0  0  0  0  0  0  0  0  0  0  0
  -37.5198   59.4233   69.1525 H   0  0  0  0  0  0  0  0  0  0  0  0
  -39.5963   58.6441   70.0194 H   0  0  0  0  0  0  0  0  0  0  0  0
  -40.2502   60.2936   69.9107 H   0  0  0  0  0  0  0  0  0  0  0  0
  -38.6843   61.0513   71.5473 H   0  0  0  0  0  0  0  0  0  0  0  0
  -38.0145   59.4043   71.6472 H   0  0  0  0  0  0  0  0  0  0  0  0
  -39.4350   59.8976   73.5234 H   0  0  0  0  0  0  0  0  0  0  0  0
  -40.0714   58.5960   72.4803 H   0  0  0  0  0  0  0  0  0  0  0  0
  -41.6684   60.0870   71.5392 H   0  0  0  0  0  0  0  0  0  0  0  0
  -41.0221   61.3980   72.5726 H   0  0  0  0  0  0  0  0  0  0  0  0
  -43.1325   60.5565   73.4094 H   0  0  0  0  0  0  0  0  0  0  0  0
  -41.7864   60.2828   74.5206 H   0  0  0  0  0  0  0  0  0  0  0  0
  -42.3358   58.0556   74.5113 H   0  0  0  0  0  0  0  0  0  0  0  0
  -43.2225   56.8239   72.8512 H   0  0  0  0  0  0  0  0  0  0  0  0
  -43.2346   59.3658   71.2391 H   0  0  0  0  0  0  0  0  0  0  0  0
  -44.4875   58.1196   71.1573 H   0  0  0  0  0  0  0  0  0  0  0  0
  -42.9054   56.5589   70.2386 H   0  0  0  0  0  0  0  0  0  0  0  0
  -41.6445   57.8094   70.3331 H   0  0  0  0  0  0  0  0  0  0  0  0
  -42.8042   59.1385   68.7306 H   0  0  0  0  0  0  0  0  0  0  0  0
  -44.0794   57.9020   68.6448 H   0  0  0  0  0  0  0  0  0  0  0  0
  -42.5354   56.3332   67.7373 H   0  0  0  0  0  0  0  0  0  0  0  0
  -41.2513   57.5685   67.8364 H   0  0  0  0  0  0  0  0  0  0  0  0
  -43.6664   57.7246   66.1089 H   0  0  0  0  0  0  0  0  0  0  0  0
  -42.0191   57.2956   65.5998 H   0  0  0  0  0  0  0  0  0  0  0  0
  -42.8501   59.9127   66.7537 H   0  0  0  0  0  0  0  0  0  0  0  0
  -42.5276   59.5492   65.0386 H   0  0  0  0  0  0  0  0  0  0  0  0
  -40.2471   59.0991   65.5316 H   0  0  0  0  0  0  0  0  0  0  0  0
  -40.5524   59.4280   67.2453 H   0  0  0  0  0  0  0  0  0  0  0  0
  -40.7811   61.3998   65.0228 H   0  0  0  0  0  0  0  0  0  0  0  0
  -39.4854   61.3105   66.1917 H   0  0  0  0  0  0  0  0  0  0  0  0
  -41.1053   61.7088   66.7117 H   0  0  0  0  0  0  0  0  0  0  0  0
  1  4  1  0  0  0  0
  1 54  1  0  0  0  0
  1 55  1  0  0  0  0
  1 56  1  0  0  0  0
  2 29  2  0  0  0  0
  3  7  1  0  0  0  0
  3  9  2  6  0  0  0
  3 11  1  0  0  0  0
  3 13  1  0  0  0  0
  4  6  1  0  0  0  0
  4 57  1  0  0  0  0
  4 58  1  0  0  0  0
  5 29  1  0  0  0  0
  5 30  1  0  0  0  0
  6  8  1  0  0  0  0
  6 59  1  0  0  0  0
  6 60  1  0  0  0  0
  7 32  1  0  0  0  0
  8 10  1  0  0  0  0
  8 61  1  0  0  0  0
  8 62  1  0  0  0  0
 10 12  1  0  0  0  0
 10 63  1  0  0  0  0
 10 64  1  0  0  0  0
 11 65  1  0  0  0  0
 12 14  1  0  0  0  0
 12 66  1  0  0  0  0
 12 67  1  0  0  0  0
 13 33  1  0  0  0  0
 14 16  1  0  0  0  0
 14 68  1  0  0  0  0
 14 69  1  0  0  0  0
 15 35  1  0  0  0  0
 15 70  1  0  0  0  0
 16 18  1  0  0  0  0
 16 71  1  0  0  0  0
 16 72  1  0  0  0  0
 17 34  1  0  0  0  0
 17 73  1  0  0  0  0
 18 20  1  0  0  0  0
 18 74  1  0  0  0  0
 18 75  1  0  0  0  0
 19 31  1  0  0  0  0
 19 36  1  0  0  0  0
 20 22  1  0  0  0  0
 20 76  1  0  0  0  0
 20 77  1  0  0  0  0
 21 36  2  0  0  0  0
 22 23  1  0  0  0  0
 22 78  1  0  0  0  0
 22 79  1  0  0  0  0
 23 24  1  0  0  0  0
 23 80  1  0  0  0  0
 23 81  1  0  0  0  0
 24 25  1  0  0  0  0
 24 82  1  0  0  0  0
 24 83  1  0  0  0  0
 25 26  1  0  0  0  0
 25 84  1  0  0  0  0
 25 85  1  0  0  0  0
 26 27  1  0  0  0  0
 26 86  1  0  0  0  0
 26 87  1  0  0  0  0
 27 28  1  0  0  0  0
 27 88  1  0  0  0  0
 27 89  1  0  0  0  0
 28 29  1  0  0  0  0
 28 90  1  0  0  0  0
 28 91  1  0  0  0  0
 30 31  1  0  0  0  0
 30 92  1  0  0  0  0
 30 93  1  0  0  0  0
 31 32  1  0  0  0  0
 31 94  1  6  0  0  0
 32 95  1  0  0  0  0
 32 96  1  0  0  0  0
 33 34  1  0  0  0  0
 33 97  1  0  0  0  0
 33 98  1  0  0  0  0
 34 35  1  0  0  0  0
 34 99  1  6  0  0  0
 35100  1  0  0  0  0
 35101  1  0  0  0  0
 36 37  1  0  0  0  0
 37 38  1  0  0  0  0
 37102  1  0  0  0  0
 37103  1  0  0  0  0
 38 39  1  0  0  0  0
 38104  1  0  0  0  0
 38105  1  0  0  0  0
 39 40  1  0  0  0  0
 39106  1  0  0  0  0
 39107  1  0  0  0  0
 40 41  1  0  0  0  0
 40108  1  0  0  0  0
 40109  1  0  0  0  0
 41 42  1  0  0  0  0
 41110  1  0  0  0  0
 41111  1  0  0  0  0
 42 43  1  0  0  0  0
 42112  1  0  0  0  0
 42113  1  0  0  0  0
 43 44  1  0  0  0  0
 43114  1  0  0  0  0
 43115  1  0  0  0  0
 44 45  2  0  0  0  0
 44116  1  0  0  0  0
 45 46  1  0  0  0  0
 45117  1  0  0  0  0
 46 47  1  0  0  0  0
 46118  1  0  0  0  0
 46119  1  0  0  0  0
 47 48  1  0  0  0  0
 47120  1  0  0  0  0
 47121  1  0  0  0  0
 48 49  1  0  0  0  0
 48122  1  0  0  0  0
 48123  1  0  0  0  0
 49 50  1  0  0  0  0
 49124  1  0  0  0  0
 49125  1  0  0  0  0
 50 51  1  0  0  0  0
 50126  1  0  0  0  0
 50127  1  0  0  0  0
 51 52  1  0  0  0  0
 51128  1  0  0  0  0
 51129  1  0  0  0  0
 52 53  1  0  0  0  0
 52130  1  0  0  0  0
 52131  1  0  0  0  0
 53132  1  0  0  0  0
 53133  1  0  0  0  0
 53134  1  0  0  0  0
M  CHG  1   9  -1
M  END
$$$$
/media/chris/experiments/cd1a-new-docking/inputs/ligands/7sh4_ligand.pdb
 OpenBabel07012320073D

134133  0  0  1  0  0  0  0  0999 V2000
  -37.9448   50.2575   65.7293 C   0  0  0  0  0  0  0  0  0  0  0  0
  -38.8554   57.6102   64.9417 O   0  0  0  0  0  0  0  0  0  0  0  0
  -34.0491   60.2433   66.3537 P   0  0  1  0  0  0  0  0  0  0  0  0
  -38.1663   51.1200   64.5075 C   0  0  0  0  0  0  0  0  0  0  0  0
  -38.3690   58.5038   62.9506 O   0  0  0  0  0  0  0  0  0  0  0  0
  -39.5339   50.9045   63.8876 C   0  0  0  0  0  0  0  0  0  0  0  0
  -35.4212   59.8922   65.6081 O   0  0  0  0  0  0  0  0  0  0  0  0
  -40.7034   51.2282   64.8003 C   0  0  0  0  0  0  0  0  0  0  0  0
  -33.0291   60.5333   65.3231 O   0  5  0  0  0  0  0  0  0  0  0  0
  -40.7350   52.6795   65.2586 C   0  0  0  0  0  0  0  0  0  0  0  0
  -34.3335   61.2715   67.3836 O   0  0  0  0  0  0  0  0  0  0  0  0
  -40.8552   53.6731   64.1213 C   0  0  0  0  0  0  0  0  0  0  0  0
  -33.6214   58.9031   67.1045 O   0  0  0  0  0  0  0  0  0  0  0  0
  -42.1210   53.5028   63.3035 C   0  0  0  0  0  0  0  0  0  0  0  0
  -33.7955   60.2140   69.2276 O   0  0  0  0  0  0  0  0  0  0  0  0
  -43.4052   53.6859   64.1044 C   0  0  0  0  0  0  0  0  0  0  0  0
  -36.5351   57.7917   69.0009 O   0  0  0  0  0  0  0  0  0  0  0  0
  -44.6671   53.4985   63.2886 C   0  0  0  0  0  0  0  0  0  0  0  0
  -38.2720   59.8520   65.2990 O   0  0  0  0  0  0  0  0  0  0  0  0
  -44.7924   54.4500   62.1159 C   0  0  0  0  0  0  0  0  0  0  0  0
  -36.7587   60.5453   66.8121 O   0  0  0  0  0  0  0  0  0  0  0  0
  -44.7870   55.9023   62.5388 C   0  0  0  0  0  0  0  0  0  0  0  0
  -44.9278   56.8609   61.3860 C   0  0  0  0  0  0  0  0  0  0  0  0
  -43.8263   56.7200   60.3640 C   0  0  0  0  0  0  0  0  0  0  0  0
  -42.4445   56.9536   60.9404 C   0  0  0  0  0  0  0  0  0  0  0  0
  -42.2808   58.3285   61.5474 C   0  0  0  0  0  0  0  0  0  0  0  0
  -40.9033   58.5954   62.1164 C   0  0  0  0  0  0  0  0  0  0  0  0
  -40.5185   57.6139   63.2105 C   0  0  0  0  0  0  0  0  0  0  0  0
  -39.1632   57.8617   63.8078 C   0  0  0  0  0  0  0  0  0  0  0  0
  -37.0720   58.9080   63.4380 C   0  0  0  0  0  0  0  0  0  0  0  0
  -37.3490   60.1700   64.2050 C   0  0  2  0  0  0  0  0  0  0  0  0
  -36.0840   60.8130   64.7130 C   0  0  0  0  0  0  0  0  0  0  0  0
  -34.6297   57.9778   67.5595 C   0  0  0  0  0  0  0  0  0  0  0  0
  -35.5368   58.6997   68.5255 C   0  0  2  0  0  0  0  0  0  0  0  0
  -34.7801   59.2972   69.6875 C   0  0  0  0  0  0  0  0  0  0  0  0
  -37.8399   60.0926   66.5518 C   0  0  0  0  0  0  0  0  0  0  0  0
  -38.8741   59.7460   67.5776 C   0  0  0  0  0  0  0  0  0  0  0  0
  -38.3798   60.0389   68.9906 C   0  0  0  0  0  0  0  0  0  0  0  0
  -39.3822   59.6908   70.0788 C   0  0  0  0  0  0  0  0  0  0  0  0
  -38.8870   60.0024   71.4864 C   0  0  0  0  0  0  0  0  0  0  0  0
  -39.8739   59.6428   72.5814 C   0  0  0  0  0  0  0  0  0  0  0  0
  -41.2270   60.3522   72.4771 C   0  0  0  0  0  0  0  0  0  0  0  0
  -42.2276   60.0128   73.5840 C   0  0  0  0  0  0  0  0  0  0  0  0
  -43.5319   60.7306   73.4059 C   0  0  0  0  0  0  0  0  0  0  0  0
  -43.7124   62.0363   73.3614 C   0  0  0  0  0  0  0  0  0  0  0  0
  -42.6461   63.0792   73.4783 C   0  0  0  0  0  0  0  0  0  0  0  0
  -42.5652   63.9704   72.2423 C   0  0  0  0  0  0  0  0  0  0  0  0
  -41.4796   65.0292   72.3244 C   0  0  0  0  0  0  0  0  0  0  0  0
  -41.4100   65.9273   71.1013 C   0  0  0  0  0  0  0  0  0  0  0  0
  -40.3184   66.9831   71.1568 C   0  0  0  0  0  0  0  0  0  0  0  0
  -40.2803   67.8799   69.9288 C   0  0  0  0  0  0  0  0  0  0  0  0
  -41.5525   68.6708   69.6964 C   0  0  0  0  0  0  0  0  0  0  0  0
  -41.4852   69.5321   68.4662 C   0  0  0  0  0  0  0  0  0  0  0  0
  -36.9697   50.4464   66.1272 H   0  0  0  0  0  0  0  0  0  0  0  0
  -38.0251   49.2259   65.4569 H   0  0  0  0  0  0  0  0  0  0  0  0
  -38.6828   50.4897   66.4685 H   0  0  0  0  0  0  0  0  0  0  0  0
  -37.4182   50.8838   63.7799 H   0  0  0  0  0  0  0  0  0  0  0  0
  -38.1052   52.1430   64.8150 H   0  0  0  0  0  0  0  0  0  0  0  0
  -39.6108   49.8769   63.5994 H   0  0  0  0  0  0  0  0  0  0  0  0
  -39.6004   51.5803   63.0607 H   0  0  0  0  0  0  0  0  0  0  0  0
  -40.6410   50.6015   65.6653 H   0  0  0  0  0  0  0  0  0  0  0  0
  -41.5973   51.0572   64.2376 H   0  0  0  0  0  0  0  0  0  0  0  0
  -39.8312   52.8851   65.7931 H   0  0  0  0  0  0  0  0  0  0  0  0
  -41.6053   52.7962   65.8700 H   0  0  0  0  0  0  0  0  0  0  0  0
  -34.5967   62.0987   66.9506 H   0  0  0  0  0  0  0  0  0  0  0  0
  -40.0132   53.5495   63.4726 H   0  0  0  0  0  0  0  0  0  0  0  0
  -40.8900   54.6496   64.5574 H   0  0  0  0  0  0  0  0  0  0  0  0
  -42.1221   52.5175   62.8862 H   0  0  0  0  0  0  0  0  0  0  0  0
  -42.1113   54.2670   62.5546 H   0  0  0  0  0  0  0  0  0  0  0  0
  -33.3208   60.5866   69.9871 H   0  0  0  0  0  0  0  0  0  0  0  0
  -43.4106   54.6754   64.5114 H   0  0  0  0  0  0  0  0  0  0  0  0
  -43.4096   52.9308   64.8625 H   0  0  0  0  0  0  0  0  0  0  0  0
  -37.0144   57.4144   68.2468 H   0  0  0  0  0  0  0  0  0  0  0  0
  -45.5087   53.6462   63.9326 H   0  0  0  0  0  0  0  0  0  0  0  0
  -44.6273   52.5099   62.8811 H   0  0  0  0  0  0  0  0  0  0  0  0
  -45.7105   54.2455   61.6058 H   0  0  0  0  0  0  0  0  0  0  0  0
  -43.9443   54.2950   61.4822 H   0  0  0  0  0  0  0  0  0  0  0  0
  -43.8635   56.1066   63.0390 H   0  0  0  0  0  0  0  0  0  0  0  0
  -45.6334   56.0488   63.1768 H   0  0  0  0  0  0  0  0  0  0  0  0
  -44.9115   57.8598   61.7693 H   0  0  0  0  0  0  0  0  0  0  0  0
  -45.8512   56.6367   60.8942 H   0  0  0  0  0  0  0  0  0  0  0  0
  -43.9938   57.4319   59.5830 H   0  0  0  0  0  0  0  0  0  0  0  0
  -43.8543   55.7133   60.0027 H   0  0  0  0  0  0  0  0  0  0  0  0
  -41.7247   56.8391   60.1570 H   0  0  0  0  0  0  0  0  0  0  0  0
  -42.3001   56.2392   61.7238 H   0  0  0  0  0  0  0  0  0  0  0  0
  -42.9960   58.4345   62.3362 H   0  0  0  0  0  0  0  0  0  0  0  0
  -42.4289   59.0337   60.7564 H   0  0  0  0  0  0  0  0  0  0  0  0
  -40.8871   59.5848   62.5234 H   0  0  0  0  0  0  0  0  0  0  0  0
  -40.1980   58.4826   61.3196 H   0  0  0  0  0  0  0  0  0  0  0  0
  -40.5275   56.6277   62.7956 H   0  0  0  0  0  0  0  0  0  0  0  0
  -41.2305   57.7370   63.9996 H   0  0  0  0  0  0  0  0  0  0  0  0
  -36.4020   59.0962   62.6252 H   0  0  0  0  0  0  0  0  0  0  0  0
  -36.6048   58.1555   64.0382 H   0  0  0  0  0  0  0  0  0  0  0  0
  -37.7985   60.8886   63.5519 H   0  0  0  0  0  0  0  0  0  0  0  0
  -35.4401   61.0403   63.8892 H   0  0  0  0  0  0  0  0  0  0  0  0
  -36.3193   61.7188   65.2317 H   0  0  0  0  0  0  0  0  0  0  0  0
  -34.1644   57.1491   68.0511 H   0  0  0  0  0  0  0  0  0  0  0  0
  -35.1948   57.6114   66.7281 H   0  0  0  0  0  0  0  0  0  0  0  0
  -35.9952   59.5126   68.0023 H   0  0  0  0  0  0  0  0  0  0  0  0
  -35.4670   59.8109   70.3271 H   0  0  0  0  0  0  0  0  0  0  0  0
  -34.2931   58.5090   70.2228 H   0  0  0  0  0  0  0  0  0  0  0  0
  -39.1062   58.7044   67.4994 H   0  0  0  0  0  0  0  0  0  0  0  0
  -39.7422   60.3443   67.3948 H   0  0  0  0  0  0  0  0  0  0  0  0
  -38.1568   61.0831   69.0598 H   0  0  0  0  0  0  0  0  0  0  0  0
  -37.5198   59.4233   69.1525 H   0  0  0  0  0  0  0  0  0  0  0  0
  -39.5963   58.6441   70.0194 H   0  0  0  0  0  0  0  0  0  0  0  0
  -40.2502   60.2936   69.9107 H   0  0  0  0  0  0  0  0  0  0  0  0
  -38.6843   61.0513   71.5473 H   0  0  0  0  0  0  0  0  0  0  0  0
  -38.0145   59.4043   71.6472 H   0  0  0  0  0  0  0  0  0  0  0  0
  -39.4350   59.8976   73.5234 H   0  0  0  0  0  0  0  0  0  0  0  0
  -40.0714   58.5960   72.4803 H   0  0  0  0  0  0  0  0  0  0  0  0
  -41.6684   60.0870   71.5392 H   0  0  0  0  0  0  0  0  0  0  0  0
  -41.0221   61.3980   72.5726 H   0  0  0  0  0  0  0  0  0  0  0  0
  -41.8064   60.2919   74.5272 H   0  0  0  0  0  0  0  0  0  0  0  0
  -42.4220   58.9615   73.5409 H   0  0  0  0  0  0  0  0  0  0  0  0
  -44.3745   60.1428   73.3083 H   0  0  0  0  0  0  0  0  0  0  0  0
  -44.6805   62.3701   73.2338 H   0  0  0  0  0  0  0  0  0  0  0  0
  -41.7028   62.5925   73.6133 H   0  0  0  0  0  0  0  0  0  0  0  0
  -42.8894   63.7019   74.3138 H   0  0  0  0  0  0  0  0  0  0  0  0
  -43.5076   64.4615   72.1175 H   0  0  0  0  0  0  0  0  0  0  0  0
  -42.3227   63.3368   71.4149 H   0  0  0  0  0  0  0  0  0  0  0  0
  -40.5359   64.5376   72.4368 H   0  0  0  0  0  0  0  0  0  0  0  0
  -41.7154   65.6552   73.1594 H   0  0  0  0  0  0  0  0  0  0  0  0
  -42.3515   66.4249   70.9980 H   0  0  0  0  0  0  0  0  0  0  0  0
  -41.1787   65.2935   70.2708 H   0  0  0  0  0  0  0  0  0  0  0  0
  -39.3733   66.4892   71.2452 H   0  0  0  0  0  0  0  0  0  0  0  0
  -40.5284   67.6097   71.9983 H   0  0  0  0  0  0  0  0  0  0  0  0
  -40.1056   67.2658   69.0702 H   0  0  0  0  0  0  0  0  0  0  0  0
  -39.5007   68.5939   70.0939 H   0  0  0  0  0  0  0  0  0  0  0  0
  -41.7244   69.2993   70.5451 H   0  0  0  0  0  0  0  0  0  0  0  0
  -42.3476   67.9687   69.5555 H   0  0  0  0  0  0  0  0  0  0  0  0
  -40.6973   70.2479   68.5747 H   0  0  0  0  0  0  0  0  0  0  0  0
  -42.4163   70.0433   68.3374 H   0  0  0  0  0  0  0  0  0  0  0  0
  -41.2941   68.9181   67.6110 H   0  0  0  0  0  0  0  0  0  0  0  0
  1  4  1  0  0  0  0
  1 54  1  0  0  0  0
  1 55  1  0  0  0  0
  1 56  1  0  0  0  0
  2 29  2  0  0  0  0
  3  7  1  0  0  0  0
  3  9  2  6  0  0  0
  3 11  1  0  0  0  0
  3 13  1  0  0  0  0
  4  6  1  0  0  0  0
  4 57  1  0  0  0  0
  4 58  1  0  0  0  0
  5 29  1  0  0  0  0
  5 30  1  0  0  0  0
  6  8  1  0  0  0  0
  6 59  1  0  0  0  0
  6 60  1  0  0  0  0
  7 32  1  0  0  0  0
  8 10  1  0  0  0  0
  8 61  1  0  0  0  0
  8 62  1  0  0  0  0
 10 12  1  0  0  0  0
 10 63  1  0  0  0  0
 10 64  1  0  0  0  0
 11 65  1  0  0  0  0
 12 14  1  0  0  0  0
 12 66  1  0  0  0  0
 12 67  1  0  0  0  0
 13 33  1  0  0  0  0
 14 16  1  0  0  0  0
 14 68  1  0  0  0  0
 14 69  1  0  0  0  0
 15 35  1  0  0  0  0
 15 70  1  0  0  0  0
 16 18  1  0  0  0  0
 16 71  1  0  0  0  0
 16 72  1  0  0  0  0
 17 34  1  0  0  0  0
 17 73  1  0  0  0  0
 18 20  1  0  0  0  0
 18 74  1  0  0  0  0
 18 75  1  0  0  0  0
 19 31  1  0  0  0  0
 19 36  1  0  0  0  0
 20 22  1  0  0  0  0
 20 76  1  0  0  0  0
 20 77  1  0  0  0  0
 21 36  2  0  0  0  0
 22 23  1  0  0  0  0
 22 78  1  0  0  0  0
 22 79  1  0  0  0  0
 23 24  1  0  0  0  0
 23 80  1  0  0  0  0
 23 81  1  0  0  0  0
 24 25  1  0  0  0  0
 24 82  1  0  0  0  0
 24 83  1  0  0  0  0
 25 26  1  0  0  0  0
 25 84  1  0  0  0  0
 25 85  1  0  0  0  0
 26 27  1  0  0  0  0
 26 86  1  0  0  0  0
 26 87  1  0  0  0  0
 27 28  1  0  0  0  0
 27 88  1  0  0  0  0
 27 89  1  0  0  0  0
 28 29  1  0  0  0  0
 28 90  1  0  0  0  0
 28 91  1  0  0  0  0
 30 31  1  0  0  0  0
 30 92  1  0  0  0  0
 30 93  1  0  0  0  0
 31 32  1  0  0  0  0
 31 94  1  6  0  0  0
 32 95  1  0  0  0  0
 32 96  1  0  0  0  0
 33 34  1  0  0  0  0
 33 97  1  0  0  0  0
 33 98  1  0  0  0  0
 34 35  1  0  0  0  0
 34 99  1  6  0  0  0
 35100  1  0  0  0  0
 35101  1  0  0  0  0
 36 37  1  0  0  0  0
 37 38  1  0  0  0  0
 37102  1  0  0  0  0
 37103  1  0  0  0  0
 38 39  1  0  0  0  0
 38104  1  0  0  0  0
 38105  1  0  0  0  0
 39 40  1  0  0  0  0
 39106  1  0  0  0  0
 39107  1  0  0  0  0
 40 41  1  0  0  0  0
 40108  1  0  0  0  0
 40109  1  0  0  0  0
 41 42  1  0  0  0  0
 41110  1  0  0  0  0
 41111  1  0  0  0  0
 42 43  1  0  0  0  0
 42112  1  0  0  0  0
 42113  1  0  0  0  0
 43 44  1  0  0  0  0
 43114  1  0  0  0  0
 43115  1  0  0  0  0
 44 45  2  0  0  0  0
 44116  1  0  0  0  0
 45 46  1  0  0  0  0
 45117  1  0  0  0  0
 46 47  1  0  0  0  0
 46118  1  0  0  0  0
 46119  1  0  0  0  0
 47 48  1  0  0  0  0
 47120  1  0  0  0  0
 47121  1  0  0  0  0
 48 49  1  0  0  0  0
 48122  1  0  0  0  0
 48123  1  0  0  0  0
 49 50  1  0  0  0  0
 49124  1  0  0  0  0
 49125  1  0  0  0  0
 50 51  1  0  0  0  0
 50126  1  0  0  0  0
 50127  1  0  0  0  0
 51 52  1  0  0  0  0
 51128  1  0  0  0  0
 51129  1  0  0  0  0
 52 53  1  0  0  0  0
 52130  1  0  0  0  0
 52131  1  0  0  0  0
 53132  1  0  0  0  0
 53133  1  0  0  0  0
 53134  1  0  0  0  0
M  CHG  1   9  -1
M  END
$$$$
/media/chris/experiments/cd1a-new-docking/inputs/ligands/7sh4_ligand.pdb
 OpenBabel07012320073D

134133  0  0  1  0  0  0  0  0999 V2000
  -29.9081   61.2452   56.2176 C   0  0  0  0  0  0  0  0  0  0  0  0
  -34.5047   59.7410   63.8599 O   0  0  0  0  0  0  0  0  0  0  0  0
  -37.2082   63.2406   64.7182 P   0  0  1  0  0  0  0  0  0  0  0  0
  -28.5517   60.7484   56.6638 C   0  0  0  0  0  0  0  0  0  0  0  0
  -36.1511   59.3213   62.4064 O   0  0  0  0  0  0  0  0  0  0  0  0
  -28.6505   59.6926   57.7485 C   0  0  0  0  0  0  0  0  0  0  0  0
  -36.4293   62.0282   65.4148 O   0  0  0  0  0  0  0  0  0  0  0  0
  -29.3563   60.1459   59.0140 C   0  0  0  0  0  0  0  0  0  0  0  0
  -36.2031   64.1613   64.1447 O   0  5  0  0  0  0  0  0  0  0  0  0
  -28.6929   61.3390   59.6876 C   0  0  0  0  0  0  0  0  0  0  0  0
  -38.2443   62.6705   63.8238 O   0  0  0  0  0  0  0  0  0  0  0  0
  -27.2552   61.0858   60.0926 C   0  0  0  0  0  0  0  0  0  0  0  0
  -37.9514   64.0029   65.9053 O   0  0  0  0  0  0  0  0  0  0  0  0
  -27.0965   59.9288   61.0602 C   0  0  0  0  0  0  0  0  0  0  0  0
  -37.1983   65.7793   63.0728 O   0  0  0  0  0  0  0  0  0  0  0  0
  -27.8620   60.1046   62.3667 C   0  0  0  0  0  0  0  0  0  0  0  0
  -39.2886   67.0909   64.4922 O   0  0  0  0  0  0  0  0  0  0  0  0
  -27.6878   58.9553   63.3374 C   0  0  0  0  0  0  0  0  0  0  0  0
  -38.2720   59.8520   65.2990 O   0  0  0  0  0  0  0  0  0  0  0  0
  -28.1348   57.6135   62.7936 C   0  0  0  0  0  0  0  0  0  0  0  0
  -36.8792   59.1049   66.8997 O   0  0  0  0  0  0  0  0  0  0  0  0
  -29.5946   57.6005   62.3975 C   0  0  0  0  0  0  0  0  0  0  0  0
  -30.0591   56.2685   61.8706 C   0  0  0  0  0  0  0  0  0  0  0  0
  -31.5120   56.2700   61.4622 C   0  0  0  0  0  0  0  0  0  0  0  0
  -31.8199   57.2603   60.3574 C   0  0  0  0  0  0  0  0  0  0  0  0
  -33.2793   57.2715   59.9623 C   0  0  0  0  0  0  0  0  0  0  0  0
  -34.2227   57.6501   61.0844 C   0  0  0  0  0  0  0  0  0  0  0  0
  -33.9609   59.0445   61.6279 C   0  0  0  0  0  0  0  0  0  0  0  0
  -34.8698   59.4444   62.7543 C   0  0  0  0  0  0  0  0  0  0  0  0
  -37.0720   58.9080   63.4380 C   0  0  0  0  0  0  0  0  0  0  0  0
  -37.3490   60.1700   64.2050 C   0  0  2  0  0  0  0  0  0  0  0  0
  -36.0840   60.8130   64.7130 C   0  0  0  0  0  0  0  0  0  0  0  0
  -38.1883   65.4226   65.8146 C   0  0  0  0  0  0  0  0  0  0  0  0
  -39.0562   65.6840   64.6082 C   0  0  2  0  0  0  0  0  0  0  0  0
  -38.4461   65.1499   63.3345 C   0  0  0  0  0  0  0  0  0  0  0  0
  -37.8515   58.9548   66.2113 C   0  0  0  0  0  0  0  0  0  0  0  0
  -38.7502   57.7589   66.2770 C   0  0  0  0  0  0  0  0  0  0  0  0
  -40.1872   58.1192   65.9138 C   0  0  0  0  0  0  0  0  0  0  0  0
  -40.3473   58.6716   64.5069 C   0  0  0  0  0  0  0  0  0  0  0  0
  -39.9150   57.6978   63.4166 C   0  0  0  0  0  0  0  0  0  0  0  0
  -40.7011   56.4000   63.4015 C   0  0  0  0  0  0  0  0  0  0  0  0
  -42.2043   56.5687   63.1633 C   0  0  0  0  0  0  0  0  0  0  0  0
  -43.0136   55.2701   63.1621 C   0  0  0  0  0  0  0  0  0  0  0  0
  -42.9212   54.5456   64.4715 C   0  0  0  0  0  0  0  0  0  0  0  0
  -43.3027   54.9979   65.6502 C   0  0  0  0  0  0  0  0  0  0  0  0
  -43.9126   56.3357   65.9271 C   0  0  0  0  0  0  0  0  0  0  0  0
  -45.4356   56.3116   65.8356 C   0  0  0  0  0  0  0  0  0  0  0  0
  -46.0832   57.6604   66.0954 C   0  0  0  0  0  0  0  0  0  0  0  0
  -45.7679   58.2344   67.4660 C   0  0  0  0  0  0  0  0  0  0  0  0
  -46.4208   59.5767   67.7518 C   0  0  0  0  0  0  0  0  0  0  0  0
  -46.0762   60.1379   69.1229 C   0  0  0  0  0  0  0  0  0  0  0  0
  -46.4770   59.2440   70.2796 C   0  0  0  0  0  0  0  0  0  0  0  0
  -46.1367   59.8375   71.6182 C   0  0  0  0  0  0  0  0  0  0  0  0
  -29.7837   61.9852   55.4548 H   0  0  0  0  0  0  0  0  0  0  0  0
  -30.4224   61.6754   57.0514 H   0  0  0  0  0  0  0  0  0  0  0  0
  -30.4782   60.4265   55.8307 H   0  0  0  0  0  0  0  0  0  0  0  0
  -27.9894   61.5769   57.0410 H   0  0  0  0  0  0  0  0  0  0  0  0
  -28.0730   60.3024   55.8171 H   0  0  0  0  0  0  0  0  0  0  0  0
  -27.6581   59.3903   58.0106 H   0  0  0  0  0  0  0  0  0  0  0  0
  -29.2400   58.8971   57.3426 H   0  0  0  0  0  0  0  0  0  0  0  0
  -29.3675   59.3298   59.7059 H   0  0  0  0  0  0  0  0  0  0  0  0
  -30.3415   60.4530   58.7311 H   0  0  0  0  0  0  0  0  0  0  0  0
  -29.2529   61.5863   60.5652 H   0  0  0  0  0  0  0  0  0  0  0  0
  -28.6817   62.1358   58.9736 H   0  0  0  0  0  0  0  0  0  0  0  0
  -37.8160   62.2003   63.0914 H   0  0  0  0  0  0  0  0  0  0  0  0
  -26.8727   61.9709   60.5566 H   0  0  0  0  0  0  0  0  0  0  0  0
  -26.7171   60.8301   59.2037 H   0  0  0  0  0  0  0  0  0  0  0  0
  -26.0570   59.8230   61.2907 H   0  0  0  0  0  0  0  0  0  0  0  0
  -27.5013   59.0637   60.5778 H   0  0  0  0  0  0  0  0  0  0  0  0
  -36.8226   65.4237   62.2522 H   0  0  0  0  0  0  0  0  0  0  0  0
  -28.9030   60.1977   62.1377 H   0  0  0  0  0  0  0  0  0  0  0  0
  -27.4675   60.9774   62.8437 H   0  0  0  0  0  0  0  0  0  0  0  0
  -39.6802   67.4228   65.3152 H   0  0  0  0  0  0  0  0  0  0  0  0
  -28.2588   59.1687   64.2168 H   0  0  0  0  0  0  0  0  0  0  0  0
  -26.6393   58.8745   63.5351 H   0  0  0  0  0  0  0  0  0  0  0  0
  -27.9780   56.8696   63.5466 H   0  0  0  0  0  0  0  0  0  0  0  0
  -27.5596   57.4137   61.9137 H   0  0  0  0  0  0  0  0  0  0  0  0
  -29.7463   58.3378   61.6370 H   0  0  0  0  0  0  0  0  0  0  0  0
  -30.1634   57.8070   63.2799 H   0  0  0  0  0  0  0  0  0  0  0  0
  -29.9205   55.5324   62.6347 H   0  0  0  0  0  0  0  0  0  0  0  0
  -29.4813   56.0509   60.9967 H   0  0  0  0  0  0  0  0  0  0  0  0
  -32.1053   56.5188   62.3171 H   0  0  0  0  0  0  0  0  0  0  0  0
  -31.7380   55.2939   61.0867 H   0  0  0  0  0  0  0  0  0  0  0  0
  -31.2362   57.0043   59.4979 H   0  0  0  0  0  0  0  0  0  0  0  0
  -31.5815   58.2357   60.7270 H   0  0  0  0  0  0  0  0  0  0  0  0
  -33.5416   56.2926   59.6191 H   0  0  0  0  0  0  0  0  0  0  0  0
  -33.3870   58.0190   59.2043 H   0  0  0  0  0  0  0  0  0  0  0  0
  -34.1068   56.9453   61.8811 H   0  0  0  0  0  0  0  0  0  0  0  0
  -35.2163   57.6401   60.6874 H   0  0  0  0  0  0  0  0  0  0  0  0
  -34.0871   59.7455   60.8293 H   0  0  0  0  0  0  0  0  0  0  0  0
  -32.9658   59.0406   62.0210 H   0  0  0  0  0  0  0  0  0  0  0  0
  -36.6274   58.1683   64.0706 H   0  0  0  0  0  0  0  0  0  0  0  0
  -37.9610   58.4631   63.0423 H   0  0  0  0  0  0  0  0  0  0  0  0
  -37.7985   60.8886   63.5519 H   0  0  0  0  0  0  0  0  0  0  0  0
  -35.5824   60.1428   65.3795 H   0  0  0  0  0  0  0  0  0  0  0  0
  -35.4356   61.0386   63.8923 H   0  0  0  0  0  0  0  0  0  0  0  0
  -37.2568   65.9384   65.7083 H   0  0  0  0  0  0  0  0  0  0  0  0
  -38.6756   65.7717   66.7009 H   0  0  0  0  0  0  0  0  0  0  0  0
  -39.9820   65.1666   64.7500 H   0  0  0  0  0  0  0  0  0  0  0  0
  -38.2937   64.0954   63.4332 H   0  0  0  0  0  0  0  0  0  0  0  0
  -39.1117   65.3543   62.5220 H   0  0  0  0  0  0  0  0  0  0  0  0
  -38.7314   57.3640   67.2712 H   0  0  0  0  0  0  0  0  0  0  0  0
  -38.3973   57.0347   65.5728 H   0  0  0  0  0  0  0  0  0  0  0  0
  -40.5350   58.8566   66.6067 H   0  0  0  0  0  0  0  0  0  0  0  0
  -40.7550   57.2133   65.9580 H   0  0  0  0  0  0  0  0  0  0  0  0
  -39.7553   59.5588   64.4223 H   0  0  0  0  0  0  0  0  0  0  0  0
  -41.3900   58.8630   64.3615 H   0  0  0  0  0  0  0  0  0  0  0  0
  -38.8816   57.4636   63.5651 H   0  0  0  0  0  0  0  0  0  0  0  0
  -40.0974   58.1812   62.4796 H   0  0  0  0  0  0  0  0  0  0  0  0
  -40.5650   55.9162   64.3462 H   0  0  0  0  0  0  0  0  0  0  0  0
  -40.3258   55.8273   62.5793 H   0  0  0  0  0  0  0  0  0  0  0  0
  -42.3377   57.0428   62.2134 H   0  0  0  0  0  0  0  0  0  0  0  0
  -42.5721   57.1470   63.9850 H   0  0  0  0  0  0  0  0  0  0  0  0
  -42.6410   54.6322   62.3880 H   0  0  0  0  0  0  0  0  0  0  0  0
  -44.0403   55.5223   62.9973 H   0  0  0  0  0  0  0  0  0  0  0  0
  -42.5177   53.5961   64.4481 H   0  0  0  0  0  0  0  0  0  0  0  0
  -43.1679   54.3696   66.4577 H   0  0  0  0  0  0  0  0  0  0  0  0
  -43.5366   57.0389   65.2137 H   0  0  0  0  0  0  0  0  0  0  0  0
  -43.6504   56.6127   66.9269 H   0  0  0  0  0  0  0  0  0  0  0  0
  -45.8065   55.6140   66.5572 H   0  0  0  0  0  0  0  0  0  0  0  0
  -45.6846   56.0326   64.8331 H   0  0  0  0  0  0  0  0  0  0  0  0
  -47.1439   57.5476   66.0121 H   0  0  0  0  0  0  0  0  0  0  0  0
  -45.6874   58.3422   65.3719 H   0  0  0  0  0  0  0  0  0  0  0  0
  -44.7075   58.3555   67.5418 H   0  0  0  0  0  0  0  0  0  0  0  0
  -46.1624   57.5451   68.1829 H   0  0  0  0  0  0  0  0  0  0  0  0
  -47.4823   59.4569   67.6916 H   0  0  0  0  0  0  0  0  0  0  0  0
  -46.0493   60.2689   67.0254 H   0  0  0  0  0  0  0  0  0  0  0  0
  -46.5760   61.0772   69.2361 H   0  0  0  0  0  0  0  0  0  0  0  0
  -45.0106   60.2279   69.1591 H   0  0  0  0  0  0  0  0  0  0  0  0
  -45.9678   58.3081   70.1810 H   0  0  0  0  0  0  0  0  0  0  0  0
  -47.5394   59.1232   70.2410 H   0  0  0  0  0  0  0  0  0  0  0  0
  -45.0776   59.9717   71.6900 H   0  0  0  0  0  0  0  0  0  0  0  0
  -46.4662   59.1789   72.3945 H   0  0  0  0  0  0  0  0  0  0  0  0
  -46.6242   60.7842   71.7229 H   0  0  0  0  0  0  0  0  0  0  0  0
  1  4  1  0  0  0  0
  1 54  1  0  0  0  0
  1 55  1  0  0  0  0
  1 56  1  0  0  0  0
  2 29  2  0  0  0  0
  3  7  1  0  0  0  0
  3  9  2  6  0  0  0
  3 11  1  0  0  0  0
  3 13  1  0  0  0  0
  4  6  1  0  0  0  0
  4 57  1  0  0  0  0
  4 58  1  0  0  0  0
  5 29  1  0  0  0  0
  5 30  1  0  0  0  0
  6  8  1  0  0  0  0
  6 59  1  0  0  0  0
  6 60  1  0  0  0  0
  7 32  1  0  0  0  0
  8 10  1  0  0  0  0
  8 61  1  0  0  0  0
  8 62  1  0  0  0  0
 10 12  1  0  0  0  0
 10 63  1  0  0  0  0
 10 64  1  0  0  0  0
 11 65  1  0  0  0  0
 12 14  1  0  0  0  0
 12 66  1  0  0  0  0
 12 67  1  0  0  0  0
 13 33  1  0  0  0  0
 14 16  1  0  0  0  0
 14 68  1  0  0  0  0
 14 69  1  0  0  0  0
 15 35  1  0  0  0  0
 15 70  1  0  0  0  0
 16 18  1  0  0  0  0
 16 71  1  0  0  0  0
 16 72  1  0  0  0  0
 17 34  1  0  0  0  0
 17 73  1  0  0  0  0
 18 20  1  0  0  0  0
 18 74  1  0  0  0  0
 18 75  1  0  0  0  0
 19 31  1  0  0  0  0
 19 36  1  0  0  0  0
 20 22  1  0  0  0  0
 20 76  1  0  0  0  0
 20 77  1  0  0  0  0
 21 36  2  0  0  0  0
 22 23  1  0  0  0  0
 22 78  1  0  0  0  0
 22 79  1  0  0  0  0
 23 24  1  0  0  0  0
 23 80  1  0  0  0  0
 23 81  1  0  0  0  0
 24 25  1  0  0  0  0
 24 82  1  0  0  0  0
 24 83  1  0  0  0  0
 25 26  1  0  0  0  0
 25 84  1  0  0  0  0
 25 85  1  0  0  0  0
 26 27  1  0  0  0  0
 26 86  1  0  0  0  0
 26 87  1  0  0  0  0
 27 28  1  0  0  0  0
 27 88  1  0  0  0  0
 27 89  1  0  0  0  0
 28 29  1  0  0  0  0
 28 90  1  0  0  0  0
 28 91  1  0  0  0  0
 30 31  1  0  0  0  0
 30 92  1  0  0  0  0
 30 93  1  0  0  0  0
 31 32  1  0  0  0  0
 31 94  1  6  0  0  0
 32 95  1  0  0  0  0
 32 96  1  0  0  0  0
 33 34  1  0  0  0  0
 33 97  1  0  0  0  0
 33 98  1  0  0  0  0
 34 35  1  0  0  0  0
 34 99  1  1  0  0  0
 35100  1  0  0  0  0
 35101  1  0  0  0  0
 36 37  1  0  0  0  0
 37 38  1  0  0  0  0
 37102  1  0  0  0  0
 37103  1  0  0  0  0
 38 39  1  0  0  0  0
 38104  1  0  0  0  0
 38105  1  0  0  0  0
 39 40  1  0  0  0  0
 39106  1  0  0  0  0
 39107  1  0  0  0  0
 40 41  1  0  0  0  0
 40108  1  0  0  0  0
 40109  1  0  0  0  0
 41 42  1  0  0  0  0
 41110  1  0  0  0  0
 41111  1  0  0  0  0
 42 43  1  0  0  0  0
 42112  1  0  0  0  0
 42113  1  0  0  0  0
 43 44  1  0  0  0  0
 43114  1  0  0  0  0
 43115  1  0  0  0  0
 44 45  2  0  0  0  0
 44116  1  0  0  0  0
 45 46  1  0  0  0  0
 45117  1  0  0  0  0
 46 47  1  0  0  0  0
 46118  1  0  0  0  0
 46119  1  0  0  0  0
 47 48  1  0  0  0  0
 47120  1  0  0  0  0
 47121  1  0  0  0  0
 48 49  1  0  0  0  0
 48122  1  0  0  0  0
 48123  1  0  0  0  0
 49 50  1  0  0  0  0
 49124  1  0  0  0  0
 49125  1  0  0  0  0
 50 51  1  0  0  0  0
 50126  1  0  0  0  0
 50127  1  0  0  0  0
 51 52  1  0  0  0  0
 51128  1  0  0  0  0
 51129  1  0  0  0  0
 52 53  1  0  0  0  0
 52130  1  0  0  0  0
 52131  1  0  0  0  0
 53132  1  0  0  0  0
 53133  1  0  0  0  0
 53134  1  0  0  0  0
M  CHG  1   9  -1
M  END
$$$$
/media/chris/experiments/cd1a-new-docking/inputs/ligands/7sh4_ligand.pdb
 OpenBabel07012320073D

134133  0  0  1  0  0  0  0  0999 V2000
  -39.3506   64.1627   61.2623 C   0  0  0  0  0  0  0  0  0  0  0  0
  -34.4062   58.3144   63.3762 O   0  0  0  0  0  0  0  0  0  0  0  0
  -37.3680   62.0442   66.7111 P   0  0  1  0  0  0  0  0  0  0  0  0
  -38.3878   65.1367   60.6218 C   0  0  0  0  0  0  0  0  0  0  0  0
  -36.1511   59.3213   62.4064 O   0  0  0  0  0  0  0  0  0  0  0  0
  -37.9943   64.7216   59.2169 C   0  0  0  0  0  0  0  0  0  0  0  0
  -36.4293   62.0282   65.4148 O   0  0  0  0  0  0  0  0  0  0  0  0
  -37.0141   65.6554   58.5296 C   0  0  0  0  0  0  0  0  0  0  0  0
  -38.7670   62.2101   66.2615 O   0  5  0  0  0  0  0  0  0  0  0  0
  -36.6503   65.2237   57.1158 C   0  0  0  0  0  0  0  0  0  0  0  0
  -37.0227   60.8682   67.5456 O   0  0  0  0  0  0  0  0  0  0  0  0
  -36.0195   63.8482   57.0442 C   0  0  0  0  0  0  0  0  0  0  0  0
  -36.9525   63.3558   67.5173 O   0  0  0  0  0  0  0  0  0  0  0  0
  -34.7406   63.7290   57.8507 C   0  0  0  0  0  0  0  0  0  0  0  0
  -40.1167   62.1203   67.9725 O   0  0  0  0  0  0  0  0  0  0  0  0
  -33.6463   64.7008   57.4238 C   0  0  0  0  0  0  0  0  0  0  0  0
  -39.4110   63.7696   70.1829 O   0  0  0  0  0  0  0  0  0  0  0  0
  -32.3650   64.5676   58.2198 C   0  0  0  0  0  0  0  0  0  0  0  0
  -38.2720   59.8520   65.2990 O   0  0  0  0  0  0  0  0  0  0  0  0
  -31.7104   63.2050   58.1145 C   0  0  0  0  0  0  0  0  0  0  0  0
  -40.0171   59.9196   63.8811 O   0  0  0  0  0  0  0  0  0  0  0  0
  -32.6099   62.0863   58.5914 C   0  0  0  0  0  0  0  0  0  0  0  0
  -31.9677   60.7267   58.5091 C   0  0  0  0  0  0  0  0  0  0  0  0
  -32.8784   59.6154   58.9709 C   0  0  0  0  0  0  0  0  0  0  0  0
  -32.2303   58.2473   58.9057 C   0  0  0  0  0  0  0  0  0  0  0  0
  -33.1507   57.1343   59.3529 C   0  0  0  0  0  0  0  0  0  0  0  0
  -33.6532   57.2784   60.7740 C   0  0  0  0  0  0  0  0  0  0  0  0
  -34.4561   58.5504   60.9878 C   0  0  0  0  0  0  0  0  0  0  0  0
  -34.9553   58.7317   62.3924 C   0  0  0  0  0  0  0  0  0  0  0  0
  -37.0720   58.9080   63.4380 C   0  0  0  0  0  0  0  0  0  0  0  0
  -37.3490   60.1700   64.2050 C   0  0  2  0  0  0  0  0  0  0  0  0
  -36.0840   60.8130   64.7130 C   0  0  0  0  0  0  0  0  0  0  0  0
  -37.9297   64.0491   68.3201 C   0  0  0  0  0  0  0  0  0  0  0  0
  -38.4272   63.1036   69.3856 C   0  0  2  0  0  0  0  0  0  0  0  0
  -39.0003   61.8332   68.8048 C   0  0  0  0  0  0  0  0  0  0  0  0
  -39.5790   59.7587   64.9875 C   0  0  0  0  0  0  0  0  0  0  0  0
  -40.4161   59.4128   66.1798 C   0  0  0  0  0  0  0  0  0  0  0  0
  -39.6338   58.5779   67.1886 C   0  0  0  0  0  0  0  0  0  0  0  0
  -40.4381   58.1807   68.4155 C   0  0  0  0  0  0  0  0  0  0  0  0
  -41.6634   57.3331   68.0933 C   0  0  0  0  0  0  0  0  0  0  0  0
  -41.3406   56.0153   67.4139 C   0  0  0  0  0  0  0  0  0  0  0  0
  -40.4543   55.0754   68.2361 C   0  0  0  0  0  0  0  0  0  0  0  0
  -41.0403   54.6366   69.5798 C   0  0  0  0  0  0  0  0  0  0  0  0
  -42.3292   53.8882   69.4166 C   0  0  0  0  0  0  0  0  0  0  0  0
  -42.4701   52.5847   69.2741 C   0  0  0  0  0  0  0  0  0  0  0  0
  -41.3663   51.5752   69.2473 C   0  0  0  0  0  0  0  0  0  0  0  0
  -41.0387   51.0333   70.6356 C   0  0  0  0  0  0  0  0  0  0  0  0
  -40.6094   52.1049   71.6224 C   0  0  0  0  0  0  0  0  0  0  0  0
  -41.6681   53.1655   71.8699 C   0  0  0  0  0  0  0  0  0  0  0  0
  -41.2512   54.2566   72.8421 C   0  0  0  0  0  0  0  0  0  0  0  0
  -42.3341   55.2966   73.0860 C   0  0  0  0  0  0  0  0  0  0  0  0
  -42.7886   56.0260   71.8374 C   0  0  0  0  0  0  0  0  0  0  0  0
  -43.8460   57.0567   72.1185 C   0  0  0  0  0  0  0  0  0  0  0  0
  -39.5958   64.4996   62.2479 H   0  0  0  0  0  0  0  0  0  0  0  0
  -38.8952   63.1961   61.3188 H   0  0  0  0  0  0  0  0  0  0  0  0
  -40.2421   64.1031   60.6736 H   0  0  0  0  0  0  0  0  0  0  0  0
  -37.5048   65.1929   61.2236 H   0  0  0  0  0  0  0  0  0  0  0  0
  -38.8787   66.0852   60.5563 H   0  0  0  0  0  0  0  0  0  0  0  0
  -38.8826   64.6748   58.6222 H   0  0  0  0  0  0  0  0  0  0  0  0
  -37.4983   63.7780   59.3087 H   0  0  0  0  0  0  0  0  0  0  0  0
  -36.1178   65.6939   59.1127 H   0  0  0  0  0  0  0  0  0  0  0  0
  -37.4911   66.6102   58.4532 H   0  0  0  0  0  0  0  0  0  0  0  0
  -35.9591   65.9341   56.7127 H   0  0  0  0  0  0  0  0  0  0  0  0
  -37.5618   65.1800   56.5571 H   0  0  0  0  0  0  0  0  0  0  0  0
  -37.2665   60.0554   67.0756 H   0  0  0  0  0  0  0  0  0  0  0  0
  -35.7966   63.6302   56.0207 H   0  0  0  0  0  0  0  0  0  0  0  0
  -36.7215   63.1568   57.4616 H   0  0  0  0  0  0  0  0  0  0  0  0
  -34.3664   62.7323   57.7429 H   0  0  0  0  0  0  0  0  0  0  0  0
  -34.9895   63.9680   58.8635 H   0  0  0  0  0  0  0  0  0  0  0  0
  -40.4704   61.2933   67.6093 H   0  0  0  0  0  0  0  0  0  0  0  0
  -34.0155   65.6979   57.5434 H   0  0  0  0  0  0  0  0  0  0  0  0
  -33.4061   64.4718   56.4066 H   0  0  0  0  0  0  0  0  0  0  0  0
  -39.0323   64.5835   70.5505 H   0  0  0  0  0  0  0  0  0  0  0  0
  -32.5880   64.7546   59.2495 H   0  0  0  0  0  0  0  0  0  0  0  0
  -31.6733   65.2747   57.8119 H   0  0  0  0  0  0  0  0  0  0  0  0
  -30.8208   63.2059   58.7091 H   0  0  0  0  0  0  0  0  0  0  0  0
  -31.4959   63.0287   57.0812 H   0  0  0  0  0  0  0  0  0  0  0  0
  -33.4937   62.0811   57.9883 H   0  0  0  0  0  0  0  0  0  0  0  0
  -32.8255   62.2720   59.6229 H   0  0  0  0  0  0  0  0  0  0  0  0
  -31.0909   60.7261   59.1223 H   0  0  0  0  0  0  0  0  0  0  0  0
  -31.7360   60.5440   57.4806 H   0  0  0  0  0  0  0  0  0  0  0  0
  -33.7495   59.6091   58.3496 H   0  0  0  0  0  0  0  0  0  0  0  0
  -33.1177   59.8056   59.9963 H   0  0  0  0  0  0  0  0  0  0  0  0
  -31.3662   58.2492   59.5368 H   0  0  0  0  0  0  0  0  0  0  0  0
  -31.9781   58.0616   57.8826 H   0  0  0  0  0  0  0  0  0  0  0  0
  -32.6195   56.2086   59.2770 H   0  0  0  0  0  0  0  0  0  0  0  0
  -34.0105   57.1720   58.7172 H   0  0  0  0  0  0  0  0  0  0  0  0
  -32.8117   57.2900   61.4347 H   0  0  0  0  0  0  0  0  0  0  0  0
  -34.3017   56.4507   60.9720 H   0  0  0  0  0  0  0  0  0  0  0  0
  -35.3007   58.5290   60.3312 H   0  0  0  0  0  0  0  0  0  0  0  0
  -33.7968   59.3688   60.7868 H   0  0  0  0  0  0  0  0  0  0  0  0
  -36.6274   58.1683   64.0706 H   0  0  0  0  0  0  0  0  0  0  0  0
  -37.9610   58.4631   63.0423 H   0  0  0  0  0  0  0  0  0  0  0  0
  -37.7985   60.8886   63.5519 H   0  0  0  0  0  0  0  0  0  0  0  0
  -35.5824   60.1428   65.3795 H   0  0  0  0  0  0  0  0  0  0  0  0
  -35.4356   61.0386   63.8923 H   0  0  0  0  0  0  0  0  0  0  0  0
  -38.7469   64.3622   67.7044 H   0  0  0  0  0  0  0  0  0  0  0  0
  -37.4886   64.9131   68.7717 H   0  0  0  0  0  0  0  0  0  0  0  0
  -37.5915   62.8195   69.9904 H   0  0  0  0  0  0  0  0  0  0  0  0
  -38.2474   61.3411   68.2252 H   0  0  0  0  0  0  0  0  0  0  0  0
  -39.3223   61.2026   69.6071 H   0  0  0  0  0  0  0  0  0  0  0  0
  -41.2701   58.8558   65.8553 H   0  0  0  0  0  0  0  0  0  0  0  0
  -40.7139   60.3232   66.6565 H   0  0  0  0  0  0  0  0  0  0  0  0
  -38.7863   59.1460   67.5109 H   0  0  0  0  0  0  0  0  0  0  0  0
  -39.3564   57.6713   66.6925 H   0  0  0  0  0  0  0  0  0  0  0  0
  -40.7638   59.0721   68.9097 H   0  0  0  0  0  0  0  0  0  0  0  0
  -39.7974   57.5850   69.0317 H   0  0  0  0  0  0  0  0  0  0  0  0
  -42.3024   57.8974   67.4466 H   0  0  0  0  0  0  0  0  0  0  0  0
  -42.1291   57.0944   69.0266 H   0  0  0  0  0  0  0  0  0  0  0  0
  -40.8379   56.2283   66.4937 H   0  0  0  0  0  0  0  0  0  0  0  0
  -42.2730   55.5090   67.2749 H   0  0  0  0  0  0  0  0  0  0  0  0
  -39.5281   55.5762   68.4266 H   0  0  0  0  0  0  0  0  0  0  0  0
  -40.3464   54.1841   67.6540 H   0  0  0  0  0  0  0  0  0  0  0  0
  -41.2194   55.5054   70.1781 H   0  0  0  0  0  0  0  0  0  0  0  0
  -40.3360   53.9809   70.0476 H   0  0  0  0  0  0  0  0  0  0  0  0
  -43.1945   54.4506   69.4156 H   0  0  0  0  0  0  0  0  0  0  0  0
  -43.4328   52.2272   69.1715 H   0  0  0  0  0  0  0  0  0  0  0  0
  -40.4893   52.0358   68.8426 H   0  0  0  0  0  0  0  0  0  0  0  0
  -41.6912   50.7528   68.6447 H   0  0  0  0  0  0  0  0  0  0  0  0
  -40.2448   50.3222   70.5422 H   0  0  0  0  0  0  0  0  0  0  0  0
  -41.9358   50.5948   71.0202 H   0  0  0  0  0  0  0  0  0  0  0  0
  -39.7330   52.5850   71.2398 H   0  0  0  0  0  0  0  0  0  0  0  0
  -40.4314   51.6161   72.5574 H   0  0  0  0  0  0  0  0  0  0  0  0
  -42.5391   52.6834   72.2620 H   0  0  0  0  0  0  0  0  0  0  0  0
  -41.8436   53.6459   70.9300 H   0  0  0  0  0  0  0  0  0  0  0  0
  -40.3889   54.7515   72.4465 H   0  0  0  0  0  0  0  0  0  0  0  0
  -41.0517   53.7831   73.7807 H   0  0  0  0  0  0  0  0  0  0  0  0
  -41.9550   56.0197   73.7776 H   0  0  0  0  0  0  0  0  0  0  0  0
  -43.1865   54.7701   73.4617 H   0  0  0  0  0  0  0  0  0  0  0  0
  -43.1839   55.3098   71.1477 H   0  0  0  0  0  0  0  0  0  0  0  0
  -41.9390   56.5369   71.4349 H   0  0  0  0  0  0  0  0  0  0  0  0
  -44.7127   56.5774   72.5236 H   0  0  0  0  0  0  0  0  0  0  0  0
  -44.1072   57.5569   71.2094 H   0  0  0  0  0  0  0  0  0  0  0  0
  -43.4709   57.7696   72.8228 H   0  0  0  0  0  0  0  0  0  0  0  0
  1  4  1  0  0  0  0
  1 54  1  0  0  0  0
  1 55  1  0  0  0  0
  1 56  1  0  0  0  0
  2 29  2  0  0  0  0
  3  7  1  0  0  0  0
  3  9  2  6  0  0  0
  3 11  1  0  0  0  0
  3 13  1  0  0  0  0
  4  6  1  0  0  0  0
  4 57  1  0  0  0  0
  4 58  1  0  0  0  0
  5 29  1  0  0  0  0
  5 30  1  0  0  0  0
  6  8  1  0  0  0  0
  6 59  1  0  0  0  0
  6 60  1  0  0  0  0
  7 32  1  0  0  0  0
  8 10  1  0  0  0  0
  8 61  1  0  0  0  0
  8 62  1  0  0  0  0
 10 12  1  0  0  0  0
 10 63  1  0  0  0  0
 10 64  1  0  0  0  0
 11 65  1  0  0  0  0
 12 14  1  0  0  0  0
 12 66  1  0  0  0  0
 12 67  1  0  0  0  0
 13 33  1  0  0  0  0
 14 16  1  0  0  0  0
 14 68  1  0  0  0  0
 14 69  1  0  0  0  0
 15 35  1  0  0  0  0
 15 70  1  0  0  0  0
 16 18  1  0  0  0  0
 16 71  1  0  0  0  0
 16 72  1  0  0  0  0
 17 34  1  0  0  0  0
 17 73  1  0  0  0  0
 18 20  1  0  0  0  0
 18 74  1  0  0  0  0
 18 75  1  0  0  0  0
 19 31  1  0  0  0  0
 19 36  1  0  0  0  0
 20 22  1  0  0  0  0
 20 76  1  0  0  0  0
 20 77  1  0  0  0  0
 21 36  2  0  0  0  0
 22 23  1  0  0  0  0
 22 78  1  0  0  0  0
 22 79  1  0  0  0  0
 23 24  1  0  0  0  0
 23 80  1  0  0  0  0
 23 81  1  0  0  0  0
 24 25  1  0  0  0  0
 24 82  1  0  0  0  0
 24 83  1  0  0  0  0
 25 26  1  0  0  0  0
 25 84  1  0  0  0  0
 25 85  1  0  0  0  0
 26 27  1  0  0  0  0
 26 86  1  0  0  0  0
 26 87  1  0  0  0  0
 27 28  1  0  0  0  0
 27 88  1  0  0  0  0
 27 89  1  0  0  0  0
 28 29  1  0  0  0  0
 28 90  1  0  0  0  0
 28 91  1  0  0  0  0
 30 31  1  0  0  0  0
 30 92  1  0  0  0  0
 30 93  1  0  0  0  0
 31 32  1  0  0  0  0
 31 94  1  6  0  0  0
 32 95  1  0  0  0  0
 32 96  1  0  0  0  0
 33 34  1  0  0  0  0
 33 97  1  0  0  0  0
 33 98  1  0  0  0  0
 34 35  1  0  0  0  0
 34 99  1  1  0  0  0
 35100  1  0  0  0  0
 35101  1  0  0  0  0
 36 37  1  0  0  0  0
 37 38  1  0  0  0  0
 37102  1  0  0  0  0
 37103  1  0  0  0  0
 38 39  1  0  0  0  0
 38104  1  0  0  0  0
 38105  1  0  0  0  0
 39 40  1  0  0  0  0
 39106  1  0  0  0  0
 39107  1  0  0  0  0
 40 41  1  0  0  0  0
 40108  1  0  0  0  0
 40109  1  0  0  0  0
 41 42  1  0  0  0  0
 41110  1  0  0  0  0
 41111  1  0  0  0  0
 42 43  1  0  0  0  0
 42112  1  0  0  0  0
 42113  1  0  0  0  0
 43 44  1  0  0  0  0
 43114  1  0  0  0  0
 43115  1  0  0  0  0
 44 45  2  0  0  0  0
 44116  1  0  0  0  0
 45 46  1  0  0  0  0
 45117  1  0  0  0  0
 46 47  1  0  0  0  0
 46118  1  0  0  0  0
 46119  1  0  0  0  0
 47 48  1  0  0  0  0
 47120  1  0  0  0  0
 47121  1  0  0  0  0
 48 49  1  0  0  0  0
 48122  1  0  0  0  0
 48123  1  0  0  0  0
 49 50  1  0  0  0  0
 49124  1  0  0  0  0
 49125  1  0  0  0  0
 50 51  1  0  0  0  0
 50126  1  0  0  0  0
 50127  1  0  0  0  0
 51 52  1  0  0  0  0
 51128  1  0  0  0  0
 51129  1  0  0  0  0
 52 53  1  0  0  0  0
 52130  1  0  0  0  0
 52131  1  0  0  0  0
 53132  1  0  0  0  0
 53133  1  0  0  0  0
 53134  1  0  0  0  0
M  CHG  1   9  -1
M  END
$$$$
/media/chris/experiments/cd1a-new-docking/inputs/ligands/7sh4_ligand.pdb
 OpenBabel07012320073D

134133  0  0  1  0  0  0  0  0999 V2000
  -41.6357   65.0671   62.7637 C   0  0  0  0  0  0  0  0  0  0  0  0
  -34.6172   57.8911   63.1815 O   0  0  0  0  0  0  0  0  0  0  0  0
  -35.3336   62.9877   66.0786 P   0  0  1  0  0  0  0  0  0  0  0  0
  -42.5372   65.2885   61.5703 C   0  0  0  0  0  0  0  0  0  0  0  0
  -36.1511   59.3213   62.4064 O   0  0  0  0  0  0  0  0  0  0  0  0
  -43.3321   64.0484   61.2080 C   0  0  0  0  0  0  0  0  0  0  0  0
  -36.4293   62.0282   65.4148 O   0  0  0  0  0  0  0  0  0  0  0  0
  -44.2607   63.5474   62.2998 C   0  0  0  0  0  0  0  0  0  0  0  0
  -35.1229   62.5455   67.4739 O   0  5  0  0  0  0  0  0  0  0  0  0
  -45.0325   62.2929   61.9150 C   0  0  0  0  0  0  0  0  0  0  0  0
  -34.1652   63.0533   65.1681 O   0  0  0  0  0  0  0  0  0  0  0  0
  -44.1447   61.1068   61.5984 C   0  0  0  0  0  0  0  0  0  0  0  0
  -36.0060   64.4330   66.1178 O   0  0  0  0  0  0  0  0  0  0  0  0
  -43.2741   60.6777   62.7637 C   0  0  0  0  0  0  0  0  0  0  0  0
  -39.8279   62.8261   66.4236 O   0  0  0  0  0  0  0  0  0  0  0  0
  -42.3629   59.4955   62.4537 C   0  0  0  0  0  0  0  0  0  0  0  0
  -38.6935   64.2695   68.5819 O   0  0  0  0  0  0  0  0  0  0  0  0
  -41.3790   59.7586   61.3330 C   0  0  0  0  0  0  0  0  0  0  0  0
  -38.2720   59.8520   65.2990 O   0  0  0  0  0  0  0  0  0  0  0  0
  -40.4216   60.9010   61.6062 C   0  0  0  0  0  0  0  0  0  0  0  0
  -39.8075   59.1219   63.8261 O   0  0  0  0  0  0  0  0  0  0  0  0
  -39.4647   61.1479   60.4611 C   0  0  0  0  0  0  0  0  0  0  0  0
  -38.4950   62.2697   60.7238 C   0  0  0  0  0  0  0  0  0  0  0  0
  -37.5557   62.5197   59.5694 C   0  0  0  0  0  0  0  0  0  0  0  0
  -36.7151   61.3107   59.2118 C   0  0  0  0  0  0  0  0  0  0  0  0
  -35.8539   60.8288   60.3572 C   0  0  0  0  0  0  0  0  0  0  0  0
  -34.9902   59.6311   60.0224 C   0  0  0  0  0  0  0  0  0  0  0  0
  -34.1515   59.1632   61.1998 C   0  0  0  0  0  0  0  0  0  0  0  0
  -34.9553   58.7317   62.3924 C   0  0  0  0  0  0  0  0  0  0  0  0
  -37.0720   58.9080   63.4380 C   0  0  0  0  0  0  0  0  0  0  0  0
  -37.3490   60.1700   64.2050 C   0  0  2  0  0  0  0  0  0  0  0  0
  -36.0840   60.8130   64.7130 C   0  0  0  0  0  0  0  0  0  0  0  0
  -36.7717   64.8416   67.2697 C   0  0  0  0  0  0  0  0  0  0  0  0
  -37.9120   63.8703   67.4519 C   0  0  2  0  0  0  0  0  0  0  0  0
  -38.7846   63.7712   66.2237 C   0  0  0  0  0  0  0  0  0  0  0  0
  -39.4672   59.3329   64.9581 C   0  0  0  0  0  0  0  0  0  0  0  0
  -40.3113   59.0340   66.1581 C   0  0  0  0  0  0  0  0  0  0  0  0
  -41.2417   57.8517   65.9066 C   0  0  0  0  0  0  0  0  0  0  0  0
  -42.1979   58.0566   64.7431 C   0  0  0  0  0  0  0  0  0  0  0  0
  -43.1353   56.8774   64.5094 C   0  0  0  0  0  0  0  0  0  0  0  0
  -44.0828   57.0651   63.3391 C   0  0  0  0  0  0  0  0  0  0  0  0
  -45.0061   58.2812   63.4561 C   0  0  0  0  0  0  0  0  0  0  0  0
  -45.9795   58.4746   62.2914 C   0  0  0  0  0  0  0  0  0  0  0  0
  -46.8368   59.6919   62.4679 C   0  0  0  0  0  0  0  0  0  0  0  0
  -46.9013   60.7333   61.6612 C   0  0  0  0  0  0  0  0  0  0  0  0
  -46.1286   60.9168   60.3932 C   0  0  0  0  0  0  0  0  0  0  0  0
  -46.8854   61.7539   59.3661 C   0  0  0  0  0  0  0  0  0  0  0  0
  -48.2247   61.1614   58.9644 C   0  0  0  0  0  0  0  0  0  0  0  0
  -49.1972   61.0119   60.1217 C   0  0  0  0  0  0  0  0  0  0  0  0
  -50.5379   60.4047   59.7431 C   0  0  0  0  0  0  0  0  0  0  0  0
  -51.4994   60.2813   60.9152 C   0  0  0  0  0  0  0  0  0  0  0  0
  -52.8367   59.6620   60.5602 C   0  0  0  0  0  0  0  0  0  0  0  0
  -52.7061   58.2626   60.0270 C   0  0  0  0  0  0  0  0  0  0  0  0
  -41.0993   65.9679   62.9775 H   0  0  0  0  0  0  0  0  0  0  0  0
  -40.9421   64.2821   62.5459 H   0  0  0  0  0  0  0  0  0  0  0  0
  -42.2278   64.7947   63.6123 H   0  0  0  0  0  0  0  0  0  0  0  0
  -41.9345   65.5675   60.7315 H   0  0  0  0  0  0  0  0  0  0  0  0
  -43.2339   66.0592   61.8263 H   0  0  0  0  0  0  0  0  0  0  0  0
  -42.6407   63.2661   60.9738 H   0  0  0  0  0  0  0  0  0  0  0  0
  -43.9561   64.3205   60.3824 H   0  0  0  0  0  0  0  0  0  0  0  0
  -44.9641   64.3210   62.5270 H   0  0  0  0  0  0  0  0  0  0  0  0
  -43.6489   63.2941   63.1403 H   0  0  0  0  0  0  0  0  0  0  0  0
  -45.6249   62.5120   61.0513 H   0  0  0  0  0  0  0  0  0  0  0  0
  -45.6296   62.0207   62.7602 H   0  0  0  0  0  0  0  0  0  0  0  0
  -33.7378   62.1835   65.1272 H   0  0  0  0  0  0  0  0  0  0  0  0
  -43.5090   61.3684   60.7784 H   0  0  0  0  0  0  0  0  0  0  0  0
  -44.7880   60.2843   61.3652 H   0  0  0  0  0  0  0  0  0  0  0  0
  -43.9122   60.4062   63.5786 H   0  0  0  0  0  0  0  0  0  0  0  0
  -42.6383   61.5061   62.9970 H   0  0  0  0  0  0  0  0  0  0  0  0
  -40.3767   62.7766   65.6253 H   0  0  0  0  0  0  0  0  0  0  0  0
  -42.9742   58.6621   62.1769 H   0  0  0  0  0  0  0  0  0  0  0  0
  -41.7871   59.3065   63.3355 H   0  0  0  0  0  0  0  0  0  0  0  0
  -38.1233   64.3299   69.3643 H   0  0  0  0  0  0  0  0  0  0  0  0
  -41.9326   59.9887   60.4468 H   0  0  0  0  0  0  0  0  0  0  0  0
  -40.7841   58.8751   61.2307 H   0  0  0  0  0  0  0  0  0  0  0  0
  -39.8537   60.6693   62.4829 H   0  0  0  0  0  0  0  0  0  0  0  0
  -41.0059   61.7880   61.7358 H   0  0  0  0  0  0  0  0  0  0  0  0
  -40.0349   61.3898   59.5886 H   0  0  0  0  0  0  0  0  0  0  0  0
  -38.8884   60.2556   60.3328 H   0  0  0  0  0  0  0  0  0  0  0  0
  -37.9147   62.0233   61.5883 H   0  0  0  0  0  0  0  0  0  0  0  0
  -39.0686   63.1613   60.8685 H   0  0  0  0  0  0  0  0  0  0  0  0
  -36.9006   63.3239   59.8319 H   0  0  0  0  0  0  0  0  0  0  0  0
  -38.1564   62.7534   58.7153 H   0  0  0  0  0  0  0  0  0  0  0  0
  -36.0781   61.5691   58.3918 H   0  0  0  0  0  0  0  0  0  0  0  0
  -37.3874   60.5169   58.9615 H   0  0  0  0  0  0  0  0  0  0  0  0
  -36.4958   60.5627   61.1709 H   0  0  0  0  0  0  0  0  0  0  0  0
  -35.1879   61.6303   60.5998 H   0  0  0  0  0  0  0  0  0  0  0  0
  -34.3346   59.8960   59.2194 H   0  0  0  0  0  0  0  0  0  0  0  0
  -35.6435   58.8278   59.7526 H   0  0  0  0  0  0  0  0  0  0  0  0
  -33.5129   59.9682   61.4984 H   0  0  0  0  0  0  0  0  0  0  0  0
  -33.6062   58.3043   60.8681 H   0  0  0  0  0  0  0  0  0  0  0  0
  -36.6274   58.1683   64.0706 H   0  0  0  0  0  0  0  0  0  0  0  0
  -37.9610   58.4631   63.0423 H   0  0  0  0  0  0  0  0  0  0  0  0
  -37.7985   60.8886   63.5519 H   0  0  0  0  0  0  0  0  0  0  0  0
  -35.5824   60.1428   65.3795 H   0  0  0  0  0  0  0  0  0  0  0  0
  -35.4356   61.0386   63.8923 H   0  0  0  0  0  0  0  0  0  0  0  0
  -37.1578   65.8276   67.1158 H   0  0  0  0  0  0  0  0  0  0  0  0
  -36.1506   64.8475   68.1410 H   0  0  0  0  0  0  0  0  0  0  0  0
  -37.4944   62.8988   67.6156 H   0  0  0  0  0  0  0  0  0  0  0  0
  -39.2134   64.7299   66.0192 H   0  0  0  0  0  0  0  0  0  0  0  0
  -38.1829   63.4502   65.3991 H   0  0  0  0  0  0  0  0  0  0  0  0
  -40.9002   59.8961   66.3925 H   0  0  0  0  0  0  0  0  0  0  0  0
  -39.6624   58.7836   66.9712 H   0  0  0  0  0  0  0  0  0  0  0  0
  -41.8191   57.6833   66.7915 H   0  0  0  0  0  0  0  0  0  0  0  0
  -40.6215   57.0167   65.6553 H   0  0  0  0  0  0  0  0  0  0  0  0
  -41.6217   58.2120   63.8549 H   0  0  0  0  0  0  0  0  0  0  0  0
  -42.8093   58.9009   64.9841 H   0  0  0  0  0  0  0  0  0  0  0  0
  -43.7186   56.7307   65.3944 H   0  0  0  0  0  0  0  0  0  0  0  0
  -42.5197   56.0337   64.2772 H   0  0  0  0  0  0  0  0  0  0  0  0
  -44.6926   56.1894   63.2595 H   0  0  0  0  0  0  0  0  0  0  0  0
  -43.4712   57.2300   62.4768 H   0  0  0  0  0  0  0  0  0  0  0  0
  -44.3939   59.1561   63.5246 H   0  0  0  0  0  0  0  0  0  0  0  0
  -45.6101   58.1131   64.3231 H   0  0  0  0  0  0  0  0  0  0  0  0
  -46.6120   57.6142   62.2240 H   0  0  0  0  0  0  0  0  0  0  0  0
  -45.4034   58.6044   61.3990 H   0  0  0  0  0  0  0  0  0  0  0  0
  -47.4379   59.7175   63.3064 H   0  0  0  0  0  0  0  0  0  0  0  0
  -47.5456   61.4933   61.9299 H   0  0  0  0  0  0  0  0  0  0  0  0
  -45.9277   59.9543   59.9711 H   0  0  0  0  0  0  0  0  0  0  0  0
  -45.2247   61.4359   60.6346 H   0  0  0  0  0  0  0  0  0  0  0  0
  -46.2785   61.8429   58.4894 H   0  0  0  0  0  0  0  0  0  0  0  0
  -47.0860   62.7014   59.8210 H   0  0  0  0  0  0  0  0  0  0  0  0
  -48.0527   60.1941   58.5404 H   0  0  0  0  0  0  0  0  0  0  0  0
  -48.6703   61.8393   58.2667 H   0  0  0  0  0  0  0  0  0  0  0  0
  -49.3748   61.9820   60.5366 H   0  0  0  0  0  0  0  0  0  0  0  0
  -48.7424   60.3369   60.8163 H   0  0  0  0  0  0  0  0  0  0  0  0
  -50.3662   59.4279   59.3413 H   0  0  0  0  0  0  0  0  0  0  0  0
  -50.9916   61.0618   59.0309 H   0  0  0  0  0  0  0  0  0  0  0  0
  -51.6771   61.2607   61.3078 H   0  0  0  0  0  0  0  0  0  0  0  0
  -51.0367   59.6275   61.6246 H   0  0  0  0  0  0  0  0  0  0  0  0
  -53.3080   60.2691   59.8158 H   0  0  0  0  0  0  0  0  0  0  0  0
  -53.4176   59.6125   61.4574 H   0  0  0  0  0  0  0  0  0  0  0  0
  -52.1284   58.2764   59.1265 H   0  0  0  0  0  0  0  0  0  0  0  0
  -53.6788   57.8673   59.8207 H   0  0  0  0  0  0  0  0  0  0  0  0
  -52.2182   57.6478   60.7543 H   0  0  0  0  0  0  0  0  0  0  0  0
  1  4  1  0  0  0  0
  1 54  1  0  0  0  0
  1 55  1  0  0  0  0
  1 56  1  0  0  0  0
  2 29  2  0  0  0  0
  3  7  1  0  0  0  0
  3  9  2  1  0  0  0
  3 11  1  0  0  0  0
  3 13  1  0  0  0  0
  4  6  1  0  0  0  0
  4 57  1  0  0  0  0
  4 58  1  0  0  0  0
  5 29  1  0  0  0  0
  5 30  1  0  0  0  0
  6  8  1  0  0  0  0
  6 59  1  0  0  0  0
  6 60  1  0  0  0  0
  7 32  1  0  0  0  0
  8 10  1  0  0  0  0
  8 61  1  0  0  0  0
  8 62  1  0  0  0  0
 10 12  1  0  0  0  0
 10 63  1  0  0  0  0
 10 64  1  0  0  0  0
 11 65  1  0  0  0  0
 12 14  1  0  0  0  0
 12 66  1  0  0  0  0
 12 67  1  0  0  0  0
 13 33  1  0  0  0  0
 14 16  1  0  0  0  0
 14 68  1  0  0  0  0
 14 69  1  0  0  0  0
 15 35  1  0  0  0  0
 15 70  1  0  0  0  0
 16 18  1  0  0  0  0
 16 71  1  0  0  0  0
 16 72  1  0  0  0  0
 17 34  1  0  0  0  0
 17 73  1  0  0  0  0
 18 20  1  0  0  0  0
 18 74  1  0  0  0  0
 18 75  1  0  0  0  0
 19 31  1  0  0  0  0
 19 36  1  0  0  0  0
 20 22  1  0  0  0  0
 20 76  1  0  0  0  0
 20 77  1  0  0  0  0
 21 36  2  0  0  0  0
 22 23  1  0  0  0  0
 22 78  1  0  0  0  0
 22 79  1  0  0  0  0
 23 24  1  0  0  0  0
 23 80  1  0  0  0  0
 23 81  1  0  0  0  0
 24 25  1  0  0  0  0
 24 82  1  0  0  0  0
 24 83  1  0  0  0  0
 25 26  1  0  0  0  0
 25 84  1  0  0  0  0
 25 85  1  0  0  0  0
 26 27  1  0  0  0  0
 26 86  1  0  0  0  0
 26 87  1  0  0  0  0
 27 28  1  0  0  0  0
 27 88  1  0  0  0  0
 27 89  1  0  0  0  0
 28 29  1  0  0  0  0
 28 90  1  0  0  0  0
 28 91  1  0  0  0  0
 30 31  1  0  0  0  0
 30 92  1  0  0  0  0
 30 93  1  0  0  0  0
 31 32  1  0  0  0  0
 31 94  1  6  0  0  0
 32 95  1  0  0  0  0
 32 96  1  0  0  0  0
 33 34  1  0  0  0  0
 33 97  1  0  0  0  0
 33 98  1  0  0  0  0
 34 35  1  0  0  0  0
 34 99  1  1  0  0  0
 35100  1  0  0  0  0
 35101  1  0  0  0  0
 36 37  1  0  0  0  0
 37 38  1  0  0  0  0
 37102  1  0  0  0  0
 37103  1  0  0  0  0
 38 39  1  0  0  0  0
 38104  1  0  0  0  0
 38105  1  0  0  0  0
 39 40  1  0  0  0  0
 39106  1  0  0  0  0
 39107  1  0  0  0  0
 40 41  1  0  0  0  0
 40108  1  0  0  0  0
 40109  1  0  0  0  0
 41 42  1  0  0  0  0
 41110  1  0  0  0  0
 41111  1  0  0  0  0
 42 43  1  0  0  0  0
 42112  1  0  0  0  0
 42113  1  0  0  0  0
 43 44  1  0  0  0  0
 43114  1  0  0  0  0
 43115  1  0  0  0  0
 44 45  2  0  0  0  0
 44116  1  0  0  0  0
 45 46  1  0  0  0  0
 45117  1  0  0  0  0
 46 47  1  0  0  0  0
 46118  1  0  0  0  0
 46119  1  0  0  0  0
 47 48  1  0  0  0  0
 47120  1  0  0  0  0
 47121  1  0  0  0  0
 48 49  1  0  0  0  0
 48122  1  0  0  0  0
 48123  1  0  0  0  0
 49 50  1  0  0  0  0
 49124  1  0  0  0  0
 49125  1  0  0  0  0
 50 51  1  0  0  0  0
 50126  1  0  0  0  0
 50127  1  0  0  0  0
 51 52  1  0  0  0  0
 51128  1  0  0  0  0
 51129  1  0  0  0  0
 52 53  1  0  0  0  0
 52130  1  0  0  0  0
 52131  1  0  0  0  0
 53132  1  0  0  0  0
 53133  1  0  0  0  0
 53134  1  0  0  0  0
M  CHG  1   9  -1
M  END
$$$$
