/media/chris/experiments/cd1a-new-docking/inputs/ligands/7sh4_ligand.pdb
 OpenBabel07012320073D

134133  0  0  1  0  0  0  0  0999 V2000
  -47.2644   54.7354   66.1940 C   0  0  0  0  0  0  0  0  0  0  0  0
  -38.8668   60.5468   62.1907 O   0  0  0  0  0  0  0  0  0  0  0  0
  -35.3336   62.9877   66.0786 P   0  0  1  0  0  0  0  0  0  0  0  0
  -46.5045   53.4822   65.8226 C   0  0  0  0  0  0  0  0  0  0  0  0
  -38.3690   58.5038   62.9506 O   0  0  0  0  0  0  0  0  0  0  0  0
  -47.1938   52.6911   64.7271 C   0  0  0  0  0  0  0  0  0  0  0  0
  -36.4293   62.0282   65.4148 O   0  0  0  0  0  0  0  0  0  0  0  0
  -47.3636   53.4369   63.4156 C   0  0  0  0  0  0  0  0  0  0  0  0
  -34.1810   62.1547   66.4842 O   0  5  0  0  0  0  0  0  0  0  0  0
  -48.0730   52.6253   62.3406 C   0  0  0  0  0  0  0  0  0  0  0  0
  -35.1004   64.1274   65.1592 O   0  0  0  0  0  0  0  0  0  0  0  0
  -47.3623   51.3354   61.9855 C   0  0  0  0  0  0  0  0  0  0  0  0
  -36.0173   63.5576   67.4017 O   0  0  0  0  0  0  0  0  0  0  0  0
  -45.9501   51.5464   61.4742 C   0  0  0  0  0  0  0  0  0  0  0  0
  -39.0643   65.3793   65.2384 O   0  0  0  0  0  0  0  0  0  0  0  0
  -45.8674   52.4139   60.2234 C   0  0  0  0  0  0  0  0  0  0  0  0
  -39.6215   63.1954   66.9554 O   0  0  0  0  0  0  0  0  0  0  0  0
  -44.4576   52.6087   59.7059 C   0  0  0  0  0  0  0  0  0  0  0  0
  -38.2720   59.8520   65.2990 O   0  0  0  0  0  0  0  0  0  0  0  0
  -43.5177   53.2580   60.7013 C   0  0  0  0  0  0  0  0  0  0  0  0
  -37.1354   58.2625   66.4133 O   0  0  0  0  0  0  0  0  0  0  0  0
  -42.1238   53.4532   60.1473 C   0  0  0  0  0  0  0  0  0  0  0  0
  -41.1725   54.0824   61.1305 C   0  0  0  0  0  0  0  0  0  0  0  0
  -41.6271   55.4413   61.6039 C   0  0  0  0  0  0  0  0  0  0  0  0
  -40.6643   56.0856   62.5806 C   0  0  0  0  0  0  0  0  0  0  0  0
  -39.2898   56.3138   61.9935 C   0  0  0  0  0  0  0  0  0  0  0  0
  -39.2748   57.2287   60.7871 C   0  0  0  0  0  0  0  0  0  0  0  0
  -39.7958   58.6215   61.0986 C   0  0  0  0  0  0  0  0  0  0  0  0
  -39.0024   59.3540   62.1421 C   0  0  0  0  0  0  0  0  0  0  0  0
  -37.0720   58.9080   63.4380 C   0  0  0  0  0  0  0  0  0  0  0  0
  -37.3490   60.1700   64.2050 C   0  0  2  0  0  0  0  0  0  0  0  0
  -36.0840   60.8130   64.7130 C   0  0  0  0  0  0  0  0  0  0  0  0
  -37.3602   63.1618   67.7479 C   0  0  0  0  0  0  0  0  0  0  0  0
  -38.2804   63.5657   66.6222 C   0  0  2  0  0  0  0  0  0  0  0  0
  -38.2072   65.0437   66.3221 C   0  0  0  0  0  0  0  0  0  0  0  0
  -37.7394   59.3002   66.4062 C   0  0  0  0  0  0  0  0  0  0  0  0
  -37.9745   60.1431   67.6212 C   0  0  0  0  0  0  0  0  0  0  0  0
  -36.8474   59.9862   68.6369 C   0  0  0  0  0  0  0  0  0  0  0  0
  -37.0390   60.8067   69.9019 C   0  0  0  0  0  0  0  0  0  0  0  0
  -35.9000   60.6572   70.9039 C   0  0  0  0  0  0  0  0  0  0  0  0
  -34.5488   61.0979   70.3724 C   0  0  0  0  0  0  0  0  0  0  0  0
  -33.3919   60.9376   71.3627 C   0  0  0  0  0  0  0  0  0  0  0  0
  -33.1282   59.5046   71.8301 C   0  0  0  0  0  0  0  0  0  0  0  0
  -34.3226   58.9027   72.5077 C   0  0  0  0  0  0  0  0  0  0  0  0
  -34.6577   57.6272   72.5263 C   0  0  0  0  0  0  0  0  0  0  0  0
  -33.9099   56.5085   71.8723 C   0  0  0  0  0  0  0  0  0  0  0  0
  -33.1599   56.9614   70.6230 C   0  0  0  0  0  0  0  0  0  0  0  0
  -34.0602   57.5525   69.5524 C   0  0  0  0  0  0  0  0  0  0  0  0
  -33.3159   57.9878   68.3018 C   0  0  0  0  0  0  0  0  0  0  0  0
  -34.1974   58.5978   67.2247 C   0  0  0  0  0  0  0  0  0  0  0  0
  -35.2883   57.6593   66.7316 C   0  0  0  0  0  0  0  0  0  0  0  0
  -36.2629   57.2194   67.8061 C   0  0  0  0  0  0  0  0  0  0  0  0
  -37.3158   56.2805   67.2870 C   0  0  0  0  0  0  0  0  0  0  0  0
  -46.7387   55.2553   66.9675 H   0  0  0  0  0  0  0  0  0  0  0  0
  -48.2408   54.4704   66.5423 H   0  0  0  0  0  0  0  0  0  0  0  0
  -47.3515   55.3674   65.3350 H   0  0  0  0  0  0  0  0  0  0  0  0
  -46.4177   52.8630   66.6910 H   0  0  0  0  0  0  0  0  0  0  0  0
  -45.5445   53.7796   65.4555 H   0  0  0  0  0  0  0  0  0  0  0  0
  -48.1645   52.4108   65.0791 H   0  0  0  0  0  0  0  0  0  0  0  0
  -46.5629   51.8525   64.5179 H   0  0  0  0  0  0  0  0  0  0  0  0
  -46.3942   53.7063   63.0516 H   0  0  0  0  0  0  0  0  0  0  0  0
  -47.9744   54.2919   63.6176 H   0  0  0  0  0  0  0  0  0  0  0  0
  -48.1465   53.2251   61.4575 H   0  0  0  0  0  0  0  0  0  0  0  0
  -49.0321   52.3573   62.7320 H   0  0  0  0  0  0  0  0  0  0  0  0
  -34.6839   63.8055   64.3444 H   0  0  0  0  0  0  0  0  0  0  0  0
  -47.9266   50.8352   61.2264 H   0  0  0  0  0  0  0  0  0  0  0  0
  -47.2901   50.7573   62.8830 H   0  0  0  0  0  0  0  0  0  0  0  0
  -45.5272   50.5897   61.2489 H   0  0  0  0  0  0  0  0  0  0  0  0
  -45.4154   52.0617   62.2446 H   0  0  0  0  0  0  0  0  0  0  0  0
  -39.0036   66.3310   65.0609 H   0  0  0  0  0  0  0  0  0  0  0  0
  -46.2786   53.3750   60.4517 H   0  0  0  0  0  0  0  0  0  0  0  0
  -46.4135   51.9063   59.4558 H   0  0  0  0  0  0  0  0  0  0  0  0
  -39.6566   62.2449   67.1460 H   0  0  0  0  0  0  0  0  0  0  0  0
  -44.5022   53.2265   58.8334 H   0  0  0  0  0  0  0  0  0  0  0  0
  -44.0662   51.6339   59.5022 H   0  0  0  0  0  0  0  0  0  0  0  0
  -43.4567   52.6364   61.5701 H   0  0  0  0  0  0  0  0  0  0  0  0
  -43.9113   54.2255   60.9335 H   0  0  0  0  0  0  0  0  0  0  0  0
  -42.1866   54.0837   59.2851 H   0  0  0  0  0  0  0  0  0  0  0  0
  -41.7387   52.4832   59.9115 H   0  0  0  0  0  0  0  0  0  0  0  0
  -40.2167   54.1871   60.6610 H   0  0  0  0  0  0  0  0  0  0  0  0
  -41.1287   53.4431   61.9874 H   0  0  0  0  0  0  0  0  0  0  0  0
  -42.5774   55.3340   62.0839 H   0  0  0  0  0  0  0  0  0  0  0  0
  -41.6807   56.0762   60.7443 H   0  0  0  0  0  0  0  0  0  0  0  0
  -40.5683   55.4485   63.4349 H   0  0  0  0  0  0  0  0  0  0  0  0
  -41.0645   57.0437   62.8389 H   0  0  0  0  0  0  0  0  0  0  0  0
  -38.8882   55.3662   61.7011 H   0  0  0  0  0  0  0  0  0  0  0  0
  -38.7074   56.7946   62.7515 H   0  0  0  0  0  0  0  0  0  0  0  0
  -39.8874   56.7974   60.0232 H   0  0  0  0  0  0  0  0  0  0  0  0
  -38.2575   57.3284   60.4707 H   0  0  0  0  0  0  0  0  0  0  0  0
  -40.8047   58.5334   61.4441 H   0  0  0  0  0  0  0  0  0  0  0  0
  -39.7163   59.1897   60.1954 H   0  0  0  0  0  0  0  0  0  0  0  0
  -36.4020   59.0962   62.6252 H   0  0  0  0  0  0  0  0  0  0  0  0
  -36.6048   58.1555   64.0382 H   0  0  0  0  0  0  0  0  0  0  0  0
  -37.7985   60.8886   63.5519 H   0  0  0  0  0  0  0  0  0  0  0  0
  -35.5824   60.1428   65.3795 H   0  0  0  0  0  0  0  0  0  0  0  0
  -35.4356   61.0386   63.8923 H   0  0  0  0  0  0  0  0  0  0  0  0
  -37.6592   63.6498   68.6519 H   0  0  0  0  0  0  0  0  0  0  0  0
  -37.4047   62.1032   67.8975 H   0  0  0  0  0  0  0  0  0  0  0  0
  -37.9639   63.0531   65.7379 H   0  0  0  0  0  0  0  0  0  0  0  0
  -38.5064   65.5935   67.1899 H   0  0  0  0  0  0  0  0  0  0  0  0
  -37.2012   65.2911   66.0545 H   0  0  0  0  0  0  0  0  0  0  0  0
  -38.8965   59.8473   68.0766 H   0  0  0  0  0  0  0  0  0  0  0  0
  -38.0119   61.1682   67.3167 H   0  0  0  0  0  0  0  0  0  0  0  0
  -35.9319   60.2902   68.1737 H   0  0  0  0  0  0  0  0  0  0  0  0
  -36.8368   58.9579   68.9325 H   0  0  0  0  0  0  0  0  0  0  0  0
  -37.9475   60.4945   70.3732 H   0  0  0  0  0  0  0  0  0  0  0  0
  -37.0658   61.8352   69.6080 H   0  0  0  0  0  0  0  0  0  0  0  0
  -35.8315   59.6269   71.1844 H   0  0  0  0  0  0  0  0  0  0  0  0
  -36.1301   61.2950   71.7317 H   0  0  0  0  0  0  0  0  0  0  0  0
  -34.6169   62.1312   70.1029 H   0  0  0  0  0  0  0  0  0  0  0  0
  -34.3274   60.4616   69.5412 H   0  0  0  0  0  0  0  0  0  0  0  0
  -33.6095   61.5323   72.2251 H   0  0  0  0  0  0  0  0  0  0  0  0
  -32.5100   61.2469   70.8416 H   0  0  0  0  0  0  0  0  0  0  0  0
  -32.3086   59.5115   72.5179 H   0  0  0  0  0  0  0  0  0  0  0  0
  -32.9063   58.9124   70.9670 H   0  0  0  0  0  0  0  0  0  0  0  0
  -34.9463   59.5529   73.0110 H   0  0  0  0  0  0  0  0  0  0  0  0
  -35.5168   57.3773   73.0405 H   0  0  0  0  0  0  0  0  0  0  0  0
  -34.6066   55.7446   71.5967 H   0  0  0  0  0  0  0  0  0  0  0  0
  -33.1871   56.1461   72.5731 H   0  0  0  0  0  0  0  0  0  0  0  0
  -32.6520   56.1157   70.2085 H   0  0  0  0  0  0  0  0  0  0  0  0
  -32.4848   57.7342   70.9261 H   0  0  0  0  0  0  0  0  0  0  0  0
  -34.5587   58.4055   69.9631 H   0  0  0  0  0  0  0  0  0  0  0  0
  -34.7433   56.7833   69.2582 H   0  0  0  0  0  0  0  0  0  0  0  0
  -32.8273   57.1305   67.8881 H   0  0  0  0  0  0  0  0  0  0  0  0
  -32.6322   58.7529   68.6052 H   0  0  0  0  0  0  0  0  0  0  0  0
  -33.5799   58.8661   66.3931 H   0  0  0  0  0  0  0  0  0  0  0  0
  -34.6840   59.4463   67.6586 H   0  0  0  0  0  0  0  0  0  0  0  0
  -34.8214   56.7868   66.3246 H   0  0  0  0  0  0  0  0  0  0  0  0
  -35.8562   58.2029   66.0057 H   0  0  0  0  0  0  0  0  0  0  0  0
  -36.7452   58.0867   68.2062 H   0  0  0  0  0  0  0  0  0  0  0  0
  -35.7042   56.6961   68.5537 H   0  0  0  0  0  0  0  0  0  0  0  0
  -37.8946   56.7745   66.5347 H   0  0  0  0  0  0  0  0  0  0  0  0
  -37.9558   55.9826   68.0911 H   0  0  0  0  0  0  0  0  0  0  0  0
  -36.8465   55.4161   66.8656 H   0  0  0  0  0  0  0  0  0  0  0  0
  1  4  1  0  0  0  0
  1 54  1  0  0  0  0
  1 55  1  0  0  0  0
  1 56  1  0  0  0  0
  2 29  2  0  0  0  0
  3  7  1  0  0  0  0
  3  9  2  1  0  0  0
  3 11  1  0  0  0  0
  3 13  1  0  0  0  0
  4  6  1  0  0  0  0
  4 57  1  0  0  0  0
  4 58  1  0  0  0  0
  5 29  1  0  0  0  0
  5 30  1  0  0  0  0
  6  8  1  0  0  0  0
  6 59  1  0  0  0  0
  6 60  1  0  0  0  0
  7 32  1  0  0  0  0
  8 10  1  0  0  0  0
  8 61  1  0  0  0  0
  8 62  1  0  0  0  0
 10 12  1  0  0  0  0
 10 63  1  0  0  0  0
 10 64  1  0  0  0  0
 11 65  1  0  0  0  0
 12 14  1  0  0  0  0
 12 66  1  0  0  0  0
 12 67  1  0  0  0  0
 13 33  1  0  0  0  0
 14 16  1  0  0  0  0
 14 68  1  0  0  0  0
 14 69  1  0  0  0  0
 15 35  1  0  0  0  0
 15 70  1  0  0  0  0
 16 18  1  0  0  0  0
 16 71  1  0  0  0  0
 16 72  1  0  0  0  0
 17 34  1  0  0  0  0
 17 73  1  0  0  0  0
 18 20  1  0  0  0  0
 18 74  1  0  0  0  0
 18 75  1  0  0  0  0
 19 31  1  0  0  0  0
 19 36  1  0  0  0  0
 20 22  1  0  0  0  0
 20 76  1  0  0  0  0
 20 77  1  0  0  0  0
 21 36  2  0  0  0  0
 22 23  1  0  0  0  0
 22 78  1  0  0  0  0
 22 79  1  0  0  0  0
 23 24  1  0  0  0  0
 23 80  1  0  0  0  0
 23 81  1  0  0  0  0
 24 25  1  0  0  0  0
 24 82  1  0  0  0  0
 24 83  1  0  0  0  0
 25 26  1  0  0  0  0
 25 84  1  0  0  0  0
 25 85  1  0  0  0  0
 26 27  1  0  0  0  0
 26 86  1  0  0  0  0
 26 87  1  0  0  0  0
 27 28  1  0  0  0  0
 27 88  1  0  0  0  0
 27 89  1  0  0  0  0
 28 29  1  0  0  0  0
 28 90  1  0  0  0  0
 28 91  1  0  0  0  0
 30 31  1  0  0  0  0
 30 92  1  0  0  0  0
 30 93  1  0  0  0  0
 31 32  1  0  0  0  0
 31 94  1  6  0  0  0
 32 95  1  0  0  0  0
 32 96  1  0  0  0  0
 33 34  1  0  0  0  0
 33 97  1  0  0  0  0
 33 98  1  0  0  0  0
 34 35  1  0  0  0  0
 34 99  1  6  0  0  0
 35100  1  0  0  0  0
 35101  1  0  0  0  0
 36 37  1  0  0  0  0
 37 38  1  0  0  0  0
 37102  1  0  0  0  0
 37103  1  0  0  0  0
 38 39  1  0  0  0  0
 38104  1  0  0  0  0
 38105  1  0  0  0  0
 39 40  1  0  0  0  0
 39106  1  0  0  0  0
 39107  1  0  0  0  0
 40 41  1  0  0  0  0
 40108  1  0  0  0  0
 40109  1  0  0  0  0
 41 42  1  0  0  0  0
 41110  1  0  0  0  0
 41111  1  0  0  0  0
 42 43  1  0  0  0  0
 42112  1  0  0  0  0
 42113  1  0  0  0  0
 43 44  1  0  0  0  0
 43114  1  0  0  0  0
 43115  1  0  0  0  0
 44 45  2  0  0  0  0
 44116  1  0  0  0  0
 45 46  1  0  0  0  0
 45117  1  0  0  0  0
 46 47  1  0  0  0  0
 46118  1  0  0  0  0
 46119  1  0  0  0  0
 47 48  1  0  0  0  0
 47120  1  0  0  0  0
 47121  1  0  0  0  0
 48 49  1  0  0  0  0
 48122  1  0  0  0  0
 48123  1  0  0  0  0
 49 50  1  0  0  0  0
 49124  1  0  0  0  0
 49125  1  0  0  0  0
 50 51  1  0  0  0  0
 50126  1  0  0  0  0
 50127  1  0  0  0  0
 51 52  1  0  0  0  0
 51128  1  0  0  0  0
 51129  1  0  0  0  0
 52 53  1  0  0  0  0
 52130  1  0  0  0  0
 52131  1  0  0  0  0
 53132  1  0  0  0  0
 53133  1  0  0  0  0
 53134  1  0  0  0  0
M  CHG  1   9  -1
M  END
$$$$