/media/chris/experiments/cd1a-new-docking/inputs/ligands/7sh4_ligand.pdb
 OpenBabel07012320073D

134133  0  0  1  0  0  0  0  0999 V2000
  -32.7146   58.6771   68.7689 C   0  0  0  0  0  0  0  0  0  0  0  0
  -34.4062   58.3144   63.3762 O   0  0  0  0  0  0  0  0  0  0  0  0
  -33.7887   61.7905   63.7469 P   0  0  1  0  0  0  0  0  0  0  0  0
  -31.4681   57.8778   68.4636 C   0  0  0  0  0  0  0  0  0  0  0  0
  -36.1511   59.3213   62.4064 O   0  0  0  0  0  0  0  0  0  0  0  0
  -31.1887   57.7878   66.9754 C   0  0  0  0  0  0  0  0  0  0  0  0
  -35.2304   61.1139   63.5864 O   0  0  0  0  0  0  0  0  0  0  0  0
  -30.9629   59.1234   66.2894 C   0  0  0  0  0  0  0  0  0  0  0  0
  -33.8154   62.6444   64.9539 O   0  5  0  0  0  0  0  0  0  0  0  0
  -29.7720   59.8966   66.8383 C   0  0  0  0  0  0  0  0  0  0  0  0
  -32.7645   60.7224   63.6525 O   0  0  0  0  0  0  0  0  0  0  0  0
  -29.5561   61.2370   66.1659 C   0  0  0  0  0  0  0  0  0  0  0  0
  -33.6242   62.7405   62.4768 O   0  0  0  0  0  0  0  0  0  0  0  0
  -29.3217   61.1306   64.6713 C   0  0  0  0  0  0  0  0  0  0  0  0
  -29.3212   64.6000   63.5298 O   0  0  0  0  0  0  0  0  0  0  0  0
  -28.1103   60.2861   64.2929 C   0  0  0  0  0  0  0  0  0  0  0  0
  -31.3517   62.7090   64.1037 O   0  0  0  0  0  0  0  0  0  0  0  0
  -27.8692   60.1959   62.8006 C   0  0  0  0  0  0  0  0  0  0  0  0
  -38.2720   59.8520   65.2990 O   0  0  0  0  0  0  0  0  0  0  0  0
  -29.0255   59.6014   62.0223 C   0  0  0  0  0  0  0  0  0  0  0  0
  -40.0171   59.9196   63.8811 O   0  0  0  0  0  0  0  0  0  0  0  0
  -29.3707   58.1982   62.4694 C   0  0  0  0  0  0  0  0  0  0  0  0
  -30.5074   57.5865   61.6940 C   0  0  0  0  0  0  0  0  0  0  0  0
  -30.8557   56.1934   62.1583 C   0  0  0  0  0  0  0  0  0  0  0  0
  -31.9879   55.5674   61.3695 C   0  0  0  0  0  0  0  0  0  0  0  0
  -33.2699   56.3659   61.4386 C   0  0  0  0  0  0  0  0  0  0  0  0
  -33.1556   57.7714   60.8872 C   0  0  0  0  0  0  0  0  0  0  0  0
  -34.4561   58.5504   60.9878 C   0  0  0  0  0  0  0  0  0  0  0  0
  -34.9553   58.7317   62.3924 C   0  0  0  0  0  0  0  0  0  0  0  0
  -37.0720   58.9080   63.4380 C   0  0  0  0  0  0  0  0  0  0  0  0
  -37.3490   60.1700   64.2050 C   0  0  2  0  0  0  0  0  0  0  0  0
  -36.0840   60.8130   64.7130 C   0  0  0  0  0  0  0  0  0  0  0  0
  -32.3143   62.9901   61.9273 C   0  0  0  0  0  0  0  0  0  0  0  0
  -31.4589   63.6152   63.0018 C   0  0  2  0  0  0  0  0  0  0  0  0
  -30.0851   63.9883   62.4984 C   0  0  0  0  0  0  0  0  0  0  0  0
  -39.5790   59.7587   64.9875 C   0  0  0  0  0  0  0  0  0  0  0  0
  -40.4161   59.4128   66.1798 C   0  0  0  0  0  0  0  0  0  0  0  0
  -41.6498   58.6087   65.7822 C   0  0  0  0  0  0  0  0  0  0  0  0
  -42.5642   59.3266   64.8032 C   0  0  0  0  0  0  0  0  0  0  0  0
  -43.8030   58.5230   64.4244 C   0  0  0  0  0  0  0  0  0  0  0  0
  -44.7142   59.2241   63.4341 C   0  0  0  0  0  0  0  0  0  0  0  0
  -44.0625   59.5448   62.0860 C   0  0  0  0  0  0  0  0  0  0  0  0
  -42.8273   60.4453   62.1571 C   0  0  0  0  0  0  0  0  0  0  0  0
  -43.1321   61.7739   62.7816 C   0  0  0  0  0  0  0  0  0  0  0  0
  -42.3033   62.5231   63.4826 C   0  0  0  0  0  0  0  0  0  0  0  0
  -40.8773   62.2016   63.8010 C   0  0  0  0  0  0  0  0  0  0  0  0
  -39.9089   63.2474   63.2562 C   0  0  0  0  0  0  0  0  0  0  0  0
  -39.9789   63.4161   61.7486 C   0  0  0  0  0  0  0  0  0  0  0  0
  -41.3412   63.8640   61.2477 C   0  0  0  0  0  0  0  0  0  0  0  0
  -41.8006   65.2076   61.7890 C   0  0  0  0  0  0  0  0  0  0  0  0
  -43.1739   65.6256   61.2862 C   0  0  0  0  0  0  0  0  0  0  0  0
  -44.2905   64.6713   61.6608 C   0  0  0  0  0  0  0  0  0  0  0  0
  -44.4580   64.5272   63.1477 C   0  0  0  0  0  0  0  0  0  0  0  0
  -32.8665   58.7103   69.8275 H   0  0  0  0  0  0  0  0  0  0  0  0
  -33.5585   58.2140   68.3018 H   0  0  0  0  0  0  0  0  0  0  0  0
  -32.6008   59.6726   68.3934 H   0  0  0  0  0  0  0  0  0  0  0  0
  -31.5914   56.8878   68.8505 H   0  0  0  0  0  0  0  0  0  0  0  0
  -30.6400   58.3774   68.9213 H   0  0  0  0  0  0  0  0  0  0  0  0
  -32.0243   57.3102   66.5078 H   0  0  0  0  0  0  0  0  0  0  0  0
  -30.2768   57.2376   66.8722 H   0  0  0  0  0  0  0  0  0  0  0  0
  -31.8414   59.7211   66.4153 H   0  0  0  0  0  0  0  0  0  0  0  0
  -30.7555   58.9165   65.2603 H   0  0  0  0  0  0  0  0  0  0  0  0
  -28.8918   59.3039   66.7012 H   0  0  0  0  0  0  0  0  0  0  0  0
  -29.9744   60.0927   67.8705 H   0  0  0  0  0  0  0  0  0  0  0  0
  -32.8443   60.1296   64.4161 H   0  0  0  0  0  0  0  0  0  0  0  0
  -28.7032   61.7059   66.6104 H   0  0  0  0  0  0  0  0  0  0  0  0
  -30.4503   61.8079   66.3055 H   0  0  0  0  0  0  0  0  0  0  0  0
  -29.1792   62.1170   64.2819 H   0  0  0  0  0  0  0  0  0  0  0  0
  -30.1800   60.6444   64.2569 H   0  0  0  0  0  0  0  0  0  0  0  0
  -28.4436   64.8321   63.1879 H   0  0  0  0  0  0  0  0  0  0  0  0
  -28.2579   59.2961   64.6711 H   0  0  0  0  0  0  0  0  0  0  0  0
  -27.2526   60.7637   64.7185 H   0  0  0  0  0  0  0  0  0  0  0  0
  -32.2391   62.4764   64.4186 H   0  0  0  0  0  0  0  0  0  0  0  0
  -27.0049   59.5870   62.6359 H   0  0  0  0  0  0  0  0  0  0  0  0
  -27.7421   61.1979   62.4473 H   0  0  0  0  0  0  0  0  0  0  0  0
  -28.7626   59.5752   60.9854 H   0  0  0  0  0  0  0  0  0  0  0  0
  -29.8832   60.2165   62.1979 H   0  0  0  0  0  0  0  0  0  0  0  0
  -29.6435   58.2291   63.5036 H   0  0  0  0  0  0  0  0  0  0  0  0
  -28.5073   57.5902   62.2971 H   0  0  0  0  0  0  0  0  0  0  0  0
  -30.2310   57.5425   60.6612 H   0  0  0  0  0  0  0  0  0  0  0  0
  -31.3692   58.2009   61.8510 H   0  0  0  0  0  0  0  0  0  0  0  0
  -31.1435   56.2400   63.1878 H   0  0  0  0  0  0  0  0  0  0  0  0
  -29.9894   55.5829   62.0106 H   0  0  0  0  0  0  0  0  0  0  0  0
  -32.1746   54.5887   61.7596 H   0  0  0  0  0  0  0  0  0  0  0  0
  -31.6847   55.5380   60.3437 H   0  0  0  0  0  0  0  0  0  0  0  0
  -33.5700   56.4308   62.4636 H   0  0  0  0  0  0  0  0  0  0  0  0
  -33.9847   55.8535   60.8292 H   0  0  0  0  0  0  0  0  0  0  0  0
  -32.8710   57.7127   59.8574 H   0  0  0  0  0  0  0  0  0  0  0  0
  -32.4239   58.2886   61.4721 H   0  0  0  0  0  0  0  0  0  0  0  0
  -35.2048   58.0277   60.4300 H   0  0  0  0  0  0  0  0  0  0  0  0
  -34.2604   59.5287   60.6014 H   0  0  0  0  0  0  0  0  0  0  0  0
  -36.6274   58.1683   64.0706 H   0  0  0  0  0  0  0  0  0  0  0  0
  -37.9610   58.4631   63.0423 H   0  0  0  0  0  0  0  0  0  0  0  0
  -37.7985   60.8886   63.5519 H   0  0  0  0  0  0  0  0  0  0  0  0
  -36.3238   61.7163   65.2340 H   0  0  0  0  0  0  0  0  0  0  0  0
  -35.5811   60.1472   65.3829 H   0  0  0  0  0  0  0  0  0  0  0  0
  -32.3928   63.6570   61.0942 H   0  0  0  0  0  0  0  0  0  0  0  0
  -31.8745   62.0734   61.5938 H   0  0  0  0  0  0  0  0  0  0  0  0
  -31.9325   64.5225   63.3138 H   0  0  0  0  0  0  0  0  0  0  0  0
  -29.5814   63.1051   62.1649 H   0  0  0  0  0  0  0  0  0  0  0  0
  -30.1913   64.6823   61.6910 H   0  0  0  0  0  0  0  0  0  0  0  0
  -40.7297   60.3168   66.6586 H   0  0  0  0  0  0  0  0  0  0  0  0
  -39.8255   58.8158   66.8429 H   0  0  0  0  0  0  0  0  0  0  0  0
  -42.2094   58.3905   66.6677 H   0  0  0  0  0  0  0  0  0  0  0  0
  -41.2994   57.7259   65.2895 H   0  0  0  0  0  0  0  0  0  0  0  0
  -42.0096   59.5337   63.9118 H   0  0  0  0  0  0  0  0  0  0  0  0
  -42.9042   60.2183   65.2871 H   0  0  0  0  0  0  0  0  0  0  0  0
  -44.3621   58.3266   65.3153 H   0  0  0  0  0  0  0  0  0  0  0  0
  -43.4585   57.6286   63.9487 H   0  0  0  0  0  0  0  0  0  0  0  0
  -45.0411   60.1431   63.8739 H   0  0  0  0  0  0  0  0  0  0  0  0
  -45.5178   58.5479   63.2296 H   0  0  0  0  0  0  0  0  0  0  0  0
  -44.7921   60.0316   61.4730 H   0  0  0  0  0  0  0  0  0  0  0  0
  -43.7258   58.6099   61.6890 H   0  0  0  0  0  0  0  0  0  0  0  0
  -42.4604   60.6065   61.1650 H   0  0  0  0  0  0  0  0  0  0  0  0
  -42.0972   59.9549   62.7666 H   0  0  0  0  0  0  0  0  0  0  0  0
  -44.0880   62.1396   62.6493 H   0  0  0  0  0  0  0  0  0  0  0  0
  -42.6735   63.4153   63.8457 H   0  0  0  0  0  0  0  0  0  0  0  0
  -40.6350   61.2521   63.3713 H   0  0  0  0  0  0  0  0  0  0  0  0
  -40.7764   62.1874   64.8662 H   0  0  0  0  0  0  0  0  0  0  0  0
  -38.9134   62.9549   63.5177 H   0  0  0  0  0  0  0  0  0  0  0  0
  -40.1853   64.1859   63.6894 H   0  0  0  0  0  0  0  0  0  0  0  0
  -39.7429   62.4775   61.2922 H   0  0  0  0  0  0  0  0  0  0  0  0
  -39.2812   64.1839   61.4868 H   0  0  0  0  0  0  0  0  0  0  0  0
  -42.0613   63.1252   61.5316 H   0  0  0  0  0  0  0  0  0  0  0  0
  -41.2537   63.9767   60.1872 H   0  0  0  0  0  0  0  0  0  0  0  0
  -41.0908   65.9522   61.4946 H   0  0  0  0  0  0  0  0  0  0  0  0
  -41.8699   65.1119   62.8525 H   0  0  0  0  0  0  0  0  0  0  0  0
  -43.1342   65.6930   60.2191 H   0  0  0  0  0  0  0  0  0  0  0  0
  -43.4002   66.5614   61.7530 H   0  0  0  0  0  0  0  0  0  0  0  0
  -44.0717   63.7093   61.2465 H   0  0  0  0  0  0  0  0  0  0  0  0
  -45.2024   65.0727   61.2709 H   0  0  0  0  0  0  0  0  0  0  0  0
  -43.5604   64.1266   63.5706 H   0  0  0  0  0  0  0  0  0  0  0  0
  -45.2744   63.8666   63.3524 H   0  0  0  0  0  0  0  0  0  0  0  0
  -44.6583   65.4860   63.5786 H   0  0  0  0  0  0  0  0  0  0  0  0
  1  4  1  0  0  0  0
  1 54  1  0  0  0  0
  1 55  1  0  0  0  0
  1 56  1  0  0  0  0
  2 29  2  0  0  0  0
  3  7  1  0  0  0  0
  3  9  2  1  0  0  0
  3 11  1  0  0  0  0
  3 13  1  0  0  0  0
  4  6  1  0  0  0  0
  4 57  1  0  0  0  0
  4 58  1  0  0  0  0
  5 29  1  0  0  0  0
  5 30  1  0  0  0  0
  6  8  1  0  0  0  0
  6 59  1  0  0  0  0
  6 60  1  0  0  0  0
  7 32  1  0  0  0  0
  8 10  1  0  0  0  0
  8 61  1  0  0  0  0
  8 62  1  0  0  0  0
 10 12  1  0  0  0  0
 10 63  1  0  0  0  0
 10 64  1  0  0  0  0
 11 65  1  0  0  0  0
 12 14  1  0  0  0  0
 12 66  1  0  0  0  0
 12 67  1  0  0  0  0
 13 33  1  0  0  0  0
 14 16  1  0  0  0  0
 14 68  1  0  0  0  0
 14 69  1  0  0  0  0
 15 35  1  0  0  0  0
 15 70  1  0  0  0  0
 16 18  1  0  0  0  0
 16 71  1  0  0  0  0
 16 72  1  0  0  0  0
 17 34  1  0  0  0  0
 17 73  1  0  0  0  0
 18 20  1  0  0  0  0
 18 74  1  0  0  0  0
 18 75  1  0  0  0  0
 19 31  1  0  0  0  0
 19 36  1  0  0  0  0
 20 22  1  0  0  0  0
 20 76  1  0  0  0  0
 20 77  1  0  0  0  0
 21 36  2  0  0  0  0
 22 23  1  0  0  0  0
 22 78  1  0  0  0  0
 22 79  1  0  0  0  0
 23 24  1  0  0  0  0
 23 80  1  0  0  0  0
 23 81  1  0  0  0  0
 24 25  1  0  0  0  0
 24 82  1  0  0  0  0
 24 83  1  0  0  0  0
 25 26  1  0  0  0  0
 25 84  1  0  0  0  0
 25 85  1  0  0  0  0
 26 27  1  0  0  0  0
 26 86  1  0  0  0  0
 26 87  1  0  0  0  0
 27 28  1  0  0  0  0
 27 88  1  0  0  0  0
 27 89  1  0  0  0  0
 28 29  1  0  0  0  0
 28 90  1  0  0  0  0
 28 91  1  0  0  0  0
 30 31  1  0  0  0  0
 30 92  1  0  0  0  0
 30 93  1  0  0  0  0
 31 32  1  0  0  0  0
 31 94  1  6  0  0  0
 32 95  1  0  0  0  0
 32 96  1  0  0  0  0
 33 34  1  0  0  0  0
 33 97  1  0  0  0  0
 33 98  1  0  0  0  0
 34 35  1  0  0  0  0
 34 99  1  1  0  0  0
 35100  1  0  0  0  0
 35101  1  0  0  0  0
 36 37  1  0  0  0  0
 37 38  1  0  0  0  0
 37102  1  0  0  0  0
 37103  1  0  0  0  0
 38 39  1  0  0  0  0
 38104  1  0  0  0  0
 38105  1  0  0  0  0
 39 40  1  0  0  0  0
 39106  1  0  0  0  0
 39107  1  0  0  0  0
 40 41  1  0  0  0  0
 40108  1  0  0  0  0
 40109  1  0  0  0  0
 41 42  1  0  0  0  0
 41110  1  0  0  0  0
 41111  1  0  0  0  0
 42 43  1  0  0  0  0
 42112  1  0  0  0  0
 42113  1  0  0  0  0
 43 44  1  0  0  0  0
 43114  1  0  0  0  0
 43115  1  0  0  0  0
 44 45  2  0  0  0  0
 44116  1  0  0  0  0
 45 46  1  0  0  0  0
 45117  1  0  0  0  0
 46 47  1  0  0  0  0
 46118  1  0  0  0  0
 46119  1  0  0  0  0
 47 48  1  0  0  0  0
 47120  1  0  0  0  0
 47121  1  0  0  0  0
 48 49  1  0  0  0  0
 48122  1  0  0  0  0
 48123  1  0  0  0  0
 49 50  1  0  0  0  0
 49124  1  0  0  0  0
 49125  1  0  0  0  0
 50 51  1  0  0  0  0
 50126  1  0  0  0  0
 50127  1  0  0  0  0
 51 52  1  0  0  0  0
 51128  1  0  0  0  0
 51129  1  0  0  0  0
 52 53  1  0  0  0  0
 52130  1  0  0  0  0
 52131  1  0  0  0  0
 53132  1  0  0  0  0
 53133  1  0  0  0  0
 53134  1  0  0  0  0
M  CHG  1   9  -1
M  END
$$$$