/media/chris/experiments/cd1a-new-docking/inputs/ligands/7sh4_ligand.pdb
 OpenBabel07012320073D

134133  0  0  1  0  0  0  0  0999 V2000
  -40.8113   66.7345   78.9166 C   0  0  0  0  0  0  0  0  0  0  0  0
  -37.8093   56.3061   63.8238 O   0  0  0  0  0  0  0  0  0  0  0  0
  -35.6684   62.1020   62.4058 P   0  0  1  0  0  0  0  0  0  0  0  0
  -41.3030   67.2064   77.5670 C   0  0  0  0  0  0  0  0  0  0  0  0
  -36.5027   58.0190   64.4222 O   0  0  0  0  0  0  0  0  0  0  0  0
  -40.8217   66.3202   76.4338 C   0  0  0  0  0  0  0  0  0  0  0  0
  -35.2304   61.1139   63.5864 O   0  0  0  0  0  0  0  0  0  0  0  0
  -41.2718   66.7564   75.0510 C   0  0  0  0  0  0  0  0  0  0  0  0
  -34.4498   62.7510   61.8761 O   0  5  0  0  0  0  0  0  0  0  0  0
  -40.7888   65.8398   73.9356 C   0  0  0  0  0  0  0  0  0  0  0  0
  -36.5373   61.3473   61.4709 O   0  0  0  0  0  0  0  0  0  0  0  0
  -41.2232   66.2837   72.5538 C   0  0  0  0  0  0  0  0  0  0  0  0
  -36.5593   63.2254   63.1038 O   0  0  0  0  0  0  0  0  0  0  0  0
  -40.7537   65.3579   71.4481 C   0  0  0  0  0  0  0  0  0  0  0  0
  -38.7311   65.5517   66.7029 O   0  0  0  0  0  0  0  0  0  0  0  0
  -39.2388   65.2061   71.3689 C   0  0  0  0  0  0  0  0  0  0  0  0
  -38.9226   64.2386   64.1994 O   0  0  0  0  0  0  0  0  0  0  0  0
  -38.7727   64.2944   70.2532 C   0  0  0  0  0  0  0  0  0  0  0  0
  -38.2720   59.8520   65.2990 O   0  0  0  0  0  0  0  0  0  0  0  0
  -39.3085   62.8800   70.3458 C   0  0  0  0  0  0  0  0  0  0  0  0
  -40.0260   58.9658   64.2044 O   0  0  0  0  0  0  0  0  0  0  0  0
  -38.8106   61.9921   69.2269 C   0  0  0  0  0  0  0  0  0  0  0  0
  -39.3475   60.5869   69.2951 C   0  0  0  0  0  0  0  0  0  0  0  0
  -38.8321   59.7042   68.1848 C   0  0  0  0  0  0  0  0  0  0  0  0
  -39.3832   58.2937   68.2396 C   0  0  0  0  0  0  0  0  0  0  0  0
  -38.8519   57.4073   67.1361 C   0  0  0  0  0  0  0  0  0  0  0  0
  -37.3485   57.2278   67.1543 C   0  0  0  0  0  0  0  0  0  0  0  0
  -36.8476   56.3461   66.0229 C   0  0  0  0  0  0  0  0  0  0  0  0
  -37.1513   56.8767   64.6514 C   0  0  0  0  0  0  0  0  0  0  0  0
  -37.0720   58.9080   63.4380 C   0  0  0  0  0  0  0  0  0  0  0  0
  -37.3490   60.1700   64.2050 C   0  0  2  0  0  0  0  0  0  0  0  0
  -36.0840   60.8130   64.7130 C   0  0  0  0  0  0  0  0  0  0  0  0
  -36.7996   63.1759   64.5250 C   0  0  0  0  0  0  0  0  0  0  0  0
  -37.6793   64.3432   64.8997 C   0  0  2  0  0  0  0  0  0  0  0  0
  -37.9244   64.4242   66.3873 C   0  0  0  0  0  0  0  0  0  0  0  0
  -39.5790   59.7587   64.9875 C   0  0  0  0  0  0  0  0  0  0  0  0
  -40.4082   60.7476   65.7468 C   0  0  0  0  0  0  0  0  0  0  0  0
  -41.6346   61.1783   64.9486 C   0  0  0  0  0  0  0  0  0  0  0  0
  -42.5773   60.0371   64.6034 C   0  0  0  0  0  0  0  0  0  0  0  0
  -43.1515   59.3296   65.8255 C   0  0  0  0  0  0  0  0  0  0  0  0
  -43.9694   60.2303   66.7322 C   0  0  0  0  0  0  0  0  0  0  0  0
  -45.1966   60.8591   66.0660 C   0  0  0  0  0  0  0  0  0  0  0  0
  -44.8995   61.7317   64.8446 C   0  0  0  0  0  0  0  0  0  0  0  0
  -43.9917   62.8778   65.1765 C   0  0  0  0  0  0  0  0  0  0  0  0
  -43.1234   63.4542   64.3683 C   0  0  0  0  0  0  0  0  0  0  0  0
  -42.8632   63.0827   62.9426 C   0  0  0  0  0  0  0  0  0  0  0  0
  -41.7789   63.9460   62.3044 C   0  0  0  0  0  0  0  0  0  0  0  0
  -41.5041   63.6036   60.8506 C   0  0  0  0  0  0  0  0  0  0  0  0
  -41.0581   62.1675   60.6362 C   0  0  0  0  0  0  0  0  0  0  0  0
  -39.7880   61.7852   61.3779 C   0  0  0  0  0  0  0  0  0  0  0  0
  -39.3531   60.3483   61.1335 C   0  0  0  0  0  0  0  0  0  0  0  0
  -40.3805   59.3100   61.5386 C   0  0  0  0  0  0  0  0  0  0  0  0
  -39.9106   57.9024   61.2987 C   0  0  0  0  0  0  0  0  0  0  0  0
  -41.1768   67.3906   79.6787 H   0  0  0  0  0  0  0  0  0  0  0  0
  -39.7413   66.7367   78.9271 H   0  0  0  0  0  0  0  0  0  0  0  0
  -41.1677   65.7423   79.0991 H   0  0  0  0  0  0  0  0  0  0  0  0
  -40.9466   68.2014   77.4001 H   0  0  0  0  0  0  0  0  0  0  0  0
  -42.3723   67.1695   77.5783 H   0  0  0  0  0  0  0  0  0  0  0  0
  -41.1885   65.3299   76.6066 H   0  0  0  0  0  0  0  0  0  0  0  0
  -39.7534   66.3803   76.4365 H   0  0  0  0  0  0  0  0  0  0  0  0
  -40.8945   67.7407   74.8673 H   0  0  0  0  0  0  0  0  0  0  0  0
  -42.3412   66.7227   75.0439 H   0  0  0  0  0  0  0  0  0  0  0  0
  -41.1763   64.8583   74.1129 H   0  0  0  0  0  0  0  0  0  0  0  0
  -39.7191   65.8644   73.9509 H   0  0  0  0  0  0  0  0  0  0  0  0
  -36.0169   60.6560   61.0325 H   0  0  0  0  0  0  0  0  0  0  0  0
  -40.8253   67.2599   72.3705 H   0  0  0  0  0  0  0  0  0  0  0  0
  -42.2931   66.2739   72.5408 H   0  0  0  0  0  0  0  0  0  0  0  0
  -41.1024   65.7456   70.5137 H   0  0  0  0  0  0  0  0  0  0  0  0
  -41.1513   64.3887   71.6658 H   0  0  0  0  0  0  0  0  0  0  0  0
  -38.8772   65.5866   67.6612 H   0  0  0  0  0  0  0  0  0  0  0  0
  -38.8909   64.8065   72.2985 H   0  0  0  0  0  0  0  0  0  0  0  0
  -38.8389   66.1773   71.1649 H   0  0  0  0  0  0  0  0  0  0  0  0
  -38.7532   64.1873   63.2457 H   0  0  0  0  0  0  0  0  0  0  0  0
  -37.7039   64.2513   70.2788 H   0  0  0  0  0  0  0  0  0  0  0  0
  -39.1478   64.7073   69.3401 H   0  0  0  0  0  0  0  0  0  0  0  0
  -40.3771   62.9154   70.3048 H   0  0  0  0  0  0  0  0  0  0  0  0
  -38.9612   62.4628   71.2680 H   0  0  0  0  0  0  0  0  0  0  0  0
  -37.7426   61.9500   69.2770 H   0  0  0  0  0  0  0  0  0  0  0  0
  -39.1557   62.4181   68.3081 H   0  0  0  0  0  0  0  0  0  0  0  0
  -40.4149   60.6263   69.2317 H   0  0  0  0  0  0  0  0  0  0  0  0
  -39.0177   60.1628   70.2204 H   0  0  0  0  0  0  0  0  0  0  0  0
  -37.7656   59.6557   68.2561 H   0  0  0  0  0  0  0  0  0  0  0  0
  -39.1537   60.1357   67.2600 H   0  0  0  0  0  0  0  0  0  0  0  0
  -40.4488   58.3408   68.1556 H   0  0  0  0  0  0  0  0  0  0  0  0
  -39.0737   57.8657   69.1702 H   0  0  0  0  0  0  0  0  0  0  0  0
  -39.1270   57.8394   66.1967 H   0  0  0  0  0  0  0  0  0  0  0  0
  -39.2793   56.4381   67.2874 H   0  0  0  0  0  0  0  0  0  0  0  0
  -37.0687   56.7811   68.0855 H   0  0  0  0  0  0  0  0  0  0  0  0
  -36.9070   58.1944   67.0295 H   0  0  0  0  0  0  0  0  0  0  0  0
  -37.3047   55.3835   66.1196 H   0  0  0  0  0  0  0  0  0  0  0  0
  -35.7818   56.3083   66.1100 H   0  0  0  0  0  0  0  0  0  0  0  0
  -37.9762   58.5012   63.0358 H   0  0  0  0  0  0  0  0  0  0  0  0
  -36.4225   59.0678   62.6029 H   0  0  0  0  0  0  0  0  0  0  0  0
  -37.7985   60.8886   63.5519 H   0  0  0  0  0  0  0  0  0  0  0  0
  -36.3238   61.7163   65.2340 H   0  0  0  0  0  0  0  0  0  0  0  0
  -35.5811   60.1472   65.3829 H   0  0  0  0  0  0  0  0  0  0  0  0
  -35.8701   63.2402   65.0512 H   0  0  0  0  0  0  0  0  0  0  0  0
  -37.2792   62.2554   64.7852 H   0  0  0  0  0  0  0  0  0  0  0  0
  -37.1712   65.2421   64.6191 H   0  0  0  0  0  0  0  0  0  0  0  0
  -38.4229   63.5342   66.7102 H   0  0  0  0  0  0  0  0  0  0  0  0
  -36.9831   64.5241   66.8862 H   0  0  0  0  0  0  0  0  0  0  0  0
  -39.8120   61.6099   65.9605 H   0  0  0  0  0  0  0  0  0  0  0  0
  -40.7422   60.2820   66.6505 H   0  0  0  0  0  0  0  0  0  0  0  0
  -41.3020   61.6280   64.0365 H   0  0  0  0  0  0  0  0  0  0  0  0
  -42.1836   61.8584   65.5659 H   0  0  0  0  0  0  0  0  0  0  0  0
  -42.0404   59.3199   64.0184 H   0  0  0  0  0  0  0  0  0  0  0  0
  -43.4020   60.4616   64.0700 H   0  0  0  0  0  0  0  0  0  0  0  0
  -42.3391   58.9278   66.3943 H   0  0  0  0  0  0  0  0  0  0  0  0
  -43.8141   58.5722   65.4620 H   0  0  0  0  0  0  0  0  0  0  0  0
  -43.3358   61.0201   67.0780 H   0  0  0  0  0  0  0  0  0  0  0  0
  -44.3374   59.6110   67.5234 H   0  0  0  0  0  0  0  0  0  0  0  0
  -45.6935   61.4663   66.7936 H   0  0  0  0  0  0  0  0  0  0  0  0
  -45.7920   60.0441   65.7109 H   0  0  0  0  0  0  0  0  0  0  0  0
  -45.8216   62.1205   64.4661 H   0  0  0  0  0  0  0  0  0  0  0  0
  -44.4067   61.1218   64.1165 H   0  0  0  0  0  0  0  0  0  0  0  0
  -44.0525   63.2543   66.1355 H   0  0  0  0  0  0  0  0  0  0  0  0
  -42.5712   64.2351   64.7559 H   0  0  0  0  0  0  0  0  0  0  0  0
  -43.7692   63.2017   62.3858 H   0  0  0  0  0  0  0  0  0  0  0  0
  -42.5234   62.0682   62.9268 H   0  0  0  0  0  0  0  0  0  0  0  0
  -40.8733   63.8161   62.8592 H   0  0  0  0  0  0  0  0  0  0  0  0
  -42.1296   64.9567   62.3271 H   0  0  0  0  0  0  0  0  0  0  0  0
  -40.7348   64.2538   60.4898 H   0  0  0  0  0  0  0  0  0  0  0  0
  -42.4251   63.7278   60.3203 H   0  0  0  0  0  0  0  0  0  0  0  0
  -40.8904   62.0223   59.5894 H   0  0  0  0  0  0  0  0  0  0  0  0
  -41.8369   61.5454   61.0252 H   0  0  0  0  0  0  0  0  0  0  0  0
  -39.9560   61.9147   62.4267 H   0  0  0  0  0  0  0  0  0  0  0  0
  -39.0065   62.4177   61.0116 H   0  0  0  0  0  0  0  0  0  0  0  0
  -38.4576   60.1694   61.6912 H   0  0  0  0  0  0  0  0  0  0  0  0
  -39.2121   60.2453   60.0779 H   0  0  0  0  0  0  0  0  0  0  0  0
  -41.2737   59.4735   60.9725 H   0  0  0  0  0  0  0  0  0  0  0  0
  -40.5517   59.4183   62.5892 H   0  0  0  0  0  0  0  0  0  0  0  0
  -39.7295   57.7600   60.2538 H   0  0  0  0  0  0  0  0  0  0  0  0
  -40.6615   57.2147   61.6275 H   0  0  0  0  0  0  0  0  0  0  0  0
  -39.0062   57.7305   61.8441 H   0  0  0  0  0  0  0  0  0  0  0  0
  1  4  1  0  0  0  0
  1 54  1  0  0  0  0
  1 55  1  0  0  0  0
  1 56  1  0  0  0  0
  2 29  2  0  0  0  0
  3  7  1  0  0  0  0
  3  9  2  6  0  0  0
  3 11  1  0  0  0  0
  3 13  1  0  0  0  0
  4  6  1  0  0  0  0
  4 57  1  0  0  0  0
  4 58  1  0  0  0  0
  5 29  1  0  0  0  0
  5 30  1  0  0  0  0
  6  8  1  0  0  0  0
  6 59  1  0  0  0  0
  6 60  1  0  0  0  0
  7 32  1  0  0  0  0
  8 10  1  0  0  0  0
  8 61  1  0  0  0  0
  8 62  1  0  0  0  0
 10 12  1  0  0  0  0
 10 63  1  0  0  0  0
 10 64  1  0  0  0  0
 11 65  1  0  0  0  0
 12 14  1  0  0  0  0
 12 66  1  0  0  0  0
 12 67  1  0  0  0  0
 13 33  1  0  0  0  0
 14 16  1  0  0  0  0
 14 68  1  0  0  0  0
 14 69  1  0  0  0  0
 15 35  1  0  0  0  0
 15 70  1  0  0  0  0
 16 18  1  0  0  0  0
 16 71  1  0  0  0  0
 16 72  1  0  0  0  0
 17 34  1  0  0  0  0
 17 73  1  0  0  0  0
 18 20  1  0  0  0  0
 18 74  1  0  0  0  0
 18 75  1  0  0  0  0
 19 31  1  0  0  0  0
 19 36  1  0  0  0  0
 20 22  1  0  0  0  0
 20 76  1  0  0  0  0
 20 77  1  0  0  0  0
 21 36  2  0  0  0  0
 22 23  1  0  0  0  0
 22 78  1  0  0  0  0
 22 79  1  0  0  0  0
 23 24  1  0  0  0  0
 23 80  1  0  0  0  0
 23 81  1  0  0  0  0
 24 25  1  0  0  0  0
 24 82  1  0  0  0  0
 24 83  1  0  0  0  0
 25 26  1  0  0  0  0
 25 84  1  0  0  0  0
 25 85  1  0  0  0  0
 26 27  1  0  0  0  0
 26 86  1  0  0  0  0
 26 87  1  0  0  0  0
 27 28  1  0  0  0  0
 27 88  1  0  0  0  0
 27 89  1  0  0  0  0
 28 29  1  0  0  0  0
 28 90  1  0  0  0  0
 28 91  1  0  0  0  0
 30 31  1  0  0  0  0
 30 92  1  0  0  0  0
 30 93  1  0  0  0  0
 31 32  1  0  0  0  0
 31 94  1  6  0  0  0
 32 95  1  0  0  0  0
 32 96  1  0  0  0  0
 33 34  1  0  0  0  0
 33 97  1  0  0  0  0
 33 98  1  0  0  0  0
 34 35  1  0  0  0  0
 34 99  1  6  0  0  0
 35100  1  0  0  0  0
 35101  1  0  0  0  0
 36 37  1  0  0  0  0
 37 38  1  0  0  0  0
 37102  1  0  0  0  0
 37103  1  0  0  0  0
 38 39  1  0  0  0  0
 38104  1  0  0  0  0
 38105  1  0  0  0  0
 39 40  1  0  0  0  0
 39106  1  0  0  0  0
 39107  1  0  0  0  0
 40 41  1  0  0  0  0
 40108  1  0  0  0  0
 40109  1  0  0  0  0
 41 42  1  0  0  0  0
 41110  1  0  0  0  0
 41111  1  0  0  0  0
 42 43  1  0  0  0  0
 42112  1  0  0  0  0
 42113  1  0  0  0  0
 43 44  1  0  0  0  0
 43114  1  0  0  0  0
 43115  1  0  0  0  0
 44 45  2  0  0  0  0
 44116  1  0  0  0  0
 45 46  1  0  0  0  0
 45117  1  0  0  0  0
 46 47  1  0  0  0  0
 46118  1  0  0  0  0
 46119  1  0  0  0  0
 47 48  1  0  0  0  0
 47120  1  0  0  0  0
 47121  1  0  0  0  0
 48 49  1  0  0  0  0
 48122  1  0  0  0  0
 48123  1  0  0  0  0
 49 50  1  0  0  0  0
 49124  1  0  0  0  0
 49125  1  0  0  0  0
 50 51  1  0  0  0  0
 50126  1  0  0  0  0
 50127  1  0  0  0  0
 51 52  1  0  0  0  0
 51128  1  0  0  0  0
 51129  1  0  0  0  0
 52 53  1  0  0  0  0
 52130  1  0  0  0  0
 52131  1  0  0  0  0
 53132  1  0  0  0  0
 53133  1  0  0  0  0
 53134  1  0  0  0  0
M  CHG  1   9  -1
M  END
$$$$