/media/chris/experiments/cd1a-new-docking/inputs/ligands/7sh4_ligand.pdb
 OpenBabel07012320073D

134133  0  0  1  0  0  0  0  0999 V2000
  -44.3216   53.2714   70.4328 C   0  0  0  0  0  0  0  0  0  0  0  0
  -34.6407   59.2376   64.6391 O   0  0  0  0  0  0  0  0  0  0  0  0
  -35.6684   62.1020   62.4058 P   0  0  1  0  0  0  0  0  0  0  0  0
  -43.9867   52.1510   69.4744 C   0  0  0  0  0  0  0  0  0  0  0  0
  -36.5027   58.0190   64.4222 O   0  0  0  0  0  0  0  0  0  0  0  0
  -42.9988   52.5797   68.4061 C   0  0  0  0  0  0  0  0  0  0  0  0
  -35.2304   61.1139   63.5864 O   0  0  0  0  0  0  0  0  0  0  0  0
  -42.6378   51.4980   67.4037 C   0  0  0  0  0  0  0  0  0  0  0  0
  -34.4498   62.7510   61.8761 O   0  5  0  0  0  0  0  0  0  0  0  0
  -41.6325   51.9509   66.3541 C   0  0  0  0  0  0  0  0  0  0  0  0
  -36.5373   61.3473   61.4709 O   0  0  0  0  0  0  0  0  0  0  0  0
  -41.2845   50.8773   65.3434 C   0  0  0  0  0  0  0  0  0  0  0  0
  -36.5593   63.2254   63.1038 O   0  0  0  0  0  0  0  0  0  0  0  0
  -40.2699   51.3284   64.3103 C   0  0  0  0  0  0  0  0  0  0  0  0
  -38.7311   65.5517   66.7029 O   0  0  0  0  0  0  0  0  0  0  0  0
  -40.7165   52.5318   63.4878 C   0  0  0  0  0  0  0  0  0  0  0  0
  -38.9226   64.2386   64.1994 O   0  0  0  0  0  0  0  0  0  0  0  0
  -39.7083   52.9690   62.4459 C   0  0  0  0  0  0  0  0  0  0  0  0
  -38.2720   59.8520   65.2990 O   0  0  0  0  0  0  0  0  0  0  0  0
  -38.3589   53.3572   63.0157 C   0  0  0  0  0  0  0  0  0  0  0  0
  -36.9080   59.8350   67.0877 O   0  0  0  0  0  0  0  0  0  0  0  0
  -37.3819   53.8046   61.9512 C   0  0  0  0  0  0  0  0  0  0  0  0
  -36.0300   54.1780   62.4995 C   0  0  0  0  0  0  0  0  0  0  0  0
  -35.0677   54.6390   61.4324 C   0  0  0  0  0  0  0  0  0  0  0  0
  -33.7006   54.9996   61.9776 C   0  0  0  0  0  0  0  0  0  0  0  0
  -33.7469   56.1054   63.0076 C   0  0  0  0  0  0  0  0  0  0  0  0
  -34.5695   55.7754   64.2352 C   0  0  0  0  0  0  0  0  0  0  0  0
  -34.6084   56.9138   65.2406 C   0  0  0  0  0  0  0  0  0  0  0  0
  -35.2107   58.1821   64.7081 C   0  0  0  0  0  0  0  0  0  0  0  0
  -37.0720   58.9080   63.4380 C   0  0  0  0  0  0  0  0  0  0  0  0
  -37.3490   60.1700   64.2050 C   0  0  2  0  0  0  0  0  0  0  0  0
  -36.0840   60.8130   64.7130 C   0  0  0  0  0  0  0  0  0  0  0  0
  -36.7996   63.1759   64.5250 C   0  0  0  0  0  0  0  0  0  0  0  0
  -37.6793   64.3432   64.8997 C   0  0  2  0  0  0  0  0  0  0  0  0
  -37.9244   64.4242   66.3873 C   0  0  0  0  0  0  0  0  0  0  0  0
  -37.7394   59.3002   66.4062 C   0  0  0  0  0  0  0  0  0  0  0  0
  -38.3207   57.9508   66.6951 C   0  0  0  0  0  0  0  0  0  0  0  0
  -38.3353   57.6574   68.1919 C   0  0  0  0  0  0  0  0  0  0  0  0
  -39.1634   58.6393   69.0043 C   0  0  0  0  0  0  0  0  0  0  0  0
  -40.6358   58.6673   68.6106 C   0  0  0  0  0  0  0  0  0  0  0  0
  -41.3475   57.3391   68.7892 C   0  0  0  0  0  0  0  0  0  0  0  0
  -41.3656   56.8149   70.2279 C   0  0  0  0  0  0  0  0  0  0  0  0
  -39.9889   56.5866   70.8556 C   0  0  0  0  0  0  0  0  0  0  0  0
  -39.1707   55.5990   70.0790 C   0  0  0  0  0  0  0  0  0  0  0  0
  -37.8563   55.5761   69.9728 C   0  0  0  0  0  0  0  0  0  0  0  0
  -36.9024   56.5362   70.6105 C   0  0  0  0  0  0  0  0  0  0  0  0
  -35.4483   56.2285   70.2648 C   0  0  0  0  0  0  0  0  0  0  0  0
  -34.4542   57.1767   70.9119 C   0  0  0  0  0  0  0  0  0  0  0  0
  -34.6628   58.6323   70.5308 C   0  0  0  0  0  0  0  0  0  0  0  0
  -34.5630   58.9135   69.0407 C   0  0  0  0  0  0  0  0  0  0  0  0
  -34.7586   60.3798   68.6867 C   0  0  0  0  0  0  0  0  0  0  0  0
  -36.0974   60.9493   69.1123 C   0  0  0  0  0  0  0  0  0  0  0  0
  -36.2623   62.3941   68.7317 C   0  0  0  0  0  0  0  0  0  0  0  0
  -45.0192   52.9190   71.1636 H   0  0  0  0  0  0  0  0  0  0  0  0
  -44.7539   54.0867   69.8912 H   0  0  0  0  0  0  0  0  0  0  0  0
  -43.4289   53.6013   70.9217 H   0  0  0  0  0  0  0  0  0  0  0  0
  -44.8878   51.8253   68.9983 H   0  0  0  0  0  0  0  0  0  0  0  0
  -43.5346   51.3628   70.0394 H   0  0  0  0  0  0  0  0  0  0  0  0
  -42.0998   52.8971   68.8918 H   0  0  0  0  0  0  0  0  0  0  0  0
  -43.4753   53.3597   67.8499 H   0  0  0  0  0  0  0  0  0  0  0  0
  -43.5318   51.1877   66.9042 H   0  0  0  0  0  0  0  0  0  0  0  0
  -42.1810   50.7012   67.9527 H   0  0  0  0  0  0  0  0  0  0  0  0
  -40.7342   52.2495   66.8530 H   0  0  0  0  0  0  0  0  0  0  0  0
  -42.0850   52.7557   65.8133 H   0  0  0  0  0  0  0  0  0  0  0  0
  -36.0169   60.6560   61.0325 H   0  0  0  0  0  0  0  0  0  0  0  0
  -42.1801   50.5872   64.8349 H   0  0  0  0  0  0  0  0  0  0  0  0
  -40.8450   50.0652   65.8840 H   0  0  0  0  0  0  0  0  0  0  0  0
  -40.0853   50.5136   63.6417 H   0  0  0  0  0  0  0  0  0  0  0  0
  -39.3936   51.6275   64.8466 H   0  0  0  0  0  0  0  0  0  0  0  0
  -38.8772   65.5866   67.6612 H   0  0  0  0  0  0  0  0  0  0  0  0
  -40.8890   53.3506   64.1546 H   0  0  0  0  0  0  0  0  0  0  0  0
  -41.6007   52.2383   62.9616 H   0  0  0  0  0  0  0  0  0  0  0  0
  -38.7532   64.1873   63.2457 H   0  0  0  0  0  0  0  0  0  0  0  0
  -40.1084   53.8134   61.9246 H   0  0  0  0  0  0  0  0  0  0  0  0
  -39.5424   52.1284   61.8050 H   0  0  0  0  0  0  0  0  0  0  0  0
  -37.9464   52.5114   63.5251 H   0  0  0  0  0  0  0  0  0  0  0  0
  -38.5138   54.1822   63.6792 H   0  0  0  0  0  0  0  0  0  0  0  0
  -37.7922   54.6568   61.4508 H   0  0  0  0  0  0  0  0  0  0  0  0
  -37.2365   52.9776   61.2880 H   0  0  0  0  0  0  0  0  0  0  0  0
  -35.6125   53.3228   62.9888 H   0  0  0  0  0  0  0  0  0  0  0  0
  -36.1734   54.9947   63.1757 H   0  0  0  0  0  0  0  0  0  0  0  0
  -35.4804   55.5012   60.9516 H   0  0  0  0  0  0  0  0  0  0  0  0
  -34.9339   53.8248   60.7512 H   0  0  0  0  0  0  0  0  0  0  0  0
  -33.0823   55.3173   61.1641 H   0  0  0  0  0  0  0  0  0  0  0  0
  -33.3095   54.1288   62.4610 H   0  0  0  0  0  0  0  0  0  0  0  0
  -34.1654   56.9758   62.5471 H   0  0  0  0  0  0  0  0  0  0  0  0
  -32.7418   56.2564   63.3422 H   0  0  0  0  0  0  0  0  0  0  0  0
  -34.1462   54.9147   64.7094 H   0  0  0  0  0  0  0  0  0  0  0  0
  -35.5737   55.5965   63.9118 H   0  0  0  0  0  0  0  0  0  0  0  0
  -33.6059   57.1224   65.5510 H   0  0  0  0  0  0  0  0  0  0  0  0
  -35.2324   56.5913   66.0478 H   0  0  0  0  0  0  0  0  0  0  0  0
  -37.9762   58.5012   63.0358 H   0  0  0  0  0  0  0  0  0  0  0  0
  -36.4225   59.0678   62.6029 H   0  0  0  0  0  0  0  0  0  0  0  0
  -37.7985   60.8886   63.5519 H   0  0  0  0  0  0  0  0  0  0  0  0
  -36.3238   61.7163   65.2340 H   0  0  0  0  0  0  0  0  0  0  0  0
  -35.5811   60.1472   65.3829 H   0  0  0  0  0  0  0  0  0  0  0  0
  -35.8701   63.2402   65.0512 H   0  0  0  0  0  0  0  0  0  0  0  0
  -37.2792   62.2554   64.7852 H   0  0  0  0  0  0  0  0  0  0  0  0
  -37.1712   65.2421   64.6191 H   0  0  0  0  0  0  0  0  0  0  0  0
  -38.4229   63.5342   66.7102 H   0  0  0  0  0  0  0  0  0  0  0  0
  -36.9831   64.5241   66.8862 H   0  0  0  0  0  0  0  0  0  0  0  0
  -37.7330   57.2059   66.2005 H   0  0  0  0  0  0  0  0  0  0  0  0
  -39.3301   57.9370   66.3403 H   0  0  0  0  0  0  0  0  0  0  0  0
  -37.3279   57.6884   68.5511 H   0  0  0  0  0  0  0  0  0  0  0  0
  -38.7862   56.6949   68.3151 H   0  0  0  0  0  0  0  0  0  0  0  0
  -38.7575   59.6197   68.8661 H   0  0  0  0  0  0  0  0  0  0  0  0
  -39.1172   58.3202   70.0246 H   0  0  0  0  0  0  0  0  0  0  0  0
  -40.7034   58.9494   67.5807 H   0  0  0  0  0  0  0  0  0  0  0  0
  -41.1173   59.3666   69.2618 H   0  0  0  0  0  0  0  0  0  0  0  0
  -40.8575   56.6125   68.1752 H   0  0  0  0  0  0  0  0  0  0  0  0
  -42.3682   57.5020   68.5125 H   0  0  0  0  0  0  0  0  0  0  0  0
  -41.8908   55.8826   70.2339 H   0  0  0  0  0  0  0  0  0  0  0  0
  -41.8373   57.5750   70.8149 H   0  0  0  0  0  0  0  0  0  0  0  0
  -40.1207   56.2180   71.8514 H   0  0  0  0  0  0  0  0  0  0  0  0
  -39.4670   57.5207   70.8529 H   0  0  0  0  0  0  0  0  0  0  0  0
  -39.6890   54.8617   69.5763 H   0  0  0  0  0  0  0  0  0  0  0  0
  -37.4472   54.8251   69.3952 H   0  0  0  0  0  0  0  0  0  0  0  0
  -37.0213   56.4841   71.6726 H   0  0  0  0  0  0  0  0  0  0  0  0
  -37.1261   57.5140   70.2380 H   0  0  0  0  0  0  0  0  0  0  0  0
  -35.3329   56.2910   69.2028 H   0  0  0  0  0  0  0  0  0  0  0  0
  -35.2375   55.2493   70.6410 H   0  0  0  0  0  0  0  0  0  0  0  0
  -33.4681   56.8874   70.6140 H   0  0  0  0  0  0  0  0  0  0  0  0
  -34.5977   57.1065   71.9699 H   0  0  0  0  0  0  0  0  0  0  0  0
  -33.9213   59.2187   71.0320 H   0  0  0  0  0  0  0  0  0  0  0  0
  -35.6614   58.8832   70.8218 H   0  0  0  0  0  0  0  0  0  0  0  0
  -35.3128   58.3403   68.5366 H   0  0  0  0  0  0  0  0  0  0  0  0
  -33.5736   58.6446   68.7347 H   0  0  0  0  0  0  0  0  0  0  0  0
  -34.6724   60.4830   67.6252 H   0  0  0  0  0  0  0  0  0  0  0  0
  -34.0089   60.9270   69.2191 H   0  0  0  0  0  0  0  0  0  0  0  0
  -36.1832   60.8637   70.1754 H   0  0  0  0  0  0  0  0  0  0  0  0
  -36.8596   60.3936   68.6071 H   0  0  0  0  0  0  0  0  0  0  0  0
  -35.5127   62.9798   69.2217 H   0  0  0  0  0  0  0  0  0  0  0  0
  -37.2320   62.7333   69.0307 H   0  0  0  0  0  0  0  0  0  0  0  0
  -36.1594   62.4977   67.6717 H   0  0  0  0  0  0  0  0  0  0  0  0
  1  4  1  0  0  0  0
  1 54  1  0  0  0  0
  1 55  1  0  0  0  0
  1 56  1  0  0  0  0
  2 29  2  0  0  0  0
  3  7  1  0  0  0  0
  3  9  2  6  0  0  0
  3 11  1  0  0  0  0
  3 13  1  0  0  0  0
  4  6  1  0  0  0  0
  4 57  1  0  0  0  0
  4 58  1  0  0  0  0
  5 29  1  0  0  0  0
  5 30  1  0  0  0  0
  6  8  1  0  0  0  0
  6 59  1  0  0  0  0
  6 60  1  0  0  0  0
  7 32  1  0  0  0  0
  8 10  1  0  0  0  0
  8 61  1  0  0  0  0
  8 62  1  0  0  0  0
 10 12  1  0  0  0  0
 10 63  1  0  0  0  0
 10 64  1  0  0  0  0
 11 65  1  0  0  0  0
 12 14  1  0  0  0  0
 12 66  1  0  0  0  0
 12 67  1  0  0  0  0
 13 33  1  0  0  0  0
 14 16  1  0  0  0  0
 14 68  1  0  0  0  0
 14 69  1  0  0  0  0
 15 35  1  0  0  0  0
 15 70  1  0  0  0  0
 16 18  1  0  0  0  0
 16 71  1  0  0  0  0
 16 72  1  0  0  0  0
 17 34  1  0  0  0  0
 17 73  1  0  0  0  0
 18 20  1  0  0  0  0
 18 74  1  0  0  0  0
 18 75  1  0  0  0  0
 19 31  1  0  0  0  0
 19 36  1  0  0  0  0
 20 22  1  0  0  0  0
 20 76  1  0  0  0  0
 20 77  1  0  0  0  0
 21 36  2  0  0  0  0
 22 23  1  0  0  0  0
 22 78  1  0  0  0  0
 22 79  1  0  0  0  0
 23 24  1  0  0  0  0
 23 80  1  0  0  0  0
 23 81  1  0  0  0  0
 24 25  1  0  0  0  0
 24 82  1  0  0  0  0
 24 83  1  0  0  0  0
 25 26  1  0  0  0  0
 25 84  1  0  0  0  0
 25 85  1  0  0  0  0
 26 27  1  0  0  0  0
 26 86  1  0  0  0  0
 26 87  1  0  0  0  0
 27 28  1  0  0  0  0
 27 88  1  0  0  0  0
 27 89  1  0  0  0  0
 28 29  1  0  0  0  0
 28 90  1  0  0  0  0
 28 91  1  0  0  0  0
 30 31  1  0  0  0  0
 30 92  1  0  0  0  0
 30 93  1  0  0  0  0
 31 32  1  0  0  0  0
 31 94  1  6  0  0  0
 32 95  1  0  0  0  0
 32 96  1  0  0  0  0
 33 34  1  0  0  0  0
 33 97  1  0  0  0  0
 33 98  1  0  0  0  0
 34 35  1  0  0  0  0
 34 99  1  6  0  0  0
 35100  1  0  0  0  0
 35101  1  0  0  0  0
 36 37  1  0  0  0  0
 37 38  1  0  0  0  0
 37102  1  0  0  0  0
 37103  1  0  0  0  0
 38 39  1  0  0  0  0
 38104  1  0  0  0  0
 38105  1  0  0  0  0
 39 40  1  0  0  0  0
 39106  1  0  0  0  0
 39107  1  0  0  0  0
 40 41  1  0  0  0  0
 40108  1  0  0  0  0
 40109  1  0  0  0  0
 41 42  1  0  0  0  0
 41110  1  0  0  0  0
 41111  1  0  0  0  0
 42 43  1  0  0  0  0
 42112  1  0  0  0  0
 42113  1  0  0  0  0
 43 44  1  0  0  0  0
 43114  1  0  0  0  0
 43115  1  0  0  0  0
 44 45  2  0  0  0  0
 44116  1  0  0  0  0
 45 46  1  0  0  0  0
 45117  1  0  0  0  0
 46 47  1  0  0  0  0
 46118  1  0  0  0  0
 46119  1  0  0  0  0
 47 48  1  0  0  0  0
 47120  1  0  0  0  0
 47121  1  0  0  0  0
 48 49  1  0  0  0  0
 48122  1  0  0  0  0
 48123  1  0  0  0  0
 49 50  1  0  0  0  0
 49124  1  0  0  0  0
 49125  1  0  0  0  0
 50 51  1  0  0  0  0
 50126  1  0  0  0  0
 50127  1  0  0  0  0
 51 52  1  0  0  0  0
 51128  1  0  0  0  0
 51129  1  0  0  0  0
 52 53  1  0  0  0  0
 52130  1  0  0  0  0
 52131  1  0  0  0  0
 53132  1  0  0  0  0
 53133  1  0  0  0  0
 53134  1  0  0  0  0
M  CHG  1   9  -1
M  END
$$$$