/media/chris/experiments/cd1a-new-docking/inputs/ligands/7sh4_ligand.pdb
 OpenBabel07012320073D

134133  0  0  1  0  0  0  0  0999 V2000
  -48.5416   54.5474   59.8083 C   0  0  0  0  0  0  0  0  0  0  0  0
  -38.3399   56.7492   64.5309 O   0  0  0  0  0  0  0  0  0  0  0  0
  -35.6684   62.1020   62.4058 P   0  0  1  0  0  0  0  0  0  0  0  0
  -47.4511   55.3378   60.4954 C   0  0  0  0  0  0  0  0  0  0  0  0
  -36.5027   58.0190   64.4222 O   0  0  0  0  0  0  0  0  0  0  0  0
  -46.6339   56.1641   59.5206 C   0  0  0  0  0  0  0  0  0  0  0  0
  -35.2304   61.1139   63.5864 O   0  0  0  0  0  0  0  0  0  0  0  0
  -45.5115   56.9671   60.1535 C   0  0  0  0  0  0  0  0  0  0  0  0
  -37.0301   62.5959   62.7036 O   0  5  0  0  0  0  0  0  0  0  0  0
  -44.7194   57.7993   59.1547 C   0  0  0  0  0  0  0  0  0  0  0  0
  -34.5810   63.0894   62.2031 O   0  0  0  0  0  0  0  0  0  0  0  0
  -44.0655   56.9775   58.0629 C   0  0  0  0  0  0  0  0  0  0  0  0
  -35.7515   61.1898   61.1005 O   0  0  0  0  0  0  0  0  0  0  0  0
  -43.0953   55.9379   58.5903 C   0  0  0  0  0  0  0  0  0  0  0  0
  -38.7054   61.5929   58.0541 O   0  0  0  0  0  0  0  0  0  0  0  0
  -41.9456   56.5204   59.4046 C   0  0  0  0  0  0  0  0  0  0  0  0
  -36.3983   62.9482   59.0264 O   0  0  0  0  0  0  0  0  0  0  0  0
  -40.9696   55.4814   59.9154 C   0  0  0  0  0  0  0  0  0  0  0  0
  -38.2720   59.8520   65.2990 O   0  0  0  0  0  0  0  0  0  0  0  0
  -40.2829   54.6878   58.8223 C   0  0  0  0  0  0  0  0  0  0  0  0
  -37.5278   61.1795   66.9555 O   0  0  0  0  0  0  0  0  0  0  0  0
  -39.3284   53.6483   59.3666 C   0  0  0  0  0  0  0  0  0  0  0  0
  -38.2299   54.2317   60.2155 C   0  0  0  0  0  0  0  0  0  0  0  0
  -37.2731   53.1891   60.7400 C   0  0  0  0  0  0  0  0  0  0  0  0
  -36.1758   53.7699   61.6088 C   0  0  0  0  0  0  0  0  0  0  0  0
  -36.7041   54.4724   62.8389 C   0  0  0  0  0  0  0  0  0  0  0  0
  -35.6293   55.0774   63.7172 C   0  0  0  0  0  0  0  0  0  0  0  0
  -36.1936   55.7599   64.9518 C   0  0  0  0  0  0  0  0  0  0  0  0
  -37.1513   56.8767   64.6514 C   0  0  0  0  0  0  0  0  0  0  0  0
  -37.0720   58.9080   63.4380 C   0  0  0  0  0  0  0  0  0  0  0  0
  -37.3490   60.1700   64.2050 C   0  0  2  0  0  0  0  0  0  0  0  0
  -36.0840   60.8130   64.7130 C   0  0  0  0  0  0  0  0  0  0  0  0
  -36.9973   61.0668   60.3844 C   0  0  0  0  0  0  0  0  0  0  0  0
  -37.4067   62.4371   59.9032 C   0  0  2  0  0  0  0  0  0  0  0  0
  -38.7461   62.4252   59.2062 C   0  0  0  0  0  0  0  0  0  0  0  0
  -37.8399   60.0926   66.5518 C   0  0  0  0  0  0  0  0  0  0  0  0
  -37.8132   58.8482   67.3841 C   0  0  0  0  0  0  0  0  0  0  0  0
  -37.3389   59.1363   68.8050 C   0  0  0  0  0  0  0  0  0  0  0  0
  -35.9454   59.7386   68.8794 C   0  0  0  0  0  0  0  0  0  0  0  0
  -35.4726   60.0075   70.3034 C   0  0  0  0  0  0  0  0  0  0  0  0
  -36.3638   60.9589   71.0801 C   0  0  0  0  0  0  0  0  0  0  0  0
  -37.8058   60.4762   71.2607 C   0  0  0  0  0  0  0  0  0  0  0  0
  -37.9611   59.1582   72.0225 C   0  0  0  0  0  0  0  0  0  0  0  0
  -37.2413   58.0284   71.3492 C   0  0  0  0  0  0  0  0  0  0  0  0
  -35.9950   57.6520   71.5601 C   0  0  0  0  0  0  0  0  0  0  0  0
  -35.0349   58.2771   72.5222 C   0  0  0  0  0  0  0  0  0  0  0  0
  -33.7877   58.8199   71.8306 C   0  0  0  0  0  0  0  0  0  0  0  0
  -33.0020   57.7636   71.0736 C   0  0  0  0  0  0  0  0  0  0  0  0
  -31.7513   58.3005   70.3991 C   0  0  0  0  0  0  0  0  0  0  0  0
  -32.0068   59.4034   69.3853 C   0  0  0  0  0  0  0  0  0  0  0  0
  -30.7413   59.9120   68.7119 C   0  0  0  0  0  0  0  0  0  0  0  0
  -30.9743   61.0246   67.7092 C   0  0  0  0  0  0  0  0  0  0  0  0
  -31.8941   60.6174   66.5921 C   0  0  0  0  0  0  0  0  0  0  0  0
  -49.0866   53.9840   60.5367 H   0  0  0  0  0  0  0  0  0  0  0  0
  -48.1035   53.8800   59.0959 H   0  0  0  0  0  0  0  0  0  0  0  0
  -49.2064   55.2188   59.3062 H   0  0  0  0  0  0  0  0  0  0  0  0
  -46.7984   54.6561   60.9995 H   0  0  0  0  0  0  0  0  0  0  0  0
  -47.9198   56.0119   61.1815 H   0  0  0  0  0  0  0  0  0  0  0  0
  -47.2941   56.8462   59.0269 H   0  0  0  0  0  0  0  0  0  0  0  0
  -46.1686   55.4698   58.8525 H   0  0  0  0  0  0  0  0  0  0  0  0
  -44.8399   56.2879   60.6358 H   0  0  0  0  0  0  0  0  0  0  0  0
  -45.9638   57.6499   60.8421 H   0  0  0  0  0  0  0  0  0  0  0  0
  -43.9543   58.3265   59.6854 H   0  0  0  0  0  0  0  0  0  0  0  0
  -45.4129   58.4596   58.6773 H   0  0  0  0  0  0  0  0  0  0  0  0
  -34.5103   63.6579   62.9859 H   0  0  0  0  0  0  0  0  0  0  0  0
  -43.5327   57.6398   57.4130 H   0  0  0  0  0  0  0  0  0  0  0  0
  -44.8457   56.4515   57.5534 H   0  0  0  0  0  0  0  0  0  0  0  0
  -42.6830   55.4087   57.7567 H   0  0  0  0  0  0  0  0  0  0  0  0
  -43.6499   55.3019   59.2482 H   0  0  0  0  0  0  0  0  0  0  0  0
  -39.5731   61.5981   57.6207 H   0  0  0  0  0  0  0  0  0  0  0  0
  -42.3568   57.0390   60.2454 H   0  0  0  0  0  0  0  0  0  0  0  0
  -41.3981   57.1675   58.7516 H   0  0  0  0  0  0  0  0  0  0  0  0
  -35.5431   62.9513   59.4842 H   0  0  0  0  0  0  0  0  0  0  0  0
  -41.5036   54.7979   60.5420 H   0  0  0  0  0  0  0  0  0  0  0  0
  -40.2024   56.0106   60.4411 H   0  0  0  0  0  0  0  0  0  0  0  0
  -39.7340   55.3646   58.2014 H   0  0  0  0  0  0  0  0  0  0  0  0
  -41.0420   54.1725   58.2718 H   0  0  0  0  0  0  0  0  0  0  0  0
  -38.8823   53.1325   58.5421 H   0  0  0  0  0  0  0  0  0  0  0  0
  -39.8977   52.9935   59.9928 H   0  0  0  0  0  0  0  0  0  0  0  0
  -38.6739   54.7365   61.0479 H   0  0  0  0  0  0  0  0  0  0  0  0
  -37.6678   54.8996   59.5968 H   0  0  0  0  0  0  0  0  0  0  0  0
  -36.8207   52.6929   59.9070 H   0  0  0  0  0  0  0  0  0  0  0  0
  -37.8389   52.5160   61.3497 H   0  0  0  0  0  0  0  0  0  0  0  0
  -35.6177   54.4739   61.0276 H   0  0  0  0  0  0  0  0  0  0  0  0
  -35.5677   52.9552   61.9425 H   0  0  0  0  0  0  0  0  0  0  0  0
  -37.2531   53.7622   63.4213 H   0  0  0  0  0  0  0  0  0  0  0  0
  -37.3113   55.2828   62.4934 H   0  0  0  0  0  0  0  0  0  0  0  0
  -35.0866   55.8004   63.1447 H   0  0  0  0  0  0  0  0  0  0  0  0
  -34.9981   54.2800   64.0498 H   0  0  0  0  0  0  0  0  0  0  0  0
  -35.3778   56.1597   65.5171 H   0  0  0  0  0  0  0  0  0  0  0  0
  -36.7448   55.0173   65.4900 H   0  0  0  0  0  0  0  0  0  0  0  0
  -37.9762   58.5012   63.0358 H   0  0  0  0  0  0  0  0  0  0  0  0
  -36.4225   59.0678   62.6029 H   0  0  0  0  0  0  0  0  0  0  0  0
  -37.7985   60.8886   63.5519 H   0  0  0  0  0  0  0  0  0  0  0  0
  -36.3238   61.7163   65.2340 H   0  0  0  0  0  0  0  0  0  0  0  0
  -35.5811   60.1472   65.3829 H   0  0  0  0  0  0  0  0  0  0  0  0
  -37.7502   60.6719   61.0340 H   0  0  0  0  0  0  0  0  0  0  0  0
  -36.8793   60.4047   59.5521 H   0  0  0  0  0  0  0  0  0  0  0  0
  -37.5078   63.0705   60.7597 H   0  0  0  0  0  0  0  0  0  0  0  0
  -39.4898   62.0553   59.8807 H   0  0  0  0  0  0  0  0  0  0  0  0
  -38.9844   63.4229   58.9017 H   0  0  0  0  0  0  0  0  0  0  0  0
  -37.1485   58.1418   66.9322 H   0  0  0  0  0  0  0  0  0  0  0  0
  -38.8077   58.4568   67.4350 H   0  0  0  0  0  0  0  0  0  0  0  0
  -37.3382   58.2171   69.3527 H   0  0  0  0  0  0  0  0  0  0  0  0
  -38.0119   59.8594   69.2162 H   0  0  0  0  0  0  0  0  0  0  0  0
  -35.9480   60.6645   68.3431 H   0  0  0  0  0  0  0  0  0  0  0  0
  -35.2715   59.0244   68.4544 H   0  0  0  0  0  0  0  0  0  0  0  0
  -34.4899   60.4285   70.2579 H   0  0  0  0  0  0  0  0  0  0  0  0
  -35.4958   59.0705   70.8196 H   0  0  0  0  0  0  0  0  0  0  0  0
  -36.3872   61.8938   70.5602 H   0  0  0  0  0  0  0  0  0  0  0  0
  -35.9440   61.0352   72.0613 H   0  0  0  0  0  0  0  0  0  0  0  0
  -38.2367   60.3499   70.2894 H   0  0  0  0  0  0  0  0  0  0  0  0
  -38.2962   61.2207   71.8524 H   0  0  0  0  0  0  0  0  0  0  0  0
  -39.0015   58.9162   72.0842 H   0  0  0  0  0  0  0  0  0  0  0  0
  -37.5338   59.2878   72.9948 H   0  0  0  0  0  0  0  0  0  0  0  0
  -37.7756   57.4903   70.6492 H   0  0  0  0  0  0  0  0  0  0  0  0
  -35.6494   56.8505   71.0093 H   0  0  0  0  0  0  0  0  0  0  0  0
  -34.7371   57.5398   73.2382 H   0  0  0  0  0  0  0  0  0  0  0  0
  -35.5324   59.1005   72.9906 H   0  0  0  0  0  0  0  0  0  0  0  0
  -33.1485   59.2486   72.5739 H   0  0  0  0  0  0  0  0  0  0  0  0
  -34.1171   59.5404   71.1113 H   0  0  0  0  0  0  0  0  0  0  0  0
  -33.6374   57.3436   70.3221 H   0  0  0  0  0  0  0  0  0  0  0  0
  -32.6831   57.0366   71.7911 H   0  0  0  0  0  0  0  0  0  0  0  0
  -31.2684   57.4890   69.8958 H   0  0  0  0  0  0  0  0  0  0  0  0
  -31.1493   58.7307   71.1720 H   0  0  0  0  0  0  0  0  0  0  0  0
  -32.4763   60.2232   69.8876 H   0  0  0  0  0  0  0  0  0  0  0  0
  -32.6273   58.9890   68.6184 H   0  0  0  0  0  0  0  0  0  0  0  0
  -30.2799   59.0921   68.2021 H   0  0  0  0  0  0  0  0  0  0  0  0
  -30.1244   60.3197   69.4853 H   0  0  0  0  0  0  0  0  0  0  0  0
  -30.0322   61.3099   67.2897 H   0  0  0  0  0  0  0  0  0  0  0  0
  -31.4385   61.8360   68.2298 H   0  0  0  0  0  0  0  0  0  0  0  0
  -31.4581   59.8049   66.0494 H   0  0  0  0  0  0  0  0  0  0  0  0
  -32.0438   61.4470   65.9331 H   0  0  0  0  0  0  0  0  0  0  0  0
  -32.8351   60.3106   66.9988 H   0  0  0  0  0  0  0  0  0  0  0  0
  1  4  1  0  0  0  0
  1 54  1  0  0  0  0
  1 55  1  0  0  0  0
  1 56  1  0  0  0  0
  2 29  2  0  0  0  0
  3  7  1  0  0  0  0
  3  9  2  1  0  0  0
  3 11  1  0  0  0  0
  3 13  1  0  0  0  0
  4  6  1  0  0  0  0
  4 57  1  0  0  0  0
  4 58  1  0  0  0  0
  5 29  1  0  0  0  0
  5 30  1  0  0  0  0
  6  8  1  0  0  0  0
  6 59  1  0  0  0  0
  6 60  1  0  0  0  0
  7 32  1  0  0  0  0
  8 10  1  0  0  0  0
  8 61  1  0  0  0  0
  8 62  1  0  0  0  0
 10 12  1  0  0  0  0
 10 63  1  0  0  0  0
 10 64  1  0  0  0  0
 11 65  1  0  0  0  0
 12 14  1  0  0  0  0
 12 66  1  0  0  0  0
 12 67  1  0  0  0  0
 13 33  1  0  0  0  0
 14 16  1  0  0  0  0
 14 68  1  0  0  0  0
 14 69  1  0  0  0  0
 15 35  1  0  0  0  0
 15 70  1  0  0  0  0
 16 18  1  0  0  0  0
 16 71  1  0  0  0  0
 16 72  1  0  0  0  0
 17 34  1  0  0  0  0
 17 73  1  0  0  0  0
 18 20  1  0  0  0  0
 18 74  1  0  0  0  0
 18 75  1  0  0  0  0
 19 31  1  0  0  0  0
 19 36  1  0  0  0  0
 20 22  1  0  0  0  0
 20 76  1  0  0  0  0
 20 77  1  0  0  0  0
 21 36  2  0  0  0  0
 22 23  1  0  0  0  0
 22 78  1  0  0  0  0
 22 79  1  0  0  0  0
 23 24  1  0  0  0  0
 23 80  1  0  0  0  0
 23 81  1  0  0  0  0
 24 25  1  0  0  0  0
 24 82  1  0  0  0  0
 24 83  1  0  0  0  0
 25 26  1  0  0  0  0
 25 84  1  0  0  0  0
 25 85  1  0  0  0  0
 26 27  1  0  0  0  0
 26 86  1  0  0  0  0
 26 87  1  0  0  0  0
 27 28  1  0  0  0  0
 27 88  1  0  0  0  0
 27 89  1  0  0  0  0
 28 29  1  0  0  0  0
 28 90  1  0  0  0  0
 28 91  1  0  0  0  0
 30 31  1  0  0  0  0
 30 92  1  0  0  0  0
 30 93  1  0  0  0  0
 31 32  1  0  0  0  0
 31 94  1  6  0  0  0
 32 95  1  0  0  0  0
 32 96  1  0  0  0  0
 33 34  1  0  0  0  0
 33 97  1  0  0  0  0
 33 98  1  0  0  0  0
 34 35  1  0  0  0  0
 34 99  1  1  0  0  0
 35100  1  0  0  0  0
 35101  1  0  0  0  0
 36 37  1  0  0  0  0
 37 38  1  0  0  0  0
 37102  1  0  0  0  0
 37103  1  0  0  0  0
 38 39  1  0  0  0  0
 38104  1  0  0  0  0
 38105  1  0  0  0  0
 39 40  1  0  0  0  0
 39106  1  0  0  0  0
 39107  1  0  0  0  0
 40 41  1  0  0  0  0
 40108  1  0  0  0  0
 40109  1  0  0  0  0
 41 42  1  0  0  0  0
 41110  1  0  0  0  0
 41111  1  0  0  0  0
 42 43  1  0  0  0  0
 42112  1  0  0  0  0
 42113  1  0  0  0  0
 43 44  1  0  0  0  0
 43114  1  0  0  0  0
 43115  1  0  0  0  0
 44 45  2  0  0  0  0
 44116  1  0  0  0  0
 45 46  1  0  0  0  0
 45117  1  0  0  0  0
 46 47  1  0  0  0  0
 46118  1  0  0  0  0
 46119  1  0  0  0  0
 47 48  1  0  0  0  0
 47120  1  0  0  0  0
 47121  1  0  0  0  0
 48 49  1  0  0  0  0
 48122  1  0  0  0  0
 48123  1  0  0  0  0
 49 50  1  0  0  0  0
 49124  1  0  0  0  0
 49125  1  0  0  0  0
 50 51  1  0  0  0  0
 50126  1  0  0  0  0
 50127  1  0  0  0  0
 51 52  1  0  0  0  0
 51128  1  0  0  0  0
 51129  1  0  0  0  0
 52 53  1  0  0  0  0
 52130  1  0  0  0  0
 52131  1  0  0  0  0
 53132  1  0  0  0  0
 53133  1  0  0  0  0
 53134  1  0  0  0  0
M  CHG  1   9  -1
M  END
$$$$