/media/chris/experiments/cd1a-new-docking/inputs/ligands/7sh4_ligand.pdb
 OpenBabel07012320073D

134133  0  0  1  0  0  0  0  0999 V2000
  -40.6807   48.0168   73.2404 C   0  0  0  0  0  0  0  0  0  0  0  0
  -38.4164   57.8457   65.5656 O   0  0  0  0  0  0  0  0  0  0  0  0
  -37.2082   63.2406   64.7182 P   0  0  1  0  0  0  0  0  0  0  0  0
  -40.4290   47.9012   74.7267 C   0  0  0  0  0  0  0  0  0  0  0  0
  -36.5027   58.0190   64.4222 O   0  0  0  0  0  0  0  0  0  0  0  0
  -39.4524   48.9466   75.2310 C   0  0  0  0  0  0  0  0  0  0  0  0
  -36.4293   62.0282   65.4148 O   0  0  0  0  0  0  0  0  0  0  0  0
  -38.0816   48.9021   74.5798 C   0  0  0  0  0  0  0  0  0  0  0  0
  -37.3745   64.3145   65.7211 O   0  5  0  0  0  0  0  0  0  0  0  0
  -37.1175   49.9507   75.1169 C   0  0  0  0  0  0  0  0  0  0  0  0
  -36.5222   63.5576   63.4424 O   0  0  0  0  0  0  0  0  0  0  0  0
  -37.6064   51.3735   74.9380 C   0  0  0  0  0  0  0  0  0  0  0  0
  -38.6545   62.6678   64.3676 O   0  0  0  0  0  0  0  0  0  0  0  0
  -37.8536   51.7482   73.4893 C   0  0  0  0  0  0  0  0  0  0  0  0
  -42.2778   64.8891   64.6928 O   0  0  0  0  0  0  0  0  0  0  0  0
  -36.6218   51.6266   72.5993 C   0  0  0  0  0  0  0  0  0  0  0  0
  -39.9605   64.7550   63.0447 O   0  0  0  0  0  0  0  0  0  0  0  0
  -36.8679   52.0176   71.1572 C   0  0  0  0  0  0  0  0  0  0  0  0
  -38.2720   59.8520   65.2990 O   0  0  0  0  0  0  0  0  0  0  0  0
  -37.9378   51.1955   70.4675 C   0  0  0  0  0  0  0  0  0  0  0  0
  -36.6868   60.0455   66.8833 O   0  0  0  0  0  0  0  0  0  0  0  0
  -38.1464   51.6001   69.0250 C   0  0  0  0  0  0  0  0  0  0  0  0
  -38.5528   53.0409   68.8612 C   0  0  0  0  0  0  0  0  0  0  0  0
  -38.7750   53.4307   67.4203 C   0  0  0  0  0  0  0  0  0  0  0  0
  -39.1675   54.8842   67.2494 C   0  0  0  0  0  0  0  0  0  0  0  0
  -38.1171   55.8449   67.7586 C   0  0  0  0  0  0  0  0  0  0  0  0
  -36.7792   55.7289   67.0592 C   0  0  0  0  0  0  0  0  0  0  0  0
  -36.8681   56.0112   65.5689 C   0  0  0  0  0  0  0  0  0  0  0  0
  -37.3544   57.3919   65.2342 C   0  0  0  0  0  0  0  0  0  0  0  0
  -37.0720   58.9080   63.4380 C   0  0  0  0  0  0  0  0  0  0  0  0
  -37.3490   60.1700   64.2050 C   0  0  2  0  0  0  0  0  0  0  0  0
  -36.0840   60.8130   64.7130 C   0  0  0  0  0  0  0  0  0  0  0  0
  -39.8305   63.2835   64.9315 C   0  0  0  0  0  0  0  0  0  0  0  0
  -39.8817   64.7202   64.4728 C   0  0  2  0  0  0  0  0  0  0  0  0
  -41.0409   65.4756   65.0772 C   0  0  0  0  0  0  0  0  0  0  0  0
  -37.8399   60.0926   66.5518 C   0  0  0  0  0  0  0  0  0  0  0  0
  -38.9653   60.4431   67.4752 C   0  0  0  0  0  0  0  0  0  0  0  0
  -38.6733   60.0004   68.9054 C   0  0  0  0  0  0  0  0  0  0  0  0
  -39.7895   60.3147   69.8879 C   0  0  0  0  0  0  0  0  0  0  0  0
  -41.1117   59.6377   69.5456 C   0  0  0  0  0  0  0  0  0  0  0  0
  -41.0426   58.1220   69.5290 C   0  0  0  0  0  0  0  0  0  0  0  0
  -40.6445   57.4881   70.8649 C   0  0  0  0  0  0  0  0  0  0  0  0
  -41.5917   57.7777   72.0314 C   0  0  0  0  0  0  0  0  0  0  0  0
  -41.1288   57.1395   73.3067 C   0  0  0  0  0  0  0  0  0  0  0  0
  -41.4453   55.9367   73.7454 C   0  0  0  0  0  0  0  0  0  0  0  0
  -42.3365   54.9521   73.0564 C   0  0  0  0  0  0  0  0  0  0  0  0
  -43.4046   55.6307   72.2037 C   0  0  0  0  0  0  0  0  0  0  0  0
  -44.3196   56.5515   72.9918 C   0  0  0  0  0  0  0  0  0  0  0  0
  -45.3935   57.2140   72.1462 C   0  0  0  0  0  0  0  0  0  0  0  0
  -46.3093   58.1529   72.9138 C   0  0  0  0  0  0  0  0  0  0  0  0
  -47.3860   58.7902   72.0487 C   0  0  0  0  0  0  0  0  0  0  0  0
  -46.8500   59.6111   70.8926 C   0  0  0  0  0  0  0  0  0  0  0  0
  -45.9673   60.7417   71.3423 C   0  0  0  0  0  0  0  0  0  0  0  0
  -41.3734   47.2601   72.9361 H   0  0  0  0  0  0  0  0  0  0  0  0
  -39.7591   47.8901   72.7117 H   0  0  0  0  0  0  0  0  0  0  0  0
  -41.0877   48.9818   73.0215 H   0  0  0  0  0  0  0  0  0  0  0  0
  -40.0298   46.9302   74.9331 H   0  0  0  0  0  0  0  0  0  0  0  0
  -41.3612   48.0568   75.2284 H   0  0  0  0  0  0  0  0  0  0  0  0
  -39.3258   48.8039   76.2839 H   0  0  0  0  0  0  0  0  0  0  0  0
  -39.8739   49.8982   74.9824 H   0  0  0  0  0  0  0  0  0  0  0  0
  -38.2014   49.0597   73.5282 H   0  0  0  0  0  0  0  0  0  0  0  0
  -37.6594   47.9444   74.8022 H   0  0  0  0  0  0  0  0  0  0  0  0
  -36.1845   49.8468   74.6035 H   0  0  0  0  0  0  0  0  0  0  0  0
  -37.0245   49.7812   76.1692 H   0  0  0  0  0  0  0  0  0  0  0  0
  -35.6376   63.9088   63.6294 H   0  0  0  0  0  0  0  0  0  0  0  0
  -36.8701   52.0381   75.3393 H   0  0  0  0  0  0  0  0  0  0  0  0
  -38.5434   51.4519   75.4487 H   0  0  0  0  0  0  0  0  0  0  0  0
  -38.1932   52.7623   73.4572 H   0  0  0  0  0  0  0  0  0  0  0  0
  -38.5789   51.0589   73.1104 H   0  0  0  0  0  0  0  0  0  0  0  0
  -43.0092   65.3873   65.0901 H   0  0  0  0  0  0  0  0  0  0  0  0
  -36.2892   50.6098   72.6210 H   0  0  0  0  0  0  0  0  0  0  0  0
  -35.8905   52.3055   72.9855 H   0  0  0  0  0  0  0  0  0  0  0  0
  -39.2117   64.2672   62.6675 H   0  0  0  0  0  0  0  0  0  0  0  0
  -35.9524   51.8995   70.6161 H   0  0  0  0  0  0  0  0  0  0  0  0
  -37.2146   53.0298   71.1667 H   0  0  0  0  0  0  0  0  0  0  0  0
  -38.8600   51.3222   70.9953 H   0  0  0  0  0  0  0  0  0  0  0  0
  -37.6152   50.1753   70.4734 H   0  0  0  0  0  0  0  0  0  0  0  0
  -38.9130   50.9818   68.6067 H   0  0  0  0  0  0  0  0  0  0  0  0
  -37.2092   51.4771   68.5236 H   0  0  0  0  0  0  0  0  0  0  0  0
  -37.7811   53.6610   69.2671 H   0  0  0  0  0  0  0  0  0  0  0  0
  -39.4821   53.1717   69.3751 H   0  0  0  0  0  0  0  0  0  0  0  0
  -39.5550   52.8182   67.0186 H   0  0  0  0  0  0  0  0  0  0  0  0
  -37.8476   53.2889   66.9057 H   0  0  0  0  0  0  0  0  0  0  0  0
  -40.0765   55.0571   67.7868 H   0  0  0  0  0  0  0  0  0  0  0  0
  -39.2825   55.0630   66.2007 H   0  0  0  0  0  0  0  0  0  0  0  0
  -37.9680   55.6574   68.8015 H   0  0  0  0  0  0  0  0  0  0  0  0
  -38.4819   56.8316   67.5632 H   0  0  0  0  0  0  0  0  0  0  0  0
  -36.4061   54.7356   67.1974 H   0  0  0  0  0  0  0  0  0  0  0  0
  -36.1269   56.4609   67.4876 H   0  0  0  0  0  0  0  0  0  0  0  0
  -37.5409   55.3030   65.1324 H   0  0  0  0  0  0  0  0  0  0  0  0
  -35.8745   55.9314   65.1801 H   0  0  0  0  0  0  0  0  0  0  0  0
  -37.9762   58.5012   63.0358 H   0  0  0  0  0  0  0  0  0  0  0  0
  -36.4225   59.0678   62.6029 H   0  0  0  0  0  0  0  0  0  0  0  0
  -37.7985   60.8886   63.5519 H   0  0  0  0  0  0  0  0  0  0  0  0
  -35.5824   60.1428   65.3795 H   0  0  0  0  0  0  0  0  0  0  0  0
  -35.4356   61.0386   63.8923 H   0  0  0  0  0  0  0  0  0  0  0  0
  -39.7808   63.2467   65.9997 H   0  0  0  0  0  0  0  0  0  0  0  0
  -40.7083   62.7631   64.6099 H   0  0  0  0  0  0  0  0  0  0  0  0
  -38.9877   65.2045   64.8059 H   0  0  0  0  0  0  0  0  0  0  0  0
  -40.9576   65.4524   66.1437 H   0  0  0  0  0  0  0  0  0  0  0  0
  -41.0147   66.4856   64.7248 H   0  0  0  0  0  0  0  0  0  0  0  0
  -39.8570   59.9583   67.1364 H   0  0  0  0  0  0  0  0  0  0  0  0
  -39.0847   61.5064   67.4706 H   0  0  0  0  0  0  0  0  0  0  0  0
  -37.7841   60.4953   69.2362 H   0  0  0  0  0  0  0  0  0  0  0  0
  -38.5680   58.9358   68.8854 H   0  0  0  0  0  0  0  0  0  0  0  0
  -39.9439   61.3735   69.8972 H   0  0  0  0  0  0  0  0  0  0  0  0
  -39.4826   59.9401   70.8421 H   0  0  0  0  0  0  0  0  0  0  0  0
  -41.4195   59.9711   68.5766 H   0  0  0  0  0  0  0  0  0  0  0  0
  -41.8058   59.9076   70.3138 H   0  0  0  0  0  0  0  0  0  0  0  0
  -40.3236   57.8286   68.7929 H   0  0  0  0  0  0  0  0  0  0  0  0
  -42.0311   57.7753   69.3111 H   0  0  0  0  0  0  0  0  0  0  0  0
  -39.6738   57.8530   71.1283 H   0  0  0  0  0  0  0  0  0  0  0  0
  -40.6763   56.4295   70.7125 H   0  0  0  0  0  0  0  0  0  0  0  0
  -42.5628   57.3994   71.7891 H   0  0  0  0  0  0  0  0  0  0  0  0
  -41.6136   58.8367   72.1824 H   0  0  0  0  0  0  0  0  0  0  0  0
  -40.4980   57.6986   73.9021 H   0  0  0  0  0  0  0  0  0  0  0  0
  -41.0400   55.6473   74.6493 H   0  0  0  0  0  0  0  0  0  0  0  0
  -42.8198   54.3494   73.7967 H   0  0  0  0  0  0  0  0  0  0  0  0
  -41.7271   54.3606   72.4056 H   0  0  0  0  0  0  0  0  0  0  0  0
  -44.0030   54.8718   71.7444 H   0  0  0  0  0  0  0  0  0  0  0  0
  -42.8933   56.2371   71.4855 H   0  0  0  0  0  0  0  0  0  0  0  0
  -43.7227   57.3176   73.4410 H   0  0  0  0  0  0  0  0  0  0  0  0
  -44.8216   55.9471   73.7182 H   0  0  0  0  0  0  0  0  0  0  0  0
  -45.9947   56.4455   71.7071 H   0  0  0  0  0  0  0  0  0  0  0  0
  -44.8835   57.8121   71.4202 H   0  0  0  0  0  0  0  0  0  0  0  0
  -45.7139   58.9318   73.3425 H   0  0  0  0  0  0  0  0  0  0  0  0
  -46.8082   57.5679   73.6581 H   0  0  0  0  0  0  0  0  0  0  0  0
  -47.9788   59.4303   72.6683 H   0  0  0  0  0  0  0  0  0  0  0  0
  -47.9504   57.9884   71.6205 H   0  0  0  0  0  0  0  0  0  0  0  0
  -47.6773   60.0181   70.3497 H   0  0  0  0  0  0  0  0  0  0  0  0
  -46.2570   58.9615   70.2833 H   0  0  0  0  0  0  0  0  0  0  0  0
  -46.5315   61.4123   71.9561 H   0  0  0  0  0  0  0  0  0  0  0  0
  -45.5970   61.2670   70.4868 H   0  0  0  0  0  0  0  0  0  0  0  0
  -45.1449   60.3504   71.9040 H   0  0  0  0  0  0  0  0  0  0  0  0
  1  4  1  0  0  0  0
  1 54  1  0  0  0  0
  1 55  1  0  0  0  0
  1 56  1  0  0  0  0
  2 29  2  0  0  0  0
  3  7  1  0  0  0  0
  3  9  2  1  0  0  0
  3 11  1  0  0  0  0
  3 13  1  0  0  0  0
  4  6  1  0  0  0  0
  4 57  1  0  0  0  0
  4 58  1  0  0  0  0
  5 29  1  0  0  0  0
  5 30  1  0  0  0  0
  6  8  1  0  0  0  0
  6 59  1  0  0  0  0
  6 60  1  0  0  0  0
  7 32  1  0  0  0  0
  8 10  1  0  0  0  0
  8 61  1  0  0  0  0
  8 62  1  0  0  0  0
 10 12  1  0  0  0  0
 10 63  1  0  0  0  0
 10 64  1  0  0  0  0
 11 65  1  0  0  0  0
 12 14  1  0  0  0  0
 12 66  1  0  0  0  0
 12 67  1  0  0  0  0
 13 33  1  0  0  0  0
 14 16  1  0  0  0  0
 14 68  1  0  0  0  0
 14 69  1  0  0  0  0
 15 35  1  0  0  0  0
 15 70  1  0  0  0  0
 16 18  1  0  0  0  0
 16 71  1  0  0  0  0
 16 72  1  0  0  0  0
 17 34  1  0  0  0  0
 17 73  1  0  0  0  0
 18 20  1  0  0  0  0
 18 74  1  0  0  0  0
 18 75  1  0  0  0  0
 19 31  1  0  0  0  0
 19 36  1  0  0  0  0
 20 22  1  0  0  0  0
 20 76  1  0  0  0  0
 20 77  1  0  0  0  0
 21 36  2  0  0  0  0
 22 23  1  0  0  0  0
 22 78  1  0  0  0  0
 22 79  1  0  0  0  0
 23 24  1  0  0  0  0
 23 80  1  0  0  0  0
 23 81  1  0  0  0  0
 24 25  1  0  0  0  0
 24 82  1  0  0  0  0
 24 83  1  0  0  0  0
 25 26  1  0  0  0  0
 25 84  1  0  0  0  0
 25 85  1  0  0  0  0
 26 27  1  0  0  0  0
 26 86  1  0  0  0  0
 26 87  1  0  0  0  0
 27 28  1  0  0  0  0
 27 88  1  0  0  0  0
 27 89  1  0  0  0  0
 28 29  1  0  0  0  0
 28 90  1  0  0  0  0
 28 91  1  0  0  0  0
 30 31  1  0  0  0  0
 30 92  1  0  0  0  0
 30 93  1  0  0  0  0
 31 32  1  0  0  0  0
 31 94  1  6  0  0  0
 32 95  1  0  0  0  0
 32 96  1  0  0  0  0
 33 34  1  0  0  0  0
 33 97  1  0  0  0  0
 33 98  1  0  0  0  0
 34 35  1  0  0  0  0
 34 99  1  1  0  0  0
 35100  1  0  0  0  0
 35101  1  0  0  0  0
 36 37  1  0  0  0  0
 37 38  1  0  0  0  0
 37102  1  0  0  0  0
 37103  1  0  0  0  0
 38 39  1  0  0  0  0
 38104  1  0  0  0  0
 38105  1  0  0  0  0
 39 40  1  0  0  0  0
 39106  1  0  0  0  0
 39107  1  0  0  0  0
 40 41  1  0  0  0  0
 40108  1  0  0  0  0
 40109  1  0  0  0  0
 41 42  1  0  0  0  0
 41110  1  0  0  0  0
 41111  1  0  0  0  0
 42 43  1  0  0  0  0
 42112  1  0  0  0  0
 42113  1  0  0  0  0
 43 44  1  0  0  0  0
 43114  1  0  0  0  0
 43115  1  0  0  0  0
 44 45  2  0  0  0  0
 44116  1  0  0  0  0
 45 46  1  0  0  0  0
 45117  1  0  0  0  0
 46 47  1  0  0  0  0
 46118  1  0  0  0  0
 46119  1  0  0  0  0
 47 48  1  0  0  0  0
 47120  1  0  0  0  0
 47121  1  0  0  0  0
 48 49  1  0  0  0  0
 48122  1  0  0  0  0
 48123  1  0  0  0  0
 49 50  1  0  0  0  0
 49124  1  0  0  0  0
 49125  1  0  0  0  0
 50 51  1  0  0  0  0
 50126  1  0  0  0  0
 50127  1  0  0  0  0
 51 52  1  0  0  0  0
 51128  1  0  0  0  0
 51129  1  0  0  0  0
 52 53  1  0  0  0  0
 52130  1  0  0  0  0
 52131  1  0  0  0  0
 53132  1  0  0  0  0
 53133  1  0  0  0  0
 53134  1  0  0  0  0
M  CHG  1   9  -1
M  END
$$$$