/media/chris/experiments/cd1a-new-docking/inputs/ligands/7sh4_ligand.pdb
 OpenBabel07012320073D

134133  0  0  1  0  0  0  0  0999 V2000
  -27.8118   60.9233   55.5717 C   0  0  0  0  0  0  0  0  0  0  0  0
  -37.6819   60.5663   61.3545 O   0  0  0  0  0  0  0  0  0  0  0  0
  -35.3336   62.9877   66.0786 P   0  0  1  0  0  0  0  0  0  0  0  0
  -28.8173   60.9295   56.7008 C   0  0  0  0  0  0  0  0  0  0  0  0
  -36.1511   59.3213   62.4064 O   0  0  0  0  0  0  0  0  0  0  0  0
  -30.2483   60.8661   56.2013 C   0  0  0  0  0  0  0  0  0  0  0  0
  -36.4293   62.0282   65.4148 O   0  0  0  0  0  0  0  0  0  0  0  0
  -31.3036   60.8864   57.2926 C   0  0  0  0  0  0  0  0  0  0  0  0
  -34.9300   63.9895   65.0686 O   0  5  0  0  0  0  0  0  0  0  0  0
  -32.7288   60.8045   56.7636 C   0  0  0  0  0  0  0  0  0  0  0  0
  -35.8630   63.4617   67.3801 O   0  0  0  0  0  0  0  0  0  0  0  0
  -33.0149   59.5382   55.9828 C   0  0  0  0  0  0  0  0  0  0  0  0
  -34.0759   62.0526   66.3727 O   0  0  0  0  0  0  0  0  0  0  0  0
  -32.8373   58.2731   56.8002 C   0  0  0  0  0  0  0  0  0  0  0  0
  -32.9666   64.0914   67.3048 O   0  0  0  0  0  0  0  0  0  0  0  0
  -33.1056   56.9900   56.0218 C   0  0  0  0  0  0  0  0  0  0  0  0
  -33.8157   61.7610   70.0015 O   0  0  0  0  0  0  0  0  0  0  0  0
  -32.9438   55.7295   56.8454 C   0  0  0  0  0  0  0  0  0  0  0  0
  -38.2720   59.8520   65.2990 O   0  0  0  0  0  0  0  0  0  0  0  0
  -31.5607   55.5515   57.4382 C   0  0  0  0  0  0  0  0  0  0  0  0
  -39.6513   58.6615   63.9798 O   0  0  0  0  0  0  0  0  0  0  0  0
  -31.1776   56.6753   58.3754 C   0  0  0  0  0  0  0  0  0  0  0  0
  -32.0987   56.8063   59.5594 C   0  0  0  0  0  0  0  0  0  0  0  0
  -31.7186   57.9405   60.4796 C   0  0  0  0  0  0  0  0  0  0  0  0
  -32.6329   58.0654   61.6815 C   0  0  0  0  0  0  0  0  0  0  0  0
  -34.0785   58.2971   61.3042 C   0  0  0  0  0  0  0  0  0  0  0  0
  -34.3125   59.5482   60.4841 C   0  0  0  0  0  0  0  0  0  0  0  0
  -35.7767   59.7589   60.1375 C   0  0  0  0  0  0  0  0  0  0  0  0
  -36.6737   59.9130   61.3318 C   0  0  0  0  0  0  0  0  0  0  0  0
  -37.0720   58.9080   63.4380 C   0  0  0  0  0  0  0  0  0  0  0  0
  -37.3490   60.1700   64.2050 C   0  0  2  0  0  0  0  0  0  0  0  0
  -36.0840   60.8130   64.7130 C   0  0  0  0  0  0  0  0  0  0  0  0
  -33.9612   61.3753   67.6409 C   0  0  0  0  0  0  0  0  0  0  0  0
  -33.9457   62.4141   68.7353 C   0  0  2  0  0  0  0  0  0  0  0  0
  -32.8381   63.4241   68.5537 C   0  0  0  0  0  0  0  0  0  0  0  0
  -39.4672   59.3329   64.9581 C   0  0  0  0  0  0  0  0  0  0  0  0
  -40.5321   59.6773   65.9527 C   0  0  0  0  0  0  0  0  0  0  0  0
  -41.6671   60.4650   65.3061 C   0  0  0  0  0  0  0  0  0  0  0  0
  -42.7724   60.8588   66.2720 C   0  0  0  0  0  0  0  0  0  0  0  0
  -43.4410   59.6692   66.9515 C   0  0  0  0  0  0  0  0  0  0  0  0
  -44.0806   58.6874   65.9874 C   0  0  0  0  0  0  0  0  0  0  0  0
  -45.1688   59.2896   65.0941 C   0  0  0  0  0  0  0  0  0  0  0  0
  -45.8355   58.3081   64.1277 C   0  0  0  0  0  0  0  0  0  0  0  0
  -44.8484   57.6804   63.1898 C   0  0  0  0  0  0  0  0  0  0  0  0
  -45.0829   57.2713   61.9581 C   0  0  0  0  0  0  0  0  0  0  0  0
  -46.3906   57.3506   61.2356 C   0  0  0  0  0  0  0  0  0  0  0  0
  -46.9060   55.9782   60.8120 C   0  0  0  0  0  0  0  0  0  0  0  0
  -47.1525   55.0339   61.9755 C   0  0  0  0  0  0  0  0  0  0  0  0
  -47.6493   53.6621   61.5529 C   0  0  0  0  0  0  0  0  0  0  0  0
  -47.9182   52.7075   62.7044 C   0  0  0  0  0  0  0  0  0  0  0  0
  -48.3982   51.3361   62.2547 C   0  0  0  0  0  0  0  0  0  0  0  0
  -48.6878   50.3750   63.3905 C   0  0  0  0  0  0  0  0  0  0  0  0
  -47.4868   50.1214   64.2582 C   0  0  0  0  0  0  0  0  0  0  0  0
  -26.8220   60.9692   55.9754 H   0  0  0  0  0  0  0  0  0  0  0  0
  -27.9792   61.7708   54.9404 H   0  0  0  0  0  0  0  0  0  0  0  0
  -27.9227   60.0255   55.0003 H   0  0  0  0  0  0  0  0  0  0  0  0
  -28.6911   61.8277   57.2684 H   0  0  0  0  0  0  0  0  0  0  0  0
  -28.6417   60.0597   57.2987 H   0  0  0  0  0  0  0  0  0  0  0  0
  -30.3658   59.9621   55.6410 H   0  0  0  0  0  0  0  0  0  0  0  0
  -30.4028   61.7480   55.6155 H   0  0  0  0  0  0  0  0  0  0  0  0
  -31.2001   61.7960   57.8465 H   0  0  0  0  0  0  0  0  0  0  0  0
  -31.1440   60.0199   57.8997 H   0  0  0  0  0  0  0  0  0  0  0  0
  -32.8999   61.6434   56.1219 H   0  0  0  0  0  0  0  0  0  0  0  0
  -33.3789   60.8024   57.6135 H   0  0  0  0  0  0  0  0  0  0  0  0
  -36.6310   64.0342   67.2275 H   0  0  0  0  0  0  0  0  0  0  0  0
  -32.3489   59.4978   55.1463 H   0  0  0  0  0  0  0  0  0  0  0  0
  -34.0409   59.5780   55.6816 H   0  0  0  0  0  0  0  0  0  0  0  0
  -33.5120   58.3108   57.6298 H   0  0  0  0  0  0  0  0  0  0  0  0
  -31.8119   58.2422   57.1045 H   0  0  0  0  0  0  0  0  0  0  0  0
  -32.2475   64.7349   67.2066 H   0  0  0  0  0  0  0  0  0  0  0  0
  -32.4227   56.9455   55.1993 H   0  0  0  0  0  0  0  0  0  0  0  0
  -34.1270   57.0259   55.7050 H   0  0  0  0  0  0  0  0  0  0  0  0
  -34.5316   61.1152   70.1073 H   0  0  0  0  0  0  0  0  0  0  0  0
  -33.1509   54.8886   56.2170 H   0  0  0  0  0  0  0  0  0  0  0  0
  -33.6242   55.8084   57.6674 H   0  0  0  0  0  0  0  0  0  0  0  0
  -30.8487   55.5136   56.6403 H   0  0  0  0  0  0  0  0  0  0  0  0
  -31.5671   54.6450   58.0066 H   0  0  0  0  0  0  0  0  0  0  0  0
  -31.1958   57.5946   57.8281 H   0  0  0  0  0  0  0  0  0  0  0  0
  -30.2032   56.4509   58.7563 H   0  0  0  0  0  0  0  0  0  0  0  0
  -32.0714   55.8925   60.1154 H   0  0  0  0  0  0  0  0  0  0  0  0
  -33.0778   57.0150   59.1817 H   0  0  0  0  0  0  0  0  0  0  0  0
  -31.7577   58.8554   59.9260 H   0  0  0  0  0  0  0  0  0  0  0  0
  -30.7351   57.7356   60.8479 H   0  0  0  0  0  0  0  0  0  0  0  0
  -32.3003   58.8888   62.2785 H   0  0  0  0  0  0  0  0  0  0  0  0
  -32.5865   57.1395   62.2158 H   0  0  0  0  0  0  0  0  0  0  0  0
  -34.6522   58.3734   62.2042 H   0  0  0  0  0  0  0  0  0  0  0  0
  -34.3735   57.4694   60.6937 H   0  0  0  0  0  0  0  0  0  0  0  0
  -33.7536   59.4707   59.5750 H   0  0  0  0  0  0  0  0  0  0  0  0
  -33.9973   60.3837   61.0736 H   0  0  0  0  0  0  0  0  0  0  0  0
  -36.1128   58.9154   59.5715 H   0  0  0  0  0  0  0  0  0  0  0  0
  -35.8348   60.6752   59.5879 H   0  0  0  0  0  0  0  0  0  0  0  0
  -36.6274   58.1683   64.0706 H   0  0  0  0  0  0  0  0  0  0  0  0
  -37.9610   58.4631   63.0423 H   0  0  0  0  0  0  0  0  0  0  0  0
  -37.7985   60.8886   63.5519 H   0  0  0  0  0  0  0  0  0  0  0  0
  -35.5824   60.1428   65.3795 H   0  0  0  0  0  0  0  0  0  0  0  0
  -35.4356   61.0386   63.8923 H   0  0  0  0  0  0  0  0  0  0  0  0
  -33.0538   60.8089   67.6674 H   0  0  0  0  0  0  0  0  0  0  0  0
  -34.7869   60.7088   67.7780 H   0  0  0  0  0  0  0  0  0  0  0  0
  -34.8687   62.9537   68.6905 H   0  0  0  0  0  0  0  0  0  0  0  0
  -32.8865   64.1443   69.3435 H   0  0  0  0  0  0  0  0  0  0  0  0
  -31.8988   62.9122   68.5753 H   0  0  0  0  0  0  0  0  0  0  0  0
  -40.1005   60.2674   66.7340 H   0  0  0  0  0  0  0  0  0  0  0  0
  -40.9352   58.7659   66.3422 H   0  0  0  0  0  0  0  0  0  0  0  0
  -42.0953   59.8640   64.5312 H   0  0  0  0  0  0  0  0  0  0  0  0
  -41.2417   61.3735   64.9340 H   0  0  0  0  0  0  0  0  0  0  0  0
  -43.5181   61.4017   65.7298 H   0  0  0  0  0  0  0  0  0  0  0  0
  -42.3207   61.4476   67.0429 H   0  0  0  0  0  0  0  0  0  0  0  0
  -44.2006   60.0397   67.6077 H   0  0  0  0  0  0  0  0  0  0  0  0
  -42.6718   59.1367   67.4708 H   0  0  0  0  0  0  0  0  0  0  0  0
  -44.5179   57.8954   66.5586 H   0  0  0  0  0  0  0  0  0  0  0  0
  -43.3021   58.3528   65.3340 H   0  0  0  0  0  0  0  0  0  0  0  0
  -44.7263   60.0739   64.5163 H   0  0  0  0  0  0  0  0  0  0  0  0
  -45.9408   59.6277   65.7534 H   0  0  0  0  0  0  0  0  0  0  0  0
  -46.5699   58.8340   63.5541 H   0  0  0  0  0  0  0  0  0  0  0  0
  -46.2813   57.5270   64.7074 H   0  0  0  0  0  0  0  0  0  0  0  0
  -43.8873   57.5557   63.5443 H   0  0  0  0  0  0  0  0  0  0  0  0
  -44.2895   56.8574   61.4442 H   0  0  0  0  0  0  0  0  0  0  0  0
  -46.2641   57.9548   60.3617 H   0  0  0  0  0  0  0  0  0  0  0  0
  -47.1082   57.7756   61.9060 H   0  0  0  0  0  0  0  0  0  0  0  0
  -46.1831   55.5317   60.1616 H   0  0  0  0  0  0  0  0  0  0  0  0
  -47.8483   56.1329   60.3293 H   0  0  0  0  0  0  0  0  0  0  0  0
  -47.8845   55.4749   62.6194 H   0  0  0  0  0  0  0  0  0  0  0  0
  -46.2124   54.8890   62.4656 H   0  0  0  0  0  0  0  0  0  0  0  0
  -46.9104   53.2200   60.9177 H   0  0  0  0  0  0  0  0  0  0  0  0
  -48.5864   53.8162   61.0599 H   0  0  0  0  0  0  0  0  0  0  0  0
  -48.6677   53.1391   63.3344 H   0  0  0  0  0  0  0  0  0  0  0  0
  -46.9905   52.5641   63.2180 H   0  0  0  0  0  0  0  0  0  0  0  0
  -47.6421   50.9031   61.6336 H   0  0  0  0  0  0  0  0  0  0  0  0
  -49.3226   51.4884   61.7379 H   0  0  0  0  0  0  0  0  0  0  0  0
  -49.0132   49.4437   62.9761 H   0  0  0  0  0  0  0  0  0  0  0  0
  -49.4418   50.8203   64.0055 H   0  0  0  0  0  0  0  0  0  0  0  0
  -46.7112   49.6747   63.6719 H   0  0  0  0  0  0  0  0  0  0  0  0
  -47.7561   49.4610   65.0559 H   0  0  0  0  0  0  0  0  0  0  0  0
  -47.1382   51.0478   64.6645 H   0  0  0  0  0  0  0  0  0  0  0  0
  1  4  1  0  0  0  0
  1 54  1  0  0  0  0
  1 55  1  0  0  0  0
  1 56  1  0  0  0  0
  2 29  2  0  0  0  0
  3  7  1  0  0  0  0
  3  9  2  6  0  0  0
  3 11  1  0  0  0  0
  3 13  1  0  0  0  0
  4  6  1  0  0  0  0
  4 57  1  0  0  0  0
  4 58  1  0  0  0  0
  5 29  1  0  0  0  0
  5 30  1  0  0  0  0
  6  8  1  0  0  0  0
  6 59  1  0  0  0  0
  6 60  1  0  0  0  0
  7 32  1  0  0  0  0
  8 10  1  0  0  0  0
  8 61  1  0  0  0  0
  8 62  1  0  0  0  0
 10 12  1  0  0  0  0
 10 63  1  0  0  0  0
 10 64  1  0  0  0  0
 11 65  1  0  0  0  0
 12 14  1  0  0  0  0
 12 66  1  0  0  0  0
 12 67  1  0  0  0  0
 13 33  1  0  0  0  0
 14 16  1  0  0  0  0
 14 68  1  0  0  0  0
 14 69  1  0  0  0  0
 15 35  1  0  0  0  0
 15 70  1  0  0  0  0
 16 18  1  0  0  0  0
 16 71  1  0  0  0  0
 16 72  1  0  0  0  0
 17 34  1  0  0  0  0
 17 73  1  0  0  0  0
 18 20  1  0  0  0  0
 18 74  1  0  0  0  0
 18 75  1  0  0  0  0
 19 31  1  0  0  0  0
 19 36  1  0  0  0  0
 20 22  1  0  0  0  0
 20 76  1  0  0  0  0
 20 77  1  0  0  0  0
 21 36  2  0  0  0  0
 22 23  1  0  0  0  0
 22 78  1  0  0  0  0
 22 79  1  0  0  0  0
 23 24  1  0  0  0  0
 23 80  1  0  0  0  0
 23 81  1  0  0  0  0
 24 25  1  0  0  0  0
 24 82  1  0  0  0  0
 24 83  1  0  0  0  0
 25 26  1  0  0  0  0
 25 84  1  0  0  0  0
 25 85  1  0  0  0  0
 26 27  1  0  0  0  0
 26 86  1  0  0  0  0
 26 87  1  0  0  0  0
 27 28  1  0  0  0  0
 27 88  1  0  0  0  0
 27 89  1  0  0  0  0
 28 29  1  0  0  0  0
 28 90  1  0  0  0  0
 28 91  1  0  0  0  0
 30 31  1  0  0  0  0
 30 92  1  0  0  0  0
 30 93  1  0  0  0  0
 31 32  1  0  0  0  0
 31 94  1  6  0  0  0
 32 95  1  0  0  0  0
 32 96  1  0  0  0  0
 33 34  1  0  0  0  0
 33 97  1  0  0  0  0
 33 98  1  0  0  0  0
 34 35  1  0  0  0  0
 34 99  1  6  0  0  0
 35100  1  0  0  0  0
 35101  1  0  0  0  0
 36 37  1  0  0  0  0
 37 38  1  0  0  0  0
 37102  1  0  0  0  0
 37103  1  0  0  0  0
 38 39  1  0  0  0  0
 38104  1  0  0  0  0
 38105  1  0  0  0  0
 39 40  1  0  0  0  0
 39106  1  0  0  0  0
 39107  1  0  0  0  0
 40 41  1  0  0  0  0
 40108  1  0  0  0  0
 40109  1  0  0  0  0
 41 42  1  0  0  0  0
 41110  1  0  0  0  0
 41111  1  0  0  0  0
 42 43  1  0  0  0  0
 42112  1  0  0  0  0
 42113  1  0  0  0  0
 43 44  1  0  0  0  0
 43114  1  0  0  0  0
 43115  1  0  0  0  0
 44 45  2  0  0  0  0
 44116  1  0  0  0  0
 45 46  1  0  0  0  0
 45117  1  0  0  0  0
 46 47  1  0  0  0  0
 46118  1  0  0  0  0
 46119  1  0  0  0  0
 47 48  1  0  0  0  0
 47120  1  0  0  0  0
 47121  1  0  0  0  0
 48 49  1  0  0  0  0
 48122  1  0  0  0  0
 48123  1  0  0  0  0
 49 50  1  0  0  0  0
 49124  1  0  0  0  0
 49125  1  0  0  0  0
 50 51  1  0  0  0  0
 50126  1  0  0  0  0
 50127  1  0  0  0  0
 51 52  1  0  0  0  0
 51128  1  0  0  0  0
 51129  1  0  0  0  0
 52 53  1  0  0  0  0
 52130  1  0  0  0  0
 52131  1  0  0  0  0
 53132  1  0  0  0  0
 53133  1  0  0  0  0
 53134  1  0  0  0  0
M  CHG  1   9  -1
M  END
$$$$