/media/chris/experiments/cd1a-new-docking/inputs/ligands/7sh4_ligand.pdb
 OpenBabel07012320073D

134133  0  0  1  0  0  0  0  0999 V2000
  -43.3918   48.0558   69.6323 C   0  0  0  0  0  0  0  0  0  0  0  0
  -34.4016   58.5984   63.9234 O   0  0  0  0  0  0  0  0  0  0  0  0
  -35.3336   62.9877   66.0786 P   0  0  1  0  0  0  0  0  0  0  0  0
  -43.7816   48.3357   68.1986 C   0  0  0  0  0  0  0  0  0  0  0  0
  -36.5027   58.0190   64.4222 O   0  0  0  0  0  0  0  0  0  0  0  0
  -43.1270   49.5918   67.6559 C   0  0  0  0  0  0  0  0  0  0  0  0
  -36.4293   62.0282   65.4148 O   0  0  0  0  0  0  0  0  0  0  0  0
  -43.4533   50.8607   68.4232 C   0  0  0  0  0  0  0  0  0  0  0  0
  -35.6139   63.0686   67.5284 O   0  5  0  0  0  0  0  0  0  0  0  0
  -42.7968   52.1073   67.8466 C   0  0  0  0  0  0  0  0  0  0  0  0
  -33.9933   62.5329   65.6366 O   0  0  0  0  0  0  0  0  0  0  0  0
  -41.2841   52.0340   67.8069 C   0  0  0  0  0  0  0  0  0  0  0  0
  -35.5952   64.4282   65.4468 O   0  0  0  0  0  0  0  0  0  0  0  0
  -40.7582   50.8956   66.9539 C   0  0  0  0  0  0  0  0  0  0  0  0
  -33.9227   68.1767   66.3551 O   0  0  0  0  0  0  0  0  0  0  0  0
  -39.2371   50.7996   66.9186 C   0  0  0  0  0  0  0  0  0  0  0  0
  -37.0574   66.7804   65.0711 O   0  0  0  0  0  0  0  0  0  0  0  0
  -38.5577   52.0433   66.3849 C   0  0  0  0  0  0  0  0  0  0  0  0
  -38.2720   59.8520   65.2990 O   0  0  0  0  0  0  0  0  0  0  0  0
  -38.8301   53.2935   67.1968 C   0  0  0  0  0  0  0  0  0  0  0  0
  -40.2187   60.6541   64.5071 O   0  0  0  0  0  0  0  0  0  0  0  0
  -38.3515   53.1772   68.6270 C   0  0  0  0  0  0  0  0  0  0  0  0
  -36.8678   52.9483   68.7439 C   0  0  0  0  0  0  0  0  0  0  0  0
  -36.0496   54.0681   68.1489 C   0  0  0  0  0  0  0  0  0  0  0  0
  -36.2959   55.4063   68.8158 C   0  0  0  0  0  0  0  0  0  0  0  0
  -35.4876   56.5292   68.2064 C   0  0  0  0  0  0  0  0  0  0  0  0
  -35.7768   56.7771   66.7409 C   0  0  0  0  0  0  0  0  0  0  0  0
  -34.9357   57.8997   66.1571 C   0  0  0  0  0  0  0  0  0  0  0  0
  -35.2107   58.1821   64.7081 C   0  0  0  0  0  0  0  0  0  0  0  0
  -37.0720   58.9080   63.4380 C   0  0  0  0  0  0  0  0  0  0  0  0
  -37.3490   60.1700   64.2050 C   0  0  2  0  0  0  0  0  0  0  0  0
  -36.0840   60.8130   64.7130 C   0  0  0  0  0  0  0  0  0  0  0  0
  -35.3006   65.6154   66.2108 C   0  0  0  0  0  0  0  0  0  0  0  0
  -35.6601   66.8198   65.3758 C   0  0  2  0  0  0  0  0  0  0  0  0
  -35.3128   68.1193   66.0618 C   0  0  0  0  0  0  0  0  0  0  0  0
  -39.5790   59.7587   64.9875 C   0  0  0  0  0  0  0  0  0  0  0  0
  -40.1328   58.4017   65.2941 C   0  0  0  0  0  0  0  0  0  0  0  0
  -41.6086   58.3030   64.9212 C   0  0  0  0  0  0  0  0  0  0  0  0
  -42.2321   56.9508   65.2257 C   0  0  0  0  0  0  0  0  0  0  0  0
  -41.5541   55.7906   64.5058 C   0  0  0  0  0  0  0  0  0  0  0  0
  -41.5701   55.9092   62.9932 C   0  0  0  0  0  0  0  0  0  0  0  0
  -40.8541   57.1464   62.4439 C   0  0  0  0  0  0  0  0  0  0  0  0
  -40.8760   57.2892   60.9205 C   0  0  0  0  0  0  0  0  0  0  0  0
  -42.2717   57.3950   60.3831 C   0  0  0  0  0  0  0  0  0  0  0  0
  -42.7761   58.4003   59.6944 C   0  0  0  0  0  0  0  0  0  0  0  0
  -42.0554   59.6514   59.3024 C   0  0  0  0  0  0  0  0  0  0  0  0
  -42.7156   60.9054   59.8681 C   0  0  0  0  0  0  0  0  0  0  0  0
  -42.7661   60.9359   61.3855 C   0  0  0  0  0  0  0  0  0  0  0  0
  -43.4384   62.1762   61.9486 C   0  0  0  0  0  0  0  0  0  0  0  0
  -43.4839   62.2336   63.4665 C   0  0  0  0  0  0  0  0  0  0  0  0
  -44.2218   61.0614   64.0950 C   0  0  0  0  0  0  0  0  0  0  0  0
  -44.2923   61.1100   65.6084 C   0  0  0  0  0  0  0  0  0  0  0  0
  -45.0103   62.3283   66.1183 C   0  0  0  0  0  0  0  0  0  0  0  0
  -43.8780   47.1631   69.9663 H   0  0  0  0  0  0  0  0  0  0  0  0
  -43.6902   48.8770   70.2499 H   0  0  0  0  0  0  0  0  0  0  0  0
  -42.3312   47.9291   69.6953 H   0  0  0  0  0  0  0  0  0  0  0  0
  -44.8440   48.4525   68.1479 H   0  0  0  0  0  0  0  0  0  0  0  0
  -43.4489   47.5112   67.6032 H   0  0  0  0  0  0  0  0  0  0  0  0
  -43.4469   49.7234   66.6433 H   0  0  0  0  0  0  0  0  0  0  0  0
  -42.0710   49.4461   67.7487 H   0  0  0  0  0  0  0  0  0  0  0  0
  -43.1213   50.7400   69.4333 H   0  0  0  0  0  0  0  0  0  0  0  0
  -44.5115   51.0041   68.3571 H   0  0  0  0  0  0  0  0  0  0  0  0
  -43.0790   52.9466   68.4473 H   0  0  0  0  0  0  0  0  0  0  0  0
  -43.1329   52.1990   66.8349 H   0  0  0  0  0  0  0  0  0  0  0  0
  -33.8103   61.6561   66.0090 H   0  0  0  0  0  0  0  0  0  0  0  0
  -40.9246   51.9031   68.8061 H   0  0  0  0  0  0  0  0  0  0  0  0
  -40.9353   52.9451   67.3675 H   0  0  0  0  0  0  0  0  0  0  0  0
  -41.1099   51.0347   65.9529 H   0  0  0  0  0  0  0  0  0  0  0  0
  -41.1158   49.9881   67.3935 H   0  0  0  0  0  0  0  0  0  0  0  0
  -33.7194   69.0171   66.7946 H   0  0  0  0  0  0  0  0  0  0  0  0
  -38.9657   49.9733   66.2953 H   0  0  0  0  0  0  0  0  0  0  0  0
  -38.9095   50.6755   67.9296 H   0  0  0  0  0  0  0  0  0  0  0  0
  -37.2689   65.9422   64.6311 H   0  0  0  0  0  0  0  0  0  0  0  0
  -38.9002   52.2106   65.3851 H   0  0  0  0  0  0  0  0  0  0  0  0
  -37.5038   51.8655   66.4362 H   0  0  0  0  0  0  0  0  0  0  0  0
  -39.8846   53.4748   67.2025 H   0  0  0  0  0  0  0  0  0  0  0  0
  -38.2924   54.0983   66.7407 H   0  0  0  0  0  0  0  0  0  0  0  0
  -38.8589   52.3561   69.0888 H   0  0  0  0  0  0  0  0  0  0  0  0
  -38.5666   54.1080   69.1089 H   0  0  0  0  0  0  0  0  0  0  0  0
  -36.6219   52.0392   68.2359 H   0  0  0  0  0  0  0  0  0  0  0  0
  -36.6327   52.8993   69.7866 H   0  0  0  0  0  0  0  0  0  0  0  0
  -36.2956   54.1549   67.1111 H   0  0  0  0  0  0  0  0  0  0  0  0
  -35.0188   53.8232   68.2982 H   0  0  0  0  0  0  0  0  0  0  0  0
  -36.0380   55.3236   69.8510 H   0  0  0  0  0  0  0  0  0  0  0  0
  -37.3297   55.6460   68.6789 H   0  0  0  0  0  0  0  0  0  0  0  0
  -34.4498   56.2890   68.3077 H   0  0  0  0  0  0  0  0  0  0  0  0
  -35.7591   57.4225   68.7290 H   0  0  0  0  0  0  0  0  0  0  0  0
  -36.8102   57.0335   66.6349 H   0  0  0  0  0  0  0  0  0  0  0  0
  -35.5336   55.8816   66.2083 H   0  0  0  0  0  0  0  0  0  0  0  0
  -33.9041   57.6338   66.2577 H   0  0  0  0  0  0  0  0  0  0  0  0
  -35.1884   58.7877   66.6978 H   0  0  0  0  0  0  0  0  0  0  0  0
  -37.9762   58.5012   63.0358 H   0  0  0  0  0  0  0  0  0  0  0  0
  -36.4225   59.0678   62.6029 H   0  0  0  0  0  0  0  0  0  0  0  0
  -37.7985   60.8886   63.5519 H   0  0  0  0  0  0  0  0  0  0  0  0
  -35.5824   60.1428   65.3795 H   0  0  0  0  0  0  0  0  0  0  0  0
  -35.4356   61.0386   63.8923 H   0  0  0  0  0  0  0  0  0  0  0  0
  -34.2584   65.6408   66.4519 H   0  0  0  0  0  0  0  0  0  0  0  0
  -35.8642   65.6169   67.1203 H   0  0  0  0  0  0  0  0  0  0  0  0
  -35.0838   66.7803   64.4751 H   0  0  0  0  0  0  0  0  0  0  0  0
  -35.5702   68.9354   65.4194 H   0  0  0  0  0  0  0  0  0  0  0  0
  -35.8608   68.1816   66.9787 H   0  0  0  0  0  0  0  0  0  0  0  0
  -40.0253   58.2109   66.3415 H   0  0  0  0  0  0  0  0  0  0  0  0
  -39.5919   57.6802   64.7181 H   0  0  0  0  0  0  0  0  0  0  0  0
  -41.7039   58.4892   63.8718 H   0  0  0  0  0  0  0  0  0  0  0  0
  -42.1279   59.0253   65.5157 H   0  0  0  0  0  0  0  0  0  0  0  0
  -43.2601   56.9780   64.9302 H   0  0  0  0  0  0  0  0  0  0  0  0
  -42.1151   56.7803   66.2755 H   0  0  0  0  0  0  0  0  0  0  0  0
  -42.0567   54.8860   64.7778 H   0  0  0  0  0  0  0  0  0  0  0  0
  -40.5271   55.7976   64.8062 H   0  0  0  0  0  0  0  0  0  0  0  0
  -42.5901   55.9436   62.6718 H   0  0  0  0  0  0  0  0  0  0  0  0
  -41.0401   55.0595   62.6165 H   0  0  0  0  0  0  0  0  0  0  0  0
  -39.8320   57.1039   62.7577 H   0  0  0  0  0  0  0  0  0  0  0  0
  -41.3847   57.9920   62.8291 H   0  0  0  0  0  0  0  0  0  0  0  0
  -40.4036   56.4326   60.4870 H   0  0  0  0  0  0  0  0  0  0  0  0
  -40.3565   58.1896   60.6669 H   0  0  0  0  0  0  0  0  0  0  0  0
  -42.9021   56.5999   60.5714 H   0  0  0  0  0  0  0  0  0  0  0  0
  -43.7610   58.3160   59.3980 H   0  0  0  0  0  0  0  0  0  0  0  0
  -42.0440   59.7210   58.2347 H   0  0  0  0  0  0  0  0  0  0  0  0
  -41.0646   59.5958   59.7025 H   0  0  0  0  0  0  0  0  0  0  0  0
  -43.7172   60.9574   59.4955 H   0  0  0  0  0  0  0  0  0  0  0  0
  -42.1212   61.7393   59.5577 H   0  0  0  0  0  0  0  0  0  0  0  0
  -41.7637   60.8963   61.7579 H   0  0  0  0  0  0  0  0  0  0  0  0
  -43.3501   60.0949   61.6963 H   0  0  0  0  0  0  0  0  0  0  0  0
  -44.4434   62.2069   61.5826 H   0  0  0  0  0  0  0  0  0  0  0  0
  -42.8515   63.0121   61.6296 H   0  0  0  0  0  0  0  0  0  0  0  0
  -43.9756   63.1385   63.7568 H   0  0  0  0  0  0  0  0  0  0  0  0
  -42.4727   62.1923   63.8140 H   0  0  0  0  0  0  0  0  0  0  0  0
  -43.7216   60.1591   63.8113 H   0  0  0  0  0  0  0  0  0  0  0  0
  -45.2299   61.1065   63.7390 H   0  0  0  0  0  0  0  0  0  0  0  0
  -43.2955   61.1126   65.9973 H   0  0  0  0  0  0  0  0  0  0  0  0
  -44.8424   60.2517   65.9335 H   0  0  0  0  0  0  0  0  0  0  0  0
  -44.4843   63.2075   65.8096 H   0  0  0  0  0  0  0  0  0  0  0  0
  -45.0539   62.2954   67.1869 H   0  0  0  0  0  0  0  0  0  0  0  0
  -46.0037   62.3491   65.7212 H   0  0  0  0  0  0  0  0  0  0  0  0
  1  4  1  0  0  0  0
  1 54  1  0  0  0  0
  1 55  1  0  0  0  0
  1 56  1  0  0  0  0
  2 29  2  0  0  0  0
  3  7  1  0  0  0  0
  3  9  2  1  0  0  0
  3 11  1  0  0  0  0
  3 13  1  0  0  0  0
  4  6  1  0  0  0  0
  4 57  1  0  0  0  0
  4 58  1  0  0  0  0
  5 29  1  0  0  0  0
  5 30  1  0  0  0  0
  6  8  1  0  0  0  0
  6 59  1  0  0  0  0
  6 60  1  0  0  0  0
  7 32  1  0  0  0  0
  8 10  1  0  0  0  0
  8 61  1  0  0  0  0
  8 62  1  0  0  0  0
 10 12  1  0  0  0  0
 10 63  1  0  0  0  0
 10 64  1  0  0  0  0
 11 65  1  0  0  0  0
 12 14  1  0  0  0  0
 12 66  1  0  0  0  0
 12 67  1  0  0  0  0
 13 33  1  0  0  0  0
 14 16  1  0  0  0  0
 14 68  1  0  0  0  0
 14 69  1  0  0  0  0
 15 35  1  0  0  0  0
 15 70  1  0  0  0  0
 16 18  1  0  0  0  0
 16 71  1  0  0  0  0
 16 72  1  0  0  0  0
 17 34  1  0  0  0  0
 17 73  1  0  0  0  0
 18 20  1  0  0  0  0
 18 74  1  0  0  0  0
 18 75  1  0  0  0  0
 19 31  1  0  0  0  0
 19 36  1  0  0  0  0
 20 22  1  0  0  0  0
 20 76  1  0  0  0  0
 20 77  1  0  0  0  0
 21 36  2  0  0  0  0
 22 23  1  0  0  0  0
 22 78  1  0  0  0  0
 22 79  1  0  0  0  0
 23 24  1  0  0  0  0
 23 80  1  0  0  0  0
 23 81  1  0  0  0  0
 24 25  1  0  0  0  0
 24 82  1  0  0  0  0
 24 83  1  0  0  0  0
 25 26  1  0  0  0  0
 25 84  1  0  0  0  0
 25 85  1  0  0  0  0
 26 27  1  0  0  0  0
 26 86  1  0  0  0  0
 26 87  1  0  0  0  0
 27 28  1  0  0  0  0
 27 88  1  0  0  0  0
 27 89  1  0  0  0  0
 28 29  1  0  0  0  0
 28 90  1  0  0  0  0
 28 91  1  0  0  0  0
 30 31  1  0  0  0  0
 30 92  1  0  0  0  0
 30 93  1  0  0  0  0
 31 32  1  0  0  0  0
 31 94  1  6  0  0  0
 32 95  1  0  0  0  0
 32 96  1  0  0  0  0
 33 34  1  0  0  0  0
 33 97  1  0  0  0  0
 33 98  1  0  0  0  0
 34 35  1  0  0  0  0
 34 99  1  6  0  0  0
 35100  1  0  0  0  0
 35101  1  0  0  0  0
 36 37  1  0  0  0  0
 37 38  1  0  0  0  0
 37102  1  0  0  0  0
 37103  1  0  0  0  0
 38 39  1  0  0  0  0
 38104  1  0  0  0  0
 38105  1  0  0  0  0
 39 40  1  0  0  0  0
 39106  1  0  0  0  0
 39107  1  0  0  0  0
 40 41  1  0  0  0  0
 40108  1  0  0  0  0
 40109  1  0  0  0  0
 41 42  1  0  0  0  0
 41110  1  0  0  0  0
 41111  1  0  0  0  0
 42 43  1  0  0  0  0
 42112  1  0  0  0  0
 42113  1  0  0  0  0
 43 44  1  0  0  0  0
 43114  1  0  0  0  0
 43115  1  0  0  0  0
 44 45  2  0  0  0  0
 44116  1  0  0  0  0
 45 46  1  0  0  0  0
 45117  1  0  0  0  0
 46 47  1  0  0  0  0
 46118  1  0  0  0  0
 46119  1  0  0  0  0
 47 48  1  0  0  0  0
 47120  1  0  0  0  0
 47121  1  0  0  0  0
 48 49  1  0  0  0  0
 48122  1  0  0  0  0
 48123  1  0  0  0  0
 49 50  1  0  0  0  0
 49124  1  0  0  0  0
 49125  1  0  0  0  0
 50 51  1  0  0  0  0
 50126  1  0  0  0  0
 50127  1  0  0  0  0
 51 52  1  0  0  0  0
 51128  1  0  0  0  0
 51129  1  0  0  0  0
 52 53  1  0  0  0  0
 52130  1  0  0  0  0
 52131  1  0  0  0  0
 53132  1  0  0  0  0
 53133  1  0  0  0  0
 53134  1  0  0  0  0
M  CHG  1   9  -1
M  END
$$$$