/media/chris/experiments/cd1a-new-docking/inputs/ligands/7sh4_ligand.pdb
 OpenBabel07012320073D

134133  0  0  1  0  0  0  0  0999 V2000
  -42.2384   47.9359   57.5401 C   0  0  0  0  0  0  0  0  0  0  0  0
  -37.9049   59.0864   60.8424 O   0  0  0  0  0  0  0  0  0  0  0  0
  -34.6970   59.9912   62.5780 P   0  0  1  0  0  0  0  0  0  0  0  0
  -41.3590   49.0746   58.0044 C   0  0  0  0  0  0  0  0  0  0  0  0
  -38.3690   58.5038   62.9506 O   0  0  0  0  0  0  0  0  0  0  0  0
  -40.1729   49.3009   57.0863 C   0  0  0  0  0  0  0  0  0  0  0  0
  -35.2304   61.1139   63.5864 O   0  0  0  0  0  0  0  0  0  0  0  0
  -39.2439   50.4234   57.5133 C   0  0  0  0  0  0  0  0  0  0  0  0
  -34.5796   58.7215   63.3270 O   0  5  0  0  0  0  0  0  0  0  0  0
  -38.0726   50.6389   56.5650 C   0  0  0  0  0  0  0  0  0  0  0  0
  -35.5431   60.0245   61.3608 O   0  0  0  0  0  0  0  0  0  0  0  0
  -37.1359   51.7476   56.9992 C   0  0  0  0  0  0  0  0  0  0  0  0
  -33.2283   60.4562   62.1666 O   0  0  0  0  0  0  0  0  0  0  0  0
  -37.8162   53.0974   57.1231 C   0  0  0  0  0  0  0  0  0  0  0  0
  -29.3843   60.9926   59.3349 O   0  0  0  0  0  0  0  0  0  0  0  0
  -38.4566   53.5893   55.8301 C   0  0  0  0  0  0  0  0  0  0  0  0
  -30.4869   60.0737   61.7779 O   0  0  0  0  0  0  0  0  0  0  0  0
  -39.1203   54.9449   55.9530 C   0  0  0  0  0  0  0  0  0  0  0  0
  -38.2720   59.8520   65.2990 O   0  0  0  0  0  0  0  0  0  0  0  0
  -40.2251   55.0008   56.9887 C   0  0  0  0  0  0  0  0  0  0  0  0
  -40.0171   59.9196   63.8811 O   0  0  0  0  0  0  0  0  0  0  0  0
  -40.8776   56.3628   57.0739 C   0  0  0  0  0  0  0  0  0  0  0  0
  -41.9668   56.4398   58.1108 C   0  0  0  0  0  0  0  0  0  0  0  0
  -42.6233   57.7971   58.1768 C   0  0  0  0  0  0  0  0  0  0  0  0
  -41.6523   58.9142   58.5014 C   0  0  0  0  0  0  0  0  0  0  0  0
  -40.9506   58.7222   59.8268 C   0  0  0  0  0  0  0  0  0  0  0  0
  -40.1183   57.4601   59.9108 C   0  0  0  0  0  0  0  0  0  0  0  0
  -39.4418   57.2903   61.2605 C   0  0  0  0  0  0  0  0  0  0  0  0
  -38.5165   58.4143   61.6284 C   0  0  0  0  0  0  0  0  0  0  0  0
  -37.0720   58.9080   63.4380 C   0  0  0  0  0  0  0  0  0  0  0  0
  -37.3490   60.1700   64.2050 C   0  0  2  0  0  0  0  0  0  0  0  0
  -36.0840   60.8130   64.7130 C   0  0  0  0  0  0  0  0  0  0  0  0
  -32.7027   60.1199   60.8664 C   0  0  0  0  0  0  0  0  0  0  0  0
  -31.3010   60.6692   60.7632 C   0  0  2  0  0  0  0  0  0  0  0  0
  -30.6908   60.4357   59.4020 C   0  0  0  0  0  0  0  0  0  0  0  0
  -39.5790   59.7587   64.9875 C   0  0  0  0  0  0  0  0  0  0  0  0
  -40.4161   59.4128   66.1798 C   0  0  0  0  0  0  0  0  0  0  0  0
  -41.6498   58.6087   65.7822 C   0  0  0  0  0  0  0  0  0  0  0  0
  -42.5642   59.3266   64.8032 C   0  0  0  0  0  0  0  0  0  0  0  0
  -43.8030   58.5230   64.4244 C   0  0  0  0  0  0  0  0  0  0  0  0
  -44.7142   59.2241   63.4341 C   0  0  0  0  0  0  0  0  0  0  0  0
  -44.0625   59.5448   62.0860 C   0  0  0  0  0  0  0  0  0  0  0  0
  -42.8273   60.4453   62.1571 C   0  0  0  0  0  0  0  0  0  0  0  0
  -43.1321   61.7739   62.7816 C   0  0  0  0  0  0  0  0  0  0  0  0
  -42.3033   62.5231   63.4826 C   0  0  0  0  0  0  0  0  0  0  0  0
  -40.8773   62.2016   63.8010 C   0  0  0  0  0  0  0  0  0  0  0  0
  -39.9089   63.2474   63.2562 C   0  0  0  0  0  0  0  0  0  0  0  0
  -39.9789   63.4161   61.7486 C   0  0  0  0  0  0  0  0  0  0  0  0
  -41.3412   63.8640   61.2477 C   0  0  0  0  0  0  0  0  0  0  0  0
  -41.8006   65.2076   61.7890 C   0  0  0  0  0  0  0  0  0  0  0  0
  -43.1739   65.6256   61.2862 C   0  0  0  0  0  0  0  0  0  0  0  0
  -44.2905   64.6713   61.6608 C   0  0  0  0  0  0  0  0  0  0  0  0
  -44.4580   64.5272   63.1477 C   0  0  0  0  0  0  0  0  0  0  0  0
  -43.0572   47.8179   58.2188 H   0  0  0  0  0  0  0  0  0  0  0  0
  -41.6662   47.0322   57.5110 H   0  0  0  0  0  0  0  0  0  0  0  0
  -42.6144   48.1516   56.5618 H   0  0  0  0  0  0  0  0  0  0  0  0
  -40.9961   48.8504   58.9857 H   0  0  0  0  0  0  0  0  0  0  0  0
  -41.9503   49.9664   57.9992 H   0  0  0  0  0  0  0  0  0  0  0  0
  -40.5462   49.5306   56.1102 H   0  0  0  0  0  0  0  0  0  0  0  0
  -39.5931   48.4020   57.1151 H   0  0  0  0  0  0  0  0  0  0  0  0
  -38.8559   50.1910   58.4829 H   0  0  0  0  0  0  0  0  0  0  0  0
  -39.8197   51.3253   57.5109 H   0  0  0  0  0  0  0  0  0  0  0  0
  -38.4608   50.8834   55.5984 H   0  0  0  0  0  0  0  0  0  0  0  0
  -37.5039   49.7326   56.5584 H   0  0  0  0  0  0  0  0  0  0  0  0
  -36.4443   59.7449   61.5856 H   0  0  0  0  0  0  0  0  0  0  0  0
  -36.3496   51.8291   56.2781 H   0  0  0  0  0  0  0  0  0  0  0  0
  -36.7689   51.4886   57.9704 H   0  0  0  0  0  0  0  0  0  0  0  0
  -37.0854   53.8157   57.4312 H   0  0  0  0  0  0  0  0  0  0  0  0
  -38.6060   52.9821   57.8358 H   0  0  0  0  0  0  0  0  0  0  0  0
  -29.0095   60.8328   58.4546 H   0  0  0  0  0  0  0  0  0  0  0  0
  -39.1965   52.8777   55.5283 H   0  0  0  0  0  0  0  0  0  0  0  0
  -37.6697   53.6919   55.1124 H   0  0  0  0  0  0  0  0  0  0  0  0
  -30.8881   60.2298   62.6472 H   0  0  0  0  0  0  0  0  0  0  0  0
  -39.5379   55.2021   55.0020 H   0  0  0  0  0  0  0  0  0  0  0  0
  -38.3637   55.6313   56.2713 H   0  0  0  0  0  0  0  0  0  0  0  0
  -39.8101   54.7598   57.9450 H   0  0  0  0  0  0  0  0  0  0  0  0
  -40.9783   54.2996   56.6957 H   0  0  0  0  0  0  0  0  0  0  0  0
  -41.3009   56.5965   56.1193 H   0  0  0  0  0  0  0  0  0  0  0  0
  -40.1182   57.0597   57.3609 H   0  0  0  0  0  0  0  0  0  0  0  0
  -41.5425   56.2195   59.0681 H   0  0  0  0  0  0  0  0  0  0  0  0
  -42.7211   55.7325   57.8359 H   0  0  0  0  0  0  0  0  0  0  0  0
  -43.3793   57.7730   58.9336 H   0  0  0  0  0  0  0  0  0  0  0  0
  -43.0306   58.0010   57.2086 H   0  0  0  0  0  0  0  0  0  0  0  0
  -42.1927   59.8371   58.5326 H   0  0  0  0  0  0  0  0  0  0  0  0
  -40.9010   58.9160   57.7395 H   0  0  0  0  0  0  0  0  0  0  0  0
  -41.6923   58.6870   60.5972 H   0  0  0  0  0  0  0  0  0  0  0  0
  -40.2750   59.5443   59.9392 H   0  0  0  0  0  0  0  0  0  0  0  0
  -39.3643   57.4966   59.1525 H   0  0  0  0  0  0  0  0  0  0  0  0
  -40.7783   56.6290   59.7742 H   0  0  0  0  0  0  0  0  0  0  0  0
  -38.8762   56.3823   61.2410 H   0  0  0  0  0  0  0  0  0  0  0  0
  -40.2191   57.2775   61.9957 H   0  0  0  0  0  0  0  0  0  0  0  0
  -36.4020   59.0962   62.6252 H   0  0  0  0  0  0  0  0  0  0  0  0
  -36.6048   58.1555   64.0382 H   0  0  0  0  0  0  0  0  0  0  0  0
  -37.7985   60.8886   63.5519 H   0  0  0  0  0  0  0  0  0  0  0  0
  -36.3238   61.7163   65.2340 H   0  0  0  0  0  0  0  0  0  0  0  0
  -35.5811   60.1472   65.3829 H   0  0  0  0  0  0  0  0  0  0  0  0
  -33.3174   60.5526   60.1050 H   0  0  0  0  0  0  0  0  0  0  0  0
  -32.6920   59.0578   60.7374 H   0  0  0  0  0  0  0  0  0  0  0  0
  -31.3511   61.7287   60.9037 H   0  0  0  0  0  0  0  0  0  0  0  0
  -30.6340   59.3831   59.2183 H   0  0  0  0  0  0  0  0  0  0  0  0
  -31.3047   60.9085   58.6640 H   0  0  0  0  0  0  0  0  0  0  0  0
  -40.7297   60.3168   66.6586 H   0  0  0  0  0  0  0  0  0  0  0  0
  -39.8255   58.8158   66.8429 H   0  0  0  0  0  0  0  0  0  0  0  0
  -42.2094   58.3905   66.6677 H   0  0  0  0  0  0  0  0  0  0  0  0
  -41.2994   57.7259   65.2895 H   0  0  0  0  0  0  0  0  0  0  0  0
  -42.0096   59.5337   63.9118 H   0  0  0  0  0  0  0  0  0  0  0  0
  -42.9042   60.2183   65.2871 H   0  0  0  0  0  0  0  0  0  0  0  0
  -44.3621   58.3266   65.3153 H   0  0  0  0  0  0  0  0  0  0  0  0
  -43.4585   57.6286   63.9487 H   0  0  0  0  0  0  0  0  0  0  0  0
  -45.0411   60.1431   63.8739 H   0  0  0  0  0  0  0  0  0  0  0  0
  -45.5178   58.5479   63.2296 H   0  0  0  0  0  0  0  0  0  0  0  0
  -44.7921   60.0316   61.4730 H   0  0  0  0  0  0  0  0  0  0  0  0
  -43.7258   58.6099   61.6890 H   0  0  0  0  0  0  0  0  0  0  0  0
  -42.4604   60.6065   61.1650 H   0  0  0  0  0  0  0  0  0  0  0  0
  -42.0972   59.9549   62.7666 H   0  0  0  0  0  0  0  0  0  0  0  0
  -44.0880   62.1396   62.6493 H   0  0  0  0  0  0  0  0  0  0  0  0
  -42.6735   63.4153   63.8457 H   0  0  0  0  0  0  0  0  0  0  0  0
  -40.6350   61.2521   63.3713 H   0  0  0  0  0  0  0  0  0  0  0  0
  -40.7764   62.1874   64.8662 H   0  0  0  0  0  0  0  0  0  0  0  0
  -38.9134   62.9549   63.5177 H   0  0  0  0  0  0  0  0  0  0  0  0
  -40.1853   64.1859   63.6894 H   0  0  0  0  0  0  0  0  0  0  0  0
  -39.7429   62.4775   61.2922 H   0  0  0  0  0  0  0  0  0  0  0  0
  -39.2812   64.1839   61.4868 H   0  0  0  0  0  0  0  0  0  0  0  0
  -42.0613   63.1252   61.5316 H   0  0  0  0  0  0  0  0  0  0  0  0
  -41.2537   63.9767   60.1872 H   0  0  0  0  0  0  0  0  0  0  0  0
  -41.0908   65.9522   61.4946 H   0  0  0  0  0  0  0  0  0  0  0  0
  -41.8699   65.1119   62.8525 H   0  0  0  0  0  0  0  0  0  0  0  0
  -43.1342   65.6930   60.2191 H   0  0  0  0  0  0  0  0  0  0  0  0
  -43.4002   66.5614   61.7530 H   0  0  0  0  0  0  0  0  0  0  0  0
  -44.0717   63.7093   61.2465 H   0  0  0  0  0  0  0  0  0  0  0  0
  -45.2024   65.0727   61.2709 H   0  0  0  0  0  0  0  0  0  0  0  0
  -43.5604   64.1266   63.5706 H   0  0  0  0  0  0  0  0  0  0  0  0
  -45.2744   63.8666   63.3524 H   0  0  0  0  0  0  0  0  0  0  0  0
  -44.6583   65.4860   63.5786 H   0  0  0  0  0  0  0  0  0  0  0  0
  1  4  1  0  0  0  0
  1 54  1  0  0  0  0
  1 55  1  0  0  0  0
  1 56  1  0  0  0  0
  2 29  2  0  0  0  0
  3  7  1  0  0  0  0
  3  9  2  1  0  0  0
  3 11  1  0  0  0  0
  3 13  1  0  0  0  0
  4  6  1  0  0  0  0
  4 57  1  0  0  0  0
  4 58  1  0  0  0  0
  5 29  1  0  0  0  0
  5 30  1  0  0  0  0
  6  8  1  0  0  0  0
  6 59  1  0  0  0  0
  6 60  1  0  0  0  0
  7 32  1  0  0  0  0
  8 10  1  0  0  0  0
  8 61  1  0  0  0  0
  8 62  1  0  0  0  0
 10 12  1  0  0  0  0
 10 63  1  0  0  0  0
 10 64  1  0  0  0  0
 11 65  1  0  0  0  0
 12 14  1  0  0  0  0
 12 66  1  0  0  0  0
 12 67  1  0  0  0  0
 13 33  1  0  0  0  0
 14 16  1  0  0  0  0
 14 68  1  0  0  0  0
 14 69  1  0  0  0  0
 15 35  1  0  0  0  0
 15 70  1  0  0  0  0
 16 18  1  0  0  0  0
 16 71  1  0  0  0  0
 16 72  1  0  0  0  0
 17 34  1  0  0  0  0
 17 73  1  0  0  0  0
 18 20  1  0  0  0  0
 18 74  1  0  0  0  0
 18 75  1  0  0  0  0
 19 31  1  0  0  0  0
 19 36  1  0  0  0  0
 20 22  1  0  0  0  0
 20 76  1  0  0  0  0
 20 77  1  0  0  0  0
 21 36  2  0  0  0  0
 22 23  1  0  0  0  0
 22 78  1  0  0  0  0
 22 79  1  0  0  0  0
 23 24  1  0  0  0  0
 23 80  1  0  0  0  0
 23 81  1  0  0  0  0
 24 25  1  0  0  0  0
 24 82  1  0  0  0  0
 24 83  1  0  0  0  0
 25 26  1  0  0  0  0
 25 84  1  0  0  0  0
 25 85  1  0  0  0  0
 26 27  1  0  0  0  0
 26 86  1  0  0  0  0
 26 87  1  0  0  0  0
 27 28  1  0  0  0  0
 27 88  1  0  0  0  0
 27 89  1  0  0  0  0
 28 29  1  0  0  0  0
 28 90  1  0  0  0  0
 28 91  1  0  0  0  0
 30 31  1  0  0  0  0
 30 92  1  0  0  0  0
 30 93  1  0  0  0  0
 31 32  1  0  0  0  0
 31 94  1  6  0  0  0
 32 95  1  0  0  0  0
 32 96  1  0  0  0  0
 33 34  1  0  0  0  0
 33 97  1  0  0  0  0
 33 98  1  0  0  0  0
 34 35  1  0  0  0  0
 34 99  1  1  0  0  0
 35100  1  0  0  0  0
 35101  1  0  0  0  0
 36 37  1  0  0  0  0
 37 38  1  0  0  0  0
 37102  1  0  0  0  0
 37103  1  0  0  0  0
 38 39  1  0  0  0  0
 38104  1  0  0  0  0
 38105  1  0  0  0  0
 39 40  1  0  0  0  0
 39106  1  0  0  0  0
 39107  1  0  0  0  0
 40 41  1  0  0  0  0
 40108  1  0  0  0  0
 40109  1  0  0  0  0
 41 42  1  0  0  0  0
 41110  1  0  0  0  0
 41111  1  0  0  0  0
 42 43  1  0  0  0  0
 42112  1  0  0  0  0
 42113  1  0  0  0  0
 43 44  1  0  0  0  0
 43114  1  0  0  0  0
 43115  1  0  0  0  0
 44 45  2  0  0  0  0
 44116  1  0  0  0  0
 45 46  1  0  0  0  0
 45117  1  0  0  0  0
 46 47  1  0  0  0  0
 46118  1  0  0  0  0
 46119  1  0  0  0  0
 47 48  1  0  0  0  0
 47120  1  0  0  0  0
 47121  1  0  0  0  0
 48 49  1  0  0  0  0
 48122  1  0  0  0  0
 48123  1  0  0  0  0
 49 50  1  0  0  0  0
 49124  1  0  0  0  0
 49125  1  0  0  0  0
 50 51  1  0  0  0  0
 50126  1  0  0  0  0
 50127  1  0  0  0  0
 51 52  1  0  0  0  0
 51128  1  0  0  0  0
 51129  1  0  0  0  0
 52 53  1  0  0  0  0
 52130  1  0  0  0  0
 52131  1  0  0  0  0
 53132  1  0  0  0  0
 53133  1  0  0  0  0
 53134  1  0  0  0  0
M  CHG  1   9  -1
M  END
$$$$