/media/chris/experiments/cd1a-new-docking/inputs/ligands/7sh4_ligand.pdb
 OpenBabel07012320073D

134133  0  0  1  0  0  0  0  0999 V2000
  -37.9385   54.1908   58.6148 C   0  0  0  0  0  0  0  0  0  0  0  0
  -38.2161   59.9780   61.2765 O   0  0  0  0  0  0  0  0  0  0  0  0
  -34.0491   60.2433   66.3537 P   0  0  1  0  0  0  0  0  0  0  0  0
  -39.2920   54.7510   58.9888 C   0  0  0  0  0  0  0  0  0  0  0  0
  -38.3690   58.5038   62.9506 O   0  0  0  0  0  0  0  0  0  0  0  0
  -39.6879   54.4056   60.4118 C   0  0  0  0  0  0  0  0  0  0  0  0
  -35.4212   59.8922   65.6081 O   0  0  0  0  0  0  0  0  0  0  0  0
  -39.7657   52.9182   60.7064 C   0  0  0  0  0  0  0  0  0  0  0  0
  -33.0291   60.5333   65.3231 O   0  5  0  0  0  0  0  0  0  0  0  0
  -38.4449   52.1877   60.5074 C   0  0  0  0  0  0  0  0  0  0  0  0
  -34.3335   61.2715   67.3836 O   0  0  0  0  0  0  0  0  0  0  0  0
  -37.3307   52.6935   61.4006 C   0  0  0  0  0  0  0  0  0  0  0  0
  -33.6214   58.9031   67.1045 O   0  0  0  0  0  0  0  0  0  0  0  0
  -37.6302   52.5457   62.8800 C   0  0  0  0  0  0  0  0  0  0  0  0
  -31.2590   59.6722   66.8157 O   0  0  0  0  0  0  0  0  0  0  0  0
  -36.5242   53.0665   63.7909 C   0  0  0  0  0  0  0  0  0  0  0  0
  -32.2508   59.9064   70.3350 O   0  0  0  0  0  0  0  0  0  0  0  0
  -36.8191   52.9020   65.2671 C   0  0  0  0  0  0  0  0  0  0  0  0
  -38.2720   59.8520   65.2990 O   0  0  0  0  0  0  0  0  0  0  0  0
  -38.0779   53.6081   65.7287 C   0  0  0  0  0  0  0  0  0  0  0  0
  -36.7587   60.5453   66.8121 O   0  0  0  0  0  0  0  0  0  0  0  0
  -38.0355   55.0997   65.4807 C   0  0  0  0  0  0  0  0  0  0  0  0
  -39.2728   55.8188   65.9493 C   0  0  0  0  0  0  0  0  0  0  0  0
  -40.5322   55.3209   65.2833 C   0  0  0  0  0  0  0  0  0  0  0  0
  -40.5063   55.4652   63.7751 C   0  0  0  0  0  0  0  0  0  0  0  0
  -40.3281   56.8959   63.3202 C   0  0  0  0  0  0  0  0  0  0  0  0
  -40.3156   57.0716   61.8163 C   0  0  0  0  0  0  0  0  0  0  0  0
  -40.1178   58.5178   61.3946 C   0  0  0  0  0  0  0  0  0  0  0  0
  -38.8234   59.1206   61.8593 C   0  0  0  0  0  0  0  0  0  0  0  0
  -37.0720   58.9080   63.4380 C   0  0  0  0  0  0  0  0  0  0  0  0
  -37.3490   60.1700   64.2050 C   0  0  2  0  0  0  0  0  0  0  0  0
  -36.0840   60.8130   64.7130 C   0  0  0  0  0  0  0  0  0  0  0  0
  -33.4738   58.8955   68.5392 C   0  0  0  0  0  0  0  0  0  0  0  0
  -32.4231   59.9114   68.9147 C   0  0  2  0  0  0  0  0  0  0  0  0
  -31.1029   59.6535   68.2288 C   0  0  0  0  0  0  0  0  0  0  0  0
  -37.8399   60.0926   66.5518 C   0  0  0  0  0  0  0  0  0  0  0  0
  -38.8741   59.7460   67.5776 C   0  0  0  0  0  0  0  0  0  0  0  0
  -38.3798   60.0389   68.9906 C   0  0  0  0  0  0  0  0  0  0  0  0
  -39.3822   59.6908   70.0788 C   0  0  0  0  0  0  0  0  0  0  0  0
  -38.8870   60.0024   71.4864 C   0  0  0  0  0  0  0  0  0  0  0  0
  -39.8739   59.6428   72.5814 C   0  0  0  0  0  0  0  0  0  0  0  0
  -41.2270   60.3522   72.4771 C   0  0  0  0  0  0  0  0  0  0  0  0
  -41.1662   61.8806   72.5184 C   0  0  0  0  0  0  0  0  0  0  0  0
  -42.5275   62.5027   72.4285 C   0  0  0  0  0  0  0  0  0  0  0  0
  -43.3952   62.3597   71.4457 C   0  0  0  0  0  0  0  0  0  0  0  0
  -43.2010   61.5403   70.2090 C   0  0  0  0  0  0  0  0  0  0  0  0
  -44.2488   60.4398   70.0691 C   0  0  0  0  0  0  0  0  0  0  0  0
  -44.0676   59.5796   68.8308 C   0  0  0  0  0  0  0  0  0  0  0  0
  -45.1204   58.4948   68.6825 C   0  0  0  0  0  0  0  0  0  0  0  0
  -44.9466   57.6120   67.4578 C   0  0  0  0  0  0  0  0  0  0  0  0
  -46.0223   56.5450   67.3227 C   0  0  0  0  0  0  0  0  0  0  0  0
  -47.4292   57.0935   67.1903 C   0  0  0  0  0  0  0  0  0  0  0  0
  -48.4666   56.0116   67.0761 C   0  0  0  0  0  0  0  0  0  0  0  0
  -37.7069   54.4614   57.6058 H   0  0  0  0  0  0  0  0  0  0  0  0
  -37.9571   53.1246   58.7029 H   0  0  0  0  0  0  0  0  0  0  0  0
  -37.1935   54.5900   59.2710 H   0  0  0  0  0  0  0  0  0  0  0  0
  -40.0260   54.3506   58.3211 H   0  0  0  0  0  0  0  0  0  0  0  0
  -39.2353   55.8170   58.9157 H   0  0  0  0  0  0  0  0  0  0  0  0
  -40.6496   54.8338   60.6034 H   0  0  0  0  0  0  0  0  0  0  0  0
  -38.9183   54.7984   61.0430 H   0  0  0  0  0  0  0  0  0  0  0  0
  -40.4947   52.4821   60.0558 H   0  0  0  0  0  0  0  0  0  0  0  0
  -40.0284   52.8159   61.7386 H   0  0  0  0  0  0  0  0  0  0  0  0
  -38.1422   52.3080   59.4882 H   0  0  0  0  0  0  0  0  0  0  0  0
  -38.6118   51.1626   60.7645 H   0  0  0  0  0  0  0  0  0  0  0  0
  -34.5967   62.0987   66.9506 H   0  0  0  0  0  0  0  0  0  0  0  0
  -37.1704   53.7300   61.1890 H   0  0  0  0  0  0  0  0  0  0  0  0
  -36.4652   52.0996   61.1928 H   0  0  0  0  0  0  0  0  0  0  0  0
  -37.7792   51.5074   63.0912 H   0  0  0  0  0  0  0  0  0  0  0  0
  -38.5001   53.1356   63.0805 H   0  0  0  0  0  0  0  0  0  0  0  0
  -30.4018   59.5049   66.3935 H   0  0  0  0  0  0  0  0  0  0  0  0
  -36.3835   54.1078   63.5891 H   0  0  0  0  0  0  0  0  0  0  0  0
  -35.6497   52.4865   63.5817 H   0  0  0  0  0  0  0  0  0  0  0  0
  -33.1043   60.0729   70.7648 H   0  0  0  0  0  0  0  0  0  0  0  0
  -35.9917   53.2940   65.8209 H   0  0  0  0  0  0  0  0  0  0  0  0
  -36.9717   51.8566   65.4369 H   0  0  0  0  0  0  0  0  0  0  0  0
  -38.1999   53.4390   66.7782 H   0  0  0  0  0  0  0  0  0  0  0  0
  -38.8963   53.2102   65.1657 H   0  0  0  0  0  0  0  0  0  0  0  0
  -37.9242   55.2658   64.4295 H   0  0  0  0  0  0  0  0  0  0  0  0
  -37.2118   55.4899   66.0410 H   0  0  0  0  0  0  0  0  0  0  0  0
  -39.1630   56.8614   65.7349 H   0  0  0  0  0  0  0  0  0  0  0  0
  -39.3716   55.6351   66.9987 H   0  0  0  0  0  0  0  0  0  0  0  0
  -41.3619   55.8790   65.6642 H   0  0  0  0  0  0  0  0  0  0  0  0
  -40.6162   54.2768   65.5016 H   0  0  0  0  0  0  0  0  0  0  0  0
  -41.4299   55.0950   63.3815 H   0  0  0  0  0  0  0  0  0  0  0  0
  -39.6664   54.9085   63.4152 H   0  0  0  0  0  0  0  0  0  0  0  0
  -39.3991   57.2583   63.7082 H   0  0  0  0  0  0  0  0  0  0  0  0
  -41.1717   57.4427   63.6868 H   0  0  0  0  0  0  0  0  0  0  0  0
  -41.2489   56.7255   61.4238 H   0  0  0  0  0  0  0  0  0  0  0  0
  -39.4906   56.5083   61.4328 H   0  0  0  0  0  0  0  0  0  0  0  0
  -40.9220   59.0979   61.7965 H   0  0  0  0  0  0  0  0  0  0  0  0
  -40.0958   58.5269   60.3249 H   0  0  0  0  0  0  0  0  0  0  0  0
  -36.4020   59.0962   62.6252 H   0  0  0  0  0  0  0  0  0  0  0  0
  -36.6048   58.1555   64.0382 H   0  0  0  0  0  0  0  0  0  0  0  0
  -37.7985   60.8886   63.5519 H   0  0  0  0  0  0  0  0  0  0  0  0
  -35.4401   61.0403   63.8892 H   0  0  0  0  0  0  0  0  0  0  0  0
  -36.3193   61.7188   65.2317 H   0  0  0  0  0  0  0  0  0  0  0  0
  -33.1696   57.9231   68.8661 H   0  0  0  0  0  0  0  0  0  0  0  0
  -34.4051   59.1397   69.0061 H   0  0  0  0  0  0  0  0  0  0  0  0
  -32.7613   60.8720   68.5865 H   0  0  0  0  0  0  0  0  0  0  0  0
  -30.4042   60.4116   68.5152 H   0  0  0  0  0  0  0  0  0  0  0  0
  -30.7451   58.6888   68.5227 H   0  0  0  0  0  0  0  0  0  0  0  0
  -39.1062   58.7044   67.4994 H   0  0  0  0  0  0  0  0  0  0  0  0
  -39.7422   60.3443   67.3948 H   0  0  0  0  0  0  0  0  0  0  0  0
  -38.1568   61.0831   69.0598 H   0  0  0  0  0  0  0  0  0  0  0  0
  -37.5198   59.4233   69.1525 H   0  0  0  0  0  0  0  0  0  0  0  0
  -39.5963   58.6441   70.0194 H   0  0  0  0  0  0  0  0  0  0  0  0
  -40.2502   60.2936   69.9107 H   0  0  0  0  0  0  0  0  0  0  0  0
  -38.6843   61.0513   71.5473 H   0  0  0  0  0  0  0  0  0  0  0  0
  -38.0145   59.4043   71.6472 H   0  0  0  0  0  0  0  0  0  0  0  0
  -39.4350   59.8976   73.5234 H   0  0  0  0  0  0  0  0  0  0  0  0
  -40.0714   58.5960   72.4803 H   0  0  0  0  0  0  0  0  0  0  0  0
  -41.8370   60.0231   73.2923 H   0  0  0  0  0  0  0  0  0  0  0  0
  -41.6230   60.0966   71.5166 H   0  0  0  0  0  0  0  0  0  0  0  0
  -40.5749   62.2246   71.6956 H   0  0  0  0  0  0  0  0  0  0  0  0
  -40.7343   62.1677   73.4542 H   0  0  0  0  0  0  0  0  0  0  0  0
  -42.8148   63.1043   73.2163 H   0  0  0  0  0  0  0  0  0  0  0  0
  -44.2930   62.8601   71.5384 H   0  0  0  0  0  0  0  0  0  0  0  0
  -42.2315   61.0891   70.2446 H   0  0  0  0  0  0  0  0  0  0  0  0
  -43.2994   62.1930   69.3668 H   0  0  0  0  0  0  0  0  0  0  0  0
  -45.2152   60.8969   70.0247 H   0  0  0  0  0  0  0  0  0  0  0  0
  -44.1410   59.7954   70.9165 H   0  0  0  0  0  0  0  0  0  0  0  0
  -43.1061   59.1128   68.8814 H   0  0  0  0  0  0  0  0  0  0  0  0
  -44.1630   60.2263   67.9837 H   0  0  0  0  0  0  0  0  0  0  0  0
  -46.0793   58.9656   68.6219 H   0  0  0  0  0  0  0  0  0  0  0  0
  -45.0214   57.8558   69.5350 H   0  0  0  0  0  0  0  0  0  0  0  0
  -43.9947   57.1274   67.5216 H   0  0  0  0  0  0  0  0  0  0  0  0
  -45.0218   58.2459   66.5990 H   0  0  0  0  0  0  0  0  0  0  0  0
  -45.9860   55.9204   68.1907 H   0  0  0  0  0  0  0  0  0  0  0  0
  -45.8142   56.0117   66.4187 H   0  0  0  0  0  0  0  0  0  0  0  0
  -47.4764   57.7065   66.3146 H   0  0  0  0  0  0  0  0  0  0  0  0
  -47.6424   57.6524   68.0775 H   0  0  0  0  0  0  0  0  0  0  0  0
  -48.2819   55.4318   66.1960 H   0  0  0  0  0  0  0  0  0  0  0  0
  -49.4386   56.4547   67.0137 H   0  0  0  0  0  0  0  0  0  0  0  0
  -48.4179   55.3784   67.9372 H   0  0  0  0  0  0  0  0  0  0  0  0
  1  4  1  0  0  0  0
  1 54  1  0  0  0  0
  1 55  1  0  0  0  0
  1 56  1  0  0  0  0
  2 29  2  0  0  0  0
  3  7  1  0  0  0  0
  3  9  2  6  0  0  0
  3 11  1  0  0  0  0
  3 13  1  0  0  0  0
  4  6  1  0  0  0  0
  4 57  1  0  0  0  0
  4 58  1  0  0  0  0
  5 29  1  0  0  0  0
  5 30  1  0  0  0  0
  6  8  1  0  0  0  0
  6 59  1  0  0  0  0
  6 60  1  0  0  0  0
  7 32  1  0  0  0  0
  8 10  1  0  0  0  0
  8 61  1  0  0  0  0
  8 62  1  0  0  0  0
 10 12  1  0  0  0  0
 10 63  1  0  0  0  0
 10 64  1  0  0  0  0
 11 65  1  0  0  0  0
 12 14  1  0  0  0  0
 12 66  1  0  0  0  0
 12 67  1  0  0  0  0
 13 33  1  0  0  0  0
 14 16  1  0  0  0  0
 14 68  1  0  0  0  0
 14 69  1  0  0  0  0
 15 35  1  0  0  0  0
 15 70  1  0  0  0  0
 16 18  1  0  0  0  0
 16 71  1  0  0  0  0
 16 72  1  0  0  0  0
 17 34  1  0  0  0  0
 17 73  1  0  0  0  0
 18 20  1  0  0  0  0
 18 74  1  0  0  0  0
 18 75  1  0  0  0  0
 19 31  1  0  0  0  0
 19 36  1  0  0  0  0
 20 22  1  0  0  0  0
 20 76  1  0  0  0  0
 20 77  1  0  0  0  0
 21 36  2  0  0  0  0
 22 23  1  0  0  0  0
 22 78  1  0  0  0  0
 22 79  1  0  0  0  0
 23 24  1  0  0  0  0
 23 80  1  0  0  0  0
 23 81  1  0  0  0  0
 24 25  1  0  0  0  0
 24 82  1  0  0  0  0
 24 83  1  0  0  0  0
 25 26  1  0  0  0  0
 25 84  1  0  0  0  0
 25 85  1  0  0  0  0
 26 27  1  0  0  0  0
 26 86  1  0  0  0  0
 26 87  1  0  0  0  0
 27 28  1  0  0  0  0
 27 88  1  0  0  0  0
 27 89  1  0  0  0  0
 28 29  1  0  0  0  0
 28 90  1  0  0  0  0
 28 91  1  0  0  0  0
 30 31  1  0  0  0  0
 30 92  1  0  0  0  0
 30 93  1  0  0  0  0
 31 32  1  0  0  0  0
 31 94  1  6  0  0  0
 32 95  1  0  0  0  0
 32 96  1  0  0  0  0
 33 34  1  0  0  0  0
 33 97  1  0  0  0  0
 33 98  1  0  0  0  0
 34 35  1  0  0  0  0
 34 99  1  6  0  0  0
 35100  1  0  0  0  0
 35101  1  0  0  0  0
 36 37  1  0  0  0  0
 37 38  1  0  0  0  0
 37102  1  0  0  0  0
 37103  1  0  0  0  0
 38 39  1  0  0  0  0
 38104  1  0  0  0  0
 38105  1  0  0  0  0
 39 40  1  0  0  0  0
 39106  1  0  0  0  0
 39107  1  0  0  0  0
 40 41  1  0  0  0  0
 40108  1  0  0  0  0
 40109  1  0  0  0  0
 41 42  1  0  0  0  0
 41110  1  0  0  0  0
 41111  1  0  0  0  0
 42 43  1  0  0  0  0
 42112  1  0  0  0  0
 42113  1  0  0  0  0
 43 44  1  0  0  0  0
 43114  1  0  0  0  0
 43115  1  0  0  0  0
 44 45  2  0  0  0  0
 44116  1  0  0  0  0
 45 46  1  0  0  0  0
 45117  1  0  0  0  0
 46 47  1  0  0  0  0
 46118  1  0  0  0  0
 46119  1  0  0  0  0
 47 48  1  0  0  0  0
 47120  1  0  0  0  0
 47121  1  0  0  0  0
 48 49  1  0  0  0  0
 48122  1  0  0  0  0
 48123  1  0  0  0  0
 49 50  1  0  0  0  0
 49124  1  0  0  0  0
 49125  1  0  0  0  0
 50 51  1  0  0  0  0
 50126  1  0  0  0  0
 50127  1  0  0  0  0
 51 52  1  0  0  0  0
 51128  1  0  0  0  0
 51129  1  0  0  0  0
 52 53  1  0  0  0  0
 52130  1  0  0  0  0
 52131  1  0  0  0  0
 53132  1  0  0  0  0
 53133  1  0  0  0  0
 53134  1  0  0  0  0
M  CHG  1   9  -1
M  END
$$$$