/media/chris/experiments/cd1a-new-docking/inputs/ligands/7sh4_ligand.pdb
 OpenBabel07012320073D

134133  0  0  1  0  0  0  0  0999 V2000
  -42.0114   59.0749   52.9052 C   0  0  0  0  0  0  0  0  0  0  0  0
  -38.2161   59.9780   61.2765 O   0  0  0  0  0  0  0  0  0  0  0  0
  -33.7887   61.7905   63.7469 P   0  0  1  0  0  0  0  0  0  0  0  0
  -40.7274   59.5508   53.5461 C   0  0  0  0  0  0  0  0  0  0  0  0
  -38.3690   58.5038   62.9506 O   0  0  0  0  0  0  0  0  0  0  0  0
  -40.3726   58.7571   54.7891 C   0  0  0  0  0  0  0  0  0  0  0  0
  -35.2304   61.1139   63.5864 O   0  0  0  0  0  0  0  0  0  0  0  0
  -39.0991   59.2027   55.4855 C   0  0  0  0  0  0  0  0  0  0  0  0
  -32.9319   61.3103   62.6414 O   0  5  0  0  0  0  0  0  0  0  0  0
  -39.1437   60.6441   55.9732 C   0  0  0  0  0  0  0  0  0  0  0  0
  -33.9806   63.2510   63.9166 O   0  0  0  0  0  0  0  0  0  0  0  0
  -37.8672   61.0950   56.6532 C   0  0  0  0  0  0  0  0  0  0  0  0
  -33.2001   61.2119   65.1113 O   0  0  0  0  0  0  0  0  0  0  0  0
  -37.9232   62.5261   57.1521 C   0  0  0  0  0  0  0  0  0  0  0  0
  -30.7145   60.0623   68.2390 O   0  0  0  0  0  0  0  0  0  0  0  0
  -36.6387   62.9986   57.8237 C   0  0  0  0  0  0  0  0  0  0  0  0
  -32.2218   58.1340   66.8114 O   0  0  0  0  0  0  0  0  0  0  0  0
  -36.2385   62.1728   59.0283 C   0  0  0  0  0  0  0  0  0  0  0  0
  -38.2720   59.8520   65.2990 O   0  0  0  0  0  0  0  0  0  0  0  0
  -37.2762   62.1462   60.1322 C   0  0  0  0  0  0  0  0  0  0  0  0
  -36.6996   58.7906   66.5077 O   0  0  0  0  0  0  0  0  0  0  0  0
  -38.5938   61.5557   59.6814 C   0  0  0  0  0  0  0  0  0  0  0  0
  -39.6417   61.5375   60.7626 C   0  0  0  0  0  0  0  0  0  0  0  0
  -40.9471   60.9312   60.3086 C   0  0  0  0  0  0  0  0  0  0  0  0
  -42.0100   60.9263   61.3885 C   0  0  0  0  0  0  0  0  0  0  0  0
  -41.5965   60.1572   62.6227 C   0  0  0  0  0  0  0  0  0  0  0  0
  -41.2716   58.7008   62.3660 C   0  0  0  0  0  0  0  0  0  0  0  0
  -40.1178   58.5178   61.3946 C   0  0  0  0  0  0  0  0  0  0  0  0
  -38.8234   59.1206   61.8593 C   0  0  0  0  0  0  0  0  0  0  0  0
  -37.0720   58.9080   63.4380 C   0  0  0  0  0  0  0  0  0  0  0  0
  -37.3490   60.1700   64.2050 C   0  0  2  0  0  0  0  0  0  0  0  0
  -36.0840   60.8130   64.7130 C   0  0  0  0  0  0  0  0  0  0  0  0
  -32.9930   59.7928   65.2634 C   0  0  0  0  0  0  0  0  0  0  0  0
  -32.4494   59.5370   66.6476 C   0  0  2  0  0  0  0  0  0  0  0  0
  -31.1783   60.3060   66.9172 C   0  0  0  0  0  0  0  0  0  0  0  0
  -37.8515   58.9548   66.2113 C   0  0  0  0  0  0  0  0  0  0  0  0
  -38.9916   58.2015   66.8235 C   0  0  0  0  0  0  0  0  0  0  0  0
  -39.7730   57.4193   65.7725 C   0  0  0  0  0  0  0  0  0  0  0  0
  -40.9555   56.6462   66.3327 C   0  0  0  0  0  0  0  0  0  0  0  0
  -42.0019   57.5314   67.0000 C   0  0  0  0  0  0  0  0  0  0  0  0
  -43.1788   56.7673   67.5776 C   0  0  0  0  0  0  0  0  0  0  0  0
  -42.8089   55.7569   68.6672 C   0  0  0  0  0  0  0  0  0  0  0  0
  -43.9831   54.9660   69.2480 C   0  0  0  0  0  0  0  0  0  0  0  0
  -45.0167   55.8602   69.8644 C   0  0  0  0  0  0  0  0  0  0  0  0
  -45.0618   56.2632   71.1194 C   0  0  0  0  0  0  0  0  0  0  0  0
  -44.0837   55.9108   72.1953 C   0  0  0  0  0  0  0  0  0  0  0  0
  -42.6680   56.3789   71.8713 C   0  0  0  0  0  0  0  0  0  0  0  0
  -42.5470   57.8833   71.7027 C   0  0  0  0  0  0  0  0  0  0  0  0
  -41.1412   58.3479   71.3635 C   0  0  0  0  0  0  0  0  0  0  0  0
  -40.0901   57.9815   72.3982 C   0  0  0  0  0  0  0  0  0  0  0  0
  -38.6947   58.4724   72.0439 C   0  0  0  0  0  0  0  0  0  0  0  0
  -38.1632   57.9394   70.7281 C   0  0  0  0  0  0  0  0  0  0  0  0
  -38.0867   56.4385   70.6970 C   0  0  0  0  0  0  0  0  0  0  0  0
  -42.2161   59.6646   52.0362 H   0  0  0  0  0  0  0  0  0  0  0  0
  -42.8167   59.1756   53.6025 H   0  0  0  0  0  0  0  0  0  0  0  0
  -41.9099   58.0477   52.6234 H   0  0  0  0  0  0  0  0  0  0  0  0
  -40.8390   60.5802   53.8159 H   0  0  0  0  0  0  0  0  0  0  0  0
  -39.9385   59.4149   52.8361 H   0  0  0  0  0  0  0  0  0  0  0  0
  -40.2568   57.7313   54.5076 H   0  0  0  0  0  0  0  0  0  0  0  0
  -41.1689   58.9157   55.4860 H   0  0  0  0  0  0  0  0  0  0  0  0
  -38.2851   59.1032   54.7982 H   0  0  0  0  0  0  0  0  0  0  0  0
  -38.9803   58.5827   56.3494 H   0  0  0  0  0  0  0  0  0  0  0  0
  -39.9501   60.7406   56.6698 H   0  0  0  0  0  0  0  0  0  0  0  0
  -39.2746   61.2631   55.1103 H   0  0  0  0  0  0  0  0  0  0  0  0
  -34.3389   63.6274   63.0976 H   0  0  0  0  0  0  0  0  0  0  0  0
  -37.0622   61.0111   55.9532 H   0  0  0  0  0  0  0  0  0  0  0  0
  -37.7266   60.4677   57.5085 H   0  0  0  0  0  0  0  0  0  0  0  0
  -38.7217   62.6048   57.8600 H   0  0  0  0  0  0  0  0  0  0  0  0
  -38.0710   63.1479   56.2940 H   0  0  0  0  0  0  0  0  0  0  0  0
  -29.8987   60.5640   68.3931 H   0  0  0  0  0  0  0  0  0  0  0  0
  -36.7764   64.0115   58.1399 H   0  0  0  0  0  0  0  0  0  0  0  0
  -35.8549   62.8973   57.1024 H   0  0  0  0  0  0  0  0  0  0  0  0
  -33.0441   57.6504   66.6359 H   0  0  0  0  0  0  0  0  0  0  0  0
  -35.3328   62.5787   59.4281 H   0  0  0  0  0  0  0  0  0  0  0  0
  -36.1244   61.1650   58.6875 H   0  0  0  0  0  0  0  0  0  0  0  0
  -37.4467   63.1485   60.4658 H   0  0  0  0  0  0  0  0  0  0  0  0
  -36.8965   61.5266   60.9176 H   0  0  0  0  0  0  0  0  0  0  0  0
  -38.4221   60.5501   59.3585 H   0  0  0  0  0  0  0  0  0  0  0  0
  -38.9647   62.1759   58.8923 H   0  0  0  0  0  0  0  0  0  0  0  0
  -39.8243   62.5437   61.0775 H   0  0  0  0  0  0  0  0  0  0  0  0
  -39.2676   60.9309   61.5608 H   0  0  0  0  0  0  0  0  0  0  0  0
  -40.7658   59.9213   60.0052 H   0  0  0  0  0  0  0  0  0  0  0  0
  -41.3143   61.5327   59.5035 H   0  0  0  0  0  0  0  0  0  0  0  0
  -42.8977   60.4806   60.9908 H   0  0  0  0  0  0  0  0  0  0  0  0
  -42.1701   61.9422   61.6839 H   0  0  0  0  0  0  0  0  0  0  0  0
  -42.3975   60.2027   63.3306 H   0  0  0  0  0  0  0  0  0  0  0  0
  -40.6985   60.6138   62.9833 H   0  0  0  0  0  0  0  0  0  0  0  0
  -42.1390   58.2232   61.9605 H   0  0  0  0  0  0  0  0  0  0  0  0
  -40.9794   58.2663   63.2992 H   0  0  0  0  0  0  0  0  0  0  0  0
  -40.3860   58.9738   60.4646 H   0  0  0  0  0  0  0  0  0  0  0  0
  -39.9532   57.4642   61.3061 H   0  0  0  0  0  0  0  0  0  0  0  0
  -36.4020   59.0962   62.6252 H   0  0  0  0  0  0  0  0  0  0  0  0
  -36.6048   58.1555   64.0382 H   0  0  0  0  0  0  0  0  0  0  0  0
  -37.7985   60.8886   63.5519 H   0  0  0  0  0  0  0  0  0  0  0  0
  -36.3238   61.7163   65.2340 H   0  0  0  0  0  0  0  0  0  0  0  0
  -35.5811   60.1472   65.3829 H   0  0  0  0  0  0  0  0  0  0  0  0
  -32.2928   59.4491   64.5309 H   0  0  0  0  0  0  0  0  0  0  0  0
  -33.9166   59.2697   65.1284 H   0  0  0  0  0  0  0  0  0  0  0  0
  -33.1755   59.8790   67.3552 H   0  0  0  0  0  0  0  0  0  0  0  0
  -30.4274   59.9994   66.2193 H   0  0  0  0  0  0  0  0  0  0  0  0
  -31.3795   61.3515   66.8105 H   0  0  0  0  0  0  0  0  0  0  0  0
  -39.6506   58.8960   67.3013 H   0  0  0  0  0  0  0  0  0  0  0  0
  -38.5926   57.5059   67.5319 H   0  0  0  0  0  0  0  0  0  0  0  0
  -39.1068   56.7243   65.3057 H   0  0  0  0  0  0  0  0  0  0  0  0
  -40.1689   58.1357   65.0833 H   0  0  0  0  0  0  0  0  0  0  0  0
  -40.5909   55.9483   67.0572 H   0  0  0  0  0  0  0  0  0  0  0  0
  -41.4340   56.1624   65.5069 H   0  0  0  0  0  0  0  0  0  0  0  0
  -42.3735   58.2210   66.2712 H   0  0  0  0  0  0  0  0  0  0  0  0
  -41.5173   58.0196   67.8196 H   0  0  0  0  0  0  0  0  0  0  0  0
  -43.6572   56.2382   66.7801 H   0  0  0  0  0  0  0  0  0  0  0  0
  -43.8146   57.4932   68.0399 H   0  0  0  0  0  0  0  0  0  0  0  0
  -42.3406   56.2901   69.4680 H   0  0  0  0  0  0  0  0  0  0  0  0
  -42.1686   55.0379   68.2003 H   0  0  0  0  0  0  0  0  0  0  0  0
  -43.6122   54.2992   69.9983 H   0  0  0  0  0  0  0  0  0  0  0  0
  -44.4473   54.4299   68.4467 H   0  0  0  0  0  0  0  0  0  0  0  0
  -45.7698   56.1946   69.2431 H   0  0  0  0  0  0  0  0  0  0  0  0
  -45.8458   56.8798   71.3843 H   0  0  0  0  0  0  0  0  0  0  0  0
  -44.0747   54.8477   72.3166 H   0  0  0  0  0  0  0  0  0  0  0  0
  -44.3934   56.4055   73.0921 H   0  0  0  0  0  0  0  0  0  0  0  0
  -42.3572   55.9107   70.9607 H   0  0  0  0  0  0  0  0  0  0  0  0
  -42.0504   56.1062   72.7014 H   0  0  0  0  0  0  0  0  0  0  0  0
  -42.8460   58.3510   72.6175 H   0  0  0  0  0  0  0  0  0  0  0  0
  -43.1743   58.1575   70.8804 H   0  0  0  0  0  0  0  0  0  0  0  0
  -41.1559   59.4132   71.2646 H   0  0  0  0  0  0  0  0  0  0  0  0
  -40.8651   57.8477   70.4588 H   0  0  0  0  0  0  0  0  0  0  0  0
  -40.0615   56.9158   72.4895 H   0  0  0  0  0  0  0  0  0  0  0  0
  -40.3693   58.4594   73.3140 H   0  0  0  0  0  0  0  0  0  0  0  0
  -38.0254   58.1712   72.8226 H   0  0  0  0  0  0  0  0  0  0  0  0
  -38.7599   59.5354   71.9409 H   0  0  0  0  0  0  0  0  0  0  0  0
  -37.1818   58.3353   70.5701 H   0  0  0  0  0  0  0  0  0  0  0  0
  -38.8420   58.2438   69.9590 H   0  0  0  0  0  0  0  0  0  0  0  0
  -37.4135   56.0999   71.4568 H   0  0  0  0  0  0  0  0  0  0  0  0
  -37.7330   56.1192   69.7390 H   0  0  0  0  0  0  0  0  0  0  0  0
  -39.0590   56.0281   70.8733 H   0  0  0  0  0  0  0  0  0  0  0  0
  1  4  1  0  0  0  0
  1 54  1  0  0  0  0
  1 55  1  0  0  0  0
  1 56  1  0  0  0  0
  2 29  2  0  0  0  0
  3  7  1  0  0  0  0
  3  9  2  6  0  0  0
  3 11  1  0  0  0  0
  3 13  1  0  0  0  0
  4  6  1  0  0  0  0
  4 57  1  0  0  0  0
  4 58  1  0  0  0  0
  5 29  1  0  0  0  0
  5 30  1  0  0  0  0
  6  8  1  0  0  0  0
  6 59  1  0  0  0  0
  6 60  1  0  0  0  0
  7 32  1  0  0  0  0
  8 10  1  0  0  0  0
  8 61  1  0  0  0  0
  8 62  1  0  0  0  0
 10 12  1  0  0  0  0
 10 63  1  0  0  0  0
 10 64  1  0  0  0  0
 11 65  1  0  0  0  0
 12 14  1  0  0  0  0
 12 66  1  0  0  0  0
 12 67  1  0  0  0  0
 13 33  1  0  0  0  0
 14 16  1  0  0  0  0
 14 68  1  0  0  0  0
 14 69  1  0  0  0  0
 15 35  1  0  0  0  0
 15 70  1  0  0  0  0
 16 18  1  0  0  0  0
 16 71  1  0  0  0  0
 16 72  1  0  0  0  0
 17 34  1  0  0  0  0
 17 73  1  0  0  0  0
 18 20  1  0  0  0  0
 18 74  1  0  0  0  0
 18 75  1  0  0  0  0
 19 31  1  0  0  0  0
 19 36  1  0  0  0  0
 20 22  1  0  0  0  0
 20 76  1  0  0  0  0
 20 77  1  0  0  0  0
 21 36  2  0  0  0  0
 22 23  1  0  0  0  0
 22 78  1  0  0  0  0
 22 79  1  0  0  0  0
 23 24  1  0  0  0  0
 23 80  1  0  0  0  0
 23 81  1  0  0  0  0
 24 25  1  0  0  0  0
 24 82  1  0  0  0  0
 24 83  1  0  0  0  0
 25 26  1  0  0  0  0
 25 84  1  0  0  0  0
 25 85  1  0  0  0  0
 26 27  1  0  0  0  0
 26 86  1  0  0  0  0
 26 87  1  0  0  0  0
 27 28  1  0  0  0  0
 27 88  1  0  0  0  0
 27 89  1  0  0  0  0
 28 29  1  0  0  0  0
 28 90  1  0  0  0  0
 28 91  1  0  0  0  0
 30 31  1  0  0  0  0
 30 92  1  0  0  0  0
 30 93  1  0  0  0  0
 31 32  1  0  0  0  0
 31 94  1  6  0  0  0
 32 95  1  0  0  0  0
 32 96  1  0  0  0  0
 33 34  1  0  0  0  0
 33 97  1  0  0  0  0
 33 98  1  0  0  0  0
 34 35  1  0  0  0  0
 34 99  1  1  0  0  0
 35100  1  0  0  0  0
 35101  1  0  0  0  0
 36 37  1  0  0  0  0
 37 38  1  0  0  0  0
 37102  1  0  0  0  0
 37103  1  0  0  0  0
 38 39  1  0  0  0  0
 38104  1  0  0  0  0
 38105  1  0  0  0  0
 39 40  1  0  0  0  0
 39106  1  0  0  0  0
 39107  1  0  0  0  0
 40 41  1  0  0  0  0
 40108  1  0  0  0  0
 40109  1  0  0  0  0
 41 42  1  0  0  0  0
 41110  1  0  0  0  0
 41111  1  0  0  0  0
 42 43  1  0  0  0  0
 42112  1  0  0  0  0
 42113  1  0  0  0  0
 43 44  1  0  0  0  0
 43114  1  0  0  0  0
 43115  1  0  0  0  0
 44 45  2  0  0  0  0
 44116  1  0  0  0  0
 45 46  1  0  0  0  0
 45117  1  0  0  0  0
 46 47  1  0  0  0  0
 46118  1  0  0  0  0
 46119  1  0  0  0  0
 47 48  1  0  0  0  0
 47120  1  0  0  0  0
 47121  1  0  0  0  0
 48 49  1  0  0  0  0
 48122  1  0  0  0  0
 48123  1  0  0  0  0
 49 50  1  0  0  0  0
 49124  1  0  0  0  0
 49125  1  0  0  0  0
 50 51  1  0  0  0  0
 50126  1  0  0  0  0
 50127  1  0  0  0  0
 51 52  1  0  0  0  0
 51128  1  0  0  0  0
 51129  1  0  0  0  0
 52 53  1  0  0  0  0
 52130  1  0  0  0  0
 52131  1  0  0  0  0
 53132  1  0  0  0  0
 53133  1  0  0  0  0
 53134  1  0  0  0  0
M  CHG  1   9  -1
M  END
$$$$