/media/chris/experiments/cd1a-new-docking/inputs/ligands/7sh4_ligand.pdb
 OpenBabel07012320073D

134133  0  0  1  0  0  0  0  0999 V2000
  -27.0880   55.2713   51.7348 C   0  0  0  0  0  0  0  0  0  0  0  0
  -39.2991   60.4756   62.4545 O   0  0  0  0  0  0  0  0  0  0  0  0
  -33.7887   61.7905   63.7469 P   0  0  1  0  0  0  0  0  0  0  0  0
  -28.3353   54.4174   51.7652 C   0  0  0  0  0  0  0  0  0  0  0  0
  -38.3690   58.5038   62.9506 O   0  0  0  0  0  0  0  0  0  0  0  0
  -29.5981   55.2435   51.9195 C   0  0  0  0  0  0  0  0  0  0  0  0
  -35.2304   61.1139   63.5864 O   0  0  0  0  0  0  0  0  0  0  0  0
  -30.8829   54.4362   51.9732 C   0  0  0  0  0  0  0  0  0  0  0  0
  -33.9679   63.0971   64.4159 O   0  5  0  0  0  0  0  0  0  0  0  0
  -30.9406   53.4597   53.1397 C   0  0  0  0  0  0  0  0  0  0  0  0
  -32.8774   60.7949   64.3610 O   0  0  0  0  0  0  0  0  0  0  0  0
  -30.8561   54.1287   54.4964 C   0  0  0  0  0  0  0  0  0  0  0  0
  -33.2833   62.0655   62.2597 O   0  0  0  0  0  0  0  0  0  0  0  0
  -31.9869   55.1048   54.7585 C   0  0  0  0  0  0  0  0  0  0  0  0
  -33.1578   59.5316   58.8344 O   0  0  0  0  0  0  0  0  0  0  0  0
  -33.3721   54.4687   54.7349 C   0  0  0  0  0  0  0  0  0  0  0  0
  -31.6453   61.6210   60.0390 O   0  0  0  0  0  0  0  0  0  0  0  0
  -34.4999   55.4491   54.9802 C   0  0  0  0  0  0  0  0  0  0  0  0
  -38.2720   59.8520   65.2990 O   0  0  0  0  0  0  0  0  0  0  0  0
  -34.4162   56.1672   56.3120 C   0  0  0  0  0  0  0  0  0  0  0  0
  -37.0868   58.0613   65.9691 O   0  0  0  0  0  0  0  0  0  0  0  0
  -35.5657   57.1255   56.5323 C   0  0  0  0  0  0  0  0  0  0  0  0
  -35.4884   57.8600   57.8446 C   0  0  0  0  0  0  0  0  0  0  0  0
  -36.6480   58.8008   58.0630 C   0  0  0  0  0  0  0  0  0  0  0  0
  -36.5654   59.5547   59.3748 C   0  0  0  0  0  0  0  0  0  0  0  0
  -37.7370   60.4838   59.5984 C   0  0  0  0  0  0  0  0  0  0  0  0
  -39.0807   59.7873   59.6455 C   0  0  0  0  0  0  0  0  0  0  0  0
  -39.1768   58.7699   60.7698 C   0  0  0  0  0  0  0  0  0  0  0  0
  -39.0024   59.3540   62.1421 C   0  0  0  0  0  0  0  0  0  0  0  0
  -37.0720   58.9080   63.4380 C   0  0  0  0  0  0  0  0  0  0  0  0
  -37.3490   60.1700   64.2050 C   0  0  2  0  0  0  0  0  0  0  0  0
  -36.0840   60.8130   64.7130 C   0  0  0  0  0  0  0  0  0  0  0  0
  -33.7102   61.2071   61.1823 C   0  0  0  0  0  0  0  0  0  0  0  0
  -33.0680   61.6911   59.9054 C   0  0  2  0  0  0  0  0  0  0  0  0
  -33.5178   60.9006   58.7002 C   0  0  0  0  0  0  0  0  0  0  0  0
  -37.8515   58.9548   66.2113 C   0  0  0  0  0  0  0  0  0  0  0  0
  -38.4362   59.2157   67.5649 C   0  0  0  0  0  0  0  0  0  0  0  0
  -37.5478   60.1430   68.3881 C   0  0  0  0  0  0  0  0  0  0  0  0
  -37.3408   61.5130   67.7634 C   0  0  0  0  0  0  0  0  0  0  0  0
  -38.6335   62.2985   67.5741 C   0  0  0  0  0  0  0  0  0  0  0  0
  -38.4395   63.6612   66.9355 C   0  0  0  0  0  0  0  0  0  0  0  0
  -39.7279   64.4687   66.7545 C   0  0  0  0  0  0  0  0  0  0  0  0
  -39.5512   65.8387   66.0962 C   0  0  0  0  0  0  0  0  0  0  0  0
  -38.6281   66.7256   66.8768 C   0  0  0  0  0  0  0  0  0  0  0  0
  -38.7831   67.1184   68.1263 C   0  0  0  0  0  0  0  0  0  0  0  0
  -39.9187   66.7569   69.0307 C   0  0  0  0  0  0  0  0  0  0  0  0
  -39.4536   66.0204   70.2836 C   0  0  0  0  0  0  0  0  0  0  0  0
  -40.5867   65.6248   71.2141 C   0  0  0  0  0  0  0  0  0  0  0  0
  -40.1224   64.9067   72.4695 C   0  0  0  0  0  0  0  0  0  0  0  0
  -39.3565   63.6196   72.2119 C   0  0  0  0  0  0  0  0  0  0  0  0
  -40.1554   62.5848   71.4343 C   0  0  0  0  0  0  0  0  0  0  0  0
  -41.4423   62.1557   72.1108 C   0  0  0  0  0  0  0  0  0  0  0  0
  -42.3987   63.2967   72.3180 C   0  0  0  0  0  0  0  0  0  0  0  0
  -26.2285   54.6434   51.6249 H   0  0  0  0  0  0  0  0  0  0  0  0
  -27.0116   55.8238   52.6479 H   0  0  0  0  0  0  0  0  0  0  0  0
  -27.1409   55.9508   50.9100 H   0  0  0  0  0  0  0  0  0  0  0  0
  -28.2664   53.7378   52.5888 H   0  0  0  0  0  0  0  0  0  0  0  0
  -28.3976   53.8976   50.8320 H   0  0  0  0  0  0  0  0  0  0  0  0
  -29.6609   55.9146   51.0885 H   0  0  0  0  0  0  0  0  0  0  0  0
  -29.5174   55.7452   52.8612 H   0  0  0  0  0  0  0  0  0  0  0  0
  -30.9719   53.8812   51.0628 H   0  0  0  0  0  0  0  0  0  0  0  0
  -31.6852   55.1316   52.1060 H   0  0  0  0  0  0  0  0  0  0  0  0
  -30.1231   52.7754   53.0486 H   0  0  0  0  0  0  0  0  0  0  0  0
  -31.8901   52.9689   53.0909 H   0  0  0  0  0  0  0  0  0  0  0  0
  -33.1648   60.6103   65.2688 H   0  0  0  0  0  0  0  0  0  0  0  0
  -29.9291   54.6598   54.5554 H   0  0  0  0  0  0  0  0  0  0  0  0
  -30.9278   53.3569   55.2340 H   0  0  0  0  0  0  0  0  0  0  0  0
  -31.9538   55.8674   54.0087 H   0  0  0  0  0  0  0  0  0  0  0  0
  -31.8401   55.4912   55.7455 H   0  0  0  0  0  0  0  0  0  0  0  0
  -33.4546   59.0410   58.0520 H   0  0  0  0  0  0  0  0  0  0  0  0
  -33.4099   53.7146   55.4930 H   0  0  0  0  0  0  0  0  0  0  0  0
  -33.5147   54.0697   53.7524 H   0  0  0  0  0  0  0  0  0  0  0  0
  -31.3679   62.1318   60.8155 H   0  0  0  0  0  0  0  0  0  0  0  0
  -35.4251   54.9128   54.9451 H   0  0  0  0  0  0  0  0  0  0  0  0
  -34.4280   56.1989   54.2202 H   0  0  0  0  0  0  0  0  0  0  0  0
  -33.4998   56.7185   56.3465 H   0  0  0  0  0  0  0  0  0  0  0  0
  -34.4617   55.4258   57.0821 H   0  0  0  0  0  0  0  0  0  0  0  0
  -36.4799   56.5699   56.5078 H   0  0  0  0  0  0  0  0  0  0  0  0
  -35.5182   57.8600   55.7557 H   0  0  0  0  0  0  0  0  0  0  0  0
  -34.5810   58.4266   57.8652 H   0  0  0  0  0  0  0  0  0  0  0  0
  -35.5195   57.1273   58.6238 H   0  0  0  0  0  0  0  0  0  0  0  0
  -37.5541   58.2318   58.0541 H   0  0  0  0  0  0  0  0  0  0  0  0
  -36.6216   59.5262   57.2769 H   0  0  0  0  0  0  0  0  0  0  0  0
  -35.6657   60.1339   59.3789 H   0  0  0  0  0  0  0  0  0  0  0  0
  -36.5780   58.8295   60.1614 H   0  0  0  0  0  0  0  0  0  0  0  0
  -37.7565   61.1973   58.8013 H   0  0  0  0  0  0  0  0  0  0  0  0
  -37.5917   60.9370   60.5567 H   0  0  0  0  0  0  0  0  0  0  0  0
  -39.2377   59.2839   58.7144 H   0  0  0  0  0  0  0  0  0  0  0  0
  -39.8253   60.5350   59.8227 H   0  0  0  0  0  0  0  0  0  0  0  0
  -38.4176   58.0310   60.6201 H   0  0  0  0  0  0  0  0  0  0  0  0
  -40.1649   58.3609   60.7319 H   0  0  0  0  0  0  0  0  0  0  0  0
  -36.4020   59.0962   62.6252 H   0  0  0  0  0  0  0  0  0  0  0  0
  -36.6048   58.1555   64.0382 H   0  0  0  0  0  0  0  0  0  0  0  0
  -37.7985   60.8886   63.5519 H   0  0  0  0  0  0  0  0  0  0  0  0
  -36.3238   61.7163   65.2340 H   0  0  0  0  0  0  0  0  0  0  0  0
  -35.5811   60.1472   65.3829 H   0  0  0  0  0  0  0  0  0  0  0  0
  -34.7754   61.2469   61.0888 H   0  0  0  0  0  0  0  0  0  0  0  0
  -33.4198   60.1964   61.3800 H   0  0  0  0  0  0  0  0  0  0  0  0
  -33.3751   62.7035   59.7453 H   0  0  0  0  0  0  0  0  0  0  0  0
  -34.5810   60.9767   58.6069 H   0  0  0  0  0  0  0  0  0  0  0  0
  -33.0394   61.2984   57.8297 H   0  0  0  0  0  0  0  0  0  0  0  0
  -38.5424   58.2856   68.0830 H   0  0  0  0  0  0  0  0  0  0  0  0
  -39.3865   59.6897   67.4345 H   0  0  0  0  0  0  0  0  0  0  0  0
  -36.5912   59.6777   68.5040 H   0  0  0  0  0  0  0  0  0  0  0  0
  -38.0445   60.2998   69.3227 H   0  0  0  0  0  0  0  0  0  0  0  0
  -36.8808   61.3825   66.8062 H   0  0  0  0  0  0  0  0  0  0  0  0
  -36.7273   62.0754   68.4361 H   0  0  0  0  0  0  0  0  0  0  0  0
  -39.0861   62.4378   68.5336 H   0  0  0  0  0  0  0  0  0  0  0  0
  -39.2472   61.7288   66.9079 H   0  0  0  0  0  0  0  0  0  0  0  0
  -37.9969   63.5183   65.9719 H   0  0  0  0  0  0  0  0  0  0  0  0
  -37.8199   64.2235   67.6023 H   0  0  0  0  0  0  0  0  0  0  0  0
  -40.1626   64.6193   67.7206 H   0  0  0  0  0  0  0  0  0  0  0  0
  -40.3452   63.8985   66.0922 H   0  0  0  0  0  0  0  0  0  0  0  0
  -40.5075   66.3133   66.0256 H   0  0  0  0  0  0  0  0  0  0  0  0
  -39.1207   65.6859   65.1287 H   0  0  0  0  0  0  0  0  0  0  0  0
  -37.7853   67.0633   66.3862 H   0  0  0  0  0  0  0  0  0  0  0  0
  -38.0520   67.7331   68.5170 H   0  0  0  0  0  0  0  0  0  0  0  0
  -40.5979   66.1275   68.4946 H   0  0  0  0  0  0  0  0  0  0  0  0
  -40.3891   67.6659   69.3427 H   0  0  0  0  0  0  0  0  0  0  0  0
  -38.7822   66.6575   70.8205 H   0  0  0  0  0  0  0  0  0  0  0  0
  -38.9846   65.1151   69.9587 H   0  0  0  0  0  0  0  0  0  0  0  0
  -41.2515   64.9778   70.6809 H   0  0  0  0  0  0  0  0  0  0  0  0
  -41.0633   66.5295   71.5291 H   0  0  0  0  0  0  0  0  0  0  0  0
  -40.9845   64.6707   73.0577 H   0  0  0  0  0  0  0  0  0  0  0  0
  -39.4455   65.5695   72.9668 H   0  0  0  0  0  0  0  0  0  0  0  0
  -39.0795   63.1957   73.1544 H   0  0  0  0  0  0  0  0  0  0  0  0
  -38.5050   63.8735   71.6157 H   0  0  0  0  0  0  0  0  0  0  0  0
  -39.5418   61.7185   71.3006 H   0  0  0  0  0  0  0  0  0  0  0  0
  -40.4332   63.0434   70.5084 H   0  0  0  0  0  0  0  0  0  0  0  0
  -41.2031   61.7324   73.0639 H   0  0  0  0  0  0  0  0  0  0  0  0
  -41.9219   61.4450   71.4705 H   0  0  0  0  0  0  0  0  0  0  0  0
  -41.9485   64.0280   72.9563 H   0  0  0  0  0  0  0  0  0  0  0  0
  -43.2965   62.9317   72.7716 H   0  0  0  0  0  0  0  0  0  0  0  0
  -42.6320   63.7426   71.3738 H   0  0  0  0  0  0  0  0  0  0  0  0
  1  4  1  0  0  0  0
  1 54  1  0  0  0  0
  1 55  1  0  0  0  0
  1 56  1  0  0  0  0
  2 29  2  0  0  0  0
  3  7  1  0  0  0  0
  3  9  2  1  0  0  0
  3 11  1  0  0  0  0
  3 13  1  0  0  0  0
  4  6  1  0  0  0  0
  4 57  1  0  0  0  0
  4 58  1  0  0  0  0
  5 29  1  0  0  0  0
  5 30  1  0  0  0  0
  6  8  1  0  0  0  0
  6 59  1  0  0  0  0
  6 60  1  0  0  0  0
  7 32  1  0  0  0  0
  8 10  1  0  0  0  0
  8 61  1  0  0  0  0
  8 62  1  0  0  0  0
 10 12  1  0  0  0  0
 10 63  1  0  0  0  0
 10 64  1  0  0  0  0
 11 65  1  0  0  0  0
 12 14  1  0  0  0  0
 12 66  1  0  0  0  0
 12 67  1  0  0  0  0
 13 33  1  0  0  0  0
 14 16  1  0  0  0  0
 14 68  1  0  0  0  0
 14 69  1  0  0  0  0
 15 35  1  0  0  0  0
 15 70  1  0  0  0  0
 16 18  1  0  0  0  0
 16 71  1  0  0  0  0
 16 72  1  0  0  0  0
 17 34  1  0  0  0  0
 17 73  1  0  0  0  0
 18 20  1  0  0  0  0
 18 74  1  0  0  0  0
 18 75  1  0  0  0  0
 19 31  1  0  0  0  0
 19 36  1  0  0  0  0
 20 22  1  0  0  0  0
 20 76  1  0  0  0  0
 20 77  1  0  0  0  0
 21 36  2  0  0  0  0
 22 23  1  0  0  0  0
 22 78  1  0  0  0  0
 22 79  1  0  0  0  0
 23 24  1  0  0  0  0
 23 80  1  0  0  0  0
 23 81  1  0  0  0  0
 24 25  1  0  0  0  0
 24 82  1  0  0  0  0
 24 83  1  0  0  0  0
 25 26  1  0  0  0  0
 25 84  1  0  0  0  0
 25 85  1  0  0  0  0
 26 27  1  0  0  0  0
 26 86  1  0  0  0  0
 26 87  1  0  0  0  0
 27 28  1  0  0  0  0
 27 88  1  0  0  0  0
 27 89  1  0  0  0  0
 28 29  1  0  0  0  0
 28 90  1  0  0  0  0
 28 91  1  0  0  0  0
 30 31  1  0  0  0  0
 30 92  1  0  0  0  0
 30 93  1  0  0  0  0
 31 32  1  0  0  0  0
 31 94  1  6  0  0  0
 32 95  1  0  0  0  0
 32 96  1  0  0  0  0
 33 34  1  0  0  0  0
 33 97  1  0  0  0  0
 33 98  1  0  0  0  0
 34 35  1  0  0  0  0
 34 99  1  6  0  0  0
 35100  1  0  0  0  0
 35101  1  0  0  0  0
 36 37  1  0  0  0  0
 37 38  1  0  0  0  0
 37102  1  0  0  0  0
 37103  1  0  0  0  0
 38 39  1  0  0  0  0
 38104  1  0  0  0  0
 38105  1  0  0  0  0
 39 40  1  0  0  0  0
 39106  1  0  0  0  0
 39107  1  0  0  0  0
 40 41  1  0  0  0  0
 40108  1  0  0  0  0
 40109  1  0  0  0  0
 41 42  1  0  0  0  0
 41110  1  0  0  0  0
 41111  1  0  0  0  0
 42 43  1  0  0  0  0
 42112  1  0  0  0  0
 42113  1  0  0  0  0
 43 44  1  0  0  0  0
 43114  1  0  0  0  0
 43115  1  0  0  0  0
 44 45  2  0  0  0  0
 44116  1  0  0  0  0
 45 46  1  0  0  0  0
 45117  1  0  0  0  0
 46 47  1  0  0  0  0
 46118  1  0  0  0  0
 46119  1  0  0  0  0
 47 48  1  0  0  0  0
 47120  1  0  0  0  0
 47121  1  0  0  0  0
 48 49  1  0  0  0  0
 48122  1  0  0  0  0
 48123  1  0  0  0  0
 49 50  1  0  0  0  0
 49124  1  0  0  0  0
 49125  1  0  0  0  0
 50 51  1  0  0  0  0
 50126  1  0  0  0  0
 50127  1  0  0  0  0
 51 52  1  0  0  0  0
 51128  1  0  0  0  0
 51129  1  0  0  0  0
 52 53  1  0  0  0  0
 52130  1  0  0  0  0
 52131  1  0  0  0  0
 53132  1  0  0  0  0
 53133  1  0  0  0  0
 53134  1  0  0  0  0
M  CHG  1   9  -1
M  END
$$$$