/media/chris/experiments/cd1a-new-docking/inputs/ligands/7sh4_ligand.pdb
 OpenBabel07012320073D

134133  0  0  1  0  0  0  0  0999 V2000
  -37.1356   65.9556   56.9005 C   0  0  0  0  0  0  0  0  0  0  0  0
  -39.2991   60.4756   62.4545 O   0  0  0  0  0  0  0  0  0  0  0  0
  -37.2082   63.2406   64.7182 P   0  0  1  0  0  0  0  0  0  0  0  0
  -36.8747   64.4690   56.9885 C   0  0  0  0  0  0  0  0  0  0  0  0
  -38.3690   58.5038   62.9506 O   0  0  0  0  0  0  0  0  0  0  0  0
  -35.4334   64.1546   57.3420 C   0  0  0  0  0  0  0  0  0  0  0  0
  -36.4293   62.0282   65.4148 O   0  0  0  0  0  0  0  0  0  0  0  0
  -35.1086   62.6740   57.4278 C   0  0  0  0  0  0  0  0  0  0  0  0
  -36.2031   64.1613   64.1447 O   0  5  0  0  0  0  0  0  0  0  0  0
  -35.3364   61.9236   56.1230 C   0  0  0  0  0  0  0  0  0  0  0  0
  -38.2443   62.6705   63.8238 O   0  0  0  0  0  0  0  0  0  0  0  0
  -35.0288   60.4429   56.2123 C   0  0  0  0  0  0  0  0  0  0  0  0
  -37.9514   64.0029   65.9053 O   0  0  0  0  0  0  0  0  0  0  0  0
  -35.2411   59.7033   54.9054 C   0  0  0  0  0  0  0  0  0  0  0  0
  -36.9769   67.9324   67.2389 O   0  0  0  0  0  0  0  0  0  0  0  0
  -34.9515   58.2087   54.9853 C   0  0  0  0  0  0  0  0  0  0  0  0
  -38.2121   66.6420   65.0223 O   0  0  0  0  0  0  0  0  0  0  0  0
  -35.8249   57.4683   55.9763 C   0  0  0  0  0  0  0  0  0  0  0  0
  -38.2720   59.8520   65.2990 O   0  0  0  0  0  0  0  0  0  0  0  0
  -37.3070   57.5413   55.6696 C   0  0  0  0  0  0  0  0  0  0  0  0
  -37.0868   58.0613   65.9691 O   0  0  0  0  0  0  0  0  0  0  0  0
  -38.1512   56.8065   56.6871 C   0  0  0  0  0  0  0  0  0  0  0  0
  -39.6261   56.8553   56.3873 C   0  0  0  0  0  0  0  0  0  0  0  0
  -40.4614   56.1341   57.4167 C   0  0  0  0  0  0  0  0  0  0  0  0
  -40.3228   56.7140   58.8097 C   0  0  0  0  0  0  0  0  0  0  0  0
  -40.7565   58.1598   58.8950 C   0  0  0  0  0  0  0  0  0  0  0  0
  -40.6127   58.7703   60.2731 C   0  0  0  0  0  0  0  0  0  0  0  0
  -39.1768   58.7699   60.7698 C   0  0  0  0  0  0  0  0  0  0  0  0
  -39.0024   59.3540   62.1421 C   0  0  0  0  0  0  0  0  0  0  0  0
  -37.0720   58.9080   63.4380 C   0  0  0  0  0  0  0  0  0  0  0  0
  -37.3490   60.1700   64.2050 C   0  0  2  0  0  0  0  0  0  0  0  0
  -36.0840   60.8130   64.7130 C   0  0  0  0  0  0  0  0  0  0  0  0
  -37.2908   65.0846   66.5934 C   0  0  0  0  0  0  0  0  0  0  0  0
  -36.9868   66.1709   65.5911 C   0  0  2  0  0  0  0  0  0  0  0  0
  -36.2207   67.3193   66.2026 C   0  0  0  0  0  0  0  0  0  0  0  0
  -37.8515   58.9548   66.2113 C   0  0  0  0  0  0  0  0  0  0  0  0
  -38.4362   59.2157   67.5649 C   0  0  0  0  0  0  0  0  0  0  0  0
  -38.7188   60.6999   67.7749 C   0  0  0  0  0  0  0  0  0  0  0  0
  -39.2989   61.0296   69.1405 C   0  0  0  0  0  0  0  0  0  0  0  0
  -39.5942   62.5123   69.3357 C   0  0  0  0  0  0  0  0  0  0  0  0
  -40.6048   63.0747   68.3533 C   0  0  0  0  0  0  0  0  0  0  0  0
  -40.2013   62.9470   66.8816 C   0  0  0  0  0  0  0  0  0  0  0  0
  -41.2026   63.5248   65.8790 C   0  0  0  0  0  0  0  0  0  0  0  0
  -40.7481   63.3481   64.4612 C   0  0  0  0  0  0  0  0  0  0  0  0
  -41.3810   63.7488   63.3758 C   0  0  0  0  0  0  0  0  0  0  0  0
  -42.6917   64.4690   63.3334 C   0  0  0  0  0  0  0  0  0  0  0  0
  -43.2664   64.7146   64.7255 C   0  0  0  0  0  0  0  0  0  0  0  0
  -44.6061   65.4296   64.7144 C   0  0  0  0  0  0  0  0  0  0  0  0
  -45.6979   64.6677   63.9830 C   0  0  0  0  0  0  0  0  0  0  0  0
  -45.3936   64.3783   62.5225 C   0  0  0  0  0  0  0  0  0  0  0  0
  -46.5088   63.6299   61.8083 C   0  0  0  0  0  0  0  0  0  0  0  0
  -46.8467   62.2850   62.4205 C   0  0  0  0  0  0  0  0  0  0  0  0
  -47.9401   61.5672   61.6796 C   0  0  0  0  0  0  0  0  0  0  0  0
  -38.1622   66.1232   56.6497 H   0  0  0  0  0  0  0  0  0  0  0  0
  -36.5095   66.3835   56.1457 H   0  0  0  0  0  0  0  0  0  0  0  0
  -36.9198   66.4120   57.8439 H   0  0  0  0  0  0  0  0  0  0  0  0
  -37.1013   64.0237   56.0423 H   0  0  0  0  0  0  0  0  0  0  0  0
  -37.4947   64.0744   57.7662 H   0  0  0  0  0  0  0  0  0  0  0  0
  -35.2190   64.5983   58.2918 H   0  0  0  0  0  0  0  0  0  0  0  0
  -34.8349   64.5493   56.5477 H   0  0  0  0  0  0  0  0  0  0  0  0
  -35.7270   62.2352   58.1828 H   0  0  0  0  0  0  0  0  0  0  0  0
  -34.0668   62.5940   57.6581 H   0  0  0  0  0  0  0  0  0  0  0  0
  -34.7089   62.3546   55.3711 H   0  0  0  0  0  0  0  0  0  0  0  0
  -36.3761   62.0140   55.8868 H   0  0  0  0  0  0  0  0  0  0  0  0
  -37.8160   62.2003   63.0914 H   0  0  0  0  0  0  0  0  0  0  0  0
  -35.6650   60.0085   56.9550 H   0  0  0  0  0  0  0  0  0  0  0  0
  -33.9927   60.3502   56.4628 H   0  0  0  0  0  0  0  0  0  0  0  0
  -34.5960   60.1322   54.1673 H   0  0  0  0  0  0  0  0  0  0  0  0
  -36.2767   59.8054   54.6563 H   0  0  0  0  0  0  0  0  0  0  0  0
  -36.4691   68.6664   67.6187 H   0  0  0  0  0  0  0  0  0  0  0  0
  -33.9293   58.0783   55.2734 H   0  0  0  0  0  0  0  0  0  0  0  0
  -35.1606   57.7990   54.0192 H   0  0  0  0  0  0  0  0  0  0  0  0
  -38.6954   65.8965   64.6328 H   0  0  0  0  0  0  0  0  0  0  0  0
  -35.6615   57.8876   56.9471 H   0  0  0  0  0  0  0  0  0  0  0  0
  -35.5486   56.4361   55.9203 H   0  0  0  0  0  0  0  0  0  0  0  0
  -37.4788   57.1089   54.7060 H   0  0  0  0  0  0  0  0  0  0  0  0
  -37.5922   58.5723   55.6974 H   0  0  0  0  0  0  0  0  0  0  0  0
  -37.9855   57.2479   57.6476 H   0  0  0  0  0  0  0  0  0  0  0  0
  -37.8568   55.7782   56.6586 H   0  0  0  0  0  0  0  0  0  0  0  0
  -39.7952   56.4022   55.4328 H   0  0  0  0  0  0  0  0  0  0  0  0
  -39.9212   57.8837   56.3991 H   0  0  0  0  0  0  0  0  0  0  0  0
  -40.1575   55.1085   57.4434 H   0  0  0  0  0  0  0  0  0  0  0  0
  -41.4859   56.2421   57.1276 H   0  0  0  0  0  0  0  0  0  0  0  0
  -39.2966   56.6481   59.1057 H   0  0  0  0  0  0  0  0  0  0  0  0
  -40.9625   56.1499   59.4558 H   0  0  0  0  0  0  0  0  0  0  0  0
  -41.7855   58.2191   58.6074 H   0  0  0  0  0  0  0  0  0  0  0  0
  -40.1120   58.7133   58.2445 H   0  0  0  0  0  0  0  0  0  0  0  0
  -41.2122   58.2097   60.9597 H   0  0  0  0  0  0  0  0  0  0  0  0
  -40.9314   59.7897   60.2090 H   0  0  0  0  0  0  0  0  0  0  0  0
  -38.5842   59.3391   60.0845 H   0  0  0  0  0  0  0  0  0  0  0  0
  -38.8713   57.7462   60.8291 H   0  0  0  0  0  0  0  0  0  0  0  0
  -36.4020   59.0962   62.6252 H   0  0  0  0  0  0  0  0  0  0  0  0
  -36.6048   58.1555   64.0382 H   0  0  0  0  0  0  0  0  0  0  0  0
  -37.7985   60.8886   63.5519 H   0  0  0  0  0  0  0  0  0  0  0  0
  -35.5824   60.1428   65.3795 H   0  0  0  0  0  0  0  0  0  0  0  0
  -35.4356   61.0386   63.8923 H   0  0  0  0  0  0  0  0  0  0  0  0
  -36.3805   64.7320   67.0316 H   0  0  0  0  0  0  0  0  0  0  0  0
  -37.9209   65.4662   67.3696 H   0  0  0  0  0  0  0  0  0  0  0  0
  -36.3628   65.7514   64.8298 H   0  0  0  0  0  0  0  0  0  0  0  0
  -35.3015   66.9518   66.6087 H   0  0  0  0  0  0  0  0  0  0  0  0
  -36.0260   68.0466   65.4423 H   0  0  0  0  0  0  0  0  0  0  0  0
  -37.7454   58.8842   68.3118 H   0  0  0  0  0  0  0  0  0  0  0  0
  -39.3616   58.6839   67.6391 H   0  0  0  0  0  0  0  0  0  0  0  0
  -39.4146   61.0193   67.0273 H   0  0  0  0  0  0  0  0  0  0  0  0
  -37.7795   61.2076   67.7059 H   0  0  0  0  0  0  0  0  0  0  0  0
  -38.5983   60.7228   69.8887 H   0  0  0  0  0  0  0  0  0  0  0  0
  -40.2314   60.5107   69.2191 H   0  0  0  0  0  0  0  0  0  0  0  0
  -38.6789   63.0552   69.2246 H   0  0  0  0  0  0  0  0  0  0  0  0
  -40.0196   62.6175   70.3118 H   0  0  0  0  0  0  0  0  0  0  0  0
  -40.7420   64.1129   68.5730 H   0  0  0  0  0  0  0  0  0  0  0  0
  -41.4985   62.4989   68.4742 H   0  0  0  0  0  0  0  0  0  0  0  0
  -40.0754   61.9073   66.6620 H   0  0  0  0  0  0  0  0  0  0  0  0
  -39.3044   63.5194   66.7689 H   0  0  0  0  0  0  0  0  0  0  0  0
  -41.3228   64.5698   66.0750 H   0  0  0  0  0  0  0  0  0  0  0  0
  -42.1268   62.9985   65.9964 H   0  0  0  0  0  0  0  0  0  0  0  0
  -39.8479   62.8634   64.3203 H   0  0  0  0  0  0  0  0  0  0  0  0
  -40.9296   63.5465   62.4701 H   0  0  0  0  0  0  0  0  0  0  0  0
  -43.3885   63.8814   62.7729 H   0  0  0  0  0  0  0  0  0  0  0  0
  -42.5254   65.4221   62.8766 H   0  0  0  0  0  0  0  0  0  0  0  0
  -42.5701   65.3100   65.2783 H   0  0  0  0  0  0  0  0  0  0  0  0
  -43.4271   63.7554   65.1717 H   0  0  0  0  0  0  0  0  0  0  0  0
  -44.4787   66.3788   64.2372 H   0  0  0  0  0  0  0  0  0  0  0  0
  -44.9190   65.5240   65.7332 H   0  0  0  0  0  0  0  0  0  0  0  0
  -46.5972   65.2458   64.0289 H   0  0  0  0  0  0  0  0  0  0  0  0
  -45.7855   63.7189   64.4697 H   0  0  0  0  0  0  0  0  0  0  0  0
  -44.5029   63.7875   62.4726 H   0  0  0  0  0  0  0  0  0  0  0  0
  -45.2820   65.3220   62.0307 H   0  0  0  0  0  0  0  0  0  0  0  0
  -46.2095   63.4708   60.7934 H   0  0  0  0  0  0  0  0  0  0  0  0
  -47.3873   64.2349   61.8919 H   0  0  0  0  0  0  0  0  0  0  0  0
  -47.1623   62.4388   63.4312 H   0  0  0  0  0  0  0  0  0  0  0  0
  -45.9681   61.6766   62.3678 H   0  0  0  0  0  0  0  0  0  0  0  0
  -48.8363   62.1507   61.7132 H   0  0  0  0  0  0  0  0  0  0  0  0
  -48.1163   60.6162   62.1374 H   0  0  0  0  0  0  0  0  0  0  0  0
  -47.6459   61.4235   60.6609 H   0  0  0  0  0  0  0  0  0  0  0  0
  1  4  1  0  0  0  0
  1 54  1  0  0  0  0
  1 55  1  0  0  0  0
  1 56  1  0  0  0  0
  2 29  2  0  0  0  0
  3  7  1  0  0  0  0
  3  9  2  6  0  0  0
  3 11  1  0  0  0  0
  3 13  1  0  0  0  0
  4  6  1  0  0  0  0
  4 57  1  0  0  0  0
  4 58  1  0  0  0  0
  5 29  1  0  0  0  0
  5 30  1  0  0  0  0
  6  8  1  0  0  0  0
  6 59  1  0  0  0  0
  6 60  1  0  0  0  0
  7 32  1  0  0  0  0
  8 10  1  0  0  0  0
  8 61  1  0  0  0  0
  8 62  1  0  0  0  0
 10 12  1  0  0  0  0
 10 63  1  0  0  0  0
 10 64  1  0  0  0  0
 11 65  1  0  0  0  0
 12 14  1  0  0  0  0
 12 66  1  0  0  0  0
 12 67  1  0  0  0  0
 13 33  1  0  0  0  0
 14 16  1  0  0  0  0
 14 68  1  0  0  0  0
 14 69  1  0  0  0  0
 15 35  1  0  0  0  0
 15 70  1  0  0  0  0
 16 18  1  0  0  0  0
 16 71  1  0  0  0  0
 16 72  1  0  0  0  0
 17 34  1  0  0  0  0
 17 73  1  0  0  0  0
 18 20  1  0  0  0  0
 18 74  1  0  0  0  0
 18 75  1  0  0  0  0
 19 31  1  0  0  0  0
 19 36  1  0  0  0  0
 20 22  1  0  0  0  0
 20 76  1  0  0  0  0
 20 77  1  0  0  0  0
 21 36  2  0  0  0  0
 22 23  1  0  0  0  0
 22 78  1  0  0  0  0
 22 79  1  0  0  0  0
 23 24  1  0  0  0  0
 23 80  1  0  0  0  0
 23 81  1  0  0  0  0
 24 25  1  0  0  0  0
 24 82  1  0  0  0  0
 24 83  1  0  0  0  0
 25 26  1  0  0  0  0
 25 84  1  0  0  0  0
 25 85  1  0  0  0  0
 26 27  1  0  0  0  0
 26 86  1  0  0  0  0
 26 87  1  0  0  0  0
 27 28  1  0  0  0  0
 27 88  1  0  0  0  0
 27 89  1  0  0  0  0
 28 29  1  0  0  0  0
 28 90  1  0  0  0  0
 28 91  1  0  0  0  0
 30 31  1  0  0  0  0
 30 92  1  0  0  0  0
 30 93  1  0  0  0  0
 31 32  1  0  0  0  0
 31 94  1  6  0  0  0
 32 95  1  0  0  0  0
 32 96  1  0  0  0  0
 33 34  1  0  0  0  0
 33 97  1  0  0  0  0
 33 98  1  0  0  0  0
 34 35  1  0  0  0  0
 34 99  1  6  0  0  0
 35100  1  0  0  0  0
 35101  1  0  0  0  0
 36 37  1  0  0  0  0
 37 38  1  0  0  0  0
 37102  1  0  0  0  0
 37103  1  0  0  0  0
 38 39  1  0  0  0  0
 38104  1  0  0  0  0
 38105  1  0  0  0  0
 39 40  1  0  0  0  0
 39106  1  0  0  0  0
 39107  1  0  0  0  0
 40 41  1  0  0  0  0
 40108  1  0  0  0  0
 40109  1  0  0  0  0
 41 42  1  0  0  0  0
 41110  1  0  0  0  0
 41111  1  0  0  0  0
 42 43  1  0  0  0  0
 42112  1  0  0  0  0
 42113  1  0  0  0  0
 43 44  1  0  0  0  0
 43114  1  0  0  0  0
 43115  1  0  0  0  0
 44 45  2  0  0  0  0
 44116  1  0  0  0  0
 45 46  1  0  0  0  0
 45117  1  0  0  0  0
 46 47  1  0  0  0  0
 46118  1  0  0  0  0
 46119  1  0  0  0  0
 47 48  1  0  0  0  0
 47120  1  0  0  0  0
 47121  1  0  0  0  0
 48 49  1  0  0  0  0
 48122  1  0  0  0  0
 48123  1  0  0  0  0
 49 50  1  0  0  0  0
 49124  1  0  0  0  0
 49125  1  0  0  0  0
 50 51  1  0  0  0  0
 50126  1  0  0  0  0
 50127  1  0  0  0  0
 51 52  1  0  0  0  0
 51128  1  0  0  0  0
 51129  1  0  0  0  0
 52 53  1  0  0  0  0
 52130  1  0  0  0  0
 52131  1  0  0  0  0
 53132  1  0  0  0  0
 53133  1  0  0  0  0
 53134  1  0  0  0  0
M  CHG  1   9  -1
M  END
$$$$