/media/chris/experiments/cd1a-new-docking/inputs/ligands/7sh4_ligand.pdb
 OpenBabel07012320073D

134133  0  0  1  0  0  0  0  0999 V2000
  -24.7330   65.8522   57.9511 C   0  0  0  0  0  0  0  0  0  0  0  0
  -34.7602   57.6107   62.7784 O   0  0  0  0  0  0  0  0  0  0  0  0
  -35.3336   62.9877   66.0786 P   0  0  1  0  0  0  0  0  0  0  0  0
  -25.5264   66.1090   56.6900 C   0  0  0  0  0  0  0  0  0  0  0  0
  -36.1511   59.3213   62.4064 O   0  0  0  0  0  0  0  0  0  0  0  0
  -26.9416   66.5712   56.9809 C   0  0  0  0  0  0  0  0  0  0  0  0
  -36.4293   62.0282   65.4148 O   0  0  0  0  0  0  0  0  0  0  0  0
  -27.7733   65.5967   57.7957 C   0  0  0  0  0  0  0  0  0  0  0  0
  -34.1810   62.1547   66.4842 O   0  5  0  0  0  0  0  0  0  0  0  0
  -29.1933   66.0786   58.0579 C   0  0  0  0  0  0  0  0  0  0  0  0
  -35.1004   64.1274   65.1592 O   0  0  0  0  0  0  0  0  0  0  0  0
  -30.0188   65.1145   58.8852 C   0  0  0  0  0  0  0  0  0  0  0  0
  -36.0173   63.5576   67.4017 O   0  0  0  0  0  0  0  0  0  0  0  0
  -30.1619   63.7448   58.2498 C   0  0  0  0  0  0  0  0  0  0  0  0
  -39.4322   64.1090   70.7359 O   0  0  0  0  0  0  0  0  0  0  0  0
  -28.8377   63.0212   58.0331 C   0  0  0  0  0  0  0  0  0  0  0  0
  -37.7042   65.2778   68.8186 O   0  0  0  0  0  0  0  0  0  0  0  0
  -28.9829   61.6611   57.3831 C   0  0  0  0  0  0  0  0  0  0  0  0
  -38.2720   59.8520   65.2990 O   0  0  0  0  0  0  0  0  0  0  0  0
  -29.8417   60.6896   58.1672 C   0  0  0  0  0  0  0  0  0  0  0  0
  -37.1354   58.2625   66.4133 O   0  0  0  0  0  0  0  0  0  0  0  0
  -31.2603   61.1813   58.3518 C   0  0  0  0  0  0  0  0  0  0  0  0
  -32.1226   60.2344   59.1438 C   0  0  0  0  0  0  0  0  0  0  0  0
  -32.2336   58.8686   58.5115 C   0  0  0  0  0  0  0  0  0  0  0  0
  -33.1143   57.9177   59.2964 C   0  0  0  0  0  0  0  0  0  0  0  0
  -32.6263   57.6882   60.7088 C   0  0  0  0  0  0  0  0  0  0  0  0
  -32.5709   58.9412   61.5572 C   0  0  0  0  0  0  0  0  0  0  0  0
  -33.9298   59.6002   61.7224 C   0  0  0  0  0  0  0  0  0  0  0  0
  -34.9553   58.7317   62.3924 C   0  0  0  0  0  0  0  0  0  0  0  0
  -37.0720   58.9080   63.4380 C   0  0  0  0  0  0  0  0  0  0  0  0
  -37.3490   60.1700   64.2050 C   0  0  2  0  0  0  0  0  0  0  0  0
  -36.0840   60.8130   64.7130 C   0  0  0  0  0  0  0  0  0  0  0  0
  -37.3602   63.1618   67.7479 C   0  0  0  0  0  0  0  0  0  0  0  0
  -37.7483   63.8630   69.0264 C   0  0  2  0  0  0  0  0  0  0  0  0
  -39.1158   63.4506   69.5161 C   0  0  0  0  0  0  0  0  0  0  0  0
  -37.7394   59.3002   66.4062 C   0  0  0  0  0  0  0  0  0  0  0  0
  -37.9745   60.1431   67.6212 C   0  0  0  0  0  0  0  0  0  0  0  0
  -39.2752   59.7632   68.3218 C   0  0  0  0  0  0  0  0  0  0  0  0
  -40.5105   59.9066   67.4481 C   0  0  0  0  0  0  0  0  0  0  0  0
  -40.7290   61.3231   66.9288 C   0  0  0  0  0  0  0  0  0  0  0  0
  -41.9694   61.4806   66.0691 C   0  0  0  0  0  0  0  0  0  0  0  0
  -42.1925   62.8950   65.5263 C   0  0  0  0  0  0  0  0  0  0  0  0
  -41.0777   63.4305   64.6253 C   0  0  0  0  0  0  0  0  0  0  0  0
  -39.7547   63.4751   65.3293 C   0  0  0  0  0  0  0  0  0  0  0  0
  -39.2649   64.4852   66.0217 C   0  0  0  0  0  0  0  0  0  0  0  0
  -39.9326   65.8042   66.2512 C   0  0  0  0  0  0  0  0  0  0  0  0
  -41.2611   65.6639   66.9888 C   0  0  0  0  0  0  0  0  0  0  0  0
  -41.9715   66.9857   67.2217 C   0  0  0  0  0  0  0  0  0  0  0  0
  -43.2857   66.8481   67.9708 C   0  0  0  0  0  0  0  0  0  0  0  0
  -44.0205   68.1585   68.1991 C   0  0  0  0  0  0  0  0  0  0  0  0
  -43.2144   69.1744   68.9940 C   0  0  0  0  0  0  0  0  0  0  0  0
  -43.9377   70.4824   69.2464 C   0  0  0  0  0  0  0  0  0  0  0  0
  -43.1056   71.4673   70.0191 C   0  0  0  0  0  0  0  0  0  0  0  0
  -23.7461   65.5299   57.6921 H   0  0  0  0  0  0  0  0  0  0  0  0
  -25.2166   65.0920   58.5281 H   0  0  0  0  0  0  0  0  0  0  0  0
  -24.6747   66.7531   58.5254 H   0  0  0  0  0  0  0  0  0  0  0  0
  -25.5706   65.2036   56.1215 H   0  0  0  0  0  0  0  0  0  0  0  0
  -25.0336   66.8888   56.1477 H   0  0  0  0  0  0  0  0  0  0  0  0
  -27.4379   66.7328   56.0469 H   0  0  0  0  0  0  0  0  0  0  0  0
  -26.8537   67.4595   57.5708 H   0  0  0  0  0  0  0  0  0  0  0  0
  -27.2888   65.4434   58.7373 H   0  0  0  0  0  0  0  0  0  0  0  0
  -27.8483   64.6947   57.2251 H   0  0  0  0  0  0  0  0  0  0  0  0
  -29.6816   66.2201   57.1164 H   0  0  0  0  0  0  0  0  0  0  0  0
  -29.1176   66.9870   58.6181 H   0  0  0  0  0  0  0  0  0  0  0  0
  -34.6839   63.8055   64.3444 H   0  0  0  0  0  0  0  0  0  0  0  0
  -30.9956   65.5310   59.0169 H   0  0  0  0  0  0  0  0  0  0  0  0
  -29.5078   64.9792   59.8155 H   0  0  0  0  0  0  0  0  0  0  0  0
  -30.6405   63.8627   57.3001 H   0  0  0  0  0  0  0  0  0  0  0  0
  -30.7343   63.1470   58.9279 H   0  0  0  0  0  0  0  0  0  0  0  0
  -40.3127   63.8318   71.0340 H   0  0  0  0  0  0  0  0  0  0  0  0
  -28.3646   62.8917   58.9840 H   0  0  0  0  0  0  0  0  0  0  0  0
  -28.2586   63.6249   57.3659 H   0  0  0  0  0  0  0  0  0  0  0  0
  -36.8221   65.5312   68.5045 H   0  0  0  0  0  0  0  0  0  0  0  0
  -28.0075   61.2350   57.2740 H   0  0  0  0  0  0  0  0  0  0  0  0
  -29.4725   61.8181   56.4447 H   0  0  0  0  0  0  0  0  0  0  0  0
  -29.4014   60.5449   59.1316 H   0  0  0  0  0  0  0  0  0  0  0  0
  -29.8862   59.7765   57.6112 H   0  0  0  0  0  0  0  0  0  0  0  0
  -31.7014   61.3148   57.3861 H   0  0  0  0  0  0  0  0  0  0  0  0
  -31.2081   62.0971   58.9025 H   0  0  0  0  0  0  0  0  0  0  0  0
  -33.1039   60.6535   59.2247 H   0  0  0  0  0  0  0  0  0  0  0  0
  -31.6625   60.1073   60.1014 H   0  0  0  0  0  0  0  0  0  0  0  0
  -31.2533   58.4453   58.4419 H   0  0  0  0  0  0  0  0  0  0  0  0
  -32.6840   58.9989   57.5497 H   0  0  0  0  0  0  0  0  0  0  0  0
  -33.1386   56.9770   58.7872 H   0  0  0  0  0  0  0  0  0  0  0  0
  -34.0854   58.3623   59.3622 H   0  0  0  0  0  0  0  0  0  0  0  0
  -31.6418   57.2720   60.6603 H   0  0  0  0  0  0  0  0  0  0  0  0
  -33.3311   57.0319   61.1751 H   0  0  0  0  0  0  0  0  0  0  0  0
  -31.9064   59.6395   61.0928 H   0  0  0  0  0  0  0  0  0  0  0  0
  -32.2301   58.6565   62.5307 H   0  0  0  0  0  0  0  0  0  0  0  0
  -34.2954   59.8643   60.7521 H   0  0  0  0  0  0  0  0  0  0  0  0
  -33.7852   60.4508   62.3553 H   0  0  0  0  0  0  0  0  0  0  0  0
  -36.6274   58.1683   64.0706 H   0  0  0  0  0  0  0  0  0  0  0  0
  -37.9610   58.4631   63.0423 H   0  0  0  0  0  0  0  0  0  0  0  0
  -37.7985   60.8886   63.5519 H   0  0  0  0  0  0  0  0  0  0  0  0
  -35.5824   60.1428   65.3795 H   0  0  0  0  0  0  0  0  0  0  0  0
  -35.4356   61.0386   63.8923 H   0  0  0  0  0  0  0  0  0  0  0  0
  -37.3993   62.1021   67.8906 H   0  0  0  0  0  0  0  0  0  0  0  0
  -38.0363   63.4282   66.9624 H   0  0  0  0  0  0  0  0  0  0  0  0
  -37.0482   63.5784   69.7839 H   0  0  0  0  0  0  0  0  0  0  0  0
  -39.8459   63.7090   68.7778 H   0  0  0  0  0  0  0  0  0  0  0  0
  -39.1166   62.3940   69.6850 H   0  0  0  0  0  0  0  0  0  0  0  0
  -38.0253   61.1706   67.3271 H   0  0  0  0  0  0  0  0  0  0  0  0
  -37.1662   59.9818   68.3034 H   0  0  0  0  0  0  0  0  0  0  0  0
  -39.3932   60.3940   69.1780 H   0  0  0  0  0  0  0  0  0  0  0  0
  -39.1970   58.7282   68.5814 H   0  0  0  0  0  0  0  0  0  0  0  0
  -41.3666   59.6211   68.0230 H   0  0  0  0  0  0  0  0  0  0  0  0
  -40.3659   59.2781   66.5943 H   0  0  0  0  0  0  0  0  0  0  0  0
  -39.8771   61.6026   66.3448 H   0  0  0  0  0  0  0  0  0  0  0  0
  -40.8646   61.9495   67.7856 H   0  0  0  0  0  0  0  0  0  0  0  0
  -42.8207   61.2110   66.6586 H   0  0  0  0  0  0  0  0  0  0  0  0
  -41.8312   60.8471   65.2179 H   0  0  0  0  0  0  0  0  0  0  0  0
  -42.2912   63.5579   66.3604 H   0  0  0  0  0  0  0  0  0  0  0  0
  -43.0693   62.8436   64.9152 H   0  0  0  0  0  0  0  0  0  0  0  0
  -41.3344   64.4204   64.3104 H   0  0  0  0  0  0  0  0  0  0  0  0
  -40.9836   62.7690   63.7895 H   0  0  0  0  0  0  0  0  0  0  0  0
  -39.1674   62.6290   65.2657 H   0  0  0  0  0  0  0  0  0  0  0  0
  -38.3331   64.3532   66.4451 H   0  0  0  0  0  0  0  0  0  0  0  0
  -40.1130   66.2674   65.3037 H   0  0  0  0  0  0  0  0  0  0  0  0
  -39.2826   66.3970   66.8603 H   0  0  0  0  0  0  0  0  0  0  0  0
  -41.0737   65.2089   67.9389 H   0  0  0  0  0  0  0  0  0  0  0  0
  -41.9009   65.0691   66.3709 H   0  0  0  0  0  0  0  0  0  0  0  0
  -42.1698   67.4349   66.2710 H   0  0  0  0  0  0  0  0  0  0  0  0
  -41.3261   67.5851   67.8293 H   0  0  0  0  0  0  0  0  0  0  0  0
  -43.0822   66.4083   68.9248 H   0  0  0  0  0  0  0  0  0  0  0  0
  -43.9230   66.2441   67.3593 H   0  0  0  0  0  0  0  0  0  0  0  0
  -44.9248   67.9515   68.7323 H   0  0  0  0  0  0  0  0  0  0  0  0
  -44.2067   68.5874   67.2367 H   0  0  0  0  0  0  0  0  0  0  0  0
  -42.3160   69.3869   68.4530 H   0  0  0  0  0  0  0  0  0  0  0  0
  -43.0280   68.7365   69.9523 H   0  0  0  0  0  0  0  0  0  0  0  0
  -44.8296   70.2784   69.8013 H   0  0  0  0  0  0  0  0  0  0  0  0
  -44.1546   70.9201   68.2944 H   0  0  0  0  0  0  0  0  0  0  0  0
  -42.8704   71.0592   70.9798 H   0  0  0  0  0  0  0  0  0  0  0  0
  -43.6540   72.3778   70.1429 H   0  0  0  0  0  0  0  0  0  0  0  0
  -42.2003   71.6661   69.4846 H   0  0  0  0  0  0  0  0  0  0  0  0
  1  4  1  0  0  0  0
  1 54  1  0  0  0  0
  1 55  1  0  0  0  0
  1 56  1  0  0  0  0
  2 29  2  0  0  0  0
  3  7  1  0  0  0  0
  3  9  2  1  0  0  0
  3 11  1  0  0  0  0
  3 13  1  0  0  0  0
  4  6  1  0  0  0  0
  4 57  1  0  0  0  0
  4 58  1  0  0  0  0
  5 29  1  0  0  0  0
  5 30  1  0  0  0  0
  6  8  1  0  0  0  0
  6 59  1  0  0  0  0
  6 60  1  0  0  0  0
  7 32  1  0  0  0  0
  8 10  1  0  0  0  0
  8 61  1  0  0  0  0
  8 62  1  0  0  0  0
 10 12  1  0  0  0  0
 10 63  1  0  0  0  0
 10 64  1  0  0  0  0
 11 65  1  0  0  0  0
 12 14  1  0  0  0  0
 12 66  1  0  0  0  0
 12 67  1  0  0  0  0
 13 33  1  0  0  0  0
 14 16  1  0  0  0  0
 14 68  1  0  0  0  0
 14 69  1  0  0  0  0
 15 35  1  0  0  0  0
 15 70  1  0  0  0  0
 16 18  1  0  0  0  0
 16 71  1  0  0  0  0
 16 72  1  0  0  0  0
 17 34  1  0  0  0  0
 17 73  1  0  0  0  0
 18 20  1  0  0  0  0
 18 74  1  0  0  0  0
 18 75  1  0  0  0  0
 19 31  1  0  0  0  0
 19 36  1  0  0  0  0
 20 22  1  0  0  0  0
 20 76  1  0  0  0  0
 20 77  1  0  0  0  0
 21 36  2  0  0  0  0
 22 23  1  0  0  0  0
 22 78  1  0  0  0  0
 22 79  1  0  0  0  0
 23 24  1  0  0  0  0
 23 80  1  0  0  0  0
 23 81  1  0  0  0  0
 24 25  1  0  0  0  0
 24 82  1  0  0  0  0
 24 83  1  0  0  0  0
 25 26  1  0  0  0  0
 25 84  1  0  0  0  0
 25 85  1  0  0  0  0
 26 27  1  0  0  0  0
 26 86  1  0  0  0  0
 26 87  1  0  0  0  0
 27 28  1  0  0  0  0
 27 88  1  0  0  0  0
 27 89  1  0  0  0  0
 28 29  1  0  0  0  0
 28 90  1  0  0  0  0
 28 91  1  0  0  0  0
 30 31  1  0  0  0  0
 30 92  1  0  0  0  0
 30 93  1  0  0  0  0
 31 32  1  0  0  0  0
 31 94  1  6  0  0  0
 32 95  1  0  0  0  0
 32 96  1  0  0  0  0
 33 34  1  0  0  0  0
 33 97  1  0  0  0  0
 33 98  1  0  0  0  0
 34 35  1  0  0  0  0
 34 99  1  1  0  0  0
 35100  1  0  0  0  0
 35101  1  0  0  0  0
 36 37  1  0  0  0  0
 37 38  1  0  0  0  0
 37102  1  0  0  0  0
 37103  1  0  0  0  0
 38 39  1  0  0  0  0
 38104  1  0  0  0  0
 38105  1  0  0  0  0
 39 40  1  0  0  0  0
 39106  1  0  0  0  0
 39107  1  0  0  0  0
 40 41  1  0  0  0  0
 40108  1  0  0  0  0
 40109  1  0  0  0  0
 41 42  1  0  0  0  0
 41110  1  0  0  0  0
 41111  1  0  0  0  0
 42 43  1  0  0  0  0
 42112  1  0  0  0  0
 42113  1  0  0  0  0
 43 44  1  0  0  0  0
 43114  1  0  0  0  0
 43115  1  0  0  0  0
 44 45  2  0  0  0  0
 44116  1  0  0  0  0
 45 46  1  0  0  0  0
 45117  1  0  0  0  0
 46 47  1  0  0  0  0
 46118  1  0  0  0  0
 46119  1  0  0  0  0
 47 48  1  0  0  0  0
 47120  1  0  0  0  0
 47121  1  0  0  0  0
 48 49  1  0  0  0  0
 48122  1  0  0  0  0
 48123  1  0  0  0  0
 49 50  1  0  0  0  0
 49124  1  0  0  0  0
 49125  1  0  0  0  0
 50 51  1  0  0  0  0
 50126  1  0  0  0  0
 50127  1  0  0  0  0
 51 52  1  0  0  0  0
 51128  1  0  0  0  0
 51129  1  0  0  0  0
 52 53  1  0  0  0  0
 52130  1  0  0  0  0
 52131  1  0  0  0  0
 53132  1  0  0  0  0
 53133  1  0  0  0  0
 53134  1  0  0  0  0
M  CHG  1   9  -1
M  END
$$$$