/media/chris/experiments/cd1a-new-docking/inputs/ligands/7sh4_ligand.pdb
 OpenBabel07012320073D

134133  0  0  1  0  0  0  0  0999 V2000
  -45.7976   66.3573   60.5259 C   0  0  0  0  0  0  0  0  0  0  0  0
  -37.4853   59.3943   60.6136 O   0  0  0  0  0  0  0  0  0  0  0  0
  -34.0491   60.2433   66.3537 P   0  0  1  0  0  0  0  0  0  0  0  0
  -44.7097   66.7203   61.5110 C   0  0  0  0  0  0  0  0  0  0  0  0
  -36.1511   59.3213   62.4064 O   0  0  0  0  0  0  0  0  0  0  0  0
  -44.3892   68.2029   61.4986 C   0  0  0  0  0  0  0  0  0  0  0  0
  -35.4212   59.8922   65.6081 O   0  0  0  0  0  0  0  0  0  0  0  0
  -43.2901   68.6234   62.4579 C   0  0  0  0  0  0  0  0  0  0  0  0
  -34.0310   59.5204   67.6436 O   0  5  0  0  0  0  0  0  0  0  0  0
  -41.9498   67.9580   62.1783 C   0  0  0  0  0  0  0  0  0  0  0  0
  -32.9359   60.0247   65.3989 O   0  0  0  0  0  0  0  0  0  0  0  0
  -40.8566   68.3641   63.1454 C   0  0  0  0  0  0  0  0  0  0  0  0
  -34.1263   61.8049   66.6670 O   0  0  0  0  0  0  0  0  0  0  0  0
  -41.1657   68.0101   64.5874 C   0  0  0  0  0  0  0  0  0  0  0  0
  -34.0939   64.5893   64.5555 O   0  0  0  0  0  0  0  0  0  0  0  0
  -41.3533   66.5172   64.8322 C   0  0  0  0  0  0  0  0  0  0  0  0
  -34.8857   64.0674   68.0946 O   0  0  0  0  0  0  0  0  0  0  0  0
  -40.1331   65.6844   64.4994 C   0  0  0  0  0  0  0  0  0  0  0  0
  -38.2720   59.8520   65.2990 O   0  0  0  0  0  0  0  0  0  0  0  0
  -39.6829   65.7960   63.0568 C   0  0  0  0  0  0  0  0  0  0  0  0
  -36.8606   59.5894   67.0308 O   0  0  0  0  0  0  0  0  0  0  0  0
  -38.4734   64.9395   62.7543 C   0  0  0  0  0  0  0  0  0  0  0  0
  -38.0029   65.0521   61.3282 C   0  0  0  0  0  0  0  0  0  0  0  0
  -39.0580   64.6527   60.3259 C   0  0  0  0  0  0  0  0  0  0  0  0
  -39.5368   63.2257   60.5006 C   0  0  0  0  0  0  0  0  0  0  0  0
  -38.4261   62.2083   60.3692 C   0  0  0  0  0  0  0  0  0  0  0  0
  -37.3185   62.3641   61.3897 C   0  0  0  0  0  0  0  0  0  0  0  0
  -36.2118   61.3373   61.2182 C   0  0  0  0  0  0  0  0  0  0  0  0
  -36.6737   59.9130   61.3318 C   0  0  0  0  0  0  0  0  0  0  0  0
  -37.0720   58.9080   63.4380 C   0  0  0  0  0  0  0  0  0  0  0  0
  -37.3490   60.1700   64.2050 C   0  0  2  0  0  0  0  0  0  0  0  0
  -36.0840   60.8130   64.7130 C   0  0  0  0  0  0  0  0  0  0  0  0
  -35.2879   62.5634   66.2728 C   0  0  0  0  0  0  0  0  0  0  0  0
  -35.0772   64.0015   66.6783 C   0  0  2  0  0  0  0  0  0  0  0  0
  -33.9070   64.6345   65.9643 C   0  0  0  0  0  0  0  0  0  0  0  0
  -37.8399   60.0926   66.5518 C   0  0  0  0  0  0  0  0  0  0  0  0
  -38.7148   61.0747   67.2675 C   0  0  0  0  0  0  0  0  0  0  0  0
  -39.8392   60.3741   68.0235 C   0  0  0  0  0  0  0  0  0  0  0  0
  -40.7727   61.3227   68.7576 C   0  0  0  0  0  0  0  0  0  0  0  0
  -41.4901   62.3049   67.8387 C   0  0  0  0  0  0  0  0  0  0  0  0
  -42.4118   63.2676   68.5639 C   0  0  0  0  0  0  0  0  0  0  0  0
  -43.5294   62.5962   69.3671 C   0  0  0  0  0  0  0  0  0  0  0  0
  -44.4785   61.7150   68.5521 C   0  0  0  0  0  0  0  0  0  0  0  0
  -45.1707   62.4836   67.4667 C   0  0  0  0  0  0  0  0  0  0  0  0
  -46.3724   62.2465   66.9776 C   0  0  0  0  0  0  0  0  0  0  0  0
  -47.3011   61.1554   67.4080 C   0  0  0  0  0  0  0  0  0  0  0  0
  -48.7684   61.5430   67.2486 C   0  0  0  0  0  0  0  0  0  0  0  0
  -49.1634   62.7745   68.0446 C   0  0  0  0  0  0  0  0  0  0  0  0
  -48.3965   64.0257   67.6528 C   0  0  0  0  0  0  0  0  0  0  0  0
  -48.5807   64.4498   66.2052 C   0  0  0  0  0  0  0  0  0  0  0  0
  -50.0235   64.7724   65.8476 C   0  0  0  0  0  0  0  0  0  0  0  0
  -50.2297   65.1813   64.4025 C   0  0  0  0  0  0  0  0  0  0  0  0
  -49.4345   66.3995   64.0238 C   0  0  0  0  0  0  0  0  0  0  0  0
  -45.9853   65.3050   60.5736 H   0  0  0  0  0  0  0  0  0  0  0  0
  -45.4850   66.6194   59.5367 H   0  0  0  0  0  0  0  0  0  0  0  0
  -46.6924   66.8907   60.7703 H   0  0  0  0  0  0  0  0  0  0  0  0
  -43.8236   66.1751   61.2606 H   0  0  0  0  0  0  0  0  0  0  0  0
  -45.0601   66.4704   62.4907 H   0  0  0  0  0  0  0  0  0  0  0  0
  -45.2791   68.7382   61.7564 H   0  0  0  0  0  0  0  0  0  0  0  0
  -44.0329   68.4265   60.5148 H   0  0  0  0  0  0  0  0  0  0  0  0
  -43.5932   68.3691   63.4521 H   0  0  0  0  0  0  0  0  0  0  0  0
  -43.1499   69.6767   62.3322 H   0  0  0  0  0  0  0  0  0  0  0  0
  -41.6410   68.2224   61.1885 H   0  0  0  0  0  0  0  0  0  0  0  0
  -42.0933   66.9038   62.2922 H   0  0  0  0  0  0  0  0  0  0  0  0
  -32.8683   59.0794   65.1920 H   0  0  0  0  0  0  0  0  0  0  0  0
  -40.7204   69.4232   63.0779 H   0  0  0  0  0  0  0  0  0  0  0  0
  -39.9748   67.8244   62.8699 H   0  0  0  0  0  0  0  0  0  0  0  0
  -42.0659   68.5136   64.8721 H   0  0  0  0  0  0  0  0  0  0  0  0
  -40.3214   68.3158   65.1693 H   0  0  0  0  0  0  0  0  0  0  0  0
  -33.3334   64.9998   64.1151 H   0  0  0  0  0  0  0  0  0  0  0  0
  -42.1688   66.1765   64.2290 H   0  0  0  0  0  0  0  0  0  0  0  0
  -41.5382   66.3941   65.8789 H   0  0  0  0  0  0  0  0  0  0  0  0
  -35.6426   63.6583   68.5425 H   0  0  0  0  0  0  0  0  0  0  0  0
  -40.3607   64.6587   64.7020 H   0  0  0  0  0  0  0  0  0  0  0  0
  -39.3315   66.0566   65.1026 H   0  0  0  0  0  0  0  0  0  0  0  0
  -39.4386   66.8175   62.8526 H   0  0  0  0  0  0  0  0  0  0  0  0
  -40.4860   65.4500   62.4402 H   0  0  0  0  0  0  0  0  0  0  0  0
  -38.7239   63.9177   62.9491 H   0  0  0  0  0  0  0  0  0  0  0  0
  -37.6764   65.2864   63.3783 H   0  0  0  0  0  0  0  0  0  0  0  0
  -37.1517   64.4168   61.1988 H   0  0  0  0  0  0  0  0  0  0  0  0
  -37.7649   66.0800   61.1499 H   0  0  0  0  0  0  0  0  0  0  0  0
  -38.6495   64.7564   59.3424 H   0  0  0  0  0  0  0  0  0  0  0  0
  -39.9017   65.2924   60.4800 H   0  0  0  0  0  0  0  0  0  0  0  0
  -40.2764   63.0208   59.7550 H   0  0  0  0  0  0  0  0  0  0  0  0
  -39.9326   63.1404   61.4910 H   0  0  0  0  0  0  0  0  0  0  0  0
  -37.9986   62.3023   59.3929 H   0  0  0  0  0  0  0  0  0  0  0  0
  -38.8669   61.2480   60.5378 H   0  0  0  0  0  0  0  0  0  0  0  0
  -37.7373   62.2552   62.3683 H   0  0  0  0  0  0  0  0  0  0  0  0
  -36.8846   63.3321   61.2494 H   0  0  0  0  0  0  0  0  0  0  0  0
  -35.4720   61.5117   61.9713 H   0  0  0  0  0  0  0  0  0  0  0  0
  -35.8290   61.4592   60.2265 H   0  0  0  0  0  0  0  0  0  0  0  0
  -36.6274   58.1683   64.0706 H   0  0  0  0  0  0  0  0  0  0  0  0
  -37.9610   58.4631   63.0423 H   0  0  0  0  0  0  0  0  0  0  0  0
  -37.7985   60.8886   63.5519 H   0  0  0  0  0  0  0  0  0  0  0  0
  -35.4401   61.0403   63.8892 H   0  0  0  0  0  0  0  0  0  0  0  0
  -36.3193   61.7188   65.2317 H   0  0  0  0  0  0  0  0  0  0  0  0
  -36.1567   62.1738   66.7610 H   0  0  0  0  0  0  0  0  0  0  0  0
  -35.4291   62.4965   65.2143 H   0  0  0  0  0  0  0  0  0  0  0  0
  -35.9489   64.5544   66.3967 H   0  0  0  0  0  0  0  0  0  0  0  0
  -33.8165   65.6546   66.2741 H   0  0  0  0  0  0  0  0  0  0  0  0
  -33.0186   64.0915   66.2111 H   0  0  0  0  0  0  0  0  0  0  0  0
  -39.1422   61.7456   66.5519 H   0  0  0  0  0  0  0  0  0  0  0  0
  -38.1139   61.6057   67.9759 H   0  0  0  0  0  0  0  0  0  0  0  0
  -39.4013   59.7109   68.7399 H   0  0  0  0  0  0  0  0  0  0  0  0
  -40.4299   59.8597   67.2945 H   0  0  0  0  0  0  0  0  0  0  0  0
  -40.1984   61.8809   69.4672 H   0  0  0  0  0  0  0  0  0  0  0  0
  -41.5254   60.7231   69.2253 H   0  0  0  0  0  0  0  0  0  0  0  0
  -42.0728   61.7452   67.1371 H   0  0  0  0  0  0  0  0  0  0  0  0
  -40.7337   62.8965   67.3668 H   0  0  0  0  0  0  0  0  0  0  0  0
  -42.8629   63.9099   67.8366 H   0  0  0  0  0  0  0  0  0  0  0  0
  -41.8051   63.7949   69.2701 H   0  0  0  0  0  0  0  0  0  0  0  0
  -44.1097   63.3648   69.8334 H   0  0  0  0  0  0  0  0  0  0  0  0
  -43.0442   61.9448   70.0638 H   0  0  0  0  0  0  0  0  0  0  0  0
  -45.2170   61.3043   69.2086 H   0  0  0  0  0  0  0  0  0  0  0  0
  -43.8973   60.9444   68.0904 H   0  0  0  0  0  0  0  0  0  0  0  0
  -44.6541   63.2795   67.0609 H   0  0  0  0  0  0  0  0  0  0  0  0
  -46.7033   62.8728   66.2270 H   0  0  0  0  0  0  0  0  0  0  0  0
  -47.1148   60.9319   68.4376 H   0  0  0  0  0  0  0  0  0  0  0  0
  -47.1185   60.3064   66.7829 H   0  0  0  0  0  0  0  0  0  0  0  0
  -49.3721   60.7219   67.5744 H   0  0  0  0  0  0  0  0  0  0  0  0
  -48.9202   61.7760   66.2154 H   0  0  0  0  0  0  0  0  0  0  0  0
  -48.9840   62.5788   69.0811 H   0  0  0  0  0  0  0  0  0  0  0  0
  -50.1962   62.9628   67.8378 H   0  0  0  0  0  0  0  0  0  0  0  0
  -47.3549   63.8450   67.8183 H   0  0  0  0  0  0  0  0  0  0  0  0
  -48.7836   64.8212   68.2548 H   0  0  0  0  0  0  0  0  0  0  0  0
  -48.2448   63.6541   65.5736 H   0  0  0  0  0  0  0  0  0  0  0  0
  -48.0131   65.3459   66.0645 H   0  0  0  0  0  0  0  0  0  0  0  0
  -50.3528   65.5753   66.4736 H   0  0  0  0  0  0  0  0  0  0  0  0
  -50.5850   63.8737   65.9956 H   0  0  0  0  0  0  0  0  0  0  0  0
  -51.2681   65.3900   64.2509 H   0  0  0  0  0  0  0  0  0  0  0  0
  -49.8939   64.3728   63.7874 H   0  0  0  0  0  0  0  0  0  0  0  0
  -49.7466   67.2295   64.6225 H   0  0  0  0  0  0  0  0  0  0  0  0
  -49.5967   66.6242   62.9903 H   0  0  0  0  0  0  0  0  0  0  0  0
  -48.3941   66.2118   64.1889 H   0  0  0  0  0  0  0  0  0  0  0  0
  1  4  1  0  0  0  0
  1 54  1  0  0  0  0
  1 55  1  0  0  0  0
  1 56  1  0  0  0  0
  2 29  2  0  0  0  0
  3  7  1  0  0  0  0
  3  9  2  1  0  0  0
  3 11  1  0  0  0  0
  3 13  1  0  0  0  0
  4  6  1  0  0  0  0
  4 57  1  0  0  0  0
  4 58  1  0  0  0  0
  5 29  1  0  0  0  0
  5 30  1  0  0  0  0
  6  8  1  0  0  0  0
  6 59  1  0  0  0  0
  6 60  1  0  0  0  0
  7 32  1  0  0  0  0
  8 10  1  0  0  0  0
  8 61  1  0  0  0  0
  8 62  1  0  0  0  0
 10 12  1  0  0  0  0
 10 63  1  0  0  0  0
 10 64  1  0  0  0  0
 11 65  1  0  0  0  0
 12 14  1  0  0  0  0
 12 66  1  0  0  0  0
 12 67  1  0  0  0  0
 13 33  1  0  0  0  0
 14 16  1  0  0  0  0
 14 68  1  0  0  0  0
 14 69  1  0  0  0  0
 15 35  1  0  0  0  0
 15 70  1  0  0  0  0
 16 18  1  0  0  0  0
 16 71  1  0  0  0  0
 16 72  1  0  0  0  0
 17 34  1  0  0  0  0
 17 73  1  0  0  0  0
 18 20  1  0  0  0  0
 18 74  1  0  0  0  0
 18 75  1  0  0  0  0
 19 31  1  0  0  0  0
 19 36  1  0  0  0  0
 20 22  1  0  0  0  0
 20 76  1  0  0  0  0
 20 77  1  0  0  0  0
 21 36  2  0  0  0  0
 22 23  1  0  0  0  0
 22 78  1  0  0  0  0
 22 79  1  0  0  0  0
 23 24  1  0  0  0  0
 23 80  1  0  0  0  0
 23 81  1  0  0  0  0
 24 25  1  0  0  0  0
 24 82  1  0  0  0  0
 24 83  1  0  0  0  0
 25 26  1  0  0  0  0
 25 84  1  0  0  0  0
 25 85  1  0  0  0  0
 26 27  1  0  0  0  0
 26 86  1  0  0  0  0
 26 87  1  0  0  0  0
 27 28  1  0  0  0  0
 27 88  1  0  0  0  0
 27 89  1  0  0  0  0
 28 29  1  0  0  0  0
 28 90  1  0  0  0  0
 28 91  1  0  0  0  0
 30 31  1  0  0  0  0
 30 92  1  0  0  0  0
 30 93  1  0  0  0  0
 31 32  1  0  0  0  0
 31 94  1  6  0  0  0
 32 95  1  0  0  0  0
 32 96  1  0  0  0  0
 33 34  1  0  0  0  0
 33 97  1  0  0  0  0
 33 98  1  0  0  0  0
 34 35  1  0  0  0  0
 34 99  1  6  0  0  0
 35100  1  0  0  0  0
 35101  1  0  0  0  0
 36 37  1  0  0  0  0
 37 38  1  0  0  0  0
 37102  1  0  0  0  0
 37103  1  0  0  0  0
 38 39  1  0  0  0  0
 38104  1  0  0  0  0
 38105  1  0  0  0  0
 39 40  1  0  0  0  0
 39106  1  0  0  0  0
 39107  1  0  0  0  0
 40 41  1  0  0  0  0
 40108  1  0  0  0  0
 40109  1  0  0  0  0
 41 42  1  0  0  0  0
 41110  1  0  0  0  0
 41111  1  0  0  0  0
 42 43  1  0  0  0  0
 42112  1  0  0  0  0
 42113  1  0  0  0  0
 43 44  1  0  0  0  0
 43114  1  0  0  0  0
 43115  1  0  0  0  0
 44 45  2  0  0  0  0
 44116  1  0  0  0  0
 45 46  1  0  0  0  0
 45117  1  0  0  0  0
 46 47  1  0  0  0  0
 46118  1  0  0  0  0
 46119  1  0  0  0  0
 47 48  1  0  0  0  0
 47120  1  0  0  0  0
 47121  1  0  0  0  0
 48 49  1  0  0  0  0
 48122  1  0  0  0  0
 48123  1  0  0  0  0
 49 50  1  0  0  0  0
 49124  1  0  0  0  0
 49125  1  0  0  0  0
 50 51  1  0  0  0  0
 50126  1  0  0  0  0
 50127  1  0  0  0  0
 51 52  1  0  0  0  0
 51128  1  0  0  0  0
 51129  1  0  0  0  0
 52 53  1  0  0  0  0
 52130  1  0  0  0  0
 52131  1  0  0  0  0
 53132  1  0  0  0  0
 53133  1  0  0  0  0
 53134  1  0  0  0  0
M  CHG  1   9  -1
M  END
$$$$