/media/chris/experiments/cd1a-new-docking/inputs/ligands/7sh4_ligand.pdb
 OpenBabel07012320073D

134133  0  0  1  0  0  0  0  0999 V2000
  -29.9081   61.2452   56.2176 C   0  0  0  0  0  0  0  0  0  0  0  0
  -34.5047   59.7410   63.8599 O   0  0  0  0  0  0  0  0  0  0  0  0
  -37.2082   63.2406   64.7182 P   0  0  1  0  0  0  0  0  0  0  0  0
  -28.5517   60.7484   56.6638 C   0  0  0  0  0  0  0  0  0  0  0  0
  -36.1511   59.3213   62.4064 O   0  0  0  0  0  0  0  0  0  0  0  0
  -28.6505   59.6926   57.7485 C   0  0  0  0  0  0  0  0  0  0  0  0
  -36.4293   62.0282   65.4148 O   0  0  0  0  0  0  0  0  0  0  0  0
  -29.3563   60.1459   59.0140 C   0  0  0  0  0  0  0  0  0  0  0  0
  -36.2031   64.1613   64.1447 O   0  5  0  0  0  0  0  0  0  0  0  0
  -28.6929   61.3390   59.6876 C   0  0  0  0  0  0  0  0  0  0  0  0
  -38.2443   62.6705   63.8238 O   0  0  0  0  0  0  0  0  0  0  0  0
  -27.2552   61.0858   60.0926 C   0  0  0  0  0  0  0  0  0  0  0  0
  -37.9514   64.0029   65.9053 O   0  0  0  0  0  0  0  0  0  0  0  0
  -27.0965   59.9288   61.0602 C   0  0  0  0  0  0  0  0  0  0  0  0
  -37.1983   65.7793   63.0728 O   0  0  0  0  0  0  0  0  0  0  0  0
  -27.8620   60.1046   62.3667 C   0  0  0  0  0  0  0  0  0  0  0  0
  -39.2886   67.0909   64.4922 O   0  0  0  0  0  0  0  0  0  0  0  0
  -27.6878   58.9553   63.3374 C   0  0  0  0  0  0  0  0  0  0  0  0
  -38.2720   59.8520   65.2990 O   0  0  0  0  0  0  0  0  0  0  0  0
  -28.1348   57.6135   62.7936 C   0  0  0  0  0  0  0  0  0  0  0  0
  -36.8792   59.1049   66.8997 O   0  0  0  0  0  0  0  0  0  0  0  0
  -29.5946   57.6005   62.3975 C   0  0  0  0  0  0  0  0  0  0  0  0
  -30.0591   56.2685   61.8706 C   0  0  0  0  0  0  0  0  0  0  0  0
  -31.5120   56.2700   61.4622 C   0  0  0  0  0  0  0  0  0  0  0  0
  -31.8199   57.2603   60.3574 C   0  0  0  0  0  0  0  0  0  0  0  0
  -33.2793   57.2715   59.9623 C   0  0  0  0  0  0  0  0  0  0  0  0
  -34.2227   57.6501   61.0844 C   0  0  0  0  0  0  0  0  0  0  0  0
  -33.9609   59.0445   61.6279 C   0  0  0  0  0  0  0  0  0  0  0  0
  -34.8698   59.4444   62.7543 C   0  0  0  0  0  0  0  0  0  0  0  0
  -37.0720   58.9080   63.4380 C   0  0  0  0  0  0  0  0  0  0  0  0
  -37.3490   60.1700   64.2050 C   0  0  2  0  0  0  0  0  0  0  0  0
  -36.0840   60.8130   64.7130 C   0  0  0  0  0  0  0  0  0  0  0  0
  -38.1883   65.4226   65.8146 C   0  0  0  0  0  0  0  0  0  0  0  0
  -39.0562   65.6840   64.6082 C   0  0  2  0  0  0  0  0  0  0  0  0
  -38.4461   65.1499   63.3345 C   0  0  0  0  0  0  0  0  0  0  0  0
  -37.8515   58.9548   66.2113 C   0  0  0  0  0  0  0  0  0  0  0  0
  -38.7502   57.7589   66.2770 C   0  0  0  0  0  0  0  0  0  0  0  0
  -40.1872   58.1192   65.9138 C   0  0  0  0  0  0  0  0  0  0  0  0
  -40.3473   58.6716   64.5069 C   0  0  0  0  0  0  0  0  0  0  0  0
  -39.9150   57.6978   63.4166 C   0  0  0  0  0  0  0  0  0  0  0  0
  -40.7011   56.4000   63.4015 C   0  0  0  0  0  0  0  0  0  0  0  0
  -42.2043   56.5687   63.1633 C   0  0  0  0  0  0  0  0  0  0  0  0
  -43.0136   55.2701   63.1621 C   0  0  0  0  0  0  0  0  0  0  0  0
  -42.9212   54.5456   64.4715 C   0  0  0  0  0  0  0  0  0  0  0  0
  -43.3027   54.9979   65.6502 C   0  0  0  0  0  0  0  0  0  0  0  0
  -43.9126   56.3357   65.9271 C   0  0  0  0  0  0  0  0  0  0  0  0
  -45.4356   56.3116   65.8356 C   0  0  0  0  0  0  0  0  0  0  0  0
  -46.0832   57.6604   66.0954 C   0  0  0  0  0  0  0  0  0  0  0  0
  -45.7679   58.2344   67.4660 C   0  0  0  0  0  0  0  0  0  0  0  0
  -46.4208   59.5767   67.7518 C   0  0  0  0  0  0  0  0  0  0  0  0
  -46.0762   60.1379   69.1229 C   0  0  0  0  0  0  0  0  0  0  0  0
  -46.4770   59.2440   70.2796 C   0  0  0  0  0  0  0  0  0  0  0  0
  -46.1367   59.8375   71.6182 C   0  0  0  0  0  0  0  0  0  0  0  0
  -29.7837   61.9852   55.4548 H   0  0  0  0  0  0  0  0  0  0  0  0
  -30.4224   61.6754   57.0514 H   0  0  0  0  0  0  0  0  0  0  0  0
  -30.4782   60.4265   55.8307 H   0  0  0  0  0  0  0  0  0  0  0  0
  -27.9894   61.5769   57.0410 H   0  0  0  0  0  0  0  0  0  0  0  0
  -28.0730   60.3024   55.8171 H   0  0  0  0  0  0  0  0  0  0  0  0
  -27.6581   59.3903   58.0106 H   0  0  0  0  0  0  0  0  0  0  0  0
  -29.2400   58.8971   57.3426 H   0  0  0  0  0  0  0  0  0  0  0  0
  -29.3675   59.3298   59.7059 H   0  0  0  0  0  0  0  0  0  0  0  0
  -30.3415   60.4530   58.7311 H   0  0  0  0  0  0  0  0  0  0  0  0
  -29.2529   61.5863   60.5652 H   0  0  0  0  0  0  0  0  0  0  0  0
  -28.6817   62.1358   58.9736 H   0  0  0  0  0  0  0  0  0  0  0  0
  -37.8160   62.2003   63.0914 H   0  0  0  0  0  0  0  0  0  0  0  0
  -26.8727   61.9709   60.5566 H   0  0  0  0  0  0  0  0  0  0  0  0
  -26.7171   60.8301   59.2037 H   0  0  0  0  0  0  0  0  0  0  0  0
  -26.0570   59.8230   61.2907 H   0  0  0  0  0  0  0  0  0  0  0  0
  -27.5013   59.0637   60.5778 H   0  0  0  0  0  0  0  0  0  0  0  0
  -36.8226   65.4237   62.2522 H   0  0  0  0  0  0  0  0  0  0  0  0
  -28.9030   60.1977   62.1377 H   0  0  0  0  0  0  0  0  0  0  0  0
  -27.4675   60.9774   62.8437 H   0  0  0  0  0  0  0  0  0  0  0  0
  -39.6802   67.4228   65.3152 H   0  0  0  0  0  0  0  0  0  0  0  0
  -28.2588   59.1687   64.2168 H   0  0  0  0  0  0  0  0  0  0  0  0
  -26.6393   58.8745   63.5351 H   0  0  0  0  0  0  0  0  0  0  0  0
  -27.9780   56.8696   63.5466 H   0  0  0  0  0  0  0  0  0  0  0  0
  -27.5596   57.4137   61.9137 H   0  0  0  0  0  0  0  0  0  0  0  0
  -29.7463   58.3378   61.6370 H   0  0  0  0  0  0  0  0  0  0  0  0
  -30.1634   57.8070   63.2799 H   0  0  0  0  0  0  0  0  0  0  0  0
  -29.9205   55.5324   62.6347 H   0  0  0  0  0  0  0  0  0  0  0  0
  -29.4813   56.0509   60.9967 H   0  0  0  0  0  0  0  0  0  0  0  0
  -32.1053   56.5188   62.3171 H   0  0  0  0  0  0  0  0  0  0  0  0
  -31.7380   55.2939   61.0867 H   0  0  0  0  0  0  0  0  0  0  0  0
  -31.2362   57.0043   59.4979 H   0  0  0  0  0  0  0  0  0  0  0  0
  -31.5815   58.2357   60.7270 H   0  0  0  0  0  0  0  0  0  0  0  0
  -33.5416   56.2926   59.6191 H   0  0  0  0  0  0  0  0  0  0  0  0
  -33.3870   58.0190   59.2043 H   0  0  0  0  0  0  0  0  0  0  0  0
  -34.1068   56.9453   61.8811 H   0  0  0  0  0  0  0  0  0  0  0  0
  -35.2163   57.6401   60.6874 H   0  0  0  0  0  0  0  0  0  0  0  0
  -34.0871   59.7455   60.8293 H   0  0  0  0  0  0  0  0  0  0  0  0
  -32.9658   59.0406   62.0210 H   0  0  0  0  0  0  0  0  0  0  0  0
  -36.6274   58.1683   64.0706 H   0  0  0  0  0  0  0  0  0  0  0  0
  -37.9610   58.4631   63.0423 H   0  0  0  0  0  0  0  0  0  0  0  0
  -37.7985   60.8886   63.5519 H   0  0  0  0  0  0  0  0  0  0  0  0
  -35.5824   60.1428   65.3795 H   0  0  0  0  0  0  0  0  0  0  0  0
  -35.4356   61.0386   63.8923 H   0  0  0  0  0  0  0  0  0  0  0  0
  -37.2568   65.9384   65.7083 H   0  0  0  0  0  0  0  0  0  0  0  0
  -38.6756   65.7717   66.7009 H   0  0  0  0  0  0  0  0  0  0  0  0
  -39.9820   65.1666   64.7500 H   0  0  0  0  0  0  0  0  0  0  0  0
  -38.2937   64.0954   63.4332 H   0  0  0  0  0  0  0  0  0  0  0  0
  -39.1117   65.3543   62.5220 H   0  0  0  0  0  0  0  0  0  0  0  0
  -38.7314   57.3640   67.2712 H   0  0  0  0  0  0  0  0  0  0  0  0
  -38.3973   57.0347   65.5728 H   0  0  0  0  0  0  0  0  0  0  0  0
  -40.5350   58.8566   66.6067 H   0  0  0  0  0  0  0  0  0  0  0  0
  -40.7550   57.2133   65.9580 H   0  0  0  0  0  0  0  0  0  0  0  0
  -39.7553   59.5588   64.4223 H   0  0  0  0  0  0  0  0  0  0  0  0
  -41.3900   58.8630   64.3615 H   0  0  0  0  0  0  0  0  0  0  0  0
  -38.8816   57.4636   63.5651 H   0  0  0  0  0  0  0  0  0  0  0  0
  -40.0974   58.1812   62.4796 H   0  0  0  0  0  0  0  0  0  0  0  0
  -40.5650   55.9162   64.3462 H   0  0  0  0  0  0  0  0  0  0  0  0
  -40.3258   55.8273   62.5793 H   0  0  0  0  0  0  0  0  0  0  0  0
  -42.3377   57.0428   62.2134 H   0  0  0  0  0  0  0  0  0  0  0  0
  -42.5721   57.1470   63.9850 H   0  0  0  0  0  0  0  0  0  0  0  0
  -42.6410   54.6322   62.3880 H   0  0  0  0  0  0  0  0  0  0  0  0
  -44.0403   55.5223   62.9973 H   0  0  0  0  0  0  0  0  0  0  0  0
  -42.5177   53.5961   64.4481 H   0  0  0  0  0  0  0  0  0  0  0  0
  -43.1679   54.3696   66.4577 H   0  0  0  0  0  0  0  0  0  0  0  0
  -43.5366   57.0389   65.2137 H   0  0  0  0  0  0  0  0  0  0  0  0
  -43.6504   56.6127   66.9269 H   0  0  0  0  0  0  0  0  0  0  0  0
  -45.8065   55.6140   66.5572 H   0  0  0  0  0  0  0  0  0  0  0  0
  -45.6846   56.0326   64.8331 H   0  0  0  0  0  0  0  0  0  0  0  0
  -47.1439   57.5476   66.0121 H   0  0  0  0  0  0  0  0  0  0  0  0
  -45.6874   58.3422   65.3719 H   0  0  0  0  0  0  0  0  0  0  0  0
  -44.7075   58.3555   67.5418 H   0  0  0  0  0  0  0  0  0  0  0  0
  -46.1624   57.5451   68.1829 H   0  0  0  0  0  0  0  0  0  0  0  0
  -47.4823   59.4569   67.6916 H   0  0  0  0  0  0  0  0  0  0  0  0
  -46.0493   60.2689   67.0254 H   0  0  0  0  0  0  0  0  0  0  0  0
  -46.5760   61.0772   69.2361 H   0  0  0  0  0  0  0  0  0  0  0  0
  -45.0106   60.2279   69.1591 H   0  0  0  0  0  0  0  0  0  0  0  0
  -45.9678   58.3081   70.1810 H   0  0  0  0  0  0  0  0  0  0  0  0
  -47.5394   59.1232   70.2410 H   0  0  0  0  0  0  0  0  0  0  0  0
  -45.0776   59.9717   71.6900 H   0  0  0  0  0  0  0  0  0  0  0  0
  -46.4662   59.1789   72.3945 H   0  0  0  0  0  0  0  0  0  0  0  0
  -46.6242   60.7842   71.7229 H   0  0  0  0  0  0  0  0  0  0  0  0
  1  4  1  0  0  0  0
  1 54  1  0  0  0  0
  1 55  1  0  0  0  0
  1 56  1  0  0  0  0
  2 29  2  0  0  0  0
  3  7  1  0  0  0  0
  3  9  2  6  0  0  0
  3 11  1  0  0  0  0
  3 13  1  0  0  0  0
  4  6  1  0  0  0  0
  4 57  1  0  0  0  0
  4 58  1  0  0  0  0
  5 29  1  0  0  0  0
  5 30  1  0  0  0  0
  6  8  1  0  0  0  0
  6 59  1  0  0  0  0
  6 60  1  0  0  0  0
  7 32  1  0  0  0  0
  8 10  1  0  0  0  0
  8 61  1  0  0  0  0
  8 62  1  0  0  0  0
 10 12  1  0  0  0  0
 10 63  1  0  0  0  0
 10 64  1  0  0  0  0
 11 65  1  0  0  0  0
 12 14  1  0  0  0  0
 12 66  1  0  0  0  0
 12 67  1  0  0  0  0
 13 33  1  0  0  0  0
 14 16  1  0  0  0  0
 14 68  1  0  0  0  0
 14 69  1  0  0  0  0
 15 35  1  0  0  0  0
 15 70  1  0  0  0  0
 16 18  1  0  0  0  0
 16 71  1  0  0  0  0
 16 72  1  0  0  0  0
 17 34  1  0  0  0  0
 17 73  1  0  0  0  0
 18 20  1  0  0  0  0
 18 74  1  0  0  0  0
 18 75  1  0  0  0  0
 19 31  1  0  0  0  0
 19 36  1  0  0  0  0
 20 22  1  0  0  0  0
 20 76  1  0  0  0  0
 20 77  1  0  0  0  0
 21 36  2  0  0  0  0
 22 23  1  0  0  0  0
 22 78  1  0  0  0  0
 22 79  1  0  0  0  0
 23 24  1  0  0  0  0
 23 80  1  0  0  0  0
 23 81  1  0  0  0  0
 24 25  1  0  0  0  0
 24 82  1  0  0  0  0
 24 83  1  0  0  0  0
 25 26  1  0  0  0  0
 25 84  1  0  0  0  0
 25 85  1  0  0  0  0
 26 27  1  0  0  0  0
 26 86  1  0  0  0  0
 26 87  1  0  0  0  0
 27 28  1  0  0  0  0
 27 88  1  0  0  0  0
 27 89  1  0  0  0  0
 28 29  1  0  0  0  0
 28 90  1  0  0  0  0
 28 91  1  0  0  0  0
 30 31  1  0  0  0  0
 30 92  1  0  0  0  0
 30 93  1  0  0  0  0
 31 32  1  0  0  0  0
 31 94  1  6  0  0  0
 32 95  1  0  0  0  0
 32 96  1  0  0  0  0
 33 34  1  0  0  0  0
 33 97  1  0  0  0  0
 33 98  1  0  0  0  0
 34 35  1  0  0  0  0
 34 99  1  1  0  0  0
 35100  1  0  0  0  0
 35101  1  0  0  0  0
 36 37  1  0  0  0  0
 37 38  1  0  0  0  0
 37102  1  0  0  0  0
 37103  1  0  0  0  0
 38 39  1  0  0  0  0
 38104  1  0  0  0  0
 38105  1  0  0  0  0
 39 40  1  0  0  0  0
 39106  1  0  0  0  0
 39107  1  0  0  0  0
 40 41  1  0  0  0  0
 40108  1  0  0  0  0
 40109  1  0  0  0  0
 41 42  1  0  0  0  0
 41110  1  0  0  0  0
 41111  1  0  0  0  0
 42 43  1  0  0  0  0
 42112  1  0  0  0  0
 42113  1  0  0  0  0
 43 44  1  0  0  0  0
 43114  1  0  0  0  0
 43115  1  0  0  0  0
 44 45  2  0  0  0  0
 44116  1  0  0  0  0
 45 46  1  0  0  0  0
 45117  1  0  0  0  0
 46 47  1  0  0  0  0
 46118  1  0  0  0  0
 46119  1  0  0  0  0
 47 48  1  0  0  0  0
 47120  1  0  0  0  0
 47121  1  0  0  0  0
 48 49  1  0  0  0  0
 48122  1  0  0  0  0
 48123  1  0  0  0  0
 49 50  1  0  0  0  0
 49124  1  0  0  0  0
 49125  1  0  0  0  0
 50 51  1  0  0  0  0
 50126  1  0  0  0  0
 50127  1  0  0  0  0
 51 52  1  0  0  0  0
 51128  1  0  0  0  0
 51129  1  0  0  0  0
 52 53  1  0  0  0  0
 52130  1  0  0  0  0
 52131  1  0  0  0  0
 53132  1  0  0  0  0
 53133  1  0  0  0  0
 53134  1  0  0  0  0
M  CHG  1   9  -1
M  END
$$$$