/media/chris/experiments/cd1a-new-docking/inputs/ligands/7sh4_ligand.pdb
 OpenBabel07012320073D

134133  0  0  1  0  0  0  0  0999 V2000
  -54.6901   62.2908   66.4802 C   0  0  0  0  0  0  0  0  0  0  0  0
  -38.5675   59.7153   61.0819 O   0  0  0  0  0  0  0  0  0  0  0  0
  -37.2082   63.2406   64.7182 P   0  0  1  0  0  0  0  0  0  0  0  0
  -53.2932   61.9398   66.0206 C   0  0  0  0  0  0  0  0  0  0  0  0
  -38.3690   58.5038   62.9506 O   0  0  0  0  0  0  0  0  0  0  0  0
  -53.0288   62.3725   64.5909 C   0  0  0  0  0  0  0  0  0  0  0  0
  -36.4293   62.0282   65.4148 O   0  0  0  0  0  0  0  0  0  0  0  0
  -51.6447   62.0302   64.0692 C   0  0  0  0  0  0  0  0  0  0  0  0
  -36.2031   64.1613   64.1447 O   0  5  0  0  0  0  0  0  0  0  0  0
  -51.3494   60.5368   64.0591 C   0  0  0  0  0  0  0  0  0  0  0  0
  -38.2443   62.6705   63.8238 O   0  0  0  0  0  0  0  0  0  0  0  0
  -49.9623   60.1954   63.5545 C   0  0  0  0  0  0  0  0  0  0  0  0
  -37.9514   64.0029   65.9053 O   0  0  0  0  0  0  0  0  0  0  0  0
  -49.6795   58.7056   63.5305 C   0  0  0  0  0  0  0  0  0  0  0  0
  -36.9769   67.9324   67.2389 O   0  0  0  0  0  0  0  0  0  0  0  0
  -48.2807   58.3484   63.0408 C   0  0  0  0  0  0  0  0  0  0  0  0
  -38.2121   66.6420   65.0223 O   0  0  0  0  0  0  0  0  0  0  0  0
  -47.1687   58.9231   63.8931 C   0  0  0  0  0  0  0  0  0  0  0  0
  -38.2720   59.8520   65.2990 O   0  0  0  0  0  0  0  0  0  0  0  0
  -45.7756   58.5857   63.4017 C   0  0  0  0  0  0  0  0  0  0  0  0
  -37.0868   58.0613   65.9691 O   0  0  0  0  0  0  0  0  0  0  0  0
  -44.6896   59.1601   64.2841 C   0  0  0  0  0  0  0  0  0  0  0  0
  -44.7431   60.6608   64.3975 C   0  0  0  0  0  0  0  0  0  0  0  0
  -43.6459   61.2260   65.2660 C   0  0  0  0  0  0  0  0  0  0  0  0
  -42.2560   60.9191   64.7462 C   0  0  0  0  0  0  0  0  0  0  0  0
  -41.9997   61.4886   63.3694 C   0  0  0  0  0  0  0  0  0  0  0  0
  -40.6232   61.1824   62.8179 C   0  0  0  0  0  0  0  0  0  0  0  0
  -40.3663   59.6921   62.6714 C   0  0  0  0  0  0  0  0  0  0  0  0
  -39.0024   59.3540   62.1421 C   0  0  0  0  0  0  0  0  0  0  0  0
  -37.0720   58.9080   63.4380 C   0  0  0  0  0  0  0  0  0  0  0  0
  -37.3490   60.1700   64.2050 C   0  0  2  0  0  0  0  0  0  0  0  0
  -36.0840   60.8130   64.7130 C   0  0  0  0  0  0  0  0  0  0  0  0
  -37.2908   65.0846   66.5934 C   0  0  0  0  0  0  0  0  0  0  0  0
  -36.9868   66.1709   65.5911 C   0  0  2  0  0  0  0  0  0  0  0  0
  -36.2207   67.3193   66.2026 C   0  0  0  0  0  0  0  0  0  0  0  0
  -37.8515   58.9548   66.2113 C   0  0  0  0  0  0  0  0  0  0  0  0
  -38.4362   59.2157   67.5649 C   0  0  0  0  0  0  0  0  0  0  0  0
  -38.7188   60.6999   67.7749 C   0  0  0  0  0  0  0  0  0  0  0  0
  -39.2989   61.0296   69.1405 C   0  0  0  0  0  0  0  0  0  0  0  0
  -39.5942   62.5123   69.3357 C   0  0  0  0  0  0  0  0  0  0  0  0
  -40.6048   63.0747   68.3533 C   0  0  0  0  0  0  0  0  0  0  0  0
  -41.9865   62.4174   68.4151 C   0  0  0  0  0  0  0  0  0  0  0  0
  -43.0122   62.9621   67.4187 C   0  0  0  0  0  0  0  0  0  0  0  0
  -44.3427   62.2835   67.5498 C   0  0  0  0  0  0  0  0  0  0  0  0
  -45.4214   62.5195   66.8286 C   0  0  0  0  0  0  0  0  0  0  0  0
  -45.5420   63.5187   65.7217 C   0  0  0  0  0  0  0  0  0  0  0  0
  -44.2431   64.2833   65.4834 C   0  0  0  0  0  0  0  0  0  0  0  0
  -44.3393   65.3178   64.3759 C   0  0  0  0  0  0  0  0  0  0  0  0
  -44.7193   64.7331   63.0265 C   0  0  0  0  0  0  0  0  0  0  0  0
  -43.7552   63.6822   62.5015 C   0  0  0  0  0  0  0  0  0  0  0  0
  -44.1484   63.1248   61.1420 C   0  0  0  0  0  0  0  0  0  0  0  0
  -45.5134   62.4663   61.1108 C   0  0  0  0  0  0  0  0  0  0  0  0
  -45.8612   61.9126   59.7572 C   0  0  0  0  0  0  0  0  0  0  0  0
  -54.8254   61.9657   67.4906 H   0  0  0  0  0  0  0  0  0  0  0  0
  -55.4055   61.8046   65.8503 H   0  0  0  0  0  0  0  0  0  0  0  0
  -54.8281   63.3504   66.4249 H   0  0  0  0  0  0  0  0  0  0  0  0
  -53.1656   60.8796   66.0879 H   0  0  0  0  0  0  0  0  0  0  0  0
  -52.6022   62.4588   66.6516 H   0  0  0  0  0  0  0  0  0  0  0  0
  -53.1525   63.4339   64.5359 H   0  0  0  0  0  0  0  0  0  0  0  0
  -53.7232   61.8349   63.9796 H   0  0  0  0  0  0  0  0  0  0  0  0
  -50.9199   62.5141   64.6900 H   0  0  0  0  0  0  0  0  0  0  0  0
  -51.6000   62.3658   63.0542 H   0  0  0  0  0  0  0  0  0  0  0  0
  -52.0668   60.0546   63.4284 H   0  0  0  0  0  0  0  0  0  0  0  0
  -51.4061   60.1992   65.0728 H   0  0  0  0  0  0  0  0  0  0  0  0
  -37.8160   62.2003   63.0914 H   0  0  0  0  0  0  0  0  0  0  0  0
  -49.2440   60.6667   64.1923 H   0  0  0  0  0  0  0  0  0  0  0  0
  -49.8985   60.5452   62.5453 H   0  0  0  0  0  0  0  0  0  0  0  0
  -50.3922   58.2381   62.8836 H   0  0  0  0  0  0  0  0  0  0  0  0
  -49.7518   58.3602   64.5407 H   0  0  0  0  0  0  0  0  0  0  0  0
  -36.4691   68.6664   67.6187 H   0  0  0  0  0  0  0  0  0  0  0  0
  -48.1676   58.7197   62.0436 H   0  0  0  0  0  0  0  0  0  0  0  0
  -48.1948   57.2832   63.0938 H   0  0  0  0  0  0  0  0  0  0  0  0
  -38.6954   65.8965   64.6328 H   0  0  0  0  0  0  0  0  0  0  0  0
  -47.2760   58.5420   64.8871 H   0  0  0  0  0  0  0  0  0  0  0  0
  -47.2630   59.9880   63.8465 H   0  0  0  0  0  0  0  0  0  0  0  0
  -45.6568   58.9782   62.4134 H   0  0  0  0  0  0  0  0  0  0  0  0
  -45.6762   57.5204   63.4192 H   0  0  0  0  0  0  0  0  0  0  0  0
  -43.7397   58.8844   63.8761 H   0  0  0  0  0  0  0  0  0  0  0  0
  -44.8380   58.7635   65.2667 H   0  0  0  0  0  0  0  0  0  0  0  0
  -45.6873   60.9375   64.8178 H   0  0  0  0  0  0  0  0  0  0  0  0
  -44.6110   61.0609   63.4140 H   0  0  0  0  0  0  0  0  0  0  0  0
  -43.7413   60.8111   66.2476 H   0  0  0  0  0  0  0  0  0  0  0  0
  -43.7574   62.2902   65.2671 H   0  0  0  0  0  0  0  0  0  0  0  0
  -42.1351   59.8568   64.7035 H   0  0  0  0  0  0  0  0  0  0  0  0
  -41.5567   61.3748   65.4157 H   0  0  0  0  0  0  0  0  0  0  0  0
  -42.1124   62.5514   63.4194 H   0  0  0  0  0  0  0  0  0  0  0  0
  -42.7049   61.0278   62.7096 H   0  0  0  0  0  0  0  0  0  0  0  0
  -39.8902   61.5921   63.4811 H   0  0  0  0  0  0  0  0  0  0  0  0
  -40.5627   61.6175   61.8422 H   0  0  0  0  0  0  0  0  0  0  0  0
  -41.0963   59.2898   62.0004 H   0  0  0  0  0  0  0  0  0  0  0  0
  -40.4297   59.2702   63.6526 H   0  0  0  0  0  0  0  0  0  0  0  0
  -36.4020   59.0962   62.6252 H   0  0  0  0  0  0  0  0  0  0  0  0
  -36.6048   58.1555   64.0382 H   0  0  0  0  0  0  0  0  0  0  0  0
  -37.7985   60.8886   63.5519 H   0  0  0  0  0  0  0  0  0  0  0  0
  -35.5824   60.1428   65.3795 H   0  0  0  0  0  0  0  0  0  0  0  0
  -35.4356   61.0386   63.8923 H   0  0  0  0  0  0  0  0  0  0  0  0
  -36.3805   64.7320   67.0316 H   0  0  0  0  0  0  0  0  0  0  0  0
  -37.9209   65.4662   67.3696 H   0  0  0  0  0  0  0  0  0  0  0  0
  -36.3628   65.7514   64.8298 H   0  0  0  0  0  0  0  0  0  0  0  0
  -35.3015   66.9518   66.6087 H   0  0  0  0  0  0  0  0  0  0  0  0
  -36.0260   68.0466   65.4423 H   0  0  0  0  0  0  0  0  0  0  0  0
  -37.7454   58.8842   68.3118 H   0  0  0  0  0  0  0  0  0  0  0  0
  -39.3616   58.6839   67.6391 H   0  0  0  0  0  0  0  0  0  0  0  0
  -39.4146   61.0193   67.0273 H   0  0  0  0  0  0  0  0  0  0  0  0
  -37.7795   61.2076   67.7059 H   0  0  0  0  0  0  0  0  0  0  0  0
  -38.5983   60.7228   69.8887 H   0  0  0  0  0  0  0  0  0  0  0  0
  -40.2314   60.5107   69.2191 H   0  0  0  0  0  0  0  0  0  0  0  0
  -38.6789   63.0552   69.2246 H   0  0  0  0  0  0  0  0  0  0  0  0
  -40.0196   62.6175   70.3118 H   0  0  0  0  0  0  0  0  0  0  0  0
  -40.2172   62.9448   67.3645 H   0  0  0  0  0  0  0  0  0  0  0  0
  -40.7453   64.1021   68.6171 H   0  0  0  0  0  0  0  0  0  0  0  0
  -42.3763   62.5582   69.4016 H   0  0  0  0  0  0  0  0  0  0  0  0
  -41.8383   61.3898   68.1566 H   0  0  0  0  0  0  0  0  0  0  0  0
  -42.6435   62.8093   66.4259 H   0  0  0  0  0  0  0  0  0  0  0  0
  -43.1517   64.0026   67.6256 H   0  0  0  0  0  0  0  0  0  0  0  0
  -44.4226   61.5575   68.2789 H   0  0  0  0  0  0  0  0  0  0  0  0
  -46.2617   61.9622   67.0487 H   0  0  0  0  0  0  0  0  0  0  0  0
  -46.3115   64.2184   65.9728 H   0  0  0  0  0  0  0  0  0  0  0  0
  -45.7750   62.9845   64.8243 H   0  0  0  0  0  0  0  0  0  0  0  0
  -43.4797   63.5801   65.2237 H   0  0  0  0  0  0  0  0  0  0  0  0
  -44.0206   64.8116   66.3869 H   0  0  0  0  0  0  0  0  0  0  0  0
  -43.3886   65.7994   64.2798 H   0  0  0  0  0  0  0  0  0  0  0  0
  -45.1161   66.0001   64.6514 H   0  0  0  0  0  0  0  0  0  0  0  0
  -44.7623   65.5321   62.3160 H   0  0  0  0  0  0  0  0  0  0  0  0
  -45.6606   64.2425   63.1614 H   0  0  0  0  0  0  0  0  0  0  0  0
  -43.7204   62.8741   63.2019 H   0  0  0  0  0  0  0  0  0  0  0  0
  -42.8039   64.1579   62.3840 H   0  0  0  0  0  0  0  0  0  0  0  0
  -43.4185   62.3975   60.8537 H   0  0  0  0  0  0  0  0  0  0  0  0
  -44.1933   63.9565   60.4703 H   0  0  0  0  0  0  0  0  0  0  0  0
  -46.2501   63.1930   61.3827 H   0  0  0  0  0  0  0  0  0  0  0  0
  -45.4920   61.6469   61.7987 H   0  0  0  0  0  0  0  0  0  0  0  0
  -45.8910   62.7089   59.0431 H   0  0  0  0  0  0  0  0  0  0  0  0
  -46.8188   61.4373   59.8016 H   0  0  0  0  0  0  0  0  0  0  0  0
  -45.1213   61.1976   59.4635 H   0  0  0  0  0  0  0  0  0  0  0  0
  1  4  1  0  0  0  0
  1 54  1  0  0  0  0
  1 55  1  0  0  0  0
  1 56  1  0  0  0  0
  2 29  2  0  0  0  0
  3  7  1  0  0  0  0
  3  9  2  6  0  0  0
  3 11  1  0  0  0  0
  3 13  1  0  0  0  0
  4  6  1  0  0  0  0
  4 57  1  0  0  0  0
  4 58  1  0  0  0  0
  5 29  1  0  0  0  0
  5 30  1  0  0  0  0
  6  8  1  0  0  0  0
  6 59  1  0  0  0  0
  6 60  1  0  0  0  0
  7 32  1  0  0  0  0
  8 10  1  0  0  0  0
  8 61  1  0  0  0  0
  8 62  1  0  0  0  0
 10 12  1  0  0  0  0
 10 63  1  0  0  0  0
 10 64  1  0  0  0  0
 11 65  1  0  0  0  0
 12 14  1  0  0  0  0
 12 66  1  0  0  0  0
 12 67  1  0  0  0  0
 13 33  1  0  0  0  0
 14 16  1  0  0  0  0
 14 68  1  0  0  0  0
 14 69  1  0  0  0  0
 15 35  1  0  0  0  0
 15 70  1  0  0  0  0
 16 18  1  0  0  0  0
 16 71  1  0  0  0  0
 16 72  1  0  0  0  0
 17 34  1  0  0  0  0
 17 73  1  0  0  0  0
 18 20  1  0  0  0  0
 18 74  1  0  0  0  0
 18 75  1  0  0  0  0
 19 31  1  0  0  0  0
 19 36  1  0  0  0  0
 20 22  1  0  0  0  0
 20 76  1  0  0  0  0
 20 77  1  0  0  0  0
 21 36  2  0  0  0  0
 22 23  1  0  0  0  0
 22 78  1  0  0  0  0
 22 79  1  0  0  0  0
 23 24  1  0  0  0  0
 23 80  1  0  0  0  0
 23 81  1  0  0  0  0
 24 25  1  0  0  0  0
 24 82  1  0  0  0  0
 24 83  1  0  0  0  0
 25 26  1  0  0  0  0
 25 84  1  0  0  0  0
 25 85  1  0  0  0  0
 26 27  1  0  0  0  0
 26 86  1  0  0  0  0
 26 87  1  0  0  0  0
 27 28  1  0  0  0  0
 27 88  1  0  0  0  0
 27 89  1  0  0  0  0
 28 29  1  0  0  0  0
 28 90  1  0  0  0  0
 28 91  1  0  0  0  0
 30 31  1  0  0  0  0
 30 92  1  0  0  0  0
 30 93  1  0  0  0  0
 31 32  1  0  0  0  0
 31 94  1  6  0  0  0
 32 95  1  0  0  0  0
 32 96  1  0  0  0  0
 33 34  1  0  0  0  0
 33 97  1  0  0  0  0
 33 98  1  0  0  0  0
 34 35  1  0  0  0  0
 34 99  1  6  0  0  0
 35100  1  0  0  0  0
 35101  1  0  0  0  0
 36 37  1  0  0  0  0
 37 38  1  0  0  0  0
 37102  1  0  0  0  0
 37103  1  0  0  0  0
 38 39  1  0  0  0  0
 38104  1  0  0  0  0
 38105  1  0  0  0  0
 39 40  1  0  0  0  0
 39106  1  0  0  0  0
 39107  1  0  0  0  0
 40 41  1  0  0  0  0
 40108  1  0  0  0  0
 40109  1  0  0  0  0
 41 42  1  0  0  0  0
 41110  1  0  0  0  0
 41111  1  0  0  0  0
 42 43  1  0  0  0  0
 42112  1  0  0  0  0
 42113  1  0  0  0  0
 43 44  1  0  0  0  0
 43114  1  0  0  0  0
 43115  1  0  0  0  0
 44 45  2  0  0  0  0
 44116  1  0  0  0  0
 45 46  1  0  0  0  0
 45117  1  0  0  0  0
 46 47  1  0  0  0  0
 46118  1  0  0  0  0
 46119  1  0  0  0  0
 47 48  1  0  0  0  0
 47120  1  0  0  0  0
 47121  1  0  0  0  0
 48 49  1  0  0  0  0
 48122  1  0  0  0  0
 48123  1  0  0  0  0
 49 50  1  0  0  0  0
 49124  1  0  0  0  0
 49125  1  0  0  0  0
 50 51  1  0  0  0  0
 50126  1  0  0  0  0
 50127  1  0  0  0  0
 51 52  1  0  0  0  0
 51128  1  0  0  0  0
 51129  1  0  0  0  0
 52 53  1  0  0  0  0
 52130  1  0  0  0  0
 52131  1  0  0  0  0
 53132  1  0  0  0  0
 53133  1  0  0  0  0
 53134  1  0  0  0  0
M  CHG  1   9  -1
M  END
$$$$