/media/chris/experiments/cd1a-new-docking/inputs/ligands/1xz0_ligand.pdb


 65 67  0  0  0  0  0  0  0  0999 V2000
  -39.7129   59.8835   64.5869 C   0  0  0  0  0  0  0  0  0  0  0  0
  -38.6687   60.8928   64.7741 N   0  0  0  0  0  0  0  0  0  0  0  0
  -37.6362   60.2140   66.6836 O   0  0  0  0  0  0  0  0  0  0  0  0
  -37.7481   60.9957   65.7485 C   0  0  0  0  0  0  0  0  0  0  0  0
  -38.6362   61.5977   64.0876 H   0  0  0  0  0  0  0  0  0  0  0  0
  -36.2585   62.4847   64.4278 N   0  0  0  0  0  0  0  0  0  0  0  0
  -34.4952   62.5431   65.7988 O   0  0  0  0  0  0  0  0  0  0  0  0
  -35.5943   62.2592   66.6637 C   0  0  0  0  0  0  0  0  0  0  0  0
  -35.0052   62.6464   64.4545 C   0  0  0  0  0  0  0  0  0  0  0  0
  -36.8530   62.2265   65.7532 C   0  0  0  0  0  0  0  0  0  0  0  0
  -35.4615   64.8657   62.6480 O   0  0  0  0  0  0  0  0  0  0  0  0
  -34.4108   64.0647   62.4333 C   0  0  0  0  0  0  0  0  0  0  0  0
  -33.5509   64.3233   61.3579 C   0  0  0  0  0  0  0  0  0  0  0  0
  -32.4465   63.4919   61.1058 C   0  0  0  0  0  0  0  0  0  0  0  0
  -32.1839   62.3981   61.9322 C   0  0  0  0  0  0  0  0  0  0  0  0
  -33.0352   62.1394   63.0102 C   0  0  0  0  0  0  0  0  0  0  0  0
  -34.1477   62.9657   63.2602 C   0  0  0  0  0  0  0  0  0  0  0  0
  -35.6178   65.5954   62.0814 H   0  0  0  0  0  0  0  0  0  0  0  0
  -41.1935   61.1144   63.1628 O   0  0  0  0  0  0  0  0  0  0  0  0
  -40.3865   60.2053   63.2664 C   0  0  0  0  0  0  0  0  0  0  0  0
  -40.1229   59.3699   62.0901 O   0  0  0  0  0  0  0  0  0  0  0  0
  -39.6178   59.9368   60.8665 C   0  0  0  0  0  0  0  0  0  0  0  0
  -40.3287   59.4579   59.6067 C   0  0  0  0  0  0  0  0  0  0  0  0
  -38.1235   59.6619   60.7918 C   0  0  0  0  0  0  0  0  0  0  0  0
  -36.2556   59.9615   62.3466 N   0  0  0  0  0  0  0  0  0  0  0  0
  -37.6302   61.6794   61.8225 O   0  0  0  0  0  0  0  0  0  0  0  0
  -37.3150   60.5145   61.7380 C   0  0  0  0  0  0  0  0  0  0  0  0
  -35.6977   60.5429   62.9121 H   0  0  0  0  0  0  0  0  0  0  0  0
  -36.0289   57.7336   64.5467 N   0  0  0  0  0  0  0  0  0  0  0  0
  -37.2600   56.7745   62.9250 O   0  0  0  0  0  0  0  0  0  0  0  0
  -35.2730   58.8636   65.1068 C   0  0  0  0  0  0  0  0  0  0  0  0
  -33.8480   58.9084   64.5237 C   0  0  0  0  0  0  0  0  0  0  0  0
  -33.5791   57.9308   63.3916 C   0  0  0  0  0  0  0  0  0  0  0  0
  -34.3638   58.2586   62.1186 C   0  0  0  0  0  0  0  0  0  0  0  0
  -35.8696   58.5507   62.2289 C   0  0  0  0  0  0  0  0  0  0  0  0
  -36.4520   57.6229   63.2772 C   0  0  0  0  0  0  0  0  0  0  0  0
  -35.0731   55.9794   66.4263 Si  0  0  0  0  0  0  0  0  0  0  0  0
  -36.3356   56.7123   65.3945 O   0  0  0  0  0  0  0  0  0  0  0  0
  -35.6455   54.9438   67.2113 H   0  0  0  0  0  0  0  0  0  0  0  0
  -34.5243   56.9725   67.2803 H   0  0  0  0  0  0  0  0  0  0  0  0
  -34.0465   55.4399   65.6070 H   0  0  0  0  0  0  0  0  0  0  0  0
  -41.5405   58.3748   65.7171 C   0  0  0  0  0  0  0  0  0  0  0  0
  -40.7070   59.6616   65.7525 C   0  0  0  0  0  0  0  0  0  0  0  0
  -42.8054   58.3420   66.5915 C   0  0  0  0  0  0  0  0  0  0  0  0
  -43.8009   57.1867   66.3600 C   0  0  0  0  0  0  0  0  0  0  0  0
  -45.0484   57.7524   65.8372 N   0  0  0  0  0  0  0  0  0  0  0  0
  -46.2832   57.7731   66.4051 C   0  0  0  0  0  0  0  0  0  0  0  0
  -44.9174   58.3484   64.5750 O   0  0  0  0  0  0  0  0  0  0  0  0
  -46.4813   57.2833   67.5168 O   0  0  0  0  0  0  0  0  0  0  0  0
  -45.7763   58.6993   64.2923 H   0  0  0  0  0  0  0  0  0  0  0  0
  -47.4429   58.4147   65.6361 C   0  0  0  0  0  0  0  0  0  0  0  0
  -48.5379   57.4313   65.2005 C   0  0  0  0  0  0  0  0  0  0  0  0
  -49.9283   58.0120   65.5224 C   0  0  0  0  0  0  0  0  0  0  0  0
  -49.9615   59.5520   65.5450 C   0  0  0  0  0  0  0  0  0  0  0  0
  -51.1759   60.1778   64.8340 C   0  0  0  0  0  0  0  0  0  0  0  0
  -50.8063   60.8522   63.4962 C   0  0  0  0  0  0  0  0  0  0  0  0
  -49.4196   60.4547   62.9387 C   0  0  0  0  0  0  0  0  0  0  0  0
  -49.4893   59.7326   61.5882 C   0  0  0  0  0  0  0  0  0  0  0  0
  -49.6397   58.2100   61.6659 C   0  0  0  0  0  0  0  0  0  0  0  0
  -50.5931   57.6840   60.5776 C   0  0  0  0  0  0  0  0  0  0  0  0
  -50.1980   58.0962   59.1514 C   0  0  0  0  0  0  0  0  0  0  0  0
  -48.9498   57.4134   58.5829 C   0  0  0  0  0  0  0  0  0  0  0  0
  -47.9064   58.3904   57.9858 C   0  0  0  0  0  0  0  0  0  0  0  0
  -47.1516   57.7556   56.8002 C   0  0  0  0  0  0  0  0  0  0  0  0
  -47.2363   56.2317   56.6520 C   0  0  0  0  0  0  0  0  0  0  0  0
 46 47  1  0  0  0
 46 48  1  0  0  0
 46 45  1  0  0  0
 47 49  2  0  0  0
 47 51  1  0  0  0
 19 20  2  0  0  0
 37 38  1  0  0  0
 37 39  1  0  0  0
 37 40  1  0  0  0
 37 41  1  0  0  0
 48 50  1  0  0  0
 38 29  1  0  0  0
 45 44  1  0  0  0
 25 27  1  0  0  0
 25 35  1  0  0  0
 25 28  1  0  0  0
 21 20  1  0  0  0
 21 22  1  0  0  0
 44 42  1  0  0  0
  2  1  1  0  0  0
  2  4  1  0  0  0
  2  5  1  0  0  0
 26 27  2  0  0  0
 42 43  2  0  0  0
 29 31  1  0  0  0
 29 36  1  0  0  0
  3  4  2  0  0  0
 43  1  1  0  0  0
  6  9  2  0  0  0
  6 10  1  0  0  0
  1 20  1  0  0  0
 30 36  2  0  0  0
  7  8  1  0  0  0
  7  9  1  0  0  0
 22 24  1  0  0  0
 22 23  1  0  0  0
 11 12  1  0  0  0
 11 18  1  0  0  0
 24 27  1  0  0  0
  4 10  1  0  0  0
 51 52  1  0  0  0
 52 53  1  0  0  0
 53 54  1  0  0  0
 54 55  1  0  0  0
 55 56  1  0  0  0
 56 57  1  0  0  0
 57 58  1  0  0  0
 58 59  1  0  0  0
 59 60  1  0  0  0
 60 61  1  0  0  0
 61 62  1  0  0  0
 62 63  1  0  0  0
 63 64  1  0  0  0
 64 65  1  0  0  0
 31 32  1  0  0  0
 32 33  1  0  0  0
 33 34  1  0  0  0
 34 35  1  0  0  0
 35 36  1  0  0  0
  8 10  1  0  0  0
  9 17  1  0  0  0
 12 13  2  0  0  0
 12 17  1  0  0  0
 13 14  1  0  0  0
 14 15  2  0  0  0
 15 16  1  0  0  0
 16 17  2  0  0  0
M  END
> <minimizedAffinity>
-8.65769

> <CNNscore>
0.2593065500

> <CNNaffinity>
7.4057006836

> <CNN_VS>
1.9203467369

> <CNNaffinity_variance>
0.3431697488

$$$$
/media/chris/experiments/cd1a-new-docking/inputs/ligands/1xz0_ligand.pdb


 65 67  0  0  0  0  0  0  0  0999 V2000
  -41.6958   58.0903   62.8167 C   0  0  0  0  0  0  0  0  0  0  0  0
  -40.7893   58.4365   63.9133 N   0  0  0  0  0  0  0  0  0  0  0  0
  -40.6701   60.7040   63.7833 O   0  0  0  0  0  0  0  0  0  0  0  0
  -40.3548   59.6452   64.3101 C   0  0  0  0  0  0  0  0  0  0  0  0
  -40.4489   57.6742   64.4351 H   0  0  0  0  0  0  0  0  0  0  0  0
  -38.6010   60.9883   65.4505 N   0  0  0  0  0  0  0  0  0  0  0  0
  -36.9446   59.4888   65.4611 O   0  0  0  0  0  0  0  0  0  0  0  0
  -38.1285   58.6935   65.4104 C   0  0  0  0  0  0  0  0  0  0  0  0
  -37.3423   60.8744   65.4662 C   0  0  0  0  0  0  0  0  0  0  0  0
  -39.3145   59.6973   65.4197 C   0  0  0  0  0  0  0  0  0  0  0  0
  -36.9710   62.8567   63.3856 O   0  0  0  0  0  0  0  0  0  0  0  0
  -36.2488   62.9568   64.5081 C   0  0  0  0  0  0  0  0  0  0  0  0
  -35.3474   64.0185   64.6595 C   0  0  0  0  0  0  0  0  0  0  0  0
  -34.5709   64.1404   65.8243 C   0  0  0  0  0  0  0  0  0  0  0  0
  -34.6943   63.2074   66.8551 C   0  0  0  0  0  0  0  0  0  0  0  0
  -35.5968   62.1498   66.7115 C   0  0  0  0  0  0  0  0  0  0  0  0
  -36.3700   62.0201   65.5418 C   0  0  0  0  0  0  0  0  0  0  0  0
  -36.8731   63.4955   62.7070 H   0  0  0  0  0  0  0  0  0  0  0  0
  -41.5342   59.4572   60.8570 O   0  0  0  0  0  0  0  0  0  0  0  0
  -41.0338   58.5816   61.5435 C   0  0  0  0  0  0  0  0  0  0  0  0
  -39.7944   57.9522   61.0757 O   0  0  0  0  0  0  0  0  0  0  0  0
  -38.7504   58.7245   60.4533 C   0  0  0  0  0  0  0  0  0  0  0  0
  -38.5124   58.3982   58.9841 C   0  0  0  0  0  0  0  0  0  0  0  0
  -37.4767   58.5526   61.2672 C   0  0  0  0  0  0  0  0  0  0  0  0
  -35.8716   59.8271   62.6071 N   0  0  0  0  0  0  0  0  0  0  0  0
  -37.8206   60.7494   61.9245 O   0  0  0  0  0  0  0  0  0  0  0  0
  -37.0681   59.8055   62.0017 C   0  0  0  0  0  0  0  0  0  0  0  0
  -35.5874   60.6700   63.0289 H   0  0  0  0  0  0  0  0  0  0  0  0
  -33.6069   59.1834   64.6835 N   0  0  0  0  0  0  0  0  0  0  0  0
  -34.8070   57.2822   64.5795 O   0  0  0  0  0  0  0  0  0  0  0  0
  -33.3335   60.5703   64.2790 C   0  0  0  0  0  0  0  0  0  0  0  0
  -32.5665   60.6072   62.9437 C   0  0  0  0  0  0  0  0  0  0  0  0
  -32.4172   59.2665   62.2438 C   0  0  0  0  0  0  0  0  0  0  0  0
  -33.7476   58.7055   61.7347 C   0  0  0  0  0  0  0  0  0  0  0  0
  -34.9563   58.6829   62.6851 C   0  0  0  0  0  0  0  0  0  0  0  0
  -34.4547   58.3392   64.0741 C   0  0  0  0  0  0  0  0  0  0  0  0
  -33.3660   57.1261   66.4818 Si  0  0  0  0  0  0  0  0  0  0  0  0
  -32.9480   58.7166   65.7809 O   0  0  0  0  0  0  0  0  0  0  0  0
  -32.5408   56.8742   67.6096 H   0  0  0  0  0  0  0  0  0  0  0  0
  -33.1611   56.1117   65.5094 H   0  0  0  0  0  0  0  0  0  0  0  0
  -34.7281   57.1289   66.8830 H   0  0  0  0  0  0  0  0  0  0  0  0
  -43.7421   58.6193   64.3746 C   0  0  0  0  0  0  0  0  0  0  0  0
  -43.1762   58.5220   62.9525 C   0  0  0  0  0  0  0  0  0  0  0  0
  -45.2738   58.6137   64.5146 C   0  0  0  0  0  0  0  0  0  0  0  0
  -45.9112   59.7023   65.4023 C   0  0  0  0  0  0  0  0  0  0  0  0
  -47.2744   59.2809   65.7395 N   0  0  0  0  0  0  0  0  0  0  0  0
  -48.4533   59.9026   65.4725 C   0  0  0  0  0  0  0  0  0  0  0  0
  -47.3383   58.0638   66.4324 O   0  0  0  0  0  0  0  0  0  0  0  0
  -48.4866   60.9682   64.8574 O   0  0  0  0  0  0  0  0  0  0  0  0
  -48.2647   57.8477   66.6218 H   0  0  0  0  0  0  0  0  0  0  0  0
  -49.7574   59.2594   65.9560 C   0  0  0  0  0  0  0  0  0  0  0  0
  -50.1398   57.9676   65.2206 C   0  0  0  0  0  0  0  0  0  0  0  0
  -49.9410   58.1447   63.7030 C   0  0  0  0  0  0  0  0  0  0  0  0
  -51.1775   58.7157   62.9832 C   0  0  0  0  0  0  0  0  0  0  0  0
  -51.0243   60.1705   62.5016 C   0  0  0  0  0  0  0  0  0  0  0  0
  -49.6667   60.4367   61.8182 C   0  0  0  0  0  0  0  0  0  0  0  0
  -49.7146   60.4329   60.2724 C   0  0  0  0  0  0  0  0  0  0  0  0
  -49.1256   59.1632   59.6471 C   0  0  0  0  0  0  0  0  0  0  0  0
  -50.0763   57.9638   59.5795 C   0  0  0  0  0  0  0  0  0  0  0  0
  -49.3135   56.6343   59.7232 C   0  0  0  0  0  0  0  0  0  0  0  0
  -47.7893   56.7734   59.5905 C   0  0  0  0  0  0  0  0  0  0  0  0
  -47.1545   56.0383   58.4056 C   0  0  0  0  0  0  0  0  0  0  0  0
  -48.0084   56.0580   57.1133 C   0  0  0  0  0  0  0  0  0  0  0  0
  -48.0764   57.4726   56.5027 C   0  0  0  0  0  0  0  0  0  0  0  0
  -46.8085   58.3313   56.5834 C   0  0  0  0  0  0  0  0  0  0  0  0
 46 47  1  0  0  0
 46 48  1  0  0  0
 46 45  1  0  0  0
 47 49  2  0  0  0
 47 51  1  0  0  0
 19 20  2  0  0  0
 37 38  1  0  0  0
 37 39  1  0  0  0
 37 40  1  0  0  0
 37 41  1  0  0  0
 48 50  1  0  0  0
 38 29  1  0  0  0
 45 44  1  0  0  0
 25 27  1  0  0  0
 25 35  1  0  0  0
 25 28  1  0  0  0
 21 20  1  0  0  0
 21 22  1  0  0  0
 44 42  1  0  0  0
  2  1  1  0  0  0
  2  4  1  0  0  0
  2  5  1  0  0  0
 26 27  2  0  0  0
 42 43  2  0  0  0
 29 31  1  0  0  0
 29 36  1  0  0  0
  3  4  2  0  0  0
 43  1  1  0  0  0
  6  9  2  0  0  0
  6 10  1  0  0  0
  1 20  1  0  0  0
 30 36  2  0  0  0
  7  8  1  0  0  0
  7  9  1  0  0  0
 22 24  1  0  0  0
 22 23  1  0  0  0
 11 12  1  0  0  0
 11 18  1  0  0  0
 24 27  1  0  0  0
  4 10  1  0  0  0
 51 52  1  0  0  0
 52 53  1  0  0  0
 53 54  1  0  0  0
 54 55  1  0  0  0
 55 56  1  0  0  0
 56 57  1  0  0  0
 57 58  1  0  0  0
 58 59  1  0  0  0
 59 60  1  0  0  0
 60 61  1  0  0  0
 61 62  1  0  0  0
 62 63  1  0  0  0
 63 64  1  0  0  0
 64 65  1  0  0  0
 31 32  1  0  0  0
 32 33  1  0  0  0
 33 34  1  0  0  0
 34 35  1  0  0  0
 35 36  1  0  0  0
  8 10  1  0  0  0
  9 17  1  0  0  0
 12 13  2  0  0  0
 12 17  1  0  0  0
 13 14  1  0  0  0
 14 15  2  0  0  0
 15 16  1  0  0  0
 16 17  2  0  0  0
M  END
> <minimizedAffinity>
-10.14024

> <CNNscore>
0.2468995899

> <CNNaffinity>
7.4675850868

> <CNN_VS>
1.8437436819

> <CNNaffinity_variance>
0.7647269964

$$$$
/media/chris/experiments/cd1a-new-docking/inputs/ligands/1xz0_ligand.pdb


 65 67  0  0  0  0  0  0  0  0999 V2000
  -40.2442   58.6409   64.0779 C   0  0  0  0  0  0  0  0  0  0  0  0
  -39.4736   59.7566   64.6306 N   0  0  0  0  0  0  0  0  0  0  0  0
  -37.7311   58.7169   65.6579 O   0  0  0  0  0  0  0  0  0  0  0  0
  -38.3341   59.7346   65.3436 C   0  0  0  0  0  0  0  0  0  0  0  0
  -39.8433   60.6520   64.4548 H   0  0  0  0  0  0  0  0  0  0  0  0
  -37.4342   61.9914   64.8173 N   0  0  0  0  0  0  0  0  0  0  0  0
  -35.6386   61.9856   66.1469 O   0  0  0  0  0  0  0  0  0  0  0  0
  -36.5355   61.0710   66.7760 C   0  0  0  0  0  0  0  0  0  0  0  0
  -36.2760   62.4793   64.9520 C   0  0  0  0  0  0  0  0  0  0  0  0
  -37.8137   61.0551   65.8925 C   0  0  0  0  0  0  0  0  0  0  0  0
  -33.8886   64.0042   65.5617 O   0  0  0  0  0  0  0  0  0  0  0  0
  -34.4836   64.1840   64.3762 C   0  0  0  0  0  0  0  0  0  0  0  0
  -33.9351   65.0864   63.4556 C   0  0  0  0  0  0  0  0  0  0  0  0
  -34.5460   65.2999   62.2084 C   0  0  0  0  0  0  0  0  0  0  0  0
  -35.7071   64.6059   61.8637 C   0  0  0  0  0  0  0  0  0  0  0  0
  -36.2548   63.6999   62.7762 C   0  0  0  0  0  0  0  0  0  0  0  0
  -35.6497   63.4902   64.0303 C   0  0  0  0  0  0  0  0  0  0  0  0
  -33.1089   64.4796   65.7714 H   0  0  0  0  0  0  0  0  0  0  0  0
  -41.3541   59.9135   62.3797 O   0  0  0  0  0  0  0  0  0  0  0  0
  -40.5716   59.0159   62.6451 C   0  0  0  0  0  0  0  0  0  0  0  0
  -39.9932   58.2459   61.5389 O   0  0  0  0  0  0  0  0  0  0  0  0
  -38.9375   58.7858   60.7216 C   0  0  0  0  0  0  0  0  0  0  0  0
  -38.8456   58.1809   59.3262 C   0  0  0  0  0  0  0  0  0  0  0  0
  -37.6237   58.6338   61.4735 C   0  0  0  0  0  0  0  0  0  0  0  0
  -35.8825   59.9421   62.5926 N   0  0  0  0  0  0  0  0  0  0  0  0
  -37.7326   60.9333   61.7500 O   0  0  0  0  0  0  0  0  0  0  0  0
  -37.0807   59.9430   61.9903 C   0  0  0  0  0  0  0  0  0  0  0  0
  -35.5087   60.8098   62.8691 H   0  0  0  0  0  0  0  0  0  0  0  0
  -33.6493   59.4370   64.7403 N   0  0  0  0  0  0  0  0  0  0  0  0
  -35.0425   57.6858   64.9809 O   0  0  0  0  0  0  0  0  0  0  0  0
  -33.2427   60.6939   64.0946 C   0  0  0  0  0  0  0  0  0  0  0  0
  -32.5073   60.4133   62.7706 C   0  0  0  0  0  0  0  0  0  0  0  0
  -32.5143   58.9621   62.3193 C   0  0  0  0  0  0  0  0  0  0  0  0
  -33.9073   58.4649   61.9239 C   0  0  0  0  0  0  0  0  0  0  0  0
  -35.0894   58.7387   62.8685 C   0  0  0  0  0  0  0  0  0  0  0  0
  -34.5941   58.5938   64.2942 C   0  0  0  0  0  0  0  0  0  0  0  0
  -32.9848   57.4061   66.4601 Si  0  0  0  0  0  0  0  0  0  0  0  0
  -33.0172   59.1035   65.9001 O   0  0  0  0  0  0  0  0  0  0  0  0
  -32.2695   57.3250   67.6841 H   0  0  0  0  0  0  0  0  0  0  0  0
  -32.3451   56.5976   65.4835 H   0  0  0  0  0  0  0  0  0  0  0  0
  -34.3141   56.9474   66.6573 H   0  0  0  0  0  0  0  0  0  0  0  0
  -41.9565   56.7233   64.6119 C   0  0  0  0  0  0  0  0  0  0  0  0
  -41.4702   58.1516   64.8866 C   0  0  0  0  0  0  0  0  0  0  0  0
  -43.3873   56.3786   65.0586 C   0  0  0  0  0  0  0  0  0  0  0  0
  -43.9884   57.2003   66.2174 C   0  0  0  0  0  0  0  0  0  0  0  0
  -45.3062   57.6888   65.7996 N   0  0  0  0  0  0  0  0  0  0  0  0
  -45.6260   58.8380   65.1480 C   0  0  0  0  0  0  0  0  0  0  0  0
  -46.3627   56.8291   66.1316 O   0  0  0  0  0  0  0  0  0  0  0  0
  -44.7570   59.6411   64.8090 O   0  0  0  0  0  0  0  0  0  0  0  0
  -47.1998   57.2129   65.8270 H   0  0  0  0  0  0  0  0  0  0  0  0
  -47.0982   59.1315   64.8406 C   0  0  0  0  0  0  0  0  0  0  0  0
  -47.8642   59.8073   65.9862 C   0  0  0  0  0  0  0  0  0  0  0  0
  -49.3578   59.4359   65.9147 C   0  0  0  0  0  0  0  0  0  0  0  0
  -49.6276   58.1113   65.1760 C   0  0  0  0  0  0  0  0  0  0  0  0
  -50.3579   58.2654   63.8289 C   0  0  0  0  0  0  0  0  0  0  0  0
  -51.1770   59.5699   63.7360 C   0  0  0  0  0  0  0  0  0  0  0  0
  -50.8625   60.4382   62.4955 C   0  0  0  0  0  0  0  0  0  0  0  0
  -49.4808   60.1617   61.8917 C   0  0  0  0  0  0  0  0  0  0  0  0
  -49.4395   60.0713   60.3630 C   0  0  0  0  0  0  0  0  0  0  0  0
  -49.7258   58.6387   59.8776 C   0  0  0  0  0  0  0  0  0  0  0  0
  -48.7460   57.5888   60.4233 C   0  0  0  0  0  0  0  0  0  0  0  0
  -48.5493   56.3448   59.5508 C   0  0  0  0  0  0  0  0  0  0  0  0
  -47.2513   56.3595   58.7054 C   0  0  0  0  0  0  0  0  0  0  0  0
  -47.5172   56.8582   57.2705 C   0  0  0  0  0  0  0  0  0  0  0  0
  -47.2991   58.3511   56.9968 C   0  0  0  0  0  0  0  0  0  0  0  0
 46 47  1  0  0  0
 46 48  1  0  0  0
 46 45  1  0  0  0
 47 49  2  0  0  0
 47 51  1  0  0  0
 19 20  2  0  0  0
 37 38  1  0  0  0
 37 39  1  0  0  0
 37 40  1  0  0  0
 37 41  1  0  0  0
 48 50  1  0  0  0
 38 29  1  0  0  0
 45 44  1  0  0  0
 25 27  1  0  0  0
 25 35  1  0  0  0
 25 28  1  0  0  0
 21 20  1  0  0  0
 21 22  1  0  0  0
 44 42  1  0  0  0
  2  1  1  0  0  0
  2  4  1  0  0  0
  2  5  1  0  0  0
 26 27  2  0  0  0
 42 43  2  0  0  0
 29 31  1  0  0  0
 29 36  1  0  0  0
  3  4  2  0  0  0
 43  1  1  0  0  0
  6  9  2  0  0  0
  6 10  1  0  0  0
  1 20  1  0  0  0
 30 36  2  0  0  0
  7  8  1  0  0  0
  7  9  1  0  0  0
 22 24  1  0  0  0
 22 23  1  0  0  0
 11 12  1  0  0  0
 11 18  1  0  0  0
 24 27  1  0  0  0
  4 10  1  0  0  0
 51 52  1  0  0  0
 52 53  1  0  0  0
 53 54  1  0  0  0
 54 55  1  0  0  0
 55 56  1  0  0  0
 56 57  1  0  0  0
 57 58  1  0  0  0
 58 59  1  0  0  0
 59 60  1  0  0  0
 60 61  1  0  0  0
 61 62  1  0  0  0
 62 63  1  0  0  0
 63 64  1  0  0  0
 64 65  1  0  0  0
 31 32  1  0  0  0
 32 33  1  0  0  0
 33 34  1  0  0  0
 34 35  1  0  0  0
 35 36  1  0  0  0
  8 10  1  0  0  0
  9 17  1  0  0  0
 12 13  2  0  0  0
 12 17  1  0  0  0
 13 14  1  0  0  0
 14 15  2  0  0  0
 15 16  1  0  0  0
 16 17  2  0  0  0
M  END
> <minimizedAffinity>
-9.53015

> <CNNscore>
0.2210453302

> <CNNaffinity>
7.4736571312

> <CNN_VS>
1.6520169973

> <CNNaffinity_variance>
0.5946022272

$$$$
/media/chris/experiments/cd1a-new-docking/inputs/ligands/1xz0_ligand.pdb


 65 67  0  0  0  0  0  0  0  0999 V2000
  -36.5343   59.5017   65.6561 C   0  0  0  0  0  0  0  0  0  0  0  0
  -35.4677   60.2307   64.9669 N   0  0  0  0  0  0  0  0  0  0  0  0
  -33.5762   59.3229   65.8451 O   0  0  0  0  0  0  0  0  0  0  0  0
  -34.1346   60.1091   65.0912 C   0  0  0  0  0  0  0  0  0  0  0  0
  -35.7704   60.9073   64.3190 H   0  0  0  0  0  0  0  0  0  0  0  0
  -33.9345   62.3800   64.0997 N   0  0  0  0  0  0  0  0  0  0  0  0
  -33.2026   61.8240   62.0633 O   0  0  0  0  0  0  0  0  0  0  0  0
  -32.7840   60.7370   62.8879 C   0  0  0  0  0  0  0  0  0  0  0  0
  -33.9091   62.7648   62.8961 C   0  0  0  0  0  0  0  0  0  0  0  0
  -33.2571   61.0888   64.3256 C   0  0  0  0  0  0  0  0  0  0  0  0
  -36.7276   63.4377   62.9186 O   0  0  0  0  0  0  0  0  0  0  0  0
  -35.8543   64.3335   62.4427 C   0  0  0  0  0  0  0  0  0  0  0  0
  -36.3154   65.5744   61.9841 C   0  0  0  0  0  0  0  0  0  0  0  0
  -35.4200   66.5281   61.4712 C   0  0  0  0  0  0  0  0  0  0  0  0
  -34.0519   66.2555   61.4203 C   0  0  0  0  0  0  0  0  0  0  0  0
  -33.5861   65.0214   61.8824 C   0  0  0  0  0  0  0  0  0  0  0  0
  -34.4820   64.0603   62.3889 C   0  0  0  0  0  0  0  0  0  0  0  0
  -37.6415   63.6426   62.9450 H   0  0  0  0  0  0  0  0  0  0  0  0
  -36.0477   57.1582   65.7361 O   0  0  0  0  0  0  0  0  0  0  0  0
  -36.5145   58.0899   65.1017 C   0  0  0  0  0  0  0  0  0  0  0  0
  -37.0036   57.8325   63.7432 O   0  0  0  0  0  0  0  0  0  0  0  0
  -36.0943   57.6455   62.6423 C   0  0  0  0  0  0  0  0  0  0  0  0
  -34.6320   57.5046   63.0465 C   0  0  0  0  0  0  0  0  0  0  0  0
  -36.2849   58.7939   61.6628 C   0  0  0  0  0  0  0  0  0  0  0  0
  -38.7120   59.1174   61.6855 N   0  0  0  0  0  0  0  0  0  0  0  0
  -37.3129   60.6914   62.5106 O   0  0  0  0  0  0  0  0  0  0  0  0
  -37.5041   59.6313   61.9599 C   0  0  0  0  0  0  0  0  0  0  0  0
  -39.5027   59.6450   61.9417 H   0  0  0  0  0  0  0  0  0  0  0  0
  -41.2872   57.9694   60.3052 N   0  0  0  0  0  0  0  0  0  0  0  0
  -39.6580   57.6252   58.7909 O   0  0  0  0  0  0  0  0  0  0  0  0
  -41.7681   58.4512   61.6084 C   0  0  0  0  0  0  0  0  0  0  0  0
  -41.4852   57.4136   62.7112 C   0  0  0  0  0  0  0  0  0  0  0  0
  -40.6316   56.2304   62.2853 C   0  0  0  0  0  0  0  0  0  0  0  0
  -39.1887   56.6213   61.9553 C   0  0  0  0  0  0  0  0  0  0  0  0
  -38.9381   57.8240   61.0304 C   0  0  0  0  0  0  0  0  0  0  0  0
  -40.0017   57.8146   59.9498 C   0  0  0  0  0  0  0  0  0  0  0  0
  -42.1087   58.3109   57.7105 Si  0  0  0  0  0  0  0  0  0  0  0  0
  -42.2306   57.6618   59.3717 O   0  0  0  0  0  0  0  0  0  0  0  0
  -43.2060   57.8456   56.9387 H   0  0  0  0  0  0  0  0  0  0  0  0
  -40.8943   57.8727   57.1189 H   0  0  0  0  0  0  0  0  0  0  0  0
  -42.1287   59.7301   57.7543 H   0  0  0  0  0  0  0  0  0  0  0  0
  -39.1344   59.2042   65.4443 C   0  0  0  0  0  0  0  0  0  0  0  0
  -37.9430   60.1433   65.6689 C   0  0  0  0  0  0  0  0  0  0  0  0
  -40.4629   59.8555   65.0242 C   0  0  0  0  0  0  0  0  0  0  0  0
  -41.5165   60.0967   66.1247 C   0  0  0  0  0  0  0  0  0  0  0  0
  -42.5111   59.0219   66.0527 N   0  0  0  0  0  0  0  0  0  0  0  0
  -43.5952   58.9118   65.2402 C   0  0  0  0  0  0  0  0  0  0  0  0
  -42.2853   57.9766   66.9594 O   0  0  0  0  0  0  0  0  0  0  0  0
  -43.8577   59.7791   64.4073 O   0  0  0  0  0  0  0  0  0  0  0  0
  -42.9773   57.3046   66.8570 H   0  0  0  0  0  0  0  0  0  0  0  0
  -44.5029   57.6848   65.3765 C   0  0  0  0  0  0  0  0  0  0  0  0
  -45.7863   57.9300   66.1817 C   0  0  0  0  0  0  0  0  0  0  0  0
  -46.7238   58.8760   65.4071 C   0  0  0  0  0  0  0  0  0  0  0  0
  -48.2153   58.5188   65.5524 C   0  0  0  0  0  0  0  0  0  0  0  0
  -49.0700   59.6008   66.2384 C   0  0  0  0  0  0  0  0  0  0  0  0
  -50.4362   59.8108   65.5524 C   0  0  0  0  0  0  0  0  0  0  0  0
  -50.3549   60.0999   64.0354 C   0  0  0  0  0  0  0  0  0  0  0  0
  -51.1764   59.1251   63.1838 C   0  0  0  0  0  0  0  0  0  0  0  0
  -50.3974   57.9356   62.6136 C   0  0  0  0  0  0  0  0  0  0  0  0
  -50.9591   57.4996   61.2482 C   0  0  0  0  0  0  0  0  0  0  0  0
  -49.9062   56.8980   60.3050 C   0  0  0  0  0  0  0  0  0  0  0  0
  -48.7930   57.8502   59.8562 C   0  0  0  0  0  0  0  0  0  0  0  0
  -47.6733   57.1738   59.0264 C   0  0  0  0  0  0  0  0  0  0  0  0
  -48.0624   57.0611   57.5384 C   0  0  0  0  0  0  0  0  0  0  0  0
  -47.4321   58.0711   56.5719 C   0  0  0  0  0  0  0  0  0  0  0  0
 46 47  1  0  0  0
 46 48  1  0  0  0
 46 45  1  0  0  0
 47 49  2  0  0  0
 47 51  1  0  0  0
 19 20  2  0  0  0
 37 38  1  0  0  0
 37 39  1  0  0  0
 37 40  1  0  0  0
 37 41  1  0  0  0
 48 50  1  0  0  0
 38 29  1  0  0  0
 45 44  1  0  0  0
 25 27  1  0  0  0
 25 35  1  0  0  0
 25 28  1  0  0  0
 21 20  1  0  0  0
 21 22  1  0  0  0
 44 42  1  0  0  0
  2  1  1  0  0  0
  2  4  1  0  0  0
  2  5  1  0  0  0
 26 27  2  0  0  0
 42 43  2  0  0  0
 29 31  1  0  0  0
 29 36  1  0  0  0
  3  4  2  0  0  0
 43  1  1  0  0  0
  6  9  2  0  0  0
  6 10  1  0  0  0
  1 20  1  0  0  0
 30 36  2  0  0  0
  7  8  1  0  0  0
  7  9  1  0  0  0
 22 24  1  0  0  0
 22 23  1  0  0  0
 11 12  1  0  0  0
 11 18  1  0  0  0
 24 27  1  0  0  0
  4 10  1  0  0  0
 51 52  1  0  0  0
 52 53  1  0  0  0
 53 54  1  0  0  0
 54 55  1  0  0  0
 55 56  1  0  0  0
 56 57  1  0  0  0
 57 58  1  0  0  0
 58 59  1  0  0  0
 59 60  1  0  0  0
 60 61  1  0  0  0
 61 62  1  0  0  0
 62 63  1  0  0  0
 63 64  1  0  0  0
 64 65  1  0  0  0
 31 32  1  0  0  0
 32 33  1  0  0  0
 33 34  1  0  0  0
 34 35  1  0  0  0
 35 36  1  0  0  0
  8 10  1  0  0  0
  9 17  1  0  0  0
 12 13  2  0  0  0
 12 17  1  0  0  0
 13 14  1  0  0  0
 14 15  2  0  0  0
 15 16  1  0  0  0
 16 17  2  0  0  0
M  END
> <minimizedAffinity>
-8.93223

> <CNNscore>
0.2208225429

> <CNNaffinity>
7.4770293236

> <CNN_VS>
1.6510965824

> <CNNaffinity_variance>
1.0563137531

$$$$
/media/chris/experiments/cd1a-new-docking/inputs/ligands/1xz0_ligand.pdb


 65 67  0  0  0  0  0  0  0  0999 V2000
  -42.8473   58.6706   63.9931 C   0  0  0  0  0  0  0  0  0  0  0  0
  -41.5954   58.6983   64.7522 N   0  0  0  0  0  0  0  0  0  0  0  0
  -41.1821   60.9234   64.9782 O   0  0  0  0  0  0  0  0  0  0  0  0
  -40.8787   59.7541   65.1752 C   0  0  0  0  0  0  0  0  0  0  0  0
  -41.2253   57.8166   64.9865 H   0  0  0  0  0  0  0  0  0  0  0  0
  -38.6407   60.6474   65.7863 N   0  0  0  0  0  0  0  0  0  0  0  0
  -37.3644   58.9736   65.0369 O   0  0  0  0  0  0  0  0  0  0  0  0
  -38.6214   58.3539   65.3062 C   0  0  0  0  0  0  0  0  0  0  0  0
  -37.4866   60.3757   65.3483 C   0  0  0  0  0  0  0  0  0  0  0  0
  -39.5422   59.4812   65.8501 C   0  0  0  0  0  0  0  0  0  0  0  0
  -36.4328   61.9679   67.5281 O   0  0  0  0  0  0  0  0  0  0  0  0
  -35.8797   62.0884   66.3152 C   0  0  0  0  0  0  0  0  0  0  0  0
  -34.8008   62.9626   66.1297 C   0  0  0  0  0  0  0  0  0  0  0  0
  -34.2089   63.1140   64.8643 C   0  0  0  0  0  0  0  0  0  0  0  0
  -34.6829   62.3853   63.7721 C   0  0  0  0  0  0  0  0  0  0  0  0
  -35.7551   61.5071   63.9534 C   0  0  0  0  0  0  0  0  0  0  0  0
  -36.3559   61.3598   65.2184 C   0  0  0  0  0  0  0  0  0  0  0  0
  -36.0974   62.4657   68.2476 H   0  0  0  0  0  0  0  0  0  0  0  0
  -43.3809   56.7509   65.3219 O   0  0  0  0  0  0  0  0  0  0  0  0
  -43.7855   57.7496   64.7496 C   0  0  0  0  0  0  0  0  0  0  0  0
  -45.2280   58.0149   64.7468 O   0  0  0  0  0  0  0  0  0  0  0  0
  -45.9329   58.3375   65.9604 C   0  0  0  0  0  0  0  0  0  0  0  0
  -46.8702   57.2438   66.4573 C   0  0  0  0  0  0  0  0  0  0  0  0
  -46.6798   59.6456   65.7476 C   0  0  0  0  0  0  0  0  0  0  0  0
  -47.7449   60.1628   63.6042 N   0  0  0  0  0  0  0  0  0  0  0  0
  -45.5475   60.5727   63.9491 O   0  0  0  0  0  0  0  0  0  0  0  0
  -46.6138   60.1422   64.3245 C   0  0  0  0  0  0  0  0  0  0  0  0
  -47.7039   60.5477   62.6990 H   0  0  0  0  0  0  0  0  0  0  0  0
  -49.7849   58.2332   62.2008 N   0  0  0  0  0  0  0  0  0  0  0  0
  -49.5225   57.3489   64.2538 O   0  0  0  0  0  0  0  0  0  0  0  0
  -49.4970   59.2497   61.1782 C   0  0  0  0  0  0  0  0  0  0  0  0
  -50.3401   60.5166   61.4167 C   0  0  0  0  0  0  0  0  0  0  0  0
  -51.1288   60.5361   62.7157 C   0  0  0  0  0  0  0  0  0  0  0  0
  -50.2359   60.6115   63.9570 C   0  0  0  0  0  0  0  0  0  0  0  0
  -49.0392   59.6523   64.0703 C   0  0  0  0  0  0  0  0  0  0  0  0
  -49.4574   58.3108   63.5006 C   0  0  0  0  0  0  0  0  0  0  0  0
  -50.7085   56.8024   60.0505 Si  0  0  0  0  0  0  0  0  0  0  0  0
  -50.4334   57.1076   61.7903 O   0  0  0  0  0  0  0  0  0  0  0  0
  -51.3995   55.5725   59.8891 H   0  0  0  0  0  0  0  0  0  0  0  0
  -49.4594   56.7352   59.3784 H   0  0  0  0  0  0  0  0  0  0  0  0
  -51.4850   57.8572   59.5020 H   0  0  0  0  0  0  0  0  0  0  0  0
  -41.9669   57.1053   62.0777 C   0  0  0  0  0  0  0  0  0  0  0  0
  -42.7566   58.3569   62.4800 C   0  0  0  0  0  0  0  0  0  0  0  0
  -41.5017   57.0179   60.6143 C   0  0  0  0  0  0  0  0  0  0  0  0
  -41.0595   58.3270   59.9287 C   0  0  0  0  0  0  0  0  0  0  0  0
  -39.6131   58.4781   60.1155 N   0  0  0  0  0  0  0  0  0  0  0  0
  -38.9367   59.0087   61.1684 C   0  0  0  0  0  0  0  0  0  0  0  0
  -38.8482   57.9988   59.0428 O   0  0  0  0  0  0  0  0  0  0  0  0
  -39.5318   59.4401   62.1556 O   0  0  0  0  0  0  0  0  0  0  0  0
  -37.9062   58.1300   59.2332 H   0  0  0  0  0  0  0  0  0  0  0  0
  -37.4067   59.0714   61.1116 C   0  0  0  0  0  0  0  0  0  0  0  0
  -36.6956   58.1898   62.1474 C   0  0  0  0  0  0  0  0  0  0  0  0
  -35.2255   58.6274   62.2937 C   0  0  0  0  0  0  0  0  0  0  0  0
  -34.4522   57.8366   63.3660 C   0  0  0  0  0  0  0  0  0  0  0  0
  -33.4083   58.6609   64.1424 C   0  0  0  0  0  0  0  0  0  0  0  0
  -32.1034   58.8782   63.3478 C   0  0  0  0  0  0  0  0  0  0  0  0
  -32.3009   59.5092   61.9498 C   0  0  0  0  0  0  0  0  0  0  0  0
  -31.3466   60.6750   61.6664 C   0  0  0  0  0  0  0  0  0  0  0  0
  -31.0403   61.5779   62.8656 C   0  0  0  0  0  0  0  0  0  0  0  0
  -31.3381   63.0544   62.5469 C   0  0  0  0  0  0  0  0  0  0  0  0
  -32.0914   63.2664   61.2249 C   0  0  0  0  0  0  0  0  0  0  0  0
  -32.4948   64.7112   60.9131 C   0  0  0  0  0  0  0  0  0  0  0  0
  -33.4712   65.3351   61.9412 C   0  0  0  0  0  0  0  0  0  0  0  0
  -34.8103   65.7259   61.2836 C   0  0  0  0  0  0  0  0  0  0  0  0
  -35.9214   64.6692   61.2771 C   0  0  0  0  0  0  0  0  0  0  0  0
 46 47  1  0  0  0
 46 48  1  0  0  0
 46 45  1  0  0  0
 47 49  2  0  0  0
 47 51  1  0  0  0
 19 20  2  0  0  0
 37 38  1  0  0  0
 37 39  1  0  0  0
 37 40  1  0  0  0
 37 41  1  0  0  0
 48 50  1  0  0  0
 38 29  1  0  0  0
 45 44  1  0  0  0
 25 27  1  0  0  0
 25 35  1  0  0  0
 25 28  1  0  0  0
 21 20  1  0  0  0
 21 22  1  0  0  0
 44 42  1  0  0  0
  2  1  1  0  0  0
  2  4  1  0  0  0
  2  5  1  0  0  0
 26 27  2  0  0  0
 42 43  2  0  0  0
 29 31  1  0  0  0
 29 36  1  0  0  0
  3  4  2  0  0  0
 43  1  1  0  0  0
  6  9  2  0  0  0
  6 10  1  0  0  0
  1 20  1  0  0  0
 30 36  2  0  0  0
  7  8  1  0  0  0
  7  9  1  0  0  0
 22 24  1  0  0  0
 22 23  1  0  0  0
 11 12  1  0  0  0
 11 18  1  0  0  0
 24 27  1  0  0  0
  4 10  1  0  0  0
 51 52  1  0  0  0
 52 53  1  0  0  0
 53 54  1  0  0  0
 54 55  1  0  0  0
 55 56  1  0  0  0
 56 57  1  0  0  0
 57 58  1  0  0  0
 58 59  1  0  0  0
 59 60  1  0  0  0
 60 61  1  0  0  0
 61 62  1  0  0  0
 62 63  1  0  0  0
 63 64  1  0  0  0
 64 65  1  0  0  0
 31 32  1  0  0  0
 32 33  1  0  0  0
 33 34  1  0  0  0
 34 35  1  0  0  0
 35 36  1  0  0  0
  8 10  1  0  0  0
  9 17  1  0  0  0
 12 13  2  0  0  0
 12 17  1  0  0  0
 13 14  1  0  0  0
 14 15  2  0  0  0
 15 16  1  0  0  0
 16 17  2  0  0  0
M  END
> <minimizedAffinity>
-8.94360

> <CNNscore>
0.2004351318

> <CNNaffinity>
7.5965957642

> <CNN_VS>
1.5226247311

> <CNNaffinity_variance>
1.1719901562

$$$$
/media/chris/experiments/cd1a-new-docking/inputs/ligands/1xz0_ligand.pdb


 65 67  0  0  0  0  0  0  0  0999 V2000
  -43.2570   59.6333   64.9663 C   0  0  0  0  0  0  0  0  0  0  0  0
  -44.5741   59.3143   65.5210 N   0  0  0  0  0  0  0  0  0  0  0  0
  -44.2040   57.3637   66.6308 O   0  0  0  0  0  0  0  0  0  0  0  0
  -44.9504   58.2656   66.2735 C   0  0  0  0  0  0  0  0  0  0  0  0
  -45.2867   59.9609   65.3130 H   0  0  0  0  0  0  0  0  0  0  0  0
  -47.2737   58.0885   65.4069 N   0  0  0  0  0  0  0  0  0  0  0  0
  -48.2502   59.6579   66.6621 O   0  0  0  0  0  0  0  0  0  0  0  0
  -47.1312   59.2398   67.4430 C   0  0  0  0  0  0  0  0  0  0  0  0
  -48.2375   58.9057   65.4325 C   0  0  0  0  0  0  0  0  0  0  0  0
  -46.4272   58.1295   66.6147 C   0  0  0  0  0  0  0  0  0  0  0  0
  -49.3029   61.4334   64.4983 O   0  0  0  0  0  0  0  0  0  0  0  0
  -49.7440   60.3008   63.9377 C   0  0  0  0  0  0  0  0  0  0  0  0
  -50.6919   60.3611   62.9079 C   0  0  0  0  0  0  0  0  0  0  0  0
  -51.1777   59.1862   62.3096 C   0  0  0  0  0  0  0  0  0  0  0  0
  -50.7136   57.9379   62.7277 C   0  0  0  0  0  0  0  0  0  0  0  0
  -49.7632   57.8726   63.7505 C   0  0  0  0  0  0  0  0  0  0  0  0
  -49.2810   59.0479   64.3579 C   0  0  0  0  0  0  0  0  0  0  0  0
  -49.6270   62.2606   64.2008 H   0  0  0  0  0  0  0  0  0  0  0  0
  -43.0094   59.6322   62.5843 O   0  0  0  0  0  0  0  0  0  0  0  0
  -43.2000   58.9808   63.5981 C   0  0  0  0  0  0  0  0  0  0  0  0
  -43.4448   57.5408   63.4656 O   0  0  0  0  0  0  0  0  0  0  0  0
  -42.3718   56.5858   63.5673 C   0  0  0  0  0  0  0  0  0  0  0  0
  -42.1809   55.9946   64.9586 C   0  0  0  0  0  0  0  0  0  0  0  0
  -41.0940   57.2458   63.0712 C   0  0  0  0  0  0  0  0  0  0  0  0
  -39.1230   56.8214   61.6817 N   0  0  0  0  0  0  0  0  0  0  0  0
  -40.5312   55.1483   62.2590 O   0  0  0  0  0  0  0  0  0  0  0  0
  -40.2222   56.3179   62.2619 C   0  0  0  0  0  0  0  0  0  0  0  0
  -38.5274   56.1957   61.2096 H   0  0  0  0  0  0  0  0  0  0  0  0
  -40.3868   59.2739   60.1841 N   0  0  0  0  0  0  0  0  0  0  0  0
  -40.2382   59.9592   62.3228 O   0  0  0  0  0  0  0  0  0  0  0  0
  -40.1947   58.2722   59.1250 C   0  0  0  0  0  0  0  0  0  0  0  0
  -38.7388   58.2833   58.6221 C   0  0  0  0  0  0  0  0  0  0  0  0
  -37.7841   59.1582   59.4176 C   0  0  0  0  0  0  0  0  0  0  0  0
  -37.5381   58.6393   60.8367 C   0  0  0  0  0  0  0  0  0  0  0  0
  -38.7455   58.2393   61.7009 C   0  0  0  0  0  0  0  0  0  0  0  0
  -39.8680   59.2194   61.4213 C   0  0  0  0  0  0  0  0  0  0  0  0
  -41.7763   61.4170   61.1842 Si  0  0  0  0  0  0  0  0  0  0  0  0
  -41.1691   60.3487   59.8859 O   0  0  0  0  0  0  0  0  0  0  0  0
  -42.5615   62.4544   60.6152 H   0  0  0  0  0  0  0  0  0  0  0  0
  -40.6778   61.9839   61.8832 H   0  0  0  0  0  0  0  0  0  0  0  0
  -42.5718   60.6614   62.0857 H   0  0  0  0  0  0  0  0  0  0  0  0
  -40.7747   60.1961   65.6109 C   0  0  0  0  0  0  0  0  0  0  0  0
  -42.0206   59.3339   65.8483 C   0  0  0  0  0  0  0  0  0  0  0  0
  -39.4393   59.6488   66.1427 C   0  0  0  0  0  0  0  0  0  0  0  0
  -38.2858   59.4817   65.1324 C   0  0  0  0  0  0  0  0  0  0  0  0
  -37.7103   60.8042   64.8687 N   0  0  0  0  0  0  0  0  0  0  0  0
  -36.9513   61.5852   65.6821 C   0  0  0  0  0  0  0  0  0  0  0  0
  -37.9998   61.3059   63.5919 O   0  0  0  0  0  0  0  0  0  0  0  0
  -36.6410   61.2136   66.8137 O   0  0  0  0  0  0  0  0  0  0  0  0
  -37.5901   62.1788   63.4870 H   0  0  0  0  0  0  0  0  0  0  0  0
  -36.4846   62.9530   65.1730 C   0  0  0  0  0  0  0  0  0  0  0  0
  -35.6656   63.7631   66.1873 C   0  0  0  0  0  0  0  0  0  0  0  0
  -34.3215   64.1861   65.5640 C   0  0  0  0  0  0  0  0  0  0  0  0
  -33.1169   63.9814   66.5021 C   0  0  0  0  0  0  0  0  0  0  0  0
  -31.7430   64.1714   65.8327 C   0  0  0  0  0  0  0  0  0  0  0  0
  -31.8491   64.5224   64.3338 C   0  0  0  0  0  0  0  0  0  0  0  0
  -31.2154   63.4794   63.3839 C   0  0  0  0  0  0  0  0  0  0  0  0
  -32.2448   62.5725   62.6998 C   0  0  0  0  0  0  0  0  0  0  0  0
  -32.3963   61.1756   63.3104 C   0  0  0  0  0  0  0  0  0  0  0  0
  -33.6752   61.0708   64.1610 C   0  0  0  0  0  0  0  0  0  0  0  0
  -33.5589   60.0962   65.3429 C   0  0  0  0  0  0  0  0  0  0  0  0
  -34.0399   58.6662   65.0762 C   0  0  0  0  0  0  0  0  0  0  0  0
  -35.0389   58.5401   63.8991 C   0  0  0  0  0  0  0  0  0  0  0  0
  -34.4211   57.7712   62.7136 C   0  0  0  0  0  0  0  0  0  0  0  0
  -32.9166   57.4813   62.7754 C   0  0  0  0  0  0  0  0  0  0  0  0
 46 47  1  0  0  0
 46 48  1  0  0  0
 46 45  1  0  0  0
 47 49  2  0  0  0
 47 51  1  0  0  0
 19 20  2  0  0  0
 37 38  1  0  0  0
 37 39  1  0  0  0
 37 40  1  0  0  0
 37 41  1  0  0  0
 48 50  1  0  0  0
 38 29  1  0  0  0
 45 44  1  0  0  0
 25 27  1  0  0  0
 25 35  1  0  0  0
 25 28  1  0  0  0
 21 20  1  0  0  0
 21 22  1  0  0  0
 44 42  1  0  0  0
  2  1  1  0  0  0
  2  4  1  0  0  0
  2  5  1  0  0  0
 26 27  2  0  0  0
 42 43  2  0  0  0
 29 31  1  0  0  0
 29 36  1  0  0  0
  3  4  2  0  0  0
 43  1  1  0  0  0
  6  9  2  0  0  0
  6 10  1  0  0  0
  1 20  1  0  0  0
 30 36  2  0  0  0
  7  8  1  0  0  0
  7  9  1  0  0  0
 22 24  1  0  0  0
 22 23  1  0  0  0
 11 12  1  0  0  0
 11 18  1  0  0  0
 24 27  1  0  0  0
  4 10  1  0  0  0
 51 52  1  0  0  0
 52 53  1  0  0  0
 53 54  1  0  0  0
 54 55  1  0  0  0
 55 56  1  0  0  0
 56 57  1  0  0  0
 57 58  1  0  0  0
 58 59  1  0  0  0
 59 60  1  0  0  0
 60 61  1  0  0  0
 61 62  1  0  0  0
 62 63  1  0  0  0
 63 64  1  0  0  0
 64 65  1  0  0  0
 31 32  1  0  0  0
 32 33  1  0  0  0
 33 34  1  0  0  0
 34 35  1  0  0  0
 35 36  1  0  0  0
  8 10  1  0  0  0
  9 17  1  0  0  0
 12 13  2  0  0  0
 12 17  1  0  0  0
 13 14  1  0  0  0
 14 15  2  0  0  0
 15 16  1  0  0  0
 16 17  2  0  0  0
M  END
> <minimizedAffinity>
-8.60858

> <CNNscore>
0.1978508085

> <CNNaffinity>
7.5744843483

> <CNN_VS>
1.4986178875

> <CNNaffinity_variance>
1.0911567211

$$$$
/media/chris/experiments/cd1a-new-docking/inputs/ligands/1xz0_ligand.pdb


 65 67  0  0  0  0  0  0  0  0999 V2000
  -39.1402   60.3167   64.8052 C   0  0  0  0  0  0  0  0  0  0  0  0
  -38.0479   61.2395   65.1206 N   0  0  0  0  0  0  0  0  0  0  0  0
  -37.2437   60.4285   67.0875 O   0  0  0  0  0  0  0  0  0  0  0  0
  -37.2144   61.2442   66.1754 C   0  0  0  0  0  0  0  0  0  0  0  0
  -37.9031   61.9603   64.4659 H   0  0  0  0  0  0  0  0  0  0  0  0
  -36.3032   63.3151   65.1452 N   0  0  0  0  0  0  0  0  0  0  0  0
  -34.1190   62.8836   65.3333 O   0  0  0  0  0  0  0  0  0  0  0  0
  -34.7121   62.1207   66.3834 C   0  0  0  0  0  0  0  0  0  0  0  0
  -35.1769   63.5630   64.6280 C   0  0  0  0  0  0  0  0  0  0  0  0
  -36.2378   62.4043   66.3041 C   0  0  0  0  0  0  0  0  0  0  0  0
  -36.6211   63.4531   62.1182 O   0  0  0  0  0  0  0  0  0  0  0  0
  -35.6865   64.3969   62.2838 C   0  0  0  0  0  0  0  0  0  0  0  0
  -35.4391   65.3149   61.2549 C   0  0  0  0  0  0  0  0  0  0  0  0
  -34.4568   66.3090   61.4006 C   0  0  0  0  0  0  0  0  0  0  0  0
  -33.7175   66.4025   62.5809 C   0  0  0  0  0  0  0  0  0  0  0  0
  -33.9649   65.4929   63.6129 C   0  0  0  0  0  0  0  0  0  0  0  0
  -34.9426   64.4901   63.4664 C   0  0  0  0  0  0  0  0  0  0  0  0
  -37.1066   63.4099   61.3180 H   0  0  0  0  0  0  0  0  0  0  0  0
  -38.8354   61.2882   62.6376 O   0  0  0  0  0  0  0  0  0  0  0  0
  -39.3695   60.4211   63.3094 C   0  0  0  0  0  0  0  0  0  0  0  0
  -40.3064   59.5061   62.6492 O   0  0  0  0  0  0  0  0  0  0  0  0
  -40.0401   58.0934   62.5645 C   0  0  0  0  0  0  0  0  0  0  0  0
  -41.2027   57.2039   62.9872 C   0  0  0  0  0  0  0  0  0  0  0  0
  -38.7925   57.7910   63.3809 C   0  0  0  0  0  0  0  0  0  0  0  0
  -36.4268   57.5759   62.7866 N   0  0  0  0  0  0  0  0  0  0  0  0
  -38.0013   56.2750   61.8150 O   0  0  0  0  0  0  0  0  0  0  0  0
  -37.6856   57.1698   62.5654 C   0  0  0  0  0  0  0  0  0  0  0  0
  -35.7059   57.1197   62.2954 H   0  0  0  0  0  0  0  0  0  0  0  0
  -34.0689   59.6424   62.6291 N   0  0  0  0  0  0  0  0  0  0  0  0
  -35.8791   60.9123   63.0485 O   0  0  0  0  0  0  0  0  0  0  0  0
  -33.4193   58.3444   62.3940 C   0  0  0  0  0  0  0  0  0  0  0  0
  -33.1467   57.6221   63.7270 C   0  0  0  0  0  0  0  0  0  0  0  0
  -33.7488   58.2811   64.9570 C   0  0  0  0  0  0  0  0  0  0  0  0
  -35.2789   58.2334   64.9731 C   0  0  0  0  0  0  0  0  0  0  0  0
  -36.0483   58.6523   63.7092 C   0  0  0  0  0  0  0  0  0  0  0  0
  -35.3192   59.8250   63.0831 C   0  0  0  0  0  0  0  0  0  0  0  0
  -34.1371   62.2303   61.7225 Si  0  0  0  0  0  0  0  0  0  0  0  0
  -33.3397   60.7594   62.3521 O   0  0  0  0  0  0  0  0  0  0  0  0
  -33.1649   63.2448   61.5177 H   0  0  0  0  0  0  0  0  0  0  0  0
  -35.1034   62.6829   62.6595 H   0  0  0  0  0  0  0  0  0  0  0  0
  -34.7764   61.9315   60.4903 H   0  0  0  0  0  0  0  0  0  0  0  0
  -41.1613   59.1284   65.9874 C   0  0  0  0  0  0  0  0  0  0  0  0
  -40.4375   60.4355   65.6414 C   0  0  0  0  0  0  0  0  0  0  0  0
  -42.6330   59.2425   66.4193 C   0  0  0  0  0  0  0  0  0  0  0  0
  -43.5393   58.0156   66.1894 C   0  0  0  0  0  0  0  0  0  0  0  0
  -44.8909   58.4934   65.8819 N   0  0  0  0  0  0  0  0  0  0  0  0
  -46.0811   58.0835   66.3948 C   0  0  0  0  0  0  0  0  0  0  0  0
  -44.9281   59.5154   64.9229 O   0  0  0  0  0  0  0  0  0  0  0  0
  -46.1357   57.2005   67.2504 O   0  0  0  0  0  0  0  0  0  0  0  0
  -45.8482   59.7814   64.7693 H   0  0  0  0  0  0  0  0  0  0  0  0
  -47.3716   58.7351   65.8868 C   0  0  0  0  0  0  0  0  0  0  0  0
  -48.3996   57.7487   65.3159 C   0  0  0  0  0  0  0  0  0  0  0  0
  -49.8233   58.3141   65.4817 C   0  0  0  0  0  0  0  0  0  0  0  0
  -49.8619   59.8455   65.6440 C   0  0  0  0  0  0  0  0  0  0  0  0
  -50.3266   60.6117   64.3914 C   0  0  0  0  0  0  0  0  0  0  0  0
  -49.3117   60.5374   63.2315 C   0  0  0  0  0  0  0  0  0  0  0  0
  -49.8769   59.9411   61.9213 C   0  0  0  0  0  0  0  0  0  0  0  0
  -51.1772   59.1540   62.1206 C   0  0  0  0  0  0  0  0  0  0  0  0
  -51.1507   57.7064   61.6200 C   0  0  0  0  0  0  0  0  0  0  0  0
  -49.7129   57.1592   61.5613 C   0  0  0  0  0  0  0  0  0  0  0  0
  -49.4734   56.1589   60.4203 C   0  0  0  0  0  0  0  0  0  0  0  0
  -48.4382   56.5800   59.3722 C   0  0  0  0  0  0  0  0  0  0  0  0
  -48.6878   57.9802   58.7583 C   0  0  0  0  0  0  0  0  0  0  0  0
  -47.6560   58.3077   57.6599 C   0  0  0  0  0  0  0  0  0  0  0  0
  -47.7216   57.4818   56.3696 C   0  0  0  0  0  0  0  0  0  0  0  0
 46 47  1  0  0  0
 46 48  1  0  0  0
 46 45  1  0  0  0
 47 49  2  0  0  0
 47 51  1  0  0  0
 19 20  2  0  0  0
 37 38  1  0  0  0
 37 39  1  0  0  0
 37 40  1  0  0  0
 37 41  1  0  0  0
 48 50  1  0  0  0
 38 29  1  0  0  0
 45 44  1  0  0  0
 25 27  1  0  0  0
 25 35  1  0  0  0
 25 28  1  0  0  0
 21 20  1  0  0  0
 21 22  1  0  0  0
 44 42  1  0  0  0
  2  1  1  0  0  0
  2  4  1  0  0  0
  2  5  1  0  0  0
 26 27  2  0  0  0
 42 43  2  0  0  0
 29 31  1  0  0  0
 29 36  1  0  0  0
  3  4  2  0  0  0
 43  1  1  0  0  0
  6  9  2  0  0  0
  6 10  1  0  0  0
  1 20  1  0  0  0
 30 36  2  0  0  0
  7  8  1  0  0  0
  7  9  1  0  0  0
 22 24  1  0  0  0
 22 23  1  0  0  0
 11 12  1  0  0  0
 11 18  1  0  0  0
 24 27  1  0  0  0
  4 10  1  0  0  0
 51 52  1  0  0  0
 52 53  1  0  0  0
 53 54  1  0  0  0
 54 55  1  0  0  0
 55 56  1  0  0  0
 56 57  1  0  0  0
 57 58  1  0  0  0
 58 59  1  0  0  0
 59 60  1  0  0  0
 60 61  1  0  0  0
 61 62  1  0  0  0
 62 63  1  0  0  0
 63 64  1  0  0  0
 64 65  1  0  0  0
 31 32  1  0  0  0
 32 33  1  0  0  0
 33 34  1  0  0  0
 34 35  1  0  0  0
 35 36  1  0  0  0
  8 10  1  0  0  0
  9 17  1  0  0  0
 12 13  2  0  0  0
 12 17  1  0  0  0
 13 14  1  0  0  0
 14 15  2  0  0  0
 15 16  1  0  0  0
 16 17  2  0  0  0
M  END
> <minimizedAffinity>
-8.97327

> <CNNscore>
0.1494652331

> <CNNaffinity>
6.9599866867

> <CNN_VS>
1.0402760506

> <CNNaffinity_variance>
0.4919011593

$$$$
/media/chris/experiments/cd1a-new-docking/inputs/ligands/1xz0_ligand.pdb


 65 67  0  0  0  0  0  0  0  0999 V2000
  -42.3393   59.0902   62.3464 C   0  0  0  0  0  0  0  0  0  0  0  0
  -41.0442   58.8042   61.7259 N   0  0  0  0  0  0  0  0  0  0  0  0
  -41.6245   57.8366   59.7511 O   0  0  0  0  0  0  0  0  0  0  0  0
  -40.7757   58.2306   60.5400 C   0  0  0  0  0  0  0  0  0  0  0  0
  -40.2565   59.0702   62.2532 H   0  0  0  0  0  0  0  0  0  0  0  0
  -38.5349   57.5701   61.3900 N   0  0  0  0  0  0  0  0  0  0  0  0
  -37.3034   59.1875   60.4628 O   0  0  0  0  0  0  0  0  0  0  0  0
  -38.4372   59.0822   59.6025 C   0  0  0  0  0  0  0  0  0  0  0  0
  -37.4679   58.2329   61.5304 C   0  0  0  0  0  0  0  0  0  0  0  0
  -39.3190   57.9508   60.1996 C   0  0  0  0  0  0  0  0  0  0  0  0
  -38.0948   57.2335   64.1771 O   0  0  0  0  0  0  0  0  0  0  0  0
  -36.8219   57.5237   63.8820 C   0  0  0  0  0  0  0  0  0  0  0  0
  -35.8246   57.3245   64.8456 C   0  0  0  0  0  0  0  0  0  0  0  0
  -34.4825   57.6303   64.5635 C   0  0  0  0  0  0  0  0  0  0  0  0
  -34.1210   58.1295   63.3111 C   0  0  0  0  0  0  0  0  0  0  0  0
  -35.1113   58.3241   62.3442 C   0  0  0  0  0  0  0  0  0  0  0  0
  -36.4584   58.0268   62.6268 C   0  0  0  0  0  0  0  0  0  0  0  0
  -38.3146   56.8979   65.0239 H   0  0  0  0  0  0  0  0  0  0  0  0
  -43.0588   61.3448   62.7131 O   0  0  0  0  0  0  0  0  0  0  0  0
  -42.2295   60.4802   62.9436 C   0  0  0  0  0  0  0  0  0  0  0  0
  -41.0676   60.8309   63.7671 O   0  0  0  0  0  0  0  0  0  0  0  0
  -40.4603   59.8719   64.6532 C   0  0  0  0  0  0  0  0  0  0  0  0
  -41.2033   59.6659   65.9675 C   0  0  0  0  0  0  0  0  0  0  0  0
  -39.0184   60.2908   64.8976 C   0  0  0  0  0  0  0  0  0  0  0  0
  -37.2521   61.6490   63.8820 N   0  0  0  0  0  0  0  0  0  0  0  0
  -38.8864   60.7217   62.6231 O   0  0  0  0  0  0  0  0  0  0  0  0
  -38.3793   60.9461   63.6983 C   0  0  0  0  0  0  0  0  0  0  0  0
  -36.8085   62.0188   63.0848 H   0  0  0  0  0  0  0  0  0  0  0  0
  -34.9929   63.6736   64.6893 N   0  0  0  0  0  0  0  0  0  0  0  0
  -36.6160   64.0354   66.2059 O   0  0  0  0  0  0  0  0  0  0  0  0
  -34.4424   62.9766   63.5175 C   0  0  0  0  0  0  0  0  0  0  0  0
  -33.8399   61.6186   63.9246 C   0  0  0  0  0  0  0  0  0  0  0  0
  -34.0926   61.2021   65.3642 C   0  0  0  0  0  0  0  0  0  0  0  0
  -35.5659   60.9002   65.6502 C   0  0  0  0  0  0  0  0  0  0  0  0
  -36.6335   61.9058   65.1875 C   0  0  0  0  0  0  0  0  0  0  0  0
  -36.0792   63.3030   65.3859 C   0  0  0  0  0  0  0  0  0  0  0  0
  -32.8824   64.6910   66.1157 Si  0  0  0  0  0  0  0  0  0  0  0  0
  -34.3482   64.8019   65.0985 O   0  0  0  0  0  0  0  0  0  0  0  0
  -32.4056   65.9973   66.4030 H   0  0  0  0  0  0  0  0  0  0  0  0
  -31.8794   63.9627   65.4228 H   0  0  0  0  0  0  0  0  0  0  0  0
  -33.1978   64.0246   67.3294 H   0  0  0  0  0  0  0  0  0  0  0  0
  -44.1552   58.4348   64.1260 C   0  0  0  0  0  0  0  0  0  0  0  0
  -42.9076   58.0366   63.3278 C   0  0  0  0  0  0  0  0  0  0  0  0
  -44.4677   57.6081   65.3848 C   0  0  0  0  0  0  0  0  0  0  0  0
  -45.5221   58.1691   66.3609 C   0  0  0  0  0  0  0  0  0  0  0  0
  -46.8506   57.7866   65.8724 N   0  0  0  0  0  0  0  0  0  0  0  0
  -47.7780   58.5455   65.2310 C   0  0  0  0  0  0  0  0  0  0  0  0
  -47.1811   56.4458   66.1146 O   0  0  0  0  0  0  0  0  0  0  0  0
  -47.5620   59.7284   64.9684 O   0  0  0  0  0  0  0  0  0  0  0  0
  -48.0681   56.2635   65.7672 H   0  0  0  0  0  0  0  0  0  0  0  0
  -49.1150   57.9082   64.8380 C   0  0  0  0  0  0  0  0  0  0  0  0
  -50.3107   58.3667   65.6840 C   0  0  0  0  0  0  0  0  0  0  0  0
  -51.1339   59.4152   64.9113 C   0  0  0  0  0  0  0  0  0  0  0  0
  -51.1649   59.1737   63.3902 C   0  0  0  0  0  0  0  0  0  0  0  0
  -50.9286   60.4332   62.5359 C   0  0  0  0  0  0  0  0  0  0  0  0
  -49.5205   60.4758   61.9062 C   0  0  0  0  0  0  0  0  0  0  0  0
  -49.5095   60.5033   60.3600 C   0  0  0  0  0  0  0  0  0  0  0  0
  -49.3638   59.1151   59.7262 C   0  0  0  0  0  0  0  0  0  0  0  0
  -48.7603   58.0395   60.6349 C   0  0  0  0  0  0  0  0  0  0  0  0
  -49.3618   56.6534   60.3399 C   0  0  0  0  0  0  0  0  0  0  0  0
  -48.3854   55.6834   59.6572 C   0  0  0  0  0  0  0  0  0  0  0  0
  -47.2708   56.3329   58.8306 C   0  0  0  0  0  0  0  0  0  0  0  0
  -47.4203   56.1428   57.3005 C   0  0  0  0  0  0  0  0  0  0  0  0
  -47.9955   57.4057   56.6278 C   0  0  0  0  0  0  0  0  0  0  0  0
  -47.1151   58.6613   56.6280 C   0  0  0  0  0  0  0  0  0  0  0  0
 46 47  1  0  0  0
 46 48  1  0  0  0
 46 45  1  0  0  0
 47 49  2  0  0  0
 47 51  1  0  0  0
 19 20  2  0  0  0
 37 38  1  0  0  0
 37 39  1  0  0  0
 37 40  1  0  0  0
 37 41  1  0  0  0
 48 50  1  0  0  0
 38 29  1  0  0  0
 45 44  1  0  0  0
 25 27  1  0  0  0
 25 35  1  0  0  0
 25 28  1  0  0  0
 21 20  1  0  0  0
 21 22  1  0  0  0
 44 42  1  0  0  0
  2  1  1  0  0  0
  2  4  1  0  0  0
  2  5  1  0  0  0
 26 27  2  0  0  0
 42 43  2  0  0  0
 29 31  1  0  0  0
 29 36  1  0  0  0
  3  4  2  0  0  0
 43  1  1  0  0  0
  6  9  2  0  0  0
  6 10  1  0  0  0
  1 20  1  0  0  0
 30 36  2  0  0  0
  7  8  1  0  0  0
  7  9  1  0  0  0
 22 24  1  0  0  0
 22 23  1  0  0  0
 11 12  1  0  0  0
 11 18  1  0  0  0
 24 27  1  0  0  0
  4 10  1  0  0  0
 51 52  1  0  0  0
 52 53  1  0  0  0
 53 54  1  0  0  0
 54 55  1  0  0  0
 55 56  1  0  0  0
 56 57  1  0  0  0
 57 58  1  0  0  0
 58 59  1  0  0  0
 59 60  1  0  0  0
 60 61  1  0  0  0
 61 62  1  0  0  0
 62 63  1  0  0  0
 63 64  1  0  0  0
 64 65  1  0  0  0
 31 32  1  0  0  0
 32 33  1  0  0  0
 33 34  1  0  0  0
 34 35  1  0  0  0
 35 36  1  0  0  0
  8 10  1  0  0  0
  9 17  1  0  0  0
 12 13  2  0  0  0
 12 17  1  0  0  0
 13 14  1  0  0  0
 14 15  2  0  0  0
 15 16  1  0  0  0
 16 17  2  0  0  0
M  END
> <minimizedAffinity>
-10.35494

> <CNNscore>
0.1493433118

> <CNNaffinity>
7.4868636131

> <CNN_VS>
1.1181130409

> <CNNaffinity_variance>
0.9509631991

$$$$
/media/chris/experiments/cd1a-new-docking/inputs/ligands/1xz0_ligand.pdb


 65 67  0  0  0  0  0  0  0  0999 V2000
  -41.8124   59.3000   63.6166 C   0  0  0  0  0  0  0  0  0  0  0  0
  -40.6177   59.1992   64.4573 N   0  0  0  0  0  0  0  0  0  0  0  0
  -40.8834   60.9095   65.9328 O   0  0  0  0  0  0  0  0  0  0  0  0
  -40.2435   59.9598   65.5008 C   0  0  0  0  0  0  0  0  0  0  0  0
  -39.9994   58.4692   64.2248 H   0  0  0  0  0  0  0  0  0  0  0  0
  -38.0236   60.8955   66.1144 N   0  0  0  0  0  0  0  0  0  0  0  0
  -36.7082   59.3266   65.2197 O   0  0  0  0  0  0  0  0  0  0  0  0
  -37.9336   58.6421   65.4778 C   0  0  0  0  0  0  0  0  0  0  0  0
  -36.8731   60.6988   65.6295 C   0  0  0  0  0  0  0  0  0  0  0  0
  -38.8795   59.6937   66.1210 C   0  0  0  0  0  0  0  0  0  0  0  0
  -36.1279   62.4970   67.7761 O   0  0  0  0  0  0  0  0  0  0  0  0
  -35.4587   62.5618   66.6188 C   0  0  0  0  0  0  0  0  0  0  0  0
  -34.4095   63.4792   66.4758 C   0  0  0  0  0  0  0  0  0  0  0  0
  -33.6978   63.5732   65.2679 C   0  0  0  0  0  0  0  0  0  0  0  0
  -34.0208   62.7440   64.1924 C   0  0  0  0  0  0  0  0  0  0  0  0
  -35.0627   61.8228   64.3322 C   0  0  0  0  0  0  0  0  0  0  0  0
  -35.7834   61.7323   65.5385 C   0  0  0  0  0  0  0  0  0  0  0  0
  -35.8930   63.0622   68.4856 H   0  0  0  0  0  0  0  0  0  0  0  0
  -41.8611   56.9492   63.1621 O   0  0  0  0  0  0  0  0  0  0  0  0
  -42.4466   57.9222   63.6081 C   0  0  0  0  0  0  0  0  0  0  0  0
  -43.8236   57.7498   64.0828 O   0  0  0  0  0  0  0  0  0  0  0  0
  -44.1373   57.7505   65.4883 C   0  0  0  0  0  0  0  0  0  0  0  0
  -43.0105   57.2584   66.3882 C   0  0  0  0  0  0  0  0  0  0  0  0
  -45.4035   56.9335   65.6973 C   0  0  0  0  0  0  0  0  0  0  0  0
  -47.4306   58.1463   66.3423 N   0  0  0  0  0  0  0  0  0  0  0  0
  -46.0279   57.2976   67.9004 O   0  0  0  0  0  0  0  0  0  0  0  0
  -46.3186   57.5149   66.7464 C   0  0  0  0  0  0  0  0  0  0  0  0
  -48.0527   58.4659   67.0350 H   0  0  0  0  0  0  0  0  0  0  0  0
  -48.9612   60.5560   65.0363 N   0  0  0  0  0  0  0  0  0  0  0  0
  -47.1160   60.3305   63.7674 O   0  0  0  0  0  0  0  0  0  0  0  0
  -49.8220   60.1556   66.1591 C   0  0  0  0  0  0  0  0  0  0  0  0
  -50.6978   58.9494   65.7711 C   0  0  0  0  0  0  0  0  0  0  0  0
  -50.3761   58.3200   64.4257 C   0  0  0  0  0  0  0  0  0  0  0  0
  -49.0074   57.6348   64.3973 C   0  0  0  0  0  0  0  0  0  0  0  0
  -47.7853   58.3942   64.9402 C   0  0  0  0  0  0  0  0  0  0  0  0
  -47.9269   59.8522   64.5487 C   0  0  0  0  0  0  0  0  0  0  0  0
  -50.9003   62.1660   63.9540 Si  0  0  0  0  0  0  0  0  0  0  0  0
  -49.2316   61.7528   64.4443 O   0  0  0  0  0  0  0  0  0  0  0  0
  -50.9145   63.4581   63.3653 H   0  0  0  0  0  0  0  0  0  0  0  0
  -51.7451   62.1565   65.0953 H   0  0  0  0  0  0  0  0  0  0  0  0
  -51.3669   61.2115   63.0119 H   0  0  0  0  0  0  0  0  0  0  0  0
  -41.4564   58.9314   61.0414 C   0  0  0  0  0  0  0  0  0  0  0  0
  -41.6412   59.9127   62.2054 C   0  0  0  0  0  0  0  0  0  0  0  0
  -40.8616   59.4992   59.7417 C   0  0  0  0  0  0  0  0  0  0  0  0
  -39.5194   60.2527   59.8429 C   0  0  0  0  0  0  0  0  0  0  0  0
  -38.5120   59.3284   60.3725 N   0  0  0  0  0  0  0  0  0  0  0  0
  -37.9263   59.3115   61.5990 C   0  0  0  0  0  0  0  0  0  0  0  0
  -38.1189   58.3348   59.4648 O   0  0  0  0  0  0  0  0  0  0  0  0
  -38.2243   60.1405   62.4587 O   0  0  0  0  0  0  0  0  0  0  0  0
  -37.4546   57.7625   59.8794 H   0  0  0  0  0  0  0  0  0  0  0  0
  -36.8733   58.2408   61.9037 C   0  0  0  0  0  0  0  0  0  0  0  0
  -35.5239   58.7943   62.3817 C   0  0  0  0  0  0  0  0  0  0  0  0
  -34.7409   57.7011   63.1340 C   0  0  0  0  0  0  0  0  0  0  0  0
  -33.2150   57.7980   62.9463 C   0  0  0  0  0  0  0  0  0  0  0  0
  -32.5807   59.0861   63.5034 C   0  0  0  0  0  0  0  0  0  0  0  0
  -31.3418   59.5398   62.7032 C   0  0  0  0  0  0  0  0  0  0  0  0
  -31.4805   60.9295   62.0389 C   0  0  0  0  0  0  0  0  0  0  0  0
  -30.9311   62.0739   62.8983 C   0  0  0  0  0  0  0  0  0  0  0  0
  -30.9943   63.4639   62.2573 C   0  0  0  0  0  0  0  0  0  0  0  0
  -31.9919   63.4964   61.0851 C   0  0  0  0  0  0  0  0  0  0  0  0
  -32.4910   64.9055   60.7311 C   0  0  0  0  0  0  0  0  0  0  0  0
  -32.4765   65.9239   61.8757 C   0  0  0  0  0  0  0  0  0  0  0  0
  -33.8255   66.0577   62.6253 C   0  0  0  0  0  0  0  0  0  0  0  0
  -35.0214   65.9799   61.6546 C   0  0  0  0  0  0  0  0  0  0  0  0
  -35.9675   64.7824   61.8044 C   0  0  0  0  0  0  0  0  0  0  0  0
 46 47  1  0  0  0
 46 48  1  0  0  0
 46 45  1  0  0  0
 47 49  2  0  0  0
 47 51  1  0  0  0
 19 20  2  0  0  0
 37 38  1  0  0  0
 37 39  1  0  0  0
 37 40  1  0  0  0
 37 41  1  0  0  0
 48 50  1  0  0  0
 38 29  1  0  0  0
 45 44  1  0  0  0
 25 27  1  0  0  0
 25 35  1  0  0  0
 25 28  1  0  0  0
 21 20  1  0  0  0
 21 22  1  0  0  0
 44 42  1  0  0  0
  2  1  1  0  0  0
  2  4  1  0  0  0
  2  5  1  0  0  0
 26 27  2  0  0  0
 42 43  2  0  0  0
 29 31  1  0  0  0
 29 36  1  0  0  0
  3  4  2  0  0  0
 43  1  1  0  0  0
  6  9  2  0  0  0
  6 10  1  0  0  0
  1 20  1  0  0  0
 30 36  2  0  0  0
  7  8  1  0  0  0
  7  9  1  0  0  0
 22 24  1  0  0  0
 22 23  1  0  0  0
 11 12  1  0  0  0
 11 18  1  0  0  0
 24 27  1  0  0  0
  4 10  1  0  0  0
 51 52  1  0  0  0
 52 53  1  0  0  0
 53 54  1  0  0  0
 54 55  1  0  0  0
 55 56  1  0  0  0
 56 57  1  0  0  0
 57 58  1  0  0  0
 58 59  1  0  0  0
 59 60  1  0  0  0
 60 61  1  0  0  0
 61 62  1  0  0  0
 62 63  1  0  0  0
 63 64  1  0  0  0
 64 65  1  0  0  0
 31 32  1  0  0  0
 32 33  1  0  0  0
 33 34  1  0  0  0
 34 35  1  0  0  0
 35 36  1  0  0  0
  8 10  1  0  0  0
  9 17  1  0  0  0
 12 13  2  0  0  0
 12 17  1  0  0  0
 13 14  1  0  0  0
 14 15  2  0  0  0
 15 16  1  0  0  0
 16 17  2  0  0  0
M  END
> <minimizedAffinity>
-8.74375

> <CNNscore>
0.1405487508

> <CNNaffinity>
7.4114885330

> <CNN_VS>
1.0416754484

> <CNNaffinity_variance>
1.2386666536

$$$$
