/media/chris/experiments/cd1a-new-docking/inputs/ligands/1xz0_ligand.pdb


 65 67  0  0  0  0  0  0  0  0999 V2000
  -40.2938   59.6224   65.6936 C   0  0  0  0  0  0  0  0  0  0  0  0
  -39.1902   60.1993   66.4639 N   0  0  0  0  0  0  0  0  0  0  0  0
  -37.0504   60.8787   66.8275 O   0  0  0  0  0  0  0  0  0  0  0  0
  -37.9103   60.3959   66.1027 C   0  0  0  0  0  0  0  0  0  0  0  0
  -39.4184   60.4843   67.3783 H   0  0  0  0  0  0  0  0  0  0  0  0
  -36.1273   59.6468   64.5405 N   0  0  0  0  0  0  0  0  0  0  0  0
  -36.2654   61.2797   63.0218 O   0  0  0  0  0  0  0  0  0  0  0  0
  -37.5676   61.2405   63.6042 C   0  0  0  0  0  0  0  0  0  0  0  0
  -35.4587   60.2788   63.6740 C   0  0  0  0  0  0  0  0  0  0  0  0
  -37.5259   60.1011   64.6599 C   0  0  0  0  0  0  0  0  0  0  0  0
  -33.5303   62.3010   62.9063 O   0  0  0  0  0  0  0  0  0  0  0  0
  -33.1361   61.0232   62.9656 C   0  0  0  0  0  0  0  0  0  0  0  0
  -31.8058   60.6944   62.6735 C   0  0  0  0  0  0  0  0  0  0  0  0
  -31.3697   59.3595   62.7194 C   0  0  0  0  0  0  0  0  0  0  0  0
  -32.2565   58.3392   63.0678 C   0  0  0  0  0  0  0  0  0  0  0  0
  -33.5830   58.6629   63.3662 C   0  0  0  0  0  0  0  0  0  0  0  0
  -34.0253   59.9986   63.3125 C   0  0  0  0  0  0  0  0  0  0  0  0
  -32.9174   62.9699   62.6718 H   0  0  0  0  0  0  0  0  0  0  0  0
  -41.4345   61.7265   65.7780 O   0  0  0  0  0  0  0  0  0  0  0  0
  -41.0533   60.7907   65.0943 C   0  0  0  0  0  0  0  0  0  0  0  0
  -41.4054   60.7790   63.6706 O   0  0  0  0  0  0  0  0  0  0  0  0
  -42.7775   60.8387   63.2376 C   0  0  0  0  0  0  0  0  0  0  0  0
  -43.7643   60.1394   64.1642 C   0  0  0  0  0  0  0  0  0  0  0  0
  -42.8594   60.2789   61.8254 C   0  0  0  0  0  0  0  0  0  0  0  0
  -41.1702   60.3025   60.0528 N   0  0  0  0  0  0  0  0  0  0  0  0
  -42.1396   62.2151   60.7723 O   0  0  0  0  0  0  0  0  0  0  0  0
  -41.9849   61.0174   60.8424 C   0  0  0  0  0  0  0  0  0  0  0  0
  -40.6512   60.7881   59.3716 H   0  0  0  0  0  0  0  0  0  0  0  0
  -38.9109   58.6031   61.4176 N   0  0  0  0  0  0  0  0  0  0  0  0
  -40.8191   57.6841   62.1789 O   0  0  0  0  0  0  0  0  0  0  0  0
  -38.1756   59.5863   60.6085 C   0  0  0  0  0  0  0  0  0  0  0  0
  -38.0973   59.1330   59.1384 C   0  0  0  0  0  0  0  0  0  0  0  0
  -38.9238   57.9052   58.7932 C   0  0  0  0  0  0  0  0  0  0  0  0
  -40.4318   58.1545   58.8819 C   0  0  0  0  0  0  0  0  0  0  0  0
  -40.9975   58.8476   60.1327 C   0  0  0  0  0  0  0  0  0  0  0  0
  -40.2260   58.3449   61.3373 C   0  0  0  0  0  0  0  0  0  0  0  0
  -38.8431   57.6342   63.9829 Si  0  0  0  0  0  0  0  0  0  0  0  0
  -38.1951   57.8982   62.3377 O   0  0  0  0  0  0  0  0  0  0  0  0
  -37.9126   56.8767   64.7422 H   0  0  0  0  0  0  0  0  0  0  0  0
  -40.0723   56.9282   63.8997 H   0  0  0  0  0  0  0  0  0  0  0  0
  -39.0592   58.8881   64.6133 H   0  0  0  0  0  0  0  0  0  0  0  0
  -42.0228   57.6542   65.5186 C   0  0  0  0  0  0  0  0  0  0  0  0
  -41.2023   58.5941   66.4103 C   0  0  0  0  0  0  0  0  0  0  0  0
  -43.2236   56.9490   66.1719 C   0  0  0  0  0  0  0  0  0  0  0  0
  -44.4828   56.7389   65.3060 C   0  0  0  0  0  0  0  0  0  0  0  0
  -45.6312   57.3068   66.0190 N   0  0  0  0  0  0  0  0  0  0  0  0
  -45.7450   58.5129   66.6354 C   0  0  0  0  0  0  0  0  0  0  0  0
  -46.7525   56.4660   66.0517 O   0  0  0  0  0  0  0  0  0  0  0  0
  -44.8119   59.3155   66.6419 O   0  0  0  0  0  0  0  0  0  0  0  0
  -47.4703   56.9028   66.5364 H   0  0  0  0  0  0  0  0  0  0  0  0
  -47.0607   58.8664   67.3368 C   0  0  0  0  0  0  0  0  0  0  0  0
  -47.9160   59.9045   66.5978 C   0  0  0  0  0  0  0  0  0  0  0  0
  -48.7502   59.2170   65.4998 C   0  0  0  0  0  0  0  0  0  0  0  0
  -50.2679   59.2652   65.7595 C   0  0  0  0  0  0  0  0  0  0  0  0
  -51.0609   60.1371   64.7680 C   0  0  0  0  0  0  0  0  0  0  0  0
  -50.2338   60.5412   63.5296 C   0  0  0  0  0  0  0  0  0  0  0  0
  -50.6596   59.8420   62.2176 C   0  0  0  0  0  0  0  0  0  0  0  0
  -51.1778   58.4146   62.4274 C   0  0  0  0  0  0  0  0  0  0  0  0
  -50.9089   57.4433   61.2737 C   0  0  0  0  0  0  0  0  0  0  0  0
  -49.4356   56.9968   61.2479 C   0  0  0  0  0  0  0  0  0  0  0  0
  -48.6749   57.4329   59.9865 C   0  0  0  0  0  0  0  0  0  0  0  0
  -48.4604   56.3449   58.9292 C   0  0  0  0  0  0  0  0  0  0  0  0
  -47.0347   56.3185   58.3239 C   0  0  0  0  0  0  0  0  0  0  0  0
  -47.0074   56.9443   56.9147 C   0  0  0  0  0  0  0  0  0  0  0  0
  -47.3032   58.4452   56.8097 C   0  0  0  0  0  0  0  0  0  0  0  0
 46 47  1  0  0  0
 46 48  1  0  0  0
 46 45  1  0  0  0
 47 49  2  0  0  0
 47 51  1  0  0  0
 19 20  2  0  0  0
 37 38  1  0  0  0
 37 39  1  0  0  0
 37 40  1  0  0  0
 37 41  1  0  0  0
 48 50  1  0  0  0
 38 29  1  0  0  0
 45 44  1  0  0  0
 25 27  1  0  0  0
 25 35  1  0  0  0
 25 28  1  0  0  0
 21 20  1  0  0  0
 21 22  1  0  0  0
 44 42  1  0  0  0
  2  1  1  0  0  0
  2  4  1  0  0  0
  2  5  1  0  0  0
 26 27  2  0  0  0
 42 43  2  0  0  0
 29 31  1  0  0  0
 29 36  1  0  0  0
  3  4  2  0  0  0
 43  1  1  0  0  0
  6  9  2  0  0  0
  6 10  1  0  0  0
  1 20  1  0  0  0
 30 36  2  0  0  0
  7  8  1  0  0  0
  7  9  1  0  0  0
 22 24  1  0  0  0
 22 23  1  0  0  0
 11 12  1  0  0  0
 11 18  1  0  0  0
 24 27  1  0  0  0
  4 10  1  0  0  0
 51 52  1  0  0  0
 52 53  1  0  0  0
 53 54  1  0  0  0
 54 55  1  0  0  0
 55 56  1  0  0  0
 56 57  1  0  0  0
 57 58  1  0  0  0
 58 59  1  0  0  0
 59 60  1  0  0  0
 60 61  1  0  0  0
 61 62  1  0  0  0
 62 63  1  0  0  0
 63 64  1  0  0  0
 64 65  1  0  0  0
 31 32  1  0  0  0
 32 33  1  0  0  0
 33 34  1  0  0  0
 34 35  1  0  0  0
 35 36  1  0  0  0
  8 10  1  0  0  0
  9 17  1  0  0  0
 12 13  2  0  0  0
 12 17  1  0  0  0
 13 14  1  0  0  0
 14 15  2  0  0  0
 15 16  1  0  0  0
 16 17  2  0  0  0
M  END
> <minimizedAffinity>
-8.92044

> <CNNscore>
0.2017972916

> <CNNaffinity>
7.7290887833

> <CNN_VS>
1.5597091913

> <CNNaffinity_variance>
1.1040351391

$$$$
/media/chris/experiments/cd1a-new-docking/inputs/ligands/1xz0_ligand.pdb


 65 67  0  0  0  0  0  0  0  0999 V2000
  -40.6028   58.5923   61.6865 C   0  0  0  0  0  0  0  0  0  0  0  0
  -39.6292   58.5645   60.5931 N   0  0  0  0  0  0  0  0  0  0  0  0
  -37.5511   58.5707   59.6689 O   0  0  0  0  0  0  0  0  0  0  0  0
  -38.2861   58.5851   60.6474 C   0  0  0  0  0  0  0  0  0  0  0  0
  -40.0136   58.5251   59.6875 H   0  0  0  0  0  0  0  0  0  0  0  0
  -36.2816   59.1111   62.0206 N   0  0  0  0  0  0  0  0  0  0  0  0
  -35.9515   57.1120   62.9623 O   0  0  0  0  0  0  0  0  0  0  0  0
  -37.3465   57.1246   62.6618 C   0  0  0  0  0  0  0  0  0  0  0  0
  -35.3916   58.3635   62.5171 C   0  0  0  0  0  0  0  0  0  0  0  0
  -37.6291   58.5104   62.0182 C   0  0  0  0  0  0  0  0  0  0  0  0
  -34.3983   61.0815   62.6694 O   0  0  0  0  0  0  0  0  0  0  0  0
  -33.5276   60.0699   62.7699 C   0  0  0  0  0  0  0  0  0  0  0  0
  -32.1669   60.3436   62.9616 C   0  0  0  0  0  0  0  0  0  0  0  0
  -31.2317   59.2996   63.0607 C   0  0  0  0  0  0  0  0  0  0  0  0
  -31.6480   57.9696   62.9794 C   0  0  0  0  0  0  0  0  0  0  0  0
  -33.0052   57.6913   62.7946 C   0  0  0  0  0  0  0  0  0  0  0  0
  -33.9435   58.7355   62.6860 C   0  0  0  0  0  0  0  0  0  0  0  0
  -34.0969   61.9667   62.7286 H   0  0  0  0  0  0  0  0  0  0  0  0
  -40.8553   60.9599   61.9439 O   0  0  0  0  0  0  0  0  0  0  0  0
  -40.4097   59.9184   62.3971 C   0  0  0  0  0  0  0  0  0  0  0  0
  -39.6123   59.9783   63.6265 O   0  0  0  0  0  0  0  0  0  0  0  0
  -38.8124   61.1325   63.9454 C   0  0  0  0  0  0  0  0  0  0  0  0
  -37.7252   61.4498   62.9261 C   0  0  0  0  0  0  0  0  0  0  0  0
  -38.2227   60.9384   65.3342 C   0  0  0  0  0  0  0  0  0  0  0  0
  -35.8377   61.4867   65.4195 N   0  0  0  0  0  0  0  0  0  0  0  0
  -36.5421   59.3420   65.2794 O   0  0  0  0  0  0  0  0  0  0  0  0
  -36.7706   60.5295   65.3108 C   0  0  0  0  0  0  0  0  0  0  0  0
  -34.8958   61.2043   65.4673 H   0  0  0  0  0  0  0  0  0  0  0  0
  -34.1137   63.9278   64.4583 N   0  0  0  0  0  0  0  0  0  0  0  0
  -36.1408   64.3031   63.5552 O   0  0  0  0  0  0  0  0  0  0  0  0
  -33.1804   63.1316   65.2688 C   0  0  0  0  0  0  0  0  0  0  0  0
  -33.3740   63.4249   66.7686 C   0  0  0  0  0  0  0  0  0  0  0  0
  -34.5690   64.2999   67.1095 C   0  0  0  0  0  0  0  0  0  0  0  0
  -35.9103   63.6171   66.8289 C   0  0  0  0  0  0  0  0  0  0  0  0
  -36.1218   62.9253   65.4719 C   0  0  0  0  0  0  0  0  0  0  0  0
  -35.4455   63.7655   64.4063 C   0  0  0  0  0  0  0  0  0  0  0  0
  -31.8120   64.9949   63.4154 Si  0  0  0  0  0  0  0  0  0  0  0  0
  -33.5776   64.9118   63.6836 O   0  0  0  0  0  0  0  0  0  0  0  0
  -31.5119   66.1026   62.5792 H   0  0  0  0  0  0  0  0  0  0  0  0
  -31.3711   63.7978   62.7919 H   0  0  0  0  0  0  0  0  0  0  0  0
  -31.1507   65.1504   64.6624 H   0  0  0  0  0  0  0  0  0  0  0  0
  -41.9912   56.6855   62.8399 C   0  0  0  0  0  0  0  0  0  0  0  0
  -40.6358   57.3753   62.6425 C   0  0  0  0  0  0  0  0  0  0  0  0
  -42.1391   55.7859   64.0787 C   0  0  0  0  0  0  0  0  0  0  0  0
  -42.3549   56.4790   65.4397 C   0  0  0  0  0  0  0  0  0  0  0  0
  -43.6064   57.2402   65.3748 N   0  0  0  0  0  0  0  0  0  0  0  0
  -43.7875   58.5770   65.2079 C   0  0  0  0  0  0  0  0  0  0  0  0
  -44.7585   56.4522   65.5052 O   0  0  0  0  0  0  0  0  0  0  0  0
  -42.8294   59.3377   65.0730 O   0  0  0  0  0  0  0  0  0  0  0  0
  -45.5448   57.0179   65.4533 H   0  0  0  0  0  0  0  0  0  0  0  0
  -45.2140   59.1364   65.1955 C   0  0  0  0  0  0  0  0  0  0  0  0
  -45.7892   59.4420   66.5852 C   0  0  0  0  0  0  0  0  0  0  0  0
  -47.2516   58.9639   66.6688 C   0  0  0  0  0  0  0  0  0  0  0  0
  -48.1706   59.6084   65.6138 C   0  0  0  0  0  0  0  0  0  0  0  0
  -49.5172   60.1176   66.1613 C   0  0  0  0  0  0  0  0  0  0  0  0
  -50.7274   59.5954   65.3589 C   0  0  0  0  0  0  0  0  0  0  0  0
  -50.3818   58.5169   64.3057 C   0  0  0  0  0  0  0  0  0  0  0  0
  -50.8029   58.8979   62.8817 C   0  0  0  0  0  0  0  0  0  0  0  0
  -50.2375   60.2241   62.3635 C   0  0  0  0  0  0  0  0  0  0  0  0
  -49.7546   60.0973   60.9070 C   0  0  0  0  0  0  0  0  0  0  0  0
  -49.2941   58.6825   60.5247 C   0  0  0  0  0  0  0  0  0  0  0  0
  -50.1473   57.9665   59.4726 C   0  0  0  0  0  0  0  0  0  0  0  0
  -49.3978   57.6489   58.1546 C   0  0  0  0  0  0  0  0  0  0  0  0
  -47.9242   58.0990   58.2199 C   0  0  0  0  0  0  0  0  0  0  0  0
  -47.2400   58.4490   56.8931 C   0  0  0  0  0  0  0  0  0  0  0  0
 46 47  1  0  0  0
 46 48  1  0  0  0
 46 45  1  0  0  0
 47 49  2  0  0  0
 47 51  1  0  0  0
 19 20  2  0  0  0
 37 38  1  0  0  0
 37 39  1  0  0  0
 37 40  1  0  0  0
 37 41  1  0  0  0
 48 50  1  0  0  0
 38 29  1  0  0  0
 45 44  1  0  0  0
 25 27  1  0  0  0
 25 35  1  0  0  0
 25 28  1  0  0  0
 21 20  1  0  0  0
 21 22  1  0  0  0
 44 42  1  0  0  0
  2  1  1  0  0  0
  2  4  1  0  0  0
  2  5  1  0  0  0
 26 27  2  0  0  0
 42 43  2  0  0  0
 29 31  1  0  0  0
 29 36  1  0  0  0
  3  4  2  0  0  0
 43  1  1  0  0  0
  6  9  2  0  0  0
  6 10  1  0  0  0
  1 20  1  0  0  0
 30 36  2  0  0  0
  7  8  1  0  0  0
  7  9  1  0  0  0
 22 24  1  0  0  0
 22 23  1  0  0  0
 11 12  1  0  0  0
 11 18  1  0  0  0
 24 27  1  0  0  0
  4 10  1  0  0  0
 51 52  1  0  0  0
 52 53  1  0  0  0
 53 54  1  0  0  0
 54 55  1  0  0  0
 55 56  1  0  0  0
 56 57  1  0  0  0
 57 58  1  0  0  0
 58 59  1  0  0  0
 59 60  1  0  0  0
 60 61  1  0  0  0
 61 62  1  0  0  0
 62 63  1  0  0  0
 63 64  1  0  0  0
 64 65  1  0  0  0
 31 32  1  0  0  0
 32 33  1  0  0  0
 33 34  1  0  0  0
 34 35  1  0  0  0
 35 36  1  0  0  0
  8 10  1  0  0  0
  9 17  1  0  0  0
 12 13  2  0  0  0
 12 17  1  0  0  0
 13 14  1  0  0  0
 14 15  2  0  0  0
 15 16  1  0  0  0
 16 17  2  0  0  0
M  END
> <minimizedAffinity>
-9.11245

> <CNNscore>
0.2002719194

> <CNNaffinity>
7.3057441711

> <CNN_VS>
1.4631353617

> <CNNaffinity_variance>
0.7693723440

$$$$
/media/chris/experiments/cd1a-new-docking/inputs/ligands/1xz0_ligand.pdb


 65 67  0  0  0  0  0  0  0  0999 V2000
  -36.6108   60.5754   64.1552 C   0  0  0  0  0  0  0  0  0  0  0  0
  -35.1681   60.3808   64.3129 N   0  0  0  0  0  0  0  0  0  0  0  0
  -33.1878   59.2863   64.0821 O   0  0  0  0  0  0  0  0  0  0  0  0
  -34.3939   59.3664   63.8899 C   0  0  0  0  0  0  0  0  0  0  0  0
  -34.6971   61.0960   64.7987 H   0  0  0  0  0  0  0  0  0  0  0  0
  -36.0594   58.8595   62.1152 N   0  0  0  0  0  0  0  0  0  0  0  0
  -37.1215   57.1528   63.0906 O   0  0  0  0  0  0  0  0  0  0  0  0
  -35.8228   57.1330   63.6820 C   0  0  0  0  0  0  0  0  0  0  0  0
  -37.1675   58.2532   62.1605 C   0  0  0  0  0  0  0  0  0  0  0  0
  -35.0368   58.2975   63.0180 C   0  0  0  0  0  0  0  0  0  0  0  0
  -37.6528   60.8274   60.9216 O   0  0  0  0  0  0  0  0  0  0  0  0
  -38.5394   59.8428   60.7319 C   0  0  0  0  0  0  0  0  0  0  0  0
  -39.6665   60.0703   59.9312 C   0  0  0  0  0  0  0  0  0  0  0  0
  -40.6166   59.0561   59.7244 C   0  0  0  0  0  0  0  0  0  0  0  0
  -40.4454   57.7994   60.3077 C   0  0  0  0  0  0  0  0  0  0  0  0
  -39.3194   57.5656   61.1021 C   0  0  0  0  0  0  0  0  0  0  0  0
  -38.3700   58.5827   61.3184 C   0  0  0  0  0  0  0  0  0  0  0  0
  -37.7869   61.6628   60.5188 H   0  0  0  0  0  0  0  0  0  0  0  0
  -36.9109   62.5938   62.9016 O   0  0  0  0  0  0  0  0  0  0  0  0
  -36.8263   62.0688   63.9997 C   0  0  0  0  0  0  0  0  0  0  0  0
  -36.8690   62.9275   65.1878 O   0  0  0  0  0  0  0  0  0  0  0  0
  -35.6954   63.1540   65.9912 C   0  0  0  0  0  0  0  0  0  0  0  0
  -35.9804   63.4432   67.4598 C   0  0  0  0  0  0  0  0  0  0  0  0
  -34.8897   64.2778   65.3568 C   0  0  0  0  0  0  0  0  0  0  0  0
  -32.8038   64.5467   64.1029 N   0  0  0  0  0  0  0  0  0  0  0  0
  -32.9603   63.0758   65.8139 O   0  0  0  0  0  0  0  0  0  0  0  0
  -33.4572   63.8961   65.0765 C   0  0  0  0  0  0  0  0  0  0  0  0
  -31.8514   64.3352   63.9704 H   0  0  0  0  0  0  0  0  0  0  0  0
  -34.0475   64.2404   61.2368 N   0  0  0  0  0  0  0  0  0  0  0  0
  -35.6109   65.3762   62.3906 O   0  0  0  0  0  0  0  0  0  0  0  0
  -32.7428   63.5706   61.1308 C   0  0  0  0  0  0  0  0  0  0  0  0
  -31.6190   64.5992   60.9029 C   0  0  0  0  0  0  0  0  0  0  0  0
  -32.0392   66.0552   61.0174 C   0  0  0  0  0  0  0  0  0  0  0  0
  -32.4362   66.4533   62.4414 C   0  0  0  0  0  0  0  0  0  0  0  0
  -33.4081   65.5517   63.2209 C   0  0  0  0  0  0  0  0  0  0  0  0
  -34.4465   65.0290   62.2475 C   0  0  0  0  0  0  0  0  0  0  0  0
  -36.4545   63.1407   60.5153 Si  0  0  0  0  0  0  0  0  0  0  0  0
  -34.9340   64.0344   60.2231 O   0  0  0  0  0  0  0  0  0  0  0  0
  -37.1975   63.0633   59.3077 H   0  0  0  0  0  0  0  0  0  0  0  0
  -37.2206   63.8190   61.4998 H   0  0  0  0  0  0  0  0  0  0  0  0
  -36.1531   61.8298   60.9704 H   0  0  0  0  0  0  0  0  0  0  0  0
  -39.0075   59.7302   64.8151 C   0  0  0  0  0  0  0  0  0  0  0  0
  -37.5376   59.9213   65.2085 C   0  0  0  0  0  0  0  0  0  0  0  0
  -40.0089   59.5004   65.9598 C   0  0  0  0  0  0  0  0  0  0  0  0
  -41.3631   60.2347   65.8786 C   0  0  0  0  0  0  0  0  0  0  0  0
  -42.4297   59.2617   66.1342 N   0  0  0  0  0  0  0  0  0  0  0  0
  -43.5814   59.0527   65.4431 C   0  0  0  0  0  0  0  0  0  0  0  0
  -42.2009   58.4479   67.2526 O   0  0  0  0  0  0  0  0  0  0  0  0
  -43.8526   59.7152   64.4418 O   0  0  0  0  0  0  0  0  0  0  0  0
  -42.9422   57.8318   67.3613 H   0  0  0  0  0  0  0  0  0  0  0  0
  -44.5548   57.9750   65.9320 C   0  0  0  0  0  0  0  0  0  0  0  0
  -45.9638   58.0714   65.3314 C   0  0  0  0  0  0  0  0  0  0  0  0
  -46.8392   59.0094   66.1847 C   0  0  0  0  0  0  0  0  0  0  0  0
  -47.4656   60.1654   65.3819 C   0  0  0  0  0  0  0  0  0  0  0  0
  -47.2834   60.0595   63.8563 C   0  0  0  0  0  0  0  0  0  0  0  0
  -48.6136   60.1782   63.0833 C   0  0  0  0  0  0  0  0  0  0  0  0
  -49.8739   60.2251   63.9783 C   0  0  0  0  0  0  0  0  0  0  0  0
  -50.5066   58.8487   64.2135 C   0  0  0  0  0  0  0  0  0  0  0  0
  -50.2137   57.7997   63.1361 C   0  0  0  0  0  0  0  0  0  0  0  0
  -51.1046   58.0042   61.8970 C   0  0  0  0  0  0  0  0  0  0  0  0
  -50.5772   57.3136   60.6302 C   0  0  0  0  0  0  0  0  0  0  0  0
  -50.3542   58.2251   59.4191 C   0  0  0  0  0  0  0  0  0  0  0  0
  -48.8654   58.4324   59.0446 C   0  0  0  0  0  0  0  0  0  0  0  0
  -48.4893   57.6508   57.7694 C   0  0  0  0  0  0  0  0  0  0  0  0
  -47.2078   58.0740   57.0416 C   0  0  0  0  0  0  0  0  0  0  0  0
 46 47  1  0  0  0
 46 48  1  0  0  0
 46 45  1  0  0  0
 47 49  2  0  0  0
 47 51  1  0  0  0
 19 20  2  0  0  0
 37 38  1  0  0  0
 37 39  1  0  0  0
 37 40  1  0  0  0
 37 41  1  0  0  0
 48 50  1  0  0  0
 38 29  1  0  0  0
 45 44  1  0  0  0
 25 27  1  0  0  0
 25 35  1  0  0  0
 25 28  1  0  0  0
 21 20  1  0  0  0
 21 22  1  0  0  0
 44 42  1  0  0  0
  2  1  1  0  0  0
  2  4  1  0  0  0
  2  5  1  0  0  0
 26 27  2  0  0  0
 42 43  2  0  0  0
 29 31  1  0  0  0
 29 36  1  0  0  0
  3  4  2  0  0  0
 43  1  1  0  0  0
  6  9  2  0  0  0
  6 10  1  0  0  0
  1 20  1  0  0  0
 30 36  2  0  0  0
  7  8  1  0  0  0
  7  9  1  0  0  0
 22 24  1  0  0  0
 22 23  1  0  0  0
 11 12  1  0  0  0
 11 18  1  0  0  0
 24 27  1  0  0  0
  4 10  1  0  0  0
 51 52  1  0  0  0
 52 53  1  0  0  0
 53 54  1  0  0  0
 54 55  1  0  0  0
 55 56  1  0  0  0
 56 57  1  0  0  0
 57 58  1  0  0  0
 58 59  1  0  0  0
 59 60  1  0  0  0
 60 61  1  0  0  0
 61 62  1  0  0  0
 62 63  1  0  0  0
 63 64  1  0  0  0
 64 65  1  0  0  0
 31 32  1  0  0  0
 32 33  1  0  0  0
 33 34  1  0  0  0
 34 35  1  0  0  0
 35 36  1  0  0  0
  8 10  1  0  0  0
  9 17  1  0  0  0
 12 13  2  0  0  0
 12 17  1  0  0  0
 13 14  1  0  0  0
 14 15  2  0  0  0
 15 16  1  0  0  0
 16 17  2  0  0  0
M  END
> <minimizedAffinity>
-9.58247

> <CNNscore>
0.1990103424

> <CNNaffinity>
7.1380968094

> <CNN_VS>
1.4205551147

> <CNNaffinity_variance>
0.7352378964

$$$$
/media/chris/experiments/cd1a-new-docking/inputs/ligands/1xz0_ligand.pdb


 65 67  0  0  0  0  0  0  0  0999 V2000
  -36.2791   57.5761   62.5720 C   0  0  0  0  0  0  0  0  0  0  0  0
  -36.5140   57.1724   63.9597 N   0  0  0  0  0  0  0  0  0  0  0  0
  -37.0301   57.4927   66.1515 O   0  0  0  0  0  0  0  0  0  0  0  0
  -36.8675   57.9232   65.0174 C   0  0  0  0  0  0  0  0  0  0  0  0
  -36.3961   56.2126   64.1450 H   0  0  0  0  0  0  0  0  0  0  0  0
  -36.0419   60.2681   65.0398 N   0  0  0  0  0  0  0  0  0  0  0  0
  -37.6947   61.2240   66.2002 O   0  0  0  0  0  0  0  0  0  0  0  0
  -38.3077   60.0799   65.6072 C   0  0  0  0  0  0  0  0  0  0  0  0
  -36.3086   61.2385   65.8043 C   0  0  0  0  0  0  0  0  0  0  0  0
  -37.1956   59.3887   64.7706 C   0  0  0  0  0  0  0  0  0  0  0  0
  -37.0171   64.0117   66.2570 O   0  0  0  0  0  0  0  0  0  0  0  0
  -35.7449   63.6340   66.4318 C   0  0  0  0  0  0  0  0  0  0  0  0
  -34.7928   64.5763   66.8426 C   0  0  0  0  0  0  0  0  0  0  0  0
  -33.4493   64.2072   67.0238 C   0  0  0  0  0  0  0  0  0  0  0  0
  -33.0444   62.8891   66.8062 C   0  0  0  0  0  0  0  0  0  0  0  0
  -33.9916   61.9439   66.4024 C   0  0  0  0  0  0  0  0  0  0  0  0
  -35.3370   62.3128   66.2114 C   0  0  0  0  0  0  0  0  0  0  0  0
  -37.2670   64.9016   66.4106 H   0  0  0  0  0  0  0  0  0  0  0  0
  -34.8774   59.4523   62.0712 O   0  0  0  0  0  0  0  0  0  0  0  0
  -34.9689   58.3405   62.5652 C   0  0  0  0  0  0  0  0  0  0  0  0
  -33.7560   57.7144   63.1017 O   0  0  0  0  0  0  0  0  0  0  0  0
  -32.8654   58.4335   63.9756 C   0  0  0  0  0  0  0  0  0  0  0  0
  -33.1334   58.2268   65.4612 C   0  0  0  0  0  0  0  0  0  0  0  0
  -32.9205   59.9087   63.6081 C   0  0  0  0  0  0  0  0  0  0  0  0
  -31.4643   61.6825   62.7543 N   0  0  0  0  0  0  0  0  0  0  0  0
  -31.0164   59.5030   62.3487 O   0  0  0  0  0  0  0  0  0  0  0  0
  -31.7223   60.3679   62.8145 C   0  0  0  0  0  0  0  0  0  0  0  0
  -30.6453   61.9672   62.2880 H   0  0  0  0  0  0  0  0  0  0  0  0
  -33.3243   63.7880   61.3533 N   0  0  0  0  0  0  0  0  0  0  0  0
  -34.6384   62.8633   62.9293 O   0  0  0  0  0  0  0  0  0  0  0  0
  -32.0435   63.9178   60.6430 C   0  0  0  0  0  0  0  0  0  0  0  0
  -31.0672   64.8058   61.4375 C   0  0  0  0  0  0  0  0  0  0  0  0
  -31.5343   65.1996   62.8291 C   0  0  0  0  0  0  0  0  0  0  0  0
  -31.6096   64.0127   63.7933 C   0  0  0  0  0  0  0  0  0  0  0  0
  -32.3168   62.7267   63.3341 C   0  0  0  0  0  0  0  0  0  0  0  0
  -33.5215   63.1243   62.5037 C   0  0  0  0  0  0  0  0  0  0  0  0
  -35.4948   63.4638   59.7078 Si  0  0  0  0  0  0  0  0  0  0  0  0
  -34.4098   64.3866   60.7883 O   0  0  0  0  0  0  0  0  0  0  0  0
  -36.5415   64.3092   59.2538 H   0  0  0  0  0  0  0  0  0  0  0  0
  -36.0477   62.3655   60.4179 H   0  0  0  0  0  0  0  0  0  0  0  0
  -34.7570   62.9840   58.5935 H   0  0  0  0  0  0  0  0  0  0  0  0
  -38.7667   57.5673   61.7318 C   0  0  0  0  0  0  0  0  0  0  0  0
  -37.4285   58.3090   61.8385 C   0  0  0  0  0  0  0  0  0  0  0  0
  -39.7539   58.0657   60.6628 C   0  0  0  0  0  0  0  0  0  0  0  0
  -41.2031   57.5419   60.7332 C   0  0  0  0  0  0  0  0  0  0  0  0
  -41.9432   58.3645   61.6951 N   0  0  0  0  0  0  0  0  0  0  0  0
  -42.5732   57.9862   62.8387 C   0  0  0  0  0  0  0  0  0  0  0  0
  -41.9890   59.7256   61.3624 O   0  0  0  0  0  0  0  0  0  0  0  0
  -42.5697   56.8127   63.2096 O   0  0  0  0  0  0  0  0  0  0  0  0
  -42.4914   60.2070   62.0383 H   0  0  0  0  0  0  0  0  0  0  0  0
  -43.3027   59.0472   63.6695 C   0  0  0  0  0  0  0  0  0  0  0  0
  -44.2796   58.4799   64.7084 C   0  0  0  0  0  0  0  0  0  0  0  0
  -45.4403   59.4672   64.9370 C   0  0  0  0  0  0  0  0  0  0  0  0
  -46.5504   59.3683   63.8734 C   0  0  0  0  0  0  0  0  0  0  0  0
  -47.9688   59.6599   64.3978 C   0  0  0  0  0  0  0  0  0  0  0  0
  -48.6567   58.4134   64.9929 C   0  0  0  0  0  0  0  0  0  0  0  0
  -50.0875   58.1567   64.4652 C   0  0  0  0  0  0  0  0  0  0  0  0
  -50.7010   59.3672   63.7521 C   0  0  0  0  0  0  0  0  0  0  0  0
  -51.1169   59.1296   62.2970 C   0  0  0  0  0  0  0  0  0  0  0  0
  -51.1773   57.6264   61.9691 C   0  0  0  0  0  0  0  0  0  0  0  0
  -50.4290   57.2389   60.6846 C   0  0  0  0  0  0  0  0  0  0  0  0
  -50.0147   58.4030   59.7787 C   0  0  0  0  0  0  0  0  0  0  0  0
  -48.6082   58.2489   59.1481 C   0  0  0  0  0  0  0  0  0  0  0  0
  -47.9960   56.8689   59.4626 C   0  0  0  0  0  0  0  0  0  0  0  0
  -47.2064   56.1818   58.3421 C   0  0  0  0  0  0  0  0  0  0  0  0
 46 47  1  0  0  0
 46 48  1  0  0  0
 46 45  1  0  0  0
 47 49  2  0  0  0
 47 51  1  0  0  0
 19 20  2  0  0  0
 37 38  1  0  0  0
 37 39  1  0  0  0
 37 40  1  0  0  0
 37 41  1  0  0  0
 48 50  1  0  0  0
 38 29  1  0  0  0
 45 44  1  0  0  0
 25 27  1  0  0  0
 25 35  1  0  0  0
 25 28  1  0  0  0
 21 20  1  0  0  0
 21 22  1  0  0  0
 44 42  1  0  0  0
  2  1  1  0  0  0
  2  4  1  0  0  0
  2  5  1  0  0  0
 26 27  2  0  0  0
 42 43  2  0  0  0
 29 31  1  0  0  0
 29 36  1  0  0  0
  3  4  2  0  0  0
 43  1  1  0  0  0
  6  9  2  0  0  0
  6 10  1  0  0  0
  1 20  1  0  0  0
 30 36  2  0  0  0
  7  8  1  0  0  0
  7  9  1  0  0  0
 22 24  1  0  0  0
 22 23  1  0  0  0
 11 12  1  0  0  0
 11 18  1  0  0  0
 24 27  1  0  0  0
  4 10  1  0  0  0
 51 52  1  0  0  0
 52 53  1  0  0  0
 53 54  1  0  0  0
 54 55  1  0  0  0
 55 56  1  0  0  0
 56 57  1  0  0  0
 57 58  1  0  0  0
 58 59  1  0  0  0
 59 60  1  0  0  0
 60 61  1  0  0  0
 61 62  1  0  0  0
 62 63  1  0  0  0
 63 64  1  0  0  0
 64 65  1  0  0  0
 31 32  1  0  0  0
 32 33  1  0  0  0
 33 34  1  0  0  0
 34 35  1  0  0  0
 35 36  1  0  0  0
  8 10  1  0  0  0
  9 17  1  0  0  0
 12 13  2  0  0  0
 12 17  1  0  0  0
 13 14  1  0  0  0
 14 15  2  0  0  0
 15 16  1  0  0  0
 16 17  2  0  0  0
M  END
> <minimizedAffinity>
-9.72429

> <CNNscore>
0.1434311271

> <CNNaffinity>
6.7417449951

> <CNN_VS>
0.9669761062

> <CNNaffinity_variance>
1.0006089211

$$$$
/media/chris/experiments/cd1a-new-docking/inputs/ligands/1xz0_ligand.pdb


 65 67  0  0  0  0  0  0  0  0999 V2000
  -43.2152   57.5896   65.7578 C   0  0  0  0  0  0  0  0  0  0  0  0
  -43.5423   57.9097   64.3669 N   0  0  0  0  0  0  0  0  0  0  0  0
  -43.2472   57.8894   62.1119 O   0  0  0  0  0  0  0  0  0  0  0  0
  -42.9005   57.5602   63.2385 C   0  0  0  0  0  0  0  0  0  0  0  0
  -44.3486   58.4603   64.2397 H   0  0  0  0  0  0  0  0  0  0  0  0
  -40.4744   57.2956   63.7127 N   0  0  0  0  0  0  0  0  0  0  0  0
  -39.8902   56.0658   61.9412 O   0  0  0  0  0  0  0  0  0  0  0  0
  -41.2763   55.7767   62.1185 C   0  0  0  0  0  0  0  0  0  0  0  0
  -39.5028   57.0146   62.9549 C   0  0  0  0  0  0  0  0  0  0  0  0
  -41.7260   56.5997   63.3575 C   0  0  0  0  0  0  0  0  0  0  0  0
  -38.0358   58.4175   60.8867 O   0  0  0  0  0  0  0  0  0  0  0  0
  -37.4524   58.2291   62.0766 C   0  0  0  0  0  0  0  0  0  0  0  0
  -36.1612   58.7245   62.3012 C   0  0  0  0  0  0  0  0  0  0  0  0
  -35.5235   58.5315   63.5382 C   0  0  0  0  0  0  0  0  0  0  0  0
  -36.1737   57.8497   64.5683 C   0  0  0  0  0  0  0  0  0  0  0  0
  -37.4643   57.3592   64.3513 C   0  0  0  0  0  0  0  0  0  0  0  0
  -38.1026   57.5433   63.1098 C   0  0  0  0  0  0  0  0  0  0  0  0
  -37.5814   58.8797   60.2100 H   0  0  0  0  0  0  0  0  0  0  0  0
  -44.9545   56.8295   67.2182 O   0  0  0  0  0  0  0  0  0  0  0  0
  -44.5026   57.7415   66.5455 C   0  0  0  0  0  0  0  0  0  0  0  0
  -45.2714   58.9871   66.4540 O   0  0  0  0  0  0  0  0  0  0  0  0
  -46.7115   58.9803   66.4507 C   0  0  0  0  0  0  0  0  0  0  0  0
  -47.3368   57.6566   66.0282 C   0  0  0  0  0  0  0  0  0  0  0  0
  -47.1943   60.1217   65.5684 C   0  0  0  0  0  0  0  0  0  0  0  0
  -47.6657   59.7599   63.1930 N   0  0  0  0  0  0  0  0  0  0  0  0
  -45.5694   60.2040   63.9165 O   0  0  0  0  0  0  0  0  0  0  0  0
  -46.7409   59.9966   64.1348 C   0  0  0  0  0  0  0  0  0  0  0  0
  -47.3690   59.7435   62.2544 H   0  0  0  0  0  0  0  0  0  0  0  0
  -49.7575   58.0082   61.6401 N   0  0  0  0  0  0  0  0  0  0  0  0
  -49.9956   57.3680   63.7846 O   0  0  0  0  0  0  0  0  0  0  0  0
  -49.1306   58.8256   60.5909 C   0  0  0  0  0  0  0  0  0  0  0  0
  -49.7635   60.2291   60.5424 C   0  0  0  0  0  0  0  0  0  0  0  0
  -50.7381   60.5405   61.6661 C   0  0  0  0  0  0  0  0  0  0  0  0
  -50.0614   60.6355   63.0362 C   0  0  0  0  0  0  0  0  0  0  0  0
  -49.0886   59.5235   63.4626 C   0  0  0  0  0  0  0  0  0  0  0  0
  -49.6387   58.2017   62.9635 C   0  0  0  0  0  0  0  0  0  0  0  0
  -49.7612   55.3803   60.8541 Si  0  0  0  0  0  0  0  0  0  0  0  0
  -50.5190   56.9546   61.2328 O   0  0  0  0  0  0  0  0  0  0  0  0
  -50.7632   54.4562   60.4564 H   0  0  0  0  0  0  0  0  0  0  0  0
  -49.0931   54.8873   62.0060 H   0  0  0  0  0  0  0  0  0  0  0  0
  -48.8254   55.5469   59.7992 H   0  0  0  0  0  0  0  0  0  0  0  0
  -41.6199   59.6749   65.7831 C   0  0  0  0  0  0  0  0  0  0  0  0
  -42.0090   58.3227   66.3932 C   0  0  0  0  0  0  0  0  0  0  0  0
  -40.2064   60.1960   66.0930 C   0  0  0  0  0  0  0  0  0  0  0  0
  -39.2581   60.4336   64.8997 C   0  0  0  0  0  0  0  0  0  0  0  0
  -37.9363   60.7876   65.4263 N   0  0  0  0  0  0  0  0  0  0  0  0
  -36.9674   61.5555   64.8613 C   0  0  0  0  0  0  0  0  0  0  0  0
  -37.6635   60.2446   66.6897 O   0  0  0  0  0  0  0  0  0  0  0  0
  -37.1316   62.0802   63.7601 O   0  0  0  0  0  0  0  0  0  0  0  0
  -36.7775   60.5180   66.9747 H   0  0  0  0  0  0  0  0  0  0  0  0
  -35.6489   61.7596   65.6150 C   0  0  0  0  0  0  0  0  0  0  0  0
  -35.5882   63.0438   66.4533 C   0  0  0  0  0  0  0  0  0  0  0  0
  -34.6301   64.0575   65.7987 C   0  0  0  0  0  0  0  0  0  0  0  0
  -33.2113   64.0388   66.3985 C   0  0  0  0  0  0  0  0  0  0  0  0
  -32.3611   65.2812   66.0735 C   0  0  0  0  0  0  0  0  0  0  0  0
  -31.7316   65.2262   64.6657 C   0  0  0  0  0  0  0  0  0  0  0  0
  -32.1137   66.4088   63.7453 C   0  0  0  0  0  0  0  0  0  0  0  0
  -33.4843   66.2445   63.0782 C   0  0  0  0  0  0  0  0  0  0  0  0
  -33.4512   65.9655   61.5723 C   0  0  0  0  0  0  0  0  0  0  0  0
  -33.9414   64.5410   61.2547 C   0  0  0  0  0  0  0  0  0  0  0  0
  -32.9568   63.4369   61.6691 C   0  0  0  0  0  0  0  0  0  0  0  0
  -33.4979   62.3999   62.6587 C   0  0  0  0  0  0  0  0  0  0  0  0
  -32.4150   61.7534   63.5582 C   0  0  0  0  0  0  0  0  0  0  0  0
  -31.5805   60.7155   62.7808 C   0  0  0  0  0  0  0  0  0  0  0  0
  -32.3476   59.6132   62.0407 C   0  0  0  0  0  0  0  0  0  0  0  0
 46 47  1  0  0  0
 46 48  1  0  0  0
 46 45  1  0  0  0
 47 49  2  0  0  0
 47 51  1  0  0  0
 19 20  2  0  0  0
 37 38  1  0  0  0
 37 39  1  0  0  0
 37 40  1  0  0  0
 37 41  1  0  0  0
 48 50  1  0  0  0
 38 29  1  0  0  0
 45 44  1  0  0  0
 25 27  1  0  0  0
 25 35  1  0  0  0
 25 28  1  0  0  0
 21 20  1  0  0  0
 21 22  1  0  0  0
 44 42  1  0  0  0
  2  1  1  0  0  0
  2  4  1  0  0  0
  2  5  1  0  0  0
 26 27  2  0  0  0
 42 43  2  0  0  0
 29 31  1  0  0  0
 29 36  1  0  0  0
  3  4  2  0  0  0
 43  1  1  0  0  0
  6  9  2  0  0  0
  6 10  1  0  0  0
  1 20  1  0  0  0
 30 36  2  0  0  0
  7  8  1  0  0  0
  7  9  1  0  0  0
 22 24  1  0  0  0
 22 23  1  0  0  0
 11 12  1  0  0  0
 11 18  1  0  0  0
 24 27  1  0  0  0
  4 10  1  0  0  0
 51 52  1  0  0  0
 52 53  1  0  0  0
 53 54  1  0  0  0
 54 55  1  0  0  0
 55 56  1  0  0  0
 56 57  1  0  0  0
 57 58  1  0  0  0
 58 59  1  0  0  0
 59 60  1  0  0  0
 60 61  1  0  0  0
 61 62  1  0  0  0
 62 63  1  0  0  0
 63 64  1  0  0  0
 64 65  1  0  0  0
 31 32  1  0  0  0
 32 33  1  0  0  0
 33 34  1  0  0  0
 34 35  1  0  0  0
 35 36  1  0  0  0
  8 10  1  0  0  0
  9 17  1  0  0  0
 12 13  2  0  0  0
 12 17  1  0  0  0
 13 14  1  0  0  0
 14 15  2  0  0  0
 15 16  1  0  0  0
 16 17  2  0  0  0
M  END
> <minimizedAffinity>
-8.22088

> <CNNscore>
0.1140089259

> <CNNaffinity>
7.0449585915

> <CNN_VS>
0.8031881452

> <CNNaffinity_variance>
0.9968842268

$$$$
/media/chris/experiments/cd1a-new-docking/inputs/ligands/1xz0_ligand.pdb


 65 67  0  0  0  0  0  0  0  0999 V2000
  -37.2595   60.6453   65.3837 C   0  0  0  0  0  0  0  0  0  0  0  0
  -36.1138   59.7758   65.6580 N   0  0  0  0  0  0  0  0  0  0  0  0
  -34.3375   58.4593   65.1245 O   0  0  0  0  0  0  0  0  0  0  0  0
  -35.2669   59.1853   64.7969 C   0  0  0  0  0  0  0  0  0  0  0  0
  -35.9384   59.5978   66.6103 H   0  0  0  0  0  0  0  0  0  0  0  0
  -36.7763   59.3204   62.8262 N   0  0  0  0  0  0  0  0  0  0  0  0
  -35.5267   58.2211   61.3355 O   0  0  0  0  0  0  0  0  0  0  0  0
  -34.5769   58.7353   62.2682 C   0  0  0  0  0  0  0  0  0  0  0  0
  -36.8400   58.6210   61.7754 C   0  0  0  0  0  0  0  0  0  0  0  0
  -35.4016   59.5276   63.3201 C   0  0  0  0  0  0  0  0  0  0  0  0
  -37.3475   59.3046   59.0055 O   0  0  0  0  0  0  0  0  0  0  0  0
  -38.2837   58.6321   59.6860 C   0  0  0  0  0  0  0  0  0  0  0  0
  -39.4733   58.2612   59.0454 C   0  0  0  0  0  0  0  0  0  0  0  0
  -40.4753   57.5632   59.7403 C   0  0  0  0  0  0  0  0  0  0  0  0
  -40.2949   57.2192   61.0812 C   0  0  0  0  0  0  0  0  0  0  0  0
  -39.1072   57.5814   61.7229 C   0  0  0  0  0  0  0  0  0  0  0  0
  -38.1049   58.2886   61.0316 C   0  0  0  0  0  0  0  0  0  0  0  0
  -37.4891   59.5236   58.1055 H   0  0  0  0  0  0  0  0  0  0  0  0
  -37.2153   63.0346   65.2265 O   0  0  0  0  0  0  0  0  0  0  0  0
  -36.8563   62.0375   65.8310 C   0  0  0  0  0  0  0  0  0  0  0  0
  -35.9572   62.2038   66.9777 O   0  0  0  0  0  0  0  0  0  0  0  0
  -34.7673   63.0098   66.8862 C   0  0  0  0  0  0  0  0  0  0  0  0
  -35.0199   64.5123   66.8808 C   0  0  0  0  0  0  0  0  0  0  0  0
  -33.9905   62.5794   65.6510 C   0  0  0  0  0  0  0  0  0  0  0  0
  -32.3273   63.7516   64.2887 N   0  0  0  0  0  0  0  0  0  0  0  0
  -32.0373   63.4815   66.5155 O   0  0  0  0  0  0  0  0  0  0  0  0
  -32.6698   63.2934   65.5017 C   0  0  0  0  0  0  0  0  0  0  0  0
  -31.4944   64.2713   64.2144 H   0  0  0  0  0  0  0  0  0  0  0  0
  -31.7854   64.7028   61.3465 N   0  0  0  0  0  0  0  0  0  0  0  0
  -32.2116   62.5027   61.1381 O   0  0  0  0  0  0  0  0  0  0  0  0
  -31.6329   65.9257   62.1485 C   0  0  0  0  0  0  0  0  0  0  0  0
  -33.0069   66.5498   62.4573 C   0  0  0  0  0  0  0  0  0  0  0  0
  -34.2068   65.7106   62.0506 C   0  0  0  0  0  0  0  0  0  0  0  0
  -34.3436   64.4249   62.8705 C   0  0  0  0  0  0  0  0  0  0  0  0
  -33.1061   63.5328   63.0646 C   0  0  0  0  0  0  0  0  0  0  0  0
  -32.3123   63.5437   61.7728 C   0  0  0  0  0  0  0  0  0  0  0  0
  -31.6857   66.1692   59.0306 Si  0  0  0  0  0  0  0  0  0  0  0  0
  -31.3435   64.7472   60.0586 O   0  0  0  0  0  0  0  0  0  0  0  0
  -31.1215   65.9692   57.7430 H   0  0  0  0  0  0  0  0  0  0  0  0
  -31.1171   67.3284   59.6217 H   0  0  0  0  0  0  0  0  0  0  0  0
  -33.0903   66.3396   58.9107 H   0  0  0  0  0  0  0  0  0  0  0  0
  -39.3670   59.0991   65.1349 C   0  0  0  0  0  0  0  0  0  0  0  0
  -38.6399   60.1965   65.9216 C   0  0  0  0  0  0  0  0  0  0  0  0
  -40.8782   58.9529   65.3810 C   0  0  0  0  0  0  0  0  0  0  0  0
  -41.8043   60.0312   64.7817 C   0  0  0  0  0  0  0  0  0  0  0  0
  -43.0981   59.4104   64.4806 N   0  0  0  0  0  0  0  0  0  0  0  0
  -44.1467   59.1709   65.3117 C   0  0  0  0  0  0  0  0  0  0  0  0
  -43.2442   59.0217   63.1416 O   0  0  0  0  0  0  0  0  0  0  0  0
  -44.1050   59.4928   66.4989 O   0  0  0  0  0  0  0  0  0  0  0  0
  -44.1185   58.6209   63.0148 H   0  0  0  0  0  0  0  0  0  0  0  0
  -45.3951   58.4815   64.7512 C   0  0  0  0  0  0  0  0  0  0  0  0
  -46.6026   58.4852   65.6984 C   0  0  0  0  0  0  0  0  0  0  0  0
  -47.4012   59.7924   65.5318 C   0  0  0  0  0  0  0  0  0  0  0  0
  -47.6561   60.1743   64.0613 C   0  0  0  0  0  0  0  0  0  0  0  0
  -49.1169   60.5393   63.7375 C   0  0  0  0  0  0  0  0  0  0  0  0
  -50.1347   59.7636   64.5999 C   0  0  0  0  0  0  0  0  0  0  0  0
  -50.7063   58.4924   63.9299 C   0  0  0  0  0  0  0  0  0  0  0  0
  -51.0763   58.6935   62.4558 C   0  0  0  0  0  0  0  0  0  0  0  0
  -50.7167   57.5310   61.5251 C   0  0  0  0  0  0  0  0  0  0  0  0
  -49.2362   57.5852   61.1059 C   0  0  0  0  0  0  0  0  0  0  0  0
  -48.9437   56.8976   59.7636 C   0  0  0  0  0  0  0  0  0  0  0  0
  -49.1994   57.7442   58.5125 C   0  0  0  0  0  0  0  0  0  0  0  0
  -47.9196   58.3413   57.8759 C   0  0  0  0  0  0  0  0  0  0  0  0
  -47.0082   57.2391   57.2992 C   0  0  0  0  0  0  0  0  0  0  0  0
  -47.6918   55.9775   56.7588 C   0  0  0  0  0  0  0  0  0  0  0  0
 46 47  1  0  0  0
 46 48  1  0  0  0
 46 45  1  0  0  0
 47 49  2  0  0  0
 47 51  1  0  0  0
 19 20  2  0  0  0
 37 38  1  0  0  0
 37 39  1  0  0  0
 37 40  1  0  0  0
 37 41  1  0  0  0
 48 50  1  0  0  0
 38 29  1  0  0  0
 45 44  1  0  0  0
 25 27  1  0  0  0
 25 35  1  0  0  0
 25 28  1  0  0  0
 21 20  1  0  0  0
 21 22  1  0  0  0
 44 42  1  0  0  0
  2  1  1  0  0  0
  2  4  1  0  0  0
  2  5  1  0  0  0
 26 27  2  0  0  0
 42 43  2  0  0  0
 29 31  1  0  0  0
 29 36  1  0  0  0
  3  4  2  0  0  0
 43  1  1  0  0  0
  6  9  2  0  0  0
  6 10  1  0  0  0
  1 20  1  0  0  0
 30 36  2  0  0  0
  7  8  1  0  0  0
  7  9  1  0  0  0
 22 24  1  0  0  0
 22 23  1  0  0  0
 11 12  1  0  0  0
 11 18  1  0  0  0
 24 27  1  0  0  0
  4 10  1  0  0  0
 51 52  1  0  0  0
 52 53  1  0  0  0
 53 54  1  0  0  0
 54 55  1  0  0  0
 55 56  1  0  0  0
 56 57  1  0  0  0
 57 58  1  0  0  0
 58 59  1  0  0  0
 59 60  1  0  0  0
 60 61  1  0  0  0
 61 62  1  0  0  0
 62 63  1  0  0  0
 63 64  1  0  0  0
 64 65  1  0  0  0
 31 32  1  0  0  0
 32 33  1  0  0  0
 33 34  1  0  0  0
 34 35  1  0  0  0
 35 36  1  0  0  0
  8 10  1  0  0  0
  9 17  1  0  0  0
 12 13  2  0  0  0
 12 17  1  0  0  0
 13 14  1  0  0  0
 14 15  2  0  0  0
 15 16  1  0  0  0
 16 17  2  0  0  0
M  END
> <minimizedAffinity>
-8.86853

> <CNNscore>
0.0972672701

> <CNNaffinity>
6.8264818192

> <CNN_VS>
0.6639932394

> <CNNaffinity_variance>
0.3664770722

$$$$
/media/chris/experiments/cd1a-new-docking/inputs/ligands/1xz0_ligand.pdb


 65 67  0  0  0  0  0  0  0  0999 V2000
  -39.2768   59.0869   64.1805 C   0  0  0  0  0  0  0  0  0  0  0  0
  -39.0320   60.1549   65.1519 N   0  0  0  0  0  0  0  0  0  0  0  0
  -37.8846   61.8816   66.0871 O   0  0  0  0  0  0  0  0  0  0  0  0
  -38.0089   61.0241   65.2227 C   0  0  0  0  0  0  0  0  0  0  0  0
  -39.7151   60.2502   65.8544 H   0  0  0  0  0  0  0  0  0  0  0  0
  -35.6314   61.3375   64.5669 N   0  0  0  0  0  0  0  0  0  0  0  0
  -35.9109   62.7299   62.8421 O   0  0  0  0  0  0  0  0  0  0  0  0
  -37.1446   62.0161   62.9113 C   0  0  0  0  0  0  0  0  0  0  0  0
  -35.0628   62.2519   63.9052 C   0  0  0  0  0  0  0  0  0  0  0  0
  -36.9908   61.0170   64.0914 C   0  0  0  0  0  0  0  0  0  0  0  0
  -32.9861   62.3395   61.8861 O   0  0  0  0  0  0  0  0  0  0  0  0
  -32.7070   62.7819   63.1182 C   0  0  0  0  0  0  0  0  0  0  0  0
  -31.4317   63.2893   63.3996 C   0  0  0  0  0  0  0  0  0  0  0  0
  -31.1109   63.7509   64.6873 C   0  0  0  0  0  0  0  0  0  0  0  0
  -32.0650   63.7198   65.7058 C   0  0  0  0  0  0  0  0  0  0  0  0
  -33.3406   63.2204   65.4284 C   0  0  0  0  0  0  0  0  0  0  0  0
  -33.6624   62.7489   64.1413 C   0  0  0  0  0  0  0  0  0  0  0  0
  -32.3307   62.3714   61.2171 H   0  0  0  0  0  0  0  0  0  0  0  0
  -40.2658   60.9184   62.9962 O   0  0  0  0  0  0  0  0  0  0  0  0
  -40.0369   59.7206   63.0309 C   0  0  0  0  0  0  0  0  0  0  0  0
  -40.5756   58.8768   61.9591 O   0  0  0  0  0  0  0  0  0  0  0  0
  -39.7253   58.3430   60.9267 C   0  0  0  0  0  0  0  0  0  0  0  0
  -40.3483   57.2141   60.1149 C   0  0  0  0  0  0  0  0  0  0  0  0
  -38.4159   57.9028   61.5639 C   0  0  0  0  0  0  0  0  0  0  0  0
  -36.0991   58.6255   61.8900 N   0  0  0  0  0  0  0  0  0  0  0  0
  -37.4564   59.6738   60.4154 O   0  0  0  0  0  0  0  0  0  0  0  0
  -37.2683   58.8366   61.2680 C   0  0  0  0  0  0  0  0  0  0  0  0
  -35.3390   59.2003   61.6426 H   0  0  0  0  0  0  0  0  0  0  0  0
  -34.1683   58.6238   64.3652 N   0  0  0  0  0  0  0  0  0  0  0  0
  -36.1536   57.9999   65.2224 O   0  0  0  0  0  0  0  0  0  0  0  0
  -33.3074   59.0285   63.2441 C   0  0  0  0  0  0  0  0  0  0  0  0
  -32.8356   57.7976   62.4472 C   0  0  0  0  0  0  0  0  0  0  0  0
  -33.4795   56.4803   62.8467 C   0  0  0  0  0  0  0  0  0  0  0  0
  -34.9723   56.4180   62.5125 C   0  0  0  0  0  0  0  0  0  0  0  0
  -35.8727   57.5985   62.9132 C   0  0  0  0  0  0  0  0  0  0  0  0
  -35.4043   58.1096   64.2616 C   0  0  0  0  0  0  0  0  0  0  0  0
  -33.4887   60.4347   66.3101 Si  0  0  0  0  0  0  0  0  0  0  0  0
  -33.6706   58.7948   65.6218 O   0  0  0  0  0  0  0  0  0  0  0  0
  -32.9532   60.3406   67.6219 H   0  0  0  0  0  0  0  0  0  0  0  0
  -34.7576   61.0699   66.3613 H   0  0  0  0  0  0  0  0  0  0  0  0
  -32.6108   61.1959   65.4939 H   0  0  0  0  0  0  0  0  0  0  0  0
  -41.3785   57.5181   64.3063 C   0  0  0  0  0  0  0  0  0  0  0  0
  -39.9210   57.7806   64.7048 C   0  0  0  0  0  0  0  0  0  0  0  0
  -42.1540   56.4891   65.1464 C   0  0  0  0  0  0  0  0  0  0  0  0
  -42.7868   56.9790   66.4652 C   0  0  0  0  0  0  0  0  0  0  0  0
  -44.0781   57.5993   66.1530 N   0  0  0  0  0  0  0  0  0  0  0  0
  -44.4128   58.9166   66.1345 C   0  0  0  0  0  0  0  0  0  0  0  0
  -45.0873   56.6806   65.8321 O   0  0  0  0  0  0  0  0  0  0  0  0
  -43.5828   59.7884   66.3913 O   0  0  0  0  0  0  0  0  0  0  0  0
  -45.9092   57.1578   65.6380 H   0  0  0  0  0  0  0  0  0  0  0  0
  -45.8535   59.3112   65.7928 C   0  0  0  0  0  0  0  0  0  0  0  0
  -46.0209   59.9812   64.4222 C   0  0  0  0  0  0  0  0  0  0  0  0
  -47.5133   60.2387   64.1385 C   0  0  0  0  0  0  0  0  0  0  0  0
  -48.3820   60.2855   65.4099 C   0  0  0  0  0  0  0  0  0  0  0  0
  -49.6486   59.4111   65.3538 C   0  0  0  0  0  0  0  0  0  0  0  0
  -49.4382   58.0995   64.5684 C   0  0  0  0  0  0  0  0  0  0  0  0
  -50.2457   58.0027   63.2531 C   0  0  0  0  0  0  0  0  0  0  0  0
  -51.1401   59.2208   62.9952 C   0  0  0  0  0  0  0  0  0  0  0  0
  -50.5843   60.2430   61.9987 C   0  0  0  0  0  0  0  0  0  0  0  0
  -49.4148   59.6566   61.1869 C   0  0  0  0  0  0  0  0  0  0  0  0
  -49.8169   59.1482   59.7941 C   0  0  0  0  0  0  0  0  0  0  0  0
  -49.5217   57.6710   59.5140 C   0  0  0  0  0  0  0  0  0  0  0  0
  -48.0161   57.3074   59.5389 C   0  0  0  0  0  0  0  0  0  0  0  0
  -47.4696   57.0658   58.1172 C   0  0  0  0  0  0  0  0  0  0  0  0
  -47.4090   58.2748   57.1760 C   0  0  0  0  0  0  0  0  0  0  0  0
 46 47  1  0  0  0
 46 48  1  0  0  0
 46 45  1  0  0  0
 47 49  2  0  0  0
 47 51  1  0  0  0
 19 20  2  0  0  0
 37 38  1  0  0  0
 37 39  1  0  0  0
 37 40  1  0  0  0
 37 41  1  0  0  0
 48 50  1  0  0  0
 38 29  1  0  0  0
 45 44  1  0  0  0
 25 27  1  0  0  0
 25 35  1  0  0  0
 25 28  1  0  0  0
 21 20  1  0  0  0
 21 22  1  0  0  0
 44 42  1  0  0  0
  2  1  1  0  0  0
  2  4  1  0  0  0
  2  5  1  0  0  0
 26 27  2  0  0  0
 42 43  2  0  0  0
 29 31  1  0  0  0
 29 36  1  0  0  0
  3  4  2  0  0  0
 43  1  1  0  0  0
  6  9  2  0  0  0
  6 10  1  0  0  0
  1 20  1  0  0  0
 30 36  2  0  0  0
  7  8  1  0  0  0
  7  9  1  0  0  0
 22 24  1  0  0  0
 22 23  1  0  0  0
 11 12  1  0  0  0
 11 18  1  0  0  0
 24 27  1  0  0  0
  4 10  1  0  0  0
 51 52  1  0  0  0
 52 53  1  0  0  0
 53 54  1  0  0  0
 54 55  1  0  0  0
 55 56  1  0  0  0
 56 57  1  0  0  0
 57 58  1  0  0  0
 58 59  1  0  0  0
 59 60  1  0  0  0
 60 61  1  0  0  0
 61 62  1  0  0  0
 62 63  1  0  0  0
 63 64  1  0  0  0
 64 65  1  0  0  0
 31 32  1  0  0  0
 32 33  1  0  0  0
 33 34  1  0  0  0
 34 35  1  0  0  0
 35 36  1  0  0  0
  8 10  1  0  0  0
  9 17  1  0  0  0
 12 13  2  0  0  0
 12 17  1  0  0  0
 13 14  1  0  0  0
 14 15  2  0  0  0
 15 16  1  0  0  0
 16 17  2  0  0  0
M  END
> <minimizedAffinity>
-8.34108

> <CNNscore>
0.0942448750

> <CNNaffinity>
7.2092308998

> <CNN_VS>
0.6794330478

> <CNNaffinity_variance>
0.7425190806

$$$$
/media/chris/experiments/cd1a-new-docking/inputs/ligands/1xz0_ligand.pdb


 65 67  0  0  0  0  0  0  0  0999 V2000
  -44.1797   58.8305   65.3525 C   0  0  0  0  0  0  0  0  0  0  0  0
  -45.2093   59.4070   66.2195 N   0  0  0  0  0  0  0  0  0  0  0  0
  -47.3272   59.7549   66.9720 O   0  0  0  0  0  0  0  0  0  0  0  0
  -46.5396   59.2136   66.2073 C   0  0  0  0  0  0  0  0  0  0  0  0
  -44.8799   60.0255   66.9110 H   0  0  0  0  0  0  0  0  0  0  0  0
  -47.3625   58.7271   63.9124 N   0  0  0  0  0  0  0  0  0  0  0  0
  -49.2770   57.6951   64.4242 O   0  0  0  0  0  0  0  0  0  0  0  0
  -48.4536   57.4805   65.5698 C   0  0  0  0  0  0  0  0  0  0  0  0
  -48.5233   58.4793   63.4781 C   0  0  0  0  0  0  0  0  0  0  0  0
  -47.0970   58.1683   65.2518 C   0  0  0  0  0  0  0  0  0  0  0  0
  -49.5225   56.6384   61.4756 O   0  0  0  0  0  0  0  0  0  0  0  0
  -49.5343   57.9501   61.2092 C   0  0  0  0  0  0  0  0  0  0  0  0
  -50.0406   58.4035   59.9840 C   0  0  0  0  0  0  0  0  0  0  0  0
  -50.0552   59.7745   59.6766 C   0  0  0  0  0  0  0  0  0  0  0  0
  -49.5730   60.7086   60.5951 C   0  0  0  0  0  0  0  0  0  0  0  0
  -49.0727   60.2617   61.8213 C   0  0  0  0  0  0  0  0  0  0  0  0
  -49.0486   58.8878   62.1287 C   0  0  0  0  0  0  0  0  0  0  0  0
  -49.8530   56.0292   60.8450 H   0  0  0  0  0  0  0  0  0  0  0  0
  -44.5871   56.9119   66.7267 O   0  0  0  0  0  0  0  0  0  0  0  0
  -43.8487   57.4675   65.9301 C   0  0  0  0  0  0  0  0  0  0  0  0
  -42.5806   56.8168   65.5844 O   0  0  0  0  0  0  0  0  0  0  0  0
  -42.4700   55.9528   64.4376 C   0  0  0  0  0  0  0  0  0  0  0  0
  -41.3927   54.8817   64.5542 C   0  0  0  0  0  0  0  0  0  0  0  0
  -42.2531   56.8175   63.2049 C   0  0  0  0  0  0  0  0  0  0  0  0
  -40.3729   56.7859   61.6364 N   0  0  0  0  0  0  0  0  0  0  0  0
  -41.7401   54.9982   61.8620 O   0  0  0  0  0  0  0  0  0  0  0  0
  -41.4329   56.1352   62.1380 C   0  0  0  0  0  0  0  0  0  0  0  0
  -39.8075   56.3076   60.9878 H   0  0  0  0  0  0  0  0  0  0  0  0
  -40.6256   59.4390   59.9775 N   0  0  0  0  0  0  0  0  0  0  0  0
  -41.5287   59.9561   61.9732 O   0  0  0  0  0  0  0  0  0  0  0  0
  -39.9752   58.5014   59.0503 C   0  0  0  0  0  0  0  0  0  0  0  0
  -38.4624   58.4205   59.3290 C   0  0  0  0  0  0  0  0  0  0  0  0
  -37.9926   59.1503   60.5766 C   0  0  0  0  0  0  0  0  0  0  0  0
  -38.5041   58.5130   61.8712 C   0  0  0  0  0  0  0  0  0  0  0  0
  -39.9965   58.1603   61.9861 C   0  0  0  0  0  0  0  0  0  0  0  0
  -40.7912   59.2522   61.2968 C   0  0  0  0  0  0  0  0  0  0  0  0
  -42.4122   61.4981   60.2811 Si  0  0  0  0  0  0  0  0  0  0  0  0
  -41.1121   60.5964   59.4487 O   0  0  0  0  0  0  0  0  0  0  0  0
  -42.7379   62.6591   59.5313 H   0  0  0  0  0  0  0  0  0  0  0  0
  -41.9699   61.8792   61.5755 H   0  0  0  0  0  0  0  0  0  0  0  0
  -43.5613   60.6721   60.3977 H   0  0  0  0  0  0  0  0  0  0  0  0
  -41.6289   59.3019   65.7587 C   0  0  0  0  0  0  0  0  0  0  0  0
  -42.9323   59.6971   65.0538 C   0  0  0  0  0  0  0  0  0  0  0  0
  -40.5236   60.3695   65.8250 C   0  0  0  0  0  0  0  0  0  0  0  0
  -39.3929   60.2891   64.7788 C   0  0  0  0  0  0  0  0  0  0  0  0
  -38.1340   60.6598   65.4328 N   0  0  0  0  0  0  0  0  0  0  0  0
  -37.1307   61.4523   64.9714 C   0  0  0  0  0  0  0  0  0  0  0  0
  -37.9723   60.1054   66.7102 O   0  0  0  0  0  0  0  0  0  0  0  0
  -37.1996   61.9882   63.8655 O   0  0  0  0  0  0  0  0  0  0  0  0
  -37.1227   60.3909   67.0815 H   0  0  0  0  0  0  0  0  0  0  0  0
  -35.8940   61.6702   65.8495 C   0  0  0  0  0  0  0  0  0  0  0  0
  -35.6479   63.1313   66.2496 C   0  0  0  0  0  0  0  0  0  0  0  0
  -34.2189   63.2945   66.8024 C   0  0  0  0  0  0  0  0  0  0  0  0
  -33.7015   64.7446   66.7511 C   0  0  0  0  0  0  0  0  0  0  0  0
  -32.4810   64.9581   65.8363 C   0  0  0  0  0  0  0  0  0  0  0  0
  -31.7041   63.6542   65.5581 C   0  0  0  0  0  0  0  0  0  0  0  0
  -31.5140   63.3282   64.0584 C   0  0  0  0  0  0  0  0  0  0  0  0
  -32.7580   63.6142   63.2094 C   0  0  0  0  0  0  0  0  0  0  0  0
  -33.7490   62.4525   63.0863 C   0  0  0  0  0  0  0  0  0  0  0  0
  -33.0198   61.0985   63.0110 C   0  0  0  0  0  0  0  0  0  0  0  0
  -33.8420   59.9178   63.5494 C   0  0  0  0  0  0  0  0  0  0  0  0
  -34.2068   58.8387   62.5247 C   0  0  0  0  0  0  0  0  0  0  0  0
  -35.0467   57.6718   63.1015 C   0  0  0  0  0  0  0  0  0  0  0  0
  -35.4229   57.9212   64.5761 C   0  0  0  0  0  0  0  0  0  0  0  0
  -36.7656   57.3609   65.0601 C   0  0  0  0  0  0  0  0  0  0  0  0
 46 47  1  0  0  0
 46 48  1  0  0  0
 46 45  1  0  0  0
 47 49  2  0  0  0
 47 51  1  0  0  0
 19 20  2  0  0  0
 37 38  1  0  0  0
 37 39  1  0  0  0
 37 40  1  0  0  0
 37 41  1  0  0  0
 48 50  1  0  0  0
 38 29  1  0  0  0
 45 44  1  0  0  0
 25 27  1  0  0  0
 25 35  1  0  0  0
 25 28  1  0  0  0
 21 20  1  0  0  0
 21 22  1  0  0  0
 44 42  1  0  0  0
  2  1  1  0  0  0
  2  4  1  0  0  0
  2  5  1  0  0  0
 26 27  2  0  0  0
 42 43  2  0  0  0
 29 31  1  0  0  0
 29 36  1  0  0  0
  3  4  2  0  0  0
 43  1  1  0  0  0
  6  9  2  0  0  0
  6 10  1  0  0  0
  1 20  1  0  0  0
 30 36  2  0  0  0
  7  8  1  0  0  0
  7  9  1  0  0  0
 22 24  1  0  0  0
 22 23  1  0  0  0
 11 12  1  0  0  0
 11 18  1  0  0  0
 24 27  1  0  0  0
  4 10  1  0  0  0
 51 52  1  0  0  0
 52 53  1  0  0  0
 53 54  1  0  0  0
 54 55  1  0  0  0
 55 56  1  0  0  0
 56 57  1  0  0  0
 57 58  1  0  0  0
 58 59  1  0  0  0
 59 60  1  0  0  0
 60 61  1  0  0  0
 61 62  1  0  0  0
 62 63  1  0  0  0
 63 64  1  0  0  0
 64 65  1  0  0  0
 31 32  1  0  0  0
 32 33  1  0  0  0
 33 34  1  0  0  0
 34 35  1  0  0  0
 35 36  1  0  0  0
  8 10  1  0  0  0
  9 17  1  0  0  0
 12 13  2  0  0  0
 12 17  1  0  0  0
 13 14  1  0  0  0
 14 15  2  0  0  0
 15 16  1  0  0  0
 16 17  2  0  0  0
M  END
> <minimizedAffinity>
-8.44166

> <CNNscore>
0.0927907676

> <CNNaffinity>
7.6688604355

> <CNN_VS>
0.7115994692

> <CNNaffinity_variance>
1.0522992611

$$$$
/media/chris/experiments/cd1a-new-docking/inputs/ligands/1xz0_ligand.pdb


 65 67  0  0  0  0  0  0  0  0999 V2000
  -37.6979   58.2578   62.2982 C   0  0  0  0  0  0  0  0  0  0  0  0
  -37.3519   58.3030   60.8761 N   0  0  0  0  0  0  0  0  0  0  0  0
  -37.5609   58.9756   58.7135 O   0  0  0  0  0  0  0  0  0  0  0  0
  -37.9158   59.0141   59.8842 C   0  0  0  0  0  0  0  0  0  0  0  0
  -36.5976   57.7301   60.6075 H   0  0  0  0  0  0  0  0  0  0  0  0
  -39.1340   60.1707   61.7169 N   0  0  0  0  0  0  0  0  0  0  0  0
  -41.2331   59.8098   61.0421 O   0  0  0  0  0  0  0  0  0  0  0  0
  -40.4701   59.7536   59.8375 C   0  0  0  0  0  0  0  0  0  0  0  0
  -40.3219   60.0533   62.1322 C   0  0  0  0  0  0  0  0  0  0  0  0
  -38.9972   60.0184   60.2558 C   0  0  0  0  0  0  0  0  0  0  0  0
  -42.9552   60.9287   62.9669 O   0  0  0  0  0  0  0  0  0  0  0  0
  -42.0520   60.6164   63.9042 C   0  0  0  0  0  0  0  0  0  0  0  0
  -42.4009   60.7028   65.2584 C   0  0  0  0  0  0  0  0  0  0  0  0
  -41.4680   60.3896   66.2613 C   0  0  0  0  0  0  0  0  0  0  0  0
  -40.1785   59.9767   65.9213 C   0  0  0  0  0  0  0  0  0  0  0  0
  -39.8277   59.8828   64.5716 C   0  0  0  0  0  0  0  0  0  0  0  0
  -40.7576   60.2044   63.5644 C   0  0  0  0  0  0  0  0  0  0  0  0
  -43.8156   61.2019   63.2180 H   0  0  0  0  0  0  0  0  0  0  0  0
  -36.2592   58.0080   64.1964 O   0  0  0  0  0  0  0  0  0  0  0  0
  -36.3976   58.4300   63.0601 C   0  0  0  0  0  0  0  0  0  0  0  0
  -35.2912   59.1792   62.4554 O   0  0  0  0  0  0  0  0  0  0  0  0
  -33.9551   58.6431   62.4187 C   0  0  0  0  0  0  0  0  0  0  0  0
  -33.8685   57.1425   62.6681 C   0  0  0  0  0  0  0  0  0  0  0  0
  -33.1013   59.4150   63.4135 C   0  0  0  0  0  0  0  0  0  0  0  0
  -33.2418   61.8054   63.9259 N   0  0  0  0  0  0  0  0  0  0  0  0
  -32.3807   61.0765   61.9656 O   0  0  0  0  0  0  0  0  0  0  0  0
  -32.9084   60.8622   63.0328 C   0  0  0  0  0  0  0  0  0  0  0  0
  -33.0528   62.7431   63.6931 H   0  0  0  0  0  0  0  0  0  0  0  0
  -35.6436   63.2408   65.3492 N   0  0  0  0  0  0  0  0  0  0  0  0
  -36.1659   61.0549   65.4704 O   0  0  0  0  0  0  0  0  0  0  0  0
  -34.7568   64.3438   64.9507 C   0  0  0  0  0  0  0  0  0  0  0  0
  -33.6112   64.5161   65.9659 C   0  0  0  0  0  0  0  0  0  0  0  0
  -33.5206   63.4360   67.0312 C   0  0  0  0  0  0  0  0  0  0  0  0
  -33.1288   62.0684   66.4653 C   0  0  0  0  0  0  0  0  0  0  0  0
  -33.8684   61.5384   65.2255 C   0  0  0  0  0  0  0  0  0  0  0  0
  -35.3268   61.9360   65.3433 C   0  0  0  0  0  0  0  0  0  0  0  0
  -37.1819   64.2767   67.3701 Si  0  0  0  0  0  0  0  0  0  0  0  0
  -36.9025   63.5719   65.7511 O   0  0  0  0  0  0  0  0  0  0  0  0
  -38.5684   64.5301   67.5431 H   0  0  0  0  0  0  0  0  0  0  0  0
  -36.4601   65.4938   67.4876 H   0  0  0  0  0  0  0  0  0  0  0  0
  -36.7394   63.3659   68.3656 H   0  0  0  0  0  0  0  0  0  0  0  0
  -39.7493   56.6636   61.9186 C   0  0  0  0  0  0  0  0  0  0  0  0
  -38.5493   57.0609   62.7869 C   0  0  0  0  0  0  0  0  0  0  0  0
  -40.8320   55.7971   62.5841 C   0  0  0  0  0  0  0  0  0  0  0  0
  -41.3595   56.2506   63.9609 C   0  0  0  0  0  0  0  0  0  0  0  0
  -42.5913   57.0178   63.7515 N   0  0  0  0  0  0  0  0  0  0  0  0
  -43.5778   57.3121   64.6391 C   0  0  0  0  0  0  0  0  0  0  0  0
  -42.7439   57.5025   62.4449 O   0  0  0  0  0  0  0  0  0  0  0  0
  -43.5150   56.9357   65.8092 O   0  0  0  0  0  0  0  0  0  0  0  0
  -43.5755   57.9975   62.3787 H   0  0  0  0  0  0  0  0  0  0  0  0
  -44.7877   58.1221   64.1617 C   0  0  0  0  0  0  0  0  0  0  0  0
  -45.6234   58.7413   65.2902 C   0  0  0  0  0  0  0  0  0  0  0  0
  -46.4887   59.8904   64.7379 C   0  0  0  0  0  0  0  0  0  0  0  0
  -47.7486   60.1707   65.5789 C   0  0  0  0  0  0  0  0  0  0  0  0
  -48.5678   58.9185   65.9437 C   0  0  0  0  0  0  0  0  0  0  0  0
  -50.0495   59.0283   65.5271 C   0  0  0  0  0  0  0  0  0  0  0  0
  -50.4115   58.2589   64.2354 C   0  0  0  0  0  0  0  0  0  0  0  0
  -51.1750   59.1085   63.2129 C   0  0  0  0  0  0  0  0  0  0  0  0
  -50.5157   60.4416   62.8454 C   0  0  0  0  0  0  0  0  0  0  0  0
  -49.2787   60.2288   61.9536 C   0  0  0  0  0  0  0  0  0  0  0  0
  -49.5916   60.2081   60.4497 C   0  0  0  0  0  0  0  0  0  0  0  0
  -49.1564   58.9468   59.6967 C   0  0  0  0  0  0  0  0  0  0  0  0
  -48.8557   57.7324   60.6104 C   0  0  0  0  0  0  0  0  0  0  0  0
  -48.6691   56.4403   59.7896 C   0  0  0  0  0  0  0  0  0  0  0  0
  -47.3936   56.3249   58.9464 C   0  0  0  0  0  0  0  0  0  0  0  0
 46 47  1  0  0  0
 46 48  1  0  0  0
 46 45  1  0  0  0
 47 49  2  0  0  0
 47 51  1  0  0  0
 19 20  2  0  0  0
 37 38  1  0  0  0
 37 39  1  0  0  0
 37 40  1  0  0  0
 37 41  1  0  0  0
 48 50  1  0  0  0
 38 29  1  0  0  0
 45 44  1  0  0  0
 25 27  1  0  0  0
 25 35  1  0  0  0
 25 28  1  0  0  0
 21 20  1  0  0  0
 21 22  1  0  0  0
 44 42  1  0  0  0
  2  1  1  0  0  0
  2  4  1  0  0  0
  2  5  1  0  0  0
 26 27  2  0  0  0
 42 43  2  0  0  0
 29 31  1  0  0  0
 29 36  1  0  0  0
  3  4  2  0  0  0
 43  1  1  0  0  0
  6  9  2  0  0  0
  6 10  1  0  0  0
  1 20  1  0  0  0
 30 36  2  0  0  0
  7  8  1  0  0  0
  7  9  1  0  0  0
 22 24  1  0  0  0
 22 23  1  0  0  0
 11 12  1  0  0  0
 11 18  1  0  0  0
 24 27  1  0  0  0
  4 10  1  0  0  0
 51 52  1  0  0  0
 52 53  1  0  0  0
 53 54  1  0  0  0
 54 55  1  0  0  0
 55 56  1  0  0  0
 56 57  1  0  0  0
 57 58  1  0  0  0
 58 59  1  0  0  0
 59 60  1  0  0  0
 60 61  1  0  0  0
 61 62  1  0  0  0
 62 63  1  0  0  0
 63 64  1  0  0  0
 64 65  1  0  0  0
 31 32  1  0  0  0
 32 33  1  0  0  0
 33 34  1  0  0  0
 34 35  1  0  0  0
 35 36  1  0  0  0
  8 10  1  0  0  0
  9 17  1  0  0  0
 12 13  2  0  0  0
 12 17  1  0  0  0
 13 14  1  0  0  0
 14 15  2  0  0  0
 15 16  1  0  0  0
 16 17  2  0  0  0
M  END
> <minimizedAffinity>
-9.79069

> <CNNscore>
0.0892912447

> <CNNaffinity>
7.2491693497

> <CNN_VS>
0.6472873688

> <CNNaffinity_variance>
1.3879100084

$$$$
