/media/chris/experiments/cd1a-new-docking/inputs/ligands/1xz0_ligand.pdb


 65 67  0  0  0  0  0  0  0  0999 V2000
  -40.8386   59.0275   64.9329 C   0  0  0  0  0  0  0  0  0  0  0  0
  -39.4343   58.9001   65.3274 N   0  0  0  0  0  0  0  0  0  0  0  0
  -38.5052   60.8221   64.5429 O   0  0  0  0  0  0  0  0  0  0  0  0
  -38.4118   59.7489   65.1240 C   0  0  0  0  0  0  0  0  0  0  0  0
  -39.2059   58.0738   65.8114 H   0  0  0  0  0  0  0  0  0  0  0  0
  -35.9598   60.0631   64.8618 N   0  0  0  0  0  0  0  0  0  0  0  0
  -35.3546   57.9380   64.5306 O   0  0  0  0  0  0  0  0  0  0  0  0
  -36.5681   57.8381   65.2748 C   0  0  0  0  0  0  0  0  0  0  0  0
  -35.0797   59.3369   64.3180 C   0  0  0  0  0  0  0  0  0  0  0  0
  -37.0204   59.2997   65.5464 C   0  0  0  0  0  0  0  0  0  0  0  0
  -33.5177   57.7840   62.4350 O   0  0  0  0  0  0  0  0  0  0  0  0
  -33.1607   59.0508   62.6791 C   0  0  0  0  0  0  0  0  0  0  0  0
  -32.0580   59.6005   62.0122 C   0  0  0  0  0  0  0  0  0  0  0  0
  -31.6575   60.9247   62.2579 C   0  0  0  0  0  0  0  0  0  0  0  0
  -32.3613   61.7174   63.1661 C   0  0  0  0  0  0  0  0  0  0  0  0
  -33.4660   61.1758   63.8292 C   0  0  0  0  0  0  0  0  0  0  0  0
  -33.8644   59.8463   63.5916 C   0  0  0  0  0  0  0  0  0  0  0  0
  -33.0318   57.2705   61.8200 H   0  0  0  0  0  0  0  0  0  0  0  0
  -41.3181   61.2227   65.7613 O   0  0  0  0  0  0  0  0  0  0  0  0
  -41.1097   60.5131   64.7910 C   0  0  0  0  0  0  0  0  0  0  0  0
  -41.1934   61.1155   63.4564 O   0  0  0  0  0  0  0  0  0  0  0  0
  -42.4621   61.4557   62.8661 C   0  0  0  0  0  0  0  0  0  0  0  0
  -43.5737   60.4479   63.1313 C   0  0  0  0  0  0  0  0  0  0  0  0
  -42.2558   61.6652   61.3735 C   0  0  0  0  0  0  0  0  0  0  0  0
  -41.4525   59.3523   61.4024 N   0  0  0  0  0  0  0  0  0  0  0  0
  -41.4713   60.5615   59.4912 O   0  0  0  0  0  0  0  0  0  0  0  0
  -41.6552   60.4656   60.6831 C   0  0  0  0  0  0  0  0  0  0  0  0
  -41.6366   59.3920   62.3688 H   0  0  0  0  0  0  0  0  0  0  0  0
  -38.7592   57.8153   61.8906 N   0  0  0  0  0  0  0  0  0  0  0  0
  -40.3447   56.2484   62.2011 O   0  0  0  0  0  0  0  0  0  0  0  0
  -38.3327   59.1862   61.5738 C   0  0  0  0  0  0  0  0  0  0  0  0
  -38.3197   59.4148   60.0506 C   0  0  0  0  0  0  0  0  0  0  0  0
  -38.9070   58.2856   59.2201 C   0  0  0  0  0  0  0  0  0  0  0  0
  -40.4158   58.1183   59.4191 C   0  0  0  0  0  0  0  0  0  0  0  0
  -40.9760   58.0788   60.8508 C   0  0  0  0  0  0  0  0  0  0  0  0
  -39.9937   57.3163   61.7182 C   0  0  0  0  0  0  0  0  0  0  0  0
  -36.0850   57.4061   62.3436 Si  0  0  0  0  0  0  0  0  0  0  0  0
  -37.8196   56.9796   62.4148 O   0  0  0  0  0  0  0  0  0  0  0  0
  -35.3192   56.3778   62.9539 H   0  0  0  0  0  0  0  0  0  0  0  0
  -35.8696   58.6290   63.0324 H   0  0  0  0  0  0  0  0  0  0  0  0
  -35.6883   57.5505   60.9878 H   0  0  0  0  0  0  0  0  0  0  0  0
  -42.9562   57.4787   65.0386 C   0  0  0  0  0  0  0  0  0  0  0  0
  -41.8905   58.2843   65.7917 C   0  0  0  0  0  0  0  0  0  0  0  0
  -44.2284   57.1088   65.8199 C   0  0  0  0  0  0  0  0  0  0  0  0
  -45.2872   58.2127   66.0194 C   0  0  0  0  0  0  0  0  0  0  0  0
  -46.6148   57.5937   65.9548 N   0  0  0  0  0  0  0  0  0  0  0  0
  -47.6702   57.9127   65.1599 C   0  0  0  0  0  0  0  0  0  0  0  0
  -46.7889   56.5273   66.8481 O   0  0  0  0  0  0  0  0  0  0  0  0
  -48.7292   57.2890   65.2263 O   0  0  0  0  0  0  0  0  0  0  0  0
  -47.6846   56.1676   66.7516 H   0  0  0  0  0  0  0  0  0  0  0  0
  -47.5256   59.0672   64.1628 C   0  0  0  0  0  0  0  0  0  0  0  0
  -47.6624   60.4642   64.7836 C   0  0  0  0  0  0  0  0  0  0  0  0
  -49.0087   60.5843   65.5233 C   0  0  0  0  0  0  0  0  0  0  0  0
  -50.2012   60.8638   64.5888 C   0  0  0  0  0  0  0  0  0  0  0  0
  -51.1299   59.6574   64.3558 C   0  0  0  0  0  0  0  0  0  0  0  0
  -51.1757   59.2116   62.8793 C   0  0  0  0  0  0  0  0  0  0  0  0
  -50.6960   60.2814   61.8707 C   0  0  0  0  0  0  0  0  0  0  0  0
  -49.4112   59.8901   61.1315 C   0  0  0  0  0  0  0  0  0  0  0  0
  -49.6173   59.1883   59.7855 C   0  0  0  0  0  0  0  0  0  0  0  0
  -50.0986   57.7383   59.9766 C   0  0  0  0  0  0  0  0  0  0  0  0
  -48.9627   56.7309   60.2098 C   0  0  0  0  0  0  0  0  0  0  0  0
  -48.3861   56.0746   58.9510 C   0  0  0  0  0  0  0  0  0  0  0  0
  -47.0197   56.6503   58.5026 C   0  0  0  0  0  0  0  0  0  0  0  0
  -47.1925   57.7486   57.4339 C   0  0  0  0  0  0  0  0  0  0  0  0
  -48.1062   57.4300   56.2444 C   0  0  0  0  0  0  0  0  0  0  0  0
 46 47  1  0  0  0
 46 48  1  0  0  0
 46 45  1  0  0  0
 47 49  2  0  0  0
 47 51  1  0  0  0
 19 20  2  0  0  0
 37 38  1  0  0  0
 37 39  1  0  0  0
 37 40  1  0  0  0
 37 41  1  0  0  0
 48 50  1  0  0  0
 38 29  1  0  0  0
 45 44  1  0  0  0
 25 27  1  0  0  0
 25 35  1  0  0  0
 25 28  1  0  0  0
 21 20  1  0  0  0
 21 22  1  0  0  0
 44 42  1  0  0  0
  2  1  1  0  0  0
  2  4  1  0  0  0
  2  5  1  0  0  0
 26 27  2  0  0  0
 42 43  2  0  0  0
 29 31  1  0  0  0
 29 36  1  0  0  0
  3  4  2  0  0  0
 43  1  1  0  0  0
  6  9  2  0  0  0
  6 10  1  0  0  0
  1 20  1  0  0  0
 30 36  2  0  0  0
  7  8  1  0  0  0
  7  9  1  0  0  0
 22 24  1  0  0  0
 22 23  1  0  0  0
 11 12  1  0  0  0
 11 18  1  0  0  0
 24 27  1  0  0  0
  4 10  1  0  0  0
 51 52  1  0  0  0
 52 53  1  0  0  0
 53 54  1  0  0  0
 54 55  1  0  0  0
 55 56  1  0  0  0
 56 57  1  0  0  0
 57 58  1  0  0  0
 58 59  1  0  0  0
 59 60  1  0  0  0
 60 61  1  0  0  0
 61 62  1  0  0  0
 62 63  1  0  0  0
 63 64  1  0  0  0
 64 65  1  0  0  0
 31 32  1  0  0  0
 32 33  1  0  0  0
 33 34  1  0  0  0
 34 35  1  0  0  0
 35 36  1  0  0  0
  8 10  1  0  0  0
  9 17  1  0  0  0
 12 13  2  0  0  0
 12 17  1  0  0  0
 13 14  1  0  0  0
 14 15  2  0  0  0
 15 16  1  0  0  0
 16 17  2  0  0  0
M  END
> <minimizedAffinity>
-10.08898

> <CNNscore>
0.3209159374

> <CNNaffinity>
7.8526701927

> <CNN_VS>
2.5200469494

> <CNNaffinity_variance>
2.2541058064

$$$$
/media/chris/experiments/cd1a-new-docking/inputs/ligands/1xz0_ligand.pdb


 65 67  0  0  0  0  0  0  0  0999 V2000
  -40.0964   58.2187   63.7874 C   0  0  0  0  0  0  0  0  0  0  0  0
  -38.6609   58.2869   64.0682 N   0  0  0  0  0  0  0  0  0  0  0  0
  -37.7719   56.8509   62.5449 O   0  0  0  0  0  0  0  0  0  0  0  0
  -37.6442   57.6415   63.4706 C   0  0  0  0  0  0  0  0  0  0  0  0
  -38.4032   58.8927   64.8002 H   0  0  0  0  0  0  0  0  0  0  0  0
  -36.1888   58.9351   65.0160 N   0  0  0  0  0  0  0  0  0  0  0  0
  -34.4797   59.3548   63.6393 O   0  0  0  0  0  0  0  0  0  0  0  0
  -35.0610   58.1626   63.1126 C   0  0  0  0  0  0  0  0  0  0  0  0
  -35.2515   59.7525   64.7900 C   0  0  0  0  0  0  0  0  0  0  0  0
  -36.2494   57.8191   64.0530 C   0  0  0  0  0  0  0  0  0  0  0  0
  -37.2061   61.2896   66.2779 O   0  0  0  0  0  0  0  0  0  0  0  0
  -35.9179   61.6472   66.3444 C   0  0  0  0  0  0  0  0  0  0  0  0
  -35.5420   62.7384   67.1387 C   0  0  0  0  0  0  0  0  0  0  0  0
  -34.1977   63.1394   67.2178 C   0  0  0  0  0  0  0  0  0  0  0  0
  -33.2125   62.4475   66.5112 C   0  0  0  0  0  0  0  0  0  0  0  0
  -33.5814   61.3542   65.7225 C   0  0  0  0  0  0  0  0  0  0  0  0
  -34.9290   60.9554   65.6343 C   0  0  0  0  0  0  0  0  0  0  0  0
  -37.8505   61.7674   66.7620 H   0  0  0  0  0  0  0  0  0  0  0  0
  -40.9947   58.5810   61.5971 O   0  0  0  0  0  0  0  0  0  0  0  0
  -40.3218   59.0163   62.5170 C   0  0  0  0  0  0  0  0  0  0  0  0
  -39.6664   60.3172   62.3462 O   0  0  0  0  0  0  0  0  0  0  0  0
  -38.7282   60.5490   61.2785 C   0  0  0  0  0  0  0  0  0  0  0  0
  -38.7599   59.5036   60.1705 C   0  0  0  0  0  0  0  0  0  0  0  0
  -37.3363   60.6685   61.8808 C   0  0  0  0  0  0  0  0  0  0  0  0
  -36.4133   62.9255   62.1042 N   0  0  0  0  0  0  0  0  0  0  0  0
  -37.7160   62.0279   63.7204 O   0  0  0  0  0  0  0  0  0  0  0  0
  -37.1352   61.9432   62.6626 C   0  0  0  0  0  0  0  0  0  0  0  0
  -35.9837   62.7418   61.2375 H   0  0  0  0  0  0  0  0  0  0  0  0
  -34.4383   65.2286   61.2978 N   0  0  0  0  0  0  0  0  0  0  0  0
  -36.4353   66.2542   61.4571 O   0  0  0  0  0  0  0  0  0  0  0  0
  -33.5799   64.0378   61.3797 C   0  0  0  0  0  0  0  0  0  0  0  0
  -33.1846   63.7501   62.8404 C   0  0  0  0  0  0  0  0  0  0  0  0
  -33.8850   64.6062   63.8827 C   0  0  0  0  0  0  0  0  0  0  0  0
  -35.3851   64.3176   63.9845 C   0  0  0  0  0  0  0  0  0  0  0  0
  -36.2185   64.2551   62.6935 C   0  0  0  0  0  0  0  0  0  0  0  0
  -35.6999   65.3208   61.7480 C   0  0  0  0  0  0  0  0  0  0  0  0
  -32.2568   66.2950   60.0220 Si  0  0  0  0  0  0  0  0  0  0  0  0
  -33.9090   66.3343   60.7035 O   0  0  0  0  0  0  0  0  0  0  0  0
  -31.9444   67.5630   59.4643 H   0  0  0  0  0  0  0  0  0  0  0  0
  -32.1859   65.3020   59.0094 H   0  0  0  0  0  0  0  0  0  0  0  0
  -31.3276   65.9887   61.0511 H   0  0  0  0  0  0  0  0  0  0  0  0
  -42.3399   57.7499   65.0684 C   0  0  0  0  0  0  0  0  0  0  0  0
  -41.0657   58.5928   64.9348 C   0  0  0  0  0  0  0  0  0  0  0  0
  -43.4911   58.3560   65.8887 C   0  0  0  0  0  0  0  0  0  0  0  0
  -44.9268   57.9199   65.5304 C   0  0  0  0  0  0  0  0  0  0  0  0
  -45.5900   59.0362   64.8493 N   0  0  0  0  0  0  0  0  0  0  0  0
  -46.8685   59.4794   64.9780 C   0  0  0  0  0  0  0  0  0  0  0  0
  -44.7650   59.7227   63.9473 O   0  0  0  0  0  0  0  0  0  0  0  0
  -47.2777   60.4414   64.3283 O   0  0  0  0  0  0  0  0  0  0  0  0
  -45.2660   60.4441   63.5355 H   0  0  0  0  0  0  0  0  0  0  0  0
  -47.8064   58.7649   65.9566 C   0  0  0  0  0  0  0  0  0  0  0  0
  -48.6954   57.6906   65.3154 C   0  0  0  0  0  0  0  0  0  0  0  0
  -50.1683   58.1425   65.3353 C   0  0  0  0  0  0  0  0  0  0  0  0
  -50.7367   58.4489   63.9366 C   0  0  0  0  0  0  0  0  0  0  0  0
  -51.1767   59.9102   63.7292 C   0  0  0  0  0  0  0  0  0  0  0  0
  -50.8618   60.4367   62.3134 C   0  0  0  0  0  0  0  0  0  0  0  0
  -49.5472   59.8950   61.7049 C   0  0  0  0  0  0  0  0  0  0  0  0
  -49.6986   59.4114   60.2581 C   0  0  0  0  0  0  0  0  0  0  0  0
  -50.6948   58.2662   60.0506 C   0  0  0  0  0  0  0  0  0  0  0  0
  -50.1851   56.9578   60.6821 C   0  0  0  0  0  0  0  0  0  0  0  0
  -48.6745   56.7337   60.5163 C   0  0  0  0  0  0  0  0  0  0  0  0
  -48.2469   55.9944   59.2441 C   0  0  0  0  0  0  0  0  0  0  0  0
  -47.1734   56.7352   58.4084 C   0  0  0  0  0  0  0  0  0  0  0  0
  -47.7744   57.9408   57.6576 C   0  0  0  0  0  0  0  0  0  0  0  0
  -46.9707   58.5022   56.4785 C   0  0  0  0  0  0  0  0  0  0  0  0
 46 47  1  0  0  0
 46 48  1  0  0  0
 46 45  1  0  0  0
 47 49  2  0  0  0
 47 51  1  0  0  0
 19 20  2  0  0  0
 37 38  1  0  0  0
 37 39  1  0  0  0
 37 40  1  0  0  0
 37 41  1  0  0  0
 48 50  1  0  0  0
 38 29  1  0  0  0
 45 44  1  0  0  0
 25 27  1  0  0  0
 25 35  1  0  0  0
 25 28  1  0  0  0
 21 20  1  0  0  0
 21 22  1  0  0  0
 44 42  1  0  0  0
  2  1  1  0  0  0
  2  4  1  0  0  0
  2  5  1  0  0  0
 26 27  2  0  0  0
 42 43  2  0  0  0
 29 31  1  0  0  0
 29 36  1  0  0  0
  3  4  2  0  0  0
 43  1  1  0  0  0
  6  9  2  0  0  0
  6 10  1  0  0  0
  1 20  1  0  0  0
 30 36  2  0  0  0
  7  8  1  0  0  0
  7  9  1  0  0  0
 22 24  1  0  0  0
 22 23  1  0  0  0
 11 12  1  0  0  0
 11 18  1  0  0  0
 24 27  1  0  0  0
  4 10  1  0  0  0
 51 52  1  0  0  0
 52 53  1  0  0  0
 53 54  1  0  0  0
 54 55  1  0  0  0
 55 56  1  0  0  0
 56 57  1  0  0  0
 57 58  1  0  0  0
 58 59  1  0  0  0
 59 60  1  0  0  0
 60 61  1  0  0  0
 61 62  1  0  0  0
 62 63  1  0  0  0
 63 64  1  0  0  0
 64 65  1  0  0  0
 31 32  1  0  0  0
 32 33  1  0  0  0
 33 34  1  0  0  0
 34 35  1  0  0  0
 35 36  1  0  0  0
  8 10  1  0  0  0
  9 17  1  0  0  0
 12 13  2  0  0  0
 12 17  1  0  0  0
 13 14  1  0  0  0
 14 15  2  0  0  0
 15 16  1  0  0  0
 16 17  2  0  0  0
M  END
> <minimizedAffinity>
-9.27875

> <CNNscore>
0.2079152167

> <CNNaffinity>
7.1064848900

> <CNN_VS>
1.4775463343

> <CNNaffinity_variance>
0.2974979877

$$$$
/media/chris/experiments/cd1a-new-docking/inputs/ligands/1xz0_ligand.pdb


 65 67  0  0  0  0  0  0  0  0999 V2000
  -43.1851   59.2146   64.7929 C   0  0  0  0  0  0  0  0  0  0  0  0
  -44.5062   59.0139   65.3916 N   0  0  0  0  0  0  0  0  0  0  0  0
  -44.2612   57.0610   66.5313 O   0  0  0  0  0  0  0  0  0  0  0  0
  -44.9429   58.0136   66.1765 C   0  0  0  0  0  0  0  0  0  0  0  0
  -45.1704   59.7122   65.1904 H   0  0  0  0  0  0  0  0  0  0  0  0
  -47.2945   57.8356   65.3900 N   0  0  0  0  0  0  0  0  0  0  0  0
  -48.1598   59.6161   66.4262 O   0  0  0  0  0  0  0  0  0  0  0  0
  -47.0419   59.2559   67.2368 C   0  0  0  0  0  0  0  0  0  0  0  0
  -48.2166   58.6971   65.3171 C   0  0  0  0  0  0  0  0  0  0  0  0
  -46.4150   58.0041   66.5625 C   0  0  0  0  0  0  0  0  0  0  0  0
  -50.2701   60.7326   65.1243 O   0  0  0  0  0  0  0  0  0  0  0  0
  -50.2368   59.7606   64.2045 C   0  0  0  0  0  0  0  0  0  0  0  0
  -51.1777   59.7568   63.1665 C   0  0  0  0  0  0  0  0  0  0  0  0
  -51.1697   58.7426   62.1941 C   0  0  0  0  0  0  0  0  0  0  0  0
  -50.2143   57.7261   62.2430 C   0  0  0  0  0  0  0  0  0  0  0  0
  -49.2694   57.7290   63.2729 C   0  0  0  0  0  0  0  0  0  0  0  0
  -49.2804   58.7391   64.2538 C   0  0  0  0  0  0  0  0  0  0  0  0
  -50.9194   61.4060   65.0710 H   0  0  0  0  0  0  0  0  0  0  0  0
  -44.0421   58.2661   62.7678 O   0  0  0  0  0  0  0  0  0  0  0  0
  -43.1272   58.3144   63.5735 C   0  0  0  0  0  0  0  0  0  0  0  0
  -41.9789   57.4231   63.3782 O   0  0  0  0  0  0  0  0  0  0  0  0
  -42.1168   55.9926   63.4697 C   0  0  0  0  0  0  0  0  0  0  0  0
  -41.7434   55.4067   64.8257 C   0  0  0  0  0  0  0  0  0  0  0  0
  -41.2985   55.3597   62.3542 C   0  0  0  0  0  0  0  0  0  0  0  0
  -39.8905   57.0799   61.3275 N   0  0  0  0  0  0  0  0  0  0  0  0
  -41.7144   56.2705   60.2628 O   0  0  0  0  0  0  0  0  0  0  0  0
  -40.9883   56.3163   61.2294 C   0  0  0  0  0  0  0  0  0  0  0  0
  -39.3752   57.0350   62.1652 H   0  0  0  0  0  0  0  0  0  0  0  0
  -38.7977   60.0168   61.5152 N   0  0  0  0  0  0  0  0  0  0  0  0
  -37.2450   58.9346   60.2972 O   0  0  0  0  0  0  0  0  0  0  0  0
  -40.0614   60.0600   62.2656 C   0  0  0  0  0  0  0  0  0  0  0  0
  -41.2592   60.2060   61.3081 C   0  0  0  0  0  0  0  0  0  0  0  0
  -40.9259   60.0907   59.8298 C   0  0  0  0  0  0  0  0  0  0  0  0
  -40.4731   58.6851   59.4262 C   0  0  0  0  0  0  0  0  0  0  0  0
  -39.4028   57.9776   60.2742 C   0  0  0  0  0  0  0  0  0  0  0  0
  -38.3915   59.0171   60.7162 C   0  0  0  0  0  0  0  0  0  0  0  0
  -36.2371   60.8364   62.0584 Si  0  0  0  0  0  0  0  0  0  0  0  0
  -37.9601   61.0827   61.6504 O   0  0  0  0  0  0  0  0  0  0  0  0
  -35.5855   62.0954   62.1407 H   0  0  0  0  0  0  0  0  0  0  0  0
  -35.6199   60.0490   61.0508 H   0  0  0  0  0  0  0  0  0  0  0  0
  -36.1372   60.1693   63.3079 H   0  0  0  0  0  0  0  0  0  0  0  0
  -40.8711   60.1596   65.5969 C   0  0  0  0  0  0  0  0  0  0  0  0
  -41.9539   59.0808   65.7217 C   0  0  0  0  0  0  0  0  0  0  0  0
  -39.4839   59.8209   66.1684 C   0  0  0  0  0  0  0  0  0  0  0  0
  -38.5226   59.0135   65.2719 C   0  0  0  0  0  0  0  0  0  0  0  0
  -37.4428   59.9044   64.8362 N   0  0  0  0  0  0  0  0  0  0  0  0
  -36.1529   59.6013   64.5329 C   0  0  0  0  0  0  0  0  0  0  0  0
  -37.8247   61.2488   64.7255 O   0  0  0  0  0  0  0  0  0  0  0  0
  -35.3602   60.4733   64.1776 O   0  0  0  0  0  0  0  0  0  0  0  0
  -37.0653   61.7778   64.4347 H   0  0  0  0  0  0  0  0  0  0  0  0
  -35.6900   58.1441   64.6330 C   0  0  0  0  0  0  0  0  0  0  0  0
  -35.3597   57.4881   63.2853 C   0  0  0  0  0  0  0  0  0  0  0  0
  -33.8340   57.4563   63.0728 C   0  0  0  0  0  0  0  0  0  0  0  0
  -33.3173   58.5803   62.1547 C   0  0  0  0  0  0  0  0  0  0  0  0
  -32.3043   59.5336   62.8158 C   0  0  0  0  0  0  0  0  0  0  0  0
  -32.4414   60.9899   62.3243 C   0  0  0  0  0  0  0  0  0  0  0  0
  -31.7700   62.0415   63.2381 C   0  0  0  0  0  0  0  0  0  0  0  0
  -31.9911   63.4850   62.7716 C   0  0  0  0  0  0  0  0  0  0  0  0
  -33.4371   63.9850   62.8500 C   0  0  0  0  0  0  0  0  0  0  0  0
  -33.5251   65.3341   63.5866 C   0  0  0  0  0  0  0  0  0  0  0  0
  -32.6314   65.4225   64.8328 C   0  0  0  0  0  0  0  0  0  0  0  0
  -33.2509   64.9029   66.1344 C   0  0  0  0  0  0  0  0  0  0  0  0
  -32.7374   63.5080   66.5707 C   0  0  0  0  0  0  0  0  0  0  0  0
  -33.8200   62.4250   66.3886 C   0  0  0  0  0  0  0  0  0  0  0  0
  -35.2546   62.7963   66.7826 C   0  0  0  0  0  0  0  0  0  0  0  0
 46 47  1  0  0  0
 46 48  1  0  0  0
 46 45  1  0  0  0
 47 49  2  0  0  0
 47 51  1  0  0  0
 19 20  2  0  0  0
 37 38  1  0  0  0
 37 39  1  0  0  0
 37 40  1  0  0  0
 37 41  1  0  0  0
 48 50  1  0  0  0
 38 29  1  0  0  0
 45 44  1  0  0  0
 25 27  1  0  0  0
 25 35  1  0  0  0
 25 28  1  0  0  0
 21 20  1  0  0  0
 21 22  1  0  0  0
 44 42  1  0  0  0
  2  1  1  0  0  0
  2  4  1  0  0  0
  2  5  1  0  0  0
 26 27  2  0  0  0
 42 43  2  0  0  0
 29 31  1  0  0  0
 29 36  1  0  0  0
  3  4  2  0  0  0
 43  1  1  0  0  0
  6  9  2  0  0  0
  6 10  1  0  0  0
  1 20  1  0  0  0
 30 36  2  0  0  0
  7  8  1  0  0  0
  7  9  1  0  0  0
 22 24  1  0  0  0
 22 23  1  0  0  0
 11 12  1  0  0  0
 11 18  1  0  0  0
 24 27  1  0  0  0
  4 10  1  0  0  0
 51 52  1  0  0  0
 52 53  1  0  0  0
 53 54  1  0  0  0
 54 55  1  0  0  0
 55 56  1  0  0  0
 56 57  1  0  0  0
 57 58  1  0  0  0
 58 59  1  0  0  0
 59 60  1  0  0  0
 60 61  1  0  0  0
 61 62  1  0  0  0
 62 63  1  0  0  0
 63 64  1  0  0  0
 64 65  1  0  0  0
 31 32  1  0  0  0
 32 33  1  0  0  0
 33 34  1  0  0  0
 34 35  1  0  0  0
 35 36  1  0  0  0
  8 10  1  0  0  0
  9 17  1  0  0  0
 12 13  2  0  0  0
 12 17  1  0  0  0
 13 14  1  0  0  0
 14 15  2  0  0  0
 15 16  1  0  0  0
 16 17  2  0  0  0
M  END
> <minimizedAffinity>
-9.21194

> <CNNscore>
0.1754113734

> <CNNaffinity>
7.5603165627

> <CNN_VS>
1.3261655569

> <CNNaffinity_variance>
1.6121807098

$$$$
/media/chris/experiments/cd1a-new-docking/inputs/ligands/1xz0_ligand.pdb


 65 67  0  0  0  0  0  0  0  0999 V2000
  -41.7529   57.9411   62.8594 C   0  0  0  0  0  0  0  0  0  0  0  0
  -40.9018   58.3764   63.9686 N   0  0  0  0  0  0  0  0  0  0  0  0
  -40.4023   60.5259   63.4183 O   0  0  0  0  0  0  0  0  0  0  0  0
  -40.3119   59.5669   64.1735 C   0  0  0  0  0  0  0  0  0  0  0  0
  -40.7379   57.6996   64.6646 H   0  0  0  0  0  0  0  0  0  0  0  0
  -38.6459   60.9818   65.3578 N   0  0  0  0  0  0  0  0  0  0  0  0
  -37.0275   59.4693   65.6505 O   0  0  0  0  0  0  0  0  0  0  0  0
  -38.2169   58.6865   65.5550 C   0  0  0  0  0  0  0  0  0  0  0  0
  -37.3966   60.8548   65.5019 C   0  0  0  0  0  0  0  0  0  0  0  0
  -39.3786   59.7014   65.3681 C   0  0  0  0  0  0  0  0  0  0  0  0
  -37.0005   62.8201   63.4095 O   0  0  0  0  0  0  0  0  0  0  0  0
  -36.2800   62.9200   64.5332 C   0  0  0  0  0  0  0  0  0  0  0  0
  -35.3686   63.9739   64.6801 C   0  0  0  0  0  0  0  0  0  0  0  0
  -34.5938   64.0955   65.8459 C   0  0  0  0  0  0  0  0  0  0  0  0
  -34.7290   63.1703   66.8824 C   0  0  0  0  0  0  0  0  0  0  0  0
  -35.6416   62.1208   66.7434 C   0  0  0  0  0  0  0  0  0  0  0  0
  -36.4130   61.9913   65.5726 C   0  0  0  0  0  0  0  0  0  0  0  0
  -36.8947   63.4535   62.7272 H   0  0  0  0  0  0  0  0  0  0  0  0
  -41.5910   59.2495   60.8601 O   0  0  0  0  0  0  0  0  0  0  0  0
  -41.0757   58.4175   61.5885 C   0  0  0  0  0  0  0  0  0  0  0  0
  -39.7997   57.8240   61.1750 O   0  0  0  0  0  0  0  0  0  0  0  0
  -38.6567   58.6442   60.8674 C   0  0  0  0  0  0  0  0  0  0  0  0
  -38.3518   58.7720   59.3800 C   0  0  0  0  0  0  0  0  0  0  0  0
  -37.4573   58.1002   61.6289 C   0  0  0  0  0  0  0  0  0  0  0  0
  -35.5324   58.8217   62.9594 N   0  0  0  0  0  0  0  0  0  0  0  0
  -37.0649   60.3090   62.2149 O   0  0  0  0  0  0  0  0  0  0  0  0
  -36.6649   59.1735   62.3335 C   0  0  0  0  0  0  0  0  0  0  0  0
  -35.3073   57.8638   62.9938 H   0  0  0  0  0  0  0  0  0  0  0  0
  -32.6610   59.7407   62.0848 N   0  0  0  0  0  0  0  0  0  0  0  0
  -33.7484   61.6680   62.4957 O   0  0  0  0  0  0  0  0  0  0  0  0
  -32.5994   58.2733   62.0176 C   0  0  0  0  0  0  0  0  0  0  0  0
  -32.3511   57.6736   63.4146 C   0  0  0  0  0  0  0  0  0  0  0  0
  -32.4056   58.6650   64.5652 C   0  0  0  0  0  0  0  0  0  0  0  0
  -33.8078   59.2331   64.7998 C   0  0  0  0  0  0  0  0  0  0  0  0
  -34.6050   59.7635   63.5964 C   0  0  0  0  0  0  0  0  0  0  0  0
  -33.6359   60.4612   62.6621 C   0  0  0  0  0  0  0  0  0  0  0  0
  -31.7697   62.1962   61.2482 Si  0  0  0  0  0  0  0  0  0  0  0  0
  -31.6422   60.4311   61.5005 O   0  0  0  0  0  0  0  0  0  0  0  0
  -30.5853   62.6724   60.6263 H   0  0  0  0  0  0  0  0  0  0  0  0
  -31.9390   62.8424   62.5012 H   0  0  0  0  0  0  0  0  0  0  0  0
  -32.8862   62.4761   60.4167 H   0  0  0  0  0  0  0  0  0  0  0  0
  -43.6456   59.4818   63.8279 C   0  0  0  0  0  0  0  0  0  0  0  0
  -43.2572   58.2991   62.9323 C   0  0  0  0  0  0  0  0  0  0  0  0
  -45.1208   59.5766   64.2526 C   0  0  0  0  0  0  0  0  0  0  0  0
  -45.4445   59.3839   65.7485 C   0  0  0  0  0  0  0  0  0  0  0  0
  -45.9294   58.0137   65.9412 N   0  0  0  0  0  0  0  0  0  0  0  0
  -47.2056   57.5462   65.9186 C   0  0  0  0  0  0  0  0  0  0  0  0
  -44.9121   57.0788   66.1790 O   0  0  0  0  0  0  0  0  0  0  0  0
  -47.4505   56.3537   66.0996 O   0  0  0  0  0  0  0  0  0  0  0  0
  -45.3028   56.1987   66.2966 H   0  0  0  0  0  0  0  0  0  0  0  0
  -48.3512   58.5293   65.6561 C   0  0  0  0  0  0  0  0  0  0  0  0
  -49.6809   57.8674   65.2697 C   0  0  0  0  0  0  0  0  0  0  0  0
  -50.8063   58.9194   65.2409 C   0  0  0  0  0  0  0  0  0  0  0  0
  -50.2910   60.3711   65.2242 C   0  0  0  0  0  0  0  0  0  0  0  0
  -50.7678   61.2070   64.0216 C   0  0  0  0  0  0  0  0  0  0  0  0
  -51.1726   60.3403   62.8109 C   0  0  0  0  0  0  0  0  0  0  0  0
  -50.0801   60.2049   61.7246 C   0  0  0  0  0  0  0  0  0  0  0  0
  -49.4532   58.8073   61.6609 C   0  0  0  0  0  0  0  0  0  0  0  0
  -50.4355   57.6410   61.8086 C   0  0  0  0  0  0  0  0  0  0  0  0
  -50.2061   56.5733   60.7233 C   0  0  0  0  0  0  0  0  0  0  0  0
  -49.2078   56.9963   59.6351 C   0  0  0  0  0  0  0  0  0  0  0  0
  -48.0775   56.0029   59.3462 C   0  0  0  0  0  0  0  0  0  0  0  0
  -47.1277   56.4354   58.2015 C   0  0  0  0  0  0  0  0  0  0  0  0
  -47.8326   57.3834   57.2101 C   0  0  0  0  0  0  0  0  0  0  0  0
  -47.0053   58.5427   56.6420 C   0  0  0  0  0  0  0  0  0  0  0  0
 46 47  1  0  0  0
 46 48  1  0  0  0
 46 45  1  0  0  0
 47 49  2  0  0  0
 47 51  1  0  0  0
 19 20  2  0  0  0
 37 38  1  0  0  0
 37 39  1  0  0  0
 37 40  1  0  0  0
 37 41  1  0  0  0
 48 50  1  0  0  0
 38 29  1  0  0  0
 45 44  1  0  0  0
 25 27  1  0  0  0
 25 35  1  0  0  0
 25 28  1  0  0  0
 21 20  1  0  0  0
 21 22  1  0  0  0
 44 42  1  0  0  0
  2  1  1  0  0  0
  2  4  1  0  0  0
  2  5  1  0  0  0
 26 27  2  0  0  0
 42 43  2  0  0  0
 29 31  1  0  0  0
 29 36  1  0  0  0
  3  4  2  0  0  0
 43  1  1  0  0  0
  6  9  2  0  0  0
  6 10  1  0  0  0
  1 20  1  0  0  0
 30 36  2  0  0  0
  7  8  1  0  0  0
  7  9  1  0  0  0
 22 24  1  0  0  0
 22 23  1  0  0  0
 11 12  1  0  0  0
 11 18  1  0  0  0
 24 27  1  0  0  0
  4 10  1  0  0  0
 51 52  1  0  0  0
 52 53  1  0  0  0
 53 54  1  0  0  0
 54 55  1  0  0  0
 55 56  1  0  0  0
 56 57  1  0  0  0
 57 58  1  0  0  0
 58 59  1  0  0  0
 59 60  1  0  0  0
 60 61  1  0  0  0
 61 62  1  0  0  0
 62 63  1  0  0  0
 63 64  1  0  0  0
 64 65  1  0  0  0
 31 32  1  0  0  0
 32 33  1  0  0  0
 33 34  1  0  0  0
 34 35  1  0  0  0
 35 36  1  0  0  0
  8 10  1  0  0  0
  9 17  1  0  0  0
 12 13  2  0  0  0
 12 17  1  0  0  0
 13 14  1  0  0  0
 14 15  2  0  0  0
 15 16  1  0  0  0
 16 17  2  0  0  0
M  END
> <minimizedAffinity>
-10.08066

> <CNNscore>
0.1751081049

> <CNNaffinity>
7.3664917946

> <CNN_VS>
1.2899323702

> <CNNaffinity_variance>
0.6397973299

$$$$
/media/chris/experiments/cd1a-new-docking/inputs/ligands/1xz0_ligand.pdb


 65 67  0  0  0  0  0  0  0  0999 V2000
  -42.9214   59.3205   64.6404 C   0  0  0  0  0  0  0  0  0  0  0  0
  -44.2201   59.0803   65.2727 N   0  0  0  0  0  0  0  0  0  0  0  0
  -43.9542   57.0335   66.2282 O   0  0  0  0  0  0  0  0  0  0  0  0
  -44.6376   58.0194   65.9852 C   0  0  0  0  0  0  0  0  0  0  0  0
  -44.8831   59.7993   65.1599 H   0  0  0  0  0  0  0  0  0  0  0  0
  -47.0177   58.2784   65.3157 N   0  0  0  0  0  0  0  0  0  0  0  0
  -47.6961   59.6778   66.9200 O   0  0  0  0  0  0  0  0  0  0  0  0
  -46.5902   58.9924   67.5063 C   0  0  0  0  0  0  0  0  0  0  0  0
  -47.8640   59.1800   65.5777 C   0  0  0  0  0  0  0  0  0  0  0  0
  -46.0932   57.9894   66.4285 C   0  0  0  0  0  0  0  0  0  0  0  0
  -50.5424   59.9090   66.4094 O   0  0  0  0  0  0  0  0  0  0  0  0
  -50.2225   59.9993   65.1128 C   0  0  0  0  0  0  0  0  0  0  0  0
  -51.1766   60.4566   64.1943 C   0  0  0  0  0  0  0  0  0  0  0  0
  -50.8685   60.5515   62.8266 C   0  0  0  0  0  0  0  0  0  0  0  0
  -49.5995   60.1998   62.3634 C   0  0  0  0  0  0  0  0  0  0  0  0
  -48.6422   59.7492   63.2766 C   0  0  0  0  0  0  0  0  0  0  0  0
  -48.9508   59.6446   64.6465 C   0  0  0  0  0  0  0  0  0  0  0  0
  -51.3999   60.1521   66.6985 H   0  0  0  0  0  0  0  0  0  0  0  0
  -43.7160   58.3554   62.5977 O   0  0  0  0  0  0  0  0  0  0  0  0
  -42.8448   58.3818   63.4514 C   0  0  0  0  0  0  0  0  0  0  0  0
  -41.7357   57.4280   63.3449 O   0  0  0  0  0  0  0  0  0  0  0  0
  -41.9656   56.0065   63.3636 C   0  0  0  0  0  0  0  0  0  0  0  0
  -41.6110   55.3258   64.6798 C   0  0  0  0  0  0  0  0  0  0  0  0
  -41.2075   55.3828   62.2014 C   0  0  0  0  0  0  0  0  0  0  0  0
  -40.0473   57.2018   61.0433 N   0  0  0  0  0  0  0  0  0  0  0  0
  -41.8053   56.1421   60.0937 O   0  0  0  0  0  0  0  0  0  0  0  0
  -41.0529   56.3149   61.0251 C   0  0  0  0  0  0  0  0  0  0  0  0
  -39.4986   57.2547   61.8591 H   0  0  0  0  0  0  0  0  0  0  0  0
  -38.6448   60.0102   61.0659 N   0  0  0  0  0  0  0  0  0  0  0  0
  -37.5078   58.8458   59.5112 O   0  0  0  0  0  0  0  0  0  0  0  0
  -39.7074   60.1364   62.0741 C   0  0  0  0  0  0  0  0  0  0  0  0
  -41.0609   60.4403   61.4045 C   0  0  0  0  0  0  0  0  0  0  0  0
  -41.0651   60.3650   59.8866 C   0  0  0  0  0  0  0  0  0  0  0  0
  -40.8556   58.9438   59.3572 C   0  0  0  0  0  0  0  0  0  0  0  0
  -39.7069   58.0988   59.9331 C   0  0  0  0  0  0  0  0  0  0  0  0
  -38.5235   59.0159   60.1717 C   0  0  0  0  0  0  0  0  0  0  0  0
  -37.6703   62.2597   62.2962 Si  0  0  0  0  0  0  0  0  0  0  0  0
  -37.6929   60.9846   61.0435 O   0  0  0  0  0  0  0  0  0  0  0  0
  -36.5887   63.1462   62.0499 H   0  0  0  0  0  0  0  0  0  0  0  0
  -37.5120   61.6639   63.5754 H   0  0  0  0  0  0  0  0  0  0  0  0
  -38.8923   62.9820   62.2585 H   0  0  0  0  0  0  0  0  0  0  0  0
  -40.4832   60.1590   65.1367 C   0  0  0  0  0  0  0  0  0  0  0  0
  -41.6679   59.2760   65.5476 C   0  0  0  0  0  0  0  0  0  0  0  0
  -39.1141   59.8121   65.7454 C   0  0  0  0  0  0  0  0  0  0  0  0
  -37.8689   60.4742   65.1202 C   0  0  0  0  0  0  0  0  0  0  0  0
  -37.1224   61.1488   66.1867 N   0  0  0  0  0  0  0  0  0  0  0  0
  -36.2369   62.1759   66.0940 C   0  0  0  0  0  0  0  0  0  0  0  0
  -37.3795   60.6425   67.4685 O   0  0  0  0  0  0  0  0  0  0  0  0
  -35.6884   62.6365   67.0950 O   0  0  0  0  0  0  0  0  0  0  0  0
  -36.8550   61.1326   68.1210 H   0  0  0  0  0  0  0  0  0  0  0  0
  -35.9283   62.7670   64.7144 C   0  0  0  0  0  0  0  0  0  0  0  0
  -34.7199   62.1366   64.0086 C   0  0  0  0  0  0  0  0  0  0  0  0
  -33.4442   62.3609   64.8430 C   0  0  0  0  0  0  0  0  0  0  0  0
  -32.2864   62.9848   64.0409 C   0  0  0  0  0  0  0  0  0  0  0  0
  -32.7095   63.6566   62.7211 C   0  0  0  0  0  0  0  0  0  0  0  0
  -32.3482   62.8174   61.4777 C   0  0  0  0  0  0  0  0  0  0  0  0
  -31.1200   61.8954   61.6603 C   0  0  0  0  0  0  0  0  0  0  0  0
  -31.4598   60.4029   61.5757 C   0  0  0  0  0  0  0  0  0  0  0  0
  -31.1439   59.5865   62.8329 C   0  0  0  0  0  0  0  0  0  0  0  0
  -32.1634   58.4507   63.0353 C   0  0  0  0  0  0  0  0  0  0  0  0
  -33.5511   58.9325   63.4849 C   0  0  0  0  0  0  0  0  0  0  0  0
  -34.6954   58.6804   62.4976 C   0  0  0  0  0  0  0  0  0  0  0  0
  -35.8955   57.9072   63.0988 C   0  0  0  0  0  0  0  0  0  0  0  0
  -35.5647   57.3496   64.4981 C   0  0  0  0  0  0  0  0  0  0  0  0
  -36.7458   57.0451   65.4273 C   0  0  0  0  0  0  0  0  0  0  0  0
 46 47  1  0  0  0
 46 48  1  0  0  0
 46 45  1  0  0  0
 47 49  2  0  0  0
 47 51  1  0  0  0
 19 20  2  0  0  0
 37 38  1  0  0  0
 37 39  1  0  0  0
 37 40  1  0  0  0
 37 41  1  0  0  0
 48 50  1  0  0  0
 38 29  1  0  0  0
 45 44  1  0  0  0
 25 27  1  0  0  0
 25 35  1  0  0  0
 25 28  1  0  0  0
 21 20  1  0  0  0
 21 22  1  0  0  0
 44 42  1  0  0  0
  2  1  1  0  0  0
  2  4  1  0  0  0
  2  5  1  0  0  0
 26 27  2  0  0  0
 42 43  2  0  0  0
 29 31  1  0  0  0
 29 36  1  0  0  0
  3  4  2  0  0  0
 43  1  1  0  0  0
  6  9  2  0  0  0
  6 10  1  0  0  0
  1 20  1  0  0  0
 30 36  2  0  0  0
  7  8  1  0  0  0
  7  9  1  0  0  0
 22 24  1  0  0  0
 22 23  1  0  0  0
 11 12  1  0  0  0
 11 18  1  0  0  0
 24 27  1  0  0  0
  4 10  1  0  0  0
 51 52  1  0  0  0
 52 53  1  0  0  0
 53 54  1  0  0  0
 54 55  1  0  0  0
 55 56  1  0  0  0
 56 57  1  0  0  0
 57 58  1  0  0  0
 58 59  1  0  0  0
 59 60  1  0  0  0
 60 61  1  0  0  0
 61 62  1  0  0  0
 62 63  1  0  0  0
 63 64  1  0  0  0
 64 65  1  0  0  0
 31 32  1  0  0  0
 32 33  1  0  0  0
 33 34  1  0  0  0
 34 35  1  0  0  0
 35 36  1  0  0  0
  8 10  1  0  0  0
  9 17  1  0  0  0
 12 13  2  0  0  0
 12 17  1  0  0  0
 13 14  1  0  0  0
 14 15  2  0  0  0
 15 16  1  0  0  0
 16 17  2  0  0  0
M  END
> <minimizedAffinity>
-8.98758

> <CNNscore>
0.1349170953

> <CNNaffinity>
7.6558580399

> <CNN_VS>
1.0329061747

> <CNNaffinity_variance>
1.2318168879

$$$$
/media/chris/experiments/cd1a-new-docking/inputs/ligands/1xz0_ligand.pdb


 65 67  0  0  0  0  0  0  0  0999 V2000
  -41.9180   58.7850   64.2154 C   0  0  0  0  0  0  0  0  0  0  0  0
  -40.6286   58.7248   64.9067 N   0  0  0  0  0  0  0  0  0  0  0  0
  -40.1779   60.9111   65.3423 O   0  0  0  0  0  0  0  0  0  0  0  0
  -39.8786   59.7256   65.3998 C   0  0  0  0  0  0  0  0  0  0  0  0
  -40.2574   57.8210   65.0279 H   0  0  0  0  0  0  0  0  0  0  0  0
  -37.7239   60.5775   66.3007 N   0  0  0  0  0  0  0  0  0  0  0  0
  -36.3098   59.3594   65.0724 O   0  0  0  0  0  0  0  0  0  0  0  0
  -37.4998   58.5727   65.1083 C   0  0  0  0  0  0  0  0  0  0  0  0
  -36.5564   60.5691   65.8165 C   0  0  0  0  0  0  0  0  0  0  0  0
  -38.5126   59.3749   65.9717 C   0  0  0  0  0  0  0  0  0  0  0  0
  -37.1589   63.3742   66.2237 O   0  0  0  0  0  0  0  0  0  0  0  0
  -35.8795   62.9807   66.2363 C   0  0  0  0  0  0  0  0  0  0  0  0
  -34.8672   63.9230   66.4606 C   0  0  0  0  0  0  0  0  0  0  0  0
  -33.5162   63.5369   66.4693 C   0  0  0  0  0  0  0  0  0  0  0  0
  -33.1628   62.2022   66.2636 C   0  0  0  0  0  0  0  0  0  0  0  0
  -34.1693   61.2572   66.0457 C   0  0  0  0  0  0  0  0  0  0  0  0
  -35.5235   61.6427   66.0277 C   0  0  0  0  0  0  0  0  0  0  0  0
  -37.3734   64.2751   66.3658 H   0  0  0  0  0  0  0  0  0  0  0  0
  -42.2425   56.6956   65.3399 O   0  0  0  0  0  0  0  0  0  0  0  0
  -42.7521   57.6441   64.7663 C   0  0  0  0  0  0  0  0  0  0  0  0
  -44.2033   57.6322   64.5538 O   0  0  0  0  0  0  0  0  0  0  0  0
  -45.1020   58.2633   65.4854 C   0  0  0  0  0  0  0  0  0  0  0  0
  -44.4406   59.2677   66.4210 C   0  0  0  0  0  0  0  0  0  0  0  0
  -45.8225   57.1759   66.2682 C   0  0  0  0  0  0  0  0  0  0  0  0
  -47.8755   58.0166   65.2317 N   0  0  0  0  0  0  0  0  0  0  0  0
  -47.7460   55.9036   66.0279 O   0  0  0  0  0  0  0  0  0  0  0  0
  -47.2612   56.9976   65.8501 C   0  0  0  0  0  0  0  0  0  0  0  0
  -47.3814   58.8636   65.1445 H   0  0  0  0  0  0  0  0  0  0  0  0
  -49.1393   59.5609   62.8083 N   0  0  0  0  0  0  0  0  0  0  0  0
  -49.6761   57.4094   62.4231 O   0  0  0  0  0  0  0  0  0  0  0  0
  -48.5054   60.6175   63.6105 C   0  0  0  0  0  0  0  0  0  0  0  0
  -49.4137   61.0299   64.7842 C   0  0  0  0  0  0  0  0  0  0  0  0
  -50.6491   60.1672   64.9827 C   0  0  0  0  0  0  0  0  0  0  0  0
  -50.3178   58.7417   65.4321 C   0  0  0  0  0  0  0  0  0  0  0  0
  -49.2321   57.9580   64.6757 C   0  0  0  0  0  0  0  0  0  0  0  0
  -49.3509   58.2948   63.2022 C   0  0  0  0  0  0  0  0  0  0  0  0
  -50.8194   61.1162   61.2977 Si  0  0  0  0  0  0  0  0  0  0  0  0
  -49.5391   59.8942   61.5493 O   0  0  0  0  0  0  0  0  0  0  0  0
  -51.0497   61.2809   59.9062 H   0  0  0  0  0  0  0  0  0  0  0  0
  -50.4092   62.3541   61.8594 H   0  0  0  0  0  0  0  0  0  0  0  0
  -52.0164   60.6841   61.9277 H   0  0  0  0  0  0  0  0  0  0  0  0
  -41.9306   57.5076   61.9215 C   0  0  0  0  0  0  0  0  0  0  0  0
  -41.8954   58.8463   62.6688 C   0  0  0  0  0  0  0  0  0  0  0  0
  -41.4772   57.5201   60.4519 C   0  0  0  0  0  0  0  0  0  0  0  0
  -40.9934   58.8635   59.8679 C   0  0  0  0  0  0  0  0  0  0  0  0
  -39.5737   58.7315   59.5258 N   0  0  0  0  0  0  0  0  0  0  0  0
  -38.4927   59.2965   60.1256 C   0  0  0  0  0  0  0  0  0  0  0  0
  -39.3294   57.9005   58.4235 O   0  0  0  0  0  0  0  0  0  0  0  0
  -37.3523   59.0838   59.7142 O   0  0  0  0  0  0  0  0  0  0  0  0
  -38.3750   57.8593   58.2548 H   0  0  0  0  0  0  0  0  0  0  0  0
  -38.7090   60.2077   61.3384 C   0  0  0  0  0  0  0  0  0  0  0  0
  -37.4548   60.4373   62.1927 C   0  0  0  0  0  0  0  0  0  0  0  0
  -37.4964   61.8413   62.8259 C   0  0  0  0  0  0  0  0  0  0  0  0
  -36.5776   62.8598   62.1246 C   0  0  0  0  0  0  0  0  0  0  0  0
  -35.2121   63.0674   62.8063 C   0  0  0  0  0  0  0  0  0  0  0  0
  -34.8599   64.5567   63.0034 C   0  0  0  0  0  0  0  0  0  0  0  0
  -33.5506   65.0034   62.3120 C   0  0  0  0  0  0  0  0  0  0  0  0
  -33.2449   64.2279   61.0254 C   0  0  0  0  0  0  0  0  0  0  0  0
  -31.7654   64.1670   60.6326 C   0  0  0  0  0  0  0  0  0  0  0  0
  -30.9790   63.2163   61.5536 C   0  0  0  0  0  0  0  0  0  0  0  0
  -31.5669   61.7994   61.6337 C   0  0  0  0  0  0  0  0  0  0  0  0
  -31.8332   61.2681   63.0460 C   0  0  0  0  0  0  0  0  0  0  0  0
  -31.9277   59.7246   63.1376 C   0  0  0  0  0  0  0  0  0  0  0  0
  -32.8332   59.1472   62.0309 C   0  0  0  0  0  0  0  0  0  0  0  0
  -34.2229   58.6532   62.4505 C   0  0  0  0  0  0  0  0  0  0  0  0
 46 47  1  0  0  0
 46 48  1  0  0  0
 46 45  1  0  0  0
 47 49  2  0  0  0
 47 51  1  0  0  0
 19 20  2  0  0  0
 37 38  1  0  0  0
 37 39  1  0  0  0
 37 40  1  0  0  0
 37 41  1  0  0  0
 48 50  1  0  0  0
 38 29  1  0  0  0
 45 44  1  0  0  0
 25 27  1  0  0  0
 25 35  1  0  0  0
 25 28  1  0  0  0
 21 20  1  0  0  0
 21 22  1  0  0  0
 44 42  1  0  0  0
  2  1  1  0  0  0
  2  4  1  0  0  0
  2  5  1  0  0  0
 26 27  2  0  0  0
 42 43  2  0  0  0
 29 31  1  0  0  0
 29 36  1  0  0  0
  3  4  2  0  0  0
 43  1  1  0  0  0
  6  9  2  0  0  0
  6 10  1  0  0  0
  1 20  1  0  0  0
 30 36  2  0  0  0
  7  8  1  0  0  0
  7  9  1  0  0  0
 22 24  1  0  0  0
 22 23  1  0  0  0
 11 12  1  0  0  0
 11 18  1  0  0  0
 24 27  1  0  0  0
  4 10  1  0  0  0
 51 52  1  0  0  0
 52 53  1  0  0  0
 53 54  1  0  0  0
 54 55  1  0  0  0
 55 56  1  0  0  0
 56 57  1  0  0  0
 57 58  1  0  0  0
 58 59  1  0  0  0
 59 60  1  0  0  0
 60 61  1  0  0  0
 61 62  1  0  0  0
 62 63  1  0  0  0
 63 64  1  0  0  0
 64 65  1  0  0  0
 31 32  1  0  0  0
 32 33  1  0  0  0
 33 34  1  0  0  0
 34 35  1  0  0  0
 35 36  1  0  0  0
  8 10  1  0  0  0
  9 17  1  0  0  0
 12 13  2  0  0  0
 12 17  1  0  0  0
 13 14  1  0  0  0
 14 15  2  0  0  0
 15 16  1  0  0  0
 16 17  2  0  0  0
M  END
> <minimizedAffinity>
-8.49679

> <CNNscore>
0.1329413205

> <CNNaffinity>
7.4010834694

> <CNN_VS>
0.9839097857

> <CNNaffinity_variance>
1.2167037725

$$$$
/media/chris/experiments/cd1a-new-docking/inputs/ligands/1xz0_ligand.pdb


 65 67  0  0  0  0  0  0  0  0999 V2000
  -40.8369   57.5480   63.7482 C   0  0  0  0  0  0  0  0  0  0  0  0
  -39.5714   57.5609   64.4847 N   0  0  0  0  0  0  0  0  0  0  0  0
  -39.2966   59.7607   64.9929 O   0  0  0  0  0  0  0  0  0  0  0  0
  -38.9139   58.5986   65.0307 C   0  0  0  0  0  0  0  0  0  0  0  0
  -39.1398   56.6831   64.5961 H   0  0  0  0  0  0  0  0  0  0  0  0
  -36.4565   58.9266   64.8475 N   0  0  0  0  0  0  0  0  0  0  0  0
  -35.7860   56.8143   65.1319 O   0  0  0  0  0  0  0  0  0  0  0  0
  -37.0464   56.8679   65.7989 C   0  0  0  0  0  0  0  0  0  0  0  0
  -35.5257   58.1170   64.5723 C   0  0  0  0  0  0  0  0  0  0  0  0
  -37.5467   58.3308   65.6432 C   0  0  0  0  0  0  0  0  0  0  0  0
  -32.8878   58.3152   65.7552 O   0  0  0  0  0  0  0  0  0  0  0  0
  -33.0227   58.5265   64.4403 C   0  0  0  0  0  0  0  0  0  0  0  0
  -31.8924   58.8206   63.6664 C   0  0  0  0  0  0  0  0  0  0  0  0
  -32.0088   59.0557   62.2860 C   0  0  0  0  0  0  0  0  0  0  0  0
  -33.2558   58.9895   61.6620 C   0  0  0  0  0  0  0  0  0  0  0  0
  -34.3855   58.6902   62.4285 C   0  0  0  0  0  0  0  0  0  0  0  0
  -34.2732   58.4628   63.8136 C   0  0  0  0  0  0  0  0  0  0  0  0
  -32.0407   58.3630   66.1529 H   0  0  0  0  0  0  0  0  0  0  0  0
  -41.3335   59.2503   62.1386 O   0  0  0  0  0  0  0  0  0  0  0  0
  -40.5983   58.3365   62.4746 C   0  0  0  0  0  0  0  0  0  0  0  0
  -39.4997   57.9605   61.5785 O   0  0  0  0  0  0  0  0  0  0  0  0
  -38.8131   58.9439   60.7814 C   0  0  0  0  0  0  0  0  0  0  0  0
  -38.4640   58.4835   59.3715 C   0  0  0  0  0  0  0  0  0  0  0  0
  -37.5702   59.3904   61.5366 C   0  0  0  0  0  0  0  0  0  0  0  0
  -36.6638   61.3004   62.7720 N   0  0  0  0  0  0  0  0  0  0  0  0
  -38.8493   61.2080   62.1972 O   0  0  0  0  0  0  0  0  0  0  0  0
  -37.7453   60.7150   62.2373 C   0  0  0  0  0  0  0  0  0  0  0  0
  -35.8149   60.8024   62.7476 H   0  0  0  0  0  0  0  0  0  0  0  0
  -34.4365   63.5126   62.7909 N   0  0  0  0  0  0  0  0  0  0  0  0
  -36.2956   64.6165   62.1659 O   0  0  0  0  0  0  0  0  0  0  0  0
  -33.7267   62.2912   63.1984 C   0  0  0  0  0  0  0  0  0  0  0  0
  -33.9384   62.0124   64.6984 C   0  0  0  0  0  0  0  0  0  0  0  0
  -34.9505   62.9117   65.3889 C   0  0  0  0  0  0  0  0  0  0  0  0
  -36.3842   62.6826   64.9032 C   0  0  0  0  0  0  0  0  0  0  0  0
  -36.6565   62.6310   63.3905 C   0  0  0  0  0  0  0  0  0  0  0  0
  -35.7691   63.6605   62.7186 C   0  0  0  0  0  0  0  0  0  0  0  0
  -34.4388   66.1503   62.0385 Si  0  0  0  0  0  0  0  0  0  0  0  0
  -33.6733   64.5873   62.4469 O   0  0  0  0  0  0  0  0  0  0  0  0
  -33.4334   67.1005   61.7182 H   0  0  0  0  0  0  0  0  0  0  0  0
  -35.1911   66.6137   63.1501 H   0  0  0  0  0  0  0  0  0  0  0  0
  -35.3001   65.9783   60.9228 H   0  0  0  0  0  0  0  0  0  0  0  0
  -43.0555   56.8589   64.9718 C   0  0  0  0  0  0  0  0  0  0  0  0
  -42.1117   57.9776   64.5141 C   0  0  0  0  0  0  0  0  0  0  0  0
  -44.4946   57.2669   65.3297 C   0  0  0  0  0  0  0  0  0  0  0  0
  -44.7041   58.6614   65.9553 C   0  0  0  0  0  0  0  0  0  0  0  0
  -45.4632   59.4817   65.0063 N   0  0  0  0  0  0  0  0  0  0  0  0
  -46.7585   59.8886   65.0717 C   0  0  0  0  0  0  0  0  0  0  0  0
  -44.7231   59.8880   63.8871 O   0  0  0  0  0  0  0  0  0  0  0  0
  -47.2537   60.5829   64.1842 O   0  0  0  0  0  0  0  0  0  0  0  0
  -45.2846   60.4239   63.3053 H   0  0  0  0  0  0  0  0  0  0  0  0
  -47.6061   59.4747   66.2792 C   0  0  0  0  0  0  0  0  0  0  0  0
  -49.1088   59.3562   65.9905 C   0  0  0  0  0  0  0  0  0  0  0  0
  -49.3968   58.0577   65.2127 C   0  0  0  0  0  0  0  0  0  0  0  0
  -50.3204   58.2611   63.9967 C   0  0  0  0  0  0  0  0  0  0  0  0
  -51.1593   59.5521   64.0373 C   0  0  0  0  0  0  0  0  0  0  0  0
  -51.0456   60.3828   62.7420 C   0  0  0  0  0  0  0  0  0  0  0  0
  -49.6636   60.3094   62.0517 C   0  0  0  0  0  0  0  0  0  0  0  0
  -49.7335   60.4677   60.5285 C   0  0  0  0  0  0  0  0  0  0  0  0
  -49.2507   59.2586   59.7210 C   0  0  0  0  0  0  0  0  0  0  0  0
  -50.0423   57.9890   60.0841 C   0  0  0  0  0  0  0  0  0  0  0  0
  -49.1666   56.8327   60.5901 C   0  0  0  0  0  0  0  0  0  0  0  0
  -48.4826   55.9924   59.5067 C   0  0  0  0  0  0  0  0  0  0  0  0
  -47.3130   56.7105   58.7885 C   0  0  0  0  0  0  0  0  0  0  0  0
  -47.6182   56.9308   57.2930 C   0  0  0  0  0  0  0  0  0  0  0  0
  -47.0182   58.1780   56.6327 C   0  0  0  0  0  0  0  0  0  0  0  0
 46 47  1  0  0  0
 46 48  1  0  0  0
 46 45  1  0  0  0
 47 49  2  0  0  0
 47 51  1  0  0  0
 19 20  2  0  0  0
 37 38  1  0  0  0
 37 39  1  0  0  0
 37 40  1  0  0  0
 37 41  1  0  0  0
 48 50  1  0  0  0
 38 29  1  0  0  0
 45 44  1  0  0  0
 25 27  1  0  0  0
 25 35  1  0  0  0
 25 28  1  0  0  0
 21 20  1  0  0  0
 21 22  1  0  0  0
 44 42  1  0  0  0
  2  1  1  0  0  0
  2  4  1  0  0  0
  2  5  1  0  0  0
 26 27  2  0  0  0
 42 43  2  0  0  0
 29 31  1  0  0  0
 29 36  1  0  0  0
  3  4  2  0  0  0
 43  1  1  0  0  0
  6  9  2  0  0  0
  6 10  1  0  0  0
  1 20  1  0  0  0
 30 36  2  0  0  0
  7  8  1  0  0  0
  7  9  1  0  0  0
 22 24  1  0  0  0
 22 23  1  0  0  0
 11 12  1  0  0  0
 11 18  1  0  0  0
 24 27  1  0  0  0
  4 10  1  0  0  0
 51 52  1  0  0  0
 52 53  1  0  0  0
 53 54  1  0  0  0
 54 55  1  0  0  0
 55 56  1  0  0  0
 56 57  1  0  0  0
 57 58  1  0  0  0
 58 59  1  0  0  0
 59 60  1  0  0  0
 60 61  1  0  0  0
 61 62  1  0  0  0
 62 63  1  0  0  0
 63 64  1  0  0  0
 64 65  1  0  0  0
 31 32  1  0  0  0
 32 33  1  0  0  0
 33 34  1  0  0  0
 34 35  1  0  0  0
 35 36  1  0  0  0
  8 10  1  0  0  0
  9 17  1  0  0  0
 12 13  2  0  0  0
 12 17  1  0  0  0
 13 14  1  0  0  0
 14 15  2  0  0  0
 15 16  1  0  0  0
 16 17  2  0  0  0
M  END
> <minimizedAffinity>
-9.46548

> <CNNscore>
0.1306720078

> <CNNaffinity>
7.3961362839

> <CNN_VS>
0.9664679766

> <CNNaffinity_variance>
0.2867216468

$$$$
/media/chris/experiments/cd1a-new-docking/inputs/ligands/1xz0_ligand.pdb


 65 67  0  0  0  0  0  0  0  0999 V2000
  -36.4347   60.7131   65.0691 C   0  0  0  0  0  0  0  0  0  0  0  0
  -35.4292   61.7427   65.3391 N   0  0  0  0  0  0  0  0  0  0  0  0
  -36.1475   62.6611   67.2919 O   0  0  0  0  0  0  0  0  0  0  0  0
  -35.3464   62.6037   66.3683 C   0  0  0  0  0  0  0  0  0  0  0  0
  -34.7101   61.8148   64.6705 H   0  0  0  0  0  0  0  0  0  0  0  0
  -34.0517   64.2052   64.9758 N   0  0  0  0  0  0  0  0  0  0  0  0
  -31.9821   63.6336   65.5941 O   0  0  0  0  0  0  0  0  0  0  0  0
  -32.7905   63.2560   66.7078 C   0  0  0  0  0  0  0  0  0  0  0  0
  -32.8497   64.1879   64.5852 C   0  0  0  0  0  0  0  0  0  0  0  0
  -34.2447   63.6530   66.3301 C   0  0  0  0  0  0  0  0  0  0  0  0
  -33.6279   63.1530   61.9928 O   0  0  0  0  0  0  0  0  0  0  0  0
  -32.7862   64.1925   62.0463 C   0  0  0  0  0  0  0  0  0  0  0  0
  -32.3156   64.7646   60.8571 C   0  0  0  0  0  0  0  0  0  0  0  0
  -31.4241   65.8504   60.8865 C   0  0  0  0  0  0  0  0  0  0  0  0
  -31.0010   66.3827   62.1056 C   0  0  0  0  0  0  0  0  0  0  0  0
  -31.4726   65.8196   63.2947 C   0  0  0  0  0  0  0  0  0  0  0  0
  -32.3591   64.7260   63.2684 C   0  0  0  0  0  0  0  0  0  0  0  0
  -33.9001   62.8129   61.1632 H   0  0  0  0  0  0  0  0  0  0  0  0
  -37.6318   61.4827   63.1430 O   0  0  0  0  0  0  0  0  0  0  0  0
  -36.7327   60.7857   63.5836 C   0  0  0  0  0  0  0  0  0  0  0  0
  -35.9739   59.9518   62.6455 O   0  0  0  0  0  0  0  0  0  0  0  0
  -35.2506   58.7895   63.0924 C   0  0  0  0  0  0  0  0  0  0  0  0
  -33.8372   58.6714   62.5357 C   0  0  0  0  0  0  0  0  0  0  0  0
  -36.0757   57.5548   62.7618 C   0  0  0  0  0  0  0  0  0  0  0  0
  -38.3027   58.3844   62.1716 N   0  0  0  0  0  0  0  0  0  0  0  0
  -37.9638   57.1767   64.0535 O   0  0  0  0  0  0  0  0  0  0  0  0
  -37.5449   57.7253   63.0600 C   0  0  0  0  0  0  0  0  0  0  0  0
  -37.8505   58.7927   61.3982 H   0  0  0  0  0  0  0  0  0  0  0  0
  -40.5870   57.2914   60.3163 N   0  0  0  0  0  0  0  0  0  0  0  0
  -41.2423   56.7078   62.3888 O   0  0  0  0  0  0  0  0  0  0  0  0
  -39.6434   57.9233   59.3823 C   0  0  0  0  0  0  0  0  0  0  0  0
  -39.8659   59.4466   59.3300 C   0  0  0  0  0  0  0  0  0  0  0  0
  -40.8480   59.9943   60.3524 C   0  0  0  0  0  0  0  0  0  0  0  0
  -40.3391   59.8810   61.7918 C   0  0  0  0  0  0  0  0  0  0  0  0
  -39.7584   58.5399   62.2707 C   0  0  0  0  0  0  0  0  0  0  0  0
  -40.5794   57.4253   61.6522 C   0  0  0  0  0  0  0  0  0  0  0  0
  -42.0553   54.9937   60.6135 Si  0  0  0  0  0  0  0  0  0  0  0  0
  -41.5491   56.4910   59.7782 O   0  0  0  0  0  0  0  0  0  0  0  0
  -43.0633   54.3447   59.8526 H   0  0  0  0  0  0  0  0  0  0  0  0
  -42.5667   55.3180   61.8979 H   0  0  0  0  0  0  0  0  0  0  0  0
  -40.9377   54.1290   60.7537 H   0  0  0  0  0  0  0  0  0  0  0  0
  -38.8112   59.7169   65.5733 C   0  0  0  0  0  0  0  0  0  0  0  0
  -37.7031   60.7055   65.9565 C   0  0  0  0  0  0  0  0  0  0  0  0
  -40.2125   59.9877   66.1465 C   0  0  0  0  0  0  0  0  0  0  0  0
  -41.3593   59.0629   65.6892 C   0  0  0  0  0  0  0  0  0  0  0  0
  -42.2144   59.8135   64.7645 N   0  0  0  0  0  0  0  0  0  0  0  0
  -43.3783   59.4327   64.1746 C   0  0  0  0  0  0  0  0  0  0  0  0
  -41.7398   61.0988   64.4675 O   0  0  0  0  0  0  0  0  0  0  0  0
  -43.9839   60.1878   63.4142 O   0  0  0  0  0  0  0  0  0  0  0  0
  -42.3512   61.5355   63.8539 H   0  0  0  0  0  0  0  0  0  0  0  0
  -43.9402   58.0389   64.4735 C   0  0  0  0  0  0  0  0  0  0  0  0
  -44.7792   57.9533   65.7558 C   0  0  0  0  0  0  0  0  0  0  0  0
  -45.9164   58.9920   65.7137 C   0  0  0  0  0  0  0  0  0  0  0  0
  -47.3182   58.3766   65.8854 C   0  0  0  0  0  0  0  0  0  0  0  0
  -48.4724   59.2569   65.3706 C   0  0  0  0  0  0  0  0  0  0  0  0
  -48.1910   59.8625   63.9795 C   0  0  0  0  0  0  0  0  0  0  0  0
  -49.4533   60.3167   63.2100 C   0  0  0  0  0  0  0  0  0  0  0  0
  -49.2713   60.3205   61.6878 C   0  0  0  0  0  0  0  0  0  0  0  0
  -49.9182   59.1457   60.9473 C   0  0  0  0  0  0  0  0  0  0  0  0
  -49.2432   57.8113   61.3137 C   0  0  0  0  0  0  0  0  0  0  0  0
  -49.7206   56.6198   60.4698 C   0  0  0  0  0  0  0  0  0  0  0  0
  -48.7333   56.1149   59.4124 C   0  0  0  0  0  0  0  0  0  0  0  0
  -47.6022   57.1159   59.0689 C   0  0  0  0  0  0  0  0  0  0  0  0
  -47.9526   57.9601   57.8268 C   0  0  0  0  0  0  0  0  0  0  0  0
  -46.9178   58.0042   56.6960 C   0  0  0  0  0  0  0  0  0  0  0  0
 46 47  1  0  0  0
 46 48  1  0  0  0
 46 45  1  0  0  0
 47 49  2  0  0  0
 47 51  1  0  0  0
 19 20  2  0  0  0
 37 38  1  0  0  0
 37 39  1  0  0  0
 37 40  1  0  0  0
 37 41  1  0  0  0
 48 50  1  0  0  0
 38 29  1  0  0  0
 45 44  1  0  0  0
 25 27  1  0  0  0
 25 35  1  0  0  0
 25 28  1  0  0  0
 21 20  1  0  0  0
 21 22  1  0  0  0
 44 42  1  0  0  0
  2  1  1  0  0  0
  2  4  1  0  0  0
  2  5  1  0  0  0
 26 27  2  0  0  0
 42 43  2  0  0  0
 29 31  1  0  0  0
 29 36  1  0  0  0
  3  4  2  0  0  0
 43  1  1  0  0  0
  6  9  2  0  0  0
  6 10  1  0  0  0
  1 20  1  0  0  0
 30 36  2  0  0  0
  7  8  1  0  0  0
  7  9  1  0  0  0
 22 24  1  0  0  0
 22 23  1  0  0  0
 11 12  1  0  0  0
 11 18  1  0  0  0
 24 27  1  0  0  0
  4 10  1  0  0  0
 51 52  1  0  0  0
 52 53  1  0  0  0
 53 54  1  0  0  0
 54 55  1  0  0  0
 55 56  1  0  0  0
 56 57  1  0  0  0
 57 58  1  0  0  0
 58 59  1  0  0  0
 59 60  1  0  0  0
 60 61  1  0  0  0
 61 62  1  0  0  0
 62 63  1  0  0  0
 63 64  1  0  0  0
 64 65  1  0  0  0
 31 32  1  0  0  0
 32 33  1  0  0  0
 33 34  1  0  0  0
 34 35  1  0  0  0
 35 36  1  0  0  0
  8 10  1  0  0  0
  9 17  1  0  0  0
 12 13  2  0  0  0
 12 17  1  0  0  0
 13 14  1  0  0  0
 14 15  2  0  0  0
 15 16  1  0  0  0
 16 17  2  0  0  0
M  END
> <minimizedAffinity>
-9.38916

> <CNNscore>
0.1301015019

> <CNNaffinity>
7.3913969994

> <CNN_VS>
0.9616318345

> <CNNaffinity_variance>
1.1393840313

$$$$
/media/chris/experiments/cd1a-new-docking/inputs/ligands/1xz0_ligand.pdb


 65 67  0  0  0  0  0  0  0  0999 V2000
  -39.9813   59.0598   65.3107 C   0  0  0  0  0  0  0  0  0  0  0  0
  -38.8604   59.9239   64.9351 N   0  0  0  0  0  0  0  0  0  0  0  0
  -37.7688   60.2332   66.9063 O   0  0  0  0  0  0  0  0  0  0  0  0
  -37.8801   60.4299   65.7033 C   0  0  0  0  0  0  0  0  0  0  0  0
  -38.8187   60.1697   63.9827 H   0  0  0  0  0  0  0  0  0  0  0  0
  -35.8835   60.7090   64.2487 N   0  0  0  0  0  0  0  0  0  0  0  0
  -34.6690   62.0561   65.5535 O   0  0  0  0  0  0  0  0  0  0  0  0
  -36.0145   62.3084   65.9564 C   0  0  0  0  0  0  0  0  0  0  0  0
  -34.6976   61.0538   64.5179 C   0  0  0  0  0  0  0  0  0  0  0  0
  -36.9027   61.4025   65.0591 C   0  0  0  0  0  0  0  0  0  0  0  0
  -32.9861   62.6573   62.8160 O   0  0  0  0  0  0  0  0  0  0  0  0
  -32.6703   61.3729   63.0218 C   0  0  0  0  0  0  0  0  0  0  0  0
  -31.5190   60.8390   62.4283 C   0  0  0  0  0  0  0  0  0  0  0  0
  -31.1709   59.4914   62.6213 C   0  0  0  0  0  0  0  0  0  0  0  0
  -31.9649   58.6650   63.4183 C   0  0  0  0  0  0  0  0  0  0  0  0
  -33.1110   59.1946   64.0179 C   0  0  0  0  0  0  0  0  0  0  0  0
  -33.4672   60.5423   63.8192 C   0  0  0  0  0  0  0  0  0  0  0  0
  -32.4377   63.1942   62.2785 H   0  0  0  0  0  0  0  0  0  0  0  0
  -39.0480   57.3019   63.9787 O   0  0  0  0  0  0  0  0  0  0  0  0
  -40.0357   57.9549   64.2729 C   0  0  0  0  0  0  0  0  0  0  0  0
  -41.2835   57.6965   63.5468 O   0  0  0  0  0  0  0  0  0  0  0  0
  -41.8895   56.3901   63.5397 C   0  0  0  0  0  0  0  0  0  0  0  0
  -41.6886   55.5927   64.8224 C   0  0  0  0  0  0  0  0  0  0  0  0
  -41.3686   55.6265   62.3314 C   0  0  0  0  0  0  0  0  0  0  0  0
  -40.0220   57.2414   61.0765 N   0  0  0  0  0  0  0  0  0  0  0  0
  -41.9553   56.4238   60.2346 O   0  0  0  0  0  0  0  0  0  0  0  0
  -41.1418   56.5055   61.1262 C   0  0  0  0  0  0  0  0  0  0  0  0
  -39.4324   57.2312   61.8649 H   0  0  0  0  0  0  0  0  0  0  0  0
  -38.7668   60.1174   60.9872 N   0  0  0  0  0  0  0  0  0  0  0  0
  -37.4212   58.8942   59.6610 O   0  0  0  0  0  0  0  0  0  0  0  0
  -39.9321   60.2664   61.8712 C   0  0  0  0  0  0  0  0  0  0  0  0
  -41.2228   60.4357   61.0478 C   0  0  0  0  0  0  0  0  0  0  0  0
  -41.0676   60.2339   59.5495 C   0  0  0  0  0  0  0  0  0  0  0  0
  -40.7363   58.7877   59.1714 C   0  0  0  0  0  0  0  0  0  0  0  0
  -39.6133   58.0607   59.9298 C   0  0  0  0  0  0  0  0  0  0  0  0
  -38.5063   59.0606   60.2010 C   0  0  0  0  0  0  0  0  0  0  0  0
  -36.4304   61.0992   62.0366 Si  0  0  0  0  0  0  0  0  0  0  0  0
  -37.8659   61.1393   60.9720 O   0  0  0  0  0  0  0  0  0  0  0  0
  -35.6561   62.2717   61.8315 H   0  0  0  0  0  0  0  0  0  0  0  0
  -35.6467   59.9551   61.7317 H   0  0  0  0  0  0  0  0  0  0  0  0
  -36.8482   61.0391   63.3924 H   0  0  0  0  0  0  0  0  0  0  0  0
  -42.2898   59.0463   66.5616 C   0  0  0  0  0  0  0  0  0  0  0  0
  -41.3491   59.7377   65.5672 C   0  0  0  0  0  0  0  0  0  0  0  0
  -43.7752   59.4408   66.5023 C   0  0  0  0  0  0  0  0  0  0  0  0
  -44.5790   59.0020   65.2609 C   0  0  0  0  0  0  0  0  0  0  0  0
  -45.4300   57.8701   65.6405 N   0  0  0  0  0  0  0  0  0  0  0  0
  -46.7191   57.8752   66.0717 C   0  0  0  0  0  0  0  0  0  0  0  0
  -44.7988   56.6229   65.5326 O   0  0  0  0  0  0  0  0  0  0  0  0
  -47.3008   56.8277   66.3533 O   0  0  0  0  0  0  0  0  0  0  0  0
  -45.4167   55.9238   65.7981 H   0  0  0  0  0  0  0  0  0  0  0  0
  -47.4532   59.2141   66.1998 C   0  0  0  0  0  0  0  0  0  0  0  0
  -48.4246   59.5188   65.0513 C   0  0  0  0  0  0  0  0  0  0  0  0
  -49.7538   58.7711   65.2709 C   0  0  0  0  0  0  0  0  0  0  0  0
  -50.9947   59.6777   65.1628 C   0  0  0  0  0  0  0  0  0  0  0  0
  -50.9430   60.7011   64.0130 C   0  0  0  0  0  0  0  0  0  0  0  0
  -51.1747   60.0605   62.6285 C   0  0  0  0  0  0  0  0  0  0  0  0
  -50.0737   60.3676   61.5868 C   0  0  0  0  0  0  0  0  0  0  0  0
  -49.1477   59.1778   61.3092 C   0  0  0  0  0  0  0  0  0  0  0  0
  -49.7553   57.7975   61.5787 C   0  0  0  0  0  0  0  0  0  0  0  0
  -50.0107   57.0312   60.2679 C   0  0  0  0  0  0  0  0  0  0  0  0
  -48.8686   56.0854   59.8671 C   0  0  0  0  0  0  0  0  0  0  0  0
  -47.6759   56.7423   59.1644 C   0  0  0  0  0  0  0  0  0  0  0  0
  -47.2804   56.0741   57.8240 C   0  0  0  0  0  0  0  0  0  0  0  0
  -47.4411   57.0472   56.6384 C   0  0  0  0  0  0  0  0  0  0  0  0
  -47.3160   58.5452   56.9408 C   0  0  0  0  0  0  0  0  0  0  0  0
 46 47  1  0  0  0
 46 48  1  0  0  0
 46 45  1  0  0  0
 47 49  2  0  0  0
 47 51  1  0  0  0
 19 20  2  0  0  0
 37 38  1  0  0  0
 37 39  1  0  0  0
 37 40  1  0  0  0
 37 41  1  0  0  0
 48 50  1  0  0  0
 38 29  1  0  0  0
 45 44  1  0  0  0
 25 27  1  0  0  0
 25 35  1  0  0  0
 25 28  1  0  0  0
 21 20  1  0  0  0
 21 22  1  0  0  0
 44 42  1  0  0  0
  2  1  1  0  0  0
  2  4  1  0  0  0
  2  5  1  0  0  0
 26 27  2  0  0  0
 42 43  2  0  0  0
 29 31  1  0  0  0
 29 36  1  0  0  0
  3  4  2  0  0  0
 43  1  1  0  0  0
  6  9  2  0  0  0
  6 10  1  0  0  0
  1 20  1  0  0  0
 30 36  2  0  0  0
  7  8  1  0  0  0
  7  9  1  0  0  0
 22 24  1  0  0  0
 22 23  1  0  0  0
 11 12  1  0  0  0
 11 18  1  0  0  0
 24 27  1  0  0  0
  4 10  1  0  0  0
 51 52  1  0  0  0
 52 53  1  0  0  0
 53 54  1  0  0  0
 54 55  1  0  0  0
 55 56  1  0  0  0
 56 57  1  0  0  0
 57 58  1  0  0  0
 58 59  1  0  0  0
 59 60  1  0  0  0
 60 61  1  0  0  0
 61 62  1  0  0  0
 62 63  1  0  0  0
 63 64  1  0  0  0
 64 65  1  0  0  0
 31 32  1  0  0  0
 32 33  1  0  0  0
 33 34  1  0  0  0
 34 35  1  0  0  0
 35 36  1  0  0  0
  8 10  1  0  0  0
  9 17  1  0  0  0
 12 13  2  0  0  0
 12 17  1  0  0  0
 13 14  1  0  0  0
 14 15  2  0  0  0
 15 16  1  0  0  0
 16 17  2  0  0  0
M  END
> <minimizedAffinity>
-10.33933

> <CNNscore>
0.1065292358

> <CNNaffinity>
7.4681496620

> <CNN_VS>
0.7955762744

> <CNNaffinity_variance>
1.3913118839

$$$$
