/media/chris/experiments/cd1a-new-docking/inputs/ligands/1xz0_ligand.pdb


 65 67  0  0  0  0  0  0  0  0999 V2000
  -43.0629   58.9638   64.7409 C   0  0  0  0  0  0  0  0  0  0  0  0
  -44.3799   58.8144   65.3632 N   0  0  0  0  0  0  0  0  0  0  0  0
  -44.1592   56.9041   66.5776 O   0  0  0  0  0  0  0  0  0  0  0  0
  -44.8263   57.8555   66.1929 C   0  0  0  0  0  0  0  0  0  0  0  0
  -45.0325   59.5176   65.1421 H   0  0  0  0  0  0  0  0  0  0  0  0
  -47.1908   57.8902   65.4262 N   0  0  0  0  0  0  0  0  0  0  0  0
  -47.9425   59.6058   66.6443 O   0  0  0  0  0  0  0  0  0  0  0  0
  -46.8406   59.1043   67.3996 C   0  0  0  0  0  0  0  0  0  0  0  0
  -48.0620   58.8056   65.4512 C   0  0  0  0  0  0  0  0  0  0  0  0
  -46.2931   57.8917   66.5970 C   0  0  0  0  0  0  0  0  0  0  0  0
  -49.1449   61.3854   64.6970 O   0  0  0  0  0  0  0  0  0  0  0  0
  -49.6013   60.2888   64.0798 C   0  0  0  0  0  0  0  0  0  0  0  0
  -50.5734   60.4114   63.0784 C   0  0  0  0  0  0  0  0  0  0  0  0
  -51.0753   59.2750   62.4221 C   0  0  0  0  0  0  0  0  0  0  0  0
  -50.6034   58.0034   62.7529 C   0  0  0  0  0  0  0  0  0  0  0  0
  -49.6291   57.8764   63.7468 C   0  0  0  0  0  0  0  0  0  0  0  0
  -49.1305   59.0127   64.4124 C   0  0  0  0  0  0  0  0  0  0  0  0
  -49.4747   62.2292   64.4577 H   0  0  0  0  0  0  0  0  0  0  0  0
  -43.3518   58.0853   62.5318 O   0  0  0  0  0  0  0  0  0  0  0  0
  -42.9700   57.8897   63.6739 C   0  0  0  0  0  0  0  0  0  0  0  0
  -42.4733   56.5548   64.0235 O   0  0  0  0  0  0  0  0  0  0  0  0
  -41.1751   56.1023   63.5946 C   0  0  0  0  0  0  0  0  0  0  0  0
  -40.1321   57.2053   63.4644 C   0  0  0  0  0  0  0  0  0  0  0  0
  -41.3397   55.3451   62.2855 C   0  0  0  0  0  0  0  0  0  0  0  0
  -40.2354   57.1599   61.0677 N   0  0  0  0  0  0  0  0  0  0  0  0
  -41.9153   55.9719   60.1286 O   0  0  0  0  0  0  0  0  0  0  0  0
  -41.1973   56.2256   61.0686 C   0  0  0  0  0  0  0  0  0  0  0  0
  -39.7121   57.2786   61.8931 H   0  0  0  0  0  0  0  0  0  0  0  0
  -38.8234   59.9622   60.9758 N   0  0  0  0  0  0  0  0  0  0  0  0
  -37.7122   58.7417   59.4457 O   0  0  0  0  0  0  0  0  0  0  0  0
  -39.8714   60.1262   61.9940 C   0  0  0  0  0  0  0  0  0  0  0  0
  -41.2331   60.4126   61.3333 C   0  0  0  0  0  0  0  0  0  0  0  0
  -41.2589   60.2861   59.8190 C   0  0  0  0  0  0  0  0  0  0  0  0
  -41.0615   58.8470   59.3352 C   0  0  0  0  0  0  0  0  0  0  0  0
  -39.9076   58.0177   59.9232 C   0  0  0  0  0  0  0  0  0  0  0  0
  -38.7179   58.9379   60.1141 C   0  0  0  0  0  0  0  0  0  0  0  0
  -37.5803   62.0206   62.2954 Si  0  0  0  0  0  0  0  0  0  0  0  0
  -37.8687   60.9317   60.9073 O   0  0  0  0  0  0  0  0  0  0  0  0
  -36.5425   62.9344   61.9726 H   0  0  0  0  0  0  0  0  0  0  0  0
  -37.2000   61.2531   63.4280 H   0  0  0  0  0  0  0  0  0  0  0  0
  -38.7695   62.7393   62.5884 H   0  0  0  0  0  0  0  0  0  0  0  0
  -40.8354   60.1572   65.4542 C   0  0  0  0  0  0  0  0  0  0  0  0
  -41.8327   59.0140   65.6792 C   0  0  0  0  0  0  0  0  0  0  0  0
  -39.4310   59.9826   66.0564 C   0  0  0  0  0  0  0  0  0  0  0  0
  -38.4194   59.1267   65.2667 C   0  0  0  0  0  0  0  0  0  0  0  0
  -37.4817   60.0292   64.5915 N   0  0  0  0  0  0  0  0  0  0  0  0
  -36.4914   59.7309   63.7094 C   0  0  0  0  0  0  0  0  0  0  0  0
  -37.6561   61.3806   64.9210 O   0  0  0  0  0  0  0  0  0  0  0  0
  -35.7827   60.6130   63.2251 O   0  0  0  0  0  0  0  0  0  0  0  0
  -37.0060   61.9170   64.4409 H   0  0  0  0  0  0  0  0  0  0  0  0
  -36.2665   58.2677   63.3136 C   0  0  0  0  0  0  0  0  0  0  0  0
  -35.0009   57.6356   63.9088 C   0  0  0  0  0  0  0  0  0  0  0  0
  -33.7785   57.9774   63.0352 C   0  0  0  0  0  0  0  0  0  0  0  0
  -32.7648   58.9052   63.7316 C   0  0  0  0  0  0  0  0  0  0  0  0
  -31.4773   59.1667   62.9279 C   0  0  0  0  0  0  0  0  0  0  0  0
  -31.6641   60.2288   61.8241 C   0  0  0  0  0  0  0  0  0  0  0  0
  -32.5107   61.4520   62.2472 C   0  0  0  0  0  0  0  0  0  0  0  0
  -31.7153   62.5030   63.0300 C   0  0  0  0  0  0  0  0  0  0  0  0
  -32.2328   62.8001   64.4410 C   0  0  0  0  0  0  0  0  0  0  0  0
  -32.3881   64.3140   64.6744 C   0  0  0  0  0  0  0  0  0  0  0  0
  -33.8050   64.7380   65.0895 C   0  0  0  0  0  0  0  0  0  0  0  0
  -34.9165   63.7263   64.7917 C   0  0  0  0  0  0  0  0  0  0  0  0
  -35.8338   64.1196   63.6069 C   0  0  0  0  0  0  0  0  0  0  0  0
  -35.0339   64.2634   62.2964 C   0  0  0  0  0  0  0  0  0  0  0  0
  -35.8192   64.6434   61.0354 C   0  0  0  0  0  0  0  0  0  0  0  0
 46 47  1  0  0  0
 46 48  1  0  0  0
 46 45  1  0  0  0
 47 49  2  0  0  0
 47 51  1  0  0  0
 19 20  2  0  0  0
 37 38  1  0  0  0
 37 39  1  0  0  0
 37 40  1  0  0  0
 37 41  1  0  0  0
 48 50  1  0  0  0
 38 29  1  0  0  0
 45 44  1  0  0  0
 25 27  1  0  0  0
 25 35  1  0  0  0
 25 28  1  0  0  0
 21 20  1  0  0  0
 21 22  1  0  0  0
 44 42  1  0  0  0
  2  1  1  0  0  0
  2  4  1  0  0  0
  2  5  1  0  0  0
 26 27  2  0  0  0
 42 43  2  0  0  0
 29 31  1  0  0  0
 29 36  1  0  0  0
  3  4  2  0  0  0
 43  1  1  0  0  0
  6  9  2  0  0  0
  6 10  1  0  0  0
  1 20  1  0  0  0
 30 36  2  0  0  0
  7  8  1  0  0  0
  7  9  1  0  0  0
 22 24  1  0  0  0
 22 23  1  0  0  0
 11 12  1  0  0  0
 11 18  1  0  0  0
 24 27  1  0  0  0
  4 10  1  0  0  0
 51 52  1  0  0  0
 52 53  1  0  0  0
 53 54  1  0  0  0
 54 55  1  0  0  0
 55 56  1  0  0  0
 56 57  1  0  0  0
 57 58  1  0  0  0
 58 59  1  0  0  0
 59 60  1  0  0  0
 60 61  1  0  0  0
 61 62  1  0  0  0
 62 63  1  0  0  0
 63 64  1  0  0  0
 64 65  1  0  0  0
 31 32  1  0  0  0
 32 33  1  0  0  0
 33 34  1  0  0  0
 34 35  1  0  0  0
 35 36  1  0  0  0
  8 10  1  0  0  0
  9 17  1  0  0  0
 12 13  2  0  0  0
 12 17  1  0  0  0
 13 14  1  0  0  0
 14 15  2  0  0  0
 15 16  1  0  0  0
 16 17  2  0  0  0
M  END
> <minimizedAffinity>
-9.32719

> <CNNscore>
0.2056189626

> <CNNaffinity>
7.5626068115

> <CNN_VS>
1.5550153255

> <CNNaffinity_variance>
1.8350549936

$$$$
/media/chris/experiments/cd1a-new-docking/inputs/ligands/1xz0_ligand.pdb


 65 67  0  0  0  0  0  0  0  0999 V2000
  -41.9165   58.4647   65.9492 C   0  0  0  0  0  0  0  0  0  0  0  0
  -41.5871   57.6606   64.7706 N   0  0  0  0  0  0  0  0  0  0  0  0
  -42.4325   55.6148   65.2933 O   0  0  0  0  0  0  0  0  0  0  0  0
  -41.8462   56.3647   64.5238 C   0  0  0  0  0  0  0  0  0  0  0  0
  -41.1065   58.1377   64.0560 H   0  0  0  0  0  0  0  0  0  0  0  0
  -40.2067   56.5878   62.6684 N   0  0  0  0  0  0  0  0  0  0  0  0
  -41.5683   56.2236   60.9348 O   0  0  0  0  0  0  0  0  0  0  0  0
  -42.2026   55.5460   62.0187 C   0  0  0  0  0  0  0  0  0  0  0  0
  -40.3669   56.8393   61.4402 C   0  0  0  0  0  0  0  0  0  0  0  0
  -41.2781   55.7565   63.2497 C   0  0  0  0  0  0  0  0  0  0  0  0
  -38.0501   58.2606   62.4447 O   0  0  0  0  0  0  0  0  0  0  0  0
  -38.2968   58.2774   61.1292 C   0  0  0  0  0  0  0  0  0  0  0  0
  -37.4277   58.9625   60.2700 C   0  0  0  0  0  0  0  0  0  0  0  0
  -37.6698   59.0029   58.8866 C   0  0  0  0  0  0  0  0  0  0  0  0
  -38.7786   58.3499   58.3452 C   0  0  0  0  0  0  0  0  0  0  0  0
  -39.6451   57.6598   59.1974 C   0  0  0  0  0  0  0  0  0  0  0  0
  -39.4100   57.6250   60.5852 C   0  0  0  0  0  0  0  0  0  0  0  0
  -37.2988   58.7045   62.7862 H   0  0  0  0  0  0  0  0  0  0  0  0
  -43.6462   59.7156   64.8634 O   0  0  0  0  0  0  0  0  0  0  0  0
  -43.3436   58.9412   65.7562 C   0  0  0  0  0  0  0  0  0  0  0  0
  -44.3863   58.5229   66.6989 O   0  0  0  0  0  0  0  0  0  0  0  0
  -45.7740   58.4901   66.3151 C   0  0  0  0  0  0  0  0  0  0  0  0
  -46.6949   59.3206   67.2004 C   0  0  0  0  0  0  0  0  0  0  0  0
  -46.2235   57.0376   66.2656 C   0  0  0  0  0  0  0  0  0  0  0  0
  -48.1583   57.8554   65.0070 N   0  0  0  0  0  0  0  0  0  0  0  0
  -48.1640   55.8052   65.9621 O   0  0  0  0  0  0  0  0  0  0  0  0
  -47.6297   56.8687   65.7457 C   0  0  0  0  0  0  0  0  0  0  0  0
  -47.6304   58.6794   64.8992 H   0  0  0  0  0  0  0  0  0  0  0  0
  -49.2622   59.4540   62.5411 N   0  0  0  0  0  0  0  0  0  0  0  0
  -49.7309   57.3074   62.0531 O   0  0  0  0  0  0  0  0  0  0  0  0
  -48.7091   60.4949   63.4200 C   0  0  0  0  0  0  0  0  0  0  0  0
  -49.7104   60.8573   64.5328 C   0  0  0  0  0  0  0  0  0  0  0  0
  -50.9421   59.9704   64.6114 C   0  0  0  0  0  0  0  0  0  0  0  0
  -50.6209   58.5369   65.0426 C   0  0  0  0  0  0  0  0  0  0  0  0
  -49.4678   57.7933   64.3481 C   0  0  0  0  0  0  0  0  0  0  0  0
  -49.4808   58.1733   62.8803 C   0  0  0  0  0  0  0  0  0  0  0  0
  -50.7599   61.1191   60.9575 Si  0  0  0  0  0  0  0  0  0  0  0  0
  -49.5716   59.8197   61.2658 O   0  0  0  0  0  0  0  0  0  0  0  0
  -50.9033   61.3071   59.5573 H   0  0  0  0  0  0  0  0  0  0  0  0
  -50.3068   62.3259   61.5532 H   0  0  0  0  0  0  0  0  0  0  0  0
  -52.0136   60.7566   61.5172 H   0  0  0  0  0  0  0  0  0  0  0  0
  -39.5715   59.6026   65.6323 C   0  0  0  0  0  0  0  0  0  0  0  0
  -40.9327   59.5945   66.3389 C   0  0  0  0  0  0  0  0  0  0  0  0
  -38.4488   60.4175   66.2964 C   0  0  0  0  0  0  0  0  0  0  0  0
  -37.0675   60.4171   65.6098 C   0  0  0  0  0  0  0  0  0  0  0  0
  -36.8781   61.7160   64.9567 N   0  0  0  0  0  0  0  0  0  0  0  0
  -36.0926   62.7585   65.3361 C   0  0  0  0  0  0  0  0  0  0  0  0
  -37.6231   61.8745   63.7797 O   0  0  0  0  0  0  0  0  0  0  0  0
  -36.0421   63.7930   64.6712 O   0  0  0  0  0  0  0  0  0  0  0  0
  -37.4501   62.7515   63.4032 H   0  0  0  0  0  0  0  0  0  0  0  0
  -35.2547   62.6297   66.6126 C   0  0  0  0  0  0  0  0  0  0  0  0
  -33.8277   62.1118   66.3867 C   0  0  0  0  0  0  0  0  0  0  0  0
  -32.8104   63.2439   66.6268 C   0  0  0  0  0  0  0  0  0  0  0  0
  -32.6156   64.1646   65.4072 C   0  0  0  0  0  0  0  0  0  0  0  0
  -32.5125   63.4289   64.0581 C   0  0  0  0  0  0  0  0  0  0  0  0
  -31.1640   63.6664   63.3465 C   0  0  0  0  0  0  0  0  0  0  0  0
  -30.9389   62.7933   62.0899 C   0  0  0  0  0  0  0  0  0  0  0  0
  -32.0072   61.7102   61.9005 C   0  0  0  0  0  0  0  0  0  0  0  0
  -31.4721   60.3093   61.5873 C   0  0  0  0  0  0  0  0  0  0  0  0
  -31.1557   59.5285   62.8760 C   0  0  0  0  0  0  0  0  0  0  0  0
  -32.1824   58.4358   63.2099 C   0  0  0  0  0  0  0  0  0  0  0  0
  -33.4620   58.4448   62.3672 C   0  0  0  0  0  0  0  0  0  0  0  0
  -34.7079   58.9909   63.1083 C   0  0  0  0  0  0  0  0  0  0  0  0
  -34.8481   58.3685   64.5123 C   0  0  0  0  0  0  0  0  0  0  0  0
  -35.7034   57.1016   64.6338 C   0  0  0  0  0  0  0  0  0  0  0  0
 46 47  1  0  0  0
 46 48  1  0  0  0
 46 45  1  0  0  0
 47 49  2  0  0  0
 47 51  1  0  0  0
 19 20  2  0  0  0
 37 38  1  0  0  0
 37 39  1  0  0  0
 37 40  1  0  0  0
 37 41  1  0  0  0
 48 50  1  0  0  0
 38 29  1  0  0  0
 45 44  1  0  0  0
 25 27  1  0  0  0
 25 35  1  0  0  0
 25 28  1  0  0  0
 21 20  1  0  0  0
 21 22  1  0  0  0
 44 42  1  0  0  0
  2  1  1  0  0  0
  2  4  1  0  0  0
  2  5  1  0  0  0
 26 27  2  0  0  0
 42 43  2  0  0  0
 29 31  1  0  0  0
 29 36  1  0  0  0
  3  4  2  0  0  0
 43  1  1  0  0  0
  6  9  2  0  0  0
  6 10  1  0  0  0
  1 20  1  0  0  0
 30 36  2  0  0  0
  7  8  1  0  0  0
  7  9  1  0  0  0
 22 24  1  0  0  0
 22 23  1  0  0  0
 11 12  1  0  0  0
 11 18  1  0  0  0
 24 27  1  0  0  0
  4 10  1  0  0  0
 51 52  1  0  0  0
 52 53  1  0  0  0
 53 54  1  0  0  0
 54 55  1  0  0  0
 55 56  1  0  0  0
 56 57  1  0  0  0
 57 58  1  0  0  0
 58 59  1  0  0  0
 59 60  1  0  0  0
 60 61  1  0  0  0
 61 62  1  0  0  0
 62 63  1  0  0  0
 63 64  1  0  0  0
 64 65  1  0  0  0
 31 32  1  0  0  0
 32 33  1  0  0  0
 33 34  1  0  0  0
 34 35  1  0  0  0
 35 36  1  0  0  0
  8 10  1  0  0  0
  9 17  1  0  0  0
 12 13  2  0  0  0
 12 17  1  0  0  0
 13 14  1  0  0  0
 14 15  2  0  0  0
 15 16  1  0  0  0
 16 17  2  0  0  0
M  END
> <minimizedAffinity>
-8.52480

> <CNNscore>
0.1782647371

> <CNNaffinity>
7.3616971970

> <CNN_VS>
1.3123309612

> <CNNaffinity_variance>
0.7603651285

$$$$
/media/chris/experiments/cd1a-new-docking/inputs/ligands/1xz0_ligand.pdb


 65 67  0  0  0  0  0  0  0  0999 V2000
  -40.6257   57.3582   61.9003 C   0  0  0  0  0  0  0  0  0  0  0  0
  -39.3776   57.2646   62.6604 N   0  0  0  0  0  0  0  0  0  0  0  0
  -39.8378   58.4455   64.5489 O   0  0  0  0  0  0  0  0  0  0  0  0
  -39.0724   57.7798   63.8640 C   0  0  0  0  0  0  0  0  0  0  0  0
  -38.6583   56.7503   62.2276 H   0  0  0  0  0  0  0  0  0  0  0  0
  -37.2087   58.7712   65.1770 N   0  0  0  0  0  0  0  0  0  0  0  0
  -35.5550   58.5392   63.6925 O   0  0  0  0  0  0  0  0  0  0  0  0
  -36.4786   57.5093   63.3424 C   0  0  0  0  0  0  0  0  0  0  0  0
  -36.1017   59.2614   64.8139 C   0  0  0  0  0  0  0  0  0  0  0  0
  -37.6441   57.6195   64.3642 C   0  0  0  0  0  0  0  0  0  0  0  0
  -37.4447   61.5041   66.0643 O   0  0  0  0  0  0  0  0  0  0  0  0
  -36.1072   61.4572   66.0901 C   0  0  0  0  0  0  0  0  0  0  0  0
  -35.3905   62.4767   66.7303 C   0  0  0  0  0  0  0  0  0  0  0  0
  -33.9860   62.4553   66.7630 C   0  0  0  0  0  0  0  0  0  0  0  0
  -33.2824   61.4086   66.1645 C   0  0  0  0  0  0  0  0  0  0  0  0
  -33.9930   60.3859   65.5301 C   0  0  0  0  0  0  0  0  0  0  0  0
  -35.4002   60.4091   65.4880 C   0  0  0  0  0  0  0  0  0  0  0  0
  -37.8965   62.2155   66.4740 H   0  0  0  0  0  0  0  0  0  0  0  0
  -40.8857   58.5009   59.8117 O   0  0  0  0  0  0  0  0  0  0  0  0
  -40.4638   58.5342   60.9560 C   0  0  0  0  0  0  0  0  0  0  0  0
  -39.7250   59.7238   61.3919 O   0  0  0  0  0  0  0  0  0  0  0  0
  -38.5211   60.1448   60.7232 C   0  0  0  0  0  0  0  0  0  0  0  0
  -38.1047   59.2607   59.5541 C   0  0  0  0  0  0  0  0  0  0  0  0
  -37.4095   60.2476   61.7567 C   0  0  0  0  0  0  0  0  0  0  0  0
  -36.5116   62.5220   61.8888 N   0  0  0  0  0  0  0  0  0  0  0  0
  -38.0936   61.8015   63.3359 O   0  0  0  0  0  0  0  0  0  0  0  0
  -37.3346   61.6031   62.4150 C   0  0  0  0  0  0  0  0  0  0  0  0
  -35.9368   62.2454   61.1389 H   0  0  0  0  0  0  0  0  0  0  0  0
  -34.3595   64.7152   61.2463 N   0  0  0  0  0  0  0  0  0  0  0  0
  -36.3224   65.7539   60.8799 O   0  0  0  0  0  0  0  0  0  0  0  0
  -33.5644   63.5410   61.6344 C   0  0  0  0  0  0  0  0  0  0  0  0
  -33.4789   63.4233   63.1678 C   0  0  0  0  0  0  0  0  0  0  0  0
  -34.3541   64.3944   63.9428 C   0  0  0  0  0  0  0  0  0  0  0  0
  -35.8505   64.1206   63.7697 C   0  0  0  0  0  0  0  0  0  0  0  0
  -36.4077   63.9104   62.3518 C   0  0  0  0  0  0  0  0  0  0  0  0
  -35.6834   64.8597   61.4174 C   0  0  0  0  0  0  0  0  0  0  0  0
  -32.3341   66.5493   61.4859 Si  0  0  0  0  0  0  0  0  0  0  0  0
  -33.6947   65.7447   60.6510 O   0  0  0  0  0  0  0  0  0  0  0  0
  -31.8158   67.5816   60.6599 H   0  0  0  0  0  0  0  0  0  0  0  0
  -31.3134   65.5987   61.7522 H   0  0  0  0  0  0  0  0  0  0  0  0
  -32.7923   67.1069   62.7088 H   0  0  0  0  0  0  0  0  0  0  0  0
  -42.7913   58.6630   62.6087 C   0  0  0  0  0  0  0  0  0  0  0  0
  -41.9489   57.3849   62.7032 C   0  0  0  0  0  0  0  0  0  0  0  0
  -43.8479   58.8813   63.7048 C   0  0  0  0  0  0  0  0  0  0  0  0
  -43.4657   58.4953   65.1485 C   0  0  0  0  0  0  0  0  0  0  0  0
  -44.4516   57.5290   65.6425 N   0  0  0  0  0  0  0  0  0  0  0  0
  -45.5947   57.7543   66.3426 C   0  0  0  0  0  0  0  0  0  0  0  0
  -44.1456   56.1962   65.3335 O   0  0  0  0  0  0  0  0  0  0  0  0
  -46.3244   56.8249   66.6870 O   0  0  0  0  0  0  0  0  0  0  0  0
  -44.8362   55.6151   65.6887 H   0  0  0  0  0  0  0  0  0  0  0  0
  -45.9747   59.1955   66.6985 C   0  0  0  0  0  0  0  0  0  0  0  0
  -47.0660   59.8037   65.8070 C   0  0  0  0  0  0  0  0  0  0  0  0
  -48.3169   60.1248   66.6474 C   0  0  0  0  0  0  0  0  0  0  0  0
  -49.5675   60.4242   65.7992 C   0  0  0  0  0  0  0  0  0  0  0  0
  -50.6519   59.3316   65.8474 C   0  0  0  0  0  0  0  0  0  0  0  0
  -50.1773   57.9885   65.2538 C   0  0  0  0  0  0  0  0  0  0  0  0
  -49.9273   58.0139   63.7278 C   0  0  0  0  0  0  0  0  0  0  0  0
  -51.1326   58.5093   62.9205 C   0  0  0  0  0  0  0  0  0  0  0  0
  -50.9996   59.9225   62.3442 C   0  0  0  0  0  0  0  0  0  0  0  0
  -49.5896   60.1662   61.7756 C   0  0  0  0  0  0  0  0  0  0  0  0
  -49.5361   60.2098   60.2410 C   0  0  0  0  0  0  0  0  0  0  0  0
  -49.6908   58.8609   59.5310 C   0  0  0  0  0  0  0  0  0  0  0  0
  -48.3540   58.1240   59.2670 C   0  0  0  0  0  0  0  0  0  0  0  0
  -48.2444   57.6603   57.8003 C   0  0  0  0  0  0  0  0  0  0  0  0
  -47.2854   58.4375   56.8905 C   0  0  0  0  0  0  0  0  0  0  0  0
 46 47  1  0  0  0
 46 48  1  0  0  0
 46 45  1  0  0  0
 47 49  2  0  0  0
 47 51  1  0  0  0
 19 20  2  0  0  0
 37 38  1  0  0  0
 37 39  1  0  0  0
 37 40  1  0  0  0
 37 41  1  0  0  0
 48 50  1  0  0  0
 38 29  1  0  0  0
 45 44  1  0  0  0
 25 27  1  0  0  0
 25 35  1  0  0  0
 25 28  1  0  0  0
 21 20  1  0  0  0
 21 22  1  0  0  0
 44 42  1  0  0  0
  2  1  1  0  0  0
  2  4  1  0  0  0
  2  5  1  0  0  0
 26 27  2  0  0  0
 42 43  2  0  0  0
 29 31  1  0  0  0
 29 36  1  0  0  0
  3  4  2  0  0  0
 43  1  1  0  0  0
  6  9  2  0  0  0
  6 10  1  0  0  0
  1 20  1  0  0  0
 30 36  2  0  0  0
  7  8  1  0  0  0
  7  9  1  0  0  0
 22 24  1  0  0  0
 22 23  1  0  0  0
 11 12  1  0  0  0
 11 18  1  0  0  0
 24 27  1  0  0  0
  4 10  1  0  0  0
 51 52  1  0  0  0
 52 53  1  0  0  0
 53 54  1  0  0  0
 54 55  1  0  0  0
 55 56  1  0  0  0
 56 57  1  0  0  0
 57 58  1  0  0  0
 58 59  1  0  0  0
 59 60  1  0  0  0
 60 61  1  0  0  0
 61 62  1  0  0  0
 62 63  1  0  0  0
 63 64  1  0  0  0
 64 65  1  0  0  0
 31 32  1  0  0  0
 32 33  1  0  0  0
 33 34  1  0  0  0
 34 35  1  0  0  0
 35 36  1  0  0  0
  8 10  1  0  0  0
  9 17  1  0  0  0
 12 13  2  0  0  0
 12 17  1  0  0  0
 13 14  1  0  0  0
 14 15  2  0  0  0
 15 16  1  0  0  0
 16 17  2  0  0  0
M  END
> <minimizedAffinity>
-9.52207

> <CNNscore>
0.1698303223

> <CNNaffinity>
7.2666521072

> <CNN_VS>
1.2340978384

> <CNNaffinity_variance>
0.5071627498

$$$$
/media/chris/experiments/cd1a-new-docking/inputs/ligands/1xz0_ligand.pdb


 65 67  0  0  0  0  0  0  0  0999 V2000
  -36.9590   61.0956   64.4785 C   0  0  0  0  0  0  0  0  0  0  0  0
  -37.4370   60.5748   63.1962 N   0  0  0  0  0  0  0  0  0  0  0  0
  -37.1566   62.3398   61.7894 O   0  0  0  0  0  0  0  0  0  0  0  0
  -37.5051   61.1856   62.0005 C   0  0  0  0  0  0  0  0  0  0  0  0
  -37.7543   59.6429   63.2120 H   0  0  0  0  0  0  0  0  0  0  0  0
  -39.2639   59.5674   61.3163 N   0  0  0  0  0  0  0  0  0  0  0  0
  -38.0236   58.1878   60.0710 O   0  0  0  0  0  0  0  0  0  0  0  0
  -37.3220   59.4291   60.0120 C   0  0  0  0  0  0  0  0  0  0  0  0
  -39.1849   58.3751   60.9042 C   0  0  0  0  0  0  0  0  0  0  0  0
  -38.1608   60.4307   60.8532 C   0  0  0  0  0  0  0  0  0  0  0  0
  -41.4865   57.7992   59.2404 O   0  0  0  0  0  0  0  0  0  0  0  0
  -41.2764   57.0530   60.3316 C   0  0  0  0  0  0  0  0  0  0  0  0
  -42.1573   56.0067   60.6354 C   0  0  0  0  0  0  0  0  0  0  0  0
  -41.9639   55.2150   61.7800 C   0  0  0  0  0  0  0  0  0  0  0  0
  -40.8815   55.4542   62.6285 C   0  0  0  0  0  0  0  0  0  0  0  0
  -39.9963   56.4927   62.3262 C   0  0  0  0  0  0  0  0  0  0  0  0
  -40.1924   57.2935   61.1848 C   0  0  0  0  0  0  0  0  0  0  0  0
  -42.2187   57.6198   58.6839 H   0  0  0  0  0  0  0  0  0  0  0  0
  -34.8814   60.7834   65.6281 O   0  0  0  0  0  0  0  0  0  0  0  0
  -35.4940   60.7146   64.5752 C   0  0  0  0  0  0  0  0  0  0  0  0
  -34.7625   60.3155   63.3683 O   0  0  0  0  0  0  0  0  0  0  0  0
  -34.6649   58.9339   62.9739 C   0  0  0  0  0  0  0  0  0  0  0  0
  -34.6697   57.9437   64.1320 C   0  0  0  0  0  0  0  0  0  0  0  0
  -33.4207   58.7674   62.1145 C   0  0  0  0  0  0  0  0  0  0  0  0
  -32.4806   61.0183   61.9011 N   0  0  0  0  0  0  0  0  0  0  0  0
  -31.4767   59.4464   63.1804 O   0  0  0  0  0  0  0  0  0  0  0  0
  -32.3503   59.7869   62.4159 C   0  0  0  0  0  0  0  0  0  0  0  0
  -33.2330   61.1802   61.2872 H   0  0  0  0  0  0  0  0  0  0  0  0
  -33.0252   63.7130   63.4166 N   0  0  0  0  0  0  0  0  0  0  0  0
  -31.1509   62.9177   64.3756 O   0  0  0  0  0  0  0  0  0  0  0  0
  -34.1247   63.6242   62.4444 C   0  0  0  0  0  0  0  0  0  0  0  0
  -33.6643   64.1053   61.0555 C   0  0  0  0  0  0  0  0  0  0  0  0
  -32.1762   64.3854   60.9263 C   0  0  0  0  0  0  0  0  0  0  0  0
  -31.3179   63.1220   61.0333 C   0  0  0  0  0  0  0  0  0  0  0  0
  -31.5810   62.1413   62.1883 C   0  0  0  0  0  0  0  0  0  0  0  0
  -31.9193   62.9517   63.4243 C   0  0  0  0  0  0  0  0  0  0  0  0
  -32.6438   64.2631   66.0766 Si  0  0  0  0  0  0  0  0  0  0  0  0
  -33.1441   64.6448   64.4033 O   0  0  0  0  0  0  0  0  0  0  0  0
  -32.8677   65.3930   66.9070 H   0  0  0  0  0  0  0  0  0  0  0  0
  -31.2637   63.9293   66.0934 H   0  0  0  0  0  0  0  0  0  0  0  0
  -33.4026   63.1638   66.5585 H   0  0  0  0  0  0  0  0  0  0  0  0
  -38.9576   59.7766   65.5556 C   0  0  0  0  0  0  0  0  0  0  0  0
  -37.7776   60.7382   65.7427 C   0  0  0  0  0  0  0  0  0  0  0  0
  -40.0188   59.7540   66.6687 C   0  0  0  0  0  0  0  0  0  0  0  0
  -41.4013   60.3574   66.3461 C   0  0  0  0  0  0  0  0  0  0  0  0
  -41.7218   60.0515   64.9485 N   0  0  0  0  0  0  0  0  0  0  0  0
  -42.2771   58.9272   64.4239 C   0  0  0  0  0  0  0  0  0  0  0  0
  -41.4004   61.0812   64.0530 O   0  0  0  0  0  0  0  0  0  0  0  0
  -42.4858   58.8240   63.2153 O   0  0  0  0  0  0  0  0  0  0  0  0
  -41.6380   60.8121   63.1520 H   0  0  0  0  0  0  0  0  0  0  0  0
  -42.6515   57.7766   65.3642 C   0  0  0  0  0  0  0  0  0  0  0  0
  -43.9981   57.1110   65.0494 C   0  0  0  0  0  0  0  0  0  0  0  0
  -45.0339   57.4767   66.1300 C   0  0  0  0  0  0  0  0  0  0  0  0
  -45.4138   58.9696   66.1376 C   0  0  0  0  0  0  0  0  0  0  0  0
  -46.3714   59.3935   65.0084 C   0  0  0  0  0  0  0  0  0  0  0  0
  -47.6720   58.5635   64.9812 C   0  0  0  0  0  0  0  0  0  0  0  0
  -48.6245   58.9013   63.8105 C   0  0  0  0  0  0  0  0  0  0  0  0
  -49.7910   57.9167   63.6697 C   0  0  0  0  0  0  0  0  0  0  0  0
  -50.7993   58.2484   62.5651 C   0  0  0  0  0  0  0  0  0  0  0  0
  -50.5681   57.3798   61.3151 C   0  0  0  0  0  0  0  0  0  0  0  0
  -49.1393   57.4601   60.7567 C   0  0  0  0  0  0  0  0  0  0  0  0
  -48.7988   56.4542   59.6522 C   0  0  0  0  0  0  0  0  0  0  0  0
  -47.5511   56.8284   58.8137 C   0  0  0  0  0  0  0  0  0  0  0  0
  -47.7946   58.0989   57.9743 C   0  0  0  0  0  0  0  0  0  0  0  0
  -47.5348   58.0015   56.4661 C   0  0  0  0  0  0  0  0  0  0  0  0
 46 47  1  0  0  0
 46 48  1  0  0  0
 46 45  1  0  0  0
 47 49  2  0  0  0
 47 51  1  0  0  0
 19 20  2  0  0  0
 37 38  1  0  0  0
 37 39  1  0  0  0
 37 40  1  0  0  0
 37 41  1  0  0  0
 48 50  1  0  0  0
 38 29  1  0  0  0
 45 44  1  0  0  0
 25 27  1  0  0  0
 25 35  1  0  0  0
 25 28  1  0  0  0
 21 20  1  0  0  0
 21 22  1  0  0  0
 44 42  1  0  0  0
  2  1  1  0  0  0
  2  4  1  0  0  0
  2  5  1  0  0  0
 26 27  2  0  0  0
 42 43  2  0  0  0
 29 31  1  0  0  0
 29 36  1  0  0  0
  3  4  2  0  0  0
 43  1  1  0  0  0
  6  9  2  0  0  0
  6 10  1  0  0  0
  1 20  1  0  0  0
 30 36  2  0  0  0
  7  8  1  0  0  0
  7  9  1  0  0  0
 22 24  1  0  0  0
 22 23  1  0  0  0
 11 12  1  0  0  0
 11 18  1  0  0  0
 24 27  1  0  0  0
  4 10  1  0  0  0
 51 52  1  0  0  0
 52 53  1  0  0  0
 53 54  1  0  0  0
 54 55  1  0  0  0
 55 56  1  0  0  0
 56 57  1  0  0  0
 57 58  1  0  0  0
 58 59  1  0  0  0
 59 60  1  0  0  0
 60 61  1  0  0  0
 61 62  1  0  0  0
 62 63  1  0  0  0
 63 64  1  0  0  0
 64 65  1  0  0  0
 31 32  1  0  0  0
 32 33  1  0  0  0
 33 34  1  0  0  0
 34 35  1  0  0  0
 35 36  1  0  0  0
  8 10  1  0  0  0
  9 17  1  0  0  0
 12 13  2  0  0  0
 12 17  1  0  0  0
 13 14  1  0  0  0
 14 15  2  0  0  0
 15 16  1  0  0  0
 16 17  2  0  0  0
M  END
> <minimizedAffinity>
-8.22369

> <CNNscore>
0.1622441411

> <CNNaffinity>
7.2005681992

> <CNN_VS>
1.1682499647

> <CNNaffinity_variance>
0.4068331122

$$$$
/media/chris/experiments/cd1a-new-docking/inputs/ligands/1xz0_ligand.pdb


 65 67  0  0  0  0  0  0  0  0999 V2000
  -43.1944   57.6940   65.4028 C   0  0  0  0  0  0  0  0  0  0  0  0
  -42.7447   58.7512   64.4950 N   0  0  0  0  0  0  0  0  0  0  0  0
  -44.6934   59.5659   63.6514 O   0  0  0  0  0  0  0  0  0  0  0  0
  -43.4714   59.5749   63.7200 C   0  0  0  0  0  0  0  0  0  0  0  0
  -41.7695   58.8768   64.4450 H   0  0  0  0  0  0  0  0  0  0  0  0
  -42.0293   59.7766   61.7051 N   0  0  0  0  0  0  0  0  0  0  0  0
  -40.4333   61.1036   62.5320 O   0  0  0  0  0  0  0  0  0  0  0  0
  -41.5766   61.4005   63.3327 C   0  0  0  0  0  0  0  0  0  0  0  0
  -40.8112   60.0896   61.5797 C   0  0  0  0  0  0  0  0  0  0  0  0
  -42.7240   60.5100   62.7803 C   0  0  0  0  0  0  0  0  0  0  0  0
  -38.0044   60.7740   61.3556 O   0  0  0  0  0  0  0  0  0  0  0  0
  -38.5238   59.8909   60.4941 C   0  0  0  0  0  0  0  0  0  0  0  0
  -37.7025   59.3081   59.5201 C   0  0  0  0  0  0  0  0  0  0  0  0
  -38.2257   58.3856   58.5984 C   0  0  0  0  0  0  0  0  0  0  0  0
  -39.5743   58.0279   58.6466 C   0  0  0  0  0  0  0  0  0  0  0  0
  -40.3962   58.6018   59.6205 C   0  0  0  0  0  0  0  0  0  0  0  0
  -39.8768   59.5331   60.5399 C   0  0  0  0  0  0  0  0  0  0  0  0
  -37.0959   60.9983   61.3059 H   0  0  0  0  0  0  0  0  0  0  0  0
  -43.0741   55.3254   65.0695 O   0  0  0  0  0  0  0  0  0  0  0  0
  -42.5393   56.4123   64.9243 C   0  0  0  0  0  0  0  0  0  0  0  0
  -41.1991   56.4556   64.3302 O   0  0  0  0  0  0  0  0  0  0  0  0
  -41.0116   56.4449   62.9024 C   0  0  0  0  0  0  0  0  0  0  0  0
  -41.4729   55.1665   62.2135 C   0  0  0  0  0  0  0  0  0  0  0  0
  -39.5461   56.7284   62.6091 C   0  0  0  0  0  0  0  0  0  0  0  0
  -37.5834   57.4531   63.8815 N   0  0  0  0  0  0  0  0  0  0  0  0
  -39.5864   58.4722   64.1367 O   0  0  0  0  0  0  0  0  0  0  0  0
  -38.8937   57.6117   63.6437 C   0  0  0  0  0  0  0  0  0  0  0  0
  -37.1211   56.7152   63.4221 H   0  0  0  0  0  0  0  0  0  0  0  0
  -35.6841   59.8664   63.2307 N   0  0  0  0  0  0  0  0  0  0  0  0
  -37.0206   60.6497   64.8636 O   0  0  0  0  0  0  0  0  0  0  0  0
  -35.2387   58.8071   62.3135 C   0  0  0  0  0  0  0  0  0  0  0  0
  -34.2985   57.8224   63.0338 C   0  0  0  0  0  0  0  0  0  0  0  0
  -34.1737   58.0246   64.5349 C   0  0  0  0  0  0  0  0  0  0  0  0
  -35.4673   57.7093   65.2909 C   0  0  0  0  0  0  0  0  0  0  0  0
  -36.7903   58.3019   64.7778 C   0  0  0  0  0  0  0  0  0  0  0  0
  -36.5125   59.7051   64.2751 C   0  0  0  0  0  0  0  0  0  0  0  0
  -36.2209   62.3036   62.0925 Si  0  0  0  0  0  0  0  0  0  0  0  0
  -35.2224   61.1261   62.9937 O   0  0  0  0  0  0  0  0  0  0  0  0
  -35.5183   63.5325   61.9809 H   0  0  0  0  0  0  0  0  0  0  0  0
  -37.4417   62.5175   62.7856 H   0  0  0  0  0  0  0  0  0  0  0  0
  -36.4959   61.7962   60.7950 H   0  0  0  0  0  0  0  0  0  0  0  0
  -45.4150   58.7314   66.3446 C   0  0  0  0  0  0  0  0  0  0  0  0
  -44.7180   57.5601   65.6416 C   0  0  0  0  0  0  0  0  0  0  0  0
  -46.7911   58.4470   66.9699 C   0  0  0  0  0  0  0  0  0  0  0  0
  -47.9761   58.2195   66.0090 C   0  0  0  0  0  0  0  0  0  0  0  0
  -48.9584   59.2853   66.2298 N   0  0  0  0  0  0  0  0  0  0  0  0
  -50.1818   59.4531   65.6615 C   0  0  0  0  0  0  0  0  0  0  0  0
  -48.5511   60.2496   67.1623 O   0  0  0  0  0  0  0  0  0  0  0  0
  -50.8954   60.4114   65.9569 O   0  0  0  0  0  0  0  0  0  0  0  0
  -49.2453   60.9202   67.2582 H   0  0  0  0  0  0  0  0  0  0  0  0
  -50.6733   58.4212   64.6408 C   0  0  0  0  0  0  0  0  0  0  0  0
  -51.1701   59.0218   63.3187 C   0  0  0  0  0  0  0  0  0  0  0  0
  -50.4621   60.3634   63.0485 C   0  0  0  0  0  0  0  0  0  0  0  0
  -49.2750   60.2470   62.0735 C   0  0  0  0  0  0  0  0  0  0  0  0
  -49.6294   60.5079   60.5976 C   0  0  0  0  0  0  0  0  0  0  0  0
  -49.1959   59.3583   59.6640 C   0  0  0  0  0  0  0  0  0  0  0  0
  -50.3418   58.4114   59.2371 C   0  0  0  0  0  0  0  0  0  0  0  0
  -50.7459   57.4126   60.3275 C   0  0  0  0  0  0  0  0  0  0  0  0
  -49.6050   56.5584   60.8895 C   0  0  0  0  0  0  0  0  0  0  0  0
  -48.9078   55.7522   59.7783 C   0  0  0  0  0  0  0  0  0  0  0  0
  -47.4672   56.2025   59.4929 C   0  0  0  0  0  0  0  0  0  0  0  0
  -47.0342   56.1567   58.0239 C   0  0  0  0  0  0  0  0  0  0  0  0
  -48.1941   56.3367   57.0130 C   0  0  0  0  0  0  0  0  0  0  0  0
  -48.0029   57.6025   56.1531 C   0  0  0  0  0  0  0  0  0  0  0  0
  -47.0296   58.6647   56.6782 C   0  0  0  0  0  0  0  0  0  0  0  0
 46 47  1  0  0  0
 46 48  1  0  0  0
 46 45  1  0  0  0
 47 49  2  0  0  0
 47 51  1  0  0  0
 19 20  2  0  0  0
 37 38  1  0  0  0
 37 39  1  0  0  0
 37 40  1  0  0  0
 37 41  1  0  0  0
 48 50  1  0  0  0
 38 29  1  0  0  0
 45 44  1  0  0  0
 25 27  1  0  0  0
 25 35  1  0  0  0
 25 28  1  0  0  0
 21 20  1  0  0  0
 21 22  1  0  0  0
 44 42  1  0  0  0
  2  1  1  0  0  0
  2  4  1  0  0  0
  2  5  1  0  0  0
 26 27  2  0  0  0
 42 43  2  0  0  0
 29 31  1  0  0  0
 29 36  1  0  0  0
  3  4  2  0  0  0
 43  1  1  0  0  0
  6  9  2  0  0  0
  6 10  1  0  0  0
  1 20  1  0  0  0
 30 36  2  0  0  0
  7  8  1  0  0  0
  7  9  1  0  0  0
 22 24  1  0  0  0
 22 23  1  0  0  0
 11 12  1  0  0  0
 11 18  1  0  0  0
 24 27  1  0  0  0
  4 10  1  0  0  0
 51 52  1  0  0  0
 52 53  1  0  0  0
 53 54  1  0  0  0
 54 55  1  0  0  0
 55 56  1  0  0  0
 56 57  1  0  0  0
 57 58  1  0  0  0
 58 59  1  0  0  0
 59 60  1  0  0  0
 60 61  1  0  0  0
 61 62  1  0  0  0
 62 63  1  0  0  0
 63 64  1  0  0  0
 64 65  1  0  0  0
 31 32  1  0  0  0
 32 33  1  0  0  0
 33 34  1  0  0  0
 34 35  1  0  0  0
 35 36  1  0  0  0
  8 10  1  0  0  0
  9 17  1  0  0  0
 12 13  2  0  0  0
 12 17  1  0  0  0
 13 14  1  0  0  0
 14 15  2  0  0  0
 15 16  1  0  0  0
 16 17  2  0  0  0
M  END
> <minimizedAffinity>
-10.21630

> <CNNscore>
0.1520642042

> <CNNaffinity>
7.7573380470

> <CNN_VS>
1.1796134710

> <CNNaffinity_variance>
1.4204142094

$$$$
/media/chris/experiments/cd1a-new-docking/inputs/ligands/1xz0_ligand.pdb


 65 67  0  0  0  0  0  0  0  0999 V2000
  -39.0653   58.7468   65.6718 C   0  0  0  0  0  0  0  0  0  0  0  0
  -37.9624   59.6941   65.8456 N   0  0  0  0  0  0  0  0  0  0  0  0
  -38.4108   61.2936   64.2920 O   0  0  0  0  0  0  0  0  0  0  0  0
  -37.7123   60.8403   65.1891 C   0  0  0  0  0  0  0  0  0  0  0  0
  -37.3100   59.4576   66.5440 H   0  0  0  0  0  0  0  0  0  0  0  0
  -36.2917   62.8323   64.7485 N   0  0  0  0  0  0  0  0  0  0  0  0
  -34.3437   61.8101   64.3580 O   0  0  0  0  0  0  0  0  0  0  0  0
  -35.0533   60.8924   65.1891 C   0  0  0  0  0  0  0  0  0  0  0  0
  -35.1929   62.9536   64.1358 C   0  0  0  0  0  0  0  0  0  0  0  0
  -36.4151   61.5712   65.5041 C   0  0  0  0  0  0  0  0  0  0  0  0
  -36.2559   63.6165   61.5228 O   0  0  0  0  0  0  0  0  0  0  0  0
  -35.3451   64.4283   62.0737 C   0  0  0  0  0  0  0  0  0  0  0  0
  -34.9400   65.5811   61.3884 C   0  0  0  0  0  0  0  0  0  0  0  0
  -33.9788   66.4442   61.9409 C   0  0  0  0  0  0  0  0  0  0  0  0
  -33.4190   66.1694   63.1899 C   0  0  0  0  0  0  0  0  0  0  0  0
  -33.8245   65.0239   63.8804 C   0  0  0  0  0  0  0  0  0  0  0  0
  -34.7811   64.1525   63.3253 C   0  0  0  0  0  0  0  0  0  0  0  0
  -36.6196   63.8214   60.6839 H   0  0  0  0  0  0  0  0  0  0  0  0
  -39.4783   57.2193   63.8740 O   0  0  0  0  0  0  0  0  0  0  0  0
  -38.6538   57.8129   64.5495 C   0  0  0  0  0  0  0  0  0  0  0  0
  -37.2319   57.5537   64.3004 O   0  0  0  0  0  0  0  0  0  0  0  0
  -36.6549   57.7355   62.9935 C   0  0  0  0  0  0  0  0  0  0  0  0
  -35.1825   57.3565   62.8939 C   0  0  0  0  0  0  0  0  0  0  0  0
  -36.8805   59.1780   62.5662 C   0  0  0  0  0  0  0  0  0  0  0  0
  -38.7448   58.3766   61.1956 N   0  0  0  0  0  0  0  0  0  0  0  0
  -37.6669   60.3013   60.6964 O   0  0  0  0  0  0  0  0  0  0  0  0
  -37.7964   59.3078   61.3743 C   0  0  0  0  0  0  0  0  0  0  0  0
  -38.7529   57.6079   61.8107 H   0  0  0  0  0  0  0  0  0  0  0  0
  -41.3673   60.0913   61.0043 N   0  0  0  0  0  0  0  0  0  0  0  0
  -40.3637   60.4068   59.0146 O   0  0  0  0  0  0  0  0  0  0  0  0
  -41.4309   59.4942   62.3465 C   0  0  0  0  0  0  0  0  0  0  0  0
  -41.9653   58.0513   62.2762 C   0  0  0  0  0  0  0  0  0  0  0  0
  -42.1344   57.4895   60.8742 C   0  0  0  0  0  0  0  0  0  0  0  0
  -40.8026   57.2821   60.1480 C   0  0  0  0  0  0  0  0  0  0  0  0
  -39.7712   58.4227   60.1481 C   0  0  0  0  0  0  0  0  0  0  0  0
  -40.5218   59.7343   60.0243 C   0  0  0  0  0  0  0  0  0  0  0  0
  -41.9582   62.1953   59.3466 Si  0  0  0  0  0  0  0  0  0  0  0  0
  -42.2379   61.1040   60.7346 O   0  0  0  0  0  0  0  0  0  0  0  0
  -43.0003   63.1578   59.2838 H   0  0  0  0  0  0  0  0  0  0  0  0
  -41.9400   61.4381   58.1454 H   0  0  0  0  0  0  0  0  0  0  0  0
  -40.7121   62.8567   59.5081 H   0  0  0  0  0  0  0  0  0  0  0  0
  -41.2254   59.7466   66.7803 C   0  0  0  0  0  0  0  0  0  0  0  0
  -40.4879   59.3327   65.5009 C   0  0  0  0  0  0  0  0  0  0  0  0
  -42.7514   59.9105   66.6805 C   0  0  0  0  0  0  0  0  0  0  0  0
  -43.4593   59.2621   65.4730 C   0  0  0  0  0  0  0  0  0  0  0  0
  -44.3091   58.1746   65.9676 N   0  0  0  0  0  0  0  0  0  0  0  0
  -45.6596   58.1445   66.1186 C   0  0  0  0  0  0  0  0  0  0  0  0
  -43.6017   57.0183   66.3257 O   0  0  0  0  0  0  0  0  0  0  0  0
  -46.2301   57.1433   66.5511 O   0  0  0  0  0  0  0  0  0  0  0  0
  -44.2231   56.3441   66.6422 H   0  0  0  0  0  0  0  0  0  0  0  0
  -46.4767   59.3826   65.7344 C   0  0  0  0  0  0  0  0  0  0  0  0
  -47.6909   59.6474   66.6351 C   0  0  0  0  0  0  0  0  0  0  0  0
  -48.9764   59.6998   65.7871 C   0  0  0  0  0  0  0  0  0  0  0  0
  -49.3504   58.3468   65.1526 C   0  0  0  0  0  0  0  0  0  0  0  0
  -50.5309   58.4058   64.1653 C   0  0  0  0  0  0  0  0  0  0  0  0
  -51.1240   59.8233   64.0230 C   0  0  0  0  0  0  0  0  0  0  0  0
  -51.0482   60.4103   62.5942 C   0  0  0  0  0  0  0  0  0  0  0  0
  -49.6601   60.2844   61.9560 C   0  0  0  0  0  0  0  0  0  0  0  0
  -49.6358   59.6601   60.5571 C   0  0  0  0  0  0  0  0  0  0  0  0
  -49.4842   58.1296   60.6283 C   0  0  0  0  0  0  0  0  0  0  0  0
  -48.2289   57.5948   59.9227 C   0  0  0  0  0  0  0  0  0  0  0  0
  -48.4521   56.4149   58.9709 C   0  0  0  0  0  0  0  0  0  0  0  0
  -47.2479   56.1069   58.0464 C   0  0  0  0  0  0  0  0  0  0  0  0
  -47.3984   56.7946   56.6743 C   0  0  0  0  0  0  0  0  0  0  0  0
  -47.1966   58.3140   56.6273 C   0  0  0  0  0  0  0  0  0  0  0  0
 46 47  1  0  0  0
 46 48  1  0  0  0
 46 45  1  0  0  0
 47 49  2  0  0  0
 47 51  1  0  0  0
 19 20  2  0  0  0
 37 38  1  0  0  0
 37 39  1  0  0  0
 37 40  1  0  0  0
 37 41  1  0  0  0
 48 50  1  0  0  0
 38 29  1  0  0  0
 45 44  1  0  0  0
 25 27  1  0  0  0
 25 35  1  0  0  0
 25 28  1  0  0  0
 21 20  1  0  0  0
 21 22  1  0  0  0
 44 42  1  0  0  0
  2  1  1  0  0  0
  2  4  1  0  0  0
  2  5  1  0  0  0
 26 27  2  0  0  0
 42 43  2  0  0  0
 29 31  1  0  0  0
 29 36  1  0  0  0
  3  4  2  0  0  0
 43  1  1  0  0  0
  6  9  2  0  0  0
  6 10  1  0  0  0
  1 20  1  0  0  0
 30 36  2  0  0  0
  7  8  1  0  0  0
  7  9  1  0  0  0
 22 24  1  0  0  0
 22 23  1  0  0  0
 11 12  1  0  0  0
 11 18  1  0  0  0
 24 27  1  0  0  0
  4 10  1  0  0  0
 51 52  1  0  0  0
 52 53  1  0  0  0
 53 54  1  0  0  0
 54 55  1  0  0  0
 55 56  1  0  0  0
 56 57  1  0  0  0
 57 58  1  0  0  0
 58 59  1  0  0  0
 59 60  1  0  0  0
 60 61  1  0  0  0
 61 62  1  0  0  0
 62 63  1  0  0  0
 63 64  1  0  0  0
 64 65  1  0  0  0
 31 32  1  0  0  0
 32 33  1  0  0  0
 33 34  1  0  0  0
 34 35  1  0  0  0
 35 36  1  0  0  0
  8 10  1  0  0  0
  9 17  1  0  0  0
 12 13  2  0  0  0
 12 17  1  0  0  0
 13 14  1  0  0  0
 14 15  2  0  0  0
 15 16  1  0  0  0
 16 17  2  0  0  0
M  END
> <minimizedAffinity>
-9.88572

> <CNNscore>
0.1386060268

> <CNNaffinity>
7.4730238914

> <CNN_VS>
1.0358061790

> <CNNaffinity_variance>
1.6206610203

$$$$
/media/chris/experiments/cd1a-new-docking/inputs/ligands/1xz0_ligand.pdb


 65 67  0  0  0  0  0  0  0  0999 V2000
  -36.5323   60.3556   64.5207 C   0  0  0  0  0  0  0  0  0  0  0  0
  -37.1373   60.0618   63.2201 N   0  0  0  0  0  0  0  0  0  0  0  0
  -37.1258   62.0848   62.1807 O   0  0  0  0  0  0  0  0  0  0  0  0
  -37.3846   60.8886   62.1892 C   0  0  0  0  0  0  0  0  0  0  0  0
  -37.4011   59.1236   63.0804 H   0  0  0  0  0  0  0  0  0  0  0  0
  -39.2598   59.4603   61.3992 N   0  0  0  0  0  0  0  0  0  0  0  0
  -38.1595   58.2047   59.9143 O   0  0  0  0  0  0  0  0  0  0  0  0
  -37.3963   59.4088   59.9794 C   0  0  0  0  0  0  0  0  0  0  0  0
  -39.2657   58.3319   60.8298 C   0  0  0  0  0  0  0  0  0  0  0  0
  -38.1368   60.3260   60.9917 C   0  0  0  0  0  0  0  0  0  0  0  0
  -41.5461   57.9365   59.0862 O   0  0  0  0  0  0  0  0  0  0  0  0
  -41.3856   57.1189   60.1338 C   0  0  0  0  0  0  0  0  0  0  0  0
  -42.3070   56.0868   60.3545 C   0  0  0  0  0  0  0  0  0  0  0  0
  -42.1659   55.2211   61.4522 C   0  0  0  0  0  0  0  0  0  0  0  0
  -41.0960   55.3715   62.3361 C   0  0  0  0  0  0  0  0  0  0  0  0
  -40.1706   56.3956   62.1167 C   0  0  0  0  0  0  0  0  0  0  0  0
  -40.3142   57.2702   61.0226 C   0  0  0  0  0  0  0  0  0  0  0  0
  -42.2709   57.8162   58.5046 H   0  0  0  0  0  0  0  0  0  0  0  0
  -35.5738   58.2376   65.0961 O   0  0  0  0  0  0  0  0  0  0  0  0
  -35.3888   59.3738   64.6918 C   0  0  0  0  0  0  0  0  0  0  0  0
  -34.0113   59.8056   64.4331 O   0  0  0  0  0  0  0  0  0  0  0  0
  -33.3616   59.5264   63.1786 C   0  0  0  0  0  0  0  0  0  0  0  0
  -32.5400   58.2433   63.1636 C   0  0  0  0  0  0  0  0  0  0  0  0
  -32.5087   60.7286   62.8023 C   0  0  0  0  0  0  0  0  0  0  0  0
  -33.6240   62.5457   64.0067 N   0  0  0  0  0  0  0  0  0  0  0  0
  -33.4521   62.5678   61.7516 O   0  0  0  0  0  0  0  0  0  0  0  0
  -33.2745   62.0285   62.8198 C   0  0  0  0  0  0  0  0  0  0  0  0
  -33.4291   62.0146   64.8125 H   0  0  0  0  0  0  0  0  0  0  0  0
  -33.3804   64.6224   66.3483 N   0  0  0  0  0  0  0  0  0  0  0  0
  -33.0747   65.8567   64.4912 O   0  0  0  0  0  0  0  0  0  0  0  0
  -33.6387   63.3463   67.0313 C   0  0  0  0  0  0  0  0  0  0  0  0
  -35.1440   63.0197   67.0251 C   0  0  0  0  0  0  0  0  0  0  0  0
  -36.0057   63.9474   66.1845 C   0  0  0  0  0  0  0  0  0  0  0  0
  -35.7322   63.8217   64.6833 C   0  0  0  0  0  0  0  0  0  0  0  0
  -34.2762   63.8474   64.1891 C   0  0  0  0  0  0  0  0  0  0  0  0
  -33.5122   64.8501   65.0316 C   0  0  0  0  0  0  0  0  0  0  0  0
  -33.8841   66.1481   68.5714 Si  0  0  0  0  0  0  0  0  0  0  0  0
  -32.9605   65.6642   67.1193 O   0  0  0  0  0  0  0  0  0  0  0  0
  -33.2425   67.2510   69.1947 H   0  0  0  0  0  0  0  0  0  0  0  0
  -33.9421   65.0586   69.4803 H   0  0  0  0  0  0  0  0  0  0  0  0
  -35.2014   66.5192   68.1926 H   0  0  0  0  0  0  0  0  0  0  0  0
  -38.8600   59.7855   65.5935 C   0  0  0  0  0  0  0  0  0  0  0  0
  -37.4759   60.4283   65.7457 C   0  0  0  0  0  0  0  0  0  0  0  0
  -39.9402   60.2155   66.6005 C   0  0  0  0  0  0  0  0  0  0  0  0
  -41.3609   59.6469   66.4062 C   0  0  0  0  0  0  0  0  0  0  0  0
  -41.7424   59.8322   65.0027 N   0  0  0  0  0  0  0  0  0  0  0  0
  -42.4139   58.9845   64.1790 C   0  0  0  0  0  0  0  0  0  0  0  0
  -41.3467   61.0645   64.4639 O   0  0  0  0  0  0  0  0  0  0  0  0
  -42.6604   59.2914   63.0129 O   0  0  0  0  0  0  0  0  0  0  0  0
  -41.6303   61.1185   63.5378 H   0  0  0  0  0  0  0  0  0  0  0  0
  -42.8726   57.6281   64.7248 C   0  0  0  0  0  0  0  0  0  0  0  0
  -44.3926   57.4888   64.8854 C   0  0  0  0  0  0  0  0  0  0  0  0
  -44.9345   58.6162   65.7851 C   0  0  0  0  0  0  0  0  0  0  0  0
  -46.4072   58.9719   65.5057 C   0  0  0  0  0  0  0  0  0  0  0  0
  -46.6673   59.5806   64.1151 C   0  0  0  0  0  0  0  0  0  0  0  0
  -47.8536   58.9191   63.3828 C   0  0  0  0  0  0  0  0  0  0  0  0
  -49.2458   59.3183   63.9252 C   0  0  0  0  0  0  0  0  0  0  0  0
  -50.3550   58.3313   63.5435 C   0  0  0  0  0  0  0  0  0  0  0  0
  -51.0434   58.6053   62.2026 C   0  0  0  0  0  0  0  0  0  0  0  0
  -51.0326   57.3573   61.3010 C   0  0  0  0  0  0  0  0  0  0  0  0
  -50.0567   57.4519   60.1185 C   0  0  0  0  0  0  0  0  0  0  0  0
  -48.9138   56.4314   60.1154 C   0  0  0  0  0  0  0  0  0  0  0  0
  -47.9733   56.5334   58.8887 C   0  0  0  0  0  0  0  0  0  0  0  0
  -47.8965   57.9779   58.3541 C   0  0  0  0  0  0  0  0  0  0  0  0
  -47.3675   58.1688   56.9275 C   0  0  0  0  0  0  0  0  0  0  0  0
 46 47  1  0  0  0
 46 48  1  0  0  0
 46 45  1  0  0  0
 47 49  2  0  0  0
 47 51  1  0  0  0
 19 20  2  0  0  0
 37 38  1  0  0  0
 37 39  1  0  0  0
 37 40  1  0  0  0
 37 41  1  0  0  0
 48 50  1  0  0  0
 38 29  1  0  0  0
 45 44  1  0  0  0
 25 27  1  0  0  0
 25 35  1  0  0  0
 25 28  1  0  0  0
 21 20  1  0  0  0
 21 22  1  0  0  0
 44 42  1  0  0  0
  2  1  1  0  0  0
  2  4  1  0  0  0
  2  5  1  0  0  0
 26 27  2  0  0  0
 42 43  2  0  0  0
 29 31  1  0  0  0
 29 36  1  0  0  0
  3  4  2  0  0  0
 43  1  1  0  0  0
  6  9  2  0  0  0
  6 10  1  0  0  0
  1 20  1  0  0  0
 30 36  2  0  0  0
  7  8  1  0  0  0
  7  9  1  0  0  0
 22 24  1  0  0  0
 22 23  1  0  0  0
 11 12  1  0  0  0
 11 18  1  0  0  0
 24 27  1  0  0  0
  4 10  1  0  0  0
 51 52  1  0  0  0
 52 53  1  0  0  0
 53 54  1  0  0  0
 54 55  1  0  0  0
 55 56  1  0  0  0
 56 57  1  0  0  0
 57 58  1  0  0  0
 58 59  1  0  0  0
 59 60  1  0  0  0
 60 61  1  0  0  0
 61 62  1  0  0  0
 62 63  1  0  0  0
 63 64  1  0  0  0
 64 65  1  0  0  0
 31 32  1  0  0  0
 32 33  1  0  0  0
 33 34  1  0  0  0
 34 35  1  0  0  0
 35 36  1  0  0  0
  8 10  1  0  0  0
  9 17  1  0  0  0
 12 13  2  0  0  0
 12 17  1  0  0  0
 13 14  1  0  0  0
 14 15  2  0  0  0
 15 16  1  0  0  0
 16 17  2  0  0  0
M  END
> <minimizedAffinity>
-8.63824

> <CNNscore>
0.1320533156

> <CNNaffinity>
7.2449989319

> <CNN_VS>
0.9567261338

> <CNNaffinity_variance>
0.3861316144

$$$$
/media/chris/experiments/cd1a-new-docking/inputs/ligands/1xz0_ligand.pdb


 65 67  0  0  0  0  0  0  0  0999 V2000
  -38.4274   59.2047   65.4645 C   0  0  0  0  0  0  0  0  0  0  0  0
  -37.8016   60.2925   64.7102 N   0  0  0  0  0  0  0  0  0  0  0  0
  -36.6088   61.3986   66.2998 O   0  0  0  0  0  0  0  0  0  0  0  0
  -36.9806   61.2659   65.1412 C   0  0  0  0  0  0  0  0  0  0  0  0
  -38.0125   60.3143   63.7488 H   0  0  0  0  0  0  0  0  0  0  0  0
  -35.4333   61.9173   63.3077 N   0  0  0  0  0  0  0  0  0  0  0  0
  -34.7875   63.9157   64.0702 O   0  0  0  0  0  0  0  0  0  0  0  0
  -36.0698   63.7187   64.6645 C   0  0  0  0  0  0  0  0  0  0  0  0
  -34.4852   62.7525   63.2742 C   0  0  0  0  0  0  0  0  0  0  0  0
  -36.5704   62.3420   64.1463 C   0  0  0  0  0  0  0  0  0  0  0  0
  -32.7895   60.4029   63.3022 O   0  0  0  0  0  0  0  0  0  0  0  0
  -32.4556   61.4300   62.5114 C   0  0  0  0  0  0  0  0  0  0  0  0
  -31.3115   61.3420   61.7077 C   0  0  0  0  0  0  0  0  0  0  0  0
  -30.9345   62.4099   60.8760 C   0  0  0  0  0  0  0  0  0  0  0  0
  -31.7032   63.5744   60.8313 C   0  0  0  0  0  0  0  0  0  0  0  0
  -32.8490   63.6645   61.6264 C   0  0  0  0  0  0  0  0  0  0  0  0
  -33.2245   62.5995   62.4674 C   0  0  0  0  0  0  0  0  0  0  0  0
  -32.2598   59.6301   63.3152 H   0  0  0  0  0  0  0  0  0  0  0  0
  -37.1461   57.2029   65.7590 O   0  0  0  0  0  0  0  0  0  0  0  0
  -37.7666   57.9230   64.9941 C   0  0  0  0  0  0  0  0  0  0  0  0
  -37.8078   57.5594   63.5739 O   0  0  0  0  0  0  0  0  0  0  0  0
  -36.6190   57.5764   62.7613 C   0  0  0  0  0  0  0  0  0  0  0  0
  -35.3148   57.5200   63.5472 C   0  0  0  0  0  0  0  0  0  0  0  0
  -36.6676   58.8054   61.8661 C   0  0  0  0  0  0  0  0  0  0  0  0
  -39.0721   58.9898   61.4410 N   0  0  0  0  0  0  0  0  0  0  0  0
  -37.5995   58.7296   59.7443 O   0  0  0  0  0  0  0  0  0  0  0  0
  -37.8474   58.8085   60.9257 C   0  0  0  0  0  0  0  0  0  0  0  0
  -39.1535   59.0389   62.4210 H   0  0  0  0  0  0  0  0  0  0  0  0
  -42.0583   58.4146   62.2200 N   0  0  0  0  0  0  0  0  0  0  0  0
  -42.1197   60.4709   61.3070 O   0  0  0  0  0  0  0  0  0  0  0  0
  -41.3425   57.1998   62.6370 C   0  0  0  0  0  0  0  0  0  0  0  0
  -41.1195   56.2597   61.4375 C   0  0  0  0  0  0  0  0  0  0  0  0
  -41.4994   56.8349   60.0830 C   0  0  0  0  0  0  0  0  0  0  0  0
  -40.5931   57.9896   59.6477 C   0  0  0  0  0  0  0  0  0  0  0  0
  -40.2994   59.1205   60.6475 C   0  0  0  0  0  0  0  0  0  0  0  0
  -41.5650   59.3884   61.4383 C   0  0  0  0  0  0  0  0  0  0  0  0
  -44.0163   60.2041   62.9182 Si  0  0  0  0  0  0  0  0  0  0  0  0
  -43.3327   58.5702   62.6756 O   0  0  0  0  0  0  0  0  0  0  0  0
  -45.3492   60.0936   63.3951 H   0  0  0  0  0  0  0  0  0  0  0  0
  -44.0117   60.9071   61.6844 H   0  0  0  0  0  0  0  0  0  0  0  0
  -43.2308   60.9096   63.8678 H   0  0  0  0  0  0  0  0  0  0  0  0
  -40.7080   60.1661   66.3417 C   0  0  0  0  0  0  0  0  0  0  0  0
  -39.9740   59.1392   65.4705 C   0  0  0  0  0  0  0  0  0  0  0  0
  -42.1701   59.8531   66.7018 C   0  0  0  0  0  0  0  0  0  0  0  0
  -43.1120   59.4353   65.5538 C   0  0  0  0  0  0  0  0  0  0  0  0
  -43.8913   58.2753   65.9974 N   0  0  0  0  0  0  0  0  0  0  0  0
  -45.2191   58.1921   66.2764 C   0  0  0  0  0  0  0  0  0  0  0  0
  -43.1345   57.1044   66.1441 O   0  0  0  0  0  0  0  0  0  0  0  0
  -45.7281   57.1326   66.6413 O   0  0  0  0  0  0  0  0  0  0  0  0
  -43.7108   56.3816   66.4381 H   0  0  0  0  0  0  0  0  0  0  0  0
  -46.0888   59.4445   66.1246 C   0  0  0  0  0  0  0  0  0  0  0  0
  -46.5555   59.7242   64.6895 C   0  0  0  0  0  0  0  0  0  0  0  0
  -47.7534   58.8211   64.3378 C   0  0  0  0  0  0  0  0  0  0  0  0
  -48.8770   58.8519   65.3912 C   0  0  0  0  0  0  0  0  0  0  0  0
  -50.2972   58.6842   64.8192 C   0  0  0  0  0  0  0  0  0  0  0  0
  -51.1549   59.9593   64.9590 C   0  0  0  0  0  0  0  0  0  0  0  0
  -50.9498   60.9976   63.8312 C   0  0  0  0  0  0  0  0  0  0  0  0
  -51.0856   60.4045   62.4242 C   0  0  0  0  0  0  0  0  0  0  0  0
  -49.7850   60.3226   61.6189 C   0  0  0  0  0  0  0  0  0  0  0  0
  -49.8177   59.1535   60.6175 C   0  0  0  0  0  0  0  0  0  0  0  0
  -48.9355   57.9627   61.0216 C   0  0  0  0  0  0  0  0  0  0  0  0
  -48.2657   57.2089   59.8680 C   0  0  0  0  0  0  0  0  0  0  0  0
  -48.7836   57.6057   58.4631 C   0  0  0  0  0  0  0  0  0  0  0  0
  -47.7736   58.5047   57.7215 C   0  0  0  0  0  0  0  0  0  0  0  0
  -47.0564   57.8989   56.5090 C   0  0  0  0  0  0  0  0  0  0  0  0
 46 47  1  0  0  0
 46 48  1  0  0  0
 46 45  1  0  0  0
 47 49  2  0  0  0
 47 51  1  0  0  0
 19 20  2  0  0  0
 37 38  1  0  0  0
 37 39  1  0  0  0
 37 40  1  0  0  0
 37 41  1  0  0  0
 48 50  1  0  0  0
 38 29  1  0  0  0
 45 44  1  0  0  0
 25 27  1  0  0  0
 25 35  1  0  0  0
 25 28  1  0  0  0
 21 20  1  0  0  0
 21 22  1  0  0  0
 44 42  1  0  0  0
  2  1  1  0  0  0
  2  4  1  0  0  0
  2  5  1  0  0  0
 26 27  2  0  0  0
 42 43  2  0  0  0
 29 31  1  0  0  0
 29 36  1  0  0  0
  3  4  2  0  0  0
 43  1  1  0  0  0
  6  9  2  0  0  0
  6 10  1  0  0  0
  1 20  1  0  0  0
 30 36  2  0  0  0
  7  8  1  0  0  0
  7  9  1  0  0  0
 22 24  1  0  0  0
 22 23  1  0  0  0
 11 12  1  0  0  0
 11 18  1  0  0  0
 24 27  1  0  0  0
  4 10  1  0  0  0
 51 52  1  0  0  0
 52 53  1  0  0  0
 53 54  1  0  0  0
 54 55  1  0  0  0
 55 56  1  0  0  0
 56 57  1  0  0  0
 57 58  1  0  0  0
 58 59  1  0  0  0
 59 60  1  0  0  0
 60 61  1  0  0  0
 61 62  1  0  0  0
 62 63  1  0  0  0
 63 64  1  0  0  0
 64 65  1  0  0  0
 31 32  1  0  0  0
 32 33  1  0  0  0
 33 34  1  0  0  0
 34 35  1  0  0  0
 35 36  1  0  0  0
  8 10  1  0  0  0
  9 17  1  0  0  0
 12 13  2  0  0  0
 12 17  1  0  0  0
 13 14  1  0  0  0
 14 15  2  0  0  0
 15 16  1  0  0  0
 16 17  2  0  0  0
M  END
> <minimizedAffinity>
-10.25138

> <CNNscore>
0.1182173640

> <CNNaffinity>
7.2977256775

> <CNN_VS>
0.8627178669

> <CNNaffinity_variance>
1.5767004490

$$$$
/media/chris/experiments/cd1a-new-docking/inputs/ligands/1xz0_ligand.pdb


 65 67  0  0  0  0  0  0  0  0999 V2000
  -37.7997   59.8969   65.7201 C   0  0  0  0  0  0  0  0  0  0  0  0
  -37.1724   61.2178   65.7972 N   0  0  0  0  0  0  0  0  0  0  0  0
  -37.3185   61.9802   63.6593 O   0  0  0  0  0  0  0  0  0  0  0  0
  -36.9790   62.1271   64.8260 C   0  0  0  0  0  0  0  0  0  0  0  0
  -36.8452   61.4774   66.6887 H   0  0  0  0  0  0  0  0  0  0  0  0
  -35.5413   63.9733   63.9865 N   0  0  0  0  0  0  0  0  0  0  0  0
  -33.8685   63.8302   65.4608 O   0  0  0  0  0  0  0  0  0  0  0  0
  -34.9882   63.2842   66.1569 C   0  0  0  0  0  0  0  0  0  0  0  0
  -34.3085   64.2058   64.1404 C   0  0  0  0  0  0  0  0  0  0  0  0
  -36.1869   63.3795   65.1728 C   0  0  0  0  0  0  0  0  0  0  0  0
  -32.6341   66.5191   64.6327 O   0  0  0  0  0  0  0  0  0  0  0  0
  -32.6138   65.9545   63.4192 C   0  0  0  0  0  0  0  0  0  0  0  0
  -31.7778   66.4793   62.4250 C   0  0  0  0  0  0  0  0  0  0  0  0
  -31.7452   65.9106   61.1405 C   0  0  0  0  0  0  0  0  0  0  0  0
  -32.5410   64.8041   60.8387 C   0  0  0  0  0  0  0  0  0  0  0  0
  -33.3719   64.2729   61.8291 C   0  0  0  0  0  0  0  0  0  0  0  0
  -33.4133   64.8461   63.1145 C   0  0  0  0  0  0  0  0  0  0  0  0
  -32.0903   67.2603   64.8138 H   0  0  0  0  0  0  0  0  0  0  0  0
  -35.5828   59.1539   65.2014 O   0  0  0  0  0  0  0  0  0  0  0  0
  -36.7830   58.9782   65.0696 C   0  0  0  0  0  0  0  0  0  0  0  0
  -37.2362   57.8861   64.2020 O   0  0  0  0  0  0  0  0  0  0  0  0
  -36.5714   57.5915   62.9590 C   0  0  0  0  0  0  0  0  0  0  0  0
  -35.1435   57.0819   63.1107 C   0  0  0  0  0  0  0  0  0  0  0  0
  -36.6204   58.8341   62.0828 C   0  0  0  0  0  0  0  0  0  0  0  0
  -39.0116   58.6691   61.5813 N   0  0  0  0  0  0  0  0  0  0  0  0
  -37.4953   59.0455   59.9459 O   0  0  0  0  0  0  0  0  0  0  0  0
  -37.7682   58.8251   61.1036 C   0  0  0  0  0  0  0  0  0  0  0  0
  -39.1128   58.4928   62.5446 H   0  0  0  0  0  0  0  0  0  0  0  0
  -42.0101   58.2030   62.3854 N   0  0  0  0  0  0  0  0  0  0  0  0
  -42.0388   60.1693   61.2906 O   0  0  0  0  0  0  0  0  0  0  0  0
  -41.3129   57.0221   62.9157 C   0  0  0  0  0  0  0  0  0  0  0  0
  -41.0941   55.9750   61.8074 C   0  0  0  0  0  0  0  0  0  0  0  0
  -41.4573   56.4305   60.4037 C   0  0  0  0  0  0  0  0  0  0  0  0
  -40.5333   57.5300   59.8733 C   0  0  0  0  0  0  0  0  0  0  0  0
  -40.2317   58.7427   60.7696 C   0  0  0  0  0  0  0  0  0  0  0  0
  -41.4990   59.0963   61.5230 C   0  0  0  0  0  0  0  0  0  0  0  0
  -43.8549   60.0680   63.1867 Si  0  0  0  0  0  0  0  0  0  0  0  0
  -43.2855   58.4147   62.8151 O   0  0  0  0  0  0  0  0  0  0  0  0
  -45.2090   60.0180   63.6113 H   0  0  0  0  0  0  0  0  0  0  0  0
  -43.7531   60.8763   62.0236 H   0  0  0  0  0  0  0  0  0  0  0  0
  -43.0550   60.6231   64.2203 H   0  0  0  0  0  0  0  0  0  0  0  0
  -40.3952   60.2030   65.9729 C   0  0  0  0  0  0  0  0  0  0  0  0
  -39.2082   59.8128   65.0835 C   0  0  0  0  0  0  0  0  0  0  0  0
  -41.7860   59.7219   65.5258 C   0  0  0  0  0  0  0  0  0  0  0  0
  -42.8550   59.5208   66.6196 C   0  0  0  0  0  0  0  0  0  0  0  0
  -43.6155   58.3082   66.3020 N   0  0  0  0  0  0  0  0  0  0  0  0
  -44.8976   58.1915   65.8658 C   0  0  0  0  0  0  0  0  0  0  0  0
  -42.8928   57.1204   66.4821 O   0  0  0  0  0  0  0  0  0  0  0  0
  -45.3960   57.0888   65.6408 O   0  0  0  0  0  0  0  0  0  0  0  0
  -43.4542   56.3627   66.2548 H   0  0  0  0  0  0  0  0  0  0  0  0
  -45.7255   59.4624   65.6479 C   0  0  0  0  0  0  0  0  0  0  0  0
  -46.5764   59.4554   64.3706 C   0  0  0  0  0  0  0  0  0  0  0  0
  -48.0158   59.9017   64.6919 C   0  0  0  0  0  0  0  0  0  0  0  0
  -48.9010   58.7701   65.2478 C   0  0  0  0  0  0  0  0  0  0  0  0
  -50.4038   58.9258   64.9490 C   0  0  0  0  0  0  0  0  0  0  0  0
  -50.8038   58.3583   63.5709 C   0  0  0  0  0  0  0  0  0  0  0  0
  -50.9704   59.4234   62.4620 C   0  0  0  0  0  0  0  0  0  0  0  0
  -49.9369   59.2991   61.3367 C   0  0  0  0  0  0  0  0  0  0  0  0
  -49.2775   57.9230   61.2012 C   0  0  0  0  0  0  0  0  0  0  0  0
  -48.4741   57.8122   59.8924 C   0  0  0  0  0  0  0  0  0  0  0  0
  -47.9981   56.3871   59.5727 C   0  0  0  0  0  0  0  0  0  0  0  0
  -47.2348   56.2203   58.2547 C   0  0  0  0  0  0  0  0  0  0  0  0
  -48.1304   56.2617   56.9914 C   0  0  0  0  0  0  0  0  0  0  0  0
  -47.7966   57.4762   56.1016 C   0  0  0  0  0  0  0  0  0  0  0  0
  -47.1126   58.6712   56.7765 C   0  0  0  0  0  0  0  0  0  0  0  0
 46 47  1  0  0  0
 46 48  1  0  0  0
 46 45  1  0  0  0
 47 49  2  0  0  0
 47 51  1  0  0  0
 19 20  2  0  0  0
 37 38  1  0  0  0
 37 39  1  0  0  0
 37 40  1  0  0  0
 37 41  1  0  0  0
 48 50  1  0  0  0
 38 29  1  0  0  0
 45 44  1  0  0  0
 25 27  1  0  0  0
 25 35  1  0  0  0
 25 28  1  0  0  0
 21 20  1  0  0  0
 21 22  1  0  0  0
 44 42  1  0  0  0
  2  1  1  0  0  0
  2  4  1  0  0  0
  2  5  1  0  0  0
 26 27  2  0  0  0
 42 43  2  0  0  0
 29 31  1  0  0  0
 29 36  1  0  0  0
  3  4  2  0  0  0
 43  1  1  0  0  0
  6  9  2  0  0  0
  6 10  1  0  0  0
  1 20  1  0  0  0
 30 36  2  0  0  0
  7  8  1  0  0  0
  7  9  1  0  0  0
 22 24  1  0  0  0
 22 23  1  0  0  0
 11 12  1  0  0  0
 11 18  1  0  0  0
 24 27  1  0  0  0
  4 10  1  0  0  0
 51 52  1  0  0  0
 52 53  1  0  0  0
 53 54  1  0  0  0
 54 55  1  0  0  0
 55 56  1  0  0  0
 56 57  1  0  0  0
 57 58  1  0  0  0
 58 59  1  0  0  0
 59 60  1  0  0  0
 60 61  1  0  0  0
 61 62  1  0  0  0
 62 63  1  0  0  0
 63 64  1  0  0  0
 64 65  1  0  0  0
 31 32  1  0  0  0
 32 33  1  0  0  0
 33 34  1  0  0  0
 34 35  1  0  0  0
 35 36  1  0  0  0
  8 10  1  0  0  0
  9 17  1  0  0  0
 12 13  2  0  0  0
 12 17  1  0  0  0
 13 14  1  0  0  0
 14 15  2  0  0  0
 15 16  1  0  0  0
 16 17  2  0  0  0
M  END
> <minimizedAffinity>
-9.97635

> <CNNscore>
0.1129429117

> <CNNaffinity>
7.2354211807

> <CNN_VS>
0.8171895146

> <CNNaffinity_variance>
1.3300216198

$$$$
