/media/chris/experiments/cd1a-new-docking/inputs/ligands/1xz0_ligand.pdb


 65 67  0  0  0  0  0  0  0  0999 V2000
  -40.1431   58.7230   64.0086 C   0  0  0  0  0  0  0  0  0  0  0  0
  -39.3713   59.8395   64.5580 N   0  0  0  0  0  0  0  0  0  0  0  0
  -37.7158   58.7966   65.7176 O   0  0  0  0  0  0  0  0  0  0  0  0
  -38.2721   59.8163   65.3316 C   0  0  0  0  0  0  0  0  0  0  0  0
  -39.7056   60.7364   64.3277 H   0  0  0  0  0  0  0  0  0  0  0  0
  -37.3872   62.0689   64.7637 N   0  0  0  0  0  0  0  0  0  0  0  0
  -35.5664   62.0811   66.0584 O   0  0  0  0  0  0  0  0  0  0  0  0
  -36.4490   61.1717   66.7145 C   0  0  0  0  0  0  0  0  0  0  0  0
  -36.2277   62.5605   64.8706 C   0  0  0  0  0  0  0  0  0  0  0  0
  -37.7439   61.1437   65.8560 C   0  0  0  0  0  0  0  0  0  0  0  0
  -33.7777   64.0232   65.3754 O   0  0  0  0  0  0  0  0  0  0  0  0
  -34.4235   64.2255   64.2206 C   0  0  0  0  0  0  0  0  0  0  0  0
  -33.8972   65.1208   63.2801 C   0  0  0  0  0  0  0  0  0  0  0  0
  -34.5611   65.3576   62.0646 C   0  0  0  0  0  0  0  0  0  0  0  0
  -35.7537   64.6942   61.7713 C   0  0  0  0  0  0  0  0  0  0  0  0
  -36.2796   63.7953   62.7035 C   0  0  0  0  0  0  0  0  0  0  0  0
  -35.6212   63.5624   63.9262 C   0  0  0  0  0  0  0  0  0  0  0  0
  -32.9775   64.4783   65.5507 H   0  0  0  0  0  0  0  0  0  0  0  0
  -41.2546   60.0307   62.3382 O   0  0  0  0  0  0  0  0  0  0  0  0
  -40.4961   59.1074   62.5843 C   0  0  0  0  0  0  0  0  0  0  0  0
  -39.9739   58.3171   61.4645 O   0  0  0  0  0  0  0  0  0  0  0  0
  -38.9405   58.8304   60.6029 C   0  0  0  0  0  0  0  0  0  0  0  0
  -38.9034   58.2014   59.2156 C   0  0  0  0  0  0  0  0  0  0  0  0
  -37.6037   58.6746   61.3122 C   0  0  0  0  0  0  0  0  0  0  0  0
  -35.9436   59.9347   62.5977 N   0  0  0  0  0  0  0  0  0  0  0  0
  -37.7780   60.9460   61.7446 O   0  0  0  0  0  0  0  0  0  0  0  0
  -37.1142   59.9544   61.9438 C   0  0  0  0  0  0  0  0  0  0  0  0
  -35.6024   60.7879   62.9510 H   0  0  0  0  0  0  0  0  0  0  0  0
  -33.6888   59.3765   64.7093 N   0  0  0  0  0  0  0  0  0  0  0  0
  -35.0608   57.6023   64.8956 O   0  0  0  0  0  0  0  0  0  0  0  0
  -33.3008   60.6605   64.1070 C   0  0  0  0  0  0  0  0  0  0  0  0
  -32.5724   60.4367   62.7683 C   0  0  0  0  0  0  0  0  0  0  0  0
  -32.5671   59.0029   62.2644 C   0  0  0  0  0  0  0  0  0  0  0  0
  -33.9576   58.5051   61.8611 C   0  0  0  0  0  0  0  0  0  0  0  0
  -35.1353   58.7310   62.8237 C   0  0  0  0  0  0  0  0  0  0  0  0
  -34.6277   58.5396   64.2394 C   0  0  0  0  0  0  0  0  0  0  0  0
  -33.0858   57.3098   66.4089 Si  0  0  0  0  0  0  0  0  0  0  0  0
  -33.0442   59.0079   65.8515 O   0  0  0  0  0  0  0  0  0  0  0  0
  -32.3433   57.1888   67.6133 H   0  0  0  0  0  0  0  0  0  0  0  0
  -32.5155   56.4712   65.4150 H   0  0  0  0  0  0  0  0  0  0  0  0
  -34.4315   56.9207   66.6414 H   0  0  0  0  0  0  0  0  0  0  0  0
  -41.8132   56.7784   64.5773 C   0  0  0  0  0  0  0  0  0  0  0  0
  -41.3525   58.2187   64.8327 C   0  0  0  0  0  0  0  0  0  0  0  0
  -43.2332   56.4107   65.0398 C   0  0  0  0  0  0  0  0  0  0  0  0
  -43.8768   57.2913   66.1306 C   0  0  0  0  0  0  0  0  0  0  0  0
  -45.2245   57.6610   65.6872 N   0  0  0  0  0  0  0  0  0  0  0  0
  -45.6144   58.7117   64.9179 C   0  0  0  0  0  0  0  0  0  0  0  0
  -46.2287   56.7907   66.1339 O   0  0  0  0  0  0  0  0  0  0  0  0
  -44.7945   59.5153   64.4742 O   0  0  0  0  0  0  0  0  0  0  0  0
  -47.0894   57.0941   65.8052 H   0  0  0  0  0  0  0  0  0  0  0  0
  -47.1045   58.8923   64.6091 C   0  0  0  0  0  0  0  0  0  0  0  0
  -47.8500   59.8088   65.5888 C   0  0  0  0  0  0  0  0  0  0  0  0
  -49.2942   59.3087   65.7855 C   0  0  0  0  0  0  0  0  0  0  0  0
  -49.6334   58.0629   64.9453 C   0  0  0  0  0  0  0  0  0  0  0  0
  -50.6228   58.3167   63.7926 C   0  0  0  0  0  0  0  0  0  0  0  0
  -51.1769   59.7569   63.7833 C   0  0  0  0  0  0  0  0  0  0  0  0
  -50.9330   60.5299   62.4663 C   0  0  0  0  0  0  0  0  0  0  0  0
  -49.5768   60.2226   61.8209 C   0  0  0  0  0  0  0  0  0  0  0  0
  -49.6089   59.9899   60.3071 C   0  0  0  0  0  0  0  0  0  0  0  0
  -49.7289   58.4919   59.9721 C   0  0  0  0  0  0  0  0  0  0  0  0
  -48.4203   57.7073   60.1499 C   0  0  0  0  0  0  0  0  0  0  0  0
  -48.3950   56.3058   59.5312 C   0  0  0  0  0  0  0  0  0  0  0  0
  -47.5083   56.1848   58.2667 C   0  0  0  0  0  0  0  0  0  0  0  0
  -47.1740   57.5696   57.6763 C   0  0  0  0  0  0  0  0  0  0  0  0
  -47.7362   57.8921   56.2866 C   0  0  0  0  0  0  0  0  0  0  0  0
 46 47  1  0  0  0
 46 48  1  0  0  0
 46 45  1  0  0  0
 47 49  2  0  0  0
 47 51  1  0  0  0
 19 20  2  0  0  0
 37 38  1  0  0  0
 37 39  1  0  0  0
 37 40  1  0  0  0
 37 41  1  0  0  0
 48 50  1  0  0  0
 38 29  1  0  0  0
 45 44  1  0  0  0
 25 27  1  0  0  0
 25 35  1  0  0  0
 25 28  1  0  0  0
 21 20  1  0  0  0
 21 22  1  0  0  0
 44 42  1  0  0  0
  2  1  1  0  0  0
  2  4  1  0  0  0
  2  5  1  0  0  0
 26 27  2  0  0  0
 42 43  2  0  0  0
 29 31  1  0  0  0
 29 36  1  0  0  0
  3  4  2  0  0  0
 43  1  1  0  0  0
  6  9  2  0  0  0
  6 10  1  0  0  0
  1 20  1  0  0  0
 30 36  2  0  0  0
  7  8  1  0  0  0
  7  9  1  0  0  0
 22 24  1  0  0  0
 22 23  1  0  0  0
 11 12  1  0  0  0
 11 18  1  0  0  0
 24 27  1  0  0  0
  4 10  1  0  0  0
 51 52  1  0  0  0
 52 53  1  0  0  0
 53 54  1  0  0  0
 54 55  1  0  0  0
 55 56  1  0  0  0
 56 57  1  0  0  0
 57 58  1  0  0  0
 58 59  1  0  0  0
 59 60  1  0  0  0
 60 61  1  0  0  0
 61 62  1  0  0  0
 62 63  1  0  0  0
 63 64  1  0  0  0
 64 65  1  0  0  0
 31 32  1  0  0  0
 32 33  1  0  0  0
 33 34  1  0  0  0
 34 35  1  0  0  0
 35 36  1  0  0  0
  8 10  1  0  0  0
  9 17  1  0  0  0
 12 13  2  0  0  0
 12 17  1  0  0  0
 13 14  1  0  0  0
 14 15  2  0  0  0
 15 16  1  0  0  0
 16 17  2  0  0  0
M  END
> <minimizedAffinity>
-9.49316

> <CNNscore>
0.2586474419

> <CNNaffinity>
7.5028753281

> <CNN_VS>
1.9405995607

> <CNNaffinity_variance>
0.5572779775

$$$$
/media/chris/experiments/cd1a-new-docking/inputs/ligands/1xz0_ligand.pdb


 65 67  0  0  0  0  0  0  0  0999 V2000
  -41.9054   58.1233   62.9913 C   0  0  0  0  0  0  0  0  0  0  0  0
  -40.9809   58.5005   64.0624 N   0  0  0  0  0  0  0  0  0  0  0  0
  -40.5344   60.6840   63.6087 O   0  0  0  0  0  0  0  0  0  0  0  0
  -40.3853   59.6827   64.2967 C   0  0  0  0  0  0  0  0  0  0  0  0
  -40.7643   57.7852   64.7032 H   0  0  0  0  0  0  0  0  0  0  0  0
  -38.6272   61.0295   65.4260 N   0  0  0  0  0  0  0  0  0  0  0  0
  -37.0087   59.4933   65.5381 O   0  0  0  0  0  0  0  0  0  0  0  0
  -38.2100   58.7245   65.4896 C   0  0  0  0  0  0  0  0  0  0  0  0
  -37.3724   60.8869   65.4779 C   0  0  0  0  0  0  0  0  0  0  0  0
  -39.3711   59.7555   65.4290 C   0  0  0  0  0  0  0  0  0  0  0  0
  -37.0114   62.8671   63.3933 O   0  0  0  0  0  0  0  0  0  0  0  0
  -36.2593   62.9485   64.4976 C   0  0  0  0  0  0  0  0  0  0  0  0
  -35.3321   63.9905   64.6290 C   0  0  0  0  0  0  0  0  0  0  0  0
  -34.5243   64.0925   65.7741 C   0  0  0  0  0  0  0  0  0  0  0  0
  -34.6416   63.1592   66.8055 C   0  0  0  0  0  0  0  0  0  0  0  0
  -35.5696   62.1214   66.6820 C   0  0  0  0  0  0  0  0  0  0  0  0
  -36.3744   62.0115   65.5318 C   0  0  0  0  0  0  0  0  0  0  0  0
  -36.9171   63.5057   62.7141 H   0  0  0  0  0  0  0  0  0  0  0  0
  -41.7366   59.1620   60.8401 O   0  0  0  0  0  0  0  0  0  0  0  0
  -41.2085   58.4602   61.6868 C   0  0  0  0  0  0  0  0  0  0  0  0
  -39.8939   57.8812   61.3910 O   0  0  0  0  0  0  0  0  0  0  0  0
  -38.8986   58.6185   60.6565 C   0  0  0  0  0  0  0  0  0  0  0  0
  -38.7569   58.2078   59.1961 C   0  0  0  0  0  0  0  0  0  0  0  0
  -37.5723   58.4971   61.3920 C   0  0  0  0  0  0  0  0  0  0  0  0
  -35.9080   59.8329   62.5927 N   0  0  0  0  0  0  0  0  0  0  0  0
  -37.8406   60.7520   61.8607 O   0  0  0  0  0  0  0  0  0  0  0  0
  -37.1147   59.7957   62.0089 C   0  0  0  0  0  0  0  0  0  0  0  0
  -35.5920   60.7000   62.9354 H   0  0  0  0  0  0  0  0  0  0  0  0
  -33.6497   59.2885   64.7042 N   0  0  0  0  0  0  0  0  0  0  0  0
  -34.9042   57.4206   64.7544 O   0  0  0  0  0  0  0  0  0  0  0  0
  -33.3392   60.6309   64.1908 C   0  0  0  0  0  0  0  0  0  0  0  0
  -32.5798   60.5408   62.8536 C   0  0  0  0  0  0  0  0  0  0  0  0
  -32.4733   59.1455   62.2606 C   0  0  0  0  0  0  0  0  0  0  0  0
  -33.8224   58.5853   61.8025 C   0  0  0  0  0  0  0  0  0  0  0  0
  -35.0252   58.6723   62.7566 C   0  0  0  0  0  0  0  0  0  0  0  0
  -34.5251   58.4242   64.1662 C   0  0  0  0  0  0  0  0  0  0  0  0
  -33.1516   57.2103   66.4236 Si  0  0  0  0  0  0  0  0  0  0  0  0
  -32.9975   58.8902   65.8320 O   0  0  0  0  0  0  0  0  0  0  0  0
  -32.3806   57.0522   67.6057 H   0  0  0  0  0  0  0  0  0  0  0  0
  -32.6816   56.3130   65.4285 H   0  0  0  0  0  0  0  0  0  0  0  0
  -34.5148   56.9313   66.7069 H   0  0  0  0  0  0  0  0  0  0  0  0
  -43.7727   59.3159   64.4001 C   0  0  0  0  0  0  0  0  0  0  0  0
  -43.3541   58.6617   63.0777 C   0  0  0  0  0  0  0  0  0  0  0  0
  -45.2825   59.4542   64.6596 C   0  0  0  0  0  0  0  0  0  0  0  0
  -45.8024   59.0670   66.0592 C   0  0  0  0  0  0  0  0  0  0  0  0
  -47.1926   58.6205   65.9260 N   0  0  0  0  0  0  0  0  0  0  0  0
  -48.3293   59.3641   65.8750 C   0  0  0  0  0  0  0  0  0  0  0  0
  -47.3371   57.2286   65.8411 O   0  0  0  0  0  0  0  0  0  0  0  0
  -48.2896   60.5931   65.9300 O   0  0  0  0  0  0  0  0  0  0  0  0
  -48.2772   57.0057   65.7552 H   0  0  0  0  0  0  0  0  0  0  0  0
  -49.6789   58.6487   65.7528 C   0  0  0  0  0  0  0  0  0  0  0  0
  -50.8469   59.5594   65.3501 C   0  0  0  0  0  0  0  0  0  0  0  0
  -51.1777   59.3659   63.8577 C   0  0  0  0  0  0  0  0  0  0  0  0
  -50.7561   60.5560   62.9750 C   0  0  0  0  0  0  0  0  0  0  0  0
  -49.3007   60.4992   62.4742 C   0  0  0  0  0  0  0  0  0  0  0  0
  -49.0202   59.2713   61.5827 C   0  0  0  0  0  0  0  0  0  0  0  0
  -49.4389   59.4429   60.1039 C   0  0  0  0  0  0  0  0  0  0  0  0
  -50.2195   58.2461   59.5482 C   0  0  0  0  0  0  0  0  0  0  0  0
  -50.1710   56.9770   60.4048 C   0  0  0  0  0  0  0  0  0  0  0  0
  -49.2517   55.9123   59.7790 C   0  0  0  0  0  0  0  0  0  0  0  0
  -47.7606   56.2806   59.8111 C   0  0  0  0  0  0  0  0  0  0  0  0
  -47.0691   56.3764   58.4472 C   0  0  0  0  0  0  0  0  0  0  0  0
  -48.0103   56.1432   57.2391 C   0  0  0  0  0  0  0  0  0  0  0  0
  -48.0725   57.3827   56.3237 C   0  0  0  0  0  0  0  0  0  0  0  0
  -47.1823   58.5740   56.6974 C   0  0  0  0  0  0  0  0  0  0  0  0
 46 47  1  0  0  0
 46 48  1  0  0  0
 46 45  1  0  0  0
 47 49  2  0  0  0
 47 51  1  0  0  0
 19 20  2  0  0  0
 37 38  1  0  0  0
 37 39  1  0  0  0
 37 40  1  0  0  0
 37 41  1  0  0  0
 48 50  1  0  0  0
 38 29  1  0  0  0
 45 44  1  0  0  0
 25 27  1  0  0  0
 25 35  1  0  0  0
 25 28  1  0  0  0
 21 20  1  0  0  0
 21 22  1  0  0  0
 44 42  1  0  0  0
  2  1  1  0  0  0
  2  4  1  0  0  0
  2  5  1  0  0  0
 26 27  2  0  0  0
 42 43  2  0  0  0
 29 31  1  0  0  0
 29 36  1  0  0  0
  3  4  2  0  0  0
 43  1  1  0  0  0
  6  9  2  0  0  0
  6 10  1  0  0  0
  1 20  1  0  0  0
 30 36  2  0  0  0
  7  8  1  0  0  0
  7  9  1  0  0  0
 22 24  1  0  0  0
 22 23  1  0  0  0
 11 12  1  0  0  0
 11 18  1  0  0  0
 24 27  1  0  0  0
  4 10  1  0  0  0
 51 52  1  0  0  0
 52 53  1  0  0  0
 53 54  1  0  0  0
 54 55  1  0  0  0
 55 56  1  0  0  0
 56 57  1  0  0  0
 57 58  1  0  0  0
 58 59  1  0  0  0
 59 60  1  0  0  0
 60 61  1  0  0  0
 61 62  1  0  0  0
 62 63  1  0  0  0
 63 64  1  0  0  0
 64 65  1  0  0  0
 31 32  1  0  0  0
 32 33  1  0  0  0
 33 34  1  0  0  0
 34 35  1  0  0  0
 35 36  1  0  0  0
  8 10  1  0  0  0
  9 17  1  0  0  0
 12 13  2  0  0  0
 12 17  1  0  0  0
 13 14  1  0  0  0
 14 15  2  0  0  0
 15 16  1  0  0  0
 16 17  2  0  0  0
M  END
> <minimizedAffinity>
-9.96712

> <CNNscore>
0.2029679567

> <CNNaffinity>
7.4374289513

> <CNN_VS>
1.5095597506

> <CNNaffinity_variance>
0.7348718643

$$$$
/media/chris/experiments/cd1a-new-docking/inputs/ligands/1xz0_ligand.pdb


 65 67  0  0  0  0  0  0  0  0999 V2000
  -37.8601   60.1568   66.1730 C   0  0  0  0  0  0  0  0  0  0  0  0
  -36.9401   61.2948   66.1195 N   0  0  0  0  0  0  0  0  0  0  0  0
  -36.6547   61.8268   68.3123 O   0  0  0  0  0  0  0  0  0  0  0  0
  -36.4220   62.0196   67.1262 C   0  0  0  0  0  0  0  0  0  0  0  0
  -36.6607   61.5685   65.2160 H   0  0  0  0  0  0  0  0  0  0  0  0
  -35.9115   63.7676   65.4340 N   0  0  0  0  0  0  0  0  0  0  0  0
  -33.6886   63.5572   65.3534 O   0  0  0  0  0  0  0  0  0  0  0  0
  -34.0318   63.0869   66.6563 C   0  0  0  0  0  0  0  0  0  0  0  0
  -34.9082   63.9337   64.6834 C   0  0  0  0  0  0  0  0  0  0  0  0
  -35.5750   63.2317   66.7666 C   0  0  0  0  0  0  0  0  0  0  0  0
  -33.1924   66.0626   63.7240 O   0  0  0  0  0  0  0  0  0  0  0  0
  -34.0834   65.5237   62.8829 C   0  0  0  0  0  0  0  0  0  0  0  0
  -34.1563   65.9850   61.5620 C   0  0  0  0  0  0  0  0  0  0  0  0
  -35.0893   65.4422   60.6626 C   0  0  0  0  0  0  0  0  0  0  0  0
  -35.9535   64.4248   61.0710 C   0  0  0  0  0  0  0  0  0  0  0  0
  -35.8804   63.9568   62.3859 C   0  0  0  0  0  0  0  0  0  0  0  0
  -34.9524   64.5048   63.2921 C   0  0  0  0  0  0  0  0  0  0  0  0
  -32.6209   66.7436   63.4278 H   0  0  0  0  0  0  0  0  0  0  0  0
  -37.5766   57.8636   65.5437 O   0  0  0  0  0  0  0  0  0  0  0  0
  -37.1604   59.0082   65.4717 C   0  0  0  0  0  0  0  0  0  0  0  0
  -35.9130   59.2513   64.7396 O   0  0  0  0  0  0  0  0  0  0  0  0
  -35.6723   58.6555   63.4509 C   0  0  0  0  0  0  0  0  0  0  0  0
  -34.2882   58.0399   63.2872 C   0  0  0  0  0  0  0  0  0  0  0  0
  -35.9367   59.7043   62.3809 C   0  0  0  0  0  0  0  0  0  0  0  0
  -38.3622   59.6847   62.0455 N   0  0  0  0  0  0  0  0  0  0  0  0
  -37.3394   61.4057   63.0980 O   0  0  0  0  0  0  0  0  0  0  0  0
  -37.2939   60.3513   62.5065 C   0  0  0  0  0  0  0  0  0  0  0  0
  -39.2494   60.0865   62.1895 H   0  0  0  0  0  0  0  0  0  0  0  0
  -40.5679   58.1695   60.4042 N   0  0  0  0  0  0  0  0  0  0  0  0
  -38.7773   58.1685   59.0407 O   0  0  0  0  0  0  0  0  0  0  0  0
  -41.2375   58.5101   61.6682 C   0  0  0  0  0  0  0  0  0  0  0  0
  -40.8766   57.4932   62.7674 C   0  0  0  0  0  0  0  0  0  0  0  0
  -39.7966   56.4909   62.3949 C   0  0  0  0  0  0  0  0  0  0  0  0
  -38.4202   57.1352   62.2102 C   0  0  0  0  0  0  0  0  0  0  0  0
  -38.3021   58.3986   61.3415 C   0  0  0  0  0  0  0  0  0  0  0  0
  -39.2489   58.2506   60.1666 C   0  0  0  0  0  0  0  0  0  0  0  0
  -43.0075   57.1323   59.7000 Si  0  0  0  0  0  0  0  0  0  0  0  0
  -41.3580   57.7425   59.3798 O   0  0  0  0  0  0  0  0  0  0  0  0
  -43.6178   56.7528   58.4752 H   0  0  0  0  0  0  0  0  0  0  0  0
  -43.7785   58.1531   60.3167 H   0  0  0  0  0  0  0  0  0  0  0  0
  -42.9368   56.0063   60.5623 H   0  0  0  0  0  0  0  0  0  0  0  0
  -40.4087   59.5513   66.3521 C   0  0  0  0  0  0  0  0  0  0  0  0
  -39.3108   60.3897   65.6859 C   0  0  0  0  0  0  0  0  0  0  0  0
  -41.7500   59.4446   65.6069 C   0  0  0  0  0  0  0  0  0  0  0  0
  -43.0401   59.5957   66.4387 C   0  0  0  0  0  0  0  0  0  0  0  0
  -44.1854   59.3256   65.5641 N   0  0  0  0  0  0  0  0  0  0  0  0
  -45.4896   59.1336   65.8961 C   0  0  0  0  0  0  0  0  0  0  0  0
  -43.8586   59.2633   64.2022 O   0  0  0  0  0  0  0  0  0  0  0  0
  -45.8628   59.1848   67.0679 O   0  0  0  0  0  0  0  0  0  0  0  0
  -44.6593   59.0826   63.6854 H   0  0  0  0  0  0  0  0  0  0  0  0
  -46.5031   58.8431   64.7842 C   0  0  0  0  0  0  0  0  0  0  0  0
  -47.2244   60.0843   64.2415 C   0  0  0  0  0  0  0  0  0  0  0  0
  -48.3895   60.4684   65.1739 C   0  0  0  0  0  0  0  0  0  0  0  0
  -48.9148   59.2919   66.0184 C   0  0  0  0  0  0  0  0  0  0  0  0
  -50.3340   58.8209   65.6494 C   0  0  0  0  0  0  0  0  0  0  0  0
  -50.4316   58.2828   64.2065 C   0  0  0  0  0  0  0  0  0  0  0  0
  -51.1775   59.2146   63.2232 C   0  0  0  0  0  0  0  0  0  0  0  0
  -51.0052   58.8139   61.7535 C   0  0  0  0  0  0  0  0  0  0  0  0
  -49.7779   57.9490   61.4494 C   0  0  0  0  0  0  0  0  0  0  0  0
  -50.0303   57.0192   60.2484 C   0  0  0  0  0  0  0  0  0  0  0  0
  -48.8196   56.1551   59.8648 C   0  0  0  0  0  0  0  0  0  0  0  0
  -47.6144   56.9122   59.2972 C   0  0  0  0  0  0  0  0  0  0  0  0
  -47.9808   58.0131   58.2708 C   0  0  0  0  0  0  0  0  0  0  0  0
  -47.9597   57.4698   56.8277 C   0  0  0  0  0  0  0  0  0  0  0  0
  -47.1944   56.1638   56.5827 C   0  0  0  0  0  0  0  0  0  0  0  0
 46 47  1  0  0  0
 46 48  1  0  0  0
 46 45  1  0  0  0
 47 49  2  0  0  0
 47 51  1  0  0  0
 19 20  2  0  0  0
 37 38  1  0  0  0
 37 39  1  0  0  0
 37 40  1  0  0  0
 37 41  1  0  0  0
 48 50  1  0  0  0
 38 29  1  0  0  0
 45 44  1  0  0  0
 25 27  1  0  0  0
 25 35  1  0  0  0
 25 28  1  0  0  0
 21 20  1  0  0  0
 21 22  1  0  0  0
 44 42  1  0  0  0
  2  1  1  0  0  0
  2  4  1  0  0  0
  2  5  1  0  0  0
 26 27  2  0  0  0
 42 43  2  0  0  0
 29 31  1  0  0  0
 29 36  1  0  0  0
  3  4  2  0  0  0
 43  1  1  0  0  0
  6  9  2  0  0  0
  6 10  1  0  0  0
  1 20  1  0  0  0
 30 36  2  0  0  0
  7  8  1  0  0  0
  7  9  1  0  0  0
 22 24  1  0  0  0
 22 23  1  0  0  0
 11 12  1  0  0  0
 11 18  1  0  0  0
 24 27  1  0  0  0
  4 10  1  0  0  0
 51 52  1  0  0  0
 52 53  1  0  0  0
 53 54  1  0  0  0
 54 55  1  0  0  0
 55 56  1  0  0  0
 56 57  1  0  0  0
 57 58  1  0  0  0
 58 59  1  0  0  0
 59 60  1  0  0  0
 60 61  1  0  0  0
 61 62  1  0  0  0
 62 63  1  0  0  0
 63 64  1  0  0  0
 64 65  1  0  0  0
 31 32  1  0  0  0
 32 33  1  0  0  0
 33 34  1  0  0  0
 34 35  1  0  0  0
 35 36  1  0  0  0
  8 10  1  0  0  0
  9 17  1  0  0  0
 12 13  2  0  0  0
 12 17  1  0  0  0
 13 14  1  0  0  0
 14 15  2  0  0  0
 15 16  1  0  0  0
 16 17  2  0  0  0
M  END
> <minimizedAffinity>
-8.86339

> <CNNscore>
0.2009823173

> <CNNaffinity>
7.5193696022

> <CNN_VS>
1.5112602711

> <CNNaffinity_variance>
0.4587884545

$$$$
/media/chris/experiments/cd1a-new-docking/inputs/ligands/1xz0_ligand.pdb


 65 67  0  0  0  0  0  0  0  0999 V2000
  -42.4413   59.1798   62.5201 C   0  0  0  0  0  0  0  0  0  0  0  0
  -41.1686   58.8397   61.8808 N   0  0  0  0  0  0  0  0  0  0  0  0
  -41.8110   57.5873   60.0943 O   0  0  0  0  0  0  0  0  0  0  0  0
  -40.9387   58.1099   60.7754 C   0  0  0  0  0  0  0  0  0  0  0  0
  -40.3656   59.1969   62.3244 H   0  0  0  0  0  0  0  0  0  0  0  0
  -38.6770   57.4659   61.5819 N   0  0  0  0  0  0  0  0  0  0  0  0
  -37.4685   59.0586   60.5844 O   0  0  0  0  0  0  0  0  0  0  0  0
  -38.6245   58.9348   59.7569 C   0  0  0  0  0  0  0  0  0  0  0  0
  -37.6060   58.1300   61.6785 C   0  0  0  0  0  0  0  0  0  0  0  0
  -39.4917   57.8195   60.4039 C   0  0  0  0  0  0  0  0  0  0  0  0
  -38.1822   57.3343   64.4046 O   0  0  0  0  0  0  0  0  0  0  0  0
  -36.9089   57.5452   64.0496 C   0  0  0  0  0  0  0  0  0  0  0  0
  -35.8878   57.3623   64.9912 C   0  0  0  0  0  0  0  0  0  0  0  0
  -34.5443   57.5863   64.6460 C   0  0  0  0  0  0  0  0  0  0  0  0
  -34.2058   57.9861   63.3522 C   0  0  0  0  0  0  0  0  0  0  0  0
  -35.2202   58.1637   62.4072 C   0  0  0  0  0  0  0  0  0  0  0  0
  -36.5682   57.9485   62.7526 C   0  0  0  0  0  0  0  0  0  0  0  0
  -38.3864   57.0648   65.2785 H   0  0  0  0  0  0  0  0  0  0  0  0
  -43.1144   61.4492   62.8835 O   0  0  0  0  0  0  0  0  0  0  0  0
  -42.2789   60.5815   63.0767 C   0  0  0  0  0  0  0  0  0  0  0  0
  -41.0606   60.9383   63.8112 O   0  0  0  0  0  0  0  0  0  0  0  0
  -40.5526   60.1046   64.8698 C   0  0  0  0  0  0  0  0  0  0  0  0
  -41.3219   60.2082   66.1809 C   0  0  0  0  0  0  0  0  0  0  0  0
  -39.0797   60.4287   65.0704 C   0  0  0  0  0  0  0  0  0  0  0  0
  -37.2179   61.5431   63.9355 N   0  0  0  0  0  0  0  0  0  0  0  0
  -38.9538   60.6819   62.7690 O   0  0  0  0  0  0  0  0  0  0  0  0
  -38.4075   60.9352   63.8183 C   0  0  0  0  0  0  0  0  0  0  0  0
  -36.7583   61.8126   63.1078 H   0  0  0  0  0  0  0  0  0  0  0  0
  -34.9742   63.6295   64.6188 N   0  0  0  0  0  0  0  0  0  0  0  0
  -36.5425   63.9806   66.1944 O   0  0  0  0  0  0  0  0  0  0  0  0
  -34.4558   62.9254   63.4367 C   0  0  0  0  0  0  0  0  0  0  0  0
  -33.8069   61.5878   63.8400 C   0  0  0  0  0  0  0  0  0  0  0  0
  -33.9920   61.1896   65.2950 C   0  0  0  0  0  0  0  0  0  0  0  0
  -35.4455   60.8604   65.6452 C   0  0  0  0  0  0  0  0  0  0  0  0
  -36.5531   61.8346   65.2107 C   0  0  0  0  0  0  0  0  0  0  0  0
  -36.0230   63.2467   65.3647 C   0  0  0  0  0  0  0  0  0  0  0  0
  -34.3389   65.3115   66.6902 Si  0  0  0  0  0  0  0  0  0  0  0  0
  -34.3391   64.7781   64.9840 O   0  0  0  0  0  0  0  0  0  0  0  0
  -33.6146   66.5275   66.8059 H   0  0  0  0  0  0  0  0  0  0  0  0
  -33.7257   64.3168   67.4971 H   0  0  0  0  0  0  0  0  0  0  0  0
  -35.6760   65.5142   67.1231 H   0  0  0  0  0  0  0  0  0  0  0  0
  -44.1015   58.6899   64.4943 C   0  0  0  0  0  0  0  0  0  0  0  0
  -43.0182   58.1698   63.5416 C   0  0  0  0  0  0  0  0  0  0  0  0
  -44.3649   57.8634   65.7644 C   0  0  0  0  0  0  0  0  0  0  0  0
  -45.7855   57.2961   65.9625 C   0  0  0  0  0  0  0  0  0  0  0  0
  -46.6779   58.4043   66.3167 N   0  0  0  0  0  0  0  0  0  0  0  0
  -47.7710   58.8681   65.6550 C   0  0  0  0  0  0  0  0  0  0  0  0
  -46.3302   59.0558   67.5083 O   0  0  0  0  0  0  0  0  0  0  0  0
  -48.1518   58.3444   64.6082 O   0  0  0  0  0  0  0  0  0  0  0  0
  -46.9594   59.7737   67.6800 H   0  0  0  0  0  0  0  0  0  0  0  0
  -48.5313   60.0685   66.2286 C   0  0  0  0  0  0  0  0  0  0  0  0
  -50.0551   59.9949   66.0608 C   0  0  0  0  0  0  0  0  0  0  0  0
  -50.4533   60.4492   64.6433 C   0  0  0  0  0  0  0  0  0  0  0  0
  -51.1777   59.3602   63.8292 C   0  0  0  0  0  0  0  0  0  0  0  0
  -51.0284   59.4951   62.3022 C   0  0  0  0  0  0  0  0  0  0  0  0
  -49.7333   60.2246   61.8879 C   0  0  0  0  0  0  0  0  0  0  0  0
  -49.5736   60.4329   60.3639 C   0  0  0  0  0  0  0  0  0  0  0  0
  -49.3249   59.1312   59.5931 C   0  0  0  0  0  0  0  0  0  0  0  0
  -48.6119   58.0284   60.3819 C   0  0  0  0  0  0  0  0  0  0  0  0
  -48.8307   56.6470   59.7382 C   0  0  0  0  0  0  0  0  0  0  0  0
  -47.5418   55.9886   59.2237 C   0  0  0  0  0  0  0  0  0  0  0  0
  -47.3843   55.9340   57.7005 C   0  0  0  0  0  0  0  0  0  0  0  0
  -48.5134   56.6503   56.9184 C   0  0  0  0  0  0  0  0  0  0  0  0
  -47.9584   57.7942   56.0456 C   0  0  0  0  0  0  0  0  0  0  0  0
  -46.9290   58.7301   56.6903 C   0  0  0  0  0  0  0  0  0  0  0  0
 46 47  1  0  0  0
 46 48  1  0  0  0
 46 45  1  0  0  0
 47 49  2  0  0  0
 47 51  1  0  0  0
 19 20  2  0  0  0
 37 38  1  0  0  0
 37 39  1  0  0  0
 37 40  1  0  0  0
 37 41  1  0  0  0
 48 50  1  0  0  0
 38 29  1  0  0  0
 45 44  1  0  0  0
 25 27  1  0  0  0
 25 35  1  0  0  0
 25 28  1  0  0  0
 21 20  1  0  0  0
 21 22  1  0  0  0
 44 42  1  0  0  0
  2  1  1  0  0  0
  2  4  1  0  0  0
  2  5  1  0  0  0
 26 27  2  0  0  0
 42 43  2  0  0  0
 29 31  1  0  0  0
 29 36  1  0  0  0
  3  4  2  0  0  0
 43  1  1  0  0  0
  6  9  2  0  0  0
  6 10  1  0  0  0
  1 20  1  0  0  0
 30 36  2  0  0  0
  7  8  1  0  0  0
  7  9  1  0  0  0
 22 24  1  0  0  0
 22 23  1  0  0  0
 11 12  1  0  0  0
 11 18  1  0  0  0
 24 27  1  0  0  0
  4 10  1  0  0  0
 51 52  1  0  0  0
 52 53  1  0  0  0
 53 54  1  0  0  0
 54 55  1  0  0  0
 55 56  1  0  0  0
 56 57  1  0  0  0
 57 58  1  0  0  0
 58 59  1  0  0  0
 59 60  1  0  0  0
 60 61  1  0  0  0
 61 62  1  0  0  0
 62 63  1  0  0  0
 63 64  1  0  0  0
 64 65  1  0  0  0
 31 32  1  0  0  0
 32 33  1  0  0  0
 33 34  1  0  0  0
 34 35  1  0  0  0
 35 36  1  0  0  0
  8 10  1  0  0  0
  9 17  1  0  0  0
 12 13  2  0  0  0
 12 17  1  0  0  0
 13 14  1  0  0  0
 14 15  2  0  0  0
 15 16  1  0  0  0
 16 17  2  0  0  0
M  END
> <minimizedAffinity>
-10.19793

> <CNNscore>
0.1826918423

> <CNNaffinity>
7.4782476425

> <CNN_VS>
1.3662148714

> <CNNaffinity_variance>
0.8946306109

$$$$
/media/chris/experiments/cd1a-new-docking/inputs/ligands/1xz0_ligand.pdb


 65 67  0  0  0  0  0  0  0  0999 V2000
  -42.5751   59.2557   64.8530 C   0  0  0  0  0  0  0  0  0  0  0  0
  -43.9114   59.0590   65.4183 N   0  0  0  0  0  0  0  0  0  0  0  0
  -44.1651   56.7996   65.3603 O   0  0  0  0  0  0  0  0  0  0  0  0
  -44.5885   57.9166   65.6271 C   0  0  0  0  0  0  0  0  0  0  0  0
  -44.3819   59.8821   65.6836 H   0  0  0  0  0  0  0  0  0  0  0  0
  -46.9758   58.2672   65.0289 N   0  0  0  0  0  0  0  0  0  0  0  0
  -47.4958   59.8474   66.5203 O   0  0  0  0  0  0  0  0  0  0  0  0
  -46.4087   59.1480   67.1250 C   0  0  0  0  0  0  0  0  0  0  0  0
  -47.7532   59.2416   65.2379 C   0  0  0  0  0  0  0  0  0  0  0  0
  -46.0220   58.0213   66.1272 C   0  0  0  0  0  0  0  0  0  0  0  0
  -50.4405   59.9273   66.0778 O   0  0  0  0  0  0  0  0  0  0  0  0
  -50.1259   60.0233   64.7803 C   0  0  0  0  0  0  0  0  0  0  0  0
  -51.0898   60.4655   63.8647 C   0  0  0  0  0  0  0  0  0  0  0  0
  -50.7873   60.5659   62.4962 C   0  0  0  0  0  0  0  0  0  0  0  0
  -49.5142   60.2347   62.0291 C   0  0  0  0  0  0  0  0  0  0  0  0
  -48.5472   59.7991   62.9394 C   0  0  0  0  0  0  0  0  0  0  0  0
  -48.8499   59.6891   64.3102 C   0  0  0  0  0  0  0  0  0  0  0  0
  -51.3010   60.1565   66.3695 H   0  0  0  0  0  0  0  0  0  0  0  0
  -42.1445   60.0128   67.0838 O   0  0  0  0  0  0  0  0  0  0  0  0
  -41.7489   59.9281   65.9329 C   0  0  0  0  0  0  0  0  0  0  0  0
  -40.4695   60.5567   65.5877 O   0  0  0  0  0  0  0  0  0  0  0  0
  -39.4300   59.8203   64.9163 C   0  0  0  0  0  0  0  0  0  0  0  0
  -39.4802   58.3132   65.1347 C   0  0  0  0  0  0  0  0  0  0  0  0
  -38.0859   60.3921   65.3419 C   0  0  0  0  0  0  0  0  0  0  0  0
  -36.2723   61.8413   64.5628 N   0  0  0  0  0  0  0  0  0  0  0  0
  -38.0677   61.4074   63.2574 O   0  0  0  0  0  0  0  0  0  0  0  0
  -37.4704   61.2974   64.3036 C   0  0  0  0  0  0  0  0  0  0  0  0
  -35.8506   62.3784   63.8537 H   0  0  0  0  0  0  0  0  0  0  0  0
  -34.9763   64.0137   66.4217 N   0  0  0  0  0  0  0  0  0  0  0  0
  -36.2099   62.7605   67.8264 O   0  0  0  0  0  0  0  0  0  0  0  0
  -34.4609   64.3387   65.0836 C   0  0  0  0  0  0  0  0  0  0  0  0
  -33.2617   63.4396   64.7283 C   0  0  0  0  0  0  0  0  0  0  0  0
  -32.9803   62.3149   65.7110 C   0  0  0  0  0  0  0  0  0  0  0  0
  -34.0772   61.2470   65.7284 C   0  0  0  0  0  0  0  0  0  0  0  0
  -35.5456   61.6922   65.8289 C   0  0  0  0  0  0  0  0  0  0  0  0
  -35.6122   62.8823   66.7659 C   0  0  0  0  0  0  0  0  0  0  0  0
  -33.3403   64.9222   68.4271 Si  0  0  0  0  0  0  0  0  0  0  0  0
  -34.8012   64.9486   67.3971 O   0  0  0  0  0  0  0  0  0  0  0  0
  -33.3981   65.9930   69.3580 H   0  0  0  0  0  0  0  0  0  0  0  0
  -32.1849   65.0639   67.6138 H   0  0  0  0  0  0  0  0  0  0  0  0
  -33.2774   63.6888   69.1280 H   0  0  0  0  0  0  0  0  0  0  0  0
  -41.7915   59.1726   62.3484 C   0  0  0  0  0  0  0  0  0  0  0  0
  -42.4799   59.9535   63.4745 C   0  0  0  0  0  0  0  0  0  0  0  0
  -41.3051   59.9848   61.1362 C   0  0  0  0  0  0  0  0  0  0  0  0
  -40.3648   59.2791   60.1377 C   0  0  0  0  0  0  0  0  0  0  0  0
  -39.0166   59.2555   60.7136 N   0  0  0  0  0  0  0  0  0  0  0  0
  -38.3877   58.2510   61.3794 C   0  0  0  0  0  0  0  0  0  0  0  0
  -38.3016   60.4482   60.5364 O   0  0  0  0  0  0  0  0  0  0  0  0
  -38.9400   57.1670   61.5663 O   0  0  0  0  0  0  0  0  0  0  0  0
  -37.4237   60.3621   60.9398 H   0  0  0  0  0  0  0  0  0  0  0  0
  -36.9684   58.4856   61.9071 C   0  0  0  0  0  0  0  0  0  0  0  0
  -36.6094   57.6636   63.1525 C   0  0  0  0  0  0  0  0  0  0  0  0
  -35.0968   57.3705   63.1744 C   0  0  0  0  0  0  0  0  0  0  0  0
  -34.2237   58.6341   63.0545 C   0  0  0  0  0  0  0  0  0  0  0  0
  -32.9013   58.5769   63.8419 C   0  0  0  0  0  0  0  0  0  0  0  0
  -31.6829   59.0124   63.0012 C   0  0  0  0  0  0  0  0  0  0  0  0
  -31.9771   60.1339   61.9778 C   0  0  0  0  0  0  0  0  0  0  0  0
  -31.3092   61.4689   62.3269 C   0  0  0  0  0  0  0  0  0  0  0  0
  -31.1470   62.4460   61.1582 C   0  0  0  0  0  0  0  0  0  0  0  0
  -31.4674   63.8900   61.5856 C   0  0  0  0  0  0  0  0  0  0  0  0
  -32.3063   64.6705   60.5624 C   0  0  0  0  0  0  0  0  0  0  0  0
  -32.7454   66.0738   60.9934 C   0  0  0  0  0  0  0  0  0  0  0  0
  -33.8908   66.0896   62.0362 C   0  0  0  0  0  0  0  0  0  0  0  0
  -35.2590   65.8223   61.3769 C   0  0  0  0  0  0  0  0  0  0  0  0
  -35.8971   64.4495   61.6210 C   0  0  0  0  0  0  0  0  0  0  0  0
 46 47  1  0  0  0
 46 48  1  0  0  0
 46 45  1  0  0  0
 47 49  2  0  0  0
 47 51  1  0  0  0
 19 20  2  0  0  0
 37 38  1  0  0  0
 37 39  1  0  0  0
 37 40  1  0  0  0
 37 41  1  0  0  0
 48 50  1  0  0  0
 38 29  1  0  0  0
 45 44  1  0  0  0
 25 27  1  0  0  0
 25 35  1  0  0  0
 25 28  1  0  0  0
 21 20  1  0  0  0
 21 22  1  0  0  0
 44 42  1  0  0  0
  2  1  1  0  0  0
  2  4  1  0  0  0
  2  5  1  0  0  0
 26 27  2  0  0  0
 42 43  2  0  0  0
 29 31  1  0  0  0
 29 36  1  0  0  0
  3  4  2  0  0  0
 43  1  1  0  0  0
  6  9  2  0  0  0
  6 10  1  0  0  0
  1 20  1  0  0  0
 30 36  2  0  0  0
  7  8  1  0  0  0
  7  9  1  0  0  0
 22 24  1  0  0  0
 22 23  1  0  0  0
 11 12  1  0  0  0
 11 18  1  0  0  0
 24 27  1  0  0  0
  4 10  1  0  0  0
 51 52  1  0  0  0
 52 53  1  0  0  0
 53 54  1  0  0  0
 54 55  1  0  0  0
 55 56  1  0  0  0
 56 57  1  0  0  0
 57 58  1  0  0  0
 58 59  1  0  0  0
 59 60  1  0  0  0
 60 61  1  0  0  0
 61 62  1  0  0  0
 62 63  1  0  0  0
 63 64  1  0  0  0
 64 65  1  0  0  0
 31 32  1  0  0  0
 32 33  1  0  0  0
 33 34  1  0  0  0
 34 35  1  0  0  0
 35 36  1  0  0  0
  8 10  1  0  0  0
  9 17  1  0  0  0
 12 13  2  0  0  0
 12 17  1  0  0  0
 13 14  1  0  0  0
 14 15  2  0  0  0
 15 16  1  0  0  0
 16 17  2  0  0  0
M  END
> <minimizedAffinity>
-9.41576

> <CNNscore>
0.1808767170

> <CNNaffinity>
7.4231824875

> <CNN_VS>
1.3426809311

> <CNNaffinity_variance>
1.2229179144

$$$$
/media/chris/experiments/cd1a-new-docking/inputs/ligands/1xz0_ligand.pdb


 65 67  0  0  0  0  0  0  0  0999 V2000
  -37.5857   59.9663   63.2566 C   0  0  0  0  0  0  0  0  0  0  0  0
  -36.1795   60.0612   63.6537 N   0  0  0  0  0  0  0  0  0  0  0  0
  -35.8786   58.1983   64.9233 O   0  0  0  0  0  0  0  0  0  0  0  0
  -35.4511   59.2265   64.4153 C   0  0  0  0  0  0  0  0  0  0  0  0
  -35.6981   60.8499   63.3140 H   0  0  0  0  0  0  0  0  0  0  0  0
  -33.9562   61.0371   65.2322 N   0  0  0  0  0  0  0  0  0  0  0  0
  -32.3798   60.9477   63.6515 O   0  0  0  0  0  0  0  0  0  0  0  0
  -32.9336   59.6325   63.6599 C   0  0  0  0  0  0  0  0  0  0  0  0
  -33.0839   61.7307   64.6359 C   0  0  0  0  0  0  0  0  0  0  0  0
  -34.0284   59.6404   64.7626 C   0  0  0  0  0  0  0  0  0  0  0  0
  -33.0238   62.8749   67.2975 O   0  0  0  0  0  0  0  0  0  0  0  0
  -32.7352   63.6588   66.2517 C   0  0  0  0  0  0  0  0  0  0  0  0
  -32.3965   65.0015   66.4649 C   0  0  0  0  0  0  0  0  0  0  0  0
  -32.0986   65.8473   65.3832 C   0  0  0  0  0  0  0  0  0  0  0  0
  -32.1261   65.3574   64.0764 C   0  0  0  0  0  0  0  0  0  0  0  0
  -32.4571   64.0170   63.8588 C   0  0  0  0  0  0  0  0  0  0  0  0
  -32.7647   63.1692   64.9401 C   0  0  0  0  0  0  0  0  0  0  0  0
  -32.9976   63.2245   68.1665 H   0  0  0  0  0  0  0  0  0  0  0  0
  -37.6401   61.6913   61.5962 O   0  0  0  0  0  0  0  0  0  0  0  0
  -37.6657   60.4956   61.8373 C   0  0  0  0  0  0  0  0  0  0  0  0
  -37.8461   59.5631   60.7198 O   0  0  0  0  0  0  0  0  0  0  0  0
  -39.1023   59.4632   60.0227 C   0  0  0  0  0  0  0  0  0  0  0  0
  -40.2931   60.0382   60.7795 C   0  0  0  0  0  0  0  0  0  0  0  0
  -39.3347   58.0040   59.6604 C   0  0  0  0  0  0  0  0  0  0  0  0
  -41.2611   56.7243   60.4650 N   0  0  0  0  0  0  0  0  0  0  0  0
  -41.4780   58.2514   58.8108 O   0  0  0  0  0  0  0  0  0  0  0  0
  -40.7960   57.6339   59.5963 C   0  0  0  0  0  0  0  0  0  0  0  0
  -42.2275   56.5368   60.4576 H   0  0  0  0  0  0  0  0  0  0  0  0
  -41.9320   55.7065   63.3579 N   0  0  0  0  0  0  0  0  0  0  0  0
  -41.0584   53.9023   62.3346 O   0  0  0  0  0  0  0  0  0  0  0  0
  -42.3477   57.1168   63.3727 C   0  0  0  0  0  0  0  0  0  0  0  0
  -41.1374   58.0392   63.6117 C   0  0  0  0  0  0  0  0  0  0  0  0
  -39.7831   57.3498   63.5962 C   0  0  0  0  0  0  0  0  0  0  0  0
  -39.4002   56.8137   62.2142 C   0  0  0  0  0  0  0  0  0  0  0  0
  -40.4311   55.9888   61.4259 C   0  0  0  0  0  0  0  0  0  0  0  0
  -41.1859   55.1168   62.4101 C   0  0  0  0  0  0  0  0  0  0  0  0
  -44.0527   54.9717   64.9347 Si  0  0  0  0  0  0  0  0  0  0  0  0
  -42.3493   54.9265   64.3939 O   0  0  0  0  0  0  0  0  0  0  0  0
  -44.2283   54.0741   66.0210 H   0  0  0  0  0  0  0  0  0  0  0  0
  -44.9002   54.5880   63.8619 H   0  0  0  0  0  0  0  0  0  0  0  0
  -44.3825   56.2886   65.3509 H   0  0  0  0  0  0  0  0  0  0  0  0
  -38.8748   59.8621   65.5416 C   0  0  0  0  0  0  0  0  0  0  0  0
  -38.6385   60.5834   64.2090 C   0  0  0  0  0  0  0  0  0  0  0  0
  -40.1816   60.1866   66.2850 C   0  0  0  0  0  0  0  0  0  0  0  0
  -41.4288   60.4938   65.4310 C   0  0  0  0  0  0  0  0  0  0  0  0
  -42.5673   59.7672   66.0016 N   0  0  0  0  0  0  0  0  0  0  0  0
  -43.8001   59.5541   65.4701 C   0  0  0  0  0  0  0  0  0  0  0  0
  -42.3190   59.2285   67.2719 O   0  0  0  0  0  0  0  0  0  0  0  0
  -44.0954   59.9818   64.3544 O   0  0  0  0  0  0  0  0  0  0  0  0
  -43.1104   58.7644   67.5867 H   0  0  0  0  0  0  0  0  0  0  0  0
  -44.8344   58.7712   66.2859 C   0  0  0  0  0  0  0  0  0  0  0  0
  -46.0263   58.2520   65.4702 C   0  0  0  0  0  0  0  0  0  0  0  0
  -47.2736   59.1121   65.7510 C   0  0  0  0  0  0  0  0  0  0  0  0
  -48.5997   58.3923   65.4401 C   0  0  0  0  0  0  0  0  0  0  0  0
  -48.9381   58.2907   63.9410 C   0  0  0  0  0  0  0  0  0  0  0  0
  -50.4515   58.3960   63.6589 C   0  0  0  0  0  0  0  0  0  0  0  0
  -50.8064   58.9045   62.2422 C   0  0  0  0  0  0  0  0  0  0  0  0
  -49.6434   59.6149   61.5400 C   0  0  0  0  0  0  0  0  0  0  0  0
  -49.5324   59.3588   60.0337 C   0  0  0  0  0  0  0  0  0  0  0  0
  -49.9552   57.9221   59.6762 C   0  0  0  0  0  0  0  0  0  0  0  0
  -48.9143   56.8557   60.0492 C   0  0  0  0  0  0  0  0  0  0  0  0
  -47.5636   56.9651   59.3342 C   0  0  0  0  0  0  0  0  0  0  0  0
  -47.4353   56.0696   58.0766 C   0  0  0  0  0  0  0  0  0  0  0  0
  -47.1965   56.9105   56.8062 C   0  0  0  0  0  0  0  0  0  0  0  0
  -47.3855   58.4275   56.9253 C   0  0  0  0  0  0  0  0  0  0  0  0
 46 47  1  0  0  0
 46 48  1  0  0  0
 46 45  1  0  0  0
 47 49  2  0  0  0
 47 51  1  0  0  0
 19 20  2  0  0  0
 37 38  1  0  0  0
 37 39  1  0  0  0
 37 40  1  0  0  0
 37 41  1  0  0  0
 48 50  1  0  0  0
 38 29  1  0  0  0
 45 44  1  0  0  0
 25 27  1  0  0  0
 25 35  1  0  0  0
 25 28  1  0  0  0
 21 20  1  0  0  0
 21 22  1  0  0  0
 44 42  1  0  0  0
  2  1  1  0  0  0
  2  4  1  0  0  0
  2  5  1  0  0  0
 26 27  2  0  0  0
 42 43  2  0  0  0
 29 31  1  0  0  0
 29 36  1  0  0  0
  3  4  2  0  0  0
 43  1  1  0  0  0
  6  9  2  0  0  0
  6 10  1  0  0  0
  1 20  1  0  0  0
 30 36  2  0  0  0
  7  8  1  0  0  0
  7  9  1  0  0  0
 22 24  1  0  0  0
 22 23  1  0  0  0
 11 12  1  0  0  0
 11 18  1  0  0  0
 24 27  1  0  0  0
  4 10  1  0  0  0
 51 52  1  0  0  0
 52 53  1  0  0  0
 53 54  1  0  0  0
 54 55  1  0  0  0
 55 56  1  0  0  0
 56 57  1  0  0  0
 57 58  1  0  0  0
 58 59  1  0  0  0
 59 60  1  0  0  0
 60 61  1  0  0  0
 61 62  1  0  0  0
 62 63  1  0  0  0
 63 64  1  0  0  0
 64 65  1  0  0  0
 31 32  1  0  0  0
 32 33  1  0  0  0
 33 34  1  0  0  0
 34 35  1  0  0  0
 35 36  1  0  0  0
  8 10  1  0  0  0
  9 17  1  0  0  0
 12 13  2  0  0  0
 12 17  1  0  0  0
 13 14  1  0  0  0
 14 15  2  0  0  0
 15 16  1  0  0  0
 16 17  2  0  0  0
M  END
> <minimizedAffinity>
-9.27041

> <CNNscore>
0.1569222361

> <CNNaffinity>
7.4262375832

> <CNN_VS>
1.1653418541

> <CNNaffinity_variance>
1.4854898453

$$$$
/media/chris/experiments/cd1a-new-docking/inputs/ligands/1xz0_ligand.pdb


 65 67  0  0  0  0  0  0  0  0999 V2000
  -40.6320   59.1988   64.5331 C   0  0  0  0  0  0  0  0  0  0  0  0
  -39.5615   58.7508   63.6402 N   0  0  0  0  0  0  0  0  0  0  0  0
  -40.6964   57.9720   61.8297 O   0  0  0  0  0  0  0  0  0  0  0  0
  -39.6471   58.1983   62.4176 C   0  0  0  0  0  0  0  0  0  0  0  0
  -38.6473   58.8717   63.9848 H   0  0  0  0  0  0  0  0  0  0  0  0
  -37.2337   57.6812   62.7150 N   0  0  0  0  0  0  0  0  0  0  0  0
  -36.4013   58.8251   60.9857 O   0  0  0  0  0  0  0  0  0  0  0  0
  -37.7420   58.5345   60.5926 C   0  0  0  0  0  0  0  0  0  0  0  0
  -36.1969   58.2746   62.3022 C   0  0  0  0  0  0  0  0  0  0  0  0
  -38.3597   57.7193   61.7625 C   0  0  0  0  0  0  0  0  0  0  0  0
  -35.9540   58.4777   65.1826 O   0  0  0  0  0  0  0  0  0  0  0  0
  -34.8394   58.4352   64.4426 C   0  0  0  0  0  0  0  0  0  0  0  0
  -33.5882   58.4728   65.0720 C   0  0  0  0  0  0  0  0  0  0  0  0
  -32.4037   58.4390   64.3170 C   0  0  0  0  0  0  0  0  0  0  0  0
  -32.4567   58.3571   62.9246 C   0  0  0  0  0  0  0  0  0  0  0  0
  -33.7024   58.3128   62.2923 C   0  0  0  0  0  0  0  0  0  0  0  0
  -34.8913   58.3554   63.0456 C   0  0  0  0  0  0  0  0  0  0  0  0
  -35.8948   58.5310   66.1162 H   0  0  0  0  0  0  0  0  0  0  0  0
  -40.7259   61.0314   66.0721 O   0  0  0  0  0  0  0  0  0  0  0  0
  -40.0290   60.2730   65.4182 C   0  0  0  0  0  0  0  0  0  0  0  0
  -38.5749   60.4621   65.4485 O   0  0  0  0  0  0  0  0  0  0  0  0
  -37.9389   61.5046   64.6853 C   0  0  0  0  0  0  0  0  0  0  0  0
  -37.8705   61.2394   63.1864 C   0  0  0  0  0  0  0  0  0  0  0  0
  -36.5525   61.7448   65.2641 C   0  0  0  0  0  0  0  0  0  0  0  0
  -35.8111   63.9740   64.5736 N   0  0  0  0  0  0  0  0  0  0  0  0
  -36.5791   63.5912   66.6664 O   0  0  0  0  0  0  0  0  0  0  0  0
  -36.2775   63.1979   65.5627 C   0  0  0  0  0  0  0  0  0  0  0  0
  -35.6955   64.9336   64.7608 H   0  0  0  0  0  0  0  0  0  0  0  0
  -33.0096   63.7248   63.1794 N   0  0  0  0  0  0  0  0  0  0  0  0
  -33.9604   61.7108   62.8554 O   0  0  0  0  0  0  0  0  0  0  0  0
  -33.0239   65.0984   63.7037 C   0  0  0  0  0  0  0  0  0  0  0  0
  -33.7916   66.0366   62.7534 C   0  0  0  0  0  0  0  0  0  0  0  0
  -34.5136   65.3490   61.6062 C   0  0  0  0  0  0  0  0  0  0  0  0
  -35.6834   64.4780   62.0716 C   0  0  0  0  0  0  0  0  0  0  0  0
  -35.4608   63.4938   63.2320 C   0  0  0  0  0  0  0  0  0  0  0  0
  -34.0703   62.9066   63.0893 C   0  0  0  0  0  0  0  0  0  0  0  0
  -31.3428   61.5474   63.1123 Si  0  0  0  0  0  0  0  0  0  0  0  0
  -31.8106   63.2356   62.7561 O   0  0  0  0  0  0  0  0  0  0  0  0
  -30.0579   61.2871   62.5667 H   0  0  0  0  0  0  0  0  0  0  0  0
  -32.2906   60.6616   62.5348 H   0  0  0  0  0  0  0  0  0  0  0  0
  -31.3082   61.3524   64.5185 H   0  0  0  0  0  0  0  0  0  0  0  0
  -42.3282   57.1948   64.5032 C   0  0  0  0  0  0  0  0  0  0  0  0
  -41.4077   58.1125   65.3170 C   0  0  0  0  0  0  0  0  0  0  0  0
  -43.4086   56.4261   65.2828 C   0  0  0  0  0  0  0  0  0  0  0  0
  -44.1903   57.1985   66.3651 C   0  0  0  0  0  0  0  0  0  0  0  0
  -45.4569   57.6519   65.7822 N   0  0  0  0  0  0  0  0  0  0  0  0
  -45.6929   58.7151   64.9687 C   0  0  0  0  0  0  0  0  0  0  0  0
  -46.5591   56.8580   66.1294 O   0  0  0  0  0  0  0  0  0  0  0  0
  -44.7785   59.4549   64.6059 O   0  0  0  0  0  0  0  0  0  0  0  0
  -47.3586   57.2140   65.7113 H   0  0  0  0  0  0  0  0  0  0  0  0
  -47.1274   58.9914   64.5064 C   0  0  0  0  0  0  0  0  0  0  0  0
  -47.7942   60.1943   65.1876 C   0  0  0  0  0  0  0  0  0  0  0  0
  -48.7793   59.7101   66.2690 C   0  0  0  0  0  0  0  0  0  0  0  0
  -49.6583   58.5290   65.8158 C   0  0  0  0  0  0  0  0  0  0  0  0
  -50.7238   58.8892   64.7635 C   0  0  0  0  0  0  0  0  0  0  0  0
  -51.1775   60.3616   64.8486 C   0  0  0  0  0  0  0  0  0  0  0  0
  -51.1200   61.1294   63.5074 C   0  0  0  0  0  0  0  0  0  0  0  0
  -50.9218   60.2179   62.2908 C   0  0  0  0  0  0  0  0  0  0  0  0
  -49.5068   60.2068   61.7037 C   0  0  0  0  0  0  0  0  0  0  0  0
  -49.1497   58.8248   61.1266 C   0  0  0  0  0  0  0  0  0  0  0  0
  -49.4631   58.6750   59.6302 C   0  0  0  0  0  0  0  0  0  0  0  0
  -48.5058   57.7803   58.8358 C   0  0  0  0  0  0  0  0  0  0  0  0
  -47.7528   58.5096   57.6953 C   0  0  0  0  0  0  0  0  0  0  0  0
  -47.6071   57.6118   56.4499 C   0  0  0  0  0  0  0  0  0  0  0  0
  -47.2118   56.1489   56.6842 C   0  0  0  0  0  0  0  0  0  0  0  0
 46 47  1  0  0  0
 46 48  1  0  0  0
 46 45  1  0  0  0
 47 49  2  0  0  0
 47 51  1  0  0  0
 19 20  2  0  0  0
 37 38  1  0  0  0
 37 39  1  0  0  0
 37 40  1  0  0  0
 37 41  1  0  0  0
 48 50  1  0  0  0
 38 29  1  0  0  0
 45 44  1  0  0  0
 25 27  1  0  0  0
 25 35  1  0  0  0
 25 28  1  0  0  0
 21 20  1  0  0  0
 21 22  1  0  0  0
 44 42  1  0  0  0
  2  1  1  0  0  0
  2  4  1  0  0  0
  2  5  1  0  0  0
 26 27  2  0  0  0
 42 43  2  0  0  0
 29 31  1  0  0  0
 29 36  1  0  0  0
  3  4  2  0  0  0
 43  1  1  0  0  0
  6  9  2  0  0  0
  6 10  1  0  0  0
  1 20  1  0  0  0
 30 36  2  0  0  0
  7  8  1  0  0  0
  7  9  1  0  0  0
 22 24  1  0  0  0
 22 23  1  0  0  0
 11 12  1  0  0  0
 11 18  1  0  0  0
 24 27  1  0  0  0
  4 10  1  0  0  0
 51 52  1  0  0  0
 52 53  1  0  0  0
 53 54  1  0  0  0
 54 55  1  0  0  0
 55 56  1  0  0  0
 56 57  1  0  0  0
 57 58  1  0  0  0
 58 59  1  0  0  0
 59 60  1  0  0  0
 60 61  1  0  0  0
 61 62  1  0  0  0
 62 63  1  0  0  0
 63 64  1  0  0  0
 64 65  1  0  0  0
 31 32  1  0  0  0
 32 33  1  0  0  0
 33 34  1  0  0  0
 34 35  1  0  0  0
 35 36  1  0  0  0
  8 10  1  0  0  0
  9 17  1  0  0  0
 12 13  2  0  0  0
 12 17  1  0  0  0
 13 14  1  0  0  0
 14 15  2  0  0  0
 15 16  1  0  0  0
 16 17  2  0  0  0
M  END
> <minimizedAffinity>
-9.83957

> <CNNscore>
0.1437564939

> <CNNaffinity>
7.0842237473

> <CNN_VS>
1.0184031725

> <CNNaffinity_variance>
0.7065728307

$$$$
/media/chris/experiments/cd1a-new-docking/inputs/ligands/1xz0_ligand.pdb


 65 67  0  0  0  0  0  0  0  0999 V2000
  -42.3039   59.0513   62.0987 C   0  0  0  0  0  0  0  0  0  0  0  0
  -40.9575   58.7833   61.5893 N   0  0  0  0  0  0  0  0  0  0  0  0
  -41.3573   57.7551   59.6004 O   0  0  0  0  0  0  0  0  0  0  0  0
  -40.5829   58.1889   60.4431 C   0  0  0  0  0  0  0  0  0  0  0  0
  -40.2204   59.0814   62.1698 H   0  0  0  0  0  0  0  0  0  0  0  0
  -38.4131   57.5454   61.4718 N   0  0  0  0  0  0  0  0  0  0  0  0
  -37.1333   59.1990   60.6845 O   0  0  0  0  0  0  0  0  0  0  0  0
  -38.1866   59.0936   59.7274 C   0  0  0  0  0  0  0  0  0  0  0  0
  -37.3734   58.2213   61.7162 C   0  0  0  0  0  0  0  0  0  0  0  0
  -39.0979   57.9376   60.2252 C   0  0  0  0  0  0  0  0  0  0  0  0
  -34.7043   59.3261   61.9446 O   0  0  0  0  0  0  0  0  0  0  0  0
  -35.1839   58.5849   62.9507 C   0  0  0  0  0  0  0  0  0  0  0  0
  -34.3983   58.3740   64.0914 C   0  0  0  0  0  0  0  0  0  0  0  0
  -34.8753   57.5921   65.1570 C   0  0  0  0  0  0  0  0  0  0  0  0
  -36.1474   57.0205   65.0983 C   0  0  0  0  0  0  0  0  0  0  0  0
  -36.9376   57.2333   63.9652 C   0  0  0  0  0  0  0  0  0  0  0  0
  -36.4590   58.0090   62.8919 C   0  0  0  0  0  0  0  0  0  0  0  0
  -33.8479   59.7015   62.0060 H   0  0  0  0  0  0  0  0  0  0  0  0
  -43.2082   61.0763   63.0027 O   0  0  0  0  0  0  0  0  0  0  0  0
  -42.2252   60.3721   62.8404 C   0  0  0  0  0  0  0  0  0  0  0  0
  -40.9298   60.8621   63.3228 O   0  0  0  0  0  0  0  0  0  0  0  0
  -40.1761   60.1373   64.3130 C   0  0  0  0  0  0  0  0  0  0  0  0
  -40.6981   60.2832   65.7370 C   0  0  0  0  0  0  0  0  0  0  0  0
  -38.7197   60.5662   64.2156 C   0  0  0  0  0  0  0  0  0  0  0  0
  -36.9958   61.2416   65.8181 N   0  0  0  0  0  0  0  0  0  0  0  0
  -38.3130   59.4438   66.2033 O   0  0  0  0  0  0  0  0  0  0  0  0
  -37.9526   60.3583   65.4981 C   0  0  0  0  0  0  0  0  0  0  0  0
  -36.5452   61.1335   66.6867 H   0  0  0  0  0  0  0  0  0  0  0  0
  -34.2333   61.8003   64.4356 N   0  0  0  0  0  0  0  0  0  0  0  0
  -35.7341   62.0596   62.7785 O   0  0  0  0  0  0  0  0  0  0  0  0
  -33.8783   61.5078   65.8322 C   0  0  0  0  0  0  0  0  0  0  0  0
  -34.0715   62.7544   66.7161 C   0  0  0  0  0  0  0  0  0  0  0  0
  -34.7427   63.9355   66.0346 C   0  0  0  0  0  0  0  0  0  0  0  0
  -36.2083   63.6689   65.6813 C   0  0  0  0  0  0  0  0  0  0  0  0
  -36.5729   62.3580   64.9648 C   0  0  0  0  0  0  0  0  0  0  0  0
  -35.4703   62.0427   63.9731 C   0  0  0  0  0  0  0  0  0  0  0  0
  -33.5469   61.5528   61.7915 Si  0  0  0  0  0  0  0  0  0  0  0  0
  -33.2170   61.8174   63.5285 O   0  0  0  0  0  0  0  0  0  0  0  0
  -32.3297   61.6189   61.0631 H   0  0  0  0  0  0  0  0  0  0  0  0
  -34.4355   62.5553   61.3204 H   0  0  0  0  0  0  0  0  0  0  0  0
  -34.1375   60.2741   61.6112 H   0  0  0  0  0  0  0  0  0  0  0  0
  -43.2925   58.2152   64.3830 C   0  0  0  0  0  0  0  0  0  0  0  0
  -42.9974   57.9271   62.9059 C   0  0  0  0  0  0  0  0  0  0  0  0
  -43.5661   57.0010   65.2866 C   0  0  0  0  0  0  0  0  0  0  0  0
  -44.4823   57.2155   66.5088 C   0  0  0  0  0  0  0  0  0  0  0  0
  -45.4472   58.2695   66.1808 N   0  0  0  0  0  0  0  0  0  0  0  0
  -46.7522   58.1529   65.8186 C   0  0  0  0  0  0  0  0  0  0  0  0
  -44.9216   59.5667   66.2616 O   0  0  0  0  0  0  0  0  0  0  0  0
  -47.2945   57.0510   65.7365 O   0  0  0  0  0  0  0  0  0  0  0  0
  -45.6109   60.2098   66.0331 H   0  0  0  0  0  0  0  0  0  0  0  0
  -47.5509   59.4222   65.5036 C   0  0  0  0  0  0  0  0  0  0  0  0
  -48.6322   59.7656   66.5373 C   0  0  0  0  0  0  0  0  0  0  0  0
  -50.0198   59.7750   65.8673 C   0  0  0  0  0  0  0  0  0  0  0  0
  -50.3991   58.4297   65.2197 C   0  0  0  0  0  0  0  0  0  0  0  0
  -50.5670   58.4792   63.6895 C   0  0  0  0  0  0  0  0  0  0  0  0
  -51.1773   59.8076   63.1954 C   0  0  0  0  0  0  0  0  0  0  0  0
  -50.3840   60.4950   62.0597 C   0  0  0  0  0  0  0  0  0  0  0  0
  -49.2822   59.6112   61.4636 C   0  0  0  0  0  0  0  0  0  0  0  0
  -49.4436   59.2754   59.9777 C   0  0  0  0  0  0  0  0  0  0  0  0
  -50.0409   57.8699   59.7817 C   0  0  0  0  0  0  0  0  0  0  0  0
  -49.0355   56.7297   60.0030 C   0  0  0  0  0  0  0  0  0  0  0  0
  -47.6573   56.9236   59.3621 C   0  0  0  0  0  0  0  0  0  0  0  0
  -47.4256   56.0788   58.0845 C   0  0  0  0  0  0  0  0  0  0  0  0
  -47.3251   56.9688   56.8291 C   0  0  0  0  0  0  0  0  0  0  0  0
  -47.3094   58.4866   57.0467 C   0  0  0  0  0  0  0  0  0  0  0  0
 46 47  1  0  0  0
 46 48  1  0  0  0
 46 45  1  0  0  0
 47 49  2  0  0  0
 47 51  1  0  0  0
 19 20  2  0  0  0
 37 38  1  0  0  0
 37 39  1  0  0  0
 37 40  1  0  0  0
 37 41  1  0  0  0
 48 50  1  0  0  0
 38 29  1  0  0  0
 45 44  1  0  0  0
 25 27  1  0  0  0
 25 35  1  0  0  0
 25 28  1  0  0  0
 21 20  1  0  0  0
 21 22  1  0  0  0
 44 42  1  0  0  0
  2  1  1  0  0  0
  2  4  1  0  0  0
  2  5  1  0  0  0
 26 27  2  0  0  0
 42 43  2  0  0  0
 29 31  1  0  0  0
 29 36  1  0  0  0
  3  4  2  0  0  0
 43  1  1  0  0  0
  6  9  2  0  0  0
  6 10  1  0  0  0
  1 20  1  0  0  0
 30 36  2  0  0  0
  7  8  1  0  0  0
  7  9  1  0  0  0
 22 24  1  0  0  0
 22 23  1  0  0  0
 11 12  1  0  0  0
 11 18  1  0  0  0
 24 27  1  0  0  0
  4 10  1  0  0  0
 51 52  1  0  0  0
 52 53  1  0  0  0
 53 54  1  0  0  0
 54 55  1  0  0  0
 55 56  1  0  0  0
 56 57  1  0  0  0
 57 58  1  0  0  0
 58 59  1  0  0  0
 59 60  1  0  0  0
 60 61  1  0  0  0
 61 62  1  0  0  0
 62 63  1  0  0  0
 63 64  1  0  0  0
 64 65  1  0  0  0
 31 32  1  0  0  0
 32 33  1  0  0  0
 33 34  1  0  0  0
 34 35  1  0  0  0
 35 36  1  0  0  0
  8 10  1  0  0  0
  9 17  1  0  0  0
 12 13  2  0  0  0
 12 17  1  0  0  0
 13 14  1  0  0  0
 14 15  2  0  0  0
 15 16  1  0  0  0
 16 17  2  0  0  0
M  END
> <minimizedAffinity>
-10.19536

> <CNNscore>
0.1396364123

> <CNNaffinity>
7.4537644386

> <CNN_VS>
1.0408169031

> <CNNaffinity_variance>
0.9434091449

$$$$
/media/chris/experiments/cd1a-new-docking/inputs/ligands/1xz0_ligand.pdb


 65 67  0  0  0  0  0  0  0  0999 V2000
  -37.4755   57.4831   63.0319 C   0  0  0  0  0  0  0  0  0  0  0  0
  -36.1335   57.9498   63.3859 N   0  0  0  0  0  0  0  0  0  0  0  0
  -35.6398   56.7310   65.2416 O   0  0  0  0  0  0  0  0  0  0  0  0
  -35.3414   57.5727   64.4046 C   0  0  0  0  0  0  0  0  0  0  0  0
  -35.7571   58.6392   62.7923 H   0  0  0  0  0  0  0  0  0  0  0  0
  -34.2379   59.6801   65.1264 N   0  0  0  0  0  0  0  0  0  0  0  0
  -32.9058   60.0148   63.3642 O   0  0  0  0  0  0  0  0  0  0  0  0
  -33.1178   58.6036   63.3722 C   0  0  0  0  0  0  0  0  0  0  0  0
  -33.6450   60.5796   64.4654 C   0  0  0  0  0  0  0  0  0  0  0  0
  -34.0291   58.3186   64.5981 C   0  0  0  0  0  0  0  0  0  0  0  0
  -33.9575   62.7114   62.5277 O   0  0  0  0  0  0  0  0  0  0  0  0
  -33.8204   63.0298   63.8206 C   0  0  0  0  0  0  0  0  0  0  0  0
  -33.8473   64.3756   64.2092 C   0  0  0  0  0  0  0  0  0  0  0  0
  -33.6961   64.7362   65.5588 C   0  0  0  0  0  0  0  0  0  0  0  0
  -33.5265   63.7544   66.5365 C   0  0  0  0  0  0  0  0  0  0  0  0
  -33.5055   62.4101   66.1547 C   0  0  0  0  0  0  0  0  0  0  0  0
  -33.6479   62.0460   64.8020 C   0  0  0  0  0  0  0  0  0  0  0  0
  -34.0718   63.3869   61.8884 H   0  0  0  0  0  0  0  0  0  0  0  0
  -37.2970   59.1789   61.3503 O   0  0  0  0  0  0  0  0  0  0  0  0
  -37.8190   58.1352   61.7062 C   0  0  0  0  0  0  0  0  0  0  0  0
  -38.8519   57.5448   60.8485 O   0  0  0  0  0  0  0  0  0  0  0  0
  -39.0414   57.9869   59.4911 C   0  0  0  0  0  0  0  0  0  0  0  0
  -38.0268   59.0189   59.0146 C   0  0  0  0  0  0  0  0  0  0  0  0
  -40.4633   58.5098   59.3513 C   0  0  0  0  0  0  0  0  0  0  0  0
  -41.7241   58.8074   61.4292 N   0  0  0  0  0  0  0  0  0  0  0  0
  -41.8544   56.8844   60.2455 O   0  0  0  0  0  0  0  0  0  0  0  0
  -41.3945   57.9900   60.4185 C   0  0  0  0  0  0  0  0  0  0  0  0
  -42.3816   58.4814   62.0855 H   0  0  0  0  0  0  0  0  0  0  0  0
  -41.6236   60.5973   64.0061 N   0  0  0  0  0  0  0  0  0  0  0  0
  -39.5117   60.6416   63.2295 O   0  0  0  0  0  0  0  0  0  0  0  0
  -43.0271   60.1660   63.9283 C   0  0  0  0  0  0  0  0  0  0  0  0
  -43.8133   61.0450   62.9373 C   0  0  0  0  0  0  0  0  0  0  0  0
  -42.9743   62.0210   62.1289 C   0  0  0  0  0  0  0  0  0  0  0  0
  -42.0391   61.3263   61.1356 C   0  0  0  0  0  0  0  0  0  0  0  0
  -41.1739   60.1534   61.6259 C   0  0  0  0  0  0  0  0  0  0  0  0
  -40.7071   60.4706   63.0331 C   0  0  0  0  0  0  0  0  0  0  0  0
  -39.5998   60.7997   65.8464 Si  0  0  0  0  0  0  0  0  0  0  0  0
  -41.2145   61.1680   65.1736 O   0  0  0  0  0  0  0  0  0  0  0  0
  -39.4179   61.5155   67.0593 H   0  0  0  0  0  0  0  0  0  0  0  0
  -38.5997   61.1850   64.9149 H   0  0  0  0  0  0  0  0  0  0  0  0
  -39.4990   59.4061   66.0997 H   0  0  0  0  0  0  0  0  0  0  0  0
  -39.8911   56.8627   63.8530 C   0  0  0  0  0  0  0  0  0  0  0  0
  -38.5857   57.6286   64.1008 C   0  0  0  0  0  0  0  0  0  0  0  0
  -41.1279   57.3240   64.6424 C   0  0  0  0  0  0  0  0  0  0  0  0
  -42.3564   56.3913   64.6492 C   0  0  0  0  0  0  0  0  0  0  0  0
  -43.3495   56.9455   65.5747 N   0  0  0  0  0  0  0  0  0  0  0  0
  -44.5573   57.5053   65.2996 C   0  0  0  0  0  0  0  0  0  0  0  0
  -42.9728   56.8730   66.9231 O   0  0  0  0  0  0  0  0  0  0  0  0
  -44.9690   57.5957   64.1432 O   0  0  0  0  0  0  0  0  0  0  0  0
  -43.6724   57.2555   67.4754 H   0  0  0  0  0  0  0  0  0  0  0  0
  -45.4102   58.0351   66.4572 C   0  0  0  0  0  0  0  0  0  0  0  0
  -46.0560   59.4028   66.1967 C   0  0  0  0  0  0  0  0  0  0  0  0
  -47.5913   59.2784   66.2362 C   0  0  0  0  0  0  0  0  0  0  0  0
  -48.2073   58.8375   64.8948 C   0  0  0  0  0  0  0  0  0  0  0  0
  -49.5133   58.0312   65.0230 C   0  0  0  0  0  0  0  0  0  0  0  0
  -50.4519   58.2124   63.8117 C   0  0  0  0  0  0  0  0  0  0  0  0
  -51.0449   59.6332   63.6662 C   0  0  0  0  0  0  0  0  0  0  0  0
  -50.9201   60.2041   62.2489 C   0  0  0  0  0  0  0  0  0  0  0  0
  -49.5048   60.1992   61.6625 C   0  0  0  0  0  0  0  0  0  0  0  0
  -49.4629   59.4764   60.3037 C   0  0  0  0  0  0  0  0  0  0  0  0
  -49.0677   57.9950   60.3984 C   0  0  0  0  0  0  0  0  0  0  0  0
  -48.0974   57.4948   59.3232 C   0  0  0  0  0  0  0  0  0  0  0  0
  -48.0222   58.3960   58.0655 C   0  0  0  0  0  0  0  0  0  0  0  0
  -47.1227   57.7746   56.9779 C   0  0  0  0  0  0  0  0  0  0  0  0
  -47.2889   56.2748   56.7052 C   0  0  0  0  0  0  0  0  0  0  0  0
 46 47  1  0  0  0
 46 48  1  0  0  0
 46 45  1  0  0  0
 47 49  2  0  0  0
 47 51  1  0  0  0
 19 20  2  0  0  0
 37 38  1  0  0  0
 37 39  1  0  0  0
 37 40  1  0  0  0
 37 41  1  0  0  0
 48 50  1  0  0  0
 38 29  1  0  0  0
 45 44  1  0  0  0
 25 27  1  0  0  0
 25 35  1  0  0  0
 25 28  1  0  0  0
 21 20  1  0  0  0
 21 22  1  0  0  0
 44 42  1  0  0  0
  2  1  1  0  0  0
  2  4  1  0  0  0
  2  5  1  0  0  0
 26 27  2  0  0  0
 42 43  2  0  0  0
 29 31  1  0  0  0
 29 36  1  0  0  0
  3  4  2  0  0  0
 43  1  1  0  0  0
  6  9  2  0  0  0
  6 10  1  0  0  0
  1 20  1  0  0  0
 30 36  2  0  0  0
  7  8  1  0  0  0
  7  9  1  0  0  0
 22 24  1  0  0  0
 22 23  1  0  0  0
 11 12  1  0  0  0
 11 18  1  0  0  0
 24 27  1  0  0  0
  4 10  1  0  0  0
 51 52  1  0  0  0
 52 53  1  0  0  0
 53 54  1  0  0  0
 54 55  1  0  0  0
 55 56  1  0  0  0
 56 57  1  0  0  0
 57 58  1  0  0  0
 58 59  1  0  0  0
 59 60  1  0  0  0
 60 61  1  0  0  0
 61 62  1  0  0  0
 62 63  1  0  0  0
 63 64  1  0  0  0
 64 65  1  0  0  0
 31 32  1  0  0  0
 32 33  1  0  0  0
 33 34  1  0  0  0
 34 35  1  0  0  0
 35 36  1  0  0  0
  8 10  1  0  0  0
  9 17  1  0  0  0
 12 13  2  0  0  0
 12 17  1  0  0  0
 13 14  1  0  0  0
 14 15  2  0  0  0
 15 16  1  0  0  0
 16 17  2  0  0  0
M  END
> <minimizedAffinity>
-9.88475

> <CNNscore>
0.1341743916

> <CNNaffinity>
7.6139345169

> <CNN_VS>
1.0215950012

> <CNNaffinity_variance>
1.7708218098

$$$$
