/media/chris/experiments/cd1a-new-docking/inputs/ligands/1xz0_ligand.pdb


 65 67  0  0  0  0  0  0  0  0999 V2000
  -39.4680   59.9293   64.8891 C   0  0  0  0  0  0  0  0  0  0  0  0
  -38.5673   61.0474   65.1770 N   0  0  0  0  0  0  0  0  0  0  0  0
  -36.7625   60.0246   66.1096 O   0  0  0  0  0  0  0  0  0  0  0  0
  -37.3442   61.0342   65.7348 C   0  0  0  0  0  0  0  0  0  0  0  0
  -38.9062   61.9369   64.9258 H   0  0  0  0  0  0  0  0  0  0  0  0
  -36.4948   63.1744   64.7976 N   0  0  0  0  0  0  0  0  0  0  0  0
  -34.4685   63.2041   65.7383 O   0  0  0  0  0  0  0  0  0  0  0  0
  -35.2492   62.4076   66.6284 C   0  0  0  0  0  0  0  0  0  0  0  0
  -35.3179   63.6095   64.6463 C   0  0  0  0  0  0  0  0  0  0  0  0
  -36.6798   62.3729   66.0223 C   0  0  0  0  0  0  0  0  0  0  0  0
  -36.4314   63.5626   61.9715 O   0  0  0  0  0  0  0  0  0  0  0  0
  -35.4485   64.4289   62.2461 C   0  0  0  0  0  0  0  0  0  0  0  0
  -34.9935   65.2995   61.2471 C   0  0  0  0  0  0  0  0  0  0  0  0
  -33.9568   66.2116   61.5075 C   0  0  0  0  0  0  0  0  0  0  0  0
  -33.3702   66.2703   62.7729 C   0  0  0  0  0  0  0  0  0  0  0  0
  -33.8250   65.4082   63.7746 C   0  0  0  0  0  0  0  0  0  0  0  0
  -34.8578   64.4872   63.5141 C   0  0  0  0  0  0  0  0  0  0  0  0
  -36.8118   63.5416   61.1155 H   0  0  0  0  0  0  0  0  0  0  0  0
  -40.6307   61.1792   63.2094 O   0  0  0  0  0  0  0  0  0  0  0  0
  -40.0115   60.1669   63.4930 C   0  0  0  0  0  0  0  0  0  0  0  0
  -39.8559   59.1338   62.4637 O   0  0  0  0  0  0  0  0  0  0  0  0
  -40.0014   59.4422   61.0646 C   0  0  0  0  0  0  0  0  0  0  0  0
  -40.4567   58.2711   60.2027 C   0  0  0  0  0  0  0  0  0  0  0  0
  -38.6853   60.0154   60.5608 C   0  0  0  0  0  0  0  0  0  0  0  0
  -36.8688   58.4527   61.0650 N   0  0  0  0  0  0  0  0  0  0  0  0
  -37.7790   58.5625   58.9974 O   0  0  0  0  0  0  0  0  0  0  0  0
  -37.6986   58.9548   60.1389 C   0  0  0  0  0  0  0  0  0  0  0  0
  -36.2732   57.7168   60.7949 H   0  0  0  0  0  0  0  0  0  0  0  0
  -34.3909   59.4240   62.7296 N   0  0  0  0  0  0  0  0  0  0  0  0
  -35.9257   61.0399   63.0441 O   0  0  0  0  0  0  0  0  0  0  0  0
  -33.9502   58.1466   62.1500 C   0  0  0  0  0  0  0  0  0  0  0  0
  -34.4726   56.9611   62.9832 C   0  0  0  0  0  0  0  0  0  0  0  0
  -35.4559   57.3247   64.0835 C   0  0  0  0  0  0  0  0  0  0  0  0
  -36.7931   57.8402   63.5449 C   0  0  0  0  0  0  0  0  0  0  0  0
  -36.7860   58.9227   62.4526 C   0  0  0  0  0  0  0  0  0  0  0  0
  -35.6522   59.8838   62.7516 C   0  0  0  0  0  0  0  0  0  0  0  0
  -33.3988   61.9718   62.9505 Si  0  0  0  0  0  0  0  0  0  0  0  0
  -33.4318   60.2161   63.2854 O   0  0  0  0  0  0  0  0  0  0  0  0
  -32.3107   62.5655   63.6434 H   0  0  0  0  0  0  0  0  0  0  0  0
  -34.6153   62.5598   63.3871 H   0  0  0  0  0  0  0  0  0  0  0  0
  -33.2442   62.1847   61.5551 H   0  0  0  0  0  0  0  0  0  0  0  0
  -41.5719   58.5133   65.5689 C   0  0  0  0  0  0  0  0  0  0  0  0
  -40.5633   59.6090   65.9350 C   0  0  0  0  0  0  0  0  0  0  0  0
  -42.8862   58.4838   66.3673 C   0  0  0  0  0  0  0  0  0  0  0  0
  -44.1384   57.9304   65.6565 C   0  0  0  0  0  0  0  0  0  0  0  0
  -44.6788   58.9831   64.7909 N   0  0  0  0  0  0  0  0  0  0  0  0
  -45.8683   59.6353   64.8768 C   0  0  0  0  0  0  0  0  0  0  0  0
  -43.8271   59.3464   63.7382 O   0  0  0  0  0  0  0  0  0  0  0  0
  -46.1779   60.5053   64.0631 O   0  0  0  0  0  0  0  0  0  0  0  0
  -44.2459   60.0435   63.2093 H   0  0  0  0  0  0  0  0  0  0  0  0
  -46.8303   59.2771   66.0144 C   0  0  0  0  0  0  0  0  0  0  0  0
  -48.2249   58.8337   65.5517 C   0  0  0  0  0  0  0  0  0  0  0  0
  -49.2901   59.8238   66.0609 C   0  0  0  0  0  0  0  0  0  0  0  0
  -50.7266   59.4455   65.6521 C   0  0  0  0  0  0  0  0  0  0  0  0
  -51.5658   60.6141   65.1026 C   0  0  0  0  0  0  0  0  0  0  0  0
  -51.5634   60.6819   63.5610 C   0  0  0  0  0  0  0  0  0  0  0  0
  -52.0441   59.3894   62.8611 C   0  0  0  0  0  0  0  0  0  0  0  0
  -50.9372   58.6699   62.0819 C   0  0  0  0  0  0  0  0  0  0  0  0
  -49.6934   59.5122   61.7812 C   0  0  0  0  0  0  0  0  0  0  0  0
  -49.4901   59.6915   60.2657 C   0  0  0  0  0  0  0  0  0  0  0  0
  -49.4755   58.3720   59.4790 C   0  0  0  0  0  0  0  0  0  0  0  0
  -48.3162   57.4214   59.7952 C   0  0  0  0  0  0  0  0  0  0  0  0
  -47.4310   57.0695   58.5737 C   0  0  0  0  0  0  0  0  0  0  0  0
  -47.5048   58.1628   57.4885 C   0  0  0  0  0  0  0  0  0  0  0  0
  -47.8975   57.7196   56.0741 C   0  0  0  0  0  0  0  0  0  0  0  0
 46 47  1  0  0  0
 46 48  1  0  0  0
 46 45  1  0  0  0
 47 49  2  0  0  0
 47 51  1  0  0  0
 19 20  2  0  0  0
 37 38  1  0  0  0
 37 39  1  0  0  0
 37 40  1  0  0  0
 37 41  1  0  0  0
 48 50  1  0  0  0
 38 29  1  0  0  0
 45 44  1  0  0  0
 25 27  1  0  0  0
 25 35  1  0  0  0
 25 28  1  0  0  0
 21 20  1  0  0  0
 21 22  1  0  0  0
 44 42  1  0  0  0
  2  1  1  0  0  0
  2  4  1  0  0  0
  2  5  1  0  0  0
 26 27  2  0  0  0
 42 43  2  0  0  0
 29 31  1  0  0  0
 29 36  1  0  0  0
  3  4  2  0  0  0
 43  1  1  0  0  0
  6  9  2  0  0  0
  6 10  1  0  0  0
  1 20  1  0  0  0
 30 36  2  0  0  0
  7  8  1  0  0  0
  7  9  1  0  0  0
 22 24  1  0  0  0
 22 23  1  0  0  0
 11 12  1  0  0  0
 11 18  1  0  0  0
 24 27  1  0  0  0
  4 10  1  0  0  0
 51 52  1  0  0  0
 52 53  1  0  0  0
 53 54  1  0  0  0
 54 55  1  0  0  0
 55 56  1  0  0  0
 56 57  1  0  0  0
 57 58  1  0  0  0
 58 59  1  0  0  0
 59 60  1  0  0  0
 60 61  1  0  0  0
 61 62  1  0  0  0
 62 63  1  0  0  0
 63 64  1  0  0  0
 64 65  1  0  0  0
 31 32  1  0  0  0
 32 33  1  0  0  0
 33 34  1  0  0  0
 34 35  1  0  0  0
 35 36  1  0  0  0
  8 10  1  0  0  0
  9 17  1  0  0  0
 12 13  2  0  0  0
 12 17  1  0  0  0
 13 14  1  0  0  0
 14 15  2  0  0  0
 15 16  1  0  0  0
 16 17  2  0  0  0
M  END
> <minimizedAffinity>
-9.46486

> <CNNscore>
0.2298699915

> <CNNaffinity>
7.2159347534

> <CNN_VS>
1.6587268114

> <CNNaffinity_variance>
0.5810812712

$$$$
/media/chris/experiments/cd1a-new-docking/inputs/ligands/1xz0_ligand.pdb


 65 67  0  0  0  0  0  0  0  0999 V2000
  -42.3640   59.0029   63.9510 C   0  0  0  0  0  0  0  0  0  0  0  0
  -41.1770   59.2032   64.7847 N   0  0  0  0  0  0  0  0  0  0  0  0
  -40.0542   60.8511   63.6907 O   0  0  0  0  0  0  0  0  0  0  0  0
  -40.1545   60.0602   64.6194 C   0  0  0  0  0  0  0  0  0  0  0  0
  -41.1195   58.6273   65.5811 H   0  0  0  0  0  0  0  0  0  0  0  0
  -38.0689   61.1170   65.4645 N   0  0  0  0  0  0  0  0  0  0  0  0
  -36.6992   59.3552   65.3557 O   0  0  0  0  0  0  0  0  0  0  0  0
  -37.9957   58.7749   65.4919 C   0  0  0  0  0  0  0  0  0  0  0  0
  -36.8556   60.7881   65.3338 C   0  0  0  0  0  0  0  0  0  0  0  0
  -38.9862   59.9683   65.5904 C   0  0  0  0  0  0  0  0  0  0  0  0
  -36.9996   63.6045   66.0001 O   0  0  0  0  0  0  0  0  0  0  0  0
  -35.8325   63.0992   65.5825 C   0  0  0  0  0  0  0  0  0  0  0  0
  -34.7095   63.9322   65.4926 C   0  0  0  0  0  0  0  0  0  0  0  0
  -33.4756   63.4281   65.0482 C   0  0  0  0  0  0  0  0  0  0  0  0
  -33.3481   62.0828   64.6981 C   0  0  0  0  0  0  0  0  0  0  0  0
  -34.4638   61.2463   64.7921 C   0  0  0  0  0  0  0  0  0  0  0  0
  -35.7039   61.7506   65.2289 C   0  0  0  0  0  0  0  0  0  0  0  0
  -37.0619   64.5103   66.2316 H   0  0  0  0  0  0  0  0  0  0  0  0
  -42.4801   56.7912   64.8620 O   0  0  0  0  0  0  0  0  0  0  0  0
  -43.0839   57.7932   64.5157 C   0  0  0  0  0  0  0  0  0  0  0  0
  -44.5486   57.7853   64.5920 O   0  0  0  0  0  0  0  0  0  0  0  0
  -45.2803   58.9315   65.0658 C   0  0  0  0  0  0  0  0  0  0  0  0
  -45.3028   59.0853   66.5816 C   0  0  0  0  0  0  0  0  0  0  0  0
  -46.6909   58.8672   64.4997 C   0  0  0  0  0  0  0  0  0  0  0  0
  -48.5067   60.3948   63.8950 N   0  0  0  0  0  0  0  0  0  0  0  0
  -46.3419   61.0340   63.7516 O   0  0  0  0  0  0  0  0  0  0  0  0
  -47.1833   60.1955   63.9805 C   0  0  0  0  0  0  0  0  0  0  0  0
  -48.8181   61.2860   63.6159 H   0  0  0  0  0  0  0  0  0  0  0  0
  -50.6006   59.0203   62.0027 N   0  0  0  0  0  0  0  0  0  0  0  0
  -49.6221   57.2995   63.0735 O   0  0  0  0  0  0  0  0  0  0  0  0
  -50.7683   60.4561   61.7339 C   0  0  0  0  0  0  0  0  0  0  0  0
  -51.6605   61.1106   62.8054 C   0  0  0  0  0  0  0  0  0  0  0  0
  -52.0197   60.2197   63.9831 C   0  0  0  0  0  0  0  0  0  0  0  0
  -50.8143   59.8732   64.8612 C   0  0  0  0  0  0  0  0  0  0  0  0
  -49.5233   59.3780   64.1882 C   0  0  0  0  0  0  0  0  0  0  0  0
  -49.9124   58.4870   63.0248 C   0  0  0  0  0  0  0  0  0  0  0  0
  -50.8015   56.4094   61.1862 Si  0  0  0  0  0  0  0  0  0  0  0  0
  -51.1882   58.1538   61.1309 O   0  0  0  0  0  0  0  0  0  0  0  0
  -51.5399   55.7288   60.1821 H   0  0  0  0  0  0  0  0  0  0  0  0
  -51.1454   55.8884   62.4616 H   0  0  0  0  0  0  0  0  0  0  0  0
  -49.4120   56.2251   60.9586 H   0  0  0  0  0  0  0  0  0  0  0  0
  -41.5921   57.6348   61.8471 C   0  0  0  0  0  0  0  0  0  0  0  0
  -42.1563   58.9415   62.4182 C   0  0  0  0  0  0  0  0  0  0  0  0
  -40.9809   57.6995   60.4371 C   0  0  0  0  0  0  0  0  0  0  0  0
  -39.4424   57.6768   60.3267 C   0  0  0  0  0  0  0  0  0  0  0  0
  -38.9406   59.0233   60.6178 N   0  0  0  0  0  0  0  0  0  0  0  0
  -37.8735   59.3943   61.3738 C   0  0  0  0  0  0  0  0  0  0  0  0
  -39.6848   60.0492   60.0186 O   0  0  0  0  0  0  0  0  0  0  0  0
  -37.5792   60.5802   61.5217 O   0  0  0  0  0  0  0  0  0  0  0  0
  -39.2986   60.9078   60.2524 H   0  0  0  0  0  0  0  0  0  0  0  0
  -37.0257   58.3080   62.0440 C   0  0  0  0  0  0  0  0  0  0  0  0
  -35.6039   58.7505   62.4160 C   0  0  0  0  0  0  0  0  0  0  0  0
  -34.8668   57.6070   63.1392 C   0  0  0  0  0  0  0  0  0  0  0  0
  -33.3686   57.5233   62.7901 C   0  0  0  0  0  0  0  0  0  0  0  0
  -32.5396   58.7466   63.2241 C   0  0  0  0  0  0  0  0  0  0  0  0
  -31.9480   59.5249   62.0302 C   0  0  0  0  0  0  0  0  0  0  0  0
  -30.5715   60.1738   62.3058 C   0  0  0  0  0  0  0  0  0  0  0  0
  -30.1899   61.2516   61.2846 C   0  0  0  0  0  0  0  0  0  0  0  0
  -31.1009   62.4830   61.2595 C   0  0  0  0  0  0  0  0  0  0  0  0
  -30.7909   63.4342   62.4296 C   0  0  0  0  0  0  0  0  0  0  0  0
  -31.3893   64.8396   62.2649 C   0  0  0  0  0  0  0  0  0  0  0  0
  -32.2211   65.0645   60.9980 C   0  0  0  0  0  0  0  0  0  0  0  0
  -33.6966   65.4524   61.2665 C   0  0  0  0  0  0  0  0  0  0  0  0
  -34.5473   64.2194   61.6331 C   0  0  0  0  0  0  0  0  0  0  0  0
  -36.0042   64.4703   62.0401 C   0  0  0  0  0  0  0  0  0  0  0  0
 46 47  1  0  0  0
 46 48  1  0  0  0
 46 45  1  0  0  0
 47 49  2  0  0  0
 47 51  1  0  0  0
 19 20  2  0  0  0
 37 38  1  0  0  0
 37 39  1  0  0  0
 37 40  1  0  0  0
 37 41  1  0  0  0
 48 50  1  0  0  0
 38 29  1  0  0  0
 45 44  1  0  0  0
 25 27  1  0  0  0
 25 35  1  0  0  0
 25 28  1  0  0  0
 21 20  1  0  0  0
 21 22  1  0  0  0
 44 42  1  0  0  0
  2  1  1  0  0  0
  2  4  1  0  0  0
  2  5  1  0  0  0
 26 27  2  0  0  0
 42 43  2  0  0  0
 29 31  1  0  0  0
 29 36  1  0  0  0
  3  4  2  0  0  0
 43  1  1  0  0  0
  6  9  2  0  0  0
  6 10  1  0  0  0
  1 20  1  0  0  0
 30 36  2  0  0  0
  7  8  1  0  0  0
  7  9  1  0  0  0
 22 24  1  0  0  0
 22 23  1  0  0  0
 11 12  1  0  0  0
 11 18  1  0  0  0
 24 27  1  0  0  0
  4 10  1  0  0  0
 51 52  1  0  0  0
 52 53  1  0  0  0
 53 54  1  0  0  0
 54 55  1  0  0  0
 55 56  1  0  0  0
 56 57  1  0  0  0
 57 58  1  0  0  0
 58 59  1  0  0  0
 59 60  1  0  0  0
 60 61  1  0  0  0
 61 62  1  0  0  0
 62 63  1  0  0  0
 63 64  1  0  0  0
 64 65  1  0  0  0
 31 32  1  0  0  0
 32 33  1  0  0  0
 33 34  1  0  0  0
 34 35  1  0  0  0
 35 36  1  0  0  0
  8 10  1  0  0  0
  9 17  1  0  0  0
 12 13  2  0  0  0
 12 17  1  0  0  0
 13 14  1  0  0  0
 14 15  2  0  0  0
 15 16  1  0  0  0
 16 17  2  0  0  0
M  END
> <minimizedAffinity>
-9.24318

> <CNNscore>
0.1685024500

> <CNNaffinity>
7.1837882996

> <CNN_VS>
1.2104859352

> <CNNaffinity_variance>
1.1618816853

$$$$
/media/chris/experiments/cd1a-new-docking/inputs/ligands/1xz0_ligand.pdb


 65 67  0  0  0  0  0  0  0  0999 V2000
  -40.3274   58.9899   65.2398 C   0  0  0  0  0  0  0  0  0  0  0  0
  -39.4444   60.1347   65.4717 N   0  0  0  0  0  0  0  0  0  0  0  0
  -37.3773   59.1871   65.5161 O   0  0  0  0  0  0  0  0  0  0  0  0
  -38.1056   60.1680   65.5893 C   0  0  0  0  0  0  0  0  0  0  0  0
  -39.8962   61.0056   65.5531 H   0  0  0  0  0  0  0  0  0  0  0  0
  -37.2255   62.3393   64.7579 N   0  0  0  0  0  0  0  0  0  0  0  0
  -35.2379   62.3403   65.7782 O   0  0  0  0  0  0  0  0  0  0  0  0
  -36.0510   61.5135   66.6099 C   0  0  0  0  0  0  0  0  0  0  0  0
  -36.0446   62.7806   64.6677 C   0  0  0  0  0  0  0  0  0  0  0  0
  -37.4565   61.4972   65.9471 C   0  0  0  0  0  0  0  0  0  0  0  0
  -33.6633   64.4192   64.8712 O   0  0  0  0  0  0  0  0  0  0  0  0
  -34.3734   64.4511   63.7369 C   0  0  0  0  0  0  0  0  0  0  0  0
  -33.9450   65.2571   62.6739 C   0  0  0  0  0  0  0  0  0  0  0  0
  -34.6778   65.3151   61.4764 C   0  0  0  0  0  0  0  0  0  0  0  0
  -35.8421   64.5601   61.3247 C   0  0  0  0  0  0  0  0  0  0  0  0
  -36.2702   63.7496   62.3799 C   0  0  0  0  0  0  0  0  0  0  0  0
  -35.5426   63.6961   63.5843 C   0  0  0  0  0  0  0  0  0  0  0  0
  -32.8839   64.9332   64.9506 H   0  0  0  0  0  0  0  0  0  0  0  0
  -41.4087   59.5610   63.1808 O   0  0  0  0  0  0  0  0  0  0  0  0
  -40.5407   58.9114   63.7401 C   0  0  0  0  0  0  0  0  0  0  0  0
  -39.7360   57.9856   62.9360 O   0  0  0  0  0  0  0  0  0  0  0  0
  -39.1990   58.3755   61.6579 C   0  0  0  0  0  0  0  0  0  0  0  0
  -39.6541   57.5095   60.4898 C   0  0  0  0  0  0  0  0  0  0  0  0
  -37.6816   58.4016   61.7634 C   0  0  0  0  0  0  0  0  0  0  0  0
  -35.8849   59.8125   62.6450 N   0  0  0  0  0  0  0  0  0  0  0  0
  -37.8480   60.7056   61.9638 O   0  0  0  0  0  0  0  0  0  0  0  0
  -37.1379   59.7485   62.1716 C   0  0  0  0  0  0  0  0  0  0  0  0
  -35.5176   60.7030   62.8484 H   0  0  0  0  0  0  0  0  0  0  0  0
  -33.5822   59.3897   64.7363 N   0  0  0  0  0  0  0  0  0  0  0  0
  -34.8741   57.5618   64.9715 O   0  0  0  0  0  0  0  0  0  0  0  0
  -33.2575   60.6782   64.1068 C   0  0  0  0  0  0  0  0  0  0  0  0
  -32.5367   60.4619   62.7629 C   0  0  0  0  0  0  0  0  0  0  0  0
  -32.4757   59.0208   62.2840 C   0  0  0  0  0  0  0  0  0  0  0  0
  -33.8482   58.4565   61.9075 C   0  0  0  0  0  0  0  0  0  0  0  0
  -35.0227   58.6489   62.8814 C   0  0  0  0  0  0  0  0  0  0  0  0
  -34.4899   58.5050   64.2935 C   0  0  0  0  0  0  0  0  0  0  0  0
  -32.9898   57.4133   66.5437 Si  0  0  0  0  0  0  0  0  0  0  0  0
  -32.9083   59.0697   65.8763 O   0  0  0  0  0  0  0  0  0  0  0  0
  -32.2068   57.3404   67.7262 H   0  0  0  0  0  0  0  0  0  0  0  0
  -32.4883   56.4921   65.5865 H   0  0  0  0  0  0  0  0  0  0  0  0
  -34.3388   57.0916   66.8488 H   0  0  0  0  0  0  0  0  0  0  0  0
  -42.4085   57.5982   66.0313 C   0  0  0  0  0  0  0  0  0  0  0  0
  -41.6403   58.9253   66.0573 C   0  0  0  0  0  0  0  0  0  0  0  0
  -43.8863   57.6424   66.4553 C   0  0  0  0  0  0  0  0  0  0  0  0
  -44.9457   57.3388   65.3759 C   0  0  0  0  0  0  0  0  0  0  0  0
  -45.2826   58.5936   64.6964 N   0  0  0  0  0  0  0  0  0  0  0  0
  -46.3434   59.4190   64.8995 C   0  0  0  0  0  0  0  0  0  0  0  0
  -44.3639   58.9681   63.7058 O   0  0  0  0  0  0  0  0  0  0  0  0
  -46.4853   60.4481   64.2394 O   0  0  0  0  0  0  0  0  0  0  0  0
  -44.6479   59.8024   63.3004 H   0  0  0  0  0  0  0  0  0  0  0  0
  -47.3712   59.0548   65.9761 C   0  0  0  0  0  0  0  0  0  0  0  0
  -48.8016   58.8683   65.4521 C   0  0  0  0  0  0  0  0  0  0  0  0
  -49.7158   59.9788   66.0044 C   0  0  0  0  0  0  0  0  0  0  0  0
  -51.0806   60.0616   65.2944 C   0  0  0  0  0  0  0  0  0  0  0  0
  -51.1996   61.2004   64.2644 C   0  0  0  0  0  0  0  0  0  0  0  0
  -51.7539   60.7247   62.9051 C   0  0  0  0  0  0  0  0  0  0  0  0
  -51.9919   59.1997   62.8074 C   0  0  0  0  0  0  0  0  0  0  0  0
  -50.8505   58.4475   62.1134 C   0  0  0  0  0  0  0  0  0  0  0  0
  -51.2713   57.2101   61.3143 C   0  0  0  0  0  0  0  0  0  0  0  0
  -50.1414   56.7319   60.3843 C   0  0  0  0  0  0  0  0  0  0  0  0
  -49.5626   57.8374   59.4882 C   0  0  0  0  0  0  0  0  0  0  0  0
  -48.1369   57.6031   58.9787 C   0  0  0  0  0  0  0  0  0  0  0  0
  -47.7542   58.4570   57.7442 C   0  0  0  0  0  0  0  0  0  0  0  0
  -47.3894   57.5713   56.5355 C   0  0  0  0  0  0  0  0  0  0  0  0
  -47.4629   56.0525   56.7334 C   0  0  0  0  0  0  0  0  0  0  0  0
 46 47  1  0  0  0
 46 48  1  0  0  0
 46 45  1  0  0  0
 47 49  2  0  0  0
 47 51  1  0  0  0
 19 20  2  0  0  0
 37 38  1  0  0  0
 37 39  1  0  0  0
 37 40  1  0  0  0
 37 41  1  0  0  0
 48 50  1  0  0  0
 38 29  1  0  0  0
 45 44  1  0  0  0
 25 27  1  0  0  0
 25 35  1  0  0  0
 25 28  1  0  0  0
 21 20  1  0  0  0
 21 22  1  0  0  0
 44 42  1  0  0  0
  2  1  1  0  0  0
  2  4  1  0  0  0
  2  5  1  0  0  0
 26 27  2  0  0  0
 42 43  2  0  0  0
 29 31  1  0  0  0
 29 36  1  0  0  0
  3  4  2  0  0  0
 43  1  1  0  0  0
  6  9  2  0  0  0
  6 10  1  0  0  0
  1 20  1  0  0  0
 30 36  2  0  0  0
  7  8  1  0  0  0
  7  9  1  0  0  0
 22 24  1  0  0  0
 22 23  1  0  0  0
 11 12  1  0  0  0
 11 18  1  0  0  0
 24 27  1  0  0  0
  4 10  1  0  0  0
 51 52  1  0  0  0
 52 53  1  0  0  0
 53 54  1  0  0  0
 54 55  1  0  0  0
 55 56  1  0  0  0
 56 57  1  0  0  0
 57 58  1  0  0  0
 58 59  1  0  0  0
 59 60  1  0  0  0
 60 61  1  0  0  0
 61 62  1  0  0  0
 62 63  1  0  0  0
 63 64  1  0  0  0
 64 65  1  0  0  0
 31 32  1  0  0  0
 32 33  1  0  0  0
 33 34  1  0  0  0
 34 35  1  0  0  0
 35 36  1  0  0  0
  8 10  1  0  0  0
  9 17  1  0  0  0
 12 13  2  0  0  0
 12 17  1  0  0  0
 13 14  1  0  0  0
 14 15  2  0  0  0
 15 16  1  0  0  0
 16 17  2  0  0  0
M  END
> <minimizedAffinity>
-9.64779

> <CNNscore>
0.1676231921

> <CNNaffinity>
7.1687836647

> <CNN_VS>
1.2016544342

> <CNNaffinity_variance>
0.3330449164

$$$$
/media/chris/experiments/cd1a-new-docking/inputs/ligands/1xz0_ligand.pdb


 65 67  0  0  0  0  0  0  0  0999 V2000
  -42.1881   58.8716   64.3513 C   0  0  0  0  0  0  0  0  0  0  0  0
  -40.9068   58.8532   65.0597 N   0  0  0  0  0  0  0  0  0  0  0  0
  -40.0214   60.8903   64.5705 O   0  0  0  0  0  0  0  0  0  0  0  0
  -39.9562   59.8016   65.1259 C   0  0  0  0  0  0  0  0  0  0  0  0
  -40.7135   58.0274   65.5595 H   0  0  0  0  0  0  0  0  0  0  0  0
  -37.8191   60.6517   66.0697 N   0  0  0  0  0  0  0  0  0  0  0  0
  -36.4057   59.1919   65.1408 O   0  0  0  0  0  0  0  0  0  0  0  0
  -37.6453   58.4867   65.1899 C   0  0  0  0  0  0  0  0  0  0  0  0
  -36.6232   60.5081   65.6870 C   0  0  0  0  0  0  0  0  0  0  0  0
  -38.6613   59.4605   65.8490 C   0  0  0  0  0  0  0  0  0  0  0  0
  -37.0896   63.3511   65.9977 O   0  0  0  0  0  0  0  0  0  0  0  0
  -35.8290   62.9008   65.9933 C   0  0  0  0  0  0  0  0  0  0  0  0
  -34.7703   63.8043   66.1543 C   0  0  0  0  0  0  0  0  0  0  0  0
  -33.4380   63.3579   66.1440 C   0  0  0  0  0  0  0  0  0  0  0  0
  -33.1497   62.0016   65.9825 C   0  0  0  0  0  0  0  0  0  0  0  0
  -34.2027   61.0956   65.8279 C   0  0  0  0  0  0  0  0  0  0  0  0
  -35.5385   61.5411   65.8291 C   0  0  0  0  0  0  0  0  0  0  0  0
  -37.2600   64.2657   66.1092 H   0  0  0  0  0  0  0  0  0  0  0  0
  -42.6536   57.0827   65.8740 O   0  0  0  0  0  0  0  0  0  0  0  0
  -43.0945   57.8993   65.0820 C   0  0  0  0  0  0  0  0  0  0  0  0
  -44.5319   57.8818   64.7908 O   0  0  0  0  0  0  0  0  0  0  0  0
  -45.4008   58.9375   65.2429 C   0  0  0  0  0  0  0  0  0  0  0  0
  -45.6944   58.9186   66.7379 C   0  0  0  0  0  0  0  0  0  0  0  0
  -46.6858   58.8815   64.4304 C   0  0  0  0  0  0  0  0  0  0  0  0
  -48.4984   60.4948   64.1020 N   0  0  0  0  0  0  0  0  0  0  0  0
  -46.3443   61.0561   63.7017 O   0  0  0  0  0  0  0  0  0  0  0  0
  -47.1842   60.2431   64.0133 C   0  0  0  0  0  0  0  0  0  0  0  0
  -48.8054   61.4055   63.8884 H   0  0  0  0  0  0  0  0  0  0  0  0
  -50.7038   59.0635   62.3866 N   0  0  0  0  0  0  0  0  0  0  0  0
  -49.6932   57.3810   63.4881 O   0  0  0  0  0  0  0  0  0  0  0  0
  -50.8671   60.4872   62.0578 C   0  0  0  0  0  0  0  0  0  0  0  0
  -51.6949   61.2051   63.1405 C   0  0  0  0  0  0  0  0  0  0  0  0
  -52.0042   60.3766   64.3764 C   0  0  0  0  0  0  0  0  0  0  0  0
  -50.7598   60.0541   65.2079 C   0  0  0  0  0  0  0  0  0  0  0  0
  -49.5113   59.5083   64.4949 C   0  0  0  0  0  0  0  0  0  0  0  0
  -49.9708   58.5691   63.3970 C   0  0  0  0  0  0  0  0  0  0  0  0
  -50.7181   56.5018   61.4061 Si  0  0  0  0  0  0  0  0  0  0  0  0
  -51.3462   58.1655   61.5885 O   0  0  0  0  0  0  0  0  0  0  0  0
  -51.5616   55.7710   60.5280 H   0  0  0  0  0  0  0  0  0  0  0  0
  -50.6902   55.8646   62.6748 H   0  0  0  0  0  0  0  0  0  0  0  0
  -49.4038   56.5480   60.8706 H   0  0  0  0  0  0  0  0  0  0  0  0
  -41.7151   57.2787   62.3183 C   0  0  0  0  0  0  0  0  0  0  0  0
  -42.1582   58.6592   62.8182 C   0  0  0  0  0  0  0  0  0  0  0  0
  -41.2656   57.1826   60.8505 C   0  0  0  0  0  0  0  0  0  0  0  0
  -41.0878   58.5029   60.0729 C   0  0  0  0  0  0  0  0  0  0  0  0
  -39.7081   58.5643   59.5805 N   0  0  0  0  0  0  0  0  0  0  0  0
  -38.6606   59.2881   60.0568 C   0  0  0  0  0  0  0  0  0  0  0  0
  -39.4665   57.7523   58.4635 O   0  0  0  0  0  0  0  0  0  0  0  0
  -37.5517   59.2287   59.5260 O   0  0  0  0  0  0  0  0  0  0  0  0
  -38.5392   57.8420   58.1931 H   0  0  0  0  0  0  0  0  0  0  0  0
  -38.8744   60.1856   61.2801 C   0  0  0  0  0  0  0  0  0  0  0  0
  -37.6213   60.3956   62.1411 C   0  0  0  0  0  0  0  0  0  0  0  0
  -37.5535   61.8558   62.6284 C   0  0  0  0  0  0  0  0  0  0  0  0
  -36.1576   62.4901   62.4781 C   0  0  0  0  0  0  0  0  0  0  0  0
  -36.1342   64.0253   62.5994 C   0  0  0  0  0  0  0  0  0  0  0  0
  -34.7145   64.6159   62.4707 C   0  0  0  0  0  0  0  0  0  0  0  0
  -34.0058   64.2977   61.1335 C   0  0  0  0  0  0  0  0  0  0  0  0
  -32.5039   64.0318   61.2873 C   0  0  0  0  0  0  0  0  0  0  0  0
  -32.0144   63.8500   62.7276 C   0  0  0  0  0  0  0  0  0  0  0  0
  -31.1831   62.5631   62.8794 C   0  0  0  0  0  0  0  0  0  0  0  0
  -31.0530   61.7494   61.5828 C   0  0  0  0  0  0  0  0  0  0  0  0
  -31.4613   60.2757   61.6779 C   0  0  0  0  0  0  0  0  0  0  0  0
  -32.7387   60.0225   62.5168 C   0  0  0  0  0  0  0  0  0  0  0  0
  -33.3979   58.6773   62.1505 C   0  0  0  0  0  0  0  0  0  0  0  0
  -33.9822   57.8482   63.3005 C   0  0  0  0  0  0  0  0  0  0  0  0
 46 47  1  0  0  0
 46 48  1  0  0  0
 46 45  1  0  0  0
 47 49  2  0  0  0
 47 51  1  0  0  0
 19 20  2  0  0  0
 37 38  1  0  0  0
 37 39  1  0  0  0
 37 40  1  0  0  0
 37 41  1  0  0  0
 48 50  1  0  0  0
 38 29  1  0  0  0
 45 44  1  0  0  0
 25 27  1  0  0  0
 25 35  1  0  0  0
 25 28  1  0  0  0
 21 20  1  0  0  0
 21 22  1  0  0  0
 44 42  1  0  0  0
  2  1  1  0  0  0
  2  4  1  0  0  0
  2  5  1  0  0  0
 26 27  2  0  0  0
 42 43  2  0  0  0
 29 31  1  0  0  0
 29 36  1  0  0  0
  3  4  2  0  0  0
 43  1  1  0  0  0
  6  9  2  0  0  0
  6 10  1  0  0  0
  1 20  1  0  0  0
 30 36  2  0  0  0
  7  8  1  0  0  0
  7  9  1  0  0  0
 22 24  1  0  0  0
 22 23  1  0  0  0
 11 12  1  0  0  0
 11 18  1  0  0  0
 24 27  1  0  0  0
  4 10  1  0  0  0
 51 52  1  0  0  0
 52 53  1  0  0  0
 53 54  1  0  0  0
 54 55  1  0  0  0
 55 56  1  0  0  0
 56 57  1  0  0  0
 57 58  1  0  0  0
 58 59  1  0  0  0
 59 60  1  0  0  0
 60 61  1  0  0  0
 61 62  1  0  0  0
 62 63  1  0  0  0
 63 64  1  0  0  0
 64 65  1  0  0  0
 31 32  1  0  0  0
 32 33  1  0  0  0
 33 34  1  0  0  0
 34 35  1  0  0  0
 35 36  1  0  0  0
  8 10  1  0  0  0
  9 17  1  0  0  0
 12 13  2  0  0  0
 12 17  1  0  0  0
 13 14  1  0  0  0
 14 15  2  0  0  0
 15 16  1  0  0  0
 16 17  2  0  0  0
M  END
> <minimizedAffinity>
-8.65706

> <CNNscore>
0.1646478921

> <CNNaffinity>
7.3997740746

> <CNN_VS>
1.2183572054

> <CNNaffinity_variance>
1.1574075222

$$$$
/media/chris/experiments/cd1a-new-docking/inputs/ligands/1xz0_ligand.pdb


 65 67  0  0  0  0  0  0  0  0999 V2000
  -41.2171   57.0871   64.1449 C   0  0  0  0  0  0  0  0  0  0  0  0
  -42.2155   57.3557   65.1818 N   0  0  0  0  0  0  0  0  0  0  0  0
  -43.8410   55.8286   64.7362 O   0  0  0  0  0  0  0  0  0  0  0  0
  -43.3952   56.7512   65.4057 C   0  0  0  0  0  0  0  0  0  0  0  0
  -41.9904   58.0840   65.8049 H   0  0  0  0  0  0  0  0  0  0  0  0
  -45.7218   57.1893   66.1646 N   0  0  0  0  0  0  0  0  0  0  0  0
  -45.5230   59.3443   66.7198 O   0  0  0  0  0  0  0  0  0  0  0  0
  -44.1987   58.8304   66.8565 C   0  0  0  0  0  0  0  0  0  0  0  0
  -46.3726   58.2667   66.2782 C   0  0  0  0  0  0  0  0  0  0  0  0
  -44.2903   57.3214   66.4965 C   0  0  0  0  0  0  0  0  0  0  0  0
  -47.9444   60.5633   67.0858 O   0  0  0  0  0  0  0  0  0  0  0  0
  -48.5534   59.5573   66.4463 C   0  0  0  0  0  0  0  0  0  0  0  0
  -49.9240   59.6421   66.1682 C   0  0  0  0  0  0  0  0  0  0  0  0
  -50.5883   58.5955   65.5066 C   0  0  0  0  0  0  0  0  0  0  0  0
  -49.8874   57.4565   65.1065 C   0  0  0  0  0  0  0  0  0  0  0  0
  -48.5187   57.3699   65.3760 C   0  0  0  0  0  0  0  0  0  0  0  0
  -47.8520   58.4133   66.0466 C   0  0  0  0  0  0  0  0  0  0  0  0
  -48.4343   61.3192   67.3437 H   0  0  0  0  0  0  0  0  0  0  0  0
  -40.0154   58.7902   65.3241 O   0  0  0  0  0  0  0  0  0  0  0  0
  -39.9706   57.8543   64.5428 C   0  0  0  0  0  0  0  0  0  0  0  0
  -38.6806   57.5187   63.9308 O   0  0  0  0  0  0  0  0  0  0  0  0
  -37.4398   57.9796   64.4979 C   0  0  0  0  0  0  0  0  0  0  0  0
  -37.4326   59.4514   64.8923 C   0  0  0  0  0  0  0  0  0  0  0  0
  -36.3196   57.6689   63.5165 C   0  0  0  0  0  0  0  0  0  0  0  0
  -34.9618   59.4990   62.6202 N   0  0  0  0  0  0  0  0  0  0  0  0
  -36.8939   58.8768   61.6224 O   0  0  0  0  0  0  0  0  0  0  0  0
  -36.0843   58.7729   62.5153 C   0  0  0  0  0  0  0  0  0  0  0  0
  -34.7868   60.1739   61.9251 H   0  0  0  0  0  0  0  0  0  0  0  0
  -32.8562   61.5517   63.7190 N   0  0  0  0  0  0  0  0  0  0  0  0
  -33.8985   60.7990   65.5662 O   0  0  0  0  0  0  0  0  0  0  0  0
  -32.6494   61.5763   62.2635 C   0  0  0  0  0  0  0  0  0  0  0  0
  -31.7678   60.3942   61.8182 C   0  0  0  0  0  0  0  0  0  0  0  0
  -31.4567   59.3733   62.9001 C   0  0  0  0  0  0  0  0  0  0  0  0
  -32.6899   58.5880   63.3545 C   0  0  0  0  0  0  0  0  0  0  0  0
  -33.9758   59.3583   63.6978 C   0  0  0  0  0  0  0  0  0  0  0  0
  -33.5801   60.6452   64.3950 C   0  0  0  0  0  0  0  0  0  0  0  0
  -32.4956   62.6273   66.2164 Si  0  0  0  0  0  0  0  0  0  0  0  0
  -32.2683   62.5432   64.4452 O   0  0  0  0  0  0  0  0  0  0  0  0
  -31.7850   63.7433   66.7323 H   0  0  0  0  0  0  0  0  0  0  0  0
  -32.0045   61.4363   66.8137 H   0  0  0  0  0  0  0  0  0  0  0  0
  -33.8776   62.7691   66.5101 H   0  0  0  0  0  0  0  0  0  0  0  0
  -40.5458   57.7640   61.6985 C   0  0  0  0  0  0  0  0  0  0  0  0
  -41.6402   57.3115   62.6729 C   0  0  0  0  0  0  0  0  0  0  0  0
  -41.0112   58.3997   60.3775 C   0  0  0  0  0  0  0  0  0  0  0  0
  -41.2441   59.9246   60.3649 C   0  0  0  0  0  0  0  0  0  0  0  0
  -40.8810   60.4561   61.6822 N   0  0  0  0  0  0  0  0  0  0  0  0
  -41.6913   60.8238   62.7100 C   0  0  0  0  0  0  0  0  0  0  0  0
  -39.4997   60.5916   61.8796 O   0  0  0  0  0  0  0  0  0  0  0  0
  -41.2263   61.2559   63.7644 O   0  0  0  0  0  0  0  0  0  0  0  0
  -39.3331   60.9464   62.7669 H   0  0  0  0  0  0  0  0  0  0  0  0
  -43.2084   60.6879   62.5436 C   0  0  0  0  0  0  0  0  0  0  0  0
  -43.9209   60.0237   63.7297 C   0  0  0  0  0  0  0  0  0  0  0  0
  -45.4121   59.8163   63.4017 C   0  0  0  0  0  0  0  0  0  0  0  0
  -46.2732   61.0726   63.6333 C   0  0  0  0  0  0  0  0  0  0  0  0
  -47.7899   60.8459   63.4901 C   0  0  0  0  0  0  0  0  0  0  0  0
  -48.1336   59.6029   62.6429 C   0  0  0  0  0  0  0  0  0  0  0  0
  -49.2400   59.8320   61.5869 C   0  0  0  0  0  0  0  0  0  0  0  0
  -50.6184   59.3269   62.0284 C   0  0  0  0  0  0  0  0  0  0  0  0
  -51.0798   58.0220   61.3716 C   0  0  0  0  0  0  0  0  0  0  0  0
  -49.9663   56.9590   61.3927 C   0  0  0  0  0  0  0  0  0  0  0  0
  -49.5809   56.4333   60.0015 C   0  0  0  0  0  0  0  0  0  0  0  0
  -48.0893   56.1599   59.7829 C   0  0  0  0  0  0  0  0  0  0  0  0
  -47.6061   56.3939   58.3298 C   0  0  0  0  0  0  0  0  0  0  0  0
  -48.0734   57.7617   57.7922 C   0  0  0  0  0  0  0  0  0  0  0  0
  -47.1778   58.4489   56.7545 C   0  0  0  0  0  0  0  0  0  0  0  0
 46 47  1  0  0  0
 46 48  1  0  0  0
 46 45  1  0  0  0
 47 49  2  0  0  0
 47 51  1  0  0  0
 19 20  2  0  0  0
 37 38  1  0  0  0
 37 39  1  0  0  0
 37 40  1  0  0  0
 37 41  1  0  0  0
 48 50  1  0  0  0
 38 29  1  0  0  0
 45 44  1  0  0  0
 25 27  1  0  0  0
 25 35  1  0  0  0
 25 28  1  0  0  0
 21 20  1  0  0  0
 21 22  1  0  0  0
 44 42  1  0  0  0
  2  1  1  0  0  0
  2  4  1  0  0  0
  2  5  1  0  0  0
 26 27  2  0  0  0
 42 43  2  0  0  0
 29 31  1  0  0  0
 29 36  1  0  0  0
  3  4  2  0  0  0
 43  1  1  0  0  0
  6  9  2  0  0  0
  6 10  1  0  0  0
  1 20  1  0  0  0
 30 36  2  0  0  0
  7  8  1  0  0  0
  7  9  1  0  0  0
 22 24  1  0  0  0
 22 23  1  0  0  0
 11 12  1  0  0  0
 11 18  1  0  0  0
 24 27  1  0  0  0
  4 10  1  0  0  0
 51 52  1  0  0  0
 52 53  1  0  0  0
 53 54  1  0  0  0
 54 55  1  0  0  0
 55 56  1  0  0  0
 56 57  1  0  0  0
 57 58  1  0  0  0
 58 59  1  0  0  0
 59 60  1  0  0  0
 60 61  1  0  0  0
 61 62  1  0  0  0
 62 63  1  0  0  0
 63 64  1  0  0  0
 64 65  1  0  0  0
 31 32  1  0  0  0
 32 33  1  0  0  0
 33 34  1  0  0  0
 34 35  1  0  0  0
 35 36  1  0  0  0
  8 10  1  0  0  0
  9 17  1  0  0  0
 12 13  2  0  0  0
 12 17  1  0  0  0
 13 14  1  0  0  0
 14 15  2  0  0  0
 15 16  1  0  0  0
 16 17  2  0  0  0
M  END
> <minimizedAffinity>
-9.28080

> <CNNscore>
0.1414552927

> <CNNaffinity>
7.4315004349

> <CNN_VS>
1.0512250662

> <CNNaffinity_variance>
1.4319053888

$$$$
/media/chris/experiments/cd1a-new-docking/inputs/ligands/1xz0_ligand.pdb


 65 67  0  0  0  0  0  0  0  0999 V2000
  -37.2188   58.3940   64.5596 C   0  0  0  0  0  0  0  0  0  0  0  0
  -36.7274   59.6702   65.0830 N   0  0  0  0  0  0  0  0  0  0  0  0
  -38.6417   60.7777   65.6141 O   0  0  0  0  0  0  0  0  0  0  0  0
  -37.4206   60.7228   65.5508 C   0  0  0  0  0  0  0  0  0  0  0  0
  -35.7482   59.7721   65.0939 H   0  0  0  0  0  0  0  0  0  0  0  0
  -36.6171   62.9619   64.8287 N   0  0  0  0  0  0  0  0  0  0  0  0
  -34.4650   62.7770   65.3997 O   0  0  0  0  0  0  0  0  0  0  0  0
  -35.1322   61.8685   66.2747 C   0  0  0  0  0  0  0  0  0  0  0  0
  -35.4584   63.3810   64.5473 C   0  0  0  0  0  0  0  0  0  0  0  0
  -36.6428   61.9760   65.9259 C   0  0  0  0  0  0  0  0  0  0  0  0
  -33.2714   65.2741   64.7209 O   0  0  0  0  0  0  0  0  0  0  0  0
  -34.0591   65.2957   63.6387 C   0  0  0  0  0  0  0  0  0  0  0  0
  -33.8018   66.2148   62.6130 C   0  0  0  0  0  0  0  0  0  0  0  0
  -34.6195   66.2637   61.4713 C   0  0  0  0  0  0  0  0  0  0  0  0
  -35.6977   65.3872   61.3378 C   0  0  0  0  0  0  0  0  0  0  0  0
  -35.9546   64.4642   62.3555 C   0  0  0  0  0  0  0  0  0  0  0  0
  -35.1422   64.4187   63.5047 C   0  0  0  0  0  0  0  0  0  0  0  0
  -32.5521   65.8707   64.7887 H   0  0  0  0  0  0  0  0  0  0  0  0
  -35.5247   56.8805   65.3176 O   0  0  0  0  0  0  0  0  0  0  0  0
  -36.0013   57.5063   64.3851 C   0  0  0  0  0  0  0  0  0  0  0  0
  -35.3272   57.4396   63.0842 O   0  0  0  0  0  0  0  0  0  0  0  0
  -34.0073   57.9837   62.8955 C   0  0  0  0  0  0  0  0  0  0  0  0
  -32.8732   57.0238   63.2336 C   0  0  0  0  0  0  0  0  0  0  0  0
  -33.8983   59.2682   63.7033 C   0  0  0  0  0  0  0  0  0  0  0  0
  -33.3843   61.4384   62.6922 N   0  0  0  0  0  0  0  0  0  0  0  0
  -35.4354   60.5074   62.4874 O   0  0  0  0  0  0  0  0  0  0  0  0
  -34.3080   60.4948   62.9260 C   0  0  0  0  0  0  0  0  0  0  0  0
  -33.6442   62.2039   62.1303 H   0  0  0  0  0  0  0  0  0  0  0  0
  -31.1073   63.5925   62.5205 N   0  0  0  0  0  0  0  0  0  0  0  0
  -31.1703   63.0392   64.7011 O   0  0  0  0  0  0  0  0  0  0  0  0
  -31.5793   63.4640   61.1339 C   0  0  0  0  0  0  0  0  0  0  0  0
  -30.9387   62.2407   60.4513 C   0  0  0  0  0  0  0  0  0  0  0  0
  -30.1268   61.3385   61.3660 C   0  0  0  0  0  0  0  0  0  0  0  0
  -30.9855   60.6067   62.4010 C   0  0  0  0  0  0  0  0  0  0  0  0
  -32.0134   61.4105   63.2149 C   0  0  0  0  0  0  0  0  0  0  0  0
  -31.4064   62.7629   63.5328 C   0  0  0  0  0  0  0  0  0  0  0  0
  -30.6150   65.6705   64.2419 Si  0  0  0  0  0  0  0  0  0  0  0  0
  -30.3022   64.6541   62.8050 O   0  0  0  0  0  0  0  0  0  0  0  0
  -29.6415   66.7020   64.3131 H   0  0  0  0  0  0  0  0  0  0  0  0
  -30.5429   64.8702   65.4127 H   0  0  0  0  0  0  0  0  0  0  0  0
  -31.9088   66.2469   64.1415 H   0  0  0  0  0  0  0  0  0  0  0  0
  -38.8261   57.1311   62.9118 C   0  0  0  0  0  0  0  0  0  0  0  0
  -38.1363   58.4404   63.3137 C   0  0  0  0  0  0  0  0  0  0  0  0
  -39.3696   57.0445   61.4755 C   0  0  0  0  0  0  0  0  0  0  0  0
  -40.9007   57.0793   61.2908 C   0  0  0  0  0  0  0  0  0  0  0  0
  -41.3719   58.4305   61.6098 N   0  0  0  0  0  0  0  0  0  0  0  0
  -42.2623   58.8249   62.5582 C   0  0  0  0  0  0  0  0  0  0  0  0
  -40.8070   59.4333   60.8094 O   0  0  0  0  0  0  0  0  0  0  0  0
  -42.5553   60.0116   62.7025 O   0  0  0  0  0  0  0  0  0  0  0  0
  -41.1617   60.2965   61.0742 H   0  0  0  0  0  0  0  0  0  0  0  0
  -42.9017   57.7654   63.4618 C   0  0  0  0  0  0  0  0  0  0  0  0
  -42.1679   57.5361   64.7901 C   0  0  0  0  0  0  0  0  0  0  0  0
  -42.9743   58.1478   65.9519 C   0  0  0  0  0  0  0  0  0  0  0  0
  -44.4850   57.8567   65.8721 C   0  0  0  0  0  0  0  0  0  0  0  0
  -45.3861   59.0961   66.0265 C   0  0  0  0  0  0  0  0  0  0  0  0
  -46.6884   58.7989   66.7990 C   0  0  0  0  0  0  0  0  0  0  0  0
  -47.7686   59.8996   66.6833 C   0  0  0  0  0  0  0  0  0  0  0  0
  -48.8797   59.5609   65.6829 C   0  0  0  0  0  0  0  0  0  0  0  0
  -48.5381   58.4630   64.6704 C   0  0  0  0  0  0  0  0  0  0  0  0
  -47.9482   59.0558   63.3778 C   0  0  0  0  0  0  0  0  0  0  0  0
  -48.5269   60.4283   63.0015 C   0  0  0  0  0  0  0  0  0  0  0  0
  -49.7927   60.4031   62.1387 C   0  0  0  0  0  0  0  0  0  0  0  0
  -51.1122   60.5202   62.9417 C   0  0  0  0  0  0  0  0  0  0  0  0
  -52.0078   59.2809   62.7410 C   0  0  0  0  0  0  0  0  0  0  0  0
  -51.3338   58.0083   62.2142 C   0  0  0  0  0  0  0  0  0  0  0  0
 46 47  1  0  0  0
 46 48  1  0  0  0
 46 45  1  0  0  0
 47 49  2  0  0  0
 47 51  1  0  0  0
 19 20  2  0  0  0
 37 38  1  0  0  0
 37 39  1  0  0  0
 37 40  1  0  0  0
 37 41  1  0  0  0
 48 50  1  0  0  0
 38 29  1  0  0  0
 45 44  1  0  0  0
 25 27  1  0  0  0
 25 35  1  0  0  0
 25 28  1  0  0  0
 21 20  1  0  0  0
 21 22  1  0  0  0
 44 42  1  0  0  0
  2  1  1  0  0  0
  2  4  1  0  0  0
  2  5  1  0  0  0
 26 27  2  0  0  0
 42 43  2  0  0  0
 29 31  1  0  0  0
 29 36  1  0  0  0
  3  4  2  0  0  0
 43  1  1  0  0  0
  6  9  2  0  0  0
  6 10  1  0  0  0
  1 20  1  0  0  0
 30 36  2  0  0  0
  7  8  1  0  0  0
  7  9  1  0  0  0
 22 24  1  0  0  0
 22 23  1  0  0  0
 11 12  1  0  0  0
 11 18  1  0  0  0
 24 27  1  0  0  0
  4 10  1  0  0  0
 51 52  1  0  0  0
 52 53  1  0  0  0
 53 54  1  0  0  0
 54 55  1  0  0  0
 55 56  1  0  0  0
 56 57  1  0  0  0
 57 58  1  0  0  0
 58 59  1  0  0  0
 59 60  1  0  0  0
 60 61  1  0  0  0
 61 62  1  0  0  0
 62 63  1  0  0  0
 63 64  1  0  0  0
 64 65  1  0  0  0
 31 32  1  0  0  0
 32 33  1  0  0  0
 33 34  1  0  0  0
 34 35  1  0  0  0
 35 36  1  0  0  0
  8 10  1  0  0  0
  9 17  1  0  0  0
 12 13  2  0  0  0
 12 17  1  0  0  0
 13 14  1  0  0  0
 14 15  2  0  0  0
 15 16  1  0  0  0
 16 17  2  0  0  0
M  END
> <minimizedAffinity>
-8.75414

> <CNNscore>
0.1380946040

> <CNNaffinity>
6.9165735245

> <CNN_VS>
0.9551414847

> <CNNaffinity_variance>
0.9957065582

$$$$
/media/chris/experiments/cd1a-new-docking/inputs/ligands/1xz0_ligand.pdb


 65 67  0  0  0  0  0  0  0  0999 V2000
  -37.4127   60.5735   65.3600 C   0  0  0  0  0  0  0  0  0  0  0  0
  -36.7143   61.7824   64.9188 N   0  0  0  0  0  0  0  0  0  0  0  0
  -37.1972   61.8717   62.6980 O   0  0  0  0  0  0  0  0  0  0  0  0
  -36.6493   62.3291   63.6923 C   0  0  0  0  0  0  0  0  0  0  0  0
  -36.2213   62.2644   65.6215 H   0  0  0  0  0  0  0  0  0  0  0  0
  -34.7101   63.2986   62.4757 N   0  0  0  0  0  0  0  0  0  0  0  0
  -33.5383   64.0688   64.2150 O   0  0  0  0  0  0  0  0  0  0  0  0
  -34.8846   64.0520   64.6878 C   0  0  0  0  0  0  0  0  0  0  0  0
  -33.5385   63.5758   62.8604 C   0  0  0  0  0  0  0  0  0  0  0  0
  -35.7446   63.5377   63.5000 C   0  0  0  0  0  0  0  0  0  0  0  0
  -31.6460   61.3846   62.9784 O   0  0  0  0  0  0  0  0  0  0  0  0
  -31.4322   62.3753   62.1039 C   0  0  0  0  0  0  0  0  0  0  0  0
  -30.3157   62.3246   61.2590 C   0  0  0  0  0  0  0  0  0  0  0  0
  -30.0642   63.3566   60.3391 C   0  0  0  0  0  0  0  0  0  0  0  0
  -30.9319   64.4462   60.2468 C   0  0  0  0  0  0  0  0  0  0  0  0
  -32.0506   64.4982   61.0831 C   0  0  0  0  0  0  0  0  0  0  0  0
  -32.3005   63.4699   62.0119 C   0  0  0  0  0  0  0  0  0  0  0  0
  -31.0512   60.6619   63.0221 H   0  0  0  0  0  0  0  0  0  0  0  0
  -36.5724   58.3525   65.6708 O   0  0  0  0  0  0  0  0  0  0  0  0
  -36.4798   59.4123   65.0735 C   0  0  0  0  0  0  0  0  0  0  0  0
  -35.3906   59.5731   64.1045 O   0  0  0  0  0  0  0  0  0  0  0  0
  -35.2119   58.6458   63.0173 C   0  0  0  0  0  0  0  0  0  0  0  0
  -33.9596   58.8835   62.1825 C   0  0  0  0  0  0  0  0  0  0  0  0
  -36.4625   58.6756   62.1515 C   0  0  0  0  0  0  0  0  0  0  0  0
  -38.5568   57.4728   61.7474 N   0  0  0  0  0  0  0  0  0  0  0  0
  -36.9890   56.6537   63.1569 O   0  0  0  0  0  0  0  0  0  0  0  0
  -37.3943   57.5185   62.4144 C   0  0  0  0  0  0  0  0  0  0  0  0
  -39.1285   56.6820   61.8780 H   0  0  0  0  0  0  0  0  0  0  0  0
  -41.2806   59.0329   61.7107 N   0  0  0  0  0  0  0  0  0  0  0  0
  -39.7235   60.6523   61.5758 O   0  0  0  0  0  0  0  0  0  0  0  0
  -41.6815   57.6213   61.8037 C   0  0  0  0  0  0  0  0  0  0  0  0
  -41.6557   56.9547   60.4153 C   0  0  0  0  0  0  0  0  0  0  0  0
  -41.0636   57.8009   59.3003 C   0  0  0  0  0  0  0  0  0  0  0  0
  -39.5623   58.0486   59.4696 C   0  0  0  0  0  0  0  0  0  0  0  0
  -39.0366   58.5183   60.8363 C   0  0  0  0  0  0  0  0  0  0  0  0
  -40.0490   59.4829   61.4223 C   0  0  0  0  0  0  0  0  0  0  0  0
  -41.8941   61.3892   62.9736 Si  0  0  0  0  0  0  0  0  0  0  0  0
  -42.2432   59.9673   61.9479 O   0  0  0  0  0  0  0  0  0  0  0  0
  -43.0535   62.2043   63.0633 H   0  0  0  0  0  0  0  0  0  0  0  0
  -40.8326   62.1377   62.3998 H   0  0  0  0  0  0  0  0  0  0  0  0
  -41.5190   60.9553   64.2726 H   0  0  0  0  0  0  0  0  0  0  0  0
  -39.9160   59.9774   65.8817 C   0  0  0  0  0  0  0  0  0  0  0  0
  -38.8543   60.3536   64.8409 C   0  0  0  0  0  0  0  0  0  0  0  0
  -41.2130   59.3419   65.3529 C   0  0  0  0  0  0  0  0  0  0  0  0
  -42.4163   59.2744   66.3157 C   0  0  0  0  0  0  0  0  0  0  0  0
  -43.2110   58.0900   65.9762 N   0  0  0  0  0  0  0  0  0  0  0  0
  -44.5617   57.9601   65.8940 C   0  0  0  0  0  0  0  0  0  0  0  0
  -42.4431   56.9494   65.7026 O   0  0  0  0  0  0  0  0  0  0  0  0
  -45.0810   56.8858   65.5924 O   0  0  0  0  0  0  0  0  0  0  0  0
  -43.0305   56.2082   65.4870 H   0  0  0  0  0  0  0  0  0  0  0  0
  -45.4429   59.1809   66.1782 C   0  0  0  0  0  0  0  0  0  0  0  0
  -46.6355   58.9025   67.1034 C   0  0  0  0  0  0  0  0  0  0  0  0
  -47.9513   58.9708   66.3045 C   0  0  0  0  0  0  0  0  0  0  0  0
  -48.5951   60.3704   66.2984 C   0  0  0  0  0  0  0  0  0  0  0  0
  -49.4717   60.6678   65.0675 C   0  0  0  0  0  0  0  0  0  0  0  0
  -50.7730   59.8389   65.0430 C   0  0  0  0  0  0  0  0  0  0  0  0
  -51.8352   60.3416   64.0376 C   0  0  0  0  0  0  0  0  0  0  0  0
  -51.8072   59.5972   62.6978 C   0  0  0  0  0  0  0  0  0  0  0  0
  -51.0137   58.2867   62.6922 C   0  0  0  0  0  0  0  0  0  0  0  0
  -51.4261   57.3861   61.5136 C   0  0  0  0  0  0  0  0  0  0  0  0
  -50.2439   56.8826   60.6714 C   0  0  0  0  0  0  0  0  0  0  0  0
  -49.1896   57.9335   60.3088 C   0  0  0  0  0  0  0  0  0  0  0  0
  -48.0947   57.4271   59.3371 C   0  0  0  0  0  0  0  0  0  0  0  0
  -48.4171   57.8036   57.8767 C   0  0  0  0  0  0  0  0  0  0  0  0
  -47.2522   58.2891   57.0057 C   0  0  0  0  0  0  0  0  0  0  0  0
 46 47  1  0  0  0
 46 48  1  0  0  0
 46 45  1  0  0  0
 47 49  2  0  0  0
 47 51  1  0  0  0
 19 20  2  0  0  0
 37 38  1  0  0  0
 37 39  1  0  0  0
 37 40  1  0  0  0
 37 41  1  0  0  0
 48 50  1  0  0  0
 38 29  1  0  0  0
 45 44  1  0  0  0
 25 27  1  0  0  0
 25 35  1  0  0  0
 25 28  1  0  0  0
 21 20  1  0  0  0
 21 22  1  0  0  0
 44 42  1  0  0  0
  2  1  1  0  0  0
  2  4  1  0  0  0
  2  5  1  0  0  0
 26 27  2  0  0  0
 42 43  2  0  0  0
 29 31  1  0  0  0
 29 36  1  0  0  0
  3  4  2  0  0  0
 43  1  1  0  0  0
  6  9  2  0  0  0
  6 10  1  0  0  0
  1 20  1  0  0  0
 30 36  2  0  0  0
  7  8  1  0  0  0
  7  9  1  0  0  0
 22 24  1  0  0  0
 22 23  1  0  0  0
 11 12  1  0  0  0
 11 18  1  0  0  0
 24 27  1  0  0  0
  4 10  1  0  0  0
 51 52  1  0  0  0
 52 53  1  0  0  0
 53 54  1  0  0  0
 54 55  1  0  0  0
 55 56  1  0  0  0
 56 57  1  0  0  0
 57 58  1  0  0  0
 58 59  1  0  0  0
 59 60  1  0  0  0
 60 61  1  0  0  0
 61 62  1  0  0  0
 62 63  1  0  0  0
 63 64  1  0  0  0
 64 65  1  0  0  0
 31 32  1  0  0  0
 32 33  1  0  0  0
 33 34  1  0  0  0
 34 35  1  0  0  0
 35 36  1  0  0  0
  8 10  1  0  0  0
  9 17  1  0  0  0
 12 13  2  0  0  0
 12 17  1  0  0  0
 13 14  1  0  0  0
 14 15  2  0  0  0
 15 16  1  0  0  0
 16 17  2  0  0  0
M  END
> <minimizedAffinity>
-9.86275

> <CNNscore>
0.1263999492

> <CNNaffinity>
7.1948494911

> <CNN_VS>
0.9094285965

> <CNNaffinity_variance>
0.6697582006

$$$$
/media/chris/experiments/cd1a-new-docking/inputs/ligands/1xz0_ligand.pdb


 65 67  0  0  0  0  0  0  0  0999 V2000
  -37.0812   61.2538   64.6600 C   0  0  0  0  0  0  0  0  0  0  0  0
  -36.6425   62.0776   63.5317 N   0  0  0  0  0  0  0  0  0  0  0  0
  -36.2744   64.1067   64.4912 O   0  0  0  0  0  0  0  0  0  0  0  0
  -36.2865   63.3739   63.5110 C   0  0  0  0  0  0  0  0  0  0  0  0
  -36.6023   61.6157   62.6633 H   0  0  0  0  0  0  0  0  0  0  0  0
  -34.6107   63.7096   61.7056 N   0  0  0  0  0  0  0  0  0  0  0  0
  -34.7540   65.9283   61.4850 O   0  0  0  0  0  0  0  0  0  0  0  0
  -36.0279   65.5515   62.0061 C   0  0  0  0  0  0  0  0  0  0  0  0
  -33.9585   64.7333   61.3533 C   0  0  0  0  0  0  0  0  0  0  0  0
  -35.9826   64.0058   62.1602 C   0  0  0  0  0  0  0  0  0  0  0  0
  -32.1449   62.4800   61.5271 O   0  0  0  0  0  0  0  0  0  0  0  0
  -31.7330   63.5935   60.9089 C   0  0  0  0  0  0  0  0  0  0  0  0
  -30.4496   63.6404   60.3486 C   0  0  0  0  0  0  0  0  0  0  0  0
  -29.9904   64.8006   59.7026 C   0  0  0  0  0  0  0  0  0  0  0  0
  -30.8130   65.9239   59.6009 C   0  0  0  0  0  0  0  0  0  0  0  0
  -32.0964   65.8799   60.1527 C   0  0  0  0  0  0  0  0  0  0  0  0
  -32.5562   64.7216   60.8082 C   0  0  0  0  0  0  0  0  0  0  0  0
  -31.5765   61.7372   61.5823 H   0  0  0  0  0  0  0  0  0  0  0  0
  -34.9824   60.9083   65.7604 O   0  0  0  0  0  0  0  0  0  0  0  0
  -35.8782   60.4322   65.0826 C   0  0  0  0  0  0  0  0  0  0  0  0
  -35.7397   59.0482   64.6174 O   0  0  0  0  0  0  0  0  0  0  0  0
  -35.1438   58.7423   63.3426 C   0  0  0  0  0  0  0  0  0  0  0  0
  -34.0662   59.7228   62.8966 C   0  0  0  0  0  0  0  0  0  0  0  0
  -36.2537   58.6382   62.3073 C   0  0  0  0  0  0  0  0  0  0  0  0
  -38.4318   57.5799   61.9446 N   0  0  0  0  0  0  0  0  0  0  0  0
  -36.9961   56.7988   63.5081 O   0  0  0  0  0  0  0  0  0  0  0  0
  -37.2948   57.6031   62.6553 C   0  0  0  0  0  0  0  0  0  0  0  0
  -39.0769   56.8613   62.1368 H   0  0  0  0  0  0  0  0  0  0  0  0
  -41.1120   59.1357   61.4437 N   0  0  0  0  0  0  0  0  0  0  0  0
  -39.5319   60.7371   61.3773 O   0  0  0  0  0  0  0  0  0  0  0  0
  -41.5373   57.7366   61.5971 C   0  0  0  0  0  0  0  0  0  0  0  0
  -41.3460   56.9612   60.2799 C   0  0  0  0  0  0  0  0  0  0  0  0
  -40.6098   57.7148   59.1845 C   0  0  0  0  0  0  0  0  0  0  0  0
  -39.1386   57.9732   59.5205 C   0  0  0  0  0  0  0  0  0  0  0  0
  -38.7824   58.5499   60.9008 C   0  0  0  0  0  0  0  0  0  0  0  0
  -39.8489   59.5596   61.2772 C   0  0  0  0  0  0  0  0  0  0  0  0
  -41.9472   61.4815   62.5941 Si  0  0  0  0  0  0  0  0  0  0  0  0
  -42.0860   60.0874   61.4837 O   0  0  0  0  0  0  0  0  0  0  0  0
  -43.0825   62.3211   62.4440 H   0  0  0  0  0  0  0  0  0  0  0  0
  -40.7714   62.2160   62.2870 H   0  0  0  0  0  0  0  0  0  0  0  0
  -41.8774   61.0148   63.9334 H   0  0  0  0  0  0  0  0  0  0  0  0
  -39.2845   60.2689   65.6943 C   0  0  0  0  0  0  0  0  0  0  0  0
  -38.3694   60.4162   64.4724 C   0  0  0  0  0  0  0  0  0  0  0  0
  -40.3052   59.1187   65.6634 C   0  0  0  0  0  0  0  0  0  0  0  0
  -41.6718   59.3976   65.0045 C   0  0  0  0  0  0  0  0  0  0  0  0
  -42.4613   58.1628   65.0428 N   0  0  0  0  0  0  0  0  0  0  0  0
  -43.8095   58.0111   65.1275 C   0  0  0  0  0  0  0  0  0  0  0  0
  -41.6908   56.9932   64.9811 O   0  0  0  0  0  0  0  0  0  0  0  0
  -44.3246   56.8935   65.1487 O   0  0  0  0  0  0  0  0  0  0  0  0
  -42.2749   56.2193   65.0109 H   0  0  0  0  0  0  0  0  0  0  0  0
  -44.6941   59.2607   65.1911 C   0  0  0  0  0  0  0  0  0  0  0  0
  -45.9094   59.1326   66.1197 C   0  0  0  0  0  0  0  0  0  0  0  0
  -47.1920   58.9395   65.2879 C   0  0  0  0  0  0  0  0  0  0  0  0
  -47.5219   60.1389   64.3790 C   0  0  0  0  0  0  0  0  0  0  0  0
  -48.8246   60.8774   64.7391 C   0  0  0  0  0  0  0  0  0  0  0  0
  -49.6269   60.1711   65.8520 C   0  0  0  0  0  0  0  0  0  0  0  0
  -51.0779   59.8041   65.4628 C   0  0  0  0  0  0  0  0  0  0  0  0
  -51.5701   60.5198   64.1997 C   0  0  0  0  0  0  0  0  0  0  0  0
  -52.0446   59.6018   63.0687 C   0  0  0  0  0  0  0  0  0  0  0  0
  -50.9580   58.5828   62.6799 C   0  0  0  0  0  0  0  0  0  0  0  0
  -51.3962   57.5895   61.5930 C   0  0  0  0  0  0  0  0  0  0  0  0
  -50.5462   57.5798   60.3183 C   0  0  0  0  0  0  0  0  0  0  0  0
  -49.3312   56.6203   60.3713 C   0  0  0  0  0  0  0  0  0  0  0  0
  -48.1585   57.1460   59.5188 C   0  0  0  0  0  0  0  0  0  0  0  0
  -47.3959   56.1216   58.6702 C   0  0  0  0  0  0  0  0  0  0  0  0
 46 47  1  0  0  0
 46 48  1  0  0  0
 46 45  1  0  0  0
 47 49  2  0  0  0
 47 51  1  0  0  0
 19 20  2  0  0  0
 37 38  1  0  0  0
 37 39  1  0  0  0
 37 40  1  0  0  0
 37 41  1  0  0  0
 48 50  1  0  0  0
 38 29  1  0  0  0
 45 44  1  0  0  0
 25 27  1  0  0  0
 25 35  1  0  0  0
 25 28  1  0  0  0
 21 20  1  0  0  0
 21 22  1  0  0  0
 44 42  1  0  0  0
  2  1  1  0  0  0
  2  4  1  0  0  0
  2  5  1  0  0  0
 26 27  2  0  0  0
 42 43  2  0  0  0
 29 31  1  0  0  0
 29 36  1  0  0  0
  3  4  2  0  0  0
 43  1  1  0  0  0
  6  9  2  0  0  0
  6 10  1  0  0  0
  1 20  1  0  0  0
 30 36  2  0  0  0
  7  8  1  0  0  0
  7  9  1  0  0  0
 22 24  1  0  0  0
 22 23  1  0  0  0
 11 12  1  0  0  0
 11 18  1  0  0  0
 24 27  1  0  0  0
  4 10  1  0  0  0
 51 52  1  0  0  0
 52 53  1  0  0  0
 53 54  1  0  0  0
 54 55  1  0  0  0
 55 56  1  0  0  0
 56 57  1  0  0  0
 57 58  1  0  0  0
 58 59  1  0  0  0
 59 60  1  0  0  0
 60 61  1  0  0  0
 61 62  1  0  0  0
 62 63  1  0  0  0
 63 64  1  0  0  0
 64 65  1  0  0  0
 31 32  1  0  0  0
 32 33  1  0  0  0
 33 34  1  0  0  0
 34 35  1  0  0  0
 35 36  1  0  0  0
  8 10  1  0  0  0
  9 17  1  0  0  0
 12 13  2  0  0  0
 12 17  1  0  0  0
 13 14  1  0  0  0
 14 15  2  0  0  0
 15 16  1  0  0  0
 16 17  2  0  0  0
M  END
> <minimizedAffinity>
-9.56565

> <CNNscore>
0.1212342680

> <CNNaffinity>
7.0616631508

> <CNN_VS>
0.8561155796

> <CNNaffinity_variance>
0.7343465090

$$$$
/media/chris/experiments/cd1a-new-docking/inputs/ligands/1xz0_ligand.pdb


 65 67  0  0  0  0  0  0  0  0999 V2000
  -41.9559   58.3022   64.7312 C   0  0  0  0  0  0  0  0  0  0  0  0
  -43.3365   58.0502   65.1491 N   0  0  0  0  0  0  0  0  0  0  0  0
  -44.5219   59.5758   63.9490 O   0  0  0  0  0  0  0  0  0  0  0  0
  -44.4692   58.6610   64.7603 C   0  0  0  0  0  0  0  0  0  0  0  0
  -43.4518   57.3297   65.8099 H   0  0  0  0  0  0  0  0  0  0  0  0
  -46.9534   58.6396   64.6659 N   0  0  0  0  0  0  0  0  0  0  0  0
  -47.4010   59.4724   66.6903 O   0  0  0  0  0  0  0  0  0  0  0  0
  -46.1126   58.8776   66.8403 C   0  0  0  0  0  0  0  0  0  0  0  0
  -47.8183   59.2858   65.3231 C   0  0  0  0  0  0  0  0  0  0  0  0
  -45.7643   58.2654   65.4550 C   0  0  0  0  0  0  0  0  0  0  0  0
  -48.3823   59.7498   62.5189 O   0  0  0  0  0  0  0  0  0  0  0  0
  -49.3581   59.9452   63.4142 C   0  0  0  0  0  0  0  0  0  0  0  0
  -50.6266   60.3508   62.9788 C   0  0  0  0  0  0  0  0  0  0  0  0
  -51.6648   60.5716   63.8996 C   0  0  0  0  0  0  0  0  0  0  0  0
  -51.4492   60.3795   65.2653 C   0  0  0  0  0  0  0  0  0  0  0  0
  -50.1873   59.9688   65.7040 C   0  0  0  0  0  0  0  0  0  0  0  0
  -49.1424   59.7551   64.7845 C   0  0  0  0  0  0  0  0  0  0  0  0
  -48.5499   59.8832   61.6068 H   0  0  0  0  0  0  0  0  0  0  0  0
  -42.0482   55.9384   64.3585 O   0  0  0  0  0  0  0  0  0  0  0  0
  -41.3836   56.9606   64.3150 C   0  0  0  0  0  0  0  0  0  0  0  0
  -39.9772   56.8606   63.9113 O   0  0  0  0  0  0  0  0  0  0  0  0
  -39.4951   57.4952   62.7118 C   0  0  0  0  0  0  0  0  0  0  0  0
  -39.9423   56.8254   61.4183 C   0  0  0  0  0  0  0  0  0  0  0  0
  -37.9781   57.5791   62.7904 C   0  0  0  0  0  0  0  0  0  0  0  0
  -36.0934   59.0285   62.2047 N   0  0  0  0  0  0  0  0  0  0  0  0
  -38.2115   59.5704   61.6257 O   0  0  0  0  0  0  0  0  0  0  0  0
  -37.4210   58.8412   62.1794 C   0  0  0  0  0  0  0  0  0  0  0  0
  -35.7346   59.8233   61.7476 H   0  0  0  0  0  0  0  0  0  0  0  0
  -34.0728   59.5903   64.5406 N   0  0  0  0  0  0  0  0  0  0  0  0
  -35.1525   57.7257   65.1909 O   0  0  0  0  0  0  0  0  0  0  0  0
  -33.8224   60.6796   63.5852 C   0  0  0  0  0  0  0  0  0  0  0  0
  -32.8991   60.2050   62.4473 C   0  0  0  0  0  0  0  0  0  0  0  0
  -32.5964   58.7157   62.4359 C   0  0  0  0  0  0  0  0  0  0  0  0
  -33.8234   57.8579   62.1156 C   0  0  0  0  0  0  0  0  0  0  0  0
  -35.1376   58.1324   62.8656 C   0  0  0  0  0  0  0  0  0  0  0  0
  -34.7947   58.4842   64.3000 C   0  0  0  0  0  0  0  0  0  0  0  0
  -32.8424   58.3018   66.6261 Si  0  0  0  0  0  0  0  0  0  0  0  0
  -33.5316   59.7201   65.7841 O   0  0  0  0  0  0  0  0  0  0  0  0
  -32.3467   58.6999   67.8959 H   0  0  0  0  0  0  0  0  0  0  0  0
  -31.7815   57.7613   65.8522 H   0  0  0  0  0  0  0  0  0  0  0  0
  -33.8511   57.3176   66.7992 H   0  0  0  0  0  0  0  0  0  0  0  0
  -39.9351   59.9406   65.0861 C   0  0  0  0  0  0  0  0  0  0  0  0
  -41.0477   59.0879   65.7080 C   0  0  0  0  0  0  0  0  0  0  0  0
  -38.7829   60.3631   66.0133 C   0  0  0  0  0  0  0  0  0  0  0  0
  -37.3547   60.3364   65.4311 C   0  0  0  0  0  0  0  0  0  0  0  0
  -37.1271   61.5942   64.7130 N   0  0  0  0  0  0  0  0  0  0  0  0
  -36.4024   62.6790   65.0949 C   0  0  0  0  0  0  0  0  0  0  0  0
  -37.7563   61.6563   63.4617 O   0  0  0  0  0  0  0  0  0  0  0  0
  -36.3070   63.6688   64.3696 O   0  0  0  0  0  0  0  0  0  0  0  0
  -37.5640   62.5110   63.0452 H   0  0  0  0  0  0  0  0  0  0  0  0
  -35.6912   62.6556   66.4520 C   0  0  0  0  0  0  0  0  0  0  0  0
  -35.1156   64.0088   66.8914 C   0  0  0  0  0  0  0  0  0  0  0  0
  -33.5772   63.9804   66.8097 C   0  0  0  0  0  0  0  0  0  0  0  0
  -32.9577   65.3326   66.4081 C   0  0  0  0  0  0  0  0  0  0  0  0
  -32.3905   65.3783   64.9769 C   0  0  0  0  0  0  0  0  0  0  0  0
  -31.2136   64.4028   64.7662 C   0  0  0  0  0  0  0  0  0  0  0  0
  -31.4510   63.3380   63.6701 C   0  0  0  0  0  0  0  0  0  0  0  0
  -30.2478   63.1404   62.7409 C   0  0  0  0  0  0  0  0  0  0  0  0
  -30.1715   64.1046   61.5529 C   0  0  0  0  0  0  0  0  0  0  0  0
  -31.5701   64.4053   60.9837 C   0  0  0  0  0  0  0  0  0  0  0  0
  -31.9835   65.8808   61.0950 C   0  0  0  0  0  0  0  0  0  0  0  0
  -33.4867   66.1421   61.2349 C   0  0  0  0  0  0  0  0  0  0  0  0
  -34.3059   64.9114   61.6972 C   0  0  0  0  0  0  0  0  0  0  0  0
  -35.7464   64.9527   61.1479 C   0  0  0  0  0  0  0  0  0  0  0  0
  -36.5116   66.2739   61.2893 C   0  0  0  0  0  0  0  0  0  0  0  0
 46 47  1  0  0  0
 46 48  1  0  0  0
 46 45  1  0  0  0
 47 49  2  0  0  0
 47 51  1  0  0  0
 19 20  2  0  0  0
 37 38  1  0  0  0
 37 39  1  0  0  0
 37 40  1  0  0  0
 37 41  1  0  0  0
 48 50  1  0  0  0
 38 29  1  0  0  0
 45 44  1  0  0  0
 25 27  1  0  0  0
 25 35  1  0  0  0
 25 28  1  0  0  0
 21 20  1  0  0  0
 21 22  1  0  0  0
 44 42  1  0  0  0
  2  1  1  0  0  0
  2  4  1  0  0  0
  2  5  1  0  0  0
 26 27  2  0  0  0
 42 43  2  0  0  0
 29 31  1  0  0  0
 29 36  1  0  0  0
  3  4  2  0  0  0
 43  1  1  0  0  0
  6  9  2  0  0  0
  6 10  1  0  0  0
  1 20  1  0  0  0
 30 36  2  0  0  0
  7  8  1  0  0  0
  7  9  1  0  0  0
 22 24  1  0  0  0
 22 23  1  0  0  0
 11 12  1  0  0  0
 11 18  1  0  0  0
 24 27  1  0  0  0
  4 10  1  0  0  0
 51 52  1  0  0  0
 52 53  1  0  0  0
 53 54  1  0  0  0
 54 55  1  0  0  0
 55 56  1  0  0  0
 56 57  1  0  0  0
 57 58  1  0  0  0
 58 59  1  0  0  0
 59 60  1  0  0  0
 60 61  1  0  0  0
 61 62  1  0  0  0
 62 63  1  0  0  0
 63 64  1  0  0  0
 64 65  1  0  0  0
 31 32  1  0  0  0
 32 33  1  0  0  0
 33 34  1  0  0  0
 34 35  1  0  0  0
 35 36  1  0  0  0
  8 10  1  0  0  0
  9 17  1  0  0  0
 12 13  2  0  0  0
 12 17  1  0  0  0
 13 14  1  0  0  0
 14 15  2  0  0  0
 15 16  1  0  0  0
 16 17  2  0  0  0
M  END
> <minimizedAffinity>
-8.60500

> <CNNscore>
0.1172955260

> <CNNaffinity>
7.0188331604

> <CNN_VS>
0.8232777119

> <CNNaffinity_variance>
1.5645024776

$$$$
