/media/chris/experiments/cd1a-new-docking/inputs/ligands/1xz0_ligand.pdb


 65 67  0  0  0  0  0  0  0  0999 V2000
  -40.7694   59.0047   64.8430 C   0  0  0  0  0  0  0  0  0  0  0  0
  -39.3825   58.8263   65.2773 N   0  0  0  0  0  0  0  0  0  0  0  0
  -38.3442   60.6719   64.4476 O   0  0  0  0  0  0  0  0  0  0  0  0
  -38.3160   59.6180   65.0693 C   0  0  0  0  0  0  0  0  0  0  0  0
  -39.2054   58.0087   65.7965 H   0  0  0  0  0  0  0  0  0  0  0  0
  -35.8461   59.8163   64.8681 N   0  0  0  0  0  0  0  0  0  0  0  0
  -35.3281   57.6581   64.6116 O   0  0  0  0  0  0  0  0  0  0  0  0
  -36.5645   57.6328   65.3236 C   0  0  0  0  0  0  0  0  0  0  0  0
  -34.9852   59.0371   64.3691 C   0  0  0  0  0  0  0  0  0  0  0  0
  -36.9581   59.1200   65.5428 C   0  0  0  0  0  0  0  0  0  0  0  0
  -34.6471   61.5856   63.0320 O   0  0  0  0  0  0  0  0  0  0  0  0
  -33.6217   60.7254   63.0496 C   0  0  0  0  0  0  0  0  0  0  0  0
  -32.4106   61.0787   62.4403 C   0  0  0  0  0  0  0  0  0  0  0  0
  -31.3225   60.1897   62.4371 C   0  0  0  0  0  0  0  0  0  0  0  0
  -31.4300   58.9410   63.0518 C   0  0  0  0  0  0  0  0  0  0  0  0
  -32.6341   58.5863   63.6665 C   0  0  0  0  0  0  0  0  0  0  0  0
  -33.7291   59.4717   63.6638 C   0  0  0  0  0  0  0  0  0  0  0  0
  -34.5521   62.4193   62.6149 H   0  0  0  0  0  0  0  0  0  0  0  0
  -41.1484   61.1843   65.7600 O   0  0  0  0  0  0  0  0  0  0  0  0
  -41.0021   60.5012   64.7598 C   0  0  0  0  0  0  0  0  0  0  0  0
  -41.1242   61.1490   63.4496 O   0  0  0  0  0  0  0  0  0  0  0  0
  -42.4114   61.4751   62.8920 C   0  0  0  0  0  0  0  0  0  0  0  0
  -43.5007   60.4473   63.1722 C   0  0  0  0  0  0  0  0  0  0  0  0
  -42.2425   61.7025   61.3973 C   0  0  0  0  0  0  0  0  0  0  0  0
  -41.5247   59.3617   61.3595 N   0  0  0  0  0  0  0  0  0  0  0  0
  -41.4750   60.6321   59.4890 O   0  0  0  0  0  0  0  0  0  0  0  0
  -41.6774   60.5045   60.6748 C   0  0  0  0  0  0  0  0  0  0  0  0
  -41.7194   59.3768   62.3245 H   0  0  0  0  0  0  0  0  0  0  0  0
  -38.9024   57.7039   61.8394 N   0  0  0  0  0  0  0  0  0  0  0  0
  -40.5529   56.1910   62.0681 O   0  0  0  0  0  0  0  0  0  0  0  0
  -38.4175   59.0671   61.5781 C   0  0  0  0  0  0  0  0  0  0  0  0
  -38.3675   59.3469   60.0642 C   0  0  0  0  0  0  0  0  0  0  0  0
  -38.9829   58.2709   59.1849 C   0  0  0  0  0  0  0  0  0  0  0  0
  -40.5004   58.1564   59.3523 C   0  0  0  0  0  0  0  0  0  0  0  0
  -41.0879   58.0899   60.7719 C   0  0  0  0  0  0  0  0  0  0  0  0
  -40.1521   57.2601   61.6288 C   0  0  0  0  0  0  0  0  0  0  0  0
  -36.2598   57.1980   62.3729 Si  0  0  0  0  0  0  0  0  0  0  0  0
  -38.0057   56.8144   62.3501 O   0  0  0  0  0  0  0  0  0  0  0  0
  -35.5450   56.1159   62.9512 H   0  0  0  0  0  0  0  0  0  0  0  0
  -36.0433   58.3726   63.1410 H   0  0  0  0  0  0  0  0  0  0  0  0
  -35.8044   57.4104   61.0449 H   0  0  0  0  0  0  0  0  0  0  0  0
  -42.6749   57.1983   64.8618 C   0  0  0  0  0  0  0  0  0  0  0  0
  -41.8662   58.2493   65.6321 C   0  0  0  0  0  0  0  0  0  0  0  0
  -44.0163   56.7654   65.4775 C   0  0  0  0  0  0  0  0  0  0  0  0
  -45.2917   57.4708   64.9725 C   0  0  0  0  0  0  0  0  0  0  0  0
  -46.0371   57.9614   66.1359 N   0  0  0  0  0  0  0  0  0  0  0  0
  -46.7611   59.1041   66.2690 C   0  0  0  0  0  0  0  0  0  0  0  0
  -45.9765   57.1118   67.2495 O   0  0  0  0  0  0  0  0  0  0  0  0
  -47.3356   59.3751   67.3232 O   0  0  0  0  0  0  0  0  0  0  0  0
  -46.4887   57.4964   67.9779 H   0  0  0  0  0  0  0  0  0  0  0  0
  -46.8619   60.0614   65.0768 C   0  0  0  0  0  0  0  0  0  0  0  0
  -48.1125   59.8663   64.2088 C   0  0  0  0  0  0  0  0  0  0  0  0
  -49.3104   60.6072   64.8336 C   0  0  0  0  0  0  0  0  0  0  0  0
  -50.6747   60.0017   64.4526 C   0  0  0  0  0  0  0  0  0  0  0  0
  -50.5960   58.7832   63.5138 C   0  0  0  0  0  0  0  0  0  0  0  0
  -51.0669   59.0997   62.0789 C   0  0  0  0  0  0  0  0  0  0  0  0
  -50.2664   60.2188   61.3730 C   0  0  0  0  0  0  0  0  0  0  0  0
  -49.4085   59.7129   60.2074 C   0  0  0  0  0  0  0  0  0  0  0  0
  -49.6885   58.2736   59.7639 C   0  0  0  0  0  0  0  0  0  0  0  0
  -48.6271   57.3015   60.3107 C   0  0  0  0  0  0  0  0  0  0  0  0
  -48.4096   56.0593   59.4334 C   0  0  0  0  0  0  0  0  0  0  0  0
  -47.2220   56.1261   58.4676 C   0  0  0  0  0  0  0  0  0  0  0  0
  -47.6128   56.0326   56.9715 C   0  0  0  0  0  0  0  0  0  0  0  0
  -48.0407   57.4047   56.4124 C   0  0  0  0  0  0  0  0  0  0  0  0
  -47.1292   58.5996   56.7171 C   0  0  0  0  0  0  0  0  0  0  0  0
 46 47  1  0  0  0
 46 48  1  0  0  0
 46 45  1  0  0  0
 47 49  2  0  0  0
 47 51  1  0  0  0
 19 20  2  0  0  0
 37 38  1  0  0  0
 37 39  1  0  0  0
 37 40  1  0  0  0
 37 41  1  0  0  0
 48 50  1  0  0  0
 38 29  1  0  0  0
 45 44  1  0  0  0
 25 27  1  0  0  0
 25 35  1  0  0  0
 25 28  1  0  0  0
 21 20  1  0  0  0
 21 22  1  0  0  0
 44 42  1  0  0  0
  2  1  1  0  0  0
  2  4  1  0  0  0
  2  5  1  0  0  0
 26 27  2  0  0  0
 42 43  2  0  0  0
 29 31  1  0  0  0
 29 36  1  0  0  0
  3  4  2  0  0  0
 43  1  1  0  0  0
  6  9  2  0  0  0
  6 10  1  0  0  0
  1 20  1  0  0  0
 30 36  2  0  0  0
  7  8  1  0  0  0
  7  9  1  0  0  0
 22 24  1  0  0  0
 22 23  1  0  0  0
 11 12  1  0  0  0
 11 18  1  0  0  0
 24 27  1  0  0  0
  4 10  1  0  0  0
 51 52  1  0  0  0
 52 53  1  0  0  0
 53 54  1  0  0  0
 54 55  1  0  0  0
 55 56  1  0  0  0
 56 57  1  0  0  0
 57 58  1  0  0  0
 58 59  1  0  0  0
 59 60  1  0  0  0
 60 61  1  0  0  0
 61 62  1  0  0  0
 62 63  1  0  0  0
 63 64  1  0  0  0
 64 65  1  0  0  0
 31 32  1  0  0  0
 32 33  1  0  0  0
 33 34  1  0  0  0
 34 35  1  0  0  0
 35 36  1  0  0  0
  8 10  1  0  0  0
  9 17  1  0  0  0
 12 13  2  0  0  0
 12 17  1  0  0  0
 13 14  1  0  0  0
 14 15  2  0  0  0
 15 16  1  0  0  0
 16 17  2  0  0  0
M  END
> <minimizedAffinity>
-10.42823

> <CNNscore>
0.3322351873

> <CNNaffinity>
7.9880266190

> <CNN_VS>
2.6539034843

> <CNNaffinity_variance>
1.9213836193

$$$$
/media/chris/experiments/cd1a-new-docking/inputs/ligands/1xz0_ligand.pdb


 65 67  0  0  0  0  0  0  0  0999 V2000
  -43.3468   57.5436   65.4528 C   0  0  0  0  0  0  0  0  0  0  0  0
  -42.7965   56.8972   64.2597 N   0  0  0  0  0  0  0  0  0  0  0  0
  -41.6758   55.1123   65.1147 O   0  0  0  0  0  0  0  0  0  0  0  0
  -42.0408   55.7896   64.1628 C   0  0  0  0  0  0  0  0  0  0  0  0
  -43.0109   57.3371   63.4054 H   0  0  0  0  0  0  0  0  0  0  0  0
  -40.3548   56.2388   62.3920 N   0  0  0  0  0  0  0  0  0  0  0  0
  -41.7133   56.3762   60.6235 O   0  0  0  0  0  0  0  0  0  0  0  0
  -42.4273   55.5503   61.5424 C   0  0  0  0  0  0  0  0  0  0  0  0
  -40.4689   56.7557   61.2442 C   0  0  0  0  0  0  0  0  0  0  0  0
  -41.5092   55.4100   62.7881 C   0  0  0  0  0  0  0  0  0  0  0  0
  -38.2951   58.0904   62.6192 O   0  0  0  0  0  0  0  0  0  0  0  0
  -38.3902   58.2142   61.2897 C   0  0  0  0  0  0  0  0  0  0  0  0
  -37.4351   58.9670   60.5942 C   0  0  0  0  0  0  0  0  0  0  0  0
  -37.5181   59.1200   59.1999 C   0  0  0  0  0  0  0  0  0  0  0  0
  -38.5517   58.5134   58.4841 C   0  0  0  0  0  0  0  0  0  0  0  0
  -39.5035   57.7562   59.1727 C   0  0  0  0  0  0  0  0  0  0  0  0
  -39.4278   57.6083   60.5710 C   0  0  0  0  0  0  0  0  0  0  0  0
  -37.5918   58.5049   63.0792 H   0  0  0  0  0  0  0  0  0  0  0  0
  -44.8020   58.8032   64.0276 O   0  0  0  0  0  0  0  0  0  0  0  0
  -44.6816   58.1350   65.0413 C   0  0  0  0  0  0  0  0  0  0  0  0
  -45.8530   57.9655   65.9073 O   0  0  0  0  0  0  0  0  0  0  0  0
  -47.1214   58.5625   65.5775 C   0  0  0  0  0  0  0  0  0  0  0  0
  -47.5094   59.7474   66.4532 C   0  0  0  0  0  0  0  0  0  0  0  0
  -48.1869   57.4775   65.6183 C   0  0  0  0  0  0  0  0  0  0  0  0
  -49.6190   57.9786   63.6963 N   0  0  0  0  0  0  0  0  0  0  0  0
  -50.4097   58.1090   65.8113 O   0  0  0  0  0  0  0  0  0  0  0  0
  -49.5052   57.9178   65.0311 C   0  0  0  0  0  0  0  0  0  0  0  0
  -48.8122   57.8040   63.1598 H   0  0  0  0  0  0  0  0  0  0  0  0
  -50.1627   58.2624   60.6175 N   0  0  0  0  0  0  0  0  0  0  0  0
  -51.7802   56.8692   61.3302 O   0  0  0  0  0  0  0  0  0  0  0  0
  -48.9847   59.1111   60.8494 C   0  0  0  0  0  0  0  0  0  0  0  0
  -49.4047   60.4892   61.3947 C   0  0  0  0  0  0  0  0  0  0  0  0
  -50.8763   60.6257   61.7490 C   0  0  0  0  0  0  0  0  0  0  0  0
  -51.2861   59.7646   62.9468 C   0  0  0  0  0  0  0  0  0  0  0  0
  -50.8614   58.2870   62.9789 C   0  0  0  0  0  0  0  0  0  0  0  0
  -50.9553   57.7408   61.5676 C   0  0  0  0  0  0  0  0  0  0  0  0
  -49.3081   58.3215   58.0118 Si  0  0  0  0  0  0  0  0  0  0  0  0
  -50.4717   57.9714   59.3229 O   0  0  0  0  0  0  0  0  0  0  0  0
  -49.8656   57.9279   56.7665 H   0  0  0  0  0  0  0  0  0  0  0  0
  -48.1060   57.6012   58.2409 H   0  0  0  0  0  0  0  0  0  0  0  0
  -49.0282   59.7134   57.9864 H   0  0  0  0  0  0  0  0  0  0  0  0
  -41.5702   59.4744   65.3543 C   0  0  0  0  0  0  0  0  0  0  0  0
  -42.4341   58.5390   66.2092 C   0  0  0  0  0  0  0  0  0  0  0  0
  -40.3709   60.1412   66.0493 C   0  0  0  0  0  0  0  0  0  0  0  0
  -38.9598   59.6724   65.6390 C   0  0  0  0  0  0  0  0  0  0  0  0
  -38.4143   60.6396   64.6816 N   0  0  0  0  0  0  0  0  0  0  0  0
  -37.2752   61.3768   64.7644 C   0  0  0  0  0  0  0  0  0  0  0  0
  -39.1981   60.8046   63.5309 O   0  0  0  0  0  0  0  0  0  0  0  0
  -36.9520   62.1529   63.8655 O   0  0  0  0  0  0  0  0  0  0  0  0
  -38.7799   61.4548   62.9452 H   0  0  0  0  0  0  0  0  0  0  0  0
  -36.3823   61.2259   66.0004 C   0  0  0  0  0  0  0  0  0  0  0  0
  -34.9065   61.5754   65.7650 C   0  0  0  0  0  0  0  0  0  0  0  0
  -34.4691   62.6973   66.7265 C   0  0  0  0  0  0  0  0  0  0  0  0
  -32.9793   63.0685   66.6011 C   0  0  0  0  0  0  0  0  0  0  0  0
  -32.7086   64.3971   65.8705 C   0  0  0  0  0  0  0  0  0  0  0  0
  -32.1345   64.1959   64.4524 C   0  0  0  0  0  0  0  0  0  0  0  0
  -33.1994   64.1205   63.3337 C   0  0  0  0  0  0  0  0  0  0  0  0
  -33.3483   62.7205   62.7266 C   0  0  0  0  0  0  0  0  0  0  0  0
  -32.3010   61.6966   63.1754 C   0  0  0  0  0  0  0  0  0  0  0  0
  -32.0639   60.6260   62.0947 C   0  0  0  0  0  0  0  0  0  0  0  0
  -31.8747   59.2078   62.6541 C   0  0  0  0  0  0  0  0  0  0  0  0
  -32.8521   58.7920   63.7585 C   0  0  0  0  0  0  0  0  0  0  0  0
  -34.3402   58.8040   63.3285 C   0  0  0  0  0  0  0  0  0  0  0  0
  -35.0298   57.4607   63.6418 C   0  0  0  0  0  0  0  0  0  0  0  0
  -35.9128   57.4026   64.8942 C   0  0  0  0  0  0  0  0  0  0  0  0
 46 47  1  0  0  0
 46 48  1  0  0  0
 46 45  1  0  0  0
 47 49  2  0  0  0
 47 51  1  0  0  0
 19 20  2  0  0  0
 37 38  1  0  0  0
 37 39  1  0  0  0
 37 40  1  0  0  0
 37 41  1  0  0  0
 48 50  1  0  0  0
 38 29  1  0  0  0
 45 44  1  0  0  0
 25 27  1  0  0  0
 25 35  1  0  0  0
 25 28  1  0  0  0
 21 20  1  0  0  0
 21 22  1  0  0  0
 44 42  1  0  0  0
  2  1  1  0  0  0
  2  4  1  0  0  0
  2  5  1  0  0  0
 26 27  2  0  0  0
 42 43  2  0  0  0
 29 31  1  0  0  0
 29 36  1  0  0  0
  3  4  2  0  0  0
 43  1  1  0  0  0
  6  9  2  0  0  0
  6 10  1  0  0  0
  1 20  1  0  0  0
 30 36  2  0  0  0
  7  8  1  0  0  0
  7  9  1  0  0  0
 22 24  1  0  0  0
 22 23  1  0  0  0
 11 12  1  0  0  0
 11 18  1  0  0  0
 24 27  1  0  0  0
  4 10  1  0  0  0
 51 52  1  0  0  0
 52 53  1  0  0  0
 53 54  1  0  0  0
 54 55  1  0  0  0
 55 56  1  0  0  0
 56 57  1  0  0  0
 57 58  1  0  0  0
 58 59  1  0  0  0
 59 60  1  0  0  0
 60 61  1  0  0  0
 61 62  1  0  0  0
 62 63  1  0  0  0
 63 64  1  0  0  0
 64 65  1  0  0  0
 31 32  1  0  0  0
 32 33  1  0  0  0
 33 34  1  0  0  0
 34 35  1  0  0  0
 35 36  1  0  0  0
  8 10  1  0  0  0
  9 17  1  0  0  0
 12 13  2  0  0  0
 12 17  1  0  0  0
 13 14  1  0  0  0
 14 15  2  0  0  0
 15 16  1  0  0  0
 16 17  2  0  0  0
M  END
> <minimizedAffinity>
-8.75002

> <CNNscore>
0.2339452207

> <CNNaffinity>
7.4227304459

> <CNN_VS>
1.7365123034

> <CNNaffinity_variance>
0.6790469289

$$$$
/media/chris/experiments/cd1a-new-docking/inputs/ligands/1xz0_ligand.pdb


 65 67  0  0  0  0  0  0  0  0999 V2000
  -40.4172   59.2301   64.9222 C   0  0  0  0  0  0  0  0  0  0  0  0
  -39.0705   59.4168   65.4658 N   0  0  0  0  0  0  0  0  0  0  0  0
  -38.2616   61.1568   64.2449 O   0  0  0  0  0  0  0  0  0  0  0  0
  -38.1285   60.3114   65.1199 C   0  0  0  0  0  0  0  0  0  0  0  0
  -38.8186   58.7981   66.1890 H   0  0  0  0  0  0  0  0  0  0  0  0
  -36.2340   61.5137   66.1900 N   0  0  0  0  0  0  0  0  0  0  0  0
  -34.5394   60.6131   65.0457 O   0  0  0  0  0  0  0  0  0  0  0  0
  -35.5638   59.6216   64.9808 C   0  0  0  0  0  0  0  0  0  0  0  0
  -35.0548   61.7337   65.7917 C   0  0  0  0  0  0  0  0  0  0  0  0
  -36.7633   60.1982   65.7829 C   0  0  0  0  0  0  0  0  0  0  0  0
  -36.0676   64.0353   67.2319 O   0  0  0  0  0  0  0  0  0  0  0  0
  -34.7963   64.0447   66.8130 C   0  0  0  0  0  0  0  0  0  0  0  0
  -33.9835   65.1513   67.0914 C   0  0  0  0  0  0  0  0  0  0  0  0
  -32.6486   65.1895   66.6544 C   0  0  0  0  0  0  0  0  0  0  0  0
  -32.1085   64.1170   65.9426 C   0  0  0  0  0  0  0  0  0  0  0  0
  -32.9135   63.0080   65.6677 C   0  0  0  0  0  0  0  0  0  0  0  0
  -34.2541   62.9706   66.0968 C   0  0  0  0  0  0  0  0  0  0  0  0
  -36.4088   64.7655   67.7097 H   0  0  0  0  0  0  0  0  0  0  0  0
  -41.4014   61.2749   65.6877 O   0  0  0  0  0  0  0  0  0  0  0  0
  -41.0011   60.6183   64.7405 C   0  0  0  0  0  0  0  0  0  0  0  0
  -41.1576   61.1734   63.3921 O   0  0  0  0  0  0  0  0  0  0  0  0
  -42.4603   61.4185   62.8292 C   0  0  0  0  0  0  0  0  0  0  0  0
  -43.4961   60.3454   63.1410 C   0  0  0  0  0  0  0  0  0  0  0  0
  -42.3052   61.6122   61.3283 C   0  0  0  0  0  0  0  0  0  0  0  0
  -41.4851   59.3050   61.3437 N   0  0  0  0  0  0  0  0  0  0  0  0
  -41.4179   60.5591   59.4628 O   0  0  0  0  0  0  0  0  0  0  0  0
  -41.6607   60.4337   60.6412 C   0  0  0  0  0  0  0  0  0  0  0  0
  -41.7177   59.3204   62.3002 H   0  0  0  0  0  0  0  0  0  0  0  0
  -38.8186   57.7633   61.9502 N   0  0  0  0  0  0  0  0  0  0  0  0
  -40.4125   56.1837   62.1229 O   0  0  0  0  0  0  0  0  0  0  0  0
  -38.3805   59.1437   61.6968 C   0  0  0  0  0  0  0  0  0  0  0  0
  -38.2774   59.4137   60.1838 C   0  0  0  0  0  0  0  0  0  0  0  0
  -38.8091   58.3059   59.2894 C   0  0  0  0  0  0  0  0  0  0  0  0
  -40.3262   58.1287   59.3933 C   0  0  0  0  0  0  0  0  0  0  0  0
  -40.9706   58.0484   60.7872 C   0  0  0  0  0  0  0  0  0  0  0  0
  -40.0384   57.2654   61.6910 C   0  0  0  0  0  0  0  0  0  0  0  0
  -37.2468   57.2388   64.1361 Si  0  0  0  0  0  0  0  0  0  0  0  0
  -37.9081   56.9164   62.5069 O   0  0  0  0  0  0  0  0  0  0  0  0
  -36.3249   56.2162   64.4837 H   0  0  0  0  0  0  0  0  0  0  0  0
  -38.3064   57.2620   65.0811 H   0  0  0  0  0  0  0  0  0  0  0  0
  -36.5836   58.4945   64.1378 H   0  0  0  0  0  0  0  0  0  0  0  0
  -42.3475   57.4535   64.8131 C   0  0  0  0  0  0  0  0  0  0  0  0
  -41.3585   58.2542   65.6691 C   0  0  0  0  0  0  0  0  0  0  0  0
  -43.5509   56.8308   65.5411 C   0  0  0  0  0  0  0  0  0  0  0  0
  -44.9592   57.1939   65.0271 C   0  0  0  0  0  0  0  0  0  0  0  0
  -45.7312   57.7394   66.1479 N   0  0  0  0  0  0  0  0  0  0  0  0
  -46.4391   58.8979   66.2162 C   0  0  0  0  0  0  0  0  0  0  0  0
  -45.7193   56.9311   67.2934 O   0  0  0  0  0  0  0  0  0  0  0  0
  -47.0408   59.2171   67.2414 O   0  0  0  0  0  0  0  0  0  0  0  0
  -46.2468   57.3508   67.9908 H   0  0  0  0  0  0  0  0  0  0  0  0
  -46.4869   59.8115   64.9871 C   0  0  0  0  0  0  0  0  0  0  0  0
  -47.4267   59.3301   63.8733 C   0  0  0  0  0  0  0  0  0  0  0  0
  -48.3607   60.4756   63.4379 C   0  0  0  0  0  0  0  0  0  0  0  0
  -49.2818   60.9803   64.5648 C   0  0  0  0  0  0  0  0  0  0  0  0
  -50.4224   60.0161   64.9412 C   0  0  0  0  0  0  0  0  0  0  0  0
  -51.7337   60.3130   64.1840 C   0  0  0  0  0  0  0  0  0  0  0  0
  -51.9153   59.5092   62.8754 C   0  0  0  0  0  0  0  0  0  0  0  0
  -51.1171   58.2005   62.8476 C   0  0  0  0  0  0  0  0  0  0  0  0
  -50.8449   57.6283   61.4529 C   0  0  0  0  0  0  0  0  0  0  0  0
  -49.3349   57.5542   61.1618 C   0  0  0  0  0  0  0  0  0  0  0  0
  -48.9733   56.6494   59.9741 C   0  0  0  0  0  0  0  0  0  0  0  0
  -47.7093   57.0392   59.2009 C   0  0  0  0  0  0  0  0  0  0  0  0
  -47.3727   56.0991   58.0166 C   0  0  0  0  0  0  0  0  0  0  0  0
  -47.4369   56.8441   56.6679 C   0  0  0  0  0  0  0  0  0  0  0  0
  -47.2181   58.3616   56.6955 C   0  0  0  0  0  0  0  0  0  0  0  0
 46 47  1  0  0  0
 46 48  1  0  0  0
 46 45  1  0  0  0
 47 49  2  0  0  0
 47 51  1  0  0  0
 19 20  2  0  0  0
 37 38  1  0  0  0
 37 39  1  0  0  0
 37 40  1  0  0  0
 37 41  1  0  0  0
 48 50  1  0  0  0
 38 29  1  0  0  0
 45 44  1  0  0  0
 25 27  1  0  0  0
 25 35  1  0  0  0
 25 28  1  0  0  0
 21 20  1  0  0  0
 21 22  1  0  0  0
 44 42  1  0  0  0
  2  1  1  0  0  0
  2  4  1  0  0  0
  2  5  1  0  0  0
 26 27  2  0  0  0
 42 43  2  0  0  0
 29 31  1  0  0  0
 29 36  1  0  0  0
  3  4  2  0  0  0
 43  1  1  0  0  0
  6  9  2  0  0  0
  6 10  1  0  0  0
  1 20  1  0  0  0
 30 36  2  0  0  0
  7  8  1  0  0  0
  7  9  1  0  0  0
 22 24  1  0  0  0
 22 23  1  0  0  0
 11 12  1  0  0  0
 11 18  1  0  0  0
 24 27  1  0  0  0
  4 10  1  0  0  0
 51 52  1  0  0  0
 52 53  1  0  0  0
 53 54  1  0  0  0
 54 55  1  0  0  0
 55 56  1  0  0  0
 56 57  1  0  0  0
 57 58  1  0  0  0
 58 59  1  0  0  0
 59 60  1  0  0  0
 60 61  1  0  0  0
 61 62  1  0  0  0
 62 63  1  0  0  0
 63 64  1  0  0  0
 64 65  1  0  0  0
 31 32  1  0  0  0
 32 33  1  0  0  0
 33 34  1  0  0  0
 34 35  1  0  0  0
 35 36  1  0  0  0
  8 10  1  0  0  0
  9 17  1  0  0  0
 12 13  2  0  0  0
 12 17  1  0  0  0
 13 14  1  0  0  0
 14 15  2  0  0  0
 15 16  1  0  0  0
 16 17  2  0  0  0
M  END
> <minimizedAffinity>
-10.62953

> <CNNscore>
0.2287147641

> <CNNaffinity>
7.6873483658

> <CNN_VS>
1.7582100630

> <CNNaffinity_variance>
1.6533620358

$$$$
/media/chris/experiments/cd1a-new-docking/inputs/ligands/1xz0_ligand.pdb


 65 67  0  0  0  0  0  0  0  0999 V2000
  -39.0520   60.1051   64.2477 C   0  0  0  0  0  0  0  0  0  0  0  0
  -38.2378   61.3221   64.2395 N   0  0  0  0  0  0  0  0  0  0  0  0
  -37.1840   61.2202   62.2266 O   0  0  0  0  0  0  0  0  0  0  0  0
  -37.4032   61.7825   63.2914 C   0  0  0  0  0  0  0  0  0  0  0  0
  -38.3122   61.8843   65.0443 H   0  0  0  0  0  0  0  0  0  0  0  0
  -35.3648   63.1135   62.7881 N   0  0  0  0  0  0  0  0  0  0  0  0
  -34.6145   63.4296   64.8688 O   0  0  0  0  0  0  0  0  0  0  0  0
  -36.0187   63.2372   65.0350 C   0  0  0  0  0  0  0  0  0  0  0  0
  -34.3160   63.3195   63.4628 C   0  0  0  0  0  0  0  0  0  0  0  0
  -36.5905   63.0304   63.6050 C   0  0  0  0  0  0  0  0  0  0  0  0
  -33.7479   63.7891   60.6603 O   0  0  0  0  0  0  0  0  0  0  0  0
  -32.7275   63.7327   61.5247 C   0  0  0  0  0  0  0  0  0  0  0  0
  -31.4176   63.9167   61.0630 C   0  0  0  0  0  0  0  0  0  0  0  0
  -30.3287   63.8529   61.9487 C   0  0  0  0  0  0  0  0  0  0  0  0
  -30.5381   63.6141   63.3080 C   0  0  0  0  0  0  0  0  0  0  0  0
  -31.8435   63.4361   63.7747 C   0  0  0  0  0  0  0  0  0  0  0  0
  -32.9361   63.4909   62.8880 C   0  0  0  0  0  0  0  0  0  0  0  0
  -33.5843   63.9522   59.7523 H   0  0  0  0  0  0  0  0  0  0  0  0
  -40.6216   61.1211   62.7511 O   0  0  0  0  0  0  0  0  0  0  0  0
  -39.9139   60.1591   63.0007 C   0  0  0  0  0  0  0  0  0  0  0  0
  -39.9608   59.0060   62.0956 O   0  0  0  0  0  0  0  0  0  0  0  0
  -39.7012   59.1487   60.6863 C   0  0  0  0  0  0  0  0  0  0  0  0
  -40.7527   58.5171   59.7824 C   0  0  0  0  0  0  0  0  0  0  0  0
  -38.3177   58.5874   60.3945 C   0  0  0  0  0  0  0  0  0  0  0  0
  -36.6409   58.4372   62.1727 N   0  0  0  0  0  0  0  0  0  0  0  0
  -38.2692   56.8813   61.9641 O   0  0  0  0  0  0  0  0  0  0  0  0
  -37.7038   57.8779   61.5762 C   0  0  0  0  0  0  0  0  0  0  0  0
  -36.2627   59.2499   61.7657 H   0  0  0  0  0  0  0  0  0  0  0  0
  -34.4006   59.7012   63.9722 N   0  0  0  0  0  0  0  0  0  0  0  0
  -36.0004   59.0993   65.4363 O   0  0  0  0  0  0  0  0  0  0  0  0
  -33.8610   59.8054   62.6084 C   0  0  0  0  0  0  0  0  0  0  0  0
  -33.2284   58.4713   62.1693 C   0  0  0  0  0  0  0  0  0  0  0  0
  -33.4468   57.3057   63.1199 C   0  0  0  0  0  0  0  0  0  0  0  0
  -34.9093   56.8590   63.1932 C   0  0  0  0  0  0  0  0  0  0  0  0
  -36.0018   57.9231   63.3896 C   0  0  0  0  0  0  0  0  0  0  0  0
  -35.4673   58.9745   64.3423 C   0  0  0  0  0  0  0  0  0  0  0  0
  -34.6995   61.1628   66.2740 Si  0  0  0  0  0  0  0  0  0  0  0  0
  -33.7671   60.4137   64.9454 O   0  0  0  0  0  0  0  0  0  0  0  0
  -33.8127   61.8433   67.1496 H   0  0  0  0  0  0  0  0  0  0  0  0
  -35.3930   60.1536   66.9931 H   0  0  0  0  0  0  0  0  0  0  0  0
  -35.6336   62.0863   65.7347 H   0  0  0  0  0  0  0  0  0  0  0  0
  -41.0527   58.8512   65.3961 C   0  0  0  0  0  0  0  0  0  0  0  0
  -39.8466   59.7879   65.5377 C   0  0  0  0  0  0  0  0  0  0  0  0
  -42.0860   58.8719   66.5353 C   0  0  0  0  0  0  0  0  0  0  0  0
  -43.5168   59.3331   66.1899 C   0  0  0  0  0  0  0  0  0  0  0  0
  -44.3954   58.1594   66.2091 N   0  0  0  0  0  0  0  0  0  0  0  0
  -45.7537   58.1068   66.2056 C   0  0  0  0  0  0  0  0  0  0  0  0
  -43.7102   56.9365   66.2331 O   0  0  0  0  0  0  0  0  0  0  0  0
  -46.3495   57.0300   66.2230 O   0  0  0  0  0  0  0  0  0  0  0  0
  -44.3499   56.2075   66.2448 H   0  0  0  0  0  0  0  0  0  0  0  0
  -46.5467   59.4175   66.1732 C   0  0  0  0  0  0  0  0  0  0  0  0
  -47.0243   59.8371   64.7763 C   0  0  0  0  0  0  0  0  0  0  0  0
  -48.4210   60.4817   64.8667 C   0  0  0  0  0  0  0  0  0  0  0  0
  -49.3056   59.8797   65.9750 C   0  0  0  0  0  0  0  0  0  0  0  0
  -50.7128   59.4567   65.5136 C   0  0  0  0  0  0  0  0  0  0  0  0
  -51.2112   60.2599   64.2940 C   0  0  0  0  0  0  0  0  0  0  0  0
  -51.5172   59.4037   63.0431 C   0  0  0  0  0  0  0  0  0  0  0  0
  -50.6437   58.1485   62.9344 C   0  0  0  0  0  0  0  0  0  0  0  0
  -49.8698   58.0001   61.6207 C   0  0  0  0  0  0  0  0  0  0  0  0
  -50.8235   57.8346   60.4234 C   0  0  0  0  0  0  0  0  0  0  0  0
  -50.1171   57.8398   59.0592 C   0  0  0  0  0  0  0  0  0  0  0  0
  -48.5868   57.7750   59.1018 C   0  0  0  0  0  0  0  0  0  0  0  0
  -47.8858   58.5247   57.9416 C   0  0  0  0  0  0  0  0  0  0  0  0
  -47.5044   57.5643   56.7970 C   0  0  0  0  0  0  0  0  0  0  0  0
  -47.7323   56.0667   57.0348 C   0  0  0  0  0  0  0  0  0  0  0  0
 46 47  1  0  0  0
 46 48  1  0  0  0
 46 45  1  0  0  0
 47 49  2  0  0  0
 47 51  1  0  0  0
 19 20  2  0  0  0
 37 38  1  0  0  0
 37 39  1  0  0  0
 37 40  1  0  0  0
 37 41  1  0  0  0
 48 50  1  0  0  0
 38 29  1  0  0  0
 45 44  1  0  0  0
 25 27  1  0  0  0
 25 35  1  0  0  0
 25 28  1  0  0  0
 21 20  1  0  0  0
 21 22  1  0  0  0
 44 42  1  0  0  0
  2  1  1  0  0  0
  2  4  1  0  0  0
  2  5  1  0  0  0
 26 27  2  0  0  0
 42 43  2  0  0  0
 29 31  1  0  0  0
 29 36  1  0  0  0
  3  4  2  0  0  0
 43  1  1  0  0  0
  6  9  2  0  0  0
  6 10  1  0  0  0
  1 20  1  0  0  0
 30 36  2  0  0  0
  7  8  1  0  0  0
  7  9  1  0  0  0
 22 24  1  0  0  0
 22 23  1  0  0  0
 11 12  1  0  0  0
 11 18  1  0  0  0
 24 27  1  0  0  0
  4 10  1  0  0  0
 51 52  1  0  0  0
 52 53  1  0  0  0
 53 54  1  0  0  0
 54 55  1  0  0  0
 55 56  1  0  0  0
 56 57  1  0  0  0
 57 58  1  0  0  0
 58 59  1  0  0  0
 59 60  1  0  0  0
 60 61  1  0  0  0
 61 62  1  0  0  0
 62 63  1  0  0  0
 63 64  1  0  0  0
 64 65  1  0  0  0
 31 32  1  0  0  0
 32 33  1  0  0  0
 33 34  1  0  0  0
 34 35  1  0  0  0
 35 36  1  0  0  0
  8 10  1  0  0  0
  9 17  1  0  0  0
 12 13  2  0  0  0
 12 17  1  0  0  0
 13 14  1  0  0  0
 14 15  2  0  0  0
 15 16  1  0  0  0
 16 17  2  0  0  0
M  END
> <minimizedAffinity>
-9.68459

> <CNNscore>
0.2215079367

> <CNNaffinity>
7.1853828430

> <CNN_VS>
1.5916193724

> <CNNaffinity_variance>
0.4297060370

$$$$
/media/chris/experiments/cd1a-new-docking/inputs/ligands/1xz0_ligand.pdb


 65 67  0  0  0  0  0  0  0  0999 V2000
  -41.6180   57.9219   62.7815 C   0  0  0  0  0  0  0  0  0  0  0  0
  -40.7686   58.3498   63.8948 N   0  0  0  0  0  0  0  0  0  0  0  0
  -40.3990   60.5478   63.4420 O   0  0  0  0  0  0  0  0  0  0  0  0
  -40.2405   59.5601   64.1472 C   0  0  0  0  0  0  0  0  0  0  0  0
  -40.5532   57.6505   64.5535 H   0  0  0  0  0  0  0  0  0  0  0  0
  -38.5635   60.9721   65.3195 N   0  0  0  0  0  0  0  0  0  0  0  0
  -36.9350   59.4641   65.5766 O   0  0  0  0  0  0  0  0  0  0  0  0
  -38.1224   58.6771   65.4915 C   0  0  0  0  0  0  0  0  0  0  0  0
  -37.3118   60.8492   65.4447 C   0  0  0  0  0  0  0  0  0  0  0  0
  -39.2908   59.6885   65.3296 C   0  0  0  0  0  0  0  0  0  0  0  0
  -37.0021   62.8735   63.3944 O   0  0  0  0  0  0  0  0  0  0  0  0
  -36.2416   62.9469   64.4935 C   0  0  0  0  0  0  0  0  0  0  0  0
  -35.3305   64.0016   64.6362 C   0  0  0  0  0  0  0  0  0  0  0  0
  -34.5143   64.0958   65.7760 C   0  0  0  0  0  0  0  0  0  0  0  0
  -34.6070   63.1417   66.7908 C   0  0  0  0  0  0  0  0  0  0  0  0
  -35.5189   62.0911   66.6560 C   0  0  0  0  0  0  0  0  0  0  0  0
  -36.3320   61.9892   65.5110 C   0  0  0  0  0  0  0  0  0  0  0  0
  -36.9243   63.5260   62.7264 H   0  0  0  0  0  0  0  0  0  0  0  0
  -41.5069   59.3636   60.8724 O   0  0  0  0  0  0  0  0  0  0  0  0
  -40.9805   58.4741   61.5207 C   0  0  0  0  0  0  0  0  0  0  0  0
  -39.7334   57.8893   61.0172 O   0  0  0  0  0  0  0  0  0  0  0  0
  -38.5694   58.7017   60.7742 C   0  0  0  0  0  0  0  0  0  0  0  0
  -38.1883   58.8376   59.3053 C   0  0  0  0  0  0  0  0  0  0  0  0
  -37.4149   58.1415   61.5913 C   0  0  0  0  0  0  0  0  0  0  0  0
  -35.4891   58.8448   62.9302 N   0  0  0  0  0  0  0  0  0  0  0  0
  -36.9923   60.3493   62.1605 O   0  0  0  0  0  0  0  0  0  0  0  0
  -36.6111   59.2088   62.2924 C   0  0  0  0  0  0  0  0  0  0  0  0
  -35.2793   57.8840   62.9751 H   0  0  0  0  0  0  0  0  0  0  0  0
  -32.5912   59.6998   62.0778 N   0  0  0  0  0  0  0  0  0  0  0  0
  -33.6475   61.6518   62.4511 O   0  0  0  0  0  0  0  0  0  0  0  0
  -32.5561   58.2306   62.0301 C   0  0  0  0  0  0  0  0  0  0  0  0
  -32.3348   57.6448   63.4374 C   0  0  0  0  0  0  0  0  0  0  0  0
  -32.3844   58.6519   64.5746 C   0  0  0  0  0  0  0  0  0  0  0  0
  -33.7784   59.2487   64.7854 C   0  0  0  0  0  0  0  0  0  0  0  0
  -34.5518   59.7779   63.5661 C   0  0  0  0  0  0  0  0  0  0  0  0
  -33.5593   60.4454   62.6344 C   0  0  0  0  0  0  0  0  0  0  0  0
  -31.6999   62.0980   61.0891 Si  0  0  0  0  0  0  0  0  0  0  0  0
  -31.5532   60.3637   61.4967 O   0  0  0  0  0  0  0  0  0  0  0  0
  -30.4902   62.5495   60.4981 H   0  0  0  0  0  0  0  0  0  0  0  0
  -31.9557   62.8421   62.2712 H   0  0  0  0  0  0  0  0  0  0  0  0
  -32.7705   62.2804   60.1742 H   0  0  0  0  0  0  0  0  0  0  0  0
  -43.5613   59.3109   63.8716 C   0  0  0  0  0  0  0  0  0  0  0  0
  -43.1344   58.2136   62.8888 C   0  0  0  0  0  0  0  0  0  0  0  0
  -45.0355   59.3157   64.3102 C   0  0  0  0  0  0  0  0  0  0  0  0
  -45.3316   59.1306   65.8127 C   0  0  0  0  0  0  0  0  0  0  0  0
  -45.8984   57.7926   66.0082 N   0  0  0  0  0  0  0  0  0  0  0  0
  -47.1897   57.3844   65.8903 C   0  0  0  0  0  0  0  0  0  0  0  0
  -44.9527   56.8209   66.3644 O   0  0  0  0  0  0  0  0  0  0  0  0
  -47.5078   56.2121   66.0889 O   0  0  0  0  0  0  0  0  0  0  0  0
  -45.3950   55.9650   66.4768 H   0  0  0  0  0  0  0  0  0  0  0  0
  -48.2586   58.4092   65.4966 C   0  0  0  0  0  0  0  0  0  0  0  0
  -49.6633   57.8211   65.3056 C   0  0  0  0  0  0  0  0  0  0  0  0
  -50.7274   58.8290   65.7812 C   0  0  0  0  0  0  0  0  0  0  0  0
  -50.6303   60.2000   65.0854 C   0  0  0  0  0  0  0  0  0  0  0  0
  -51.9257   60.6600   64.3908 C   0  0  0  0  0  0  0  0  0  0  0  0
  -51.7666   60.8107   62.8633 C   0  0  0  0  0  0  0  0  0  0  0  0
  -50.8538   59.7499   62.2054 C   0  0  0  0  0  0  0  0  0  0  0  0
  -51.5630   58.4178   61.9353 C   0  0  0  0  0  0  0  0  0  0  0  0
  -50.7010   57.3389   61.2722 C   0  0  0  0  0  0  0  0  0  0  0  0
  -49.2101   57.5280   61.6065 C   0  0  0  0  0  0  0  0  0  0  0  0
  -48.2950   57.5639   60.3730 C   0  0  0  0  0  0  0  0  0  0  0  0
  -48.5796   56.5058   59.3021 C   0  0  0  0  0  0  0  0  0  0  0  0
  -47.3884   56.2256   58.3522 C   0  0  0  0  0  0  0  0  0  0  0  0
  -47.1132   57.4245   57.4222 C   0  0  0  0  0  0  0  0  0  0  0  0
  -48.0345   57.5945   56.2082 C   0  0  0  0  0  0  0  0  0  0  0  0
 46 47  1  0  0  0
 46 48  1  0  0  0
 46 45  1  0  0  0
 47 49  2  0  0  0
 47 51  1  0  0  0
 19 20  2  0  0  0
 37 38  1  0  0  0
 37 39  1  0  0  0
 37 40  1  0  0  0
 37 41  1  0  0  0
 48 50  1  0  0  0
 38 29  1  0  0  0
 45 44  1  0  0  0
 25 27  1  0  0  0
 25 35  1  0  0  0
 25 28  1  0  0  0
 21 20  1  0  0  0
 21 22  1  0  0  0
 44 42  1  0  0  0
  2  1  1  0  0  0
  2  4  1  0  0  0
  2  5  1  0  0  0
 26 27  2  0  0  0
 42 43  2  0  0  0
 29 31  1  0  0  0
 29 36  1  0  0  0
  3  4  2  0  0  0
 43  1  1  0  0  0
  6  9  2  0  0  0
  6 10  1  0  0  0
  1 20  1  0  0  0
 30 36  2  0  0  0
  7  8  1  0  0  0
  7  9  1  0  0  0
 22 24  1  0  0  0
 22 23  1  0  0  0
 11 12  1  0  0  0
 11 18  1  0  0  0
 24 27  1  0  0  0
  4 10  1  0  0  0
 51 52  1  0  0  0
 52 53  1  0  0  0
 53 54  1  0  0  0
 54 55  1  0  0  0
 55 56  1  0  0  0
 56 57  1  0  0  0
 57 58  1  0  0  0
 58 59  1  0  0  0
 59 60  1  0  0  0
 60 61  1  0  0  0
 61 62  1  0  0  0
 62 63  1  0  0  0
 63 64  1  0  0  0
 64 65  1  0  0  0
 31 32  1  0  0  0
 32 33  1  0  0  0
 33 34  1  0  0  0
 34 35  1  0  0  0
 35 36  1  0  0  0
  8 10  1  0  0  0
  9 17  1  0  0  0
 12 13  2  0  0  0
 12 17  1  0  0  0
 13 14  1  0  0  0
 14 15  2  0  0  0
 15 16  1  0  0  0
 16 17  2  0  0  0
M  END
> <minimizedAffinity>
-10.29297

> <CNNscore>
0.2037190050

> <CNNaffinity>
7.3409132957

> <CNN_VS>
1.4954835176

> <CNNaffinity_variance>
0.6134076715

$$$$
/media/chris/experiments/cd1a-new-docking/inputs/ligands/1xz0_ligand.pdb


 65 67  0  0  0  0  0  0  0  0999 V2000
  -42.7606   59.0357   63.5769 C   0  0  0  0  0  0  0  0  0  0  0  0
  -41.6060   59.1269   64.4728 N   0  0  0  0  0  0  0  0  0  0  0  0
  -40.4478   60.8971   63.6375 O   0  0  0  0  0  0  0  0  0  0  0  0
  -40.5803   59.9958   64.4549 C   0  0  0  0  0  0  0  0  0  0  0  0
  -41.5766   58.4551   65.1919 H   0  0  0  0  0  0  0  0  0  0  0  0
  -38.4645   60.8786   65.4162 N   0  0  0  0  0  0  0  0  0  0  0  0
  -37.1941   59.0491   65.2396 O   0  0  0  0  0  0  0  0  0  0  0  0
  -38.5250   58.5386   65.3067 C   0  0  0  0  0  0  0  0  0  0  0  0
  -37.2684   60.4875   65.2986 C   0  0  0  0  0  0  0  0  0  0  0  0
  -39.4486   59.7800   65.4494 C   0  0  0  0  0  0  0  0  0  0  0  0
  -36.4116   62.1344   67.5236 O   0  0  0  0  0  0  0  0  0  0  0  0
  -35.6889   62.1455   66.3969 C   0  0  0  0  0  0  0  0  0  0  0  0
  -34.5333   62.9343   66.3230 C   0  0  0  0  0  0  0  0  0  0  0  0
  -33.7629   62.9704   65.1486 C   0  0  0  0  0  0  0  0  0  0  0  0
  -34.1338   62.2105   64.0379 C   0  0  0  0  0  0  0  0  0  0  0  0
  -35.2823   61.4171   64.1088 C   0  0  0  0  0  0  0  0  0  0  0  0
  -36.0612   61.3855   65.2815 C   0  0  0  0  0  0  0  0  0  0  0  0
  -36.1430   62.6512   68.2576 H   0  0  0  0  0  0  0  0  0  0  0  0
  -43.3540   56.9303   64.5520 O   0  0  0  0  0  0  0  0  0  0  0  0
  -43.7171   58.0443   64.2119 C   0  0  0  0  0  0  0  0  0  0  0  0
  -45.1331   58.3933   64.3669 O   0  0  0  0  0  0  0  0  0  0  0  0
  -45.6451   58.9132   65.6085 C   0  0  0  0  0  0  0  0  0  0  0  0
  -46.0978   57.8495   66.6009 C   0  0  0  0  0  0  0  0  0  0  0  0
  -46.7724   59.8847   65.2927 C   0  0  0  0  0  0  0  0  0  0  0  0
  -48.3070   58.7901   63.7297 N   0  0  0  0  0  0  0  0  0  0  0  0
  -48.8119   58.9813   65.9260 O   0  0  0  0  0  0  0  0  0  0  0  0
  -48.0803   59.1972   64.9871 C   0  0  0  0  0  0  0  0  0  0  0  0
  -47.6395   59.0251   63.0452 H   0  0  0  0  0  0  0  0  0  0  0  0
  -49.8886   58.8463   61.0185 N   0  0  0  0  0  0  0  0  0  0  0  0
  -49.4913   56.6594   61.3723 O   0  0  0  0  0  0  0  0  0  0  0  0
  -49.7930   60.2623   61.4028 C   0  0  0  0  0  0  0  0  0  0  0  0
  -50.8790   60.6214   62.4345 C   0  0  0  0  0  0  0  0  0  0  0  0
  -51.6794   59.4456   62.9700 C   0  0  0  0  0  0  0  0  0  0  0  0
  -50.8434   58.4948   63.8307 C   0  0  0  0  0  0  0  0  0  0  0  0
  -49.4800   58.0191   63.3019 C   0  0  0  0  0  0  0  0  0  0  0  0
  -49.6078   57.7968   61.8076 C   0  0  0  0  0  0  0  0  0  0  0  0
  -50.0041   56.9628   59.0278 Si  0  0  0  0  0  0  0  0  0  0  0  0
  -50.2886   58.5755   59.7446 O   0  0  0  0  0  0  0  0  0  0  0  0
  -50.5104   56.9383   57.7014 H   0  0  0  0  0  0  0  0  0  0  0  0
  -50.6658   55.9758   59.8053 H   0  0  0  0  0  0  0  0  0  0  0  0
  -48.6101   56.6930   59.0075 H   0  0  0  0  0  0  0  0  0  0  0  0
  -41.5312   57.5966   61.7571 C   0  0  0  0  0  0  0  0  0  0  0  0
  -42.4812   58.7564   62.0802 C   0  0  0  0  0  0  0  0  0  0  0  0
  -40.9093   57.5791   60.3504 C   0  0  0  0  0  0  0  0  0  0  0  0
  -39.3713   57.6428   60.2515 C   0  0  0  0  0  0  0  0  0  0  0  0
  -38.9377   58.9755   60.6823 N   0  0  0  0  0  0  0  0  0  0  0  0
  -37.9049   59.3178   61.4972 C   0  0  0  0  0  0  0  0  0  0  0  0
  -39.7150   60.0212   60.1648 O   0  0  0  0  0  0  0  0  0  0  0  0
  -37.6681   60.4956   61.7648 O   0  0  0  0  0  0  0  0  0  0  0  0
  -39.3735   60.8692   60.4891 H   0  0  0  0  0  0  0  0  0  0  0  0
  -37.0229   58.2098   62.0821 C   0  0  0  0  0  0  0  0  0  0  0  0
  -35.5683   58.6253   62.3410 C   0  0  0  0  0  0  0  0  0  0  0  0
  -34.8498   57.5447   63.1718 C   0  0  0  0  0  0  0  0  0  0  0  0
  -33.3312   57.4837   62.9198 C   0  0  0  0  0  0  0  0  0  0  0  0
  -32.4945   58.4156   63.8162 C   0  0  0  0  0  0  0  0  0  0  0  0
  -31.4391   59.2187   63.0272 C   0  0  0  0  0  0  0  0  0  0  0  0
  -32.0097   60.0491   61.8541 C   0  0  0  0  0  0  0  0  0  0  0  0
  -31.2293   61.3409   61.5848 C   0  0  0  0  0  0  0  0  0  0  0  0
  -30.2227   61.7369   62.6696 C   0  0  0  0  0  0  0  0  0  0  0  0
  -30.4705   63.1724   63.1678 C   0  0  0  0  0  0  0  0  0  0  0  0
  -30.8565   64.1596   62.0558 C   0  0  0  0  0  0  0  0  0  0  0  0
  -32.1719   64.9169   62.2650 C   0  0  0  0  0  0  0  0  0  0  0  0
  -33.3129   64.4857   61.3101 C   0  0  0  0  0  0  0  0  0  0  0  0
  -34.6177   65.2525   61.6063 C   0  0  0  0  0  0  0  0  0  0  0  0
  -35.9344   64.5699   61.2168 C   0  0  0  0  0  0  0  0  0  0  0  0
 46 47  1  0  0  0
 46 48  1  0  0  0
 46 45  1  0  0  0
 47 49  2  0  0  0
 47 51  1  0  0  0
 19 20  2  0  0  0
 37 38  1  0  0  0
 37 39  1  0  0  0
 37 40  1  0  0  0
 37 41  1  0  0  0
 48 50  1  0  0  0
 38 29  1  0  0  0
 45 44  1  0  0  0
 25 27  1  0  0  0
 25 35  1  0  0  0
 25 28  1  0  0  0
 21 20  1  0  0  0
 21 22  1  0  0  0
 44 42  1  0  0  0
  2  1  1  0  0  0
  2  4  1  0  0  0
  2  5  1  0  0  0
 26 27  2  0  0  0
 42 43  2  0  0  0
 29 31  1  0  0  0
 29 36  1  0  0  0
  3  4  2  0  0  0
 43  1  1  0  0  0
  6  9  2  0  0  0
  6 10  1  0  0  0
  1 20  1  0  0  0
 30 36  2  0  0  0
  7  8  1  0  0  0
  7  9  1  0  0  0
 22 24  1  0  0  0
 22 23  1  0  0  0
 11 12  1  0  0  0
 11 18  1  0  0  0
 24 27  1  0  0  0
  4 10  1  0  0  0
 51 52  1  0  0  0
 52 53  1  0  0  0
 53 54  1  0  0  0
 54 55  1  0  0  0
 55 56  1  0  0  0
 56 57  1  0  0  0
 57 58  1  0  0  0
 58 59  1  0  0  0
 59 60  1  0  0  0
 60 61  1  0  0  0
 61 62  1  0  0  0
 62 63  1  0  0  0
 63 64  1  0  0  0
 64 65  1  0  0  0
 31 32  1  0  0  0
 32 33  1  0  0  0
 33 34  1  0  0  0
 34 35  1  0  0  0
 35 36  1  0  0  0
  8 10  1  0  0  0
  9 17  1  0  0  0
 12 13  2  0  0  0
 12 17  1  0  0  0
 13 14  1  0  0  0
 14 15  2  0  0  0
 15 16  1  0  0  0
 16 17  2  0  0  0
M  END
> <minimizedAffinity>
-9.49395

> <CNNscore>
0.1974110156

> <CNNaffinity>
7.3730034828

> <CNN_VS>
1.4555120468

> <CNNaffinity_variance>
1.1201629639

$$$$
/media/chris/experiments/cd1a-new-docking/inputs/ligands/1xz0_ligand.pdb


 65 67  0  0  0  0  0  0  0  0999 V2000
  -40.8320   58.0695   63.6274 C   0  0  0  0  0  0  0  0  0  0  0  0
  -39.5875   57.9369   64.3876 N   0  0  0  0  0  0  0  0  0  0  0  0
  -39.0996   60.0858   64.9507 O   0  0  0  0  0  0  0  0  0  0  0  0
  -38.8389   58.8901   64.9693 C   0  0  0  0  0  0  0  0  0  0  0  0
  -39.2504   57.0173   64.4870 H   0  0  0  0  0  0  0  0  0  0  0  0
  -36.3587   59.0412   64.8911 N   0  0  0  0  0  0  0  0  0  0  0  0
  -35.8581   56.8678   65.0245 O   0  0  0  0  0  0  0  0  0  0  0  0
  -37.1353   56.9658   65.6534 C   0  0  0  0  0  0  0  0  0  0  0  0
  -35.4809   58.1864   64.5808 C   0  0  0  0  0  0  0  0  0  0  0  0
  -37.5193   58.4705   65.6010 C   0  0  0  0  0  0  0  0  0  0  0  0
  -32.9013   58.2604   65.8991 O   0  0  0  0  0  0  0  0  0  0  0  0
  -32.9602   58.4971   64.5829 C   0  0  0  0  0  0  0  0  0  0  0  0
  -31.7810   58.7574   63.8726 C   0  0  0  0  0  0  0  0  0  0  0  0
  -31.8172   59.0182   62.4924 C   0  0  0  0  0  0  0  0  0  0  0  0
  -33.0321   59.0117   61.8049 C   0  0  0  0  0  0  0  0  0  0  0  0
  -34.2106   58.7463   62.5079 C   0  0  0  0  0  0  0  0  0  0  0  0
  -34.1784   58.4932   63.8927 C   0  0  0  0  0  0  0  0  0  0  0  0
  -32.0746   58.2681   66.3400 H   0  0  0  0  0  0  0  0  0  0  0  0
  -41.1101   59.7188   61.9134 O   0  0  0  0  0  0  0  0  0  0  0  0
  -40.4688   58.7688   62.3313 C   0  0  0  0  0  0  0  0  0  0  0  0
  -39.3624   58.2609   61.5133 O   0  0  0  0  0  0  0  0  0  0  0  0
  -38.5277   59.1497   60.7470 C   0  0  0  0  0  0  0  0  0  0  0  0
  -38.0730   58.5902   59.4048 C   0  0  0  0  0  0  0  0  0  0  0  0
  -37.3380   59.5499   61.6064 C   0  0  0  0  0  0  0  0  0  0  0  0
  -36.5536   61.3231   63.1019 N   0  0  0  0  0  0  0  0  0  0  0  0
  -38.4257   61.5820   61.8596 O   0  0  0  0  0  0  0  0  0  0  0  0
  -37.4941   60.9104   62.2398 C   0  0  0  0  0  0  0  0  0  0  0  0
  -35.8404   60.6876   63.3399 H   0  0  0  0  0  0  0  0  0  0  0  0
  -34.3399   63.5453   62.9722 N   0  0  0  0  0  0  0  0  0  0  0  0
  -36.2405   64.6393   62.4659 O   0  0  0  0  0  0  0  0  0  0  0  0
  -33.5997   62.3280   63.3357 C   0  0  0  0  0  0  0  0  0  0  0  0
  -33.7128   62.0522   64.8469 C   0  0  0  0  0  0  0  0  0  0  0  0
  -34.6825   62.9486   65.5992 C   0  0  0  0  0  0  0  0  0  0  0  0
  -36.1434   62.7120   65.2076 C   0  0  0  0  0  0  0  0  0  0  0  0
  -36.5125   62.6554   63.7158 C   0  0  0  0  0  0  0  0  0  0  0  0
  -35.6751   63.6870   62.9856 C   0  0  0  0  0  0  0  0  0  0  0  0
  -34.3009   65.8357   61.4635 Si  0  0  0  0  0  0  0  0  0  0  0  0
  -33.6054   64.6226   62.5772 O   0  0  0  0  0  0  0  0  0  0  0  0
  -33.3406   66.8504   61.2094 H   0  0  0  0  0  0  0  0  0  0  0  0
  -35.4553   66.4140   62.0545 H   0  0  0  0  0  0  0  0  0  0  0  0
  -34.6592   65.2065   60.2420 H   0  0  0  0  0  0  0  0  0  0  0  0
  -43.2822   57.8086   64.5344 C   0  0  0  0  0  0  0  0  0  0  0  0
  -42.0464   58.6985   64.3524 C   0  0  0  0  0  0  0  0  0  0  0  0
  -44.6110   58.5195   64.8421 C   0  0  0  0  0  0  0  0  0  0  0  0
  -45.2489   58.2686   66.2239 C   0  0  0  0  0  0  0  0  0  0  0  0
  -46.5915   57.7168   66.0172 N   0  0  0  0  0  0  0  0  0  0  0  0
  -47.7546   58.3700   65.7558 C   0  0  0  0  0  0  0  0  0  0  0  0
  -46.6517   56.3189   66.1066 O   0  0  0  0  0  0  0  0  0  0  0  0
  -48.8104   57.7555   65.6054 O   0  0  0  0  0  0  0  0  0  0  0  0
  -47.5642   56.0245   65.9603 H   0  0  0  0  0  0  0  0  0  0  0  0
  -47.7379   59.8980   65.6424 C   0  0  0  0  0  0  0  0  0  0  0  0
  -47.5323   60.4274   64.2166 C   0  0  0  0  0  0  0  0  0  0  0  0
  -48.8931   60.7609   63.5753 C   0  0  0  0  0  0  0  0  0  0  0  0
  -49.9955   61.0801   64.6029 C   0  0  0  0  0  0  0  0  0  0  0  0
  -51.2369   60.1728   64.5146 C   0  0  0  0  0  0  0  0  0  0  0  0
  -51.9143   60.2158   63.1288 C   0  0  0  0  0  0  0  0  0  0  0  0
  -51.8817   58.8764   62.3566 C   0  0  0  0  0  0  0  0  0  0  0  0
  -50.8651   57.8743   62.9160 C   0  0  0  0  0  0  0  0  0  0  0  0
  -49.6308   57.6351   62.0407 C   0  0  0  0  0  0  0  0  0  0  0  0
  -50.0280   57.2184   60.6127 C   0  0  0  0  0  0  0  0  0  0  0  0
  -49.1529   56.1014   60.0239 C   0  0  0  0  0  0  0  0  0  0  0  0
  -48.1991   56.5245   58.9019 C   0  0  0  0  0  0  0  0  0  0  0  0
  -48.2005   58.0449   58.6054 C   0  0  0  0  0  0  0  0  0  0  0  0
  -47.4178   58.3701   57.3172 C   0  0  0  0  0  0  0  0  0  0  0  0
  -47.8869   57.6934   56.0236 C   0  0  0  0  0  0  0  0  0  0  0  0
 46 47  1  0  0  0
 46 48  1  0  0  0
 46 45  1  0  0  0
 47 49  2  0  0  0
 47 51  1  0  0  0
 19 20  2  0  0  0
 37 38  1  0  0  0
 37 39  1  0  0  0
 37 40  1  0  0  0
 37 41  1  0  0  0
 48 50  1  0  0  0
 38 29  1  0  0  0
 45 44  1  0  0  0
 25 27  1  0  0  0
 25 35  1  0  0  0
 25 28  1  0  0  0
 21 20  1  0  0  0
 21 22  1  0  0  0
 44 42  1  0  0  0
  2  1  1  0  0  0
  2  4  1  0  0  0
  2  5  1  0  0  0
 26 27  2  0  0  0
 42 43  2  0  0  0
 29 31  1  0  0  0
 29 36  1  0  0  0
  3  4  2  0  0  0
 43  1  1  0  0  0
  6  9  2  0  0  0
  6 10  1  0  0  0
  1 20  1  0  0  0
 30 36  2  0  0  0
  7  8  1  0  0  0
  7  9  1  0  0  0
 22 24  1  0  0  0
 22 23  1  0  0  0
 11 12  1  0  0  0
 11 18  1  0  0  0
 24 27  1  0  0  0
  4 10  1  0  0  0
 51 52  1  0  0  0
 52 53  1  0  0  0
 53 54  1  0  0  0
 54 55  1  0  0  0
 55 56  1  0  0  0
 56 57  1  0  0  0
 57 58  1  0  0  0
 58 59  1  0  0  0
 59 60  1  0  0  0
 60 61  1  0  0  0
 61 62  1  0  0  0
 62 63  1  0  0  0
 63 64  1  0  0  0
 64 65  1  0  0  0
 31 32  1  0  0  0
 32 33  1  0  0  0
 33 34  1  0  0  0
 34 35  1  0  0  0
 35 36  1  0  0  0
  8 10  1  0  0  0
  9 17  1  0  0  0
 12 13  2  0  0  0
 12 17  1  0  0  0
 13 14  1  0  0  0
 14 15  2  0  0  0
 15 16  1  0  0  0
 16 17  2  0  0  0
M  END
> <minimizedAffinity>
-9.19501

> <CNNscore>
0.1773133576

> <CNNaffinity>
7.3575820923

> <CNN_VS>
1.3045976162

> <CNNaffinity_variance>
0.3568329811

$$$$
/media/chris/experiments/cd1a-new-docking/inputs/ligands/1xz0_ligand.pdb


 65 67  0  0  0  0  0  0  0  0999 V2000
  -42.1762   58.5863   65.8687 C   0  0  0  0  0  0  0  0  0  0  0  0
  -41.8052   57.7458   64.7285 N   0  0  0  0  0  0  0  0  0  0  0  0
  -42.4923   55.6756   65.3729 O   0  0  0  0  0  0  0  0  0  0  0  0
  -41.9728   56.4232   64.5548 C   0  0  0  0  0  0  0  0  0  0  0  0
  -41.3704   58.2171   63.9815 H   0  0  0  0  0  0  0  0  0  0  0  0
  -40.3013   56.6133   62.7245 N   0  0  0  0  0  0  0  0  0  0  0  0
  -41.6300   56.2046   60.9753 O   0  0  0  0  0  0  0  0  0  0  0  0
  -42.2807   55.5479   62.0624 C   0  0  0  0  0  0  0  0  0  0  0  0
  -40.4406   56.8370   61.4883 C   0  0  0  0  0  0  0  0  0  0  0  0
  -41.3792   55.7898   63.3047 C   0  0  0  0  0  0  0  0  0  0  0  0
  -38.1028   58.2241   62.4925 O   0  0  0  0  0  0  0  0  0  0  0  0
  -38.3494   58.2443   61.1769 C   0  0  0  0  0  0  0  0  0  0  0  0
  -37.4703   58.9164   60.3177 C   0  0  0  0  0  0  0  0  0  0  0  0
  -37.7119   58.9601   58.9342 C   0  0  0  0  0  0  0  0  0  0  0  0
  -38.8303   58.3237   58.3931 C   0  0  0  0  0  0  0  0  0  0  0  0
  -39.7070   57.6465   59.2454 C   0  0  0  0  0  0  0  0  0  0  0  0
  -39.4721   57.6083   60.6332 C   0  0  0  0  0  0  0  0  0  0  0  0
  -37.3450   58.6567   62.8338 H   0  0  0  0  0  0  0  0  0  0  0  0
  -43.6753   59.7400   64.4000 O   0  0  0  0  0  0  0  0  0  0  0  0
  -43.4902   59.2491   65.5015 C   0  0  0  0  0  0  0  0  0  0  0  0
  -44.5517   59.3713   66.5061 O   0  0  0  0  0  0  0  0  0  0  0  0
  -45.8058   58.6789   66.3590 C   0  0  0  0  0  0  0  0  0  0  0  0
  -45.6825   57.2485   65.8488 C   0  0  0  0  0  0  0  0  0  0  0  0
  -46.7079   59.5076   65.4568 C   0  0  0  0  0  0  0  0  0  0  0  0
  -48.3093   58.7774   63.7544 N   0  0  0  0  0  0  0  0  0  0  0  0
  -48.5504   58.1788   65.9221 O   0  0  0  0  0  0  0  0  0  0  0  0
  -47.9682   58.7839   65.0512 C   0  0  0  0  0  0  0  0  0  0  0  0
  -47.7602   59.3094   63.1341 H   0  0  0  0  0  0  0  0  0  0  0  0
  -49.7085   59.0225   60.9549 N   0  0  0  0  0  0  0  0  0  0  0  0
  -49.3131   56.8179   61.1751 O   0  0  0  0  0  0  0  0  0  0  0  0
  -49.6532   60.4072   61.4462 C   0  0  0  0  0  0  0  0  0  0  0  0
  -50.8087   60.6843   62.4264 C   0  0  0  0  0  0  0  0  0  0  0  0
  -51.6306   59.4682   62.8208 C   0  0  0  0  0  0  0  0  0  0  0  0
  -50.8437   58.4617   63.6643 C   0  0  0  0  0  0  0  0  0  0  0  0
  -49.4435   58.0333   63.1946 C   0  0  0  0  0  0  0  0  0  0  0  0
  -49.4698   57.9198   61.6829 C   0  0  0  0  0  0  0  0  0  0  0  0
  -50.7100   57.2938   59.0754 Si  0  0  0  0  0  0  0  0  0  0  0  0
  -50.0205   58.8432   59.6409 O   0  0  0  0  0  0  0  0  0  0  0  0
  -50.9443   57.3624   57.6765 H   0  0  0  0  0  0  0  0  0  0  0  0
  -51.9356   57.0472   59.7490 H   0  0  0  0  0  0  0  0  0  0  0  0
  -49.7980   56.2410   59.3516 H   0  0  0  0  0  0  0  0  0  0  0  0
  -39.9183   59.8702   65.4842 C   0  0  0  0  0  0  0  0  0  0  0  0
  -41.1108   59.5745   66.4022 C   0  0  0  0  0  0  0  0  0  0  0  0
  -38.6686   60.4786   66.1429 C   0  0  0  0  0  0  0  0  0  0  0  0
  -37.3053   59.8389   65.8089 C   0  0  0  0  0  0  0  0  0  0  0  0
  -36.7645   60.5038   64.6193 N   0  0  0  0  0  0  0  0  0  0  0  0
  -35.6993   60.1518   63.8517 C   0  0  0  0  0  0  0  0  0  0  0  0
  -37.4651   61.6594   64.2459 O   0  0  0  0  0  0  0  0  0  0  0  0
  -35.3697   60.8223   62.8736 O   0  0  0  0  0  0  0  0  0  0  0  0
  -37.0550   62.0452   63.4561 H   0  0  0  0  0  0  0  0  0  0  0  0
  -34.9060   58.8927   64.2165 C   0  0  0  0  0  0  0  0  0  0  0  0
  -34.6394   57.9458   63.0384 C   0  0  0  0  0  0  0  0  0  0  0  0
  -33.1228   57.8082   62.8037 C   0  0  0  0  0  0  0  0  0  0  0  0
  -32.2831   58.8317   63.5914 C   0  0  0  0  0  0  0  0  0  0  0  0
  -31.1143   59.4475   62.7998 C   0  0  0  0  0  0  0  0  0  0  0  0
  -31.5806   60.4523   61.7255 C   0  0  0  0  0  0  0  0  0  0  0  0
  -30.4358   61.0982   60.9109 C   0  0  0  0  0  0  0  0  0  0  0  0
  -30.1908   62.5699   61.2640 C   0  0  0  0  0  0  0  0  0  0  0  0
  -31.3701   63.5119   61.0018 C   0  0  0  0  0  0  0  0  0  0  0  0
  -31.7614   64.2880   62.2727 C   0  0  0  0  0  0  0  0  0  0  0  0
  -30.9304   63.9161   63.5101 C   0  0  0  0  0  0  0  0  0  0  0  0
  -31.7289   63.6199   64.7837 C   0  0  0  0  0  0  0  0  0  0  0  0
  -32.8624   62.5807   64.5966 C   0  0  0  0  0  0  0  0  0  0  0  0
  -33.5042   62.1956   65.9449 C   0  0  0  0  0  0  0  0  0  0  0  0
  -34.0136   63.3398   66.8296 C   0  0  0  0  0  0  0  0  0  0  0  0
 46 47  1  0  0  0
 46 48  1  0  0  0
 46 45  1  0  0  0
 47 49  2  0  0  0
 47 51  1  0  0  0
 19 20  2  0  0  0
 37 38  1  0  0  0
 37 39  1  0  0  0
 37 40  1  0  0  0
 37 41  1  0  0  0
 48 50  1  0  0  0
 38 29  1  0  0  0
 45 44  1  0  0  0
 25 27  1  0  0  0
 25 35  1  0  0  0
 25 28  1  0  0  0
 21 20  1  0  0  0
 21 22  1  0  0  0
 44 42  1  0  0  0
  2  1  1  0  0  0
  2  4  1  0  0  0
  2  5  1  0  0  0
 26 27  2  0  0  0
 42 43  2  0  0  0
 29 31  1  0  0  0
 29 36  1  0  0  0
  3  4  2  0  0  0
 43  1  1  0  0  0
  6  9  2  0  0  0
  6 10  1  0  0  0
  1 20  1  0  0  0
 30 36  2  0  0  0
  7  8  1  0  0  0
  7  9  1  0  0  0
 22 24  1  0  0  0
 22 23  1  0  0  0
 11 12  1  0  0  0
 11 18  1  0  0  0
 24 27  1  0  0  0
  4 10  1  0  0  0
 51 52  1  0  0  0
 52 53  1  0  0  0
 53 54  1  0  0  0
 54 55  1  0  0  0
 55 56  1  0  0  0
 56 57  1  0  0  0
 57 58  1  0  0  0
 58 59  1  0  0  0
 59 60  1  0  0  0
 60 61  1  0  0  0
 61 62  1  0  0  0
 62 63  1  0  0  0
 63 64  1  0  0  0
 64 65  1  0  0  0
 31 32  1  0  0  0
 32 33  1  0  0  0
 33 34  1  0  0  0
 34 35  1  0  0  0
 35 36  1  0  0  0
  8 10  1  0  0  0
  9 17  1  0  0  0
 12 13  2  0  0  0
 12 17  1  0  0  0
 13 14  1  0  0  0
 14 15  2  0  0  0
 15 16  1  0  0  0
 16 17  2  0  0  0
M  END
> <minimizedAffinity>
-8.82762

> <CNNscore>
0.1762382239

> <CNNaffinity>
7.3539414406

> <CNN_VS>
1.2960455418

> <CNNaffinity_variance>
0.4203418195

$$$$
/media/chris/experiments/cd1a-new-docking/inputs/ligands/1xz0_ligand.pdb


 65 67  0  0  0  0  0  0  0  0999 V2000
  -42.5367   57.6255   64.7184 C   0  0  0  0  0  0  0  0  0  0  0  0
  -43.9478   57.6159   65.1093 N   0  0  0  0  0  0  0  0  0  0  0  0
  -44.6772   59.6656   64.4463 O   0  0  0  0  0  0  0  0  0  0  0  0
  -44.8794   58.5738   64.9613 C   0  0  0  0  0  0  0  0  0  0  0  0
  -44.2592   56.7887   65.5429 H   0  0  0  0  0  0  0  0  0  0  0  0
  -47.3416   58.6223   64.6218 N   0  0  0  0  0  0  0  0  0  0  0  0
  -47.9375   59.7640   66.4476 O   0  0  0  0  0  0  0  0  0  0  0  0
  -46.6992   59.1553   66.8115 C   0  0  0  0  0  0  0  0  0  0  0  0
  -48.2323   59.3887   65.0874 C   0  0  0  0  0  0  0  0  0  0  0  0
  -46.2518   58.3309   65.5726 C   0  0  0  0  0  0  0  0  0  0  0  0
  -50.7924   59.8913   66.3486 O   0  0  0  0  0  0  0  0  0  0  0  0
  -50.6809   60.0605   65.0255 C   0  0  0  0  0  0  0  0  0  0  0  0
  -51.7908   60.4894   64.2861 C   0  0  0  0  0  0  0  0  0  0  0  0
  -51.7021   60.6654   62.8949 C   0  0  0  0  0  0  0  0  0  0  0  0
  -50.4993   60.4240   62.2287 C   0  0  0  0  0  0  0  0  0  0  0  0
  -49.3874   60.0020   62.9628 C   0  0  0  0  0  0  0  0  0  0  0  0
  -49.4757   59.8164   64.3558 C   0  0  0  0  0  0  0  0  0  0  0  0
  -51.6091   60.0609   66.7754 H   0  0  0  0  0  0  0  0  0  0  0  0
  -41.8229   55.3555   64.9887 O   0  0  0  0  0  0  0  0  0  0  0  0
  -42.2189   56.2250   64.2300 C   0  0  0  0  0  0  0  0  0  0  0  0
  -42.3204   55.9099   62.8013 O   0  0  0  0  0  0  0  0  0  0  0  0
  -41.1467   55.7863   61.9760 C   0  0  0  0  0  0  0  0  0  0  0  0
  -39.9752   56.6595   62.4077 C   0  0  0  0  0  0  0  0  0  0  0  0
  -41.5420   56.0713   60.5348 C   0  0  0  0  0  0  0  0  0  0  0  0
  -41.3514   58.4999   60.2863 N   0  0  0  0  0  0  0  0  0  0  0  0
  -39.8633   57.1028   59.3122 O   0  0  0  0  0  0  0  0  0  0  0  0
  -40.8645   57.2927   59.9640 C   0  0  0  0  0  0  0  0  0  0  0  0
  -42.1763   58.5323   60.8226 H   0  0  0  0  0  0  0  0  0  0  0  0
  -39.8884   60.6622   62.0295 N   0  0  0  0  0  0  0  0  0  0  0  0
  -38.4778   60.3002   60.3136 O   0  0  0  0  0  0  0  0  0  0  0  0
  -41.1429   60.4117   62.7543 C   0  0  0  0  0  0  0  0  0  0  0  0
  -42.3023   61.2103   62.1292 C   0  0  0  0  0  0  0  0  0  0  0  0
  -41.9727   61.9207   60.8267 C   0  0  0  0  0  0  0  0  0  0  0  0
  -41.7023   60.9550   59.6699 C   0  0  0  0  0  0  0  0  0  0  0  0
  -40.7412   59.7761   59.8959 C   0  0  0  0  0  0  0  0  0  0  0  0
  -39.6077   60.2574   60.7804 C   0  0  0  0  0  0  0  0  0  0  0  0
  -37.3730   61.7460   61.8815 Si  0  0  0  0  0  0  0  0  0  0  0  0
  -38.9207   61.3593   62.6882 O   0  0  0  0  0  0  0  0  0  0  0  0
  -36.5422   62.4728   62.7749 H   0  0  0  0  0  0  0  0  0  0  0  0
  -37.6250   62.5308   60.7252 H   0  0  0  0  0  0  0  0  0  0  0  0
  -36.7223   60.5418   61.5035 H   0  0  0  0  0  0  0  0  0  0  0  0
  -40.6282   59.3352   65.2919 C   0  0  0  0  0  0  0  0  0  0  0  0
  -41.5159   58.1703   65.7468 C   0  0  0  0  0  0  0  0  0  0  0  0
  -39.3496   59.5938   66.1069 C   0  0  0  0  0  0  0  0  0  0  0  0
  -38.0320   58.9958   65.5725 C   0  0  0  0  0  0  0  0  0  0  0  0
  -37.1504   60.1006   65.1829 N   0  0  0  0  0  0  0  0  0  0  0  0
  -35.8726   60.0542   64.7212 C   0  0  0  0  0  0  0  0  0  0  0  0
  -37.7347   61.3681   65.3149 O   0  0  0  0  0  0  0  0  0  0  0  0
  -35.2615   61.0831   64.4336 O   0  0  0  0  0  0  0  0  0  0  0  0
  -37.0989   62.0475   65.0412 H   0  0  0  0  0  0  0  0  0  0  0  0
  -35.1935   58.6909   64.5540 C   0  0  0  0  0  0  0  0  0  0  0  0
  -35.1018   58.2001   63.1027 C   0  0  0  0  0  0  0  0  0  0  0  0
  -33.8097   58.7253   62.4478 C   0  0  0  0  0  0  0  0  0  0  0  0
  -32.5736   58.6289   63.3620 C   0  0  0  0  0  0  0  0  0  0  0  0
  -31.3457   59.4149   62.8656 C   0  0  0  0  0  0  0  0  0  0  0  0
  -31.6628   60.3248   61.6603 C   0  0  0  0  0  0  0  0  0  0  0  0
  -31.6979   61.8356   61.9884 C   0  0  0  0  0  0  0  0  0  0  0  0
  -30.7257   62.2407   63.1026 C   0  0  0  0  0  0  0  0  0  0  0  0
  -30.8195   63.7011   63.5554 C   0  0  0  0  0  0  0  0  0  0  0  0
  -32.0654   64.3910   62.9705 C   0  0  0  0  0  0  0  0  0  0  0  0
  -33.0863   64.8345   64.0293 C   0  0  0  0  0  0  0  0  0  0  0  0
  -32.5063   65.5444   65.2570 C   0  0  0  0  0  0  0  0  0  0  0  0
  -33.2829   65.2795   66.5710 C   0  0  0  0  0  0  0  0  0  0  0  0
  -33.9908   63.9098   66.5427 C   0  0  0  0  0  0  0  0  0  0  0  0
  -33.1264   62.6697   66.8001 C   0  0  0  0  0  0  0  0  0  0  0  0
 46 47  1  0  0  0
 46 48  1  0  0  0
 46 45  1  0  0  0
 47 49  2  0  0  0
 47 51  1  0  0  0
 19 20  2  0  0  0
 37 38  1  0  0  0
 37 39  1  0  0  0
 37 40  1  0  0  0
 37 41  1  0  0  0
 48 50  1  0  0  0
 38 29  1  0  0  0
 45 44  1  0  0  0
 25 27  1  0  0  0
 25 35  1  0  0  0
 25 28  1  0  0  0
 21 20  1  0  0  0
 21 22  1  0  0  0
 44 42  1  0  0  0
  2  1  1  0  0  0
  2  4  1  0  0  0
  2  5  1  0  0  0
 26 27  2  0  0  0
 42 43  2  0  0  0
 29 31  1  0  0  0
 29 36  1  0  0  0
  3  4  2  0  0  0
 43  1  1  0  0  0
  6  9  2  0  0  0
  6 10  1  0  0  0
  1 20  1  0  0  0
 30 36  2  0  0  0
  7  8  1  0  0  0
  7  9  1  0  0  0
 22 24  1  0  0  0
 22 23  1  0  0  0
 11 12  1  0  0  0
 11 18  1  0  0  0
 24 27  1  0  0  0
  4 10  1  0  0  0
 51 52  1  0  0  0
 52 53  1  0  0  0
 53 54  1  0  0  0
 54 55  1  0  0  0
 55 56  1  0  0  0
 56 57  1  0  0  0
 57 58  1  0  0  0
 58 59  1  0  0  0
 59 60  1  0  0  0
 60 61  1  0  0  0
 61 62  1  0  0  0
 62 63  1  0  0  0
 63 64  1  0  0  0
 64 65  1  0  0  0
 31 32  1  0  0  0
 32 33  1  0  0  0
 33 34  1  0  0  0
 34 35  1  0  0  0
 35 36  1  0  0  0
  8 10  1  0  0  0
  9 17  1  0  0  0
 12 13  2  0  0  0
 12 17  1  0  0  0
 13 14  1  0  0  0
 14 15  2  0  0  0
 15 16  1  0  0  0
 16 17  2  0  0  0
M  END
> <minimizedAffinity>
-9.24164

> <CNNscore>
0.1595738083

> <CNNaffinity>
7.4306921959

> <CNN_VS>
1.1857438087

> <CNNaffinity_variance>
1.3134979010

$$$$
