/media/chris/experiments/cd1a-new-docking/inputs/ligands/1xz0_ligand.pdb


 65 67  0  0  0  0  0  0  0  0999 V2000
  -43.4170   58.1913   64.3112 C   0  0  0  0  0  0  0  0  0  0  0  0
  -43.0725   58.5684   62.9389 N   0  0  0  0  0  0  0  0  0  0  0  0
  -41.7841   58.6175   61.0653 O   0  0  0  0  0  0  0  0  0  0  0  0
  -41.9911   58.2399   62.2109 C   0  0  0  0  0  0  0  0  0  0  0  0
  -43.7273   59.1458   62.4836 H   0  0  0  0  0  0  0  0  0  0  0  0
  -39.7529   57.8895   63.2346 N   0  0  0  0  0  0  0  0  0  0  0  0
  -39.0469   56.1759   61.9867 O   0  0  0  0  0  0  0  0  0  0  0  0
  -40.4695   56.0761   61.9348 C   0  0  0  0  0  0  0  0  0  0  0  0
  -38.7129   57.3242   62.7917 C   0  0  0  0  0  0  0  0  0  0  0  0
  -41.0085   57.2428   62.8082 C   0  0  0  0  0  0  0  0  0  0  0  0
  -37.0636   58.9586   61.0581 O   0  0  0  0  0  0  0  0  0  0  0  0
  -36.5603   58.5488   62.2288 C   0  0  0  0  0  0  0  0  0  0  0  0
  -35.2629   58.9290   62.5961 C   0  0  0  0  0  0  0  0  0  0  0  0
  -34.7084   58.5042   63.8152 C   0  0  0  0  0  0  0  0  0  0  0  0
  -35.4488   57.7024   64.6855 C   0  0  0  0  0  0  0  0  0  0  0  0
  -36.7460   57.3255   64.3264 C   0  0  0  0  0  0  0  0  0  0  0  0
  -37.3011   57.7424   63.1014 C   0  0  0  0  0  0  0  0  0  0  0  0
  -36.5492   59.4978   60.4900 H   0  0  0  0  0  0  0  0  0  0  0  0
  -45.6644   58.6879   63.6494 O   0  0  0  0  0  0  0  0  0  0  0  0
  -44.8354   58.6759   64.5444 C   0  0  0  0  0  0  0  0  0  0  0  0
  -45.2178   59.2098   65.8557 O   0  0  0  0  0  0  0  0  0  0  0  0
  -46.4323   58.7945   66.5086 C   0  0  0  0  0  0  0  0  0  0  0  0
  -46.8503   57.3593   66.2133 C   0  0  0  0  0  0  0  0  0  0  0  0
  -47.5352   59.7747   66.1379 C   0  0  0  0  0  0  0  0  0  0  0  0
  -48.4996   58.7511   64.1333 N   0  0  0  0  0  0  0  0  0  0  0  0
  -49.6842   58.9080   66.0537 O   0  0  0  0  0  0  0  0  0  0  0  0
  -48.6850   59.1259   65.4075 C   0  0  0  0  0  0  0  0  0  0  0  0
  -47.6430   58.9841   63.7079 H   0  0  0  0  0  0  0  0  0  0  0  0
  -49.4953   59.2554   61.1992 N   0  0  0  0  0  0  0  0  0  0  0  0
  -48.9751   57.0659   61.2293 O   0  0  0  0  0  0  0  0  0  0  0  0
  -49.6131   60.5711   61.8448 C   0  0  0  0  0  0  0  0  0  0  0  0
  -50.9148   60.6621   62.6633 C   0  0  0  0  0  0  0  0  0  0  0  0
  -51.6936   59.3631   62.7902 C   0  0  0  0  0  0  0  0  0  0  0  0
  -50.9646   58.3074   63.6255 C   0  0  0  0  0  0  0  0  0  0  0  0
  -49.4837   58.0181   63.3286 C   0  0  0  0  0  0  0  0  0  0  0  0
  -49.2837   58.0877   61.8272 C   0  0  0  0  0  0  0  0  0  0  0  0
  -48.7766   57.9428   58.9005 Si  0  0  0  0  0  0  0  0  0  0  0  0
  -49.6011   59.2197   59.8415 O   0  0  0  0  0  0  0  0  0  0  0  0
  -49.0426   58.1272   57.5179 H   0  0  0  0  0  0  0  0  0  0  0  0
  -49.2553   56.6698   59.3090 H   0  0  0  0  0  0  0  0  0  0  0  0
  -47.3767   58.0171   59.1270 H   0  0  0  0  0  0  0  0  0  0  0  0
  -41.8537   60.0191   65.3644 C   0  0  0  0  0  0  0  0  0  0  0  0
  -42.4300   58.5995   65.4316 C   0  0  0  0  0  0  0  0  0  0  0  0
  -40.5789   60.2909   66.1810 C   0  0  0  0  0  0  0  0  0  0  0  0
  -39.2576   59.6906   65.6582 C   0  0  0  0  0  0  0  0  0  0  0  0
  -38.7304   60.5771   64.6159 N   0  0  0  0  0  0  0  0  0  0  0  0
  -37.5445   61.2400   64.5755 C   0  0  0  0  0  0  0  0  0  0  0  0
  -39.5914   60.7433   63.5220 O   0  0  0  0  0  0  0  0  0  0  0  0
  -37.2458   61.9532   63.6177 O   0  0  0  0  0  0  0  0  0  0  0  0
  -39.1810   61.3383   62.8751 H   0  0  0  0  0  0  0  0  0  0  0  0
  -36.5673   61.0845   65.7454 C   0  0  0  0  0  0  0  0  0  0  0  0
  -35.6455   62.2912   65.9686 C   0  0  0  0  0  0  0  0  0  0  0  0
  -34.1807   61.8250   66.0743 C   0  0  0  0  0  0  0  0  0  0  0  0
  -33.2573   62.8492   66.7608 C   0  0  0  0  0  0  0  0  0  0  0  0
  -33.8219   64.2808   66.8235 C   0  0  0  0  0  0  0  0  0  0  0  0
  -32.7319   65.3628   66.6749 C   0  0  0  0  0  0  0  0  0  0  0  0
  -32.1275   65.4744   65.2558 C   0  0  0  0  0  0  0  0  0  0  0  0
  -30.6047   65.3003   65.2258 C   0  0  0  0  0  0  0  0  0  0  0  0
  -30.1128   63.8594   65.0562 C   0  0  0  0  0  0  0  0  0  0  0  0
  -30.2964   63.3706   63.6079 C   0  0  0  0  0  0  0  0  0  0  0  0
  -31.5944   62.5821   63.3766 C   0  0  0  0  0  0  0  0  0  0  0  0
  -32.5588   63.1755   62.3444 C   0  0  0  0  0  0  0  0  0  0  0  0
  -34.0544   63.0592   62.7308 C   0  0  0  0  0  0  0  0  0  0  0  0
  -34.6739   64.4426   63.0143 C   0  0  0  0  0  0  0  0  0  0  0  0
  -35.9061   64.8393   62.1923 C   0  0  0  0  0  0  0  0  0  0  0  0
 46 47  1  0  0  0
 46 48  1  0  0  0
 46 45  1  0  0  0
 47 49  2  0  0  0
 47 51  1  0  0  0
 19 20  2  0  0  0
 37 38  1  0  0  0
 37 39  1  0  0  0
 37 40  1  0  0  0
 37 41  1  0  0  0
 48 50  1  0  0  0
 38 29  1  0  0  0
 45 44  1  0  0  0
 25 27  1  0  0  0
 25 35  1  0  0  0
 25 28  1  0  0  0
 21 20  1  0  0  0
 21 22  1  0  0  0
 44 42  1  0  0  0
  2  1  1  0  0  0
  2  4  1  0  0  0
  2  5  1  0  0  0
 26 27  2  0  0  0
 42 43  2  0  0  0
 29 31  1  0  0  0
 29 36  1  0  0  0
  3  4  2  0  0  0
 43  1  1  0  0  0
  6  9  2  0  0  0
  6 10  1  0  0  0
  1 20  1  0  0  0
 30 36  2  0  0  0
  7  8  1  0  0  0
  7  9  1  0  0  0
 22 24  1  0  0  0
 22 23  1  0  0  0
 11 12  1  0  0  0
 11 18  1  0  0  0
 24 27  1  0  0  0
  4 10  1  0  0  0
 51 52  1  0  0  0
 52 53  1  0  0  0
 53 54  1  0  0  0
 54 55  1  0  0  0
 55 56  1  0  0  0
 56 57  1  0  0  0
 57 58  1  0  0  0
 58 59  1  0  0  0
 59 60  1  0  0  0
 60 61  1  0  0  0
 61 62  1  0  0  0
 62 63  1  0  0  0
 63 64  1  0  0  0
 64 65  1  0  0  0
 31 32  1  0  0  0
 32 33  1  0  0  0
 33 34  1  0  0  0
 34 35  1  0  0  0
 35 36  1  0  0  0
  8 10  1  0  0  0
  9 17  1  0  0  0
 12 13  2  0  0  0
 12 17  1  0  0  0
 13 14  1  0  0  0
 14 15  2  0  0  0
 15 16  1  0  0  0
 16 17  2  0  0  0
M  END
> <minimizedAffinity>
-9.01820

> <CNNscore>
0.2577064931

> <CNNaffinity>
7.1748900414

> <CNN_VS>
1.8490157127

> <CNNaffinity_variance>
0.9482737780

$$$$
/media/chris/experiments/cd1a-new-docking/inputs/ligands/1xz0_ligand.pdb


 65 67  0  0  0  0  0  0  0  0999 V2000
  -35.6126   57.7881   62.7264 C   0  0  0  0  0  0  0  0  0  0  0  0
  -36.3495   57.3660   63.9193 N   0  0  0  0  0  0  0  0  0  0  0  0
  -37.6208   57.6622   65.7818 O   0  0  0  0  0  0  0  0  0  0  0  0
  -37.0431   58.1087   64.7995 C   0  0  0  0  0  0  0  0  0  0  0  0
  -36.3350   56.3989   64.1032 H   0  0  0  0  0  0  0  0  0  0  0  0
  -36.0408   60.3809   64.9112 N   0  0  0  0  0  0  0  0  0  0  0  0
  -37.7496   61.4868   65.8327 O   0  0  0  0  0  0  0  0  0  0  0  0
  -38.3694   60.3833   65.1734 C   0  0  0  0  0  0  0  0  0  0  0  0
  -36.3268   61.3840   65.6249 C   0  0  0  0  0  0  0  0  0  0  0  0
  -37.2161   59.5904   64.4984 C   0  0  0  0  0  0  0  0  0  0  0  0
  -36.9811   64.0990   66.3981 O   0  0  0  0  0  0  0  0  0  0  0  0
  -35.7158   63.6802   66.5218 C   0  0  0  0  0  0  0  0  0  0  0  0
  -34.7449   64.5509   67.0338 C   0  0  0  0  0  0  0  0  0  0  0  0
  -33.4082   64.1385   67.1647 C   0  0  0  0  0  0  0  0  0  0  0  0
  -33.0290   62.8471   66.7943 C   0  0  0  0  0  0  0  0  0  0  0  0
  -33.9951   61.9726   66.2888 C   0  0  0  0  0  0  0  0  0  0  0  0
  -35.3338   62.3859   66.1483 C   0  0  0  0  0  0  0  0  0  0  0  0
  -37.2137   64.9697   66.6545 H   0  0  0  0  0  0  0  0  0  0  0  0
  -33.7468   57.9460   64.2195 O   0  0  0  0  0  0  0  0  0  0  0  0
  -34.3004   58.3689   63.2179 C   0  0  0  0  0  0  0  0  0  0  0  0
  -33.7022   59.5127   62.5215 O   0  0  0  0  0  0  0  0  0  0  0  0
  -32.3427   59.4742   62.0480 C   0  0  0  0  0  0  0  0  0  0  0  0
  -31.3263   59.0029   63.0807 C   0  0  0  0  0  0  0  0  0  0  0  0
  -31.9824   60.8517   61.5123 C   0  0  0  0  0  0  0  0  0  0  0  0
  -33.5343   62.5841   62.2780 N   0  0  0  0  0  0  0  0  0  0  0  0
  -31.5922   62.1872   63.3672 O   0  0  0  0  0  0  0  0  0  0  0  0
  -32.3548   61.9706   62.4534 C   0  0  0  0  0  0  0  0  0  0  0  0
  -34.0726   62.3257   61.4953 H   0  0  0  0  0  0  0  0  0  0  0  0
  -35.1705   65.1797   61.6145 N   0  0  0  0  0  0  0  0  0  0  0  0
  -36.3703   64.1786   63.2343 O   0  0  0  0  0  0  0  0  0  0  0  0
  -34.0144   65.2481   60.7087 C   0  0  0  0  0  0  0  0  0  0  0  0
  -32.7797   65.8055   61.4419 C   0  0  0  0  0  0  0  0  0  0  0  0
  -32.9436   65.9886   62.9418 C   0  0  0  0  0  0  0  0  0  0  0  0
  -33.0848   64.6630   63.6946 C   0  0  0  0  0  0  0  0  0  0  0  0
  -34.0792   63.6136   63.1705 C   0  0  0  0  0  0  0  0  0  0  0  0
  -35.3046   64.3437   62.6565 C   0  0  0  0  0  0  0  0  0  0  0  0
  -37.6036   66.1086   62.4754 Si  0  0  0  0  0  0  0  0  0  0  0  0
  -36.2019   66.0351   61.3684 O   0  0  0  0  0  0  0  0  0  0  0  0
  -38.5326   67.0714   61.9995 H   0  0  0  0  0  0  0  0  0  0  0  0
  -37.1626   66.4778   63.7738 H   0  0  0  0  0  0  0  0  0  0  0  0
  -38.2291   64.8351   62.5323 H   0  0  0  0  0  0  0  0  0  0  0  0
  -37.7207   58.2114   61.2195 C   0  0  0  0  0  0  0  0  0  0  0  0
  -36.3532   58.6969   61.7156 C   0  0  0  0  0  0  0  0  0  0  0  0
  -38.2578   58.8496   59.9273 C   0  0  0  0  0  0  0  0  0  0  0  0
  -39.5445   58.2531   59.3205 C   0  0  0  0  0  0  0  0  0  0  0  0
  -40.6803   58.6725   60.1475 N   0  0  0  0  0  0  0  0  0  0  0  0
  -41.5363   57.9088   60.8767 C   0  0  0  0  0  0  0  0  0  0  0  0
  -40.8859   60.0592   60.1700 O   0  0  0  0  0  0  0  0  0  0  0  0
  -42.4495   58.4185   61.5258 O   0  0  0  0  0  0  0  0  0  0  0  0
  -41.6487   60.2637   60.7330 H   0  0  0  0  0  0  0  0  0  0  0  0
  -41.3479   56.3882   60.8884 C   0  0  0  0  0  0  0  0  0  0  0  0
  -41.1639   55.7811   62.2859 C   0  0  0  0  0  0  0  0  0  0  0  0
  -40.3854   56.7579   63.1882 C   0  0  0  0  0  0  0  0  0  0  0  0
  -41.1408   57.1418   64.4746 C   0  0  0  0  0  0  0  0  0  0  0  0
  -42.3934   56.2925   64.7605 C   0  0  0  0  0  0  0  0  0  0  0  0
  -43.6839   57.1347   64.8410 C   0  0  0  0  0  0  0  0  0  0  0  0
  -43.6090   58.3321   65.8169 C   0  0  0  0  0  0  0  0  0  0  0  0
  -44.8703   59.2035   65.8111 C   0  0  0  0  0  0  0  0  0  0  0  0
  -45.5817   59.3183   64.4593 C   0  0  0  0  0  0  0  0  0  0  0  0
  -46.9351   60.0392   64.5969 C   0  0  0  0  0  0  0  0  0  0  0  0
  -47.6633   59.7496   65.9182 C   0  0  0  0  0  0  0  0  0  0  0  0
  -49.0930   60.2908   66.0228 C   0  0  0  0  0  0  0  0  0  0  0  0
  -49.7835   60.5310   64.6572 C   0  0  0  0  0  0  0  0  0  0  0  0
  -51.2639   60.1003   64.6891 C   0  0  0  0  0  0  0  0  0  0  0  0
  -52.1259   60.4674   63.4751 C   0  0  0  0  0  0  0  0  0  0  0  0
 46 47  1  0  0  0
 46 48  1  0  0  0
 46 45  1  0  0  0
 47 49  2  0  0  0
 47 51  1  0  0  0
 19 20  2  0  0  0
 37 38  1  0  0  0
 37 39  1  0  0  0
 37 40  1  0  0  0
 37 41  1  0  0  0
 48 50  1  0  0  0
 38 29  1  0  0  0
 45 44  1  0  0  0
 25 27  1  0  0  0
 25 35  1  0  0  0
 25 28  1  0  0  0
 21 20  1  0  0  0
 21 22  1  0  0  0
 44 42  1  0  0  0
  2  1  1  0  0  0
  2  4  1  0  0  0
  2  5  1  0  0  0
 26 27  2  0  0  0
 42 43  2  0  0  0
 29 31  1  0  0  0
 29 36  1  0  0  0
  3  4  2  0  0  0
 43  1  1  0  0  0
  6  9  2  0  0  0
  6 10  1  0  0  0
  1 20  1  0  0  0
 30 36  2  0  0  0
  7  8  1  0  0  0
  7  9  1  0  0  0
 22 24  1  0  0  0
 22 23  1  0  0  0
 11 12  1  0  0  0
 11 18  1  0  0  0
 24 27  1  0  0  0
  4 10  1  0  0  0
 51 52  1  0  0  0
 52 53  1  0  0  0
 53 54  1  0  0  0
 54 55  1  0  0  0
 55 56  1  0  0  0
 56 57  1  0  0  0
 57 58  1  0  0  0
 58 59  1  0  0  0
 59 60  1  0  0  0
 60 61  1  0  0  0
 61 62  1  0  0  0
 62 63  1  0  0  0
 63 64  1  0  0  0
 64 65  1  0  0  0
 31 32  1  0  0  0
 32 33  1  0  0  0
 33 34  1  0  0  0
 34 35  1  0  0  0
 35 36  1  0  0  0
  8 10  1  0  0  0
  9 17  1  0  0  0
 12 13  2  0  0  0
 12 17  1  0  0  0
 13 14  1  0  0  0
 14 15  2  0  0  0
 15 16  1  0  0  0
 16 17  2  0  0  0
M  END
> <minimizedAffinity>
-9.43205

> <CNNscore>
0.2523699701

> <CNNaffinity>
7.3037276268

> <CNN_VS>
1.8432415724

> <CNNaffinity_variance>
1.6687065363

$$$$
/media/chris/experiments/cd1a-new-docking/inputs/ligands/1xz0_ligand.pdb


 65 67  0  0  0  0  0  0  0  0999 V2000
  -36.2824   60.9908   63.5168 C   0  0  0  0  0  0  0  0  0  0  0  0
  -34.8340   60.7827   63.4619 N   0  0  0  0  0  0  0  0  0  0  0  0
  -32.9228   59.5905   63.1479 O   0  0  0  0  0  0  0  0  0  0  0  0
  -34.1441   59.6705   63.1549 C   0  0  0  0  0  0  0  0  0  0  0  0
  -34.2865   61.5711   63.6812 H   0  0  0  0  0  0  0  0  0  0  0  0
  -35.9992   58.8261   61.7317 N   0  0  0  0  0  0  0  0  0  0  0  0
  -37.0586   57.5544   63.2326 O   0  0  0  0  0  0  0  0  0  0  0  0
  -35.7123   57.5940   63.7043 C   0  0  0  0  0  0  0  0  0  0  0  0
  -37.1307   58.3502   62.0329 C   0  0  0  0  0  0  0  0  0  0  0  0
  -34.9283   58.4569   62.6770 C   0  0  0  0  0  0  0  0  0  0  0  0
  -37.8985   60.8093   60.7062 O   0  0  0  0  0  0  0  0  0  0  0  0
  -38.6952   59.7396   60.5934 C   0  0  0  0  0  0  0  0  0  0  0  0
  -39.8662   59.8256   59.8290 C   0  0  0  0  0  0  0  0  0  0  0  0
  -40.7238   58.7199   59.7029 C   0  0  0  0  0  0  0  0  0  0  0  0
  -40.4152   57.5124   60.3316 C   0  0  0  0  0  0  0  0  0  0  0  0
  -39.2449   57.4197   61.0903 C   0  0  0  0  0  0  0  0  0  0  0  0
  -38.3879   58.5287   61.2257 C   0  0  0  0  0  0  0  0  0  0  0  0
  -38.1245   61.6095   60.2741 H   0  0  0  0  0  0  0  0  0  0  0  0
  -36.9478   63.1827   64.2155 O   0  0  0  0  0  0  0  0  0  0  0  0
  -36.5083   62.4780   63.3218 C   0  0  0  0  0  0  0  0  0  0  0  0
  -36.2607   63.0881   62.0113 O   0  0  0  0  0  0  0  0  0  0  0  0
  -35.6895   64.4048   61.8936 C   0  0  0  0  0  0  0  0  0  0  0  0
  -36.5557   65.4049   61.1379 C   0  0  0  0  0  0  0  0  0  0  0  0
  -34.3151   64.2757   61.2542 C   0  0  0  0  0  0  0  0  0  0  0  0
  -33.1188   63.8153   63.3405 N   0  0  0  0  0  0  0  0  0  0  0  0
  -32.9206   62.4471   61.5504 O   0  0  0  0  0  0  0  0  0  0  0  0
  -33.3550   63.4481   62.0725 C   0  0  0  0  0  0  0  0  0  0  0  0
  -33.5265   64.6533   63.6577 H   0  0  0  0  0  0  0  0  0  0  0  0
  -33.0924   63.8491   66.4794 N   0  0  0  0  0  0  0  0  0  0  0  0
  -33.2117   61.6627   65.9591 O   0  0  0  0  0  0  0  0  0  0  0  0
  -33.0169   65.2700   66.1087 C   0  0  0  0  0  0  0  0  0  0  0  0
  -31.5707   65.6648   65.7547 C   0  0  0  0  0  0  0  0  0  0  0  0
  -30.5834   64.5118   65.6786 C   0  0  0  0  0  0  0  0  0  0  0  0
  -30.8604   63.5630   64.5095 C   0  0  0  0  0  0  0  0  0  0  0  0
  -32.2952   63.0560   64.2884 C   0  0  0  0  0  0  0  0  0  0  0  0
  -32.9206   62.8094   65.6474 C   0  0  0  0  0  0  0  0  0  0  0  0
  -34.9312   62.8159   68.2329 Si  0  0  0  0  0  0  0  0  0  0  0  0
  -33.3708   63.5625   67.7818 O   0  0  0  0  0  0  0  0  0  0  0  0
  -34.9737   62.6206   69.6387 H   0  0  0  0  0  0  0  0  0  0  0  0
  -35.0641   61.5636   67.5767 H   0  0  0  0  0  0  0  0  0  0  0  0
  -35.9956   63.6706   67.8415 H   0  0  0  0  0  0  0  0  0  0  0  0
  -38.5324   60.1004   64.5360 C   0  0  0  0  0  0  0  0  0  0  0  0
  -37.0415   60.4021   64.7307 C   0  0  0  0  0  0  0  0  0  0  0  0
  -39.3806   59.9387   65.8088 C   0  0  0  0  0  0  0  0  0  0  0  0
  -40.8314   60.4613   65.7683 C   0  0  0  0  0  0  0  0  0  0  0  0
  -41.4070   60.1198   64.4636 N   0  0  0  0  0  0  0  0  0  0  0  0
  -41.7764   58.9031   63.9832 C   0  0  0  0  0  0  0  0  0  0  0  0
  -41.5905   61.2221   63.6170 O   0  0  0  0  0  0  0  0  0  0  0  0
  -42.2505   58.7814   62.8538 O   0  0  0  0  0  0  0  0  0  0  0  0
  -41.9725   60.9242   62.7767 H   0  0  0  0  0  0  0  0  0  0  0  0
  -41.6008   57.6690   64.8743 C   0  0  0  0  0  0  0  0  0  0  0  0
  -42.6482   57.5348   65.9881 C   0  0  0  0  0  0  0  0  0  0  0  0
  -43.9027   56.8198   65.4504 C   0  0  0  0  0  0  0  0  0  0  0  0
  -45.2228   57.4857   65.8826 C   0  0  0  0  0  0  0  0  0  0  0  0
  -45.2682   59.0117   65.6788 C   0  0  0  0  0  0  0  0  0  0  0  0
  -45.5011   59.4139   64.2074 C   0  0  0  0  0  0  0  0  0  0  0  0
  -46.5021   60.5763   64.0106 C   0  0  0  0  0  0  0  0  0  0  0  0
  -47.9490   60.1088   63.8151 C   0  0  0  0  0  0  0  0  0  0  0  0
  -48.1500   59.0266   62.7498 C   0  0  0  0  0  0  0  0  0  0  0  0
  -49.6213   58.9445   62.3040 C   0  0  0  0  0  0  0  0  0  0  0  0
  -50.1841   60.2694   61.7671 C   0  0  0  0  0  0  0  0  0  0  0  0
  -51.4031   60.8248   62.5110 C   0  0  0  0  0  0  0  0  0  0  0  0
  -51.9286   59.9085   63.6440 C   0  0  0  0  0  0  0  0  0  0  0  0
  -51.4268   60.3742   65.0258 C   0  0  0  0  0  0  0  0  0  0  0  0
  -50.7402   59.3267   65.9105 C   0  0  0  0  0  0  0  0  0  0  0  0
 46 47  1  0  0  0
 46 48  1  0  0  0
 46 45  1  0  0  0
 47 49  2  0  0  0
 47 51  1  0  0  0
 19 20  2  0  0  0
 37 38  1  0  0  0
 37 39  1  0  0  0
 37 40  1  0  0  0
 37 41  1  0  0  0
 48 50  1  0  0  0
 38 29  1  0  0  0
 45 44  1  0  0  0
 25 27  1  0  0  0
 25 35  1  0  0  0
 25 28  1  0  0  0
 21 20  1  0  0  0
 21 22  1  0  0  0
 44 42  1  0  0  0
  2  1  1  0  0  0
  2  4  1  0  0  0
  2  5  1  0  0  0
 26 27  2  0  0  0
 42 43  2  0  0  0
 29 31  1  0  0  0
 29 36  1  0  0  0
  3  4  2  0  0  0
 43  1  1  0  0  0
  6  9  2  0  0  0
  6 10  1  0  0  0
  1 20  1  0  0  0
 30 36  2  0  0  0
  7  8  1  0  0  0
  7  9  1  0  0  0
 22 24  1  0  0  0
 22 23  1  0  0  0
 11 12  1  0  0  0
 11 18  1  0  0  0
 24 27  1  0  0  0
  4 10  1  0  0  0
 51 52  1  0  0  0
 52 53  1  0  0  0
 53 54  1  0  0  0
 54 55  1  0  0  0
 55 56  1  0  0  0
 56 57  1  0  0  0
 57 58  1  0  0  0
 58 59  1  0  0  0
 59 60  1  0  0  0
 60 61  1  0  0  0
 61 62  1  0  0  0
 62 63  1  0  0  0
 63 64  1  0  0  0
 64 65  1  0  0  0
 31 32  1  0  0  0
 32 33  1  0  0  0
 33 34  1  0  0  0
 34 35  1  0  0  0
 35 36  1  0  0  0
  8 10  1  0  0  0
  9 17  1  0  0  0
 12 13  2  0  0  0
 12 17  1  0  0  0
 13 14  1  0  0  0
 14 15  2  0  0  0
 15 16  1  0  0  0
 16 17  2  0  0  0
M  END
> <minimizedAffinity>
-9.61942

> <CNNscore>
0.1973199546

> <CNNaffinity>
7.2083106041

> <CNN_VS>
1.4223434925

> <CNNaffinity_variance>
1.1037966013

$$$$
/media/chris/experiments/cd1a-new-docking/inputs/ligands/1xz0_ligand.pdb


 65 67  0  0  0  0  0  0  0  0999 V2000
  -35.7383   57.6566   62.7180 C   0  0  0  0  0  0  0  0  0  0  0  0
  -36.2589   57.2564   64.0268 N   0  0  0  0  0  0  0  0  0  0  0  0
  -37.2247   57.5820   66.0601 O   0  0  0  0  0  0  0  0  0  0  0  0
  -36.8282   58.0095   64.9839 C   0  0  0  0  0  0  0  0  0  0  0  0
  -36.1807   56.2975   64.2361 H   0  0  0  0  0  0  0  0  0  0  0  0
  -35.9403   60.3315   64.9782 N   0  0  0  0  0  0  0  0  0  0  0  0
  -37.6326   61.3700   66.0029 O   0  0  0  0  0  0  0  0  0  0  0  0
  -38.2405   60.2220   65.4122 C   0  0  0  0  0  0  0  0  0  0  0  0
  -36.2254   61.3348   65.6921 C   0  0  0  0  0  0  0  0  0  0  0  0
  -37.0999   59.4734   64.6686 C   0  0  0  0  0  0  0  0  0  0  0  0
  -36.9423   64.0750   66.3037 O   0  0  0  0  0  0  0  0  0  0  0  0
  -35.6620   63.7018   66.4199 C   0  0  0  0  0  0  0  0  0  0  0  0
  -34.7054   64.6321   66.8471 C   0  0  0  0  0  0  0  0  0  0  0  0
  -33.3539   64.2678   66.9680 C   0  0  0  0  0  0  0  0  0  0  0  0
  -32.9450   62.9662   66.6727 C   0  0  0  0  0  0  0  0  0  0  0  0
  -33.8965   62.0327   66.2521 C   0  0  0  0  0  0  0  0  0  0  0  0
  -35.2503   62.3972   66.1216 C   0  0  0  0  0  0  0  0  0  0  0  0
  -37.1946   64.9538   66.5090 H   0  0  0  0  0  0  0  0  0  0  0  0
  -33.6632   57.8620   63.8958 O   0  0  0  0  0  0  0  0  0  0  0  0
  -34.3586   58.2362   62.9658 C   0  0  0  0  0  0  0  0  0  0  0  0
  -33.8597   59.3221   62.1155 O   0  0  0  0  0  0  0  0  0  0  0  0
  -32.9490   60.3145   62.6249 C   0  0  0  0  0  0  0  0  0  0  0  0
  -33.5672   61.6909   62.8369 C   0  0  0  0  0  0  0  0  0  0  0  0
  -31.7502   60.3891   61.6912 C   0  0  0  0  0  0  0  0  0  0  0  0
  -30.9055   62.6862   61.6152 N   0  0  0  0  0  0  0  0  0  0  0  0
  -29.9082   61.1136   62.8990 O   0  0  0  0  0  0  0  0  0  0  0  0
  -30.7489   61.4433   62.0939 C   0  0  0  0  0  0  0  0  0  0  0  0
  -31.6261   62.8373   60.9617 H   0  0  0  0  0  0  0  0  0  0  0  0
  -31.6616   65.2847   63.2060 N   0  0  0  0  0  0  0  0  0  0  0  0
  -29.8042   64.5376   64.2342 O   0  0  0  0  0  0  0  0  0  0  0  0
  -32.7022   65.1866   62.1719 C   0  0  0  0  0  0  0  0  0  0  0  0
  -32.1927   65.7480   60.8310 C   0  0  0  0  0  0  0  0  0  0  0  0
  -30.7152   66.1026   60.7955 C   0  0  0  0  0  0  0  0  0  0  0  0
  -29.8030   64.8774   60.8987 C   0  0  0  0  0  0  0  0  0  0  0  0
  -30.0785   63.8368   61.9967 C   0  0  0  0  0  0  0  0  0  0  0  0
  -30.5216   64.5764   63.2439 C   0  0  0  0  0  0  0  0  0  0  0  0
  -30.8292   66.1596   65.6688 Si  0  0  0  0  0  0  0  0  0  0  0  0
  -31.8784   66.1667   64.2215 O   0  0  0  0  0  0  0  0  0  0  0  0
  -31.2614   67.1669   66.5717 H   0  0  0  0  0  0  0  0  0  0  0  0
  -29.4870   66.4152   65.2818 H   0  0  0  0  0  0  0  0  0  0  0  0
  -30.9057   64.8913   66.3028 H   0  0  0  0  0  0  0  0  0  0  0  0
  -38.0301   58.0116   61.4869 C   0  0  0  0  0  0  0  0  0  0  0  0
  -36.6396   58.5553   61.8370 C   0  0  0  0  0  0  0  0  0  0  0  0
  -38.7495   58.6606   60.2923 C   0  0  0  0  0  0  0  0  0  0  0  0
  -40.2019   58.2226   60.0128 C   0  0  0  0  0  0  0  0  0  0  0  0
  -41.1032   59.1540   60.6985 N   0  0  0  0  0  0  0  0  0  0  0  0
  -41.8341   58.9624   61.8283 C   0  0  0  0  0  0  0  0  0  0  0  0
  -41.2032   60.4079   60.0794 O   0  0  0  0  0  0  0  0  0  0  0  0
  -42.5502   59.8545   62.2826 O   0  0  0  0  0  0  0  0  0  0  0  0
  -41.8123   60.9697   60.5837 H   0  0  0  0  0  0  0  0  0  0  0  0
  -41.7526   57.6101   62.5442 C   0  0  0  0  0  0  0  0  0  0  0  0
  -40.9789   57.6379   63.8694 C   0  0  0  0  0  0  0  0  0  0  0  0
  -41.8703   58.2069   64.9900 C   0  0  0  0  0  0  0  0  0  0  0  0
  -42.6798   57.1307   65.7381 C   0  0  0  0  0  0  0  0  0  0  0  0
  -44.2081   57.2796   65.6190 C   0  0  0  0  0  0  0  0  0  0  0  0
  -44.6516   58.7365   65.3706 C   0  0  0  0  0  0  0  0  0  0  0  0
  -45.4501   58.9503   64.0635 C   0  0  0  0  0  0  0  0  0  0  0  0
  -46.4570   60.1033   64.1454 C   0  0  0  0  0  0  0  0  0  0  0  0
  -47.9145   59.7218   63.8680 C   0  0  0  0  0  0  0  0  0  0  0  0
  -48.8897   60.7004   64.5475 C   0  0  0  0  0  0  0  0  0  0  0  0
  -50.3619   60.2692   64.4665 C   0  0  0  0  0  0  0  0  0  0  0  0
  -50.6154   58.8706   63.8942 C   0  0  0  0  0  0  0  0  0  0  0  0
  -51.5212   58.8521   62.6377 C   0  0  0  0  0  0  0  0  0  0  0  0
  -51.2324   57.6239   61.7511 C   0  0  0  0  0  0  0  0  0  0  0  0
  -50.6701   57.8895   60.3494 C   0  0  0  0  0  0  0  0  0  0  0  0
 46 47  1  0  0  0
 46 48  1  0  0  0
 46 45  1  0  0  0
 47 49  2  0  0  0
 47 51  1  0  0  0
 19 20  2  0  0  0
 37 38  1  0  0  0
 37 39  1  0  0  0
 37 40  1  0  0  0
 37 41  1  0  0  0
 48 50  1  0  0  0
 38 29  1  0  0  0
 45 44  1  0  0  0
 25 27  1  0  0  0
 25 35  1  0  0  0
 25 28  1  0  0  0
 21 20  1  0  0  0
 21 22  1  0  0  0
 44 42  1  0  0  0
  2  1  1  0  0  0
  2  4  1  0  0  0
  2  5  1  0  0  0
 26 27  2  0  0  0
 42 43  2  0  0  0
 29 31  1  0  0  0
 29 36  1  0  0  0
  3  4  2  0  0  0
 43  1  1  0  0  0
  6  9  2  0  0  0
  6 10  1  0  0  0
  1 20  1  0  0  0
 30 36  2  0  0  0
  7  8  1  0  0  0
  7  9  1  0  0  0
 22 24  1  0  0  0
 22 23  1  0  0  0
 11 12  1  0  0  0
 11 18  1  0  0  0
 24 27  1  0  0  0
  4 10  1  0  0  0
 51 52  1  0  0  0
 52 53  1  0  0  0
 53 54  1  0  0  0
 54 55  1  0  0  0
 55 56  1  0  0  0
 56 57  1  0  0  0
 57 58  1  0  0  0
 58 59  1  0  0  0
 59 60  1  0  0  0
 60 61  1  0  0  0
 61 62  1  0  0  0
 62 63  1  0  0  0
 63 64  1  0  0  0
 64 65  1  0  0  0
 31 32  1  0  0  0
 32 33  1  0  0  0
 33 34  1  0  0  0
 34 35  1  0  0  0
 35 36  1  0  0  0
  8 10  1  0  0  0
  9 17  1  0  0  0
 12 13  2  0  0  0
 12 17  1  0  0  0
 13 14  1  0  0  0
 14 15  2  0  0  0
 15 16  1  0  0  0
 16 17  2  0  0  0
M  END
> <minimizedAffinity>
-9.22394

> <CNNscore>
0.1783242673

> <CNNaffinity>
6.8134355545

> <CNN_VS>
1.2150008678

> <CNNaffinity_variance>
1.8028081656

$$$$
/media/chris/experiments/cd1a-new-docking/inputs/ligands/1xz0_ligand.pdb


 65 67  0  0  0  0  0  0  0  0999 V2000
  -43.4750   58.5332   65.4423 C   0  0  0  0  0  0  0  0  0  0  0  0
  -42.9708   59.7027   66.1649 N   0  0  0  0  0  0  0  0  0  0  0  0
  -41.4290   61.2670   66.7554 O   0  0  0  0  0  0  0  0  0  0  0  0
  -41.7640   60.2913   66.0968 C   0  0  0  0  0  0  0  0  0  0  0  0
  -43.6073   60.1178   66.7909 H   0  0  0  0  0  0  0  0  0  0  0  0
  -39.3850   60.1004   65.4014 N   0  0  0  0  0  0  0  0  0  0  0  0
  -39.5631   60.8234   63.2948 O   0  0  0  0  0  0  0  0  0  0  0  0
  -40.8622   60.3147   63.5949 C   0  0  0  0  0  0  0  0  0  0  0  0
  -38.7418   60.6596   64.4681 C   0  0  0  0  0  0  0  0  0  0  0  0
  -40.7822   59.7807   65.0520 C   0  0  0  0  0  0  0  0  0  0  0  0
  -37.1364   61.4007   62.1723 O   0  0  0  0  0  0  0  0  0  0  0  0
  -36.5734   61.4200   63.3865 C   0  0  0  0  0  0  0  0  0  0  0  0
  -35.2349   61.8107   63.5232 C   0  0  0  0  0  0  0  0  0  0  0  0
  -34.6181   61.8304   64.7855 C   0  0  0  0  0  0  0  0  0  0  0  0
  -35.3358   61.4690   65.9269 C   0  0  0  0  0  0  0  0  0  0  0  0
  -36.6733   61.0844   65.7966 C   0  0  0  0  0  0  0  0  0  0  0  0
  -37.2915   61.0554   64.5319 C   0  0  0  0  0  0  0  0  0  0  0  0
  -36.6362   61.6489   61.4199 H   0  0  0  0  0  0  0  0  0  0  0  0
  -44.7729   56.9683   66.7080 O   0  0  0  0  0  0  0  0  0  0  0  0
  -44.7120   58.0704   66.1883 C   0  0  0  0  0  0  0  0  0  0  0  0
  -45.8986   58.9309   66.2382 O   0  0  0  0  0  0  0  0  0  0  0  0
  -46.9214   58.8563   65.2272 C   0  0  0  0  0  0  0  0  0  0  0  0
  -47.4731   60.2060   64.7847 C   0  0  0  0  0  0  0  0  0  0  0  0
  -48.0320   57.9491   65.7348 C   0  0  0  0  0  0  0  0  0  0  0  0
  -49.5248   57.9054   63.7942 N   0  0  0  0  0  0  0  0  0  0  0  0
  -50.2429   58.6442   65.8077 O   0  0  0  0  0  0  0  0  0  0  0  0
  -49.3664   58.2249   65.0870 C   0  0  0  0  0  0  0  0  0  0  0  0
  -48.7377   57.5728   63.3054 H   0  0  0  0  0  0  0  0  0  0  0  0
  -50.0641   58.7227   60.8117 N   0  0  0  0  0  0  0  0  0  0  0  0
  -51.2301   56.8155   61.0733 O   0  0  0  0  0  0  0  0  0  0  0  0
  -49.1830   59.7858   61.3169 C   0  0  0  0  0  0  0  0  0  0  0  0
  -49.9904   60.8341   62.1055 C   0  0  0  0  0  0  0  0  0  0  0  0
  -51.4465   60.4778   62.3557 C   0  0  0  0  0  0  0  0  0  0  0  0
  -51.6172   59.2882   63.3041 C   0  0  0  0  0  0  0  0  0  0  0  0
  -50.7887   58.0165   63.0570 C   0  0  0  0  0  0  0  0  0  0  0  0
  -50.6937   57.8019   61.5590 C   0  0  0  0  0  0  0  0  0  0  0  0
  -50.2336   57.0871   58.6162 Si  0  0  0  0  0  0  0  0  0  0  0  0
  -50.2507   58.6611   59.4636 O   0  0  0  0  0  0  0  0  0  0  0  0
  -50.4495   57.2944   57.2281 H   0  0  0  0  0  0  0  0  0  0  0  0
  -51.2623   56.2580   59.1367 H   0  0  0  0  0  0  0  0  0  0  0  0
  -48.9752   56.4585   58.8107 H   0  0  0  0  0  0  0  0  0  0  0  0
  -42.3302   56.9651   63.6746 C   0  0  0  0  0  0  0  0  0  0  0  0
  -42.4707   57.3946   65.1401 C   0  0  0  0  0  0  0  0  0  0  0  0
  -41.6948   55.5894   63.4115 C   0  0  0  0  0  0  0  0  0  0  0  0
  -41.2663   55.2684   61.9649 C   0  0  0  0  0  0  0  0  0  0  0  0
  -40.9620   56.5311   61.2845 N   0  0  0  0  0  0  0  0  0  0  0  0
  -39.8001   57.2364   61.2685 C   0  0  0  0  0  0  0  0  0  0  0  0
  -42.0382   57.0587   60.5571 O   0  0  0  0  0  0  0  0  0  0  0  0
  -39.7038   58.2910   60.6412 O   0  0  0  0  0  0  0  0  0  0  0  0
  -41.7672   57.8892   60.1356 H   0  0  0  0  0  0  0  0  0  0  0  0
  -38.5937   56.6965   62.0436 C   0  0  0  0  0  0  0  0  0  0  0  0
  -38.0881   57.6222   63.1585 C   0  0  0  0  0  0  0  0  0  0  0  0
  -36.5475   57.6451   63.1684 C   0  0  0  0  0  0  0  0  0  0  0  0
  -35.9398   57.5332   64.5795 C   0  0  0  0  0  0  0  0  0  0  0  0
  -34.5039   58.0761   64.7043 C   0  0  0  0  0  0  0  0  0  0  0  0
  -33.8500   58.3637   63.3365 C   0  0  0  0  0  0  0  0  0  0  0  0
  -32.3728   58.8149   63.4135 C   0  0  0  0  0  0  0  0  0  0  0  0
  -32.0376   59.9704   62.4635 C   0  0  0  0  0  0  0  0  0  0  0  0
  -30.5947   60.4800   62.5345 C   0  0  0  0  0  0  0  0  0  0  0  0
  -30.5264   62.0031   62.3211 C   0  0  0  0  0  0  0  0  0  0  0  0
  -31.2824   62.8153   63.3836 C   0  0  0  0  0  0  0  0  0  0  0  0
  -32.1664   63.9479   62.8512 C   0  0  0  0  0  0  0  0  0  0  0  0
  -32.7556   64.8656   63.9514 C   0  0  0  0  0  0  0  0  0  0  0  0
  -32.2284   64.4822   65.3490 C   0  0  0  0  0  0  0  0  0  0  0  0
  -33.0863   64.8838   66.5549 C   0  0  0  0  0  0  0  0  0  0  0  0
 46 47  1  0  0  0
 46 48  1  0  0  0
 46 45  1  0  0  0
 47 49  2  0  0  0
 47 51  1  0  0  0
 19 20  2  0  0  0
 37 38  1  0  0  0
 37 39  1  0  0  0
 37 40  1  0  0  0
 37 41  1  0  0  0
 48 50  1  0  0  0
 38 29  1  0  0  0
 45 44  1  0  0  0
 25 27  1  0  0  0
 25 35  1  0  0  0
 25 28  1  0  0  0
 21 20  1  0  0  0
 21 22  1  0  0  0
 44 42  1  0  0  0
  2  1  1  0  0  0
  2  4  1  0  0  0
  2  5  1  0  0  0
 26 27  2  0  0  0
 42 43  2  0  0  0
 29 31  1  0  0  0
 29 36  1  0  0  0
  3  4  2  0  0  0
 43  1  1  0  0  0
  6  9  2  0  0  0
  6 10  1  0  0  0
  1 20  1  0  0  0
 30 36  2  0  0  0
  7  8  1  0  0  0
  7  9  1  0  0  0
 22 24  1  0  0  0
 22 23  1  0  0  0
 11 12  1  0  0  0
 11 18  1  0  0  0
 24 27  1  0  0  0
  4 10  1  0  0  0
 51 52  1  0  0  0
 52 53  1  0  0  0
 53 54  1  0  0  0
 54 55  1  0  0  0
 55 56  1  0  0  0
 56 57  1  0  0  0
 57 58  1  0  0  0
 58 59  1  0  0  0
 59 60  1  0  0  0
 60 61  1  0  0  0
 61 62  1  0  0  0
 62 63  1  0  0  0
 63 64  1  0  0  0
 64 65  1  0  0  0
 31 32  1  0  0  0
 32 33  1  0  0  0
 33 34  1  0  0  0
 34 35  1  0  0  0
 35 36  1  0  0  0
  8 10  1  0  0  0
  9 17  1  0  0  0
 12 13  2  0  0  0
 12 17  1  0  0  0
 13 14  1  0  0  0
 14 15  2  0  0  0
 15 16  1  0  0  0
 16 17  2  0  0  0
M  END
> <minimizedAffinity>
-9.15917

> <CNNscore>
0.1556216031

> <CNNaffinity>
7.2154526711

> <CNN_VS>
1.1228803396

> <CNNaffinity_variance>
1.0780332088

$$$$
/media/chris/experiments/cd1a-new-docking/inputs/ligands/1xz0_ligand.pdb


 65 67  0  0  0  0  0  0  0  0999 V2000
  -41.5642   58.4266   62.5362 C   0  0  0  0  0  0  0  0  0  0  0  0
  -40.4564   57.6800   63.1355 N   0  0  0  0  0  0  0  0  0  0  0  0
  -38.6143   57.3968   64.4392 O   0  0  0  0  0  0  0  0  0  0  0  0
  -39.5156   58.0987   63.9998 C   0  0  0  0  0  0  0  0  0  0  0  0
  -40.3911   56.7350   62.8669 H   0  0  0  0  0  0  0  0  0  0  0  0
  -38.6635   60.4335   63.9487 N   0  0  0  0  0  0  0  0  0  0  0  0
  -38.3858   60.7669   66.1405 O   0  0  0  0  0  0  0  0  0  0  0  0
  -39.3978   59.7632   66.0706 C   0  0  0  0  0  0  0  0  0  0  0  0
  -37.9948   61.0956   64.7924 C   0  0  0  0  0  0  0  0  0  0  0  0
  -39.6397   59.5095   64.5569 C   0  0  0  0  0  0  0  0  0  0  0  0
  -36.2721   62.3933   66.7276 O   0  0  0  0  0  0  0  0  0  0  0  0
  -36.1488   62.7173   65.4347 C   0  0  0  0  0  0  0  0  0  0  0  0
  -35.1860   63.6575   65.0450 C   0  0  0  0  0  0  0  0  0  0  0  0
  -35.0432   64.0215   63.6955 C   0  0  0  0  0  0  0  0  0  0  0  0
  -35.8549   63.4419   62.7189 C   0  0  0  0  0  0  0  0  0  0  0  0
  -36.8128   62.4987   63.1018 C   0  0  0  0  0  0  0  0  0  0  0  0
  -36.9641   62.1384   64.4546 C   0  0  0  0  0  0  0  0  0  0  0  0
  -35.7153   62.7937   67.3661 H   0  0  0  0  0  0  0  0  0  0  0  0
  -41.2722   60.4170   61.2368 O   0  0  0  0  0  0  0  0  0  0  0  0
  -40.9661   59.2489   61.4106 C   0  0  0  0  0  0  0  0  0  0  0  0
  -40.0456   58.6204   60.4572 O   0  0  0  0  0  0  0  0  0  0  0  0
  -39.0446   59.3895   59.7641 C   0  0  0  0  0  0  0  0  0  0  0  0
  -38.3396   58.6421   58.6389 C   0  0  0  0  0  0  0  0  0  0  0  0
  -38.0462   59.9097   60.7874 C   0  0  0  0  0  0  0  0  0  0  0  0
  -36.2118   59.1479   62.2194 N   0  0  0  0  0  0  0  0  0  0  0  0
  -37.7293   57.6922   61.3863 O   0  0  0  0  0  0  0  0  0  0  0  0
  -37.2778   58.8107   61.4788 C   0  0  0  0  0  0  0  0  0  0  0  0
  -35.9341   60.0923   62.2182 H   0  0  0  0  0  0  0  0  0  0  0  0
  -34.1691   59.6906   64.5405 N   0  0  0  0  0  0  0  0  0  0  0  0
  -35.5549   58.1325   65.3876 O   0  0  0  0  0  0  0  0  0  0  0  0
  -33.7240   60.5832   63.4603 C   0  0  0  0  0  0  0  0  0  0  0  0
  -32.8717   59.8137   62.4336 C   0  0  0  0  0  0  0  0  0  0  0  0
  -32.8201   58.3077   62.6318 C   0  0  0  0  0  0  0  0  0  0  0  0
  -34.1664   57.6242   62.3784 C   0  0  0  0  0  0  0  0  0  0  0  0
  -35.4302   58.2082   63.0315 C   0  0  0  0  0  0  0  0  0  0  0  0
  -35.0600   58.6934   64.4194 C   0  0  0  0  0  0  0  0  0  0  0  0
  -34.1621   61.2934   66.7663 Si  0  0  0  0  0  0  0  0  0  0  0  0
  -33.6366   59.9005   65.7768 O   0  0  0  0  0  0  0  0  0  0  0  0
  -33.4622   61.2872   68.0019 H   0  0  0  0  0  0  0  0  0  0  0  0
  -35.5575   61.1999   67.0123 H   0  0  0  0  0  0  0  0  0  0  0  0
  -33.8838   62.4999   66.0710 H   0  0  0  0  0  0  0  0  0  0  0  0
  -43.1911   58.4679   64.5967 C   0  0  0  0  0  0  0  0  0  0  0  0
  -42.4700   59.2447   63.4883 C   0  0  0  0  0  0  0  0  0  0  0  0
  -44.3984   59.1567   65.2553 C   0  0  0  0  0  0  0  0  0  0  0  0
  -45.5400   58.2547   65.7677 C   0  0  0  0  0  0  0  0  0  0  0  0
  -46.5489   59.1070   66.4047 N   0  0  0  0  0  0  0  0  0  0  0  0
  -47.4876   59.9013   65.8254 C   0  0  0  0  0  0  0  0  0  0  0  0
  -46.5163   59.0764   67.8060 O   0  0  0  0  0  0  0  0  0  0  0  0
  -48.2713   60.5620   66.5068 O   0  0  0  0  0  0  0  0  0  0  0  0
  -47.2067   59.6597   68.1582 H   0  0  0  0  0  0  0  0  0  0  0  0
  -47.5663   59.9628   64.2964 C   0  0  0  0  0  0  0  0  0  0  0  0
  -48.0884   58.6802   63.6346 C   0  0  0  0  0  0  0  0  0  0  0  0
  -49.1842   58.0422   64.5100 C   0  0  0  0  0  0  0  0  0  0  0  0
  -50.6144   58.3592   64.0333 C   0  0  0  0  0  0  0  0  0  0  0  0
  -51.1593   59.7215   64.5016 C   0  0  0  0  0  0  0  0  0  0  0  0
  -51.2491   60.7563   63.3604 C   0  0  0  0  0  0  0  0  0  0  0  0
  -51.1210   60.1581   61.9401 C   0  0  0  0  0  0  0  0  0  0  0  0
  -49.8279   60.5620   61.2224 C   0  0  0  0  0  0  0  0  0  0  0  0
  -49.3710   59.6121   60.1107 C   0  0  0  0  0  0  0  0  0  0  0  0
  -50.0760   58.2473   60.2139 C   0  0  0  0  0  0  0  0  0  0  0  0
  -49.1157   57.0631   60.4025 C   0  0  0  0  0  0  0  0  0  0  0  0
  -47.8315   57.1081   59.5678 C   0  0  0  0  0  0  0  0  0  0  0  0
  -47.8166   56.1257   58.3703 C   0  0  0  0  0  0  0  0  0  0  0  0
  -47.6284   56.8688   57.0322 C   0  0  0  0  0  0  0  0  0  0  0  0
  -47.3201   58.3693   57.1024 C   0  0  0  0  0  0  0  0  0  0  0  0
 46 47  1  0  0  0
 46 48  1  0  0  0
 46 45  1  0  0  0
 47 49  2  0  0  0
 47 51  1  0  0  0
 19 20  2  0  0  0
 37 38  1  0  0  0
 37 39  1  0  0  0
 37 40  1  0  0  0
 37 41  1  0  0  0
 48 50  1  0  0  0
 38 29  1  0  0  0
 45 44  1  0  0  0
 25 27  1  0  0  0
 25 35  1  0  0  0
 25 28  1  0  0  0
 21 20  1  0  0  0
 21 22  1  0  0  0
 44 42  1  0  0  0
  2  1  1  0  0  0
  2  4  1  0  0  0
  2  5  1  0  0  0
 26 27  2  0  0  0
 42 43  2  0  0  0
 29 31  1  0  0  0
 29 36  1  0  0  0
  3  4  2  0  0  0
 43  1  1  0  0  0
  6  9  2  0  0  0
  6 10  1  0  0  0
  1 20  1  0  0  0
 30 36  2  0  0  0
  7  8  1  0  0  0
  7  9  1  0  0  0
 22 24  1  0  0  0
 22 23  1  0  0  0
 11 12  1  0  0  0
 11 18  1  0  0  0
 24 27  1  0  0  0
  4 10  1  0  0  0
 51 52  1  0  0  0
 52 53  1  0  0  0
 53 54  1  0  0  0
 54 55  1  0  0  0
 55 56  1  0  0  0
 56 57  1  0  0  0
 57 58  1  0  0  0
 58 59  1  0  0  0
 59 60  1  0  0  0
 60 61  1  0  0  0
 61 62  1  0  0  0
 62 63  1  0  0  0
 63 64  1  0  0  0
 64 65  1  0  0  0
 31 32  1  0  0  0
 32 33  1  0  0  0
 33 34  1  0  0  0
 34 35  1  0  0  0
 35 36  1  0  0  0
  8 10  1  0  0  0
  9 17  1  0  0  0
 12 13  2  0  0  0
 12 17  1  0  0  0
 13 14  1  0  0  0
 14 15  2  0  0  0
 15 16  1  0  0  0
 16 17  2  0  0  0
M  END
> <minimizedAffinity>
-9.44662

> <CNNscore>
0.1262859851

> <CNNaffinity>
7.3770523071

> <CNN_VS>
0.9316183329

> <CNNaffinity_variance>
0.7430645227

$$$$
/media/chris/experiments/cd1a-new-docking/inputs/ligands/1xz0_ligand.pdb


 65 67  0  0  0  0  0  0  0  0999 V2000
  -42.8908   58.5980   64.4148 C   0  0  0  0  0  0  0  0  0  0  0  0
  -42.4726   59.6214   65.3749 N   0  0  0  0  0  0  0  0  0  0  0  0
  -41.0127   61.0485   66.3774 O   0  0  0  0  0  0  0  0  0  0  0  0
  -41.2709   60.2037   65.5303 C   0  0  0  0  0  0  0  0  0  0  0  0
  -43.1725   59.9272   65.9963 H   0  0  0  0  0  0  0  0  0  0  0  0
  -38.8365   60.1873   65.0267 N   0  0  0  0  0  0  0  0  0  0  0  0
  -38.8722   61.1863   63.0284 O   0  0  0  0  0  0  0  0  0  0  0  0
  -40.1679   60.5993   63.1428 C   0  0  0  0  0  0  0  0  0  0  0  0
  -38.1439   60.8899   64.2366 C   0  0  0  0  0  0  0  0  0  0  0  0
  -40.1848   59.8734   64.5166 C   0  0  0  0  0  0  0  0  0  0  0  0
  -36.9787   61.3143   66.8556 O   0  0  0  0  0  0  0  0  0  0  0  0
  -36.2129   61.4922   65.7723 C   0  0  0  0  0  0  0  0  0  0  0  0
  -34.8701   61.8611   65.9263 C   0  0  0  0  0  0  0  0  0  0  0  0
  -34.0480   62.0630   64.8049 C   0  0  0  0  0  0  0  0  0  0  0  0
  -34.5568   61.8887   63.5168 C   0  0  0  0  0  0  0  0  0  0  0  0
  -35.8941   61.5147   63.3580 C   0  0  0  0  0  0  0  0  0  0  0  0
  -36.7227   61.3201   64.4797 C   0  0  0  0  0  0  0  0  0  0  0  0
  -36.6157   61.4351   67.7110 H   0  0  0  0  0  0  0  0  0  0  0  0
  -43.8983   56.5463   65.1294 O   0  0  0  0  0  0  0  0  0  0  0  0
  -43.9497   57.7651   65.1118 C   0  0  0  0  0  0  0  0  0  0  0  0
  -45.1070   58.4227   65.7277 O   0  0  0  0  0  0  0  0  0  0  0  0
  -46.1944   58.9273   64.9298 C   0  0  0  0  0  0  0  0  0  0  0  0
  -45.8558   60.1663   64.1102 C   0  0  0  0  0  0  0  0  0  0  0  0
  -47.3824   59.1826   65.8452 C   0  0  0  0  0  0  0  0  0  0  0  0
  -48.7229   58.4120   63.9465 N   0  0  0  0  0  0  0  0  0  0  0  0
  -49.6408   58.6791   65.9963 O   0  0  0  0  0  0  0  0  0  0  0  0
  -48.6987   58.7590   65.2416 C   0  0  0  0  0  0  0  0  0  0  0  0
  -47.8931   58.5208   63.4281 H   0  0  0  0  0  0  0  0  0  0  0  0
  -49.7527   58.9391   61.0282 N   0  0  0  0  0  0  0  0  0  0  0  0
  -49.7585   56.6959   61.2112 O   0  0  0  0  0  0  0  0  0  0  0  0
  -49.5190   60.2856   61.5704 C   0  0  0  0  0  0  0  0  0  0  0  0
  -50.7100   60.7390   62.4357 C   0  0  0  0  0  0  0  0  0  0  0  0
  -51.7618   59.6744   62.7010 C   0  0  0  0  0  0  0  0  0  0  0  0
  -51.2498   58.5345   63.5854 C   0  0  0  0  0  0  0  0  0  0  0  0
  -49.8991   57.8816   63.2475 C   0  0  0  0  0  0  0  0  0  0  0  0
  -49.7818   57.7998   61.7380 C   0  0  0  0  0  0  0  0  0  0  0  0
  -48.5671   58.5472   58.5860 Si  0  0  0  0  0  0  0  0  0  0  0  0
  -49.9477   58.8378   59.6837 O   0  0  0  0  0  0  0  0  0  0  0  0
  -49.0330   58.4829   57.2461 H   0  0  0  0  0  0  0  0  0  0  0  0
  -47.9400   57.3200   58.9285 H   0  0  0  0  0  0  0  0  0  0  0  0
  -47.6313   59.6080   58.7112 H   0  0  0  0  0  0  0  0  0  0  0  0
  -41.8769   57.5630   62.2251 C   0  0  0  0  0  0  0  0  0  0  0  0
  -41.7802   57.7540   63.7436 C   0  0  0  0  0  0  0  0  0  0  0  0
  -41.0678   56.4046   61.6176 C   0  0  0  0  0  0  0  0  0  0  0  0
  -39.5997   56.2504   62.0653 C   0  0  0  0  0  0  0  0  0  0  0  0
  -38.8179   57.3325   61.4589 N   0  0  0  0  0  0  0  0  0  0  0  0
  -37.7255   57.9771   61.9477 C   0  0  0  0  0  0  0  0  0  0  0  0
  -39.2860   57.7358   60.2004 O   0  0  0  0  0  0  0  0  0  0  0  0
  -37.1763   58.8742   61.3086 O   0  0  0  0  0  0  0  0  0  0  0  0
  -38.7250   58.4504   59.8606 H   0  0  0  0  0  0  0  0  0  0  0  0
  -37.1731   57.5669   63.3168 C   0  0  0  0  0  0  0  0  0  0  0  0
  -35.6425   57.4754   63.3833 C   0  0  0  0  0  0  0  0  0  0  0  0
  -35.1152   58.2965   64.5758 C   0  0  0  0  0  0  0  0  0  0  0  0
  -33.6747   57.9336   64.9834 C   0  0  0  0  0  0  0  0  0  0  0  0
  -32.5809   58.7450   64.2641 C   0  0  0  0  0  0  0  0  0  0  0  0
  -32.6548   58.6218   62.7277 C   0  0  0  0  0  0  0  0  0  0  0  0
  -31.9784   59.7800   61.9577 C   0  0  0  0  0  0  0  0  0  0  0  0
  -30.5967   60.1529   62.5073 C   0  0  0  0  0  0  0  0  0  0  0  0
  -30.2313   61.6374   62.4098 C   0  0  0  0  0  0  0  0  0  0  0  0
  -31.4305   62.4807   61.9397 C   0  0  0  0  0  0  0  0  0  0  0  0
  -31.0656   63.5649   60.9143 C   0  0  0  0  0  0  0  0  0  0  0  0
  -32.1578   64.5990   60.6218 C   0  0  0  0  0  0  0  0  0  0  0  0
  -33.5792   64.1631   61.0565 C   0  0  0  0  0  0  0  0  0  0  0  0
  -34.2681   65.2496   61.9068 C   0  0  0  0  0  0  0  0  0  0  0  0
  -35.7503   65.5238   61.6247 C   0  0  0  0  0  0  0  0  0  0  0  0
 46 47  1  0  0  0
 46 48  1  0  0  0
 46 45  1  0  0  0
 47 49  2  0  0  0
 47 51  1  0  0  0
 19 20  2  0  0  0
 37 38  1  0  0  0
 37 39  1  0  0  0
 37 40  1  0  0  0
 37 41  1  0  0  0
 48 50  1  0  0  0
 38 29  1  0  0  0
 45 44  1  0  0  0
 25 27  1  0  0  0
 25 35  1  0  0  0
 25 28  1  0  0  0
 21 20  1  0  0  0
 21 22  1  0  0  0
 44 42  1  0  0  0
  2  1  1  0  0  0
  2  4  1  0  0  0
  2  5  1  0  0  0
 26 27  2  0  0  0
 42 43  2  0  0  0
 29 31  1  0  0  0
 29 36  1  0  0  0
  3  4  2  0  0  0
 43  1  1  0  0  0
  6  9  2  0  0  0
  6 10  1  0  0  0
  1 20  1  0  0  0
 30 36  2  0  0  0
  7  8  1  0  0  0
  7  9  1  0  0  0
 22 24  1  0  0  0
 22 23  1  0  0  0
 11 12  1  0  0  0
 11 18  1  0  0  0
 24 27  1  0  0  0
  4 10  1  0  0  0
 51 52  1  0  0  0
 52 53  1  0  0  0
 53 54  1  0  0  0
 54 55  1  0  0  0
 55 56  1  0  0  0
 56 57  1  0  0  0
 57 58  1  0  0  0
 58 59  1  0  0  0
 59 60  1  0  0  0
 60 61  1  0  0  0
 61 62  1  0  0  0
 62 63  1  0  0  0
 63 64  1  0  0  0
 64 65  1  0  0  0
 31 32  1  0  0  0
 32 33  1  0  0  0
 33 34  1  0  0  0
 34 35  1  0  0  0
 35 36  1  0  0  0
  8 10  1  0  0  0
  9 17  1  0  0  0
 12 13  2  0  0  0
 12 17  1  0  0  0
 13 14  1  0  0  0
 14 15  2  0  0  0
 15 16  1  0  0  0
 16 17  2  0  0  0
M  END
> <minimizedAffinity>
-9.04125

> <CNNscore>
0.1258105338

> <CNNaffinity>
7.2113504410

> <CNN_VS>
0.9072638750

> <CNNaffinity_variance>
0.9547631145

$$$$
/media/chris/experiments/cd1a-new-docking/inputs/ligands/1xz0_ligand.pdb


 65 67  0  0  0  0  0  0  0  0999 V2000
  -36.5120   61.5172   63.6417 C   0  0  0  0  0  0  0  0  0  0  0  0
  -35.3226   61.1854   64.4287 N   0  0  0  0  0  0  0  0  0  0  0  0
  -33.4994   59.9559   65.0095 O   0  0  0  0  0  0  0  0  0  0  0  0
  -34.4672   60.1579   64.2879 C   0  0  0  0  0  0  0  0  0  0  0  0
  -35.1202   61.8040   65.1674 H   0  0  0  0  0  0  0  0  0  0  0  0
  -36.0264   59.2792   62.5626 N   0  0  0  0  0  0  0  0  0  0  0  0
  -35.6222   57.0932   62.7871 O   0  0  0  0  0  0  0  0  0  0  0  0
  -34.4197   57.7138   63.2404 C   0  0  0  0  0  0  0  0  0  0  0  0
  -36.5438   58.1360   62.4112 C   0  0  0  0  0  0  0  0  0  0  0  0
  -34.6471   59.2431   63.0850 C   0  0  0  0  0  0  0  0  0  0  0  0
  -37.5268   59.1796   59.8930 O   0  0  0  0  0  0  0  0  0  0  0  0
  -38.3281   58.3939   60.6224 C   0  0  0  0  0  0  0  0  0  0  0  0
  -39.6094   58.0814   60.1494 C   0  0  0  0  0  0  0  0  0  0  0  0
  -40.4729   57.2665   60.9006 C   0  0  0  0  0  0  0  0  0  0  0  0
  -40.0614   56.7465   62.1290 C   0  0  0  0  0  0  0  0  0  0  0  0
  -38.7818   57.0503   62.6023 C   0  0  0  0  0  0  0  0  0  0  0  0
  -37.9174   57.8738   61.8558 C   0  0  0  0  0  0  0  0  0  0  0  0
  -37.8232   59.5163   59.0703 H   0  0  0  0  0  0  0  0  0  0  0  0
  -36.6017   63.8153   64.3095 O   0  0  0  0  0  0  0  0  0  0  0  0
  -36.4610   63.0139   63.4005 C   0  0  0  0  0  0  0  0  0  0  0  0
  -36.3064   63.5283   62.0357 O   0  0  0  0  0  0  0  0  0  0  0  0
  -35.4481   64.6488   61.7501 C   0  0  0  0  0  0  0  0  0  0  0  0
  -36.0798   65.7217   60.8717 C   0  0  0  0  0  0  0  0  0  0  0  0
  -34.1612   64.1218   61.1331 C   0  0  0  0  0  0  0  0  0  0  0  0
  -32.9899   63.9422   63.2759 N   0  0  0  0  0  0  0  0  0  0  0  0
  -33.0226   62.2191   61.8111 O   0  0  0  0  0  0  0  0  0  0  0  0
  -33.3040   63.3568   62.1109 C   0  0  0  0  0  0  0  0  0  0  0  0
  -33.2719   64.8758   63.4095 H   0  0  0  0  0  0  0  0  0  0  0  0
  -32.6399   64.7933   66.2772 N   0  0  0  0  0  0  0  0  0  0  0  0
  -33.2741   62.6369   66.3928 O   0  0  0  0  0  0  0  0  0  0  0  0
  -32.3015   66.0087   65.5221 C   0  0  0  0  0  0  0  0  0  0  0  0
  -30.8477   65.9490   65.0164 C   0  0  0  0  0  0  0  0  0  0  0  0
  -30.1415   64.6198   65.2270 C   0  0  0  0  0  0  0  0  0  0  0  0
  -30.7308   63.4882   64.3808 C   0  0  0  0  0  0  0  0  0  0  0  0
  -32.2555   63.2890   64.3655 C   0  0  0  0  0  0  0  0  0  0  0  0
  -32.7785   63.5610   65.7625 C   0  0  0  0  0  0  0  0  0  0  0  0
  -33.4102   63.5503   68.5978 Si  0  0  0  0  0  0  0  0  0  0  0  0
  -32.8400   64.9322   67.6176 O   0  0  0  0  0  0  0  0  0  0  0  0
  -33.5378   63.9524   69.9537 H   0  0  0  0  0  0  0  0  0  0  0  0
  -32.4743   62.4863   68.5056 H   0  0  0  0  0  0  0  0  0  0  0  0
  -34.6717   63.1144   68.1128 H   0  0  0  0  0  0  0  0  0  0  0  0
  -37.8521   60.0751   65.3791 C   0  0  0  0  0  0  0  0  0  0  0  0
  -37.8789   61.0206   64.1719 C   0  0  0  0  0  0  0  0  0  0  0  0
  -39.1203   59.2448   65.6396 C   0  0  0  0  0  0  0  0  0  0  0  0
  -40.3714   59.5739   64.7994 C   0  0  0  0  0  0  0  0  0  0  0  0
  -41.4531   59.9526   65.7141 N   0  0  0  0  0  0  0  0  0  0  0  0
  -42.5805   59.2655   66.0374 C   0  0  0  0  0  0  0  0  0  0  0  0
  -41.2701   61.2011   66.3251 O   0  0  0  0  0  0  0  0  0  0  0  0
  -43.4004   59.7249   66.8322 O   0  0  0  0  0  0  0  0  0  0  0  0
  -42.0188   61.3860   66.9133 H   0  0  0  0  0  0  0  0  0  0  0  0
  -42.8214   57.8932   65.3998 C   0  0  0  0  0  0  0  0  0  0  0  0
  -44.2718   57.6393   64.9666 C   0  0  0  0  0  0  0  0  0  0  0  0
  -44.6366   58.5525   63.7804 C   0  0  0  0  0  0  0  0  0  0  0  0
  -45.6355   59.6666   64.1464 C   0  0  0  0  0  0  0  0  0  0  0  0
  -46.9408   59.1698   64.7956 C   0  0  0  0  0  0  0  0  0  0  0  0
  -47.1510   59.7237   66.2205 C   0  0  0  0  0  0  0  0  0  0  0  0
  -48.5863   60.2215   66.5102 C   0  0  0  0  0  0  0  0  0  0  0  0
  -49.4275   60.4275   65.2452 C   0  0  0  0  0  0  0  0  0  0  0  0
  -50.7861   59.7198   65.2390 C   0  0  0  0  0  0  0  0  0  0  0  0
  -51.7640   60.3914   64.2576 C   0  0  0  0  0  0  0  0  0  0  0  0
  -51.9309   59.6361   62.9303 C   0  0  0  0  0  0  0  0  0  0  0  0
  -51.0976   58.3589   62.7818 C   0  0  0  0  0  0  0  0  0  0  0  0
  -51.4227   57.5312   61.5134 C   0  0  0  0  0  0  0  0  0  0  0  0
  -50.4073   57.8038   60.3852 C   0  0  0  0  0  0  0  0  0  0  0  0
  -48.9447   58.0132   60.7957 C   0  0  0  0  0  0  0  0  0  0  0  0
 46 47  1  0  0  0
 46 48  1  0  0  0
 46 45  1  0  0  0
 47 49  2  0  0  0
 47 51  1  0  0  0
 19 20  2  0  0  0
 37 38  1  0  0  0
 37 39  1  0  0  0
 37 40  1  0  0  0
 37 41  1  0  0  0
 48 50  1  0  0  0
 38 29  1  0  0  0
 45 44  1  0  0  0
 25 27  1  0  0  0
 25 35  1  0  0  0
 25 28  1  0  0  0
 21 20  1  0  0  0
 21 22  1  0  0  0
 44 42  1  0  0  0
  2  1  1  0  0  0
  2  4  1  0  0  0
  2  5  1  0  0  0
 26 27  2  0  0  0
 42 43  2  0  0  0
 29 31  1  0  0  0
 29 36  1  0  0  0
  3  4  2  0  0  0
 43  1  1  0  0  0
  6  9  2  0  0  0
  6 10  1  0  0  0
  1 20  1  0  0  0
 30 36  2  0  0  0
  7  8  1  0  0  0
  7  9  1  0  0  0
 22 24  1  0  0  0
 22 23  1  0  0  0
 11 12  1  0  0  0
 11 18  1  0  0  0
 24 27  1  0  0  0
  4 10  1  0  0  0
 51 52  1  0  0  0
 52 53  1  0  0  0
 53 54  1  0  0  0
 54 55  1  0  0  0
 55 56  1  0  0  0
 56 57  1  0  0  0
 57 58  1  0  0  0
 58 59  1  0  0  0
 59 60  1  0  0  0
 60 61  1  0  0  0
 61 62  1  0  0  0
 62 63  1  0  0  0
 63 64  1  0  0  0
 64 65  1  0  0  0
 31 32  1  0  0  0
 32 33  1  0  0  0
 33 34  1  0  0  0
 34 35  1  0  0  0
 35 36  1  0  0  0
  8 10  1  0  0  0
  9 17  1  0  0  0
 12 13  2  0  0  0
 12 17  1  0  0  0
 13 14  1  0  0  0
 14 15  2  0  0  0
 15 16  1  0  0  0
 16 17  2  0  0  0
M  END
> <minimizedAffinity>
-10.14416

> <CNNscore>
0.1096153855

> <CNNaffinity>
6.8486871719

> <CNN_VS>
0.7507215142

> <CNNaffinity_variance>
0.9088906050

$$$$
/media/chris/experiments/cd1a-new-docking/inputs/ligands/1xz0_ligand.pdb


 65 67  0  0  0  0  0  0  0  0999 V2000
  -33.6398   60.0473   64.3811 C   0  0  0  0  0  0  0  0  0  0  0  0
  -32.9623   59.9595   63.0860 N   0  0  0  0  0  0  0  0  0  0  0  0
  -31.8592   60.7626   61.2664 O   0  0  0  0  0  0  0  0  0  0  0  0
  -32.3958   60.9338   62.3530 C   0  0  0  0  0  0  0  0  0  0  0  0
  -32.9148   59.0569   62.6958 H   0  0  0  0  0  0  0  0  0  0  0  0
  -33.5232   63.1261   62.6733 N   0  0  0  0  0  0  0  0  0  0  0  0
  -31.8540   64.4842   62.0721 O   0  0  0  0  0  0  0  0  0  0  0  0
  -31.1918   63.2997   62.5135 C   0  0  0  0  0  0  0  0  0  0  0  0
  -33.2741   64.2693   62.1953 C   0  0  0  0  0  0  0  0  0  0  0  0
  -32.3173   62.3265   62.9615 C   0  0  0  0  0  0  0  0  0  0  0  0
  -35.9932   63.6793   61.3861 O   0  0  0  0  0  0  0  0  0  0  0  0
  -35.6120   64.9588   61.4818 C   0  0  0  0  0  0  0  0  0  0  0  0
  -36.5327   65.9783   61.2068 C   0  0  0  0  0  0  0  0  0  0  0  0
  -36.1546   67.3289   61.2910 C   0  0  0  0  0  0  0  0  0  0  0  0
  -34.8539   67.6755   61.6609 C   0  0  0  0  0  0  0  0  0  0  0  0
  -33.9334   66.6621   61.9422 C   0  0  0  0  0  0  0  0  0  0  0  0
  -34.3070   65.3077   61.8503 C   0  0  0  0  0  0  0  0  0  0  0  0
  -36.8721   63.4696   61.1376 H   0  0  0  0  0  0  0  0  0  0  0  0
  -33.1305   58.2376   65.8647 O   0  0  0  0  0  0  0  0  0  0  0  0
  -33.7629   58.6259   64.8964 C   0  0  0  0  0  0  0  0  0  0  0  0
  -34.6081   57.6620   64.1838 O   0  0  0  0  0  0  0  0  0  0  0  0
  -36.0419   57.7940   64.1638 C   0  0  0  0  0  0  0  0  0  0  0  0
  -36.7488   57.2000   65.3759 C   0  0  0  0  0  0  0  0  0  0  0  0
  -36.5616   57.1826   62.8712 C   0  0  0  0  0  0  0  0  0  0  0  0
  -38.3614   57.7187   61.2999 N   0  0  0  0  0  0  0  0  0  0  0  0
  -36.9752   59.3244   62.0849 O   0  0  0  0  0  0  0  0  0  0  0  0
  -37.3160   58.1659   62.0109 C   0  0  0  0  0  0  0  0  0  0  0  0
  -38.5442   56.7515   61.3141 H   0  0  0  0  0  0  0  0  0  0  0  0
  -41.3510   58.5412   61.7904 N   0  0  0  0  0  0  0  0  0  0  0  0
  -40.3110   60.4925   61.3704 O   0  0  0  0  0  0  0  0  0  0  0  0
  -41.3544   57.0796   61.9505 C   0  0  0  0  0  0  0  0  0  0  0  0
  -41.4172   56.3813   60.5789 C   0  0  0  0  0  0  0  0  0  0  0  0
  -41.2775   57.2998   59.3761 C   0  0  0  0  0  0  0  0  0  0  0  0
  -39.8845   57.9239   59.2582 C   0  0  0  0  0  0  0  0  0  0  0  0
  -39.2522   58.5695   60.5024 C   0  0  0  0  0  0  0  0  0  0  0  0
  -40.3503   59.2734   61.2754 C   0  0  0  0  0  0  0  0  0  0  0  0
  -42.9079   60.7766   61.4698 Si  0  0  0  0  0  0  0  0  0  0  0  0
  -42.4589   59.2132   62.2112 O   0  0  0  0  0  0  0  0  0  0  0  0
  -44.0923   61.2673   62.0803 H   0  0  0  0  0  0  0  0  0  0  0  0
  -43.1327   60.5940   60.0795 H   0  0  0  0  0  0  0  0  0  0  0  0
  -41.8553   61.7106   61.6603 H   0  0  0  0  0  0  0  0  0  0  0  0
  -35.6820   60.8997   65.7943 C   0  0  0  0  0  0  0  0  0  0  0  0
  -34.9650   60.8452   64.4397 C   0  0  0  0  0  0  0  0  0  0  0  0
  -37.1684   61.2948   65.7782 C   0  0  0  0  0  0  0  0  0  0  0  0
  -38.2076   60.1549   65.7710 C   0  0  0  0  0  0  0  0  0  0  0  0
  -39.3077   60.5412   64.8817 N   0  0  0  0  0  0  0  0  0  0  0  0
  -40.6459   60.5264   65.1195 C   0  0  0  0  0  0  0  0  0  0  0  0
  -38.8893   60.9836   63.6189 O   0  0  0  0  0  0  0  0  0  0  0  0
  -41.4496   60.8868   64.2596 O   0  0  0  0  0  0  0  0  0  0  0  0
  -39.6645   61.2212   63.0865 H   0  0  0  0  0  0  0  0  0  0  0  0
  -41.1513   60.0568   66.4876 C   0  0  0  0  0  0  0  0  0  0  0  0
  -42.1011   58.8523   66.4354 C   0  0  0  0  0  0  0  0  0  0  0  0
  -43.5650   59.3319   66.4677 C   0  0  0  0  0  0  0  0  0  0  0  0
  -44.4345   58.7291   65.3481 C   0  0  0  0  0  0  0  0  0  0  0  0
  -45.6571   59.5802   64.9569 C   0  0  0  0  0  0  0  0  0  0  0  0
  -46.9192   59.2275   65.7715 C   0  0  0  0  0  0  0  0  0  0  0  0
  -48.1070   60.1965   65.5664 C   0  0  0  0  0  0  0  0  0  0  0  0
  -49.4086   59.7120   66.2155 C   0  0  0  0  0  0  0  0  0  0  0  0
  -50.4486   59.1368   65.2488 C   0  0  0  0  0  0  0  0  0  0  0  0
  -51.0335   60.2313   64.3376 C   0  0  0  0  0  0  0  0  0  0  0  0
  -50.9191   59.9195   62.8377 C   0  0  0  0  0  0  0  0  0  0  0  0
  -49.5815   60.2800   62.1830 C   0  0  0  0  0  0  0  0  0  0  0  0
  -49.6248   60.3335   60.6355 C   0  0  0  0  0  0  0  0  0  0  0  0
  -49.1790   58.9957   60.0112 C   0  0  0  0  0  0  0  0  0  0  0  0
  -50.2403   58.1892   59.2530 C   0  0  0  0  0  0  0  0  0  0  0  0
 46 47  1  0  0  0
 46 48  1  0  0  0
 46 45  1  0  0  0
 47 49  2  0  0  0
 47 51  1  0  0  0
 19 20  2  0  0  0
 37 38  1  0  0  0
 37 39  1  0  0  0
 37 40  1  0  0  0
 37 41  1  0  0  0
 48 50  1  0  0  0
 38 29  1  0  0  0
 45 44  1  0  0  0
 25 27  1  0  0  0
 25 35  1  0  0  0
 25 28  1  0  0  0
 21 20  1  0  0  0
 21 22  1  0  0  0
 44 42  1  0  0  0
  2  1  1  0  0  0
  2  4  1  0  0  0
  2  5  1  0  0  0
 26 27  2  0  0  0
 42 43  2  0  0  0
 29 31  1  0  0  0
 29 36  1  0  0  0
  3  4  2  0  0  0
 43  1  1  0  0  0
  6  9  2  0  0  0
  6 10  1  0  0  0
  1 20  1  0  0  0
 30 36  2  0  0  0
  7  8  1  0  0  0
  7  9  1  0  0  0
 22 24  1  0  0  0
 22 23  1  0  0  0
 11 12  1  0  0  0
 11 18  1  0  0  0
 24 27  1  0  0  0
  4 10  1  0  0  0
 51 52  1  0  0  0
 52 53  1  0  0  0
 53 54  1  0  0  0
 54 55  1  0  0  0
 55 56  1  0  0  0
 56 57  1  0  0  0
 57 58  1  0  0  0
 58 59  1  0  0  0
 59 60  1  0  0  0
 60 61  1  0  0  0
 61 62  1  0  0  0
 62 63  1  0  0  0
 63 64  1  0  0  0
 64 65  1  0  0  0
 31 32  1  0  0  0
 32 33  1  0  0  0
 33 34  1  0  0  0
 34 35  1  0  0  0
 35 36  1  0  0  0
  8 10  1  0  0  0
  9 17  1  0  0  0
 12 13  2  0  0  0
 12 17  1  0  0  0
 13 14  1  0  0  0
 14 15  2  0  0  0
 15 16  1  0  0  0
 16 17  2  0  0  0
M  END
> <minimizedAffinity>
-9.19256

> <CNNscore>
0.1086973920

> <CNNaffinity>
7.0844206810

> <CNN_VS>
0.7700580359

> <CNNaffinity_variance>
1.3184014559

$$$$
