/media/chris/experiments/cd1a-new-docking/inputs/ligands/1xz0_ligand.pdb


 65 67  0  0  0  0  0  0  0  0999 V2000
  -41.2205   59.5513   63.5938 C   0  0  0  0  0  0  0  0  0  0  0  0
  -40.0097   59.3700   64.3970 N   0  0  0  0  0  0  0  0  0  0  0  0
  -40.2873   60.8658   66.0877 O   0  0  0  0  0  0  0  0  0  0  0  0
  -39.6343   59.9963   65.5258 C   0  0  0  0  0  0  0  0  0  0  0  0
  -39.3797   58.6916   64.0621 H   0  0  0  0  0  0  0  0  0  0  0  0
  -37.4830   60.9081   66.3746 N   0  0  0  0  0  0  0  0  0  0  0  0
  -36.0643   59.6852   65.1566 O   0  0  0  0  0  0  0  0  0  0  0  0
  -37.2394   58.8786   65.2287 C   0  0  0  0  0  0  0  0  0  0  0  0
  -36.3224   60.9085   65.8742 C   0  0  0  0  0  0  0  0  0  0  0  0
  -38.2544   59.6841   66.0865 C   0  0  0  0  0  0  0  0  0  0  0  0
  -36.9652   63.7235   66.1185 O   0  0  0  0  0  0  0  0  0  0  0  0
  -35.6816   63.3476   66.1739 C   0  0  0  0  0  0  0  0  0  0  0  0
  -34.6847   64.3135   66.3639 C   0  0  0  0  0  0  0  0  0  0  0  0
  -33.3296   63.9458   66.4161 C   0  0  0  0  0  0  0  0  0  0  0  0
  -32.9567   62.6066   66.2890 C   0  0  0  0  0  0  0  0  0  0  0  0
  -33.9480   61.6385   66.1058 C   0  0  0  0  0  0  0  0  0  0  0  0
  -35.3061   62.0050   66.0442 C   0  0  0  0  0  0  0  0  0  0  0  0
  -37.1928   64.6279   66.2078 H   0  0  0  0  0  0  0  0  0  0  0  0
  -41.7344   57.2735   64.1256 O   0  0  0  0  0  0  0  0  0  0  0  0
  -42.1493   58.4083   63.9566 C   0  0  0  0  0  0  0  0  0  0  0  0
  -43.5945   58.6421   64.0446 O   0  0  0  0  0  0  0  0  0  0  0  0
  -44.2525   58.7967   65.3163 C   0  0  0  0  0  0  0  0  0  0  0  0
  -43.3458   59.2756   66.4434 C   0  0  0  0  0  0  0  0  0  0  0  0
  -44.9222   57.4782   65.6730 C   0  0  0  0  0  0  0  0  0  0  0  0
  -46.9867   58.7941   65.7199 N   0  0  0  0  0  0  0  0  0  0  0  0
  -46.9561   56.6387   66.4046 O   0  0  0  0  0  0  0  0  0  0  0  0
  -46.3892   57.6253   65.9937 C   0  0  0  0  0  0  0  0  0  0  0  0
  -46.4224   59.5302   65.3897 H   0  0  0  0  0  0  0  0  0  0  0  0
  -49.3473   58.4243   63.6837 N   0  0  0  0  0  0  0  0  0  0  0  0
  -50.0719   57.3968   65.5505 O   0  0  0  0  0  0  0  0  0  0  0  0
  -48.3407   59.1824   62.9260 C   0  0  0  0  0  0  0  0  0  0  0  0
  -48.4195   60.6828   63.2650 C   0  0  0  0  0  0  0  0  0  0  0  0
  -49.3548   61.0415   64.4080 C   0  0  0  0  0  0  0  0  0  0  0  0
  -48.8710   60.5199   65.7636 C   0  0  0  0  0  0  0  0  0  0  0  0
  -48.4223   59.0534   65.8777 C   0  0  0  0  0  0  0  0  0  0  0  0
  -49.3387   58.2132   65.0097 C   0  0  0  0  0  0  0  0  0  0  0  0
  -50.2200   57.6063   61.2153 Si  0  0  0  0  0  0  0  0  0  0  0  0
  -50.3754   57.8793   62.9752 O   0  0  0  0  0  0  0  0  0  0  0  0
  -51.4198   57.0329   60.7174 H   0  0  0  0  0  0  0  0  0  0  0  0
  -49.1352   56.7243   60.9671 H   0  0  0  0  0  0  0  0  0  0  0  0
  -49.9813   58.8451   60.5634 H   0  0  0  0  0  0  0  0  0  0  0  0
  -41.5985   58.6421   61.1597 C   0  0  0  0  0  0  0  0  0  0  0  0
  -41.0416   59.7449   62.0685 C   0  0  0  0  0  0  0  0  0  0  0  0
  -41.0626   58.5925   59.7190 C   0  0  0  0  0  0  0  0  0  0  0  0
  -39.8565   57.6723   59.4397 C   0  0  0  0  0  0  0  0  0  0  0  0
  -38.6679   58.2733   60.0528 N   0  0  0  0  0  0  0  0  0  0  0  0
  -38.1344   58.0515   61.2831 C   0  0  0  0  0  0  0  0  0  0  0  0
  -38.0118   59.2007   59.2311 O   0  0  0  0  0  0  0  0  0  0  0  0
  -38.6413   57.2436   62.0611 O   0  0  0  0  0  0  0  0  0  0  0  0
  -37.2393   59.5563   59.6977 H   0  0  0  0  0  0  0  0  0  0  0  0
  -36.8831   58.8312   61.7005 C   0  0  0  0  0  0  0  0  0  0  0  0
  -35.7891   57.9752   62.3533 C   0  0  0  0  0  0  0  0  0  0  0  0
  -34.4541   58.7446   62.3677 C   0  0  0  0  0  0  0  0  0  0  0  0
  -33.2990   57.9598   63.0179 C   0  0  0  0  0  0  0  0  0  0  0  0
  -32.0017   58.7678   63.2080 C   0  0  0  0  0  0  0  0  0  0  0  0
  -32.2261   60.2921   63.1221 C   0  0  0  0  0  0  0  0  0  0  0  0
  -31.5674   60.9698   61.8980 C   0  0  0  0  0  0  0  0  0  0  0  0
  -31.3602   62.4785   62.0742 C   0  0  0  0  0  0  0  0  0  0  0  0
  -32.5281   63.2295   62.7213 C   0  0  0  0  0  0  0  0  0  0  0  0
  -32.2245   64.7330   62.8530 C   0  0  0  0  0  0  0  0  0  0  0  0
  -33.4704   65.6022   63.0816 C   0  0  0  0  0  0  0  0  0  0  0  0
  -34.1143   66.1874   61.8204 C   0  0  0  0  0  0  0  0  0  0  0  0
  -35.6318   65.9043   61.6911 C   0  0  0  0  0  0  0  0  0  0  0  0
  -35.9066   64.4127   61.4125 C   0  0  0  0  0  0  0  0  0  0  0  0
  -36.2471   63.5269   62.6170 C   0  0  0  0  0  0  0  0  0  0  0  0
 46 47  1  0  0  0
 46 48  1  0  0  0
 46 45  1  0  0  0
 47 49  2  0  0  0
 47 51  1  0  0  0
 19 20  2  0  0  0
 37 38  1  0  0  0
 37 39  1  0  0  0
 37 40  1  0  0  0
 37 41  1  0  0  0
 48 50  1  0  0  0
 38 29  1  0  0  0
 45 44  1  0  0  0
 25 27  1  0  0  0
 25 35  1  0  0  0
 25 28  1  0  0  0
 21 20  1  0  0  0
 21 22  1  0  0  0
 44 42  1  0  0  0
  2  1  1  0  0  0
  2  4  1  0  0  0
  2  5  1  0  0  0
 26 27  2  0  0  0
 42 43  2  0  0  0
 29 31  1  0  0  0
 29 36  1  0  0  0
  3  4  2  0  0  0
 43  1  1  0  0  0
  6  9  2  0  0  0
  6 10  1  0  0  0
  1 20  1  0  0  0
 30 36  2  0  0  0
  7  8  1  0  0  0
  7  9  1  0  0  0
 22 24  1  0  0  0
 22 23  1  0  0  0
 11 12  1  0  0  0
 11 18  1  0  0  0
 24 27  1  0  0  0
  4 10  1  0  0  0
 51 52  1  0  0  0
 52 53  1  0  0  0
 53 54  1  0  0  0
 54 55  1  0  0  0
 55 56  1  0  0  0
 56 57  1  0  0  0
 57 58  1  0  0  0
 58 59  1  0  0  0
 59 60  1  0  0  0
 60 61  1  0  0  0
 61 62  1  0  0  0
 62 63  1  0  0  0
 63 64  1  0  0  0
 64 65  1  0  0  0
 31 32  1  0  0  0
 32 33  1  0  0  0
 33 34  1  0  0  0
 34 35  1  0  0  0
 35 36  1  0  0  0
  8 10  1  0  0  0
  9 17  1  0  0  0
 12 13  2  0  0  0
 12 17  1  0  0  0
 13 14  1  0  0  0
 14 15  2  0  0  0
 15 16  1  0  0  0
 16 17  2  0  0  0
M  END
> <minimizedAffinity>
-9.13396

> <CNNscore>
0.2137780637

> <CNNaffinity>
7.4257307053

> <CNN_VS>
1.5874583721

> <CNNaffinity_variance>
1.9793760777

$$$$
/media/chris/experiments/cd1a-new-docking/inputs/ligands/1xz0_ligand.pdb


 65 67  0  0  0  0  0  0  0  0999 V2000
  -40.0912   58.8717   64.0244 C   0  0  0  0  0  0  0  0  0  0  0  0
  -39.3275   59.9806   64.5998 N   0  0  0  0  0  0  0  0  0  0  0  0
  -37.5633   58.9332   65.5814 O   0  0  0  0  0  0  0  0  0  0  0  0
  -38.1807   59.9521   65.3008 C   0  0  0  0  0  0  0  0  0  0  0  0
  -39.7089   60.8762   64.4521 H   0  0  0  0  0  0  0  0  0  0  0  0
  -37.1912   62.1840   64.8320 N   0  0  0  0  0  0  0  0  0  0  0  0
  -35.4965   62.1430   66.2874 O   0  0  0  0  0  0  0  0  0  0  0  0
  -36.4581   61.2535   66.8538 C   0  0  0  0  0  0  0  0  0  0  0  0
  -36.0343   62.6449   65.0476 C   0  0  0  0  0  0  0  0  0  0  0  0
  -37.6694   61.2631   65.8806 C   0  0  0  0  0  0  0  0  0  0  0  0
  -36.6998   63.1672   62.2761 O   0  0  0  0  0  0  0  0  0  0  0  0
  -35.6997   63.8553   62.8402 C   0  0  0  0  0  0  0  0  0  0  0  0
  -35.0116   64.8177   62.0898 C   0  0  0  0  0  0  0  0  0  0  0  0
  -33.9521   65.5465   62.6558 C   0  0  0  0  0  0  0  0  0  0  0  0
  -33.5750   65.3282   63.9821 C   0  0  0  0  0  0  0  0  0  0  0  0
  -34.2626   64.3737   64.7368 C   0  0  0  0  0  0  0  0  0  0  0  0
  -35.3190   63.6355   64.1696 C   0  0  0  0  0  0  0  0  0  0  0  0
  -36.9371   63.3313   61.3847 H   0  0  0  0  0  0  0  0  0  0  0  0
  -41.1932   60.2292   62.3879 O   0  0  0  0  0  0  0  0  0  0  0  0
  -40.4497   59.2879   62.6105 C   0  0  0  0  0  0  0  0  0  0  0  0
  -39.9524   58.5084   61.4721 O   0  0  0  0  0  0  0  0  0  0  0  0
  -38.7510   58.8855   60.7734 C   0  0  0  0  0  0  0  0  0  0  0  0
  -38.7362   58.5152   59.2954 C   0  0  0  0  0  0  0  0  0  0  0  0
  -37.5616   58.2794   61.5031 C   0  0  0  0  0  0  0  0  0  0  0  0
  -35.6259   58.8906   62.8724 N   0  0  0  0  0  0  0  0  0  0  0  0
  -37.1113   60.4503   62.1820 O   0  0  0  0  0  0  0  0  0  0  0  0
  -36.7440   59.3000   62.2556 C   0  0  0  0  0  0  0  0  0  0  0  0
  -35.4280   57.9262   62.8684 H   0  0  0  0  0  0  0  0  0  0  0  0
  -32.5566   59.3313   62.3821 N   0  0  0  0  0  0  0  0  0  0  0  0
  -33.4070   61.4147   62.4194 O   0  0  0  0  0  0  0  0  0  0  0  0
  -32.6953   57.8702   62.4721 C   0  0  0  0  0  0  0  0  0  0  0  0
  -32.7403   57.4167   63.9435 C   0  0  0  0  0  0  0  0  0  0  0  0
  -32.8200   58.5382   64.9660 C   0  0  0  0  0  0  0  0  0  0  0  0
  -34.1463   59.3014   64.9151 C   0  0  0  0  0  0  0  0  0  0  0  0
  -34.6766   59.7788   63.5528 C   0  0  0  0  0  0  0  0  0  0  0  0
  -33.4927   60.2322   62.7211 C   0  0  0  0  0  0  0  0  0  0  0  0
  -31.3320   60.7660   60.3907 Si  0  0  0  0  0  0  0  0  0  0  0  0
  -31.3759   59.8132   61.9028 O   0  0  0  0  0  0  0  0  0  0  0  0
  -29.9933   61.1477   60.1106 H   0  0  0  0  0  0  0  0  0  0  0  0
  -32.1343   61.9281   60.5401 H   0  0  0  0  0  0  0  0  0  0  0  0
  -31.8336   59.9789   59.3205 H   0  0  0  0  0  0  0  0  0  0  0  0
  -41.9270   57.0245   64.3594 C   0  0  0  0  0  0  0  0  0  0  0  0
  -41.2950   58.3375   64.8378 C   0  0  0  0  0  0  0  0  0  0  0  0
  -43.3473   56.7137   64.8612 C   0  0  0  0  0  0  0  0  0  0  0  0
  -43.7310   57.2174   66.2678 C   0  0  0  0  0  0  0  0  0  0  0  0
  -45.1089   57.7164   66.2174 N   0  0  0  0  0  0  0  0  0  0  0  0
  -45.5769   58.8884   65.7126 C   0  0  0  0  0  0  0  0  0  0  0  0
  -46.0514   56.8403   66.7740 O   0  0  0  0  0  0  0  0  0  0  0  0
  -44.8179   59.7072   65.1947 O   0  0  0  0  0  0  0  0  0  0  0  0
  -46.9362   57.2322   66.7070 H   0  0  0  0  0  0  0  0  0  0  0  0
  -47.0772   59.1875   65.8008 C   0  0  0  0  0  0  0  0  0  0  0  0
  -47.8732   58.8233   64.5402 C   0  0  0  0  0  0  0  0  0  0  0  0
  -48.9587   57.7845   64.8822 C   0  0  0  0  0  0  0  0  0  0  0  0
  -50.3889   58.2637   64.5693 C   0  0  0  0  0  0  0  0  0  0  0  0
  -50.7087   59.6892   65.0569 C   0  0  0  0  0  0  0  0  0  0  0  0
  -51.1680   60.6239   63.9183 C   0  0  0  0  0  0  0  0  0  0  0  0
  -51.1568   59.9776   62.5134 C   0  0  0  0  0  0  0  0  0  0  0  0
  -49.9424   60.3776   61.6676 C   0  0  0  0  0  0  0  0  0  0  0  0
  -49.5900   59.4141   60.5299 C   0  0  0  0  0  0  0  0  0  0  0  0
  -49.0086   58.0953   61.0711 C   0  0  0  0  0  0  0  0  0  0  0  0
  -49.5303   56.8428   60.3507 C   0  0  0  0  0  0  0  0  0  0  0  0
  -48.4840   56.0381   59.5726 C   0  0  0  0  0  0  0  0  0  0  0  0
  -47.4098   56.9044   58.8688 C   0  0  0  0  0  0  0  0  0  0  0  0
  -47.7915   57.1981   57.4038 C   0  0  0  0  0  0  0  0  0  0  0  0
  -47.1861   58.4516   56.7608 C   0  0  0  0  0  0  0  0  0  0  0  0
 46 47  1  0  0  0
 46 48  1  0  0  0
 46 45  1  0  0  0
 47 49  2  0  0  0
 47 51  1  0  0  0
 19 20  2  0  0  0
 37 38  1  0  0  0
 37 39  1  0  0  0
 37 40  1  0  0  0
 37 41  1  0  0  0
 48 50  1  0  0  0
 38 29  1  0  0  0
 45 44  1  0  0  0
 25 27  1  0  0  0
 25 35  1  0  0  0
 25 28  1  0  0  0
 21 20  1  0  0  0
 21 22  1  0  0  0
 44 42  1  0  0  0
  2  1  1  0  0  0
  2  4  1  0  0  0
  2  5  1  0  0  0
 26 27  2  0  0  0
 42 43  2  0  0  0
 29 31  1  0  0  0
 29 36  1  0  0  0
  3  4  2  0  0  0
 43  1  1  0  0  0
  6  9  2  0  0  0
  6 10  1  0  0  0
  1 20  1  0  0  0
 30 36  2  0  0  0
  7  8  1  0  0  0
  7  9  1  0  0  0
 22 24  1  0  0  0
 22 23  1  0  0  0
 11 12  1  0  0  0
 11 18  1  0  0  0
 24 27  1  0  0  0
  4 10  1  0  0  0
 51 52  1  0  0  0
 52 53  1  0  0  0
 53 54  1  0  0  0
 54 55  1  0  0  0
 55 56  1  0  0  0
 56 57  1  0  0  0
 57 58  1  0  0  0
 58 59  1  0  0  0
 59 60  1  0  0  0
 60 61  1  0  0  0
 61 62  1  0  0  0
 62 63  1  0  0  0
 63 64  1  0  0  0
 64 65  1  0  0  0
 31 32  1  0  0  0
 32 33  1  0  0  0
 33 34  1  0  0  0
 34 35  1  0  0  0
 35 36  1  0  0  0
  8 10  1  0  0  0
  9 17  1  0  0  0
 12 13  2  0  0  0
 12 17  1  0  0  0
 13 14  1  0  0  0
 14 15  2  0  0  0
 15 16  1  0  0  0
 16 17  2  0  0  0
M  END
> <minimizedAffinity>
-9.52776

> <CNNscore>
0.1712129861

> <CNNaffinity>
7.3486328125

> <CNN_VS>
1.2581813335

> <CNNaffinity_variance>
0.4781391025

$$$$
/media/chris/experiments/cd1a-new-docking/inputs/ligands/1xz0_ligand.pdb


 65 67  0  0  0  0  0  0  0  0999 V2000
  -38.8309   59.7436   65.4104 C   0  0  0  0  0  0  0  0  0  0  0  0
  -38.1184   60.7814   64.6625 N   0  0  0  0  0  0  0  0  0  0  0  0
  -36.3270   61.2312   65.9898 O   0  0  0  0  0  0  0  0  0  0  0  0
  -36.9802   61.4259   64.9731 C   0  0  0  0  0  0  0  0  0  0  0  0
  -38.5326   61.0452   63.8092 H   0  0  0  0  0  0  0  0  0  0  0  0
  -35.4556   62.1220   63.1371 N   0  0  0  0  0  0  0  0  0  0  0  0
  -34.6378   63.9972   64.0352 O   0  0  0  0  0  0  0  0  0  0  0  0
  -35.9092   63.8405   64.6642 C   0  0  0  0  0  0  0  0  0  0  0  0
  -34.4505   62.8883   63.1335 C   0  0  0  0  0  0  0  0  0  0  0  0
  -36.5278   62.5519   64.0547 C   0  0  0  0  0  0  0  0  0  0  0  0
  -33.3826   64.9309   61.3773 O   0  0  0  0  0  0  0  0  0  0  0  0
  -32.7566   63.7498   61.4488 C   0  0  0  0  0  0  0  0  0  0  0  0
  -31.5979   63.5331   60.6916 C   0  0  0  0  0  0  0  0  0  0  0  0
  -30.9279   62.2991   60.7418 C   0  0  0  0  0  0  0  0  0  0  0  0
  -31.4033   61.2710   61.5577 C   0  0  0  0  0  0  0  0  0  0  0  0
  -32.5552   61.4845   62.3200 C   0  0  0  0  0  0  0  0  0  0  0  0
  -33.2338   62.7170   62.2649 C   0  0  0  0  0  0  0  0  0  0  0  0
  -33.0448   65.6075   60.8241 H   0  0  0  0  0  0  0  0  0  0  0  0
  -37.5612   57.7766   65.9145 O   0  0  0  0  0  0  0  0  0  0  0  0
  -38.1526   58.4301   65.0709 C   0  0  0  0  0  0  0  0  0  0  0  0
  -38.1402   57.9522   63.6844 O   0  0  0  0  0  0  0  0  0  0  0  0
  -36.9067   57.6362   63.0117 C   0  0  0  0  0  0  0  0  0  0  0  0
  -35.7445   57.3109   63.9417 C   0  0  0  0  0  0  0  0  0  0  0  0
  -36.5593   58.7884   62.0811 C   0  0  0  0  0  0  0  0  0  0  0  0
  -38.5992   58.4602   60.7670 N   0  0  0  0  0  0  0  0  0  0  0  0
  -37.9185   60.5295   61.3755 O   0  0  0  0  0  0  0  0  0  0  0  0
  -37.7542   59.3315   61.3370 C   0  0  0  0  0  0  0  0  0  0  0  0
  -38.3608   57.5054   60.7967 H   0  0  0  0  0  0  0  0  0  0  0  0
  -41.5108   58.6867   61.9187 N   0  0  0  0  0  0  0  0  0  0  0  0
  -41.2081   60.6260   60.8173 O   0  0  0  0  0  0  0  0  0  0  0  0
  -41.0506   57.3668   62.3748 C   0  0  0  0  0  0  0  0  0  0  0  0
  -41.2102   56.3181   61.2578 C   0  0  0  0  0  0  0  0  0  0  0  0
  -41.6170   56.8712   59.9020 C   0  0  0  0  0  0  0  0  0  0  0  0
  -40.5304   57.7363   59.2579 C   0  0  0  0  0  0  0  0  0  0  0  0
  -39.8541   58.8294   60.1021 C   0  0  0  0  0  0  0  0  0  0  0  0
  -40.9091   59.4531   60.9948 C   0  0  0  0  0  0  0  0  0  0  0  0
  -44.0529   58.1175   62.7775 Si  0  0  0  0  0  0  0  0  0  0  0  0
  -42.6439   59.1801   62.4921 O   0  0  0  0  0  0  0  0  0  0  0  0
  -45.0967   58.8674   63.3811 H   0  0  0  0  0  0  0  0  0  0  0  0
  -43.6761   57.0528   63.6381 H   0  0  0  0  0  0  0  0  0  0  0  0
  -44.5050   57.5882   61.5398 H   0  0  0  0  0  0  0  0  0  0  0  0
  -41.1885   60.1222   66.5027 C   0  0  0  0  0  0  0  0  0  0  0  0
  -40.3723   59.6988   65.2752 C   0  0  0  0  0  0  0  0  0  0  0  0
  -42.6610   59.6801   66.5442 C   0  0  0  0  0  0  0  0  0  0  0  0
  -43.0277   58.3594   65.8366 C   0  0  0  0  0  0  0  0  0  0  0  0
  -44.4863   58.2125   65.8643 N   0  0  0  0  0  0  0  0  0  0  0  0
  -45.4309   58.9201   65.1901 C   0  0  0  0  0  0  0  0  0  0  0  0
  -44.9388   57.1918   66.7123 O   0  0  0  0  0  0  0  0  0  0  0  0
  -45.1177   59.8242   64.4159 O   0  0  0  0  0  0  0  0  0  0  0  0
  -45.9075   57.1514   66.6814 H   0  0  0  0  0  0  0  0  0  0  0  0
  -46.9091   58.5817   65.4104 C   0  0  0  0  0  0  0  0  0  0  0  0
  -47.5823   59.3770   66.5372 C   0  0  0  0  0  0  0  0  0  0  0  0
  -48.7483   60.2109   65.9720 C   0  0  0  0  0  0  0  0  0  0  0  0
  -50.0875   59.4505   65.9366 C   0  0  0  0  0  0  0  0  0  0  0  0
  -51.1746   60.1065   65.0649 C   0  0  0  0  0  0  0  0  0  0  0  0
  -50.5927   60.9024   63.8779 C   0  0  0  0  0  0  0  0  0  0  0  0
  -50.8835   60.2877   62.4889 C   0  0  0  0  0  0  0  0  0  0  0  0
  -51.1761   58.7836   62.5368 C   0  0  0  0  0  0  0  0  0  0  0  0
  -49.9425   57.8753   62.5331 C   0  0  0  0  0  0  0  0  0  0  0  0
  -49.6986   57.2657   61.1407 C   0  0  0  0  0  0  0  0  0  0  0  0
  -48.4727   57.8408   60.4152 C   0  0  0  0  0  0  0  0  0  0  0  0
  -48.1832   57.2542   59.0297 C   0  0  0  0  0  0  0  0  0  0  0  0
  -47.8941   58.3143   57.9378 C   0  0  0  0  0  0  0  0  0  0  0  0
  -47.5865   57.6555   56.5778 C   0  0  0  0  0  0  0  0  0  0  0  0
  -47.2772   56.1536   56.5817 C   0  0  0  0  0  0  0  0  0  0  0  0
 46 47  1  0  0  0
 46 48  1  0  0  0
 46 45  1  0  0  0
 47 49  2  0  0  0
 47 51  1  0  0  0
 19 20  2  0  0  0
 37 38  1  0  0  0
 37 39  1  0  0  0
 37 40  1  0  0  0
 37 41  1  0  0  0
 48 50  1  0  0  0
 38 29  1  0  0  0
 45 44  1  0  0  0
 25 27  1  0  0  0
 25 35  1  0  0  0
 25 28  1  0  0  0
 21 20  1  0  0  0
 21 22  1  0  0  0
 44 42  1  0  0  0
  2  1  1  0  0  0
  2  4  1  0  0  0
  2  5  1  0  0  0
 26 27  2  0  0  0
 42 43  2  0  0  0
 29 31  1  0  0  0
 29 36  1  0  0  0
  3  4  2  0  0  0
 43  1  1  0  0  0
  6  9  2  0  0  0
  6 10  1  0  0  0
  1 20  1  0  0  0
 30 36  2  0  0  0
  7  8  1  0  0  0
  7  9  1  0  0  0
 22 24  1  0  0  0
 22 23  1  0  0  0
 11 12  1  0  0  0
 11 18  1  0  0  0
 24 27  1  0  0  0
  4 10  1  0  0  0
 51 52  1  0  0  0
 52 53  1  0  0  0
 53 54  1  0  0  0
 54 55  1  0  0  0
 55 56  1  0  0  0
 56 57  1  0  0  0
 57 58  1  0  0  0
 58 59  1  0  0  0
 59 60  1  0  0  0
 60 61  1  0  0  0
 61 62  1  0  0  0
 62 63  1  0  0  0
 63 64  1  0  0  0
 64 65  1  0  0  0
 31 32  1  0  0  0
 32 33  1  0  0  0
 33 34  1  0  0  0
 34 35  1  0  0  0
 35 36  1  0  0  0
  8 10  1  0  0  0
  9 17  1  0  0  0
 12 13  2  0  0  0
 12 17  1  0  0  0
 13 14  1  0  0  0
 14 15  2  0  0  0
 15 16  1  0  0  0
 16 17  2  0  0  0
M  END
> <minimizedAffinity>
-10.22213

> <CNNscore>
0.1709460616

> <CNNaffinity>
7.4938421249

> <CNN_VS>
1.2810428143

> <CNNaffinity_variance>
1.1086919308

$$$$
/media/chris/experiments/cd1a-new-docking/inputs/ligands/1xz0_ligand.pdb


 65 67  0  0  0  0  0  0  0  0999 V2000
  -41.2860   59.2102   65.3807 C   0  0  0  0  0  0  0  0  0  0  0  0
  -39.8814   59.2608   65.7913 N   0  0  0  0  0  0  0  0  0  0  0  0
  -38.9310   60.5847   64.2047 O   0  0  0  0  0  0  0  0  0  0  0  0
  -38.8488   59.9032   65.2181 C   0  0  0  0  0  0  0  0  0  0  0  0
  -39.6614   58.7509   66.6042 H   0  0  0  0  0  0  0  0  0  0  0  0
  -36.7496   60.9528   66.0378 N   0  0  0  0  0  0  0  0  0  0  0  0
  -35.2650   59.7404   64.8898 O   0  0  0  0  0  0  0  0  0  0  0  0
  -36.4025   58.8847   64.9920 C   0  0  0  0  0  0  0  0  0  0  0  0
  -35.5856   60.9831   65.5462 C   0  0  0  0  0  0  0  0  0  0  0  0
  -37.4613   59.6821   65.8030 C   0  0  0  0  0  0  0  0  0  0  0  0
  -35.6436   62.9550   67.6687 O   0  0  0  0  0  0  0  0  0  0  0  0
  -34.6921   63.0439   66.7314 C   0  0  0  0  0  0  0  0  0  0  0  0
  -33.7416   64.0706   66.8044 C   0  0  0  0  0  0  0  0  0  0  0  0
  -32.7387   64.1911   65.8279 C   0  0  0  0  0  0  0  0  0  0  0  0
  -32.6687   63.2802   64.7724 C   0  0  0  0  0  0  0  0  0  0  0  0
  -33.6108   62.2504   64.6986 C   0  0  0  0  0  0  0  0  0  0  0  0
  -34.6224   62.1323   65.6709 C   0  0  0  0  0  0  0  0  0  0  0  0
  -35.6706   63.5765   68.3694 H   0  0  0  0  0  0  0  0  0  0  0  0
  -41.6455   61.3666   66.3585 O   0  0  0  0  0  0  0  0  0  0  0  0
  -41.7849   60.6427   65.3864 C   0  0  0  0  0  0  0  0  0  0  0  0
  -42.5150   61.1657   64.2269 O   0  0  0  0  0  0  0  0  0  0  0  0
  -42.2402   60.6952   62.8939 C   0  0  0  0  0  0  0  0  0  0  0  0
  -42.6054   61.6782   61.7884 C   0  0  0  0  0  0  0  0  0  0  0  0
  -42.9488   59.3631   62.7000 C   0  0  0  0  0  0  0  0  0  0  0  0
  -40.7802   58.5867   61.8693 N   0  0  0  0  0  0  0  0  0  0  0  0
  -42.6179   57.2735   61.7509 O   0  0  0  0  0  0  0  0  0  0  0  0
  -42.0854   58.3236   62.0289 C   0  0  0  0  0  0  0  0  0  0  0  0
  -40.4580   59.4793   62.1312 H   0  0  0  0  0  0  0  0  0  0  0  0
  -37.6764   58.8765   61.4986 N   0  0  0  0  0  0  0  0  0  0  0  0
  -37.9171   56.9034   62.5543 O   0  0  0  0  0  0  0  0  0  0  0  0
  -38.2220   60.0986   60.8898 C   0  0  0  0  0  0  0  0  0  0  0  0
  -38.7088   59.8220   59.4548 C   0  0  0  0  0  0  0  0  0  0  0  0
  -38.7032   58.3604   59.0382 C   0  0  0  0  0  0  0  0  0  0  0  0
  -39.7286   57.5169   59.8004 C   0  0  0  0  0  0  0  0  0  0  0  0
  -39.7984   57.6378   61.3319 C   0  0  0  0  0  0  0  0  0  0  0  0
  -38.3838   57.7925   61.8555 C   0  0  0  0  0  0  0  0  0  0  0  0
  -35.5015   60.2638   62.4308 Si  0  0  0  0  0  0  0  0  0  0  0  0
  -36.3342   58.8455   61.7301 O   0  0  0  0  0  0  0  0  0  0  0  0
  -34.1176   59.9785   62.5713 H   0  0  0  0  0  0  0  0  0  0  0  0
  -36.0562   60.5566   63.7048 H   0  0  0  0  0  0  0  0  0  0  0  0
  -35.6694   61.3829   61.5730 H   0  0  0  0  0  0  0  0  0  0  0  0
  -43.6964   58.2333   65.7415 C   0  0  0  0  0  0  0  0  0  0  0  0
  -42.2140   58.2272   66.1349 C   0  0  0  0  0  0  0  0  0  0  0  0
  -44.6835   57.6099   66.7428 C   0  0  0  0  0  0  0  0  0  0  0  0
  -46.0622   57.1743   66.2054 C   0  0  0  0  0  0  0  0  0  0  0  0
  -47.0260   58.2409   66.4938 N   0  0  0  0  0  0  0  0  0  0  0  0
  -48.1476   58.5892   65.8095 C   0  0  0  0  0  0  0  0  0  0  0  0
  -46.7218   58.9870   67.6412 O   0  0  0  0  0  0  0  0  0  0  0  0
  -48.4931   57.9773   64.7991 O   0  0  0  0  0  0  0  0  0  0  0  0
  -47.3973   59.6710   67.7707 H   0  0  0  0  0  0  0  0  0  0  0  0
  -48.9856   59.7701   66.3107 C   0  0  0  0  0  0  0  0  0  0  0  0
  -50.4397   59.7715   65.8195 C   0  0  0  0  0  0  0  0  0  0  0  0
  -50.5702   60.6449   64.5567 C   0  0  0  0  0  0  0  0  0  0  0  0
  -51.0932   59.8761   63.3285 C   0  0  0  0  0  0  0  0  0  0  0  0
  -50.6694   60.4697   61.9721 C   0  0  0  0  0  0  0  0  0  0  0  0
  -49.3840   59.8262   61.4108 C   0  0  0  0  0  0  0  0  0  0  0  0
  -49.4490   59.4687   59.9076 C   0  0  0  0  0  0  0  0  0  0  0  0
  -50.2997   58.2281   59.6119 C   0  0  0  0  0  0  0  0  0  0  0  0
  -50.0493   57.0275   60.5300 C   0  0  0  0  0  0  0  0  0  0  0  0
  -49.1082   56.0033   59.8702 C   0  0  0  0  0  0  0  0  0  0  0  0
  -47.6666   56.5046   59.6952 C   0  0  0  0  0  0  0  0  0  0  0  0
  -47.0385   56.2582   58.3196 C   0  0  0  0  0  0  0  0  0  0  0  0
  -48.0649   56.1154   57.1682 C   0  0  0  0  0  0  0  0  0  0  0  0
  -48.1054   57.3803   56.2871 C   0  0  0  0  0  0  0  0  0  0  0  0
  -47.1293   58.5095   56.6385 C   0  0  0  0  0  0  0  0  0  0  0  0
 46 47  1  0  0  0
 46 48  1  0  0  0
 46 45  1  0  0  0
 47 49  2  0  0  0
 47 51  1  0  0  0
 19 20  2  0  0  0
 37 38  1  0  0  0
 37 39  1  0  0  0
 37 40  1  0  0  0
 37 41  1  0  0  0
 48 50  1  0  0  0
 38 29  1  0  0  0
 45 44  1  0  0  0
 25 27  1  0  0  0
 25 35  1  0  0  0
 25 28  1  0  0  0
 21 20  1  0  0  0
 21 22  1  0  0  0
 44 42  1  0  0  0
  2  1  1  0  0  0
  2  4  1  0  0  0
  2  5  1  0  0  0
 26 27  2  0  0  0
 42 43  2  0  0  0
 29 31  1  0  0  0
 29 36  1  0  0  0
  3  4  2  0  0  0
 43  1  1  0  0  0
  6  9  2  0  0  0
  6 10  1  0  0  0
  1 20  1  0  0  0
 30 36  2  0  0  0
  7  8  1  0  0  0
  7  9  1  0  0  0
 22 24  1  0  0  0
 22 23  1  0  0  0
 11 12  1  0  0  0
 11 18  1  0  0  0
 24 27  1  0  0  0
  4 10  1  0  0  0
 51 52  1  0  0  0
 52 53  1  0  0  0
 53 54  1  0  0  0
 54 55  1  0  0  0
 55 56  1  0  0  0
 56 57  1  0  0  0
 57 58  1  0  0  0
 58 59  1  0  0  0
 59 60  1  0  0  0
 60 61  1  0  0  0
 61 62  1  0  0  0
 62 63  1  0  0  0
 63 64  1  0  0  0
 64 65  1  0  0  0
 31 32  1  0  0  0
 32 33  1  0  0  0
 33 34  1  0  0  0
 34 35  1  0  0  0
 35 36  1  0  0  0
  8 10  1  0  0  0
  9 17  1  0  0  0
 12 13  2  0  0  0
 12 17  1  0  0  0
 13 14  1  0  0  0
 14 15  2  0  0  0
 15 16  1  0  0  0
 16 17  2  0  0  0
M  END
> <minimizedAffinity>
-10.38431

> <CNNscore>
0.1594908088

> <CNNaffinity>
7.5315504074

> <CNN_VS>
1.2012131214

> <CNNaffinity_variance>
1.4445161819

$$$$
/media/chris/experiments/cd1a-new-docking/inputs/ligands/1xz0_ligand.pdb


 65 67  0  0  0  0  0  0  0  0999 V2000
  -42.6949   58.7287   64.7138 C   0  0  0  0  0  0  0  0  0  0  0  0
  -41.4150   58.9701   65.3829 N   0  0  0  0  0  0  0  0  0  0  0  0
  -40.4037   60.4871   64.0231 O   0  0  0  0  0  0  0  0  0  0  0  0
  -40.4059   59.7827   65.0241 C   0  0  0  0  0  0  0  0  0  0  0  0
  -41.2729   58.4642   66.2155 H   0  0  0  0  0  0  0  0  0  0  0  0
  -38.3895   61.0181   65.7910 N   0  0  0  0  0  0  0  0  0  0  0  0
  -36.8280   59.4894   65.3255 O   0  0  0  0  0  0  0  0  0  0  0  0
  -38.0165   58.7216   65.5115 C   0  0  0  0  0  0  0  0  0  0  0  0
  -37.1669   60.8794   65.5022 C   0  0  0  0  0  0  0  0  0  0  0  0
  -39.1330   59.7456   65.8574 C   0  0  0  0  0  0  0  0  0  0  0  0
  -36.1805   62.3946   67.7667 O   0  0  0  0  0  0  0  0  0  0  0  0
  -35.7151   62.6833   66.5453 C   0  0  0  0  0  0  0  0  0  0  0  0
  -34.7563   63.6930   66.3901 C   0  0  0  0  0  0  0  0  0  0  0  0
  -34.2592   64.0215   65.1177 C   0  0  0  0  0  0  0  0  0  0  0  0
  -34.7079   63.3371   63.9868 C   0  0  0  0  0  0  0  0  0  0  0  0
  -35.6596   62.3246   64.1370 C   0  0  0  0  0  0  0  0  0  0  0  0
  -36.1662   61.9992   65.4099 C   0  0  0  0  0  0  0  0  0  0  0  0
  -35.8640   62.8657   68.5122 H   0  0  0  0  0  0  0  0  0  0  0  0
  -43.5497   57.1908   66.3383 O   0  0  0  0  0  0  0  0  0  0  0  0
  -43.6616   58.2754   65.7911 C   0  0  0  0  0  0  0  0  0  0  0  0
  -44.8049   59.1216   66.1488 O   0  0  0  0  0  0  0  0  0  0  0  0
  -46.1577   58.7039   65.8857 C   0  0  0  0  0  0  0  0  0  0  0  0
  -46.4460   57.2459   66.2218 C   0  0  0  0  0  0  0  0  0  0  0  0
  -46.4780   59.0052   64.4294 C   0  0  0  0  0  0  0  0  0  0  0  0
  -48.5642   58.5624   63.2264 N   0  0  0  0  0  0  0  0  0  0  0  0
  -48.4900   60.0399   64.9372 O   0  0  0  0  0  0  0  0  0  0  0  0
  -47.9441   59.2650   64.1856 C   0  0  0  0  0  0  0  0  0  0  0  0
  -48.0159   57.9603   62.6732 H   0  0  0  0  0  0  0  0  0  0  0  0
  -50.1034   58.3429   60.4991 N   0  0  0  0  0  0  0  0  0  0  0  0
  -51.1778   56.8975   61.8489 O   0  0  0  0  0  0  0  0  0  0  0  0
  -49.0549   59.3396   60.2356 C   0  0  0  0  0  0  0  0  0  0  0  0
  -49.4799   60.7272   60.7521 C   0  0  0  0  0  0  0  0  0  0  0  0
  -50.7628   60.7514   61.5665 C   0  0  0  0  0  0  0  0  0  0  0  0
  -50.6321   60.0305   62.9109 C   0  0  0  0  0  0  0  0  0  0  0  0
  -50.0025   58.6278   62.9432 C   0  0  0  0  0  0  0  0  0  0  0  0
  -50.4612   57.8789   61.7072 C   0  0  0  0  0  0  0  0  0  0  0  0
  -49.9919   57.8269   57.8075 Si  0  0  0  0  0  0  0  0  0  0  0  0
  -50.7640   57.8383   59.4198 O   0  0  0  0  0  0  0  0  0  0  0  0
  -50.8813   57.2534   56.8608 H   0  0  0  0  0  0  0  0  0  0  0  0
  -48.7977   57.0603   57.8600 H   0  0  0  0  0  0  0  0  0  0  0  0
  -49.6832   59.1580   57.4211 H   0  0  0  0  0  0  0  0  0  0  0  0
  -41.7642   56.5887   63.5102 C   0  0  0  0  0  0  0  0  0  0  0  0
  -42.6849   57.8144   63.4647 C   0  0  0  0  0  0  0  0  0  0  0  0
  -41.4122   55.9338   62.1638 C   0  0  0  0  0  0  0  0  0  0  0  0
  -41.9313   56.6180   60.8825 C   0  0  0  0  0  0  0  0  0  0  0  0
  -40.8458   57.4290   60.3222 N   0  0  0  0  0  0  0  0  0  0  0  0
  -39.5315   57.4560   60.6675 C   0  0  0  0  0  0  0  0  0  0  0  0
  -41.2510   58.2846   59.2881 O   0  0  0  0  0  0  0  0  0  0  0  0
  -39.0911   56.7270   61.5560 O   0  0  0  0  0  0  0  0  0  0  0  0
  -40.4866   58.7878   58.9665 H   0  0  0  0  0  0  0  0  0  0  0  0
  -38.5917   58.4193   59.9348 C   0  0  0  0  0  0  0  0  0  0  0  0
  -38.4773   59.8081   60.5782 C   0  0  0  0  0  0  0  0  0  0  0  0
  -37.6928   59.7147   61.9012 C   0  0  0  0  0  0  0  0  0  0  0  0
  -36.5840   58.6454   61.8845 C   0  0  0  0  0  0  0  0  0  0  0  0
  -35.3335   59.0054   62.7082 C   0  0  0  0  0  0  0  0  0  0  0  0
  -34.5310   57.7650   63.1541 C   0  0  0  0  0  0  0  0  0  0  0  0
  -33.0844   57.7071   62.6103 C   0  0  0  0  0  0  0  0  0  0  0  0
  -32.0806   58.4919   63.4626 C   0  0  0  0  0  0  0  0  0  0  0  0
  -31.4464   59.7061   62.7767 C   0  0  0  0  0  0  0  0  0  0  0  0
  -32.0502   61.0233   63.2968 C   0  0  0  0  0  0  0  0  0  0  0  0
  -31.2777   62.2775   62.8605 C   0  0  0  0  0  0  0  0  0  0  0  0
  -31.8295   63.0049   61.6301 C   0  0  0  0  0  0  0  0  0  0  0  0
  -31.3421   64.4680   61.4845 C   0  0  0  0  0  0  0  0  0  0  0  0
  -32.3398   65.3178   60.6717 C   0  0  0  0  0  0  0  0  0  0  0  0
  -33.6415   65.7281   61.3707 C   0  0  0  0  0  0  0  0  0  0  0  0
 46 47  1  0  0  0
 46 48  1  0  0  0
 46 45  1  0  0  0
 47 49  2  0  0  0
 47 51  1  0  0  0
 19 20  2  0  0  0
 37 38  1  0  0  0
 37 39  1  0  0  0
 37 40  1  0  0  0
 37 41  1  0  0  0
 48 50  1  0  0  0
 38 29  1  0  0  0
 45 44  1  0  0  0
 25 27  1  0  0  0
 25 35  1  0  0  0
 25 28  1  0  0  0
 21 20  1  0  0  0
 21 22  1  0  0  0
 44 42  1  0  0  0
  2  1  1  0  0  0
  2  4  1  0  0  0
  2  5  1  0  0  0
 26 27  2  0  0  0
 42 43  2  0  0  0
 29 31  1  0  0  0
 29 36  1  0  0  0
  3  4  2  0  0  0
 43  1  1  0  0  0
  6  9  2  0  0  0
  6 10  1  0  0  0
  1 20  1  0  0  0
 30 36  2  0  0  0
  7  8  1  0  0  0
  7  9  1  0  0  0
 22 24  1  0  0  0
 22 23  1  0  0  0
 11 12  1  0  0  0
 11 18  1  0  0  0
 24 27  1  0  0  0
  4 10  1  0  0  0
 51 52  1  0  0  0
 52 53  1  0  0  0
 53 54  1  0  0  0
 54 55  1  0  0  0
 55 56  1  0  0  0
 56 57  1  0  0  0
 57 58  1  0  0  0
 58 59  1  0  0  0
 59 60  1  0  0  0
 60 61  1  0  0  0
 61 62  1  0  0  0
 62 63  1  0  0  0
 63 64  1  0  0  0
 64 65  1  0  0  0
 31 32  1  0  0  0
 32 33  1  0  0  0
 33 34  1  0  0  0
 34 35  1  0  0  0
 35 36  1  0  0  0
  8 10  1  0  0  0
  9 17  1  0  0  0
 12 13  2  0  0  0
 12 17  1  0  0  0
 13 14  1  0  0  0
 14 15  2  0  0  0
 15 16  1  0  0  0
 16 17  2  0  0  0
M  END
> <minimizedAffinity>
-8.98056

> <CNNscore>
0.1582280248

> <CNNaffinity>
7.6422171593

> <CNN_VS>
1.2092128992

> <CNNaffinity_variance>
0.6745589972

$$$$
/media/chris/experiments/cd1a-new-docking/inputs/ligands/1xz0_ligand.pdb


 65 67  0  0  0  0  0  0  0  0999 V2000
  -40.9628   59.2247   64.6303 C   0  0  0  0  0  0  0  0  0  0  0  0
  -39.9121   58.7425   63.7316 N   0  0  0  0  0  0  0  0  0  0  0  0
  -41.0733   58.0957   61.8860 O   0  0  0  0  0  0  0  0  0  0  0  0
  -40.0183   58.2376   62.4902 C   0  0  0  0  0  0  0  0  0  0  0  0
  -38.9958   58.7958   64.0879 H   0  0  0  0  0  0  0  0  0  0  0  0
  -37.6133   57.6706   62.7629 N   0  0  0  0  0  0  0  0  0  0  0  0
  -36.7854   58.7313   60.9793 O   0  0  0  0  0  0  0  0  0  0  0  0
  -38.1400   58.4609   60.6207 C   0  0  0  0  0  0  0  0  0  0  0  0
  -36.5701   58.2228   62.3109 C   0  0  0  0  0  0  0  0  0  0  0  0
  -38.7555   57.7034   61.8299 C   0  0  0  0  0  0  0  0  0  0  0  0
  -36.2635   58.2959   65.1914 O   0  0  0  0  0  0  0  0  0  0  0  0
  -35.1660   58.3121   64.4252 C   0  0  0  0  0  0  0  0  0  0  0  0
  -33.9014   58.3472   65.0272 C   0  0  0  0  0  0  0  0  0  0  0  0
  -32.7345   58.3744   64.2450 C   0  0  0  0  0  0  0  0  0  0  0  0
  -32.8187   58.3566   62.8517 C   0  0  0  0  0  0  0  0  0  0  0  0
  -34.0778   58.3151   62.2464 C   0  0  0  0  0  0  0  0  0  0  0  0
  -35.2492   58.2967   63.0275 C   0  0  0  0  0  0  0  0  0  0  0  0
  -36.1834   58.3067   66.1249 H   0  0  0  0  0  0  0  0  0  0  0  0
  -40.9331   60.9452   66.2959 O   0  0  0  0  0  0  0  0  0  0  0  0
  -40.2899   60.1725   65.6049 C   0  0  0  0  0  0  0  0  0  0  0  0
  -38.8262   60.2215   65.6823 O   0  0  0  0  0  0  0  0  0  0  0  0
  -38.0802   61.3017   65.0902 C   0  0  0  0  0  0  0  0  0  0  0  0
  -37.7791   61.1240   63.6072 C   0  0  0  0  0  0  0  0  0  0  0  0
  -36.8012   61.4965   65.8906 C   0  0  0  0  0  0  0  0  0  0  0  0
  -34.8782   62.7141   64.9879 N   0  0  0  0  0  0  0  0  0  0  0  0
  -36.6958   63.8097   65.7696 O   0  0  0  0  0  0  0  0  0  0  0  0
  -36.0870   62.7848   65.5639 C   0  0  0  0  0  0  0  0  0  0  0  0
  -34.4781   61.8221   64.8715 H   0  0  0  0  0  0  0  0  0  0  0  0
  -33.6629   63.3273   62.1590 N   0  0  0  0  0  0  0  0  0  0  0  0
  -34.7811   65.2068   62.6907 O   0  0  0  0  0  0  0  0  0  0  0  0
  -33.2046   61.9616   62.4535 C   0  0  0  0  0  0  0  0  0  0  0  0
  -31.9643   61.9880   63.3665 C   0  0  0  0  0  0  0  0  0  0  0  0
  -31.5898   63.3559   63.9129 C   0  0  0  0  0  0  0  0  0  0  0  0
  -32.6204   63.9082   64.9012 C   0  0  0  0  0  0  0  0  0  0  0  0
  -34.1095   63.8726   64.5187 C   0  0  0  0  0  0  0  0  0  0  0  0
  -34.2209   64.1759   63.0373 C   0  0  0  0  0  0  0  0  0  0  0  0
  -31.9809   63.5104   60.0000 Si  0  0  0  0  0  0  0  0  0  0  0  0
  -33.5170   63.7672   60.8779 O   0  0  0  0  0  0  0  0  0  0  0  0
  -32.0852   64.0573   58.6937 H   0  0  0  0  0  0  0  0  0  0  0  0
  -31.7138   62.1186   59.9107 H   0  0  0  0  0  0  0  0  0  0  0  0
  -30.9237   64.1513   60.6985 H   0  0  0  0  0  0  0  0  0  0  0  0
  -43.3594   58.4653   65.3878 C   0  0  0  0  0  0  0  0  0  0  0  0
  -41.8576   58.1632   65.3151 C   0  0  0  0  0  0  0  0  0  0  0  0
  -44.1794   57.6683   66.4165 C   0  0  0  0  0  0  0  0  0  0  0  0
  -45.6232   57.2846   66.0323 C   0  0  0  0  0  0  0  0  0  0  0  0
  -46.4788   58.4589   66.2292 N   0  0  0  0  0  0  0  0  0  0  0  0
  -47.2547   59.1139   65.3256 C   0  0  0  0  0  0  0  0  0  0  0  0
  -46.4760   58.9506   67.5422 O   0  0  0  0  0  0  0  0  0  0  0  0
  -47.3239   58.7394   64.1552 O   0  0  0  0  0  0  0  0  0  0  0  0
  -47.0600   59.7229   67.5995 H   0  0  0  0  0  0  0  0  0  0  0  0
  -48.0482   60.3428   65.7819 C   0  0  0  0  0  0  0  0  0  0  0  0
  -49.4574   60.0315   66.3044 C   0  0  0  0  0  0  0  0  0  0  0  0
  -50.4751   60.0934   65.1490 C   0  0  0  0  0  0  0  0  0  0  0  0
  -50.7698   58.7207   64.5149 C   0  0  0  0  0  0  0  0  0  0  0  0
  -51.1311   58.7698   63.0186 C   0  0  0  0  0  0  0  0  0  0  0  0
  -50.7835   60.1220   62.3613 C   0  0  0  0  0  0  0  0  0  0  0  0
  -49.3990   60.1641   61.6735 C   0  0  0  0  0  0  0  0  0  0  0  0
  -49.4561   59.8732   60.1694 C   0  0  0  0  0  0  0  0  0  0  0  0
  -49.7547   58.4183   59.7940 C   0  0  0  0  0  0  0  0  0  0  0  0
  -48.7005   57.4604   60.3780 C   0  0  0  0  0  0  0  0  0  0  0  0
  -48.4204   56.2320   59.4990 C   0  0  0  0  0  0  0  0  0  0  0  0
  -47.2238   56.3517   58.5497 C   0  0  0  0  0  0  0  0  0  0  0  0
  -47.5569   56.0556   57.0661 C   0  0  0  0  0  0  0  0  0  0  0  0
  -47.7572   57.3559   56.2615 C   0  0  0  0  0  0  0  0  0  0  0  0
  -47.2561   58.6574   56.8989 C   0  0  0  0  0  0  0  0  0  0  0  0
 46 47  1  0  0  0
 46 48  1  0  0  0
 46 45  1  0  0  0
 47 49  2  0  0  0
 47 51  1  0  0  0
 19 20  2  0  0  0
 37 38  1  0  0  0
 37 39  1  0  0  0
 37 40  1  0  0  0
 37 41  1  0  0  0
 48 50  1  0  0  0
 38 29  1  0  0  0
 45 44  1  0  0  0
 25 27  1  0  0  0
 25 35  1  0  0  0
 25 28  1  0  0  0
 21 20  1  0  0  0
 21 22  1  0  0  0
 44 42  1  0  0  0
  2  1  1  0  0  0
  2  4  1  0  0  0
  2  5  1  0  0  0
 26 27  2  0  0  0
 42 43  2  0  0  0
 29 31  1  0  0  0
 29 36  1  0  0  0
  3  4  2  0  0  0
 43  1  1  0  0  0
  6  9  2  0  0  0
  6 10  1  0  0  0
  1 20  1  0  0  0
 30 36  2  0  0  0
  7  8  1  0  0  0
  7  9  1  0  0  0
 22 24  1  0  0  0
 22 23  1  0  0  0
 11 12  1  0  0  0
 11 18  1  0  0  0
 24 27  1  0  0  0
  4 10  1  0  0  0
 51 52  1  0  0  0
 52 53  1  0  0  0
 53 54  1  0  0  0
 54 55  1  0  0  0
 55 56  1  0  0  0
 56 57  1  0  0  0
 57 58  1  0  0  0
 58 59  1  0  0  0
 59 60  1  0  0  0
 60 61  1  0  0  0
 61 62  1  0  0  0
 62 63  1  0  0  0
 63 64  1  0  0  0
 64 65  1  0  0  0
 31 32  1  0  0  0
 32 33  1  0  0  0
 33 34  1  0  0  0
 34 35  1  0  0  0
 35 36  1  0  0  0
  8 10  1  0  0  0
  9 17  1  0  0  0
 12 13  2  0  0  0
 12 17  1  0  0  0
 13 14  1  0  0  0
 14 15  2  0  0  0
 15 16  1  0  0  0
 16 17  2  0  0  0
M  END
> <minimizedAffinity>
-10.21953

> <CNNscore>
0.1514361501

> <CNNaffinity>
7.0086736679

> <CNN_VS>
1.0613665581

> <CNNaffinity_variance>
0.5734213591

$$$$
/media/chris/experiments/cd1a-new-docking/inputs/ligands/1xz0_ligand.pdb


 65 67  0  0  0  0  0  0  0  0999 V2000
  -41.4428   58.6990   64.4403 C   0  0  0  0  0  0  0  0  0  0  0  0
  -40.1421   58.7385   65.1116 N   0  0  0  0  0  0  0  0  0  0  0  0
  -39.8447   60.9556   65.5228 O   0  0  0  0  0  0  0  0  0  0  0  0
  -39.4593   59.7956   65.5848 C   0  0  0  0  0  0  0  0  0  0  0  0
  -39.7044   57.8652   65.2339 H   0  0  0  0  0  0  0  0  0  0  0  0
  -37.3561   60.8094   66.4385 N   0  0  0  0  0  0  0  0  0  0  0  0
  -35.8792   59.6777   65.2017 O   0  0  0  0  0  0  0  0  0  0  0  0
  -37.0099   58.8095   65.2673 C   0  0  0  0  0  0  0  0  0  0  0  0
  -36.1989   60.8770   65.9348 C   0  0  0  0  0  0  0  0  0  0  0  0
  -38.0629   59.5499   66.1377 C   0  0  0  0  0  0  0  0  0  0  0  0
  -36.9773   63.6651   66.0668 O   0  0  0  0  0  0  0  0  0  0  0  0
  -35.6819   63.3505   66.1885 C   0  0  0  0  0  0  0  0  0  0  0  0
  -34.7386   64.3662   66.3919 C   0  0  0  0  0  0  0  0  0  0  0  0
  -33.3721   64.0629   66.5132 C   0  0  0  0  0  0  0  0  0  0  0  0
  -32.9343   62.7393   66.4425 C   0  0  0  0  0  0  0  0  0  0  0  0
  -33.8722   61.7218   66.2460 C   0  0  0  0  0  0  0  0  0  0  0  0
  -35.2413   62.0235   66.1153 C   0  0  0  0  0  0  0  0  0  0  0  0
  -37.2490   64.5603   66.1191 H   0  0  0  0  0  0  0  0  0  0  0  0
  -42.1698   57.9601   66.5992 O   0  0  0  0  0  0  0  0  0  0  0  0
  -42.4001   58.0221   65.4028 C   0  0  0  0  0  0  0  0  0  0  0  0
  -43.6049   57.3616   64.8899 O   0  0  0  0  0  0  0  0  0  0  0  0
  -44.8477   58.0752   64.7476 C   0  0  0  0  0  0  0  0  0  0  0  0
  -44.6932   59.5553   64.4204 C   0  0  0  0  0  0  0  0  0  0  0  0
  -45.6632   57.8755   66.0162 C   0  0  0  0  0  0  0  0  0  0  0  0
  -47.8697   58.2514   65.0233 N   0  0  0  0  0  0  0  0  0  0  0  0
  -47.3965   56.3399   66.1359 O   0  0  0  0  0  0  0  0  0  0  0  0
  -47.0830   57.4418   65.7470 C   0  0  0  0  0  0  0  0  0  0  0  0
  -47.5069   59.1286   64.7625 H   0  0  0  0  0  0  0  0  0  0  0  0
  -49.5927   59.4279   62.6776 N   0  0  0  0  0  0  0  0  0  0  0  0
  -49.7522   57.1994   62.4062 O   0  0  0  0  0  0  0  0  0  0  0  0
  -49.1011   60.6178   63.3881 C   0  0  0  0  0  0  0  0  0  0  0  0
  -49.9703   60.9115   64.6254 C   0  0  0  0  0  0  0  0  0  0  0  0
  -51.0042   59.8487   64.9591 C   0  0  0  0  0  0  0  0  0  0  0  0
  -50.3791   58.5292   65.4195 C   0  0  0  0  0  0  0  0  0  0  0  0
  -49.2333   57.9220   64.5928 C   0  0  0  0  0  0  0  0  0  0  0  0
  -49.5332   58.1638   63.1263 C   0  0  0  0  0  0  0  0  0  0  0  0
  -51.1742   58.3638   60.7052 Si  0  0  0  0  0  0  0  0  0  0  0  0
  -50.1495   59.6252   61.4500 O   0  0  0  0  0  0  0  0  0  0  0  0
  -51.6286   58.8111   59.4365 H   0  0  0  0  0  0  0  0  0  0  0  0
  -52.2906   58.1049   61.5437 H   0  0  0  0  0  0  0  0  0  0  0  0
  -50.4172   57.1732   60.5441 H   0  0  0  0  0  0  0  0  0  0  0  0
  -40.2077   57.4474   62.4903 C   0  0  0  0  0  0  0  0  0  0  0  0
  -41.4879   58.1152   63.0073 C   0  0  0  0  0  0  0  0  0  0  0  0
  -40.0870   57.2616   60.9683 C   0  0  0  0  0  0  0  0  0  0  0  0
  -39.0704   58.1493   60.2215 C   0  0  0  0  0  0  0  0  0  0  0  0
  -38.9768   59.4326   60.9246 N   0  0  0  0  0  0  0  0  0  0  0  0
  -37.9664   59.9146   61.6954 C   0  0  0  0  0  0  0  0  0  0  0  0
  -40.1003   60.2548   60.7589 O   0  0  0  0  0  0  0  0  0  0  0  0
  -36.9396   59.2618   61.8810 O   0  0  0  0  0  0  0  0  0  0  0  0
  -39.9705   61.0821   61.2484 H   0  0  0  0  0  0  0  0  0  0  0  0
  -38.1219   61.2937   62.3449 C   0  0  0  0  0  0  0  0  0  0  0  0
  -36.8041   61.9323   62.8042 C   0  0  0  0  0  0  0  0  0  0  0  0
  -36.4909   63.1734   61.9463 C   0  0  0  0  0  0  0  0  0  0  0  0
  -35.8891   64.3412   62.7508 C   0  0  0  0  0  0  0  0  0  0  0  0
  -35.7660   65.6624   61.9690 C   0  0  0  0  0  0  0  0  0  0  0  0
  -34.3049   66.1332   61.8123 C   0  0  0  0  0  0  0  0  0  0  0  0
  -33.4118   65.8761   63.0484 C   0  0  0  0  0  0  0  0  0  0  0  0
  -32.0502   65.2637   62.7004 C   0  0  0  0  0  0  0  0  0  0  0  0
  -31.8512   63.8117   63.1467 C   0  0  0  0  0  0  0  0  0  0  0  0
  -32.5595   62.8302   62.1954 C   0  0  0  0  0  0  0  0  0  0  0  0
  -32.2946   61.3514   62.5163 C   0  0  0  0  0  0  0  0  0  0  0  0
  -33.5253   60.5220   62.8970 C   0  0  0  0  0  0  0  0  0  0  0  0
  -33.4553   59.0394   62.4533 C   0  0  0  0  0  0  0  0  0  0  0  0
  -32.4709   58.2343   63.3256 C   0  0  0  0  0  0  0  0  0  0  0  0
  -32.6648   58.3032   64.8451 C   0  0  0  0  0  0  0  0  0  0  0  0
 46 47  1  0  0  0
 46 48  1  0  0  0
 46 45  1  0  0  0
 47 49  2  0  0  0
 47 51  1  0  0  0
 19 20  2  0  0  0
 37 38  1  0  0  0
 37 39  1  0  0  0
 37 40  1  0  0  0
 37 41  1  0  0  0
 48 50  1  0  0  0
 38 29  1  0  0  0
 45 44  1  0  0  0
 25 27  1  0  0  0
 25 35  1  0  0  0
 25 28  1  0  0  0
 21 20  1  0  0  0
 21 22  1  0  0  0
 44 42  1  0  0  0
  2  1  1  0  0  0
  2  4  1  0  0  0
  2  5  1  0  0  0
 26 27  2  0  0  0
 42 43  2  0  0  0
 29 31  1  0  0  0
 29 36  1  0  0  0
  3  4  2  0  0  0
 43  1  1  0  0  0
  6  9  2  0  0  0
  6 10  1  0  0  0
  1 20  1  0  0  0
 30 36  2  0  0  0
  7  8  1  0  0  0
  7  9  1  0  0  0
 22 24  1  0  0  0
 22 23  1  0  0  0
 11 12  1  0  0  0
 11 18  1  0  0  0
 24 27  1  0  0  0
  4 10  1  0  0  0
 51 52  1  0  0  0
 52 53  1  0  0  0
 53 54  1  0  0  0
 54 55  1  0  0  0
 55 56  1  0  0  0
 56 57  1  0  0  0
 57 58  1  0  0  0
 58 59  1  0  0  0
 59 60  1  0  0  0
 60 61  1  0  0  0
 61 62  1  0  0  0
 62 63  1  0  0  0
 63 64  1  0  0  0
 64 65  1  0  0  0
 31 32  1  0  0  0
 32 33  1  0  0  0
 33 34  1  0  0  0
 34 35  1  0  0  0
 35 36  1  0  0  0
  8 10  1  0  0  0
  9 17  1  0  0  0
 12 13  2  0  0  0
 12 17  1  0  0  0
 13 14  1  0  0  0
 14 15  2  0  0  0
 15 16  1  0  0  0
 16 17  2  0  0  0
M  END
> <minimizedAffinity>
-8.59889

> <CNNscore>
0.1486058086

> <CNNaffinity>
7.3524818420

> <CNN_VS>
1.0926215649

> <CNNaffinity_variance>
1.0542339087

$$$$
/media/chris/experiments/cd1a-new-docking/inputs/ligands/1xz0_ligand.pdb


 65 67  0  0  0  0  0  0  0  0999 V2000
  -42.4559   59.5436   65.3958 C   0  0  0  0  0  0  0  0  0  0  0  0
  -41.9033   58.4935   64.5378 N   0  0  0  0  0  0  0  0  0  0  0  0
  -42.2671   56.6008   65.7453 O   0  0  0  0  0  0  0  0  0  0  0  0
  -41.8432   57.1668   64.7463 C   0  0  0  0  0  0  0  0  0  0  0  0
  -41.5205   58.8039   63.6855 H   0  0  0  0  0  0  0  0  0  0  0  0
  -40.1576   57.1205   62.9196 N   0  0  0  0  0  0  0  0  0  0  0  0
  -41.3262   56.0064   61.3752 O   0  0  0  0  0  0  0  0  0  0  0  0
  -41.8974   55.5811   62.6119 C   0  0  0  0  0  0  0  0  0  0  0  0
  -40.2839   56.9568   61.6727 C   0  0  0  0  0  0  0  0  0  0  0  0
  -41.1007   56.3196   63.7230 C   0  0  0  0  0  0  0  0  0  0  0  0
  -37.6875   58.1434   62.1702 O   0  0  0  0  0  0  0  0  0  0  0  0
  -38.1728   58.1529   60.9227 C   0  0  0  0  0  0  0  0  0  0  0  0
  -37.4144   58.7172   59.8887 C   0  0  0  0  0  0  0  0  0  0  0  0
  -37.9055   58.7480   58.5726 C   0  0  0  0  0  0  0  0  0  0  0  0
  -39.1567   58.2058   58.2737 C   0  0  0  0  0  0  0  0  0  0  0  0
  -39.9144   57.6360   59.3007 C   0  0  0  0  0  0  0  0  0  0  0  0
  -39.4287   57.6115   60.6221 C   0  0  0  0  0  0  0  0  0  0  0  0
  -36.8444   58.5116   62.3478 H   0  0  0  0  0  0  0  0  0  0  0  0
  -41.3511   61.3372   66.5349 O   0  0  0  0  0  0  0  0  0  0  0  0
  -41.2725   60.2125   66.0688 C   0  0  0  0  0  0  0  0  0  0  0  0
  -39.9747   59.5306   66.1094 O   0  0  0  0  0  0  0  0  0  0  0  0
  -38.8424   60.0302   65.3730 C   0  0  0  0  0  0  0  0  0  0  0  0
  -39.1621   60.4881   63.9553 C   0  0  0  0  0  0  0  0  0  0  0  0
  -37.7604   58.9608   65.3737 C   0  0  0  0  0  0  0  0  0  0  0  0
  -36.3374   60.7394   64.4750 N   0  0  0  0  0  0  0  0  0  0  0  0
  -35.4800   58.7210   65.0285 O   0  0  0  0  0  0  0  0  0  0  0  0
  -36.4204   59.4720   64.9051 C   0  0  0  0  0  0  0  0  0  0  0  0
  -37.1723   61.2577   64.4145 H   0  0  0  0  0  0  0  0  0  0  0  0
  -34.2187   62.2479   66.2330 N   0  0  0  0  0  0  0  0  0  0  0  0
  -32.9872   60.8306   64.9919 O   0  0  0  0  0  0  0  0  0  0  0  0
  -35.5028   62.8349   66.6435 C   0  0  0  0  0  0  0  0  0  0  0  0
  -35.9490   63.9211   65.6467 C   0  0  0  0  0  0  0  0  0  0  0  0
  -35.1040   64.0336   64.3885 C   0  0  0  0  0  0  0  0  0  0  0  0
  -35.2262   62.8117   63.4741 C   0  0  0  0  0  0  0  0  0  0  0  0
  -35.0900   61.4082   64.0880 C   0  0  0  0  0  0  0  0  0  0  0  0
  -34.0188   61.4666   65.1595 C   0  0  0  0  0  0  0  0  0  0  0  0
  -33.1839   63.8476   68.2063 Si  0  0  0  0  0  0  0  0  0  0  0  0
  -33.1371   62.5130   67.0178 O   0  0  0  0  0  0  0  0  0  0  0  0
  -31.9422   63.9147   68.8918 H   0  0  0  0  0  0  0  0  0  0  0  0
  -34.2281   63.6138   69.1397 H   0  0  0  0  0  0  0  0  0  0  0  0
  -33.4187   65.0746   67.5311 H   0  0  0  0  0  0  0  0  0  0  0  0
  -45.0247   59.2957   65.8796 C   0  0  0  0  0  0  0  0  0  0  0  0
  -43.5826   59.1418   66.3783 C   0  0  0  0  0  0  0  0  0  0  0  0
  -46.1302   59.3250   66.9486 C   0  0  0  0  0  0  0  0  0  0  0  0
  -47.2345   58.2516   66.8599 C   0  0  0  0  0  0  0  0  0  0  0  0
  -48.4972   58.9176   66.5257 N   0  0  0  0  0  0  0  0  0  0  0  0
  -49.5407   58.4538   65.7884 C   0  0  0  0  0  0  0  0  0  0  0  0
  -48.6156   60.2104   67.0552 O   0  0  0  0  0  0  0  0  0  0  0  0
  -49.5227   57.3248   65.2987 O   0  0  0  0  0  0  0  0  0  0  0  0
  -49.4702   60.5890   66.7961 H   0  0  0  0  0  0  0  0  0  0  0  0
  -50.7531   59.3637   65.5643 C   0  0  0  0  0  0  0  0  0  0  0  0
  -51.1775   59.5072   64.0963 C   0  0  0  0  0  0  0  0  0  0  0  0
  -51.1750   60.9931   63.6883 C   0  0  0  0  0  0  0  0  0  0  0  0
  -50.7949   61.2252   62.2136 C   0  0  0  0  0  0  0  0  0  0  0  0
  -49.7258   60.2605   61.6674 C   0  0  0  0  0  0  0  0  0  0  0  0
  -49.5726   60.3403   60.1340 C   0  0  0  0  0  0  0  0  0  0  0  0
  -49.0932   59.0296   59.4678 C   0  0  0  0  0  0  0  0  0  0  0  0
  -50.1023   57.8815   59.5845 C   0  0  0  0  0  0  0  0  0  0  0  0
  -49.7150   56.7647   60.5590 C   0  0  0  0  0  0  0  0  0  0  0  0
  -48.7605   55.7518   59.9008 C   0  0  0  0  0  0  0  0  0  0  0  0
  -47.4326   56.3633   59.4288 C   0  0  0  0  0  0  0  0  0  0  0  0
  -47.1063   56.1801   57.9430 C   0  0  0  0  0  0  0  0  0  0  0  0
  -46.7273   57.4904   57.2089 C   0  0  0  0  0  0  0  0  0  0  0  0
  -47.7641   57.8516   56.1259 C   0  0  0  0  0  0  0  0  0  0  0  0
  -49.1261   57.1511   56.1996 C   0  0  0  0  0  0  0  0  0  0  0  0
 46 47  1  0  0  0
 46 48  1  0  0  0
 46 45  1  0  0  0
 47 49  2  0  0  0
 47 51  1  0  0  0
 19 20  2  0  0  0
 37 38  1  0  0  0
 37 39  1  0  0  0
 37 40  1  0  0  0
 37 41  1  0  0  0
 48 50  1  0  0  0
 38 29  1  0  0  0
 45 44  1  0  0  0
 25 27  1  0  0  0
 25 35  1  0  0  0
 25 28  1  0  0  0
 21 20  1  0  0  0
 21 22  1  0  0  0
 44 42  1  0  0  0
  2  1  1  0  0  0
  2  4  1  0  0  0
  2  5  1  0  0  0
 26 27  2  0  0  0
 42 43  2  0  0  0
 29 31  1  0  0  0
 29 36  1  0  0  0
  3  4  2  0  0  0
 43  1  1  0  0  0
  6  9  2  0  0  0
  6 10  1  0  0  0
  1 20  1  0  0  0
 30 36  2  0  0  0
  7  8  1  0  0  0
  7  9  1  0  0  0
 22 24  1  0  0  0
 22 23  1  0  0  0
 11 12  1  0  0  0
 11 18  1  0  0  0
 24 27  1  0  0  0
  4 10  1  0  0  0
 51 52  1  0  0  0
 52 53  1  0  0  0
 53 54  1  0  0  0
 54 55  1  0  0  0
 55 56  1  0  0  0
 56 57  1  0  0  0
 57 58  1  0  0  0
 58 59  1  0  0  0
 59 60  1  0  0  0
 60 61  1  0  0  0
 61 62  1  0  0  0
 62 63  1  0  0  0
 63 64  1  0  0  0
 64 65  1  0  0  0
 31 32  1  0  0  0
 32 33  1  0  0  0
 33 34  1  0  0  0
 34 35  1  0  0  0
 35 36  1  0  0  0
  8 10  1  0  0  0
  9 17  1  0  0  0
 12 13  2  0  0  0
 12 17  1  0  0  0
 13 14  1  0  0  0
 14 15  2  0  0  0
 15 16  1  0  0  0
 16 17  2  0  0  0
M  END
> <minimizedAffinity>
-9.48497

> <CNNscore>
0.1379770488

> <CNNaffinity>
7.3831849098

> <CNN_VS>
1.0187100172

> <CNNaffinity_variance>
0.3736734688

$$$$
/media/chris/experiments/cd1a-new-docking/inputs/ligands/1xz0_ligand.pdb


 65 67  0  0  0  0  0  0  0  0999 V2000
  -43.2002   59.0630   64.7856 C   0  0  0  0  0  0  0  0  0  0  0  0
  -44.5365   58.9066   65.3634 N   0  0  0  0  0  0  0  0  0  0  0  0
  -44.3921   56.9181   66.4580 O   0  0  0  0  0  0  0  0  0  0  0  0
  -45.0268   57.9080   66.1183 C   0  0  0  0  0  0  0  0  0  0  0  0
  -45.1668   59.6381   65.1714 H   0  0  0  0  0  0  0  0  0  0  0  0
  -47.3727   57.9171   65.2957 N   0  0  0  0  0  0  0  0  0  0  0  0
  -48.1537   59.6671   66.4444 O   0  0  0  0  0  0  0  0  0  0  0  0
  -47.0695   59.1895   67.2400 C   0  0  0  0  0  0  0  0  0  0  0  0
  -48.2446   58.8318   65.2730 C   0  0  0  0  0  0  0  0  0  0  0  0
  -46.5027   57.9543   66.4865 C   0  0  0  0  0  0  0  0  0  0  0  0
  -49.4715   61.3614   64.5708 O   0  0  0  0  0  0  0  0  0  0  0  0
  -49.8320   60.2610   63.8992 C   0  0  0  0  0  0  0  0  0  0  0  0
  -50.7755   60.3570   62.8680 C   0  0  0  0  0  0  0  0  0  0  0  0
  -51.1777   59.2154   62.1544 C   0  0  0  0  0  0  0  0  0  0  0  0
  -50.6334   57.9661   62.4574 C   0  0  0  0  0  0  0  0  0  0  0  0
  -49.6870   57.8661   63.4811 C   0  0  0  0  0  0  0  0  0  0  0  0
  -49.2886   59.0070   64.2038 C   0  0  0  0  0  0  0  0  0  0  0  0
  -49.8485   62.1901   64.3494 H   0  0  0  0  0  0  0  0  0  0  0  0
  -42.5734   60.3277   66.7203 O   0  0  0  0  0  0  0  0  0  0  0  0
  -42.2814   59.4449   65.9305 C   0  0  0  0  0  0  0  0  0  0  0  0
  -40.9750   58.7924   66.0666 O   0  0  0  0  0  0  0  0  0  0  0  0
  -39.9001   59.0691   65.1490 C   0  0  0  0  0  0  0  0  0  0  0  0
  -39.4661   57.8768   64.3053 C   0  0  0  0  0  0  0  0  0  0  0  0
  -38.7305   59.6380   65.9382 C   0  0  0  0  0  0  0  0  0  0  0  0
  -36.5199   60.5788   65.4655 N   0  0  0  0  0  0  0  0  0  0  0  0
  -38.2766   60.9710   64.0960 O   0  0  0  0  0  0  0  0  0  0  0  0
  -37.8071   60.4882   65.1011 C   0  0  0  0  0  0  0  0  0  0  0  0
  -36.2510   60.1449   66.3074 H   0  0  0  0  0  0  0  0  0  0  0  0
  -34.2205   62.4834   66.4355 N   0  0  0  0  0  0  0  0  0  0  0  0
  -33.1747   61.0013   65.1032 O   0  0  0  0  0  0  0  0  0  0  0  0
  -35.4251   63.0227   67.0839 C   0  0  0  0  0  0  0  0  0  0  0  0
  -36.2148   63.9164   66.1091 C   0  0  0  0  0  0  0  0  0  0  0  0
  -35.7147   63.9113   64.6740 C   0  0  0  0  0  0  0  0  0  0  0  0
  -35.9174   62.5648   63.9742 C   0  0  0  0  0  0  0  0  0  0  0  0
  -35.4837   61.2791   64.6980 C   0  0  0  0  0  0  0  0  0  0  0  0
  -34.1995   61.5734   65.4485 C   0  0  0  0  0  0  0  0  0  0  0  0
  -32.9177   64.4604   67.8204 Si  0  0  0  0  0  0  0  0  0  0  0  0
  -33.0181   62.9412   66.8834 O   0  0  0  0  0  0  0  0  0  0  0  0
  -31.5641   64.7147   68.1660 H   0  0  0  0  0  0  0  0  0  0  0  0
  -33.6936   64.3389   69.0035 H   0  0  0  0  0  0  0  0  0  0  0  0
  -33.4157   65.5342   67.0359 H   0  0  0  0  0  0  0  0  0  0  0  0
  -42.2166   59.4516   62.3823 C   0  0  0  0  0  0  0  0  0  0  0  0
  -43.0623   59.9812   63.5470 C   0  0  0  0  0  0  0  0  0  0  0  0
  -41.7144   60.4866   61.3614 C   0  0  0  0  0  0  0  0  0  0  0  0
  -40.9835   59.9560   60.1110 C   0  0  0  0  0  0  0  0  0  0  0  0
  -39.8946   59.0789   60.5524 N   0  0  0  0  0  0  0  0  0  0  0  0
  -38.6155   59.4010   60.8805 C   0  0  0  0  0  0  0  0  0  0  0  0
  -40.2537   57.7264   60.6391 O   0  0  0  0  0  0  0  0  0  0  0  0
  -38.2227   60.5668   60.8438 O   0  0  0  0  0  0  0  0  0  0  0  0
  -39.4897   57.2073   60.9352 H   0  0  0  0  0  0  0  0  0  0  0  0
  -37.6526   58.2838   61.2962 C   0  0  0  0  0  0  0  0  0  0  0  0
  -36.4236   58.7631   62.0807 C   0  0  0  0  0  0  0  0  0  0  0  0
  -36.0583   57.7361   63.1699 C   0  0  0  0  0  0  0  0  0  0  0  0
  -34.6337   57.9129   63.7288 C   0  0  0  0  0  0  0  0  0  0  0  0
  -33.5085   57.6641   62.7070 C   0  0  0  0  0  0  0  0  0  0  0  0
  -32.8987   58.9700   62.1560 C   0  0  0  0  0  0  0  0  0  0  0  0
  -31.5273   59.3448   62.7648 C   0  0  0  0  0  0  0  0  0  0  0  0
  -30.9614   60.6643   62.2273 C   0  0  0  0  0  0  0  0  0  0  0  0
  -31.9996   61.7528   61.9370 C   0  0  0  0  0  0  0  0  0  0  0  0
  -31.4517   63.1531   62.2674 C   0  0  0  0  0  0  0  0  0  0  0  0
  -32.1856   63.8525   63.4217 C   0  0  0  0  0  0  0  0  0  0  0  0
  -31.9771   65.3671   63.5225 C   0  0  0  0  0  0  0  0  0  0  0  0
  -33.2622   66.2023   63.2973 C   0  0  0  0  0  0  0  0  0  0  0  0
  -33.6548   66.2445   61.8066 C   0  0  0  0  0  0  0  0  0  0  0  0
  -34.8635   65.4044   61.3772 C   0  0  0  0  0  0  0  0  0  0  0  0
 46 47  1  0  0  0
 46 48  1  0  0  0
 46 45  1  0  0  0
 47 49  2  0  0  0
 47 51  1  0  0  0
 19 20  2  0  0  0
 37 38  1  0  0  0
 37 39  1  0  0  0
 37 40  1  0  0  0
 37 41  1  0  0  0
 48 50  1  0  0  0
 38 29  1  0  0  0
 45 44  1  0  0  0
 25 27  1  0  0  0
 25 35  1  0  0  0
 25 28  1  0  0  0
 21 20  1  0  0  0
 21 22  1  0  0  0
 44 42  1  0  0  0
  2  1  1  0  0  0
  2  4  1  0  0  0
  2  5  1  0  0  0
 26 27  2  0  0  0
 42 43  2  0  0  0
 29 31  1  0  0  0
 29 36  1  0  0  0
  3  4  2  0  0  0
 43  1  1  0  0  0
  6  9  2  0  0  0
  6 10  1  0  0  0
  1 20  1  0  0  0
 30 36  2  0  0  0
  7  8  1  0  0  0
  7  9  1  0  0  0
 22 24  1  0  0  0
 22 23  1  0  0  0
 11 12  1  0  0  0
 11 18  1  0  0  0
 24 27  1  0  0  0
  4 10  1  0  0  0
 51 52  1  0  0  0
 52 53  1  0  0  0
 53 54  1  0  0  0
 54 55  1  0  0  0
 55 56  1  0  0  0
 56 57  1  0  0  0
 57 58  1  0  0  0
 58 59  1  0  0  0
 59 60  1  0  0  0
 60 61  1  0  0  0
 61 62  1  0  0  0
 62 63  1  0  0  0
 63 64  1  0  0  0
 64 65  1  0  0  0
 31 32  1  0  0  0
 32 33  1  0  0  0
 33 34  1  0  0  0
 34 35  1  0  0  0
 35 36  1  0  0  0
  8 10  1  0  0  0
  9 17  1  0  0  0
 12 13  2  0  0  0
 12 17  1  0  0  0
 13 14  1  0  0  0
 14 15  2  0  0  0
 15 16  1  0  0  0
 16 17  2  0  0  0
M  END
> <minimizedAffinity>
-9.05020

> <CNNscore>
0.1364159137

> <CNNaffinity>
7.2993636131

> <CNN_VS>
0.9957493544

> <CNNaffinity_variance>
1.1975028515

$$$$
