/media/chris/experiments/cd1a-new-docking/inputs/ligands/1xz0_ligand.pdb


 65 67  0  0  0  0  0  0  0  0999 V2000
  -38.9849   60.1037   63.6206 C   0  0  0  0  0  0  0  0  0  0  0  0
  -38.1269   61.2826   63.4855 N   0  0  0  0  0  0  0  0  0  0  0  0
  -37.1189   61.4188   65.5197 O   0  0  0  0  0  0  0  0  0  0  0  0
  -37.2955   61.8387   64.3837 C   0  0  0  0  0  0  0  0  0  0  0  0
  -38.1643   61.7328   62.6107 H   0  0  0  0  0  0  0  0  0  0  0  0
  -35.6153   62.9531   62.9293 N   0  0  0  0  0  0  0  0  0  0  0  0
  -34.4737   64.0759   64.4876 O   0  0  0  0  0  0  0  0  0  0  0  0
  -35.7680   63.9066   65.0645 C   0  0  0  0  0  0  0  0  0  0  0  0
  -34.4808   63.4446   63.1916 C   0  0  0  0  0  0  0  0  0  0  0  0
  -36.6082   63.1424   64.0040 C   0  0  0  0  0  0  0  0  0  0  0  0
  -33.8910   65.5230   61.2604 O   0  0  0  0  0  0  0  0  0  0  0  0
  -33.0573   64.4807   61.3613 C   0  0  0  0  0  0  0  0  0  0  0  0
  -31.9170   64.4245   60.5491 C   0  0  0  0  0  0  0  0  0  0  0  0
  -31.0315   63.3366   60.6292 C   0  0  0  0  0  0  0  0  0  0  0  0
  -31.2708   62.2972   61.5297 C   0  0  0  0  0  0  0  0  0  0  0  0
  -32.4035   62.3515   62.3466 C   0  0  0  0  0  0  0  0  0  0  0  0
  -33.2974   63.4362   62.2624 C   0  0  0  0  0  0  0  0  0  0  0  0
  -33.7098   66.2105   60.6502 H   0  0  0  0  0  0  0  0  0  0  0  0
  -40.6478   61.0919   62.2087 O   0  0  0  0  0  0  0  0  0  0  0  0
  -39.9350   60.1288   62.4385 C   0  0  0  0  0  0  0  0  0  0  0  0
  -40.0614   58.9473   61.5786 O   0  0  0  0  0  0  0  0  0  0  0  0
  -39.6309   58.9711   60.2047 C   0  0  0  0  0  0  0  0  0  0  0  0
  -40.3205   57.9503   59.3080 C   0  0  0  0  0  0  0  0  0  0  0  0
  -38.1198   58.7978   60.1727 C   0  0  0  0  0  0  0  0  0  0  0  0
  -36.5096   58.3471   61.9615 N   0  0  0  0  0  0  0  0  0  0  0  0
  -38.2517   56.9569   61.5764 O   0  0  0  0  0  0  0  0  0  0  0  0
  -37.5974   57.9346   61.2945 C   0  0  0  0  0  0  0  0  0  0  0  0
  -36.0562   59.1595   61.6397 H   0  0  0  0  0  0  0  0  0  0  0  0
  -34.5345   59.4134   64.1562 N   0  0  0  0  0  0  0  0  0  0  0  0
  -36.2124   58.4878   65.3367 O   0  0  0  0  0  0  0  0  0  0  0  0
  -33.8835   59.7737   62.8880 C   0  0  0  0  0  0  0  0  0  0  0  0
  -33.1214   58.5688   62.3049 C   0  0  0  0  0  0  0  0  0  0  0  0
  -33.3410   57.2504   63.0284 C   0  0  0  0  0  0  0  0  0  0  0  0
  -34.7690   56.7179   62.8820 C   0  0  0  0  0  0  0  0  0  0  0  0
  -35.9473   57.6726   63.1372 C   0  0  0  0  0  0  0  0  0  0  0  0
  -35.5759   58.5774   64.2956 C   0  0  0  0  0  0  0  0  0  0  0  0
  -35.0108   61.1884   66.1925 Si  0  0  0  0  0  0  0  0  0  0  0  0
  -34.0426   59.9867   65.2900 O   0  0  0  0  0  0  0  0  0  0  0  0
  -34.2793   61.6303   67.3264 H   0  0  0  0  0  0  0  0  0  0  0  0
  -36.2281   60.5930   66.6171 H   0  0  0  0  0  0  0  0  0  0  0  0
  -35.2942   62.2964   65.3507 H   0  0  0  0  0  0  0  0  0  0  0  0
  -40.6949   58.7317   65.0655 C   0  0  0  0  0  0  0  0  0  0  0  0
  -39.6925   59.8893   64.9806 C   0  0  0  0  0  0  0  0  0  0  0  0
  -41.7034   58.7696   66.2263 C   0  0  0  0  0  0  0  0  0  0  0  0
  -42.7883   57.6738   66.2623 C   0  0  0  0  0  0  0  0  0  0  0  0
  -44.0443   58.2539   65.7769 N   0  0  0  0  0  0  0  0  0  0  0  0
  -45.3179   57.9910   66.1725 C   0  0  0  0  0  0  0  0  0  0  0  0
  -43.8754   59.2099   64.7653 O   0  0  0  0  0  0  0  0  0  0  0  0
  -45.5526   57.1749   67.0635 O   0  0  0  0  0  0  0  0  0  0  0  0
  -44.7424   59.5496   64.4935 H   0  0  0  0  0  0  0  0  0  0  0  0
  -46.4744   58.7249   65.4857 C   0  0  0  0  0  0  0  0  0  0  0  0
  -47.2836   59.6434   66.4115 C   0  0  0  0  0  0  0  0  0  0  0  0
  -48.4042   60.3408   65.6164 C   0  0  0  0  0  0  0  0  0  0  0  0
  -49.8076   60.1264   66.2144 C   0  0  0  0  0  0  0  0  0  0  0  0
  -50.7948   59.3933   65.2873 C   0  0  0  0  0  0  0  0  0  0  0  0
  -50.1878   58.1291   64.6435 C   0  0  0  0  0  0  0  0  0  0  0  0
  -50.5284   57.9445   63.1464 C   0  0  0  0  0  0  0  0  0  0  0  0
  -50.6098   59.2651   62.3720 C   0  0  0  0  0  0  0  0  0  0  0  0
  -49.3122   59.7041   61.6864 C   0  0  0  0  0  0  0  0  0  0  0  0
  -49.4610   59.7087   60.1539 C   0  0  0  0  0  0  0  0  0  0  0  0
  -50.1993   58.4823   59.5965 C   0  0  0  0  0  0  0  0  0  0  0  0
  -49.5212   57.7760   58.4179 C   0  0  0  0  0  0  0  0  0  0  0  0
  -47.9789   57.9190   58.3927 C   0  0  0  0  0  0  0  0  0  0  0  0
  -47.2891   56.5592   58.1616 C   0  0  0  0  0  0  0  0  0  0  0  0
  -47.3328   55.9850   56.7404 C   0  0  0  0  0  0  0  0  0  0  0  0
 46 47  1  0  0  0
 46 48  1  0  0  0
 46 45  1  0  0  0
 47 49  2  0  0  0
 47 51  1  0  0  0
 19 20  2  0  0  0
 37 38  1  0  0  0
 37 39  1  0  0  0
 37 40  1  0  0  0
 37 41  1  0  0  0
 48 50  1  0  0  0
 38 29  1  0  0  0
 45 44  1  0  0  0
 25 27  1  0  0  0
 25 35  1  0  0  0
 25 28  1  0  0  0
 21 20  1  0  0  0
 21 22  1  0  0  0
 44 42  1  0  0  0
  2  1  1  0  0  0
  2  4  1  0  0  0
  2  5  1  0  0  0
 26 27  2  0  0  0
 42 43  2  0  0  0
 29 31  1  0  0  0
 29 36  1  0  0  0
  3  4  2  0  0  0
 43  1  1  0  0  0
  6  9  2  0  0  0
  6 10  1  0  0  0
  1 20  1  0  0  0
 30 36  2  0  0  0
  7  8  1  0  0  0
  7  9  1  0  0  0
 22 24  1  0  0  0
 22 23  1  0  0  0
 11 12  1  0  0  0
 11 18  1  0  0  0
 24 27  1  0  0  0
  4 10  1  0  0  0
 51 52  1  0  0  0
 52 53  1  0  0  0
 53 54  1  0  0  0
 54 55  1  0  0  0
 55 56  1  0  0  0
 56 57  1  0  0  0
 57 58  1  0  0  0
 58 59  1  0  0  0
 59 60  1  0  0  0
 60 61  1  0  0  0
 61 62  1  0  0  0
 62 63  1  0  0  0
 63 64  1  0  0  0
 64 65  1  0  0  0
 31 32  1  0  0  0
 32 33  1  0  0  0
 33 34  1  0  0  0
 34 35  1  0  0  0
 35 36  1  0  0  0
  8 10  1  0  0  0
  9 17  1  0  0  0
 12 13  2  0  0  0
 12 17  1  0  0  0
 13 14  1  0  0  0
 14 15  2  0  0  0
 15 16  1  0  0  0
 16 17  2  0  0  0
M  END
> <minimizedAffinity>
-9.02937

> <CNNscore>
0.3053058982

> <CNNaffinity>
7.2588791847

> <CNN_VS>
2.2161786556

> <CNNaffinity_variance>
0.3973329067

$$$$
/media/chris/experiments/cd1a-new-docking/inputs/ligands/1xz0_ligand.pdb


 65 67  0  0  0  0  0  0  0  0999 V2000
  -37.9721   60.3910   65.1595 C   0  0  0  0  0  0  0  0  0  0  0  0
  -37.3074   61.6914   65.2649 N   0  0  0  0  0  0  0  0  0  0  0  0
  -36.5454   61.7052   67.4078 O   0  0  0  0  0  0  0  0  0  0  0  0
  -36.6721   62.2409   66.3146 C   0  0  0  0  0  0  0  0  0  0  0  0
  -37.3288   62.2428   64.4496 H   0  0  0  0  0  0  0  0  0  0  0  0
  -35.7658   63.9814   64.7883 N   0  0  0  0  0  0  0  0  0  0  0  0
  -34.0059   64.6425   65.9957 O   0  0  0  0  0  0  0  0  0  0  0  0
  -34.9161   64.1286   66.9673 C   0  0  0  0  0  0  0  0  0  0  0  0
  -34.6131   64.4917   64.6970 C   0  0  0  0  0  0  0  0  0  0  0  0
  -36.1706   63.6707   66.1727 C   0  0  0  0  0  0  0  0  0  0  0  0
  -32.5732   66.5424   64.5219 O   0  0  0  0  0  0  0  0  0  0  0  0
  -32.9716   65.9313   63.3996 C   0  0  0  0  0  0  0  0  0  0  0  0
  -32.3871   66.2813   62.1753 C   0  0  0  0  0  0  0  0  0  0  0  0
  -32.7945   65.6613   60.9821 C   0  0  0  0  0  0  0  0  0  0  0  0
  -33.7840   64.6769   61.0009 C   0  0  0  0  0  0  0  0  0  0  0  0
  -34.3658   64.3197   62.2205 C   0  0  0  0  0  0  0  0  0  0  0  0
  -33.9658   64.9455   63.4168 C   0  0  0  0  0  0  0  0  0  0  0  0
  -31.9060   67.1993   64.4862 H   0  0  0  0  0  0  0  0  0  0  0  0
  -38.6710   61.1756   63.0075 O   0  0  0  0  0  0  0  0  0  0  0  0
  -38.3543   60.2233   63.7012 C   0  0  0  0  0  0  0  0  0  0  0  0
  -38.4148   58.8814   63.1123 O   0  0  0  0  0  0  0  0  0  0  0  0
  -38.3910   58.6876   61.6856 C   0  0  0  0  0  0  0  0  0  0  0  0
  -39.1594   57.4646   61.2004 C   0  0  0  0  0  0  0  0  0  0  0  0
  -36.9394   58.6391   61.2325 C   0  0  0  0  0  0  0  0  0  0  0  0
  -35.0906   59.3205   62.6863 N   0  0  0  0  0  0  0  0  0  0  0  0
  -36.1189   57.3242   62.9571 O   0  0  0  0  0  0  0  0  0  0  0  0
  -35.9745   58.3662   62.3598 C   0  0  0  0  0  0  0  0  0  0  0  0
  -35.0622   60.1291   62.1255 H   0  0  0  0  0  0  0  0  0  0  0  0
  -32.8288   61.3013   63.5891 N   0  0  0  0  0  0  0  0  0  0  0  0
  -34.0069   60.9261   65.4698 O   0  0  0  0  0  0  0  0  0  0  0  0
  -32.5689   61.0954   62.1567 C   0  0  0  0  0  0  0  0  0  0  0  0
  -31.7960   59.7831   61.9261 C   0  0  0  0  0  0  0  0  0  0  0  0
  -31.6283   58.9044   63.1547 C   0  0  0  0  0  0  0  0  0  0  0  0
  -32.9499   58.3138   63.6532 C   0  0  0  0  0  0  0  0  0  0  0  0
  -34.1628   59.2442   63.8206 C   0  0  0  0  0  0  0  0  0  0  0  0
  -33.6642   60.5750   64.3490 C   0  0  0  0  0  0  0  0  0  0  0  0
  -32.4362   62.6756   65.9303 Si  0  0  0  0  0  0  0  0  0  0  0  0
  -32.1699   62.3271   64.1972 O   0  0  0  0  0  0  0  0  0  0  0  0
  -31.6378   63.7839   66.3183 H   0  0  0  0  0  0  0  0  0  0  0  0
  -32.0761   61.5395   66.7024 H   0  0  0  0  0  0  0  0  0  0  0  0
  -33.8062   62.9801   66.1469 H   0  0  0  0  0  0  0  0  0  0  0  0
  -40.3297   59.3182   65.5897 C   0  0  0  0  0  0  0  0  0  0  0  0
  -39.1328   60.1021   66.1421 C   0  0  0  0  0  0  0  0  0  0  0  0
  -41.6418   59.3996   66.3882 C   0  0  0  0  0  0  0  0  0  0  0  0
  -42.5925   58.1868   66.3202 C   0  0  0  0  0  0  0  0  0  0  0  0
  -43.9070   58.6574   65.8727 N   0  0  0  0  0  0  0  0  0  0  0  0
  -45.1401   58.1809   66.1892 C   0  0  0  0  0  0  0  0  0  0  0  0
  -43.8517   59.7524   64.9989 O   0  0  0  0  0  0  0  0  0  0  0  0
  -45.2775   57.2307   66.9594 O   0  0  0  0  0  0  0  0  0  0  0  0
  -44.7520   60.0091   64.7448 H   0  0  0  0  0  0  0  0  0  0  0  0
  -46.3735   58.8421   65.5652 C   0  0  0  0  0  0  0  0  0  0  0  0
  -47.4020   59.3563   66.5818 C   0  0  0  0  0  0  0  0  0  0  0  0
  -48.4209   60.2772   65.8833 C   0  0  0  0  0  0  0  0  0  0  0  0
  -49.8702   59.7607   65.9598 C   0  0  0  0  0  0  0  0  0  0  0  0
  -50.4900   59.3854   64.6008 C   0  0  0  0  0  0  0  0  0  0  0  0
  -49.8345   58.1415   63.9652 C   0  0  0  0  0  0  0  0  0  0  0  0
  -48.9692   58.4385   62.7183 C   0  0  0  0  0  0  0  0  0  0  0  0
  -49.2307   59.8210   62.1097 C   0  0  0  0  0  0  0  0  0  0  0  0
  -49.6211   59.8219   60.6283 C   0  0  0  0  0  0  0  0  0  0  0  0
  -50.2927   58.4967   60.2242 C   0  0  0  0  0  0  0  0  0  0  0  0
  -49.6288   57.8026   59.0252 C   0  0  0  0  0  0  0  0  0  0  0  0
  -48.1290   57.5221   59.1652 C   0  0  0  0  0  0  0  0  0  0  0  0
  -47.6273   56.3154   58.3334 C   0  0  0  0  0  0  0  0  0  0  0  0
  -47.3112   56.7233   56.8801 C   0  0  0  0  0  0  0  0  0  0  0  0
  -46.9553   58.1933   56.6276 C   0  0  0  0  0  0  0  0  0  0  0  0
 46 47  1  0  0  0
 46 48  1  0  0  0
 46 45  1  0  0  0
 47 49  2  0  0  0
 47 51  1  0  0  0
 19 20  2  0  0  0
 37 38  1  0  0  0
 37 39  1  0  0  0
 37 40  1  0  0  0
 37 41  1  0  0  0
 48 50  1  0  0  0
 38 29  1  0  0  0
 45 44  1  0  0  0
 25 27  1  0  0  0
 25 35  1  0  0  0
 25 28  1  0  0  0
 21 20  1  0  0  0
 21 22  1  0  0  0
 44 42  1  0  0  0
  2  1  1  0  0  0
  2  4  1  0  0  0
  2  5  1  0  0  0
 26 27  2  0  0  0
 42 43  2  0  0  0
 29 31  1  0  0  0
 29 36  1  0  0  0
  3  4  2  0  0  0
 43  1  1  0  0  0
  6  9  2  0  0  0
  6 10  1  0  0  0
  1 20  1  0  0  0
 30 36  2  0  0  0
  7  8  1  0  0  0
  7  9  1  0  0  0
 22 24  1  0  0  0
 22 23  1  0  0  0
 11 12  1  0  0  0
 11 18  1  0  0  0
 24 27  1  0  0  0
  4 10  1  0  0  0
 51 52  1  0  0  0
 52 53  1  0  0  0
 53 54  1  0  0  0
 54 55  1  0  0  0
 55 56  1  0  0  0
 56 57  1  0  0  0
 57 58  1  0  0  0
 58 59  1  0  0  0
 59 60  1  0  0  0
 60 61  1  0  0  0
 61 62  1  0  0  0
 62 63  1  0  0  0
 63 64  1  0  0  0
 64 65  1  0  0  0
 31 32  1  0  0  0
 32 33  1  0  0  0
 33 34  1  0  0  0
 34 35  1  0  0  0
 35 36  1  0  0  0
  8 10  1  0  0  0
  9 17  1  0  0  0
 12 13  2  0  0  0
 12 17  1  0  0  0
 13 14  1  0  0  0
 14 15  2  0  0  0
 15 16  1  0  0  0
 16 17  2  0  0  0
M  END
> <minimizedAffinity>
-9.43428

> <CNNscore>
0.2955724299

> <CNNaffinity>
7.1058626175

> <CNN_VS>
2.1002969742

> <CNNaffinity_variance>
0.1886114478

$$$$
/media/chris/experiments/cd1a-new-docking/inputs/ligands/1xz0_ligand.pdb


 65 67  0  0  0  0  0  0  0  0999 V2000
  -39.9622   58.6145   64.1743 C   0  0  0  0  0  0  0  0  0  0  0  0
  -38.5524   58.6389   64.5690 N   0  0  0  0  0  0  0  0  0  0  0  0
  -37.6014   57.1211   63.1672 O   0  0  0  0  0  0  0  0  0  0  0  0
  -37.5173   57.9368   64.0759 C   0  0  0  0  0  0  0  0  0  0  0  0
  -38.3304   59.2587   65.3010 H   0  0  0  0  0  0  0  0  0  0  0  0
  -36.0700   59.3373   65.5333 N   0  0  0  0  0  0  0  0  0  0  0  0
  -34.2113   59.3514   64.2934 O   0  0  0  0  0  0  0  0  0  0  0  0
  -34.8712   58.1454   63.9104 C   0  0  0  0  0  0  0  0  0  0  0  0
  -35.0327   60.0124   65.2764 C   0  0  0  0  0  0  0  0  0  0  0  0
  -36.1679   58.0819   64.7644 C   0  0  0  0  0  0  0  0  0  0  0  0
  -36.9296   61.9365   66.3237 O   0  0  0  0  0  0  0  0  0  0  0  0
  -35.6208   62.1899   66.4437 C   0  0  0  0  0  0  0  0  0  0  0  0
  -35.1980   63.3629   67.0828 C   0  0  0  0  0  0  0  0  0  0  0  0
  -33.8302   63.6564   67.2131 C   0  0  0  0  0  0  0  0  0  0  0  0
  -32.8691   62.7751   66.7148 C   0  0  0  0  0  0  0  0  0  0  0  0
  -33.2855   61.6005   66.0820 C   0  0  0  0  0  0  0  0  0  0  0  0
  -34.6558   61.3080   65.9422 C   0  0  0  0  0  0  0  0  0  0  0  0
  -37.5573   62.5413   66.6672 H   0  0  0  0  0  0  0  0  0  0  0  0
  -40.6846   60.7289   63.3124 O   0  0  0  0  0  0  0  0  0  0  0  0
  -40.1222   59.6683   63.0950 C   0  0  0  0  0  0  0  0  0  0  0  0
  -39.6542   59.3942   61.7323 O   0  0  0  0  0  0  0  0  0  0  0  0
  -38.6632   60.2252   61.0991 C   0  0  0  0  0  0  0  0  0  0  0  0
  -38.2796   59.7903   59.6901 C   0  0  0  0  0  0  0  0  0  0  0  0
  -37.4425   60.2903   62.0048 C   0  0  0  0  0  0  0  0  0  0  0  0
  -36.5901   62.5823   61.8769 N   0  0  0  0  0  0  0  0  0  0  0  0
  -37.7158   61.8514   63.6974 O   0  0  0  0  0  0  0  0  0  0  0  0
  -37.2242   61.6552   62.6096 C   0  0  0  0  0  0  0  0  0  0  0  0
  -36.2290   62.3068   61.0034 H   0  0  0  0  0  0  0  0  0  0  0  0
  -34.3364   64.6251   61.1007 N   0  0  0  0  0  0  0  0  0  0  0  0
  -36.2470   65.7602   60.7443 O   0  0  0  0  0  0  0  0  0  0  0  0
  -33.5981   63.4222   61.5127 C   0  0  0  0  0  0  0  0  0  0  0  0
  -33.4787   63.3547   63.0469 C   0  0  0  0  0  0  0  0  0  0  0  0
  -34.2773   64.4011   63.8065 C   0  0  0  0  0  0  0  0  0  0  0  0
  -35.7907   64.2069   63.6803 C   0  0  0  0  0  0  0  0  0  0  0  0
  -36.3963   63.9783   62.2854 C   0  0  0  0  0  0  0  0  0  0  0  0
  -35.6452   64.8507   61.2988 C   0  0  0  0  0  0  0  0  0  0  0  0
  -31.9669   65.2750   59.8813 Si  0  0  0  0  0  0  0  0  0  0  0  0
  -33.6311   65.5932   60.4515 O   0  0  0  0  0  0  0  0  0  0  0  0
  -31.4559   66.4350   59.2414 H   0  0  0  0  0  0  0  0  0  0  0  0
  -31.9805   64.1939   58.9607 H   0  0  0  0  0  0  0  0  0  0  0  0
  -31.1424   64.9432   60.9888 H   0  0  0  0  0  0  0  0  0  0  0  0
  -42.4273   58.1991   64.9773 C   0  0  0  0  0  0  0  0  0  0  0  0
  -41.0195   58.7146   65.3005 C   0  0  0  0  0  0  0  0  0  0  0  0
  -43.5686   58.6759   65.8916 C   0  0  0  0  0  0  0  0  0  0  0  0
  -44.6216   57.6327   66.3183 C   0  0  0  0  0  0  0  0  0  0  0  0
  -45.9500   58.1589   65.9894 N   0  0  0  0  0  0  0  0  0  0  0  0
  -46.8924   58.6823   66.8175 C   0  0  0  0  0  0  0  0  0  0  0  0
  -46.2621   58.1017   64.6238 O   0  0  0  0  0  0  0  0  0  0  0  0
  -46.6930   58.7807   68.0280 O   0  0  0  0  0  0  0  0  0  0  0  0
  -47.1503   58.4641   64.4797 H   0  0  0  0  0  0  0  0  0  0  0  0
  -48.2253   59.1491   66.2230 C   0  0  0  0  0  0  0  0  0  0  0  0
  -48.2139   60.5878   65.6886 C   0  0  0  0  0  0  0  0  0  0  0  0
  -48.8210   60.6307   64.2730 C   0  0  0  0  0  0  0  0  0  0  0  0
  -50.3478   60.8360   64.2646 C   0  0  0  0  0  0  0  0  0  0  0  0
  -51.1638   59.5676   63.9530 C   0  0  0  0  0  0  0  0  0  0  0  0
  -50.2762   58.3385   63.6654 C   0  0  0  0  0  0  0  0  0  0  0  0
  -50.5871   57.6205   62.3314 C   0  0  0  0  0  0  0  0  0  0  0  0
  -50.8707   58.5830   61.1723 C   0  0  0  0  0  0  0  0  0  0  0  0
  -49.6901   59.4607   60.7452 C   0  0  0  0  0  0  0  0  0  0  0  0
  -48.8399   58.7700   59.6633 C   0  0  0  0  0  0  0  0  0  0  0  0
  -49.4472   57.4613   59.1357 C   0  0  0  0  0  0  0  0  0  0  0  0
  -48.5790   56.2098   59.3024 C   0  0  0  0  0  0  0  0  0  0  0  0
  -47.2108   56.2840   58.5797 C   0  0  0  0  0  0  0  0  0  0  0  0
  -47.3823   56.5608   57.0723 C   0  0  0  0  0  0  0  0  0  0  0  0
  -46.9972   57.9571   56.5689 C   0  0  0  0  0  0  0  0  0  0  0  0
 46 47  1  0  0  0
 46 48  1  0  0  0
 46 45  1  0  0  0
 47 49  2  0  0  0
 47 51  1  0  0  0
 19 20  2  0  0  0
 37 38  1  0  0  0
 37 39  1  0  0  0
 37 40  1  0  0  0
 37 41  1  0  0  0
 48 50  1  0  0  0
 38 29  1  0  0  0
 45 44  1  0  0  0
 25 27  1  0  0  0
 25 35  1  0  0  0
 25 28  1  0  0  0
 21 20  1  0  0  0
 21 22  1  0  0  0
 44 42  1  0  0  0
  2  1  1  0  0  0
  2  4  1  0  0  0
  2  5  1  0  0  0
 26 27  2  0  0  0
 42 43  2  0  0  0
 29 31  1  0  0  0
 29 36  1  0  0  0
  3  4  2  0  0  0
 43  1  1  0  0  0
  6  9  2  0  0  0
  6 10  1  0  0  0
  1 20  1  0  0  0
 30 36  2  0  0  0
  7  8  1  0  0  0
  7  9  1  0  0  0
 22 24  1  0  0  0
 22 23  1  0  0  0
 11 12  1  0  0  0
 11 18  1  0  0  0
 24 27  1  0  0  0
  4 10  1  0  0  0
 51 52  1  0  0  0
 52 53  1  0  0  0
 53 54  1  0  0  0
 54 55  1  0  0  0
 55 56  1  0  0  0
 56 57  1  0  0  0
 57 58  1  0  0  0
 58 59  1  0  0  0
 59 60  1  0  0  0
 60 61  1  0  0  0
 61 62  1  0  0  0
 62 63  1  0  0  0
 63 64  1  0  0  0
 64 65  1  0  0  0
 31 32  1  0  0  0
 32 33  1  0  0  0
 33 34  1  0  0  0
 34 35  1  0  0  0
 35 36  1  0  0  0
  8 10  1  0  0  0
  9 17  1  0  0  0
 12 13  2  0  0  0
 12 17  1  0  0  0
 13 14  1  0  0  0
 14 15  2  0  0  0
 15 16  1  0  0  0
 16 17  2  0  0  0
M  END
> <minimizedAffinity>
-8.78269

> <CNNscore>
0.2888177633

> <CNNaffinity>
7.0907335281

> <CNN_VS>
2.0479297638

> <CNNaffinity_variance>
0.5285235643

$$$$
/media/chris/experiments/cd1a-new-docking/inputs/ligands/1xz0_ligand.pdb


 65 67  0  0  0  0  0  0  0  0999 V2000
  -39.4278   59.6757   64.6893 C   0  0  0  0  0  0  0  0  0  0  0  0
  -38.5499   60.8039   65.0063 N   0  0  0  0  0  0  0  0  0  0  0  0
  -36.7548   59.7996   65.9768 O   0  0  0  0  0  0  0  0  0  0  0  0
  -37.3408   60.8037   65.5942 C   0  0  0  0  0  0  0  0  0  0  0  0
  -38.8948   61.6904   64.7525 H   0  0  0  0  0  0  0  0  0  0  0  0
  -36.5424   62.9808   64.6981 N   0  0  0  0  0  0  0  0  0  0  0  0
  -34.5106   63.0323   65.6262 O   0  0  0  0  0  0  0  0  0  0  0  0
  -35.2687   62.2006   66.5038 C   0  0  0  0  0  0  0  0  0  0  0  0
  -35.3756   63.4433   64.5487 C   0  0  0  0  0  0  0  0  0  0  0  0
  -36.7022   62.1493   65.9064 C   0  0  0  0  0  0  0  0  0  0  0  0
  -36.4811   63.4064   61.8704 O   0  0  0  0  0  0  0  0  0  0  0  0
  -35.5273   64.2991   62.1624 C   0  0  0  0  0  0  0  0  0  0  0  0
  -35.0983   65.2009   61.1797 C   0  0  0  0  0  0  0  0  0  0  0  0
  -34.0921   66.1411   61.4585 C   0  0  0  0  0  0  0  0  0  0  0  0
  -33.5105   66.1970   62.7263 C   0  0  0  0  0  0  0  0  0  0  0  0
  -33.9395   65.3038   63.7119 C   0  0  0  0  0  0  0  0  0  0  0  0
  -34.9415   64.3546   63.4329 C   0  0  0  0  0  0  0  0  0  0  0  0
  -36.8588   63.3880   61.0132 H   0  0  0  0  0  0  0  0  0  0  0  0
  -40.7257   60.9585   63.1384 O   0  0  0  0  0  0  0  0  0  0  0  0
  -40.0322   59.9732   63.3302 C   0  0  0  0  0  0  0  0  0  0  0  0
  -39.8436   59.0278   62.2249 O   0  0  0  0  0  0  0  0  0  0  0  0
  -38.8816   59.2761   61.1825 C   0  0  0  0  0  0  0  0  0  0  0  0
  -39.3257   58.8342   59.7935 C   0  0  0  0  0  0  0  0  0  0  0  0
  -37.5684   58.6158   61.5749 C   0  0  0  0  0  0  0  0  0  0  0  0
  -35.5661   59.0130   62.9273 N   0  0  0  0  0  0  0  0  0  0  0  0
  -36.8743   60.7256   62.2406 O   0  0  0  0  0  0  0  0  0  0  0  0
  -36.6367   59.5419   62.3168 C   0  0  0  0  0  0  0  0  0  0  0  0
  -35.4767   58.0326   62.9263 H   0  0  0  0  0  0  0  0  0  0  0  0
  -32.5976   59.5706   62.0720 N   0  0  0  0  0  0  0  0  0  0  0  0
  -33.4128   61.6083   62.5706 O   0  0  0  0  0  0  0  0  0  0  0  0
  -32.7359   58.1125   61.9432 C   0  0  0  0  0  0  0  0  0  0  0  0
  -32.5695   57.4261   63.3121 C   0  0  0  0  0  0  0  0  0  0  0  0
  -32.4876   58.3661   64.5035 C   0  0  0  0  0  0  0  0  0  0  0  0
  -33.7994   59.1086   64.7713 C   0  0  0  0  0  0  0  0  0  0  0  0
  -34.5187   59.7927   63.5968 C   0  0  0  0  0  0  0  0  0  0  0  0
  -33.4650   60.3914   62.6857 C   0  0  0  0  0  0  0  0  0  0  0  0
  -31.2082   61.8990   61.6569 Si  0  0  0  0  0  0  0  0  0  0  0  0
  -31.4952   60.1405   61.5100 O   0  0  0  0  0  0  0  0  0  0  0  0
  -30.0016   62.2390   60.9902 H   0  0  0  0  0  0  0  0  0  0  0  0
  -31.1054   62.2487   63.0294 H   0  0  0  0  0  0  0  0  0  0  0  0
  -32.2899   62.6059   61.0681 H   0  0  0  0  0  0  0  0  0  0  0  0
  -41.5775   58.3001   65.3064 C   0  0  0  0  0  0  0  0  0  0  0  0
  -40.4715   59.2631   65.7554 C   0  0  0  0  0  0  0  0  0  0  0  0
  -42.8349   58.2261   66.1892 C   0  0  0  0  0  0  0  0  0  0  0  0
  -43.8742   57.1358   65.8572 C   0  0  0  0  0  0  0  0  0  0  0  0
  -45.1715   57.7857   65.6471 N   0  0  0  0  0  0  0  0  0  0  0  0
  -46.2831   57.7506   66.4288 C   0  0  0  0  0  0  0  0  0  0  0  0
  -45.2444   58.5417   64.4687 O   0  0  0  0  0  0  0  0  0  0  0  0
  -46.2987   57.1209   67.4862 O   0  0  0  0  0  0  0  0  0  0  0  0
  -46.1255   58.9408   64.3945 H   0  0  0  0  0  0  0  0  0  0  0  0
  -47.5350   58.5070   65.9723 C   0  0  0  0  0  0  0  0  0  0  0  0
  -47.8119   59.8034   66.7458 C   0  0  0  0  0  0  0  0  0  0  0  0
  -49.0881   60.4781   66.2069 C   0  0  0  0  0  0  0  0  0  0  0  0
  -50.1783   59.4778   65.7780 C   0  0  0  0  0  0  0  0  0  0  0  0
  -51.1774   60.0236   64.7409 C   0  0  0  0  0  0  0  0  0  0  0  0
  -50.5555   60.1909   63.3386 C   0  0  0  0  0  0  0  0  0  0  0  0
  -49.4957   59.1249   62.9752 C   0  0  0  0  0  0  0  0  0  0  0  0
  -50.0760   57.7136   62.8272 C   0  0  0  0  0  0  0  0  0  0  0  0
  -51.1746   57.5640   61.7701 C   0  0  0  0  0  0  0  0  0  0  0  0
  -50.5783   57.3179   60.3721 C   0  0  0  0  0  0  0  0  0  0  0  0
  -49.4388   56.2877   60.3539 C   0  0  0  0  0  0  0  0  0  0  0  0
  -48.4258   56.4356   59.2139 C   0  0  0  0  0  0  0  0  0  0  0  0
  -48.3684   57.8542   58.5940 C   0  0  0  0  0  0  0  0  0  0  0  0
  -47.3283   57.9329   57.4582 C   0  0  0  0  0  0  0  0  0  0  0  0
  -47.8545   57.8479   56.0204 C   0  0  0  0  0  0  0  0  0  0  0  0
 46 47  1  0  0  0
 46 48  1  0  0  0
 46 45  1  0  0  0
 47 49  2  0  0  0
 47 51  1  0  0  0
 19 20  2  0  0  0
 37 38  1  0  0  0
 37 39  1  0  0  0
 37 40  1  0  0  0
 37 41  1  0  0  0
 48 50  1  0  0  0
 38 29  1  0  0  0
 45 44  1  0  0  0
 25 27  1  0  0  0
 25 35  1  0  0  0
 25 28  1  0  0  0
 21 20  1  0  0  0
 21 22  1  0  0  0
 44 42  1  0  0  0
  2  1  1  0  0  0
  2  4  1  0  0  0
  2  5  1  0  0  0
 26 27  2  0  0  0
 42 43  2  0  0  0
 29 31  1  0  0  0
 29 36  1  0  0  0
  3  4  2  0  0  0
 43  1  1  0  0  0
  6  9  2  0  0  0
  6 10  1  0  0  0
  1 20  1  0  0  0
 30 36  2  0  0  0
  7  8  1  0  0  0
  7  9  1  0  0  0
 22 24  1  0  0  0
 22 23  1  0  0  0
 11 12  1  0  0  0
 11 18  1  0  0  0
 24 27  1  0  0  0
  4 10  1  0  0  0
 51 52  1  0  0  0
 52 53  1  0  0  0
 53 54  1  0  0  0
 54 55  1  0  0  0
 55 56  1  0  0  0
 56 57  1  0  0  0
 57 58  1  0  0  0
 58 59  1  0  0  0
 59 60  1  0  0  0
 60 61  1  0  0  0
 61 62  1  0  0  0
 62 63  1  0  0  0
 63 64  1  0  0  0
 64 65  1  0  0  0
 31 32  1  0  0  0
 32 33  1  0  0  0
 33 34  1  0  0  0
 34 35  1  0  0  0
 35 36  1  0  0  0
  8 10  1  0  0  0
  9 17  1  0  0  0
 12 13  2  0  0  0
 12 17  1  0  0  0
 13 14  1  0  0  0
 14 15  2  0  0  0
 15 16  1  0  0  0
 16 17  2  0  0  0
M  END
> <minimizedAffinity>
-9.55594

> <CNNscore>
0.2587835491

> <CNNaffinity>
7.1347336769

> <CNN_VS>
1.8463517427

> <CNNaffinity_variance>
0.3942933679

$$$$
/media/chris/experiments/cd1a-new-docking/inputs/ligands/1xz0_ligand.pdb


 65 67  0  0  0  0  0  0  0  0999 V2000
  -42.1554   58.6062   64.2010 C   0  0  0  0  0  0  0  0  0  0  0  0
  -40.9831   58.8815   65.0339 N   0  0  0  0  0  0  0  0  0  0  0  0
  -39.9283   60.5471   63.8999 O   0  0  0  0  0  0  0  0  0  0  0  0
  -39.9985   59.7782   64.8496 C   0  0  0  0  0  0  0  0  0  0  0  0
  -40.9045   58.3305   65.8461 H   0  0  0  0  0  0  0  0  0  0  0  0
  -38.0635   61.0231   65.7910 N   0  0  0  0  0  0  0  0  0  0  0  0
  -36.4864   59.4542   65.5830 O   0  0  0  0  0  0  0  0  0  0  0  0
  -37.7022   58.7113   65.6629 C   0  0  0  0  0  0  0  0  0  0  0  0
  -36.8182   60.8552   65.6547 C   0  0  0  0  0  0  0  0  0  0  0  0
  -38.8327   59.7646   65.8277 C   0  0  0  0  0  0  0  0  0  0  0  0
  -36.1915   62.5707   67.9045 O   0  0  0  0  0  0  0  0  0  0  0  0
  -35.5237   62.7418   66.7570 C   0  0  0  0  0  0  0  0  0  0  0  0
  -34.5320   63.7279   66.6731 C   0  0  0  0  0  0  0  0  0  0  0  0
  -33.8235   63.9335   65.4773 C   0  0  0  0  0  0  0  0  0  0  0  0
  -34.0917   63.1484   64.3547 C   0  0  0  0  0  0  0  0  0  0  0  0
  -35.0757   62.1592   64.4351 C   0  0  0  0  0  0  0  0  0  0  0  0
  -35.7935   61.9566   65.6295 C   0  0  0  0  0  0  0  0  0  0  0  0
  -35.9938   63.1080   68.6461 H   0  0  0  0  0  0  0  0  0  0  0  0
  -43.3657   56.7612   65.1317 O   0  0  0  0  0  0  0  0  0  0  0  0
  -43.1867   57.9678   65.1120 C   0  0  0  0  0  0  0  0  0  0  0  0
  -44.0454   58.8136   65.9477 O   0  0  0  0  0  0  0  0  0  0  0  0
  -45.4732   58.8451   65.7635 C   0  0  0  0  0  0  0  0  0  0  0  0
  -46.2095   57.6322   66.3188 C   0  0  0  0  0  0  0  0  0  0  0  0
  -45.7614   59.0311   64.2813 C   0  0  0  0  0  0  0  0  0  0  0  0
  -47.8342   59.0875   62.9789 N   0  0  0  0  0  0  0  0  0  0  0  0
  -47.5591   60.4009   64.7997 O   0  0  0  0  0  0  0  0  0  0  0  0
  -47.1370   59.5880   64.0094 C   0  0  0  0  0  0  0  0  0  0  0  0
  -47.3860   58.4296   62.3998 H   0  0  0  0  0  0  0  0  0  0  0  0
  -50.0335   57.4886   61.4102 N   0  0  0  0  0  0  0  0  0  0  0  0
  -51.0762   58.1439   63.2941 O   0  0  0  0  0  0  0  0  0  0  0  0
  -48.8555   57.4253   60.5327 C   0  0  0  0  0  0  0  0  0  0  0  0
  -48.7226   58.7174   59.7048 C   0  0  0  0  0  0  0  0  0  0  0  0
  -49.6859   59.8310   60.0809 C   0  0  0  0  0  0  0  0  0  0  0  0
  -49.4141   60.4137   61.4703 C   0  0  0  0  0  0  0  0  0  0  0  0
  -49.2181   59.4516   62.6538 C   0  0  0  0  0  0  0  0  0  0  0  0
  -50.1764   58.2899   62.4780 C   0  0  0  0  0  0  0  0  0  0  0  0
  -50.7586   55.0218   60.4545 Si  0  0  0  0  0  0  0  0  0  0  0  0
  -51.0688   56.6522   61.1189 O   0  0  0  0  0  0  0  0  0  0  0  0
  -51.9939   54.3554   60.2395 H   0  0  0  0  0  0  0  0  0  0  0  0
  -49.9730   54.2775   61.3739 H   0  0  0  0  0  0  0  0  0  0  0  0
  -50.0624   55.1374   59.2222 H   0  0  0  0  0  0  0  0  0  0  0  0
  -41.5427   58.6536   61.6482 C   0  0  0  0  0  0  0  0  0  0  0  0
  -41.9262   57.8281   62.8825 C   0  0  0  0  0  0  0  0  0  0  0  0
  -41.7369   57.9843   60.2770 C   0  0  0  0  0  0  0  0  0  0  0  0
  -40.4763   57.4719   59.5505 C   0  0  0  0  0  0  0  0  0  0  0  0
  -39.3110   58.1671   60.1057 N   0  0  0  0  0  0  0  0  0  0  0  0
  -38.5176   57.8088   61.1497 C   0  0  0  0  0  0  0  0  0  0  0  0
  -38.9954   59.3636   59.4465 O   0  0  0  0  0  0  0  0  0  0  0  0
  -38.7180   56.7670   61.7738 O   0  0  0  0  0  0  0  0  0  0  0  0
  -38.2187   59.7677   59.8642 H   0  0  0  0  0  0  0  0  0  0  0  0
  -37.3603   58.7289   61.5518 C   0  0  0  0  0  0  0  0  0  0  0  0
  -36.3721   58.1088   62.5491 C   0  0  0  0  0  0  0  0  0  0  0  0
  -35.0397   58.8822   62.5233 C   0  0  0  0  0  0  0  0  0  0  0  0
  -33.9981   58.3464   63.5238 C   0  0  0  0  0  0  0  0  0  0  0  0
  -32.5768   58.1946   62.9505 C   0  0  0  0  0  0  0  0  0  0  0  0
  -31.7522   59.4960   63.0380 C   0  0  0  0  0  0  0  0  0  0  0  0
  -31.7199   60.3243   61.7325 C   0  0  0  0  0  0  0  0  0  0  0  0
  -31.3739   61.8010   61.9554 C   0  0  0  0  0  0  0  0  0  0  0  0
  -32.4022   62.8031   61.4214 C   0  0  0  0  0  0  0  0  0  0  0  0
  -31.7584   64.1741   61.1449 C   0  0  0  0  0  0  0  0  0  0  0  0
  -31.6963   65.0921   62.3751 C   0  0  0  0  0  0  0  0  0  0  0  0
  -32.8645   66.0705   62.5353 C   0  0  0  0  0  0  0  0  0  0  0  0
  -33.7551   66.2095   61.2754 C   0  0  0  0  0  0  0  0  0  0  0  0
  -35.2444   65.9881   61.6089 C   0  0  0  0  0  0  0  0  0  0  0  0
  -35.8051   64.5758   61.4028 C   0  0  0  0  0  0  0  0  0  0  0  0
 46 47  1  0  0  0
 46 48  1  0  0  0
 46 45  1  0  0  0
 47 49  2  0  0  0
 47 51  1  0  0  0
 19 20  2  0  0  0
 37 38  1  0  0  0
 37 39  1  0  0  0
 37 40  1  0  0  0
 37 41  1  0  0  0
 48 50  1  0  0  0
 38 29  1  0  0  0
 45 44  1  0  0  0
 25 27  1  0  0  0
 25 35  1  0  0  0
 25 28  1  0  0  0
 21 20  1  0  0  0
 21 22  1  0  0  0
 44 42  1  0  0  0
  2  1  1  0  0  0
  2  4  1  0  0  0
  2  5  1  0  0  0
 26 27  2  0  0  0
 42 43  2  0  0  0
 29 31  1  0  0  0
 29 36  1  0  0  0
  3  4  2  0  0  0
 43  1  1  0  0  0
  6  9  2  0  0  0
  6 10  1  0  0  0
  1 20  1  0  0  0
 30 36  2  0  0  0
  7  8  1  0  0  0
  7  9  1  0  0  0
 22 24  1  0  0  0
 22 23  1  0  0  0
 11 12  1  0  0  0
 11 18  1  0  0  0
 24 27  1  0  0  0
  4 10  1  0  0  0
 51 52  1  0  0  0
 52 53  1  0  0  0
 53 54  1  0  0  0
 54 55  1  0  0  0
 55 56  1  0  0  0
 56 57  1  0  0  0
 57 58  1  0  0  0
 58 59  1  0  0  0
 59 60  1  0  0  0
 60 61  1  0  0  0
 61 62  1  0  0  0
 62 63  1  0  0  0
 63 64  1  0  0  0
 64 65  1  0  0  0
 31 32  1  0  0  0
 32 33  1  0  0  0
 33 34  1  0  0  0
 34 35  1  0  0  0
 35 36  1  0  0  0
  8 10  1  0  0  0
  9 17  1  0  0  0
 12 13  2  0  0  0
 12 17  1  0  0  0
 13 14  1  0  0  0
 14 15  2  0  0  0
 15 16  1  0  0  0
 16 17  2  0  0  0
M  END
> <minimizedAffinity>
-9.43372

> <CNNscore>
0.2236771882

> <CNNaffinity>
7.5769515038

> <CNN_VS>
1.6947911978

> <CNNaffinity_variance>
1.1831388474

$$$$
/media/chris/experiments/cd1a-new-docking/inputs/ligands/1xz0_ligand.pdb


 65 67  0  0  0  0  0  0  0  0999 V2000
  -42.4923   60.3841   63.5692 C   0  0  0  0  0  0  0  0  0  0  0  0
  -41.3753   60.2746   64.5096 N   0  0  0  0  0  0  0  0  0  0  0  0
  -39.5638   60.7173   63.2076 O   0  0  0  0  0  0  0  0  0  0  0  0
  -40.0587   60.4367   64.2913 C   0  0  0  0  0  0  0  0  0  0  0  0
  -41.6243   60.0499   65.4353 H   0  0  0  0  0  0  0  0  0  0  0  0
  -38.0670   61.1831   65.5784 N   0  0  0  0  0  0  0  0  0  0  0  0
  -36.8919   59.2829   65.5632 O   0  0  0  0  0  0  0  0  0  0  0  0
  -38.2446   58.8519   65.4183 C   0  0  0  0  0  0  0  0  0  0  0  0
  -36.8914   60.7225   65.6364 C   0  0  0  0  0  0  0  0  0  0  0  0
  -39.1063   60.1448   65.4419 C   0  0  0  0  0  0  0  0  0  0  0  0
  -36.8685   63.5686   66.1810 O   0  0  0  0  0  0  0  0  0  0  0  0
  -35.7015   62.9183   66.0974 C   0  0  0  0  0  0  0  0  0  0  0  0
  -34.5032   63.6184   66.2897 C   0  0  0  0  0  0  0  0  0  0  0  0
  -33.2649   62.9607   66.1978 C   0  0  0  0  0  0  0  0  0  0  0  0
  -33.2113   61.5932   65.9225 C   0  0  0  0  0  0  0  0  0  0  0  0
  -34.4042   60.8891   65.7360 C   0  0  0  0  0  0  0  0  0  0  0  0
  -35.6462   61.5472   65.8189 C   0  0  0  0  0  0  0  0  0  0  0  0
  -36.8810   64.4865   66.3686 H   0  0  0  0  0  0  0  0  0  0  0  0
  -44.4449   59.0208   63.3167 O   0  0  0  0  0  0  0  0  0  0  0  0
  -43.5537   59.4138   64.0515 C   0  0  0  0  0  0  0  0  0  0  0  0
  -43.5628   58.9790   65.4522 O   0  0  0  0  0  0  0  0  0  0  0  0
  -43.3100   57.6080   65.8128 C   0  0  0  0  0  0  0  0  0  0  0  0
  -42.1103   56.9809   65.1134 C   0  0  0  0  0  0  0  0  0  0  0  0
  -44.5760   56.8039   65.5578 C   0  0  0  0  0  0  0  0  0  0  0  0
  -46.6521   58.0915   65.3903 N   0  0  0  0  0  0  0  0  0  0  0  0
  -45.9901   57.1873   67.3550 O   0  0  0  0  0  0  0  0  0  0  0  0
  -45.8049   57.4177   66.1820 C   0  0  0  0  0  0  0  0  0  0  0  0
  -46.3952   58.2188   64.4486 H   0  0  0  0  0  0  0  0  0  0  0  0
  -49.3220   58.5277   63.7979 N   0  0  0  0  0  0  0  0  0  0  0  0
  -49.9741   57.4729   65.6762 O   0  0  0  0  0  0  0  0  0  0  0  0
  -48.2921   59.1213   62.9327 C   0  0  0  0  0  0  0  0  0  0  0  0
  -47.9418   60.5463   63.4011 C   0  0  0  0  0  0  0  0  0  0  0  0
  -48.5661   60.9671   64.7213 C   0  0  0  0  0  0  0  0  0  0  0  0
  -48.0186   60.1855   65.9184 C   0  0  0  0  0  0  0  0  0  0  0  0
  -47.9351   58.6526   65.8291 C   0  0  0  0  0  0  0  0  0  0  0  0
  -49.1563   58.1589   65.0784 C   0  0  0  0  0  0  0  0  0  0  0  0
  -50.8901   58.8363   61.5686 Si  0  0  0  0  0  0  0  0  0  0  0  0
  -50.5519   58.3251   63.2479 O   0  0  0  0  0  0  0  0  0  0  0  0
  -52.2330   58.5150   61.2374 H   0  0  0  0  0  0  0  0  0  0  0  0
  -50.0096   58.1616   60.6820 H   0  0  0  0  0  0  0  0  0  0  0  0
  -50.6963   60.2382   61.4524 H   0  0  0  0  0  0  0  0  0  0  0  0
  -41.7585   58.8617   61.5598 C   0  0  0  0  0  0  0  0  0  0  0  0
  -42.1698   60.2515   62.0610 C   0  0  0  0  0  0  0  0  0  0  0  0
  -41.0298   58.7987   60.2066 C   0  0  0  0  0  0  0  0  0  0  0  0
  -40.1066   57.5897   59.9512 C   0  0  0  0  0  0  0  0  0  0  0  0
  -39.1600   57.4902   61.0665 N   0  0  0  0  0  0  0  0  0  0  0  0
  -38.0298   58.2094   61.2967 C   0  0  0  0  0  0  0  0  0  0  0  0
  -39.4946   56.5089   62.0104 O   0  0  0  0  0  0  0  0  0  0  0  0
  -37.6719   59.0982   60.5242 O   0  0  0  0  0  0  0  0  0  0  0  0
  -38.8290   56.4987   62.7159 H   0  0  0  0  0  0  0  0  0  0  0  0
  -37.1909   57.8950   62.5398 C   0  0  0  0  0  0  0  0  0  0  0  0
  -35.7670   58.4670   62.5072 C   0  0  0  0  0  0  0  0  0  0  0  0
  -34.7947   57.5051   63.2167 C   0  0  0  0  0  0  0  0  0  0  0  0
  -33.3145   57.9037   63.0641 C   0  0  0  0  0  0  0  0  0  0  0  0
  -33.0673   59.1110   62.1404 C   0  0  0  0  0  0  0  0  0  0  0  0
  -31.9996   60.0794   62.6911 C   0  0  0  0  0  0  0  0  0  0  0  0
  -31.2774   60.9194   61.6120 C   0  0  0  0  0  0  0  0  0  0  0  0
  -30.9282   62.3382   62.0761 C   0  0  0  0  0  0  0  0  0  0  0  0
  -32.0611   63.0972   62.7740 C   0  0  0  0  0  0  0  0  0  0  0  0
  -31.9109   64.6190   62.5945 C   0  0  0  0  0  0  0  0  0  0  0  0
  -32.8824   65.2239   61.5696 C   0  0  0  0  0  0  0  0  0  0  0  0
  -33.9825   64.2863   61.0613 C   0  0  0  0  0  0  0  0  0  0  0  0
  -35.4199   64.8337   61.2454 C   0  0  0  0  0  0  0  0  0  0  0  0
  -36.0448   64.3470   62.5686 C   0  0  0  0  0  0  0  0  0  0  0  0
  -36.4516   62.8707   62.6490 C   0  0  0  0  0  0  0  0  0  0  0  0
 46 47  1  0  0  0
 46 48  1  0  0  0
 46 45  1  0  0  0
 47 49  2  0  0  0
 47 51  1  0  0  0
 19 20  2  0  0  0
 37 38  1  0  0  0
 37 39  1  0  0  0
 37 40  1  0  0  0
 37 41  1  0  0  0
 48 50  1  0  0  0
 38 29  1  0  0  0
 45 44  1  0  0  0
 25 27  1  0  0  0
 25 35  1  0  0  0
 25 28  1  0  0  0
 21 20  1  0  0  0
 21 22  1  0  0  0
 44 42  1  0  0  0
  2  1  1  0  0  0
  2  4  1  0  0  0
  2  5  1  0  0  0
 26 27  2  0  0  0
 42 43  2  0  0  0
 29 31  1  0  0  0
 29 36  1  0  0  0
  3  4  2  0  0  0
 43  1  1  0  0  0
  6  9  2  0  0  0
  6 10  1  0  0  0
  1 20  1  0  0  0
 30 36  2  0  0  0
  7  8  1  0  0  0
  7  9  1  0  0  0
 22 24  1  0  0  0
 22 23  1  0  0  0
 11 12  1  0  0  0
 11 18  1  0  0  0
 24 27  1  0  0  0
  4 10  1  0  0  0
 51 52  1  0  0  0
 52 53  1  0  0  0
 53 54  1  0  0  0
 54 55  1  0  0  0
 55 56  1  0  0  0
 56 57  1  0  0  0
 57 58  1  0  0  0
 58 59  1  0  0  0
 59 60  1  0  0  0
 60 61  1  0  0  0
 61 62  1  0  0  0
 62 63  1  0  0  0
 63 64  1  0  0  0
 64 65  1  0  0  0
 31 32  1  0  0  0
 32 33  1  0  0  0
 33 34  1  0  0  0
 34 35  1  0  0  0
 35 36  1  0  0  0
  8 10  1  0  0  0
  9 17  1  0  0  0
 12 13  2  0  0  0
 12 17  1  0  0  0
 13 14  1  0  0  0
 14 15  2  0  0  0
 15 16  1  0  0  0
 16 17  2  0  0  0
M  END
> <minimizedAffinity>
-8.97903

> <CNNscore>
0.1672065556

> <CNNaffinity>
7.4722108841

> <CNN_VS>
1.2494026423

> <CNNaffinity_variance>
1.8419616222

$$$$
/media/chris/experiments/cd1a-new-docking/inputs/ligands/1xz0_ligand.pdb


 65 67  0  0  0  0  0  0  0  0999 V2000
  -41.9767   58.5288   64.5629 C   0  0  0  0  0  0  0  0  0  0  0  0
  -40.6162   58.5212   65.1041 N   0  0  0  0  0  0  0  0  0  0  0  0
  -40.1793   60.7303   65.4234 O   0  0  0  0  0  0  0  0  0  0  0  0
  -39.8430   59.5548   65.4800 C   0  0  0  0  0  0  0  0  0  0  0  0
  -40.2089   57.6309   65.2077 H   0  0  0  0  0  0  0  0  0  0  0  0
  -37.7018   60.4669   66.3538 N   0  0  0  0  0  0  0  0  0  0  0  0
  -36.2930   59.5733   64.8674 O   0  0  0  0  0  0  0  0  0  0  0  0
  -37.4075   58.6820   64.8641 C   0  0  0  0  0  0  0  0  0  0  0  0
  -36.5793   60.6365   65.7979 C   0  0  0  0  0  0  0  0  0  0  0  0
  -38.4119   59.2551   65.9021 C   0  0  0  0  0  0  0  0  0  0  0  0
  -33.6957   60.4483   65.5829 O   0  0  0  0  0  0  0  0  0  0  0  0
  -34.2400   61.6120   65.9586 C   0  0  0  0  0  0  0  0  0  0  0  0
  -33.4119   62.7110   66.2221 C   0  0  0  0  0  0  0  0  0  0  0  0
  -33.9581   63.9406   66.6271 C   0  0  0  0  0  0  0  0  0  0  0  0
  -35.3395   64.0881   66.7634 C   0  0  0  0  0  0  0  0  0  0  0  0
  -36.1704   62.9966   66.4956 C   0  0  0  0  0  0  0  0  0  0  0  0
  -35.6253   61.7606   66.0980 C   0  0  0  0  0  0  0  0  0  0  0  0
  -32.7659   60.3723   65.4961 H   0  0  0  0  0  0  0  0  0  0  0  0
  -42.4361   57.4908   66.6716 O   0  0  0  0  0  0  0  0  0  0  0  0
  -42.8337   57.7591   65.5498 C   0  0  0  0  0  0  0  0  0  0  0  0
  -44.1498   57.2591   65.1387 O   0  0  0  0  0  0  0  0  0  0  0  0
  -45.3514   58.0074   65.4028 C   0  0  0  0  0  0  0  0  0  0  0  0
  -45.1159   59.4106   65.9479 C   0  0  0  0  0  0  0  0  0  0  0  0
  -46.2265   57.1928   66.3435 C   0  0  0  0  0  0  0  0  0  0  0  0
  -48.2275   58.0199   65.1998 N   0  0  0  0  0  0  0  0  0  0  0  0
  -48.0996   55.8867   65.9407 O   0  0  0  0  0  0  0  0  0  0  0  0
  -47.6305   56.9959   65.8272 C   0  0  0  0  0  0  0  0  0  0  0  0
  -47.7492   58.8798   65.1701 H   0  0  0  0  0  0  0  0  0  0  0  0
  -49.2788   59.4040   62.5857 N   0  0  0  0  0  0  0  0  0  0  0  0
  -49.8454   57.2417   62.3229 O   0  0  0  0  0  0  0  0  0  0  0  0
  -48.6737   60.5042   63.3507 C   0  0  0  0  0  0  0  0  0  0  0  0
  -49.6497   61.0234   64.4234 C   0  0  0  0  0  0  0  0  0  0  0  0
  -50.9185   60.2051   64.5967 C   0  0  0  0  0  0  0  0  0  0  0  0
  -50.6575   58.8107   65.1724 C   0  0  0  0  0  0  0  0  0  0  0  0
  -49.5436   57.9489   64.5548 C   0  0  0  0  0  0  0  0  0  0  0  0
  -49.5510   58.1760   63.0558 C   0  0  0  0  0  0  0  0  0  0  0  0
  -48.4657   59.1422   59.9791 Si  0  0  0  0  0  0  0  0  0  0  0  0
  -49.5814   59.6500   61.2803 O   0  0  0  0  0  0  0  0  0  0  0  0
  -49.0076   59.5122   58.7198 H   0  0  0  0  0  0  0  0  0  0  0  0
  -48.2947   57.7332   60.0252 H   0  0  0  0  0  0  0  0  0  0  0  0
  -47.2086   59.7777   60.1587 H   0  0  0  0  0  0  0  0  0  0  0  0
  -41.0660   57.1811   62.5017 C   0  0  0  0  0  0  0  0  0  0  0  0
  -42.1622   58.0749   63.0946 C   0  0  0  0  0  0  0  0  0  0  0  0
  -41.0025   57.0844   60.9679 C   0  0  0  0  0  0  0  0  0  0  0  0
  -40.7898   58.3936   60.1806 C   0  0  0  0  0  0  0  0  0  0  0  0
  -39.5208   58.9884   60.6114 N   0  0  0  0  0  0  0  0  0  0  0  0
  -39.3078   60.0354   61.4517 C   0  0  0  0  0  0  0  0  0  0  0  0
  -38.3880   58.3691   60.0647 O   0  0  0  0  0  0  0  0  0  0  0  0
  -40.2471   60.6261   61.9843 O   0  0  0  0  0  0  0  0  0  0  0  0
  -37.5887   58.8113   60.3907 H   0  0  0  0  0  0  0  0  0  0  0  0
  -37.8689   60.4834   61.7286 C   0  0  0  0  0  0  0  0  0  0  0  0
  -37.7497   61.7072   62.6471 C   0  0  0  0  0  0  0  0  0  0  0  0
  -36.3076   62.2493   62.6208 C   0  0  0  0  0  0  0  0  0  0  0  0
  -36.1992   63.7291   63.0352 C   0  0  0  0  0  0  0  0  0  0  0  0
  -36.0406   64.7138   61.8618 C   0  0  0  0  0  0  0  0  0  0  0  0
  -34.6683   65.4193   61.8516 C   0  0  0  0  0  0  0  0  0  0  0  0
  -33.8854   65.3194   63.1816 C   0  0  0  0  0  0  0  0  0  0  0  0
  -32.5814   66.1255   63.1838 C   0  0  0  0  0  0  0  0  0  0  0  0
  -31.2958   65.2926   63.1719 C   0  0  0  0  0  0  0  0  0  0  0  0
  -31.5812   63.8154   63.4988 C   0  0  0  0  0  0  0  0  0  0  0  0
  -31.7316   62.9212   62.2588 C   0  0  0  0  0  0  0  0  0  0  0  0
  -32.5923   61.6670   62.4429 C   0  0  0  0  0  0  0  0  0  0  0  0
  -31.9419   60.3655   61.9109 C   0  0  0  0  0  0  0  0  0  0  0  0
  -32.4271   59.1297   62.6956 C   0  0  0  0  0  0  0  0  0  0  0  0
  -33.8374   58.6134   62.3858 C   0  0  0  0  0  0  0  0  0  0  0  0
 46 47  1  0  0  0
 46 48  1  0  0  0
 46 45  1  0  0  0
 47 49  2  0  0  0
 47 51  1  0  0  0
 19 20  2  0  0  0
 37 38  1  0  0  0
 37 39  1  0  0  0
 37 40  1  0  0  0
 37 41  1  0  0  0
 48 50  1  0  0  0
 38 29  1  0  0  0
 45 44  1  0  0  0
 25 27  1  0  0  0
 25 35  1  0  0  0
 25 28  1  0  0  0
 21 20  1  0  0  0
 21 22  1  0  0  0
 44 42  1  0  0  0
  2  1  1  0  0  0
  2  4  1  0  0  0
  2  5  1  0  0  0
 26 27  2  0  0  0
 42 43  2  0  0  0
 29 31  1  0  0  0
 29 36  1  0  0  0
  3  4  2  0  0  0
 43  1  1  0  0  0
  6  9  2  0  0  0
  6 10  1  0  0  0
  1 20  1  0  0  0
 30 36  2  0  0  0
  7  8  1  0  0  0
  7  9  1  0  0  0
 22 24  1  0  0  0
 22 23  1  0  0  0
 11 12  1  0  0  0
 11 18  1  0  0  0
 24 27  1  0  0  0
  4 10  1  0  0  0
 51 52  1  0  0  0
 52 53  1  0  0  0
 53 54  1  0  0  0
 54 55  1  0  0  0
 55 56  1  0  0  0
 56 57  1  0  0  0
 57 58  1  0  0  0
 58 59  1  0  0  0
 59 60  1  0  0  0
 60 61  1  0  0  0
 61 62  1  0  0  0
 62 63  1  0  0  0
 63 64  1  0  0  0
 64 65  1  0  0  0
 31 32  1  0  0  0
 32 33  1  0  0  0
 33 34  1  0  0  0
 34 35  1  0  0  0
 35 36  1  0  0  0
  8 10  1  0  0  0
  9 17  1  0  0  0
 12 13  2  0  0  0
 12 17  1  0  0  0
 13 14  1  0  0  0
 14 15  2  0  0  0
 15 16  1  0  0  0
 16 17  2  0  0  0
M  END
> <minimizedAffinity>
-8.43903

> <CNNscore>
0.1453559995

> <CNNaffinity>
7.3732247353

> <CNN_VS>
1.0717424154

> <CNNaffinity_variance>
1.1442227364

$$$$
/media/chris/experiments/cd1a-new-docking/inputs/ligands/1xz0_ligand.pdb


 65 67  0  0  0  0  0  0  0  0999 V2000
  -41.1448   60.1318   65.8410 C   0  0  0  0  0  0  0  0  0  0  0  0
  -41.5436   60.2937   64.4415 N   0  0  0  0  0  0  0  0  0  0  0  0
  -43.8040   60.5074   64.5740 O   0  0  0  0  0  0  0  0  0  0  0  0
  -42.7709   60.4617   63.9192 C   0  0  0  0  0  0  0  0  0  0  0  0
  -40.8066   60.2771   63.7888 H   0  0  0  0  0  0  0  0  0  0  0  0
  -41.9179   59.6033   61.7477 N   0  0  0  0  0  0  0  0  0  0  0  0
  -41.6634   61.5415   60.6657 O   0  0  0  0  0  0  0  0  0  0  0  0
  -42.6749   61.8181   61.6337 C   0  0  0  0  0  0  0  0  0  0  0  0
  -41.2579   60.1679   60.8294 C   0  0  0  0  0  0  0  0  0  0  0  0
  -42.9007   60.4871   62.4031 C   0  0  0  0  0  0  0  0  0  0  0  0
  -38.4357   60.8256   60.8322 O   0  0  0  0  0  0  0  0  0  0  0  0
  -38.8695   59.8481   60.0273 C   0  0  0  0  0  0  0  0  0  0  0  0
  -37.9550   59.1574   59.2213 C   0  0  0  0  0  0  0  0  0  0  0  0
  -38.3866   58.1338   58.3610 C   0  0  0  0  0  0  0  0  0  0  0  0
  -39.7363   57.7823   58.3043 C   0  0  0  0  0  0  0  0  0  0  0  0
  -40.6517   58.4640   59.1110 C   0  0  0  0  0  0  0  0  0  0  0  0
  -40.2234   59.4961   59.9677 C   0  0  0  0  0  0  0  0  0  0  0  0
  -37.5248   61.0437   60.8555 H   0  0  0  0  0  0  0  0  0  0  0  0
  -38.8177   60.5355   66.2372 O   0  0  0  0  0  0  0  0  0  0  0  0
  -39.6723   59.7678   65.8266 C   0  0  0  0  0  0  0  0  0  0  0  0
  -39.2417   58.4917   65.2459 O   0  0  0  0  0  0  0  0  0  0  0  0
  -38.6868   58.4217   63.9189 C   0  0  0  0  0  0  0  0  0  0  0  0
  -39.3061   57.3502   63.0300 C   0  0  0  0  0  0  0  0  0  0  0  0
  -37.1818   58.2335   64.0380 C   0  0  0  0  0  0  0  0  0  0  0  0
  -35.8465   60.2759   64.2418 N   0  0  0  0  0  0  0  0  0  0  0  0
  -36.2306   59.3242   62.2263 O   0  0  0  0  0  0  0  0  0  0  0  0
  -36.3920   59.3633   63.4246 C   0  0  0  0  0  0  0  0  0  0  0  0
  -36.0489   60.2087   65.2029 H   0  0  0  0  0  0  0  0  0  0  0  0
  -34.1115   62.2779   65.9261 N   0  0  0  0  0  0  0  0  0  0  0  0
  -32.6822   61.4879   64.3774 O   0  0  0  0  0  0  0  0  0  0  0  0
  -35.4391   62.3436   66.5545 C   0  0  0  0  0  0  0  0  0  0  0  0
  -36.3696   63.2842   65.7658 C   0  0  0  0  0  0  0  0  0  0  0  0
  -35.8137   63.7885   64.4443 C   0  0  0  0  0  0  0  0  0  0  0  0
  -35.6587   62.6810   63.3986 C   0  0  0  0  0  0  0  0  0  0  0  0
  -34.9691   61.3678   63.8045 C   0  0  0  0  0  0  0  0  0  0  0  0
  -33.8286   61.7074   64.7440 C   0  0  0  0  0  0  0  0  0  0  0  0
  -33.2202   63.1840   68.3568 Si  0  0  0  0  0  0  0  0  0  0  0  0
  -33.0742   62.8379   66.6090 O   0  0  0  0  0  0  0  0  0  0  0  0
  -32.0115   63.7615   68.8276 H   0  0  0  0  0  0  0  0  0  0  0  0
  -33.4725   61.9759   69.0592 H   0  0  0  0  0  0  0  0  0  0  0  0
  -34.2928   64.0894   68.5721 H   0  0  0  0  0  0  0  0  0  0  0  0
  -42.5451   57.9219   66.0634 C   0  0  0  0  0  0  0  0  0  0  0  0
  -42.0062   59.1967   66.7241 C   0  0  0  0  0  0  0  0  0  0  0  0
  -43.7264   57.2247   66.7593 C   0  0  0  0  0  0  0  0  0  0  0  0
  -44.9257   56.8111   65.8819 C   0  0  0  0  0  0  0  0  0  0  0  0
  -45.7335   58.0051   65.6146 N   0  0  0  0  0  0  0  0  0  0  0  0
  -46.5593   58.6853   66.4532 C   0  0  0  0  0  0  0  0  0  0  0  0
  -45.6159   58.4895   64.3042 O   0  0  0  0  0  0  0  0  0  0  0  0
  -46.7089   58.3341   67.6233 O   0  0  0  0  0  0  0  0  0  0  0  0
  -46.1740   59.2758   64.1988 H   0  0  0  0  0  0  0  0  0  0  0  0
  -47.3171   59.9055   65.9196 C   0  0  0  0  0  0  0  0  0  0  0  0
  -48.6240   60.2167   66.6617 C   0  0  0  0  0  0  0  0  0  0  0  0
  -49.8016   60.2467   65.6684 C   0  0  0  0  0  0  0  0  0  0  0  0
  -50.4396   58.8651   65.4291 C   0  0  0  0  0  0  0  0  0  0  0  0
  -50.6710   58.5134   63.9477 C   0  0  0  0  0  0  0  0  0  0  0  0
  -49.3558   58.3214   63.1639 C   0  0  0  0  0  0  0  0  0  0  0  0
  -49.0034   59.4840   62.2070 C   0  0  0  0  0  0  0  0  0  0  0  0
  -49.7182   59.3980   60.8535 C   0  0  0  0  0  0  0  0  0  0  0  0
  -49.6767   58.0245   60.1763 C   0  0  0  0  0  0  0  0  0  0  0  0
  -48.2367   57.4873   60.0848 C   0  0  0  0  0  0  0  0  0  0  0  0
  -48.1261   56.1160   59.4012 C   0  0  0  0  0  0  0  0  0  0  0  0
  -47.1148   56.0238   58.2538 C   0  0  0  0  0  0  0  0  0  0  0  0
  -47.7547   55.9839   56.8436 C   0  0  0  0  0  0  0  0  0  0  0  0
  -48.1198   57.3980   56.3485 C   0  0  0  0  0  0  0  0  0  0  0  0
  -47.1249   58.5245   56.6528 C   0  0  0  0  0  0  0  0  0  0  0  0
 46 47  1  0  0  0
 46 48  1  0  0  0
 46 45  1  0  0  0
 47 49  2  0  0  0
 47 51  1  0  0  0
 19 20  2  0  0  0
 37 38  1  0  0  0
 37 39  1  0  0  0
 37 40  1  0  0  0
 37 41  1  0  0  0
 48 50  1  0  0  0
 38 29  1  0  0  0
 45 44  1  0  0  0
 25 27  1  0  0  0
 25 35  1  0  0  0
 25 28  1  0  0  0
 21 20  1  0  0  0
 21 22  1  0  0  0
 44 42  1  0  0  0
  2  1  1  0  0  0
  2  4  1  0  0  0
  2  5  1  0  0  0
 26 27  2  0  0  0
 42 43  2  0  0  0
 29 31  1  0  0  0
 29 36  1  0  0  0
  3  4  2  0  0  0
 43  1  1  0  0  0
  6  9  2  0  0  0
  6 10  1  0  0  0
  1 20  1  0  0  0
 30 36  2  0  0  0
  7  8  1  0  0  0
  7  9  1  0  0  0
 22 24  1  0  0  0
 22 23  1  0  0  0
 11 12  1  0  0  0
 11 18  1  0  0  0
 24 27  1  0  0  0
  4 10  1  0  0  0
 51 52  1  0  0  0
 52 53  1  0  0  0
 53 54  1  0  0  0
 54 55  1  0  0  0
 55 56  1  0  0  0
 56 57  1  0  0  0
 57 58  1  0  0  0
 58 59  1  0  0  0
 59 60  1  0  0  0
 60 61  1  0  0  0
 61 62  1  0  0  0
 62 63  1  0  0  0
 63 64  1  0  0  0
 64 65  1  0  0  0
 31 32  1  0  0  0
 32 33  1  0  0  0
 33 34  1  0  0  0
 34 35  1  0  0  0
 35 36  1  0  0  0
  8 10  1  0  0  0
  9 17  1  0  0  0
 12 13  2  0  0  0
 12 17  1  0  0  0
 13 14  1  0  0  0
 14 15  2  0  0  0
 15 16  1  0  0  0
 16 17  2  0  0  0
M  END
> <minimizedAffinity>
-9.45437

> <CNNscore>
0.1422889084

> <CNNaffinity>
7.4290208817

> <CNN_VS>
1.0570672750

> <CNNaffinity_variance>
0.8561306000

$$$$
/media/chris/experiments/cd1a-new-docking/inputs/ligands/1xz0_ligand.pdb


 65 67  0  0  0  0  0  0  0  0999 V2000
  -42.1311   58.5933   64.7358 C   0  0  0  0  0  0  0  0  0  0  0  0
  -40.7648   58.5827   65.2624 N   0  0  0  0  0  0  0  0  0  0  0  0
  -40.1778   60.7793   65.2085 O   0  0  0  0  0  0  0  0  0  0  0  0
  -39.9188   59.6092   65.4570 C   0  0  0  0  0  0  0  0  0  0  0  0
  -40.4154   57.6960   65.5095 H   0  0  0  0  0  0  0  0  0  0  0  0
  -37.7743   60.4920   66.3527 N   0  0  0  0  0  0  0  0  0  0  0  0
  -36.3582   59.5332   64.9148 O   0  0  0  0  0  0  0  0  0  0  0  0
  -37.4927   58.6675   64.9091 C   0  0  0  0  0  0  0  0  0  0  0  0
  -36.6377   60.6234   65.8155 C   0  0  0  0  0  0  0  0  0  0  0  0
  -38.5034   59.2867   65.9140 C   0  0  0  0  0  0  0  0  0  0  0  0
  -33.7609   60.3999   65.5483 O   0  0  0  0  0  0  0  0  0  0  0  0
  -34.2833   61.5669   65.9445 C   0  0  0  0  0  0  0  0  0  0  0  0
  -33.4364   62.6525   66.2038 C   0  0  0  0  0  0  0  0  0  0  0  0
  -33.9593   63.8851   66.6299 C   0  0  0  0  0  0  0  0  0  0  0  0
  -35.3360   64.0492   66.7917 C   0  0  0  0  0  0  0  0  0  0  0  0
  -36.1857   62.9711   66.5282 C   0  0  0  0  0  0  0  0  0  0  0  0
  -35.6639   61.7321   66.1095 C   0  0  0  0  0  0  0  0  0  0  0  0
  -32.8339   60.3127   65.4446 H   0  0  0  0  0  0  0  0  0  0  0  0
  -42.8713   57.3472   66.6423 O   0  0  0  0  0  0  0  0  0  0  0  0
  -43.0450   58.3095   65.9128 C   0  0  0  0  0  0  0  0  0  0  0  0
  -44.2111   59.1657   66.1542 O   0  0  0  0  0  0  0  0  0  0  0  0
  -45.5461   58.7143   65.8581 C   0  0  0  0  0  0  0  0  0  0  0  0
  -45.8186   57.2609   66.2259 C   0  0  0  0  0  0  0  0  0  0  0  0
  -45.8222   58.9684   64.3837 C   0  0  0  0  0  0  0  0  0  0  0  0
  -47.8387   59.0978   63.0007 N   0  0  0  0  0  0  0  0  0  0  0  0
  -47.7134   60.1645   64.9912 O   0  0  0  0  0  0  0  0  0  0  0  0
  -47.2141   59.4881   64.1214 C   0  0  0  0  0  0  0  0  0  0  0  0
  -47.3308   58.5474   62.3618 H   0  0  0  0  0  0  0  0  0  0  0  0
  -49.9679   57.4800   61.3562 N   0  0  0  0  0  0  0  0  0  0  0  0
  -51.0595   58.0630   63.2361 O   0  0  0  0  0  0  0  0  0  0  0  0
  -48.7737   57.4683   60.4985 C   0  0  0  0  0  0  0  0  0  0  0  0
  -48.6607   58.7828   59.7035 C   0  0  0  0  0  0  0  0  0  0  0  0
  -49.6594   59.8617   60.0884 C   0  0  0  0  0  0  0  0  0  0  0  0
  -49.4269   60.4181   61.4956 C   0  0  0  0  0  0  0  0  0  0  0  0
  -49.2259   59.4334   62.6596 C   0  0  0  0  0  0  0  0  0  0  0  0
  -50.1501   58.2518   62.4398 C   0  0  0  0  0  0  0  0  0  0  0  0
  -50.6100   54.9892   60.4037 Si  0  0  0  0  0  0  0  0  0  0  0  0
  -50.9756   56.6243   61.0272 O   0  0  0  0  0  0  0  0  0  0  0  0
  -51.8236   54.3015   60.1384 H   0  0  0  0  0  0  0  0  0  0  0  0
  -49.8603   54.2701   61.3718 H   0  0  0  0  0  0  0  0  0  0  0  0
  -49.8555   55.0973   59.2055 H   0  0  0  0  0  0  0  0  0  0  0  0
  -41.2243   57.0204   62.8390 C   0  0  0  0  0  0  0  0  0  0  0  0
  -42.4242   57.7130   63.4966 C   0  0  0  0  0  0  0  0  0  0  0  0
  -41.4160   56.5181   61.3979 C   0  0  0  0  0  0  0  0  0  0  0  0
  -40.7295   57.3147   60.2694 C   0  0  0  0  0  0  0  0  0  0  0  0
  -40.2991   58.6060   60.8142 N   0  0  0  0  0  0  0  0  0  0  0  0
  -39.1026   58.9485   61.3608 C   0  0  0  0  0  0  0  0  0  0  0  0
  -41.2790   59.6065   60.7471 O   0  0  0  0  0  0  0  0  0  0  0  0
  -38.1843   58.1334   61.4456 O   0  0  0  0  0  0  0  0  0  0  0  0
  -40.9278   60.4289   61.1228 H   0  0  0  0  0  0  0  0  0  0  0  0
  -38.9070   60.3757   61.8829 C   0  0  0  0  0  0  0  0  0  0  0  0
  -37.4429   60.8303   61.9575 C   0  0  0  0  0  0  0  0  0  0  0  0
  -37.3302   62.1129   62.8040 C   0  0  0  0  0  0  0  0  0  0  0  0
  -35.9202   62.7335   62.7953 C   0  0  0  0  0  0  0  0  0  0  0  0
  -35.8895   64.2588   63.0053 C   0  0  0  0  0  0  0  0  0  0  0  0
  -34.4562   64.8236   63.0944 C   0  0  0  0  0  0  0  0  0  0  0  0
  -33.7875   65.0956   61.7267 C   0  0  0  0  0  0  0  0  0  0  0  0
  -32.7553   64.0336   61.3306 C   0  0  0  0  0  0  0  0  0  0  0  0
  -31.6431   63.7863   62.3546 C   0  0  0  0  0  0  0  0  0  0  0  0
  -31.7655   62.3890   62.9895 C   0  0  0  0  0  0  0  0  0  0  0  0
  -32.3968   61.3378   62.0641 C   0  0  0  0  0  0  0  0  0  0  0  0
  -31.6697   59.9910   61.9929 C   0  0  0  0  0  0  0  0  0  0  0  0
  -32.2851   58.8878   62.8895 C   0  0  0  0  0  0  0  0  0  0  0  0
  -33.7631   58.6293   62.5334 C   0  0  0  0  0  0  0  0  0  0  0  0
  -34.3991   57.3437   63.0757 C   0  0  0  0  0  0  0  0  0  0  0  0
 46 47  1  0  0  0
 46 48  1  0  0  0
 46 45  1  0  0  0
 47 49  2  0  0  0
 47 51  1  0  0  0
 19 20  2  0  0  0
 37 38  1  0  0  0
 37 39  1  0  0  0
 37 40  1  0  0  0
 37 41  1  0  0  0
 48 50  1  0  0  0
 38 29  1  0  0  0
 45 44  1  0  0  0
 25 27  1  0  0  0
 25 35  1  0  0  0
 25 28  1  0  0  0
 21 20  1  0  0  0
 21 22  1  0  0  0
 44 42  1  0  0  0
  2  1  1  0  0  0
  2  4  1  0  0  0
  2  5  1  0  0  0
 26 27  2  0  0  0
 42 43  2  0  0  0
 29 31  1  0  0  0
 29 36  1  0  0  0
  3  4  2  0  0  0
 43  1  1  0  0  0
  6  9  2  0  0  0
  6 10  1  0  0  0
  1 20  1  0  0  0
 30 36  2  0  0  0
  7  8  1  0  0  0
  7  9  1  0  0  0
 22 24  1  0  0  0
 22 23  1  0  0  0
 11 12  1  0  0  0
 11 18  1  0  0  0
 24 27  1  0  0  0
  4 10  1  0  0  0
 51 52  1  0  0  0
 52 53  1  0  0  0
 53 54  1  0  0  0
 54 55  1  0  0  0
 55 56  1  0  0  0
 56 57  1  0  0  0
 57 58  1  0  0  0
 58 59  1  0  0  0
 59 60  1  0  0  0
 60 61  1  0  0  0
 61 62  1  0  0  0
 62 63  1  0  0  0
 63 64  1  0  0  0
 64 65  1  0  0  0
 31 32  1  0  0  0
 32 33  1  0  0  0
 33 34  1  0  0  0
 34 35  1  0  0  0
 35 36  1  0  0  0
  8 10  1  0  0  0
  9 17  1  0  0  0
 12 13  2  0  0  0
 12 17  1  0  0  0
 13 14  1  0  0  0
 14 15  2  0  0  0
 15 16  1  0  0  0
 16 17  2  0  0  0
M  END
> <minimizedAffinity>
-8.72563

> <CNNscore>
0.1348028034

> <CNNaffinity>
7.6004323959

> <CNN_VS>
1.0245596170

> <CNNaffinity_variance>
0.8813050389

$$$$
