/media/chris/experiments/cd1a-new-docking/inputs/ligands/1xz0_ligand.pdb


 65 67  0  0  0  0  0  0  0  0999 V2000
  -40.4390   59.2066   64.8003 C   0  0  0  0  0  0  0  0  0  0  0  0
  -39.1139   59.4015   65.3919 N   0  0  0  0  0  0  0  0  0  0  0  0
  -38.2738   61.1491   64.2033 O   0  0  0  0  0  0  0  0  0  0  0  0
  -38.1663   60.3031   65.0811 C   0  0  0  0  0  0  0  0  0  0  0  0
  -38.8837   58.7832   66.1226 H   0  0  0  0  0  0  0  0  0  0  0  0
  -36.2951   61.5206   66.1751 N   0  0  0  0  0  0  0  0  0  0  0  0
  -34.5737   60.5680   65.1162 O   0  0  0  0  0  0  0  0  0  0  0  0
  -35.6058   59.5848   65.0487 C   0  0  0  0  0  0  0  0  0  0  0  0
  -35.1013   61.7166   65.8093 C   0  0  0  0  0  0  0  0  0  0  0  0
  -36.8248   60.1979   65.7921 C   0  0  0  0  0  0  0  0  0  0  0  0
  -36.0758   63.9916   67.3166 O   0  0  0  0  0  0  0  0  0  0  0  0
  -34.8208   64.0155   66.8518 C   0  0  0  0  0  0  0  0  0  0  0  0
  -34.0054   65.1238   67.1154 C   0  0  0  0  0  0  0  0  0  0  0  0
  -32.6877   65.1772   66.6307 C   0  0  0  0  0  0  0  0  0  0  0  0
  -32.1670   64.1181   65.8851 C   0  0  0  0  0  0  0  0  0  0  0  0
  -32.9743   63.0073   65.6246 C   0  0  0  0  0  0  0  0  0  0  0  0
  -34.2981   62.9549   66.1017 C   0  0  0  0  0  0  0  0  0  0  0  0
  -36.4041   64.7130   67.8164 H   0  0  0  0  0  0  0  0  0  0  0  0
  -41.4596   61.2307   65.5729 O   0  0  0  0  0  0  0  0  0  0  0  0
  -41.0364   60.5898   64.6249 C   0  0  0  0  0  0  0  0  0  0  0  0
  -41.1779   61.1585   63.2804 O   0  0  0  0  0  0  0  0  0  0  0  0
  -42.4741   61.4256   62.7124 C   0  0  0  0  0  0  0  0  0  0  0  0
  -43.5298   60.3716   63.0221 C   0  0  0  0  0  0  0  0  0  0  0  0
  -42.3102   61.6141   61.2118 C   0  0  0  0  0  0  0  0  0  0  0  0
  -41.5006   59.3031   61.2317 N   0  0  0  0  0  0  0  0  0  0  0  0
  -41.3672   60.5746   59.3659 O   0  0  0  0  0  0  0  0  0  0  0  0
  -41.6486   60.4392   60.5347 C   0  0  0  0  0  0  0  0  0  0  0  0
  -41.7641   59.3107   62.1802 H   0  0  0  0  0  0  0  0  0  0  0  0
  -38.8505   57.7557   61.8932 N   0  0  0  0  0  0  0  0  0  0  0  0
  -40.4492   56.1764   62.0175 O   0  0  0  0  0  0  0  0  0  0  0  0
  -38.4055   59.1374   61.6589 C   0  0  0  0  0  0  0  0  0  0  0  0
  -38.2657   59.4165   60.1505 C   0  0  0  0  0  0  0  0  0  0  0  0
  -38.7761   58.3146   59.2367 C   0  0  0  0  0  0  0  0  0  0  0  0
  -40.2954   58.1380   59.3028 C   0  0  0  0  0  0  0  0  0  0  0  0
  -40.9736   58.0496   60.6802 C   0  0  0  0  0  0  0  0  0  0  0  0
  -40.0640   57.2605   61.6014 C   0  0  0  0  0  0  0  0  0  0  0  0
  -37.2685   57.2608   64.0786 Si  0  0  0  0  0  0  0  0  0  0  0  0
  -37.9543   56.9047   62.4665 O   0  0  0  0  0  0  0  0  0  0  0  0
  -36.3672   56.2275   64.4482 H   0  0  0  0  0  0  0  0  0  0  0  0
  -38.3173   57.3378   65.0328 H   0  0  0  0  0  0  0  0  0  0  0  0
  -36.5760   58.4997   64.0353 H   0  0  0  0  0  0  0  0  0  0  0  0
  -42.3122   57.3787   64.5913 C   0  0  0  0  0  0  0  0  0  0  0  0
  -41.3904   58.2040   65.4974 C   0  0  0  0  0  0  0  0  0  0  0  0
  -43.5338   56.7220   65.2563 C   0  0  0  0  0  0  0  0  0  0  0  0
  -44.9065   57.3926   65.0427 C   0  0  0  0  0  0  0  0  0  0  0  0
  -45.4484   57.7590   66.3549 N   0  0  0  0  0  0  0  0  0  0  0  0
  -46.4666   58.6085   66.6537 C   0  0  0  0  0  0  0  0  0  0  0  0
  -44.8074   57.1289   67.4309 O   0  0  0  0  0  0  0  0  0  0  0  0
  -46.8060   58.8111   67.8193 O   0  0  0  0  0  0  0  0  0  0  0  0
  -45.2149   57.4159   68.2631 H   0  0  0  0  0  0  0  0  0  0  0  0
  -47.2019   59.3161   65.5106 C   0  0  0  0  0  0  0  0  0  0  0  0
  -48.3951   60.1725   65.9561 C   0  0  0  0  0  0  0  0  0  0  0  0
  -49.6993   59.3594   65.8473 C   0  0  0  0  0  0  0  0  0  0  0  0
  -50.9005   60.1869   65.3520 C   0  0  0  0  0  0  0  0  0  0  0  0
  -51.5209   59.6905   64.0325 C   0  0  0  0  0  0  0  0  0  0  0  0
  -51.1000   60.5395   62.8146 C   0  0  0  0  0  0  0  0  0  0  0  0
  -49.7713   60.1016   62.1554 C   0  0  0  0  0  0  0  0  0  0  0  0
  -49.6420   60.5423   60.6927 C   0  0  0  0  0  0  0  0  0  0  0  0
  -49.2911   59.4285   59.7011 C   0  0  0  0  0  0  0  0  0  0  0  0
  -50.0199   58.1176   60.0488 C   0  0  0  0  0  0  0  0  0  0  0  0
  -49.1317   56.8677   59.9553 C   0  0  0  0  0  0  0  0  0  0  0  0
  -47.7847   57.0595   59.2508 C   0  0  0  0  0  0  0  0  0  0  0  0
  -47.5246   56.0633   58.0935 C   0  0  0  0  0  0  0  0  0  0  0  0
  -47.1067   56.7945   56.8017 C   0  0  0  0  0  0  0  0  0  0  0  0
  -47.2752   58.3184   56.7745 C   0  0  0  0  0  0  0  0  0  0  0  0
 46 47  1  0  0  0
 46 48  1  0  0  0
 46 45  1  0  0  0
 47 49  2  0  0  0
 47 51  1  0  0  0
 19 20  2  0  0  0
 37 38  1  0  0  0
 37 39  1  0  0  0
 37 40  1  0  0  0
 37 41  1  0  0  0
 48 50  1  0  0  0
 38 29  1  0  0  0
 45 44  1  0  0  0
 25 27  1  0  0  0
 25 35  1  0  0  0
 25 28  1  0  0  0
 21 20  1  0  0  0
 21 22  1  0  0  0
 44 42  1  0  0  0
  2  1  1  0  0  0
  2  4  1  0  0  0
  2  5  1  0  0  0
 26 27  2  0  0  0
 42 43  2  0  0  0
 29 31  1  0  0  0
 29 36  1  0  0  0
  3  4  2  0  0  0
 43  1  1  0  0  0
  6  9  2  0  0  0
  6 10  1  0  0  0
  1 20  1  0  0  0
 30 36  2  0  0  0
  7  8  1  0  0  0
  7  9  1  0  0  0
 22 24  1  0  0  0
 22 23  1  0  0  0
 11 12  1  0  0  0
 11 18  1  0  0  0
 24 27  1  0  0  0
  4 10  1  0  0  0
 51 52  1  0  0  0
 52 53  1  0  0  0
 53 54  1  0  0  0
 54 55  1  0  0  0
 55 56  1  0  0  0
 56 57  1  0  0  0
 57 58  1  0  0  0
 58 59  1  0  0  0
 59 60  1  0  0  0
 60 61  1  0  0  0
 61 62  1  0  0  0
 62 63  1  0  0  0
 63 64  1  0  0  0
 64 65  1  0  0  0
 31 32  1  0  0  0
 32 33  1  0  0  0
 33 34  1  0  0  0
 34 35  1  0  0  0
 35 36  1  0  0  0
  8 10  1  0  0  0
  9 17  1  0  0  0
 12 13  2  0  0  0
 12 17  1  0  0  0
 13 14  1  0  0  0
 14 15  2  0  0  0
 15 16  1  0  0  0
 16 17  2  0  0  0
M  END
> <minimizedAffinity>
-10.43343

> <CNNscore>
0.2482317686

> <CNNaffinity>
7.6462264061

> <CNN_VS>
1.8980363607

> <CNNaffinity_variance>
1.7715597153

$$$$
/media/chris/experiments/cd1a-new-docking/inputs/ligands/1xz0_ligand.pdb


 65 67  0  0  0  0  0  0  0  0999 V2000
  -42.3851   59.7296   62.4894 C   0  0  0  0  0  0  0  0  0  0  0  0
  -41.1504   59.3533   61.7981 N   0  0  0  0  0  0  0  0  0  0  0  0
  -41.8580   57.8025   60.2924 O   0  0  0  0  0  0  0  0  0  0  0  0
  -40.9669   58.4685   60.8028 C   0  0  0  0  0  0  0  0  0  0  0  0
  -40.3374   59.8150   62.1066 H   0  0  0  0  0  0  0  0  0  0  0  0
  -38.6790   57.7597   61.4687 N   0  0  0  0  0  0  0  0  0  0  0  0
  -37.4993   59.4040   60.5217 O   0  0  0  0  0  0  0  0  0  0  0  0
  -38.6908   59.3405   59.7388 C   0  0  0  0  0  0  0  0  0  0  0  0
  -37.5987   58.4093   61.5603 C   0  0  0  0  0  0  0  0  0  0  0  0
  -39.5400   58.1923   60.3514 C   0  0  0  0  0  0  0  0  0  0  0  0
  -38.0413   57.2475   64.1778 O   0  0  0  0  0  0  0  0  0  0  0  0
  -36.7934   57.5723   63.8189 C   0  0  0  0  0  0  0  0  0  0  0  0
  -35.7333   57.3308   64.7026 C   0  0  0  0  0  0  0  0  0  0  0  0
  -34.4157   57.6715   64.3532 C   0  0  0  0  0  0  0  0  0  0  0  0
  -34.1418   58.2484   63.1120 C   0  0  0  0  0  0  0  0  0  0  0  0
  -35.1951   58.4856   62.2243 C   0  0  0  0  0  0  0  0  0  0  0  0
  -36.5177   58.1534   62.5751 C   0  0  0  0  0  0  0  0  0  0  0  0
  -38.2020   56.8596   65.0155 H   0  0  0  0  0  0  0  0  0  0  0  0
  -42.1358   62.0337   63.0930 O   0  0  0  0  0  0  0  0  0  0  0  0
  -42.0213   60.8657   63.4263 C   0  0  0  0  0  0  0  0  0  0  0  0
  -41.4528   60.5700   64.7455 O   0  0  0  0  0  0  0  0  0  0  0  0
  -40.4183   59.5819   64.9113 C   0  0  0  0  0  0  0  0  0  0  0  0
  -40.8946   58.2601   65.5006 C   0  0  0  0  0  0  0  0  0  0  0  0
  -39.3059   60.1891   65.7529 C   0  0  0  0  0  0  0  0  0  0  0  0
  -36.9320   60.7344   65.5007 N   0  0  0  0  0  0  0  0  0  0  0  0
  -38.3717   60.9419   63.7687 O   0  0  0  0  0  0  0  0  0  0  0  0
  -38.1447   60.6897   64.9299 C   0  0  0  0  0  0  0  0  0  0  0  0
  -36.8677   60.5079   66.4566 H   0  0  0  0  0  0  0  0  0  0  0  0
  -34.5138   62.4989   66.4460 N   0  0  0  0  0  0  0  0  0  0  0  0
  -33.5464   60.6253   65.6591 O   0  0  0  0  0  0  0  0  0  0  0  0
  -35.6933   63.3250   66.7431 C   0  0  0  0  0  0  0  0  0  0  0  0
  -36.1749   64.0619   65.4791 C   0  0  0  0  0  0  0  0  0  0  0  0
  -35.4805   63.6587   64.1888 C   0  0  0  0  0  0  0  0  0  0  0  0
  -35.8000   62.2241   63.7601 C   0  0  0  0  0  0  0  0  0  0  0  0
  -35.6943   61.0970   64.8009 C   0  0  0  0  0  0  0  0  0  0  0  0
  -34.5014   61.3894   65.6898 C   0  0  0  0  0  0  0  0  0  0  0  0
  -33.2080   63.2207   68.7477 Si  0  0  0  0  0  0  0  0  0  0  0  0
  -33.3297   62.8890   66.9952 O   0  0  0  0  0  0  0  0  0  0  0  0
  -31.8789   63.6072   69.0650 H   0  0  0  0  0  0  0  0  0  0  0  0
  -33.5471   62.0497   69.4758 H   0  0  0  0  0  0  0  0  0  0  0  0
  -34.1012   64.2689   69.0941 H   0  0  0  0  0  0  0  0  0  0  0  0
  -44.2761   59.0256   64.1694 C   0  0  0  0  0  0  0  0  0  0  0  0
  -43.1937   58.5988   63.1704 C   0  0  0  0  0  0  0  0  0  0  0  0
  -44.7727   57.9546   65.1554 C   0  0  0  0  0  0  0  0  0  0  0  0
  -45.6207   58.4289   66.3535 C   0  0  0  0  0  0  0  0  0  0  0  0
  -46.9925   57.9465   66.1656 N   0  0  0  0  0  0  0  0  0  0  0  0
  -48.1428   58.6613   66.0496 C   0  0  0  0  0  0  0  0  0  0  0  0
  -47.1002   56.5503   66.0992 O   0  0  0  0  0  0  0  0  0  0  0  0
  -49.2278   58.1014   65.8934 O   0  0  0  0  0  0  0  0  0  0  0  0
  -48.0299   56.3032   65.9748 H   0  0  0  0  0  0  0  0  0  0  0  0
  -48.0750   60.1910   66.1098 C   0  0  0  0  0  0  0  0  0  0  0  0
  -48.4913   60.8972   64.8123 C   0  0  0  0  0  0  0  0  0  0  0  0
  -47.6423   60.3821   63.6342 C   0  0  0  0  0  0  0  0  0  0  0  0
  -48.4533   59.5886   62.5923 C   0  0  0  0  0  0  0  0  0  0  0  0
  -49.3574   60.4506   61.6912 C   0  0  0  0  0  0  0  0  0  0  0  0
  -50.8607   60.2081   61.9417 C   0  0  0  0  0  0  0  0  0  0  0  0
  -51.1686   59.2218   63.0923 C   0  0  0  0  0  0  0  0  0  0  0  0
  -51.0814   57.7496   62.6733 C   0  0  0  0  0  0  0  0  0  0  0  0
  -51.3714   57.4704   61.1952 C   0  0  0  0  0  0  0  0  0  0  0  0
  -50.2547   56.6265   60.5540 C   0  0  0  0  0  0  0  0  0  0  0  0
  -49.3578   57.4128   59.5859 C   0  0  0  0  0  0  0  0  0  0  0  0
  -47.8704   57.0459   59.6096 C   0  0  0  0  0  0  0  0  0  0  0  0
  -47.3804   56.2944   58.3468 C   0  0  0  0  0  0  0  0  0  0  0  0
  -47.8846   56.9706   57.0557 C   0  0  0  0  0  0  0  0  0  0  0  0
  -47.1630   58.2469   56.6065 C   0  0  0  0  0  0  0  0  0  0  0  0
 46 47  1  0  0  0
 46 48  1  0  0  0
 46 45  1  0  0  0
 47 49  2  0  0  0
 47 51  1  0  0  0
 19 20  2  0  0  0
 37 38  1  0  0  0
 37 39  1  0  0  0
 37 40  1  0  0  0
 37 41  1  0  0  0
 48 50  1  0  0  0
 38 29  1  0  0  0
 45 44  1  0  0  0
 25 27  1  0  0  0
 25 35  1  0  0  0
 25 28  1  0  0  0
 21 20  1  0  0  0
 21 22  1  0  0  0
 44 42  1  0  0  0
  2  1  1  0  0  0
  2  4  1  0  0  0
  2  5  1  0  0  0
 26 27  2  0  0  0
 42 43  2  0  0  0
 29 31  1  0  0  0
 29 36  1  0  0  0
  3  4  2  0  0  0
 43  1  1  0  0  0
  6  9  2  0  0  0
  6 10  1  0  0  0
  1 20  1  0  0  0
 30 36  2  0  0  0
  7  8  1  0  0  0
  7  9  1  0  0  0
 22 24  1  0  0  0
 22 23  1  0  0  0
 11 12  1  0  0  0
 11 18  1  0  0  0
 24 27  1  0  0  0
  4 10  1  0  0  0
 51 52  1  0  0  0
 52 53  1  0  0  0
 53 54  1  0  0  0
 54 55  1  0  0  0
 55 56  1  0  0  0
 56 57  1  0  0  0
 57 58  1  0  0  0
 58 59  1  0  0  0
 59 60  1  0  0  0
 60 61  1  0  0  0
 61 62  1  0  0  0
 62 63  1  0  0  0
 63 64  1  0  0  0
 64 65  1  0  0  0
 31 32  1  0  0  0
 32 33  1  0  0  0
 33 34  1  0  0  0
 34 35  1  0  0  0
 35 36  1  0  0  0
  8 10  1  0  0  0
  9 17  1  0  0  0
 12 13  2  0  0  0
 12 17  1  0  0  0
 13 14  1  0  0  0
 14 15  2  0  0  0
 15 16  1  0  0  0
 16 17  2  0  0  0
M  END
> <minimizedAffinity>
-10.31964

> <CNNscore>
0.1690926850

> <CNNaffinity>
7.6827788353

> <CNN_VS>
1.2991017103

> <CNNaffinity_variance>
0.7220972776

$$$$
/media/chris/experiments/cd1a-new-docking/inputs/ligands/1xz0_ligand.pdb


 65 67  0  0  0  0  0  0  0  0999 V2000
  -42.1985   58.4615   65.8160 C   0  0  0  0  0  0  0  0  0  0  0  0
  -41.8297   57.6510   64.6537 N   0  0  0  0  0  0  0  0  0  0  0  0
  -42.3638   55.5400   65.3106 O   0  0  0  0  0  0  0  0  0  0  0  0
  -41.9264   56.3218   64.4766 C   0  0  0  0  0  0  0  0  0  0  0  0
  -41.4573   58.1515   63.8921 H   0  0  0  0  0  0  0  0  0  0  0  0
  -40.2773   56.5701   62.6330 N   0  0  0  0  0  0  0  0  0  0  0  0
  -41.6307   56.2340   60.8873 O   0  0  0  0  0  0  0  0  0  0  0  0
  -42.2715   55.5412   61.9578 C   0  0  0  0  0  0  0  0  0  0  0  0
  -40.4310   56.8403   61.4079 C   0  0  0  0  0  0  0  0  0  0  0  0
  -41.3528   55.7318   63.1964 C   0  0  0  0  0  0  0  0  0  0  0  0
  -38.2116   58.3762   62.4627 O   0  0  0  0  0  0  0  0  0  0  0  0
  -38.4038   58.3463   61.1384 C   0  0  0  0  0  0  0  0  0  0  0  0
  -37.5254   59.0394   60.2952 C   0  0  0  0  0  0  0  0  0  0  0  0
  -37.7112   59.0315   58.9025 C   0  0  0  0  0  0  0  0  0  0  0  0
  -38.7718   58.3221   58.3363 C   0  0  0  0  0  0  0  0  0  0  0  0
  -39.6472   57.6239   59.1728 C   0  0  0  0  0  0  0  0  0  0  0  0
  -39.4687   57.6372   60.5694 C   0  0  0  0  0  0  0  0  0  0  0  0
  -37.4920   58.8576   62.8210 H   0  0  0  0  0  0  0  0  0  0  0  0
  -43.7021   59.6018   64.3415 O   0  0  0  0  0  0  0  0  0  0  0  0
  -43.4995   59.1547   65.4583 C   0  0  0  0  0  0  0  0  0  0  0  0
  -44.5237   59.3605   66.4878 O   0  0  0  0  0  0  0  0  0  0  0  0
  -45.8317   58.7691   66.3722 C   0  0  0  0  0  0  0  0  0  0  0  0
  -45.8262   57.2728   66.0847 C   0  0  0  0  0  0  0  0  0  0  0  0
  -46.6094   59.5296   65.3086 C   0  0  0  0  0  0  0  0  0  0  0  0
  -48.2589   58.7386   63.6809 N   0  0  0  0  0  0  0  0  0  0  0  0
  -48.5898   58.4804   65.9034 O   0  0  0  0  0  0  0  0  0  0  0  0
  -47.9351   58.8922   64.9732 C   0  0  0  0  0  0  0  0  0  0  0  0
  -47.6481   59.1171   63.0081 H   0  0  0  0  0  0  0  0  0  0  0  0
  -49.7248   58.9162   60.9106 N   0  0  0  0  0  0  0  0  0  0  0  0
  -49.4785   56.7059   61.2560 O   0  0  0  0  0  0  0  0  0  0  0  0
  -49.5569   60.3202   61.3138 C   0  0  0  0  0  0  0  0  0  0  0  0
  -50.6586   60.7379   62.3060 C   0  0  0  0  0  0  0  0  0  0  0  0
  -51.5512   59.6100   62.7969 C   0  0  0  0  0  0  0  0  0  0  0  0
  -50.8108   58.6016   63.6794 C   0  0  0  0  0  0  0  0  0  0  0  0
  -49.4596   58.0461   63.1992 C   0  0  0  0  0  0  0  0  0  0  0  0
  -49.5414   57.8447   61.6987 C   0  0  0  0  0  0  0  0  0  0  0  0
  -50.4838   57.0252   59.0744 Si  0  0  0  0  0  0  0  0  0  0  0  0
  -50.0899   58.6817   59.6192 O   0  0  0  0  0  0  0  0  0  0  0  0
  -50.8307   57.0498   57.6976 H   0  0  0  0  0  0  0  0  0  0  0  0
  -51.5780   56.5262   59.8294 H   0  0  0  0  0  0  0  0  0  0  0  0
  -49.3555   56.1840   59.2632 H   0  0  0  0  0  0  0  0  0  0  0  0
  -39.8643   59.6317   65.5401 C   0  0  0  0  0  0  0  0  0  0  0  0
  -41.1237   59.4171   66.3886 C   0  0  0  0  0  0  0  0  0  0  0  0
  -38.6310   60.2036   66.2595 C   0  0  0  0  0  0  0  0  0  0  0  0
  -37.2783   60.1283   65.5219 C   0  0  0  0  0  0  0  0  0  0  0  0
  -37.1105   61.3586   64.7423 N   0  0  0  0  0  0  0  0  0  0  0  0
  -36.3130   62.4300   64.9950 C   0  0  0  0  0  0  0  0  0  0  0  0
  -37.8936   61.4068   63.5805 O   0  0  0  0  0  0  0  0  0  0  0  0
  -36.2842   63.3964   64.2334 O   0  0  0  0  0  0  0  0  0  0  0  0
  -37.7331   62.2435   63.1167 H   0  0  0  0  0  0  0  0  0  0  0  0
  -35.4338   62.4207   66.2499 C   0  0  0  0  0  0  0  0  0  0  0  0
  -33.9631   62.0645   65.9931 C   0  0  0  0  0  0  0  0  0  0  0  0
  -33.0444   62.9820   66.8227 C   0  0  0  0  0  0  0  0  0  0  0  0
  -32.2426   63.9833   65.9698 C   0  0  0  0  0  0  0  0  0  0  0  0
  -33.0697   65.1565   65.4113 C   0  0  0  0  0  0  0  0  0  0  0  0
  -32.6545   65.5556   63.9797 C   0  0  0  0  0  0  0  0  0  0  0  0
  -33.5643   64.9873   62.8657 C   0  0  0  0  0  0  0  0  0  0  0  0
  -33.2233   63.5440   62.4770 C   0  0  0  0  0  0  0  0  0  0  0  0
  -31.8274   63.3382   61.8803 C   0  0  0  0  0  0  0  0  0  0  0  0
  -31.1376   62.0996   62.4807 C   0  0  0  0  0  0  0  0  0  0  0  0
  -32.1078   60.9741   62.8704 C   0  0  0  0  0  0  0  0  0  0  0  0
  -31.5346   59.5541   62.8206 C   0  0  0  0  0  0  0  0  0  0  0  0
  -32.3052   58.5263   63.6862 C   0  0  0  0  0  0  0  0  0  0  0  0
  -33.3816   57.7892   62.8639 C   0  0  0  0  0  0  0  0  0  0  0  0
  -34.7805   58.4159   62.8210 C   0  0  0  0  0  0  0  0  0  0  0  0
 46 47  1  0  0  0
 46 48  1  0  0  0
 46 45  1  0  0  0
 47 49  2  0  0  0
 47 51  1  0  0  0
 19 20  2  0  0  0
 37 38  1  0  0  0
 37 39  1  0  0  0
 37 40  1  0  0  0
 37 41  1  0  0  0
 48 50  1  0  0  0
 38 29  1  0  0  0
 45 44  1  0  0  0
 25 27  1  0  0  0
 25 35  1  0  0  0
 25 28  1  0  0  0
 21 20  1  0  0  0
 21 22  1  0  0  0
 44 42  1  0  0  0
  2  1  1  0  0  0
  2  4  1  0  0  0
  2  5  1  0  0  0
 26 27  2  0  0  0
 42 43  2  0  0  0
 29 31  1  0  0  0
 29 36  1  0  0  0
  3  4  2  0  0  0
 43  1  1  0  0  0
  6  9  2  0  0  0
  6 10  1  0  0  0
  1 20  1  0  0  0
 30 36  2  0  0  0
  7  8  1  0  0  0
  7  9  1  0  0  0
 22 24  1  0  0  0
 22 23  1  0  0  0
 11 12  1  0  0  0
 11 18  1  0  0  0
 24 27  1  0  0  0
  4 10  1  0  0  0
 51 52  1  0  0  0
 52 53  1  0  0  0
 53 54  1  0  0  0
 54 55  1  0  0  0
 55 56  1  0  0  0
 56 57  1  0  0  0
 57 58  1  0  0  0
 58 59  1  0  0  0
 59 60  1  0  0  0
 60 61  1  0  0  0
 61 62  1  0  0  0
 62 63  1  0  0  0
 63 64  1  0  0  0
 64 65  1  0  0  0
 31 32  1  0  0  0
 32 33  1  0  0  0
 33 34  1  0  0  0
 34 35  1  0  0  0
 35 36  1  0  0  0
  8 10  1  0  0  0
  9 17  1  0  0  0
 12 13  2  0  0  0
 12 17  1  0  0  0
 13 14  1  0  0  0
 14 15  2  0  0  0
 15 16  1  0  0  0
 16 17  2  0  0  0
M  END
> <minimizedAffinity>
-8.92432

> <CNNscore>
0.1652794778

> <CNNaffinity>
7.3886260986

> <CNN_VS>
1.2211883068

> <CNNaffinity_variance>
0.4608104229

$$$$
/media/chris/experiments/cd1a-new-docking/inputs/ligands/1xz0_ligand.pdb


 65 67  0  0  0  0  0  0  0  0999 V2000
  -39.3346   60.0914   63.9284 C   0  0  0  0  0  0  0  0  0  0  0  0
  -38.3678   61.0725   64.4252 N   0  0  0  0  0  0  0  0  0  0  0  0
  -37.5565   60.0854   66.3067 O   0  0  0  0  0  0  0  0  0  0  0  0
  -37.5833   61.0189   65.5156 C   0  0  0  0  0  0  0  0  0  0  0  0
  -38.2796   61.8891   63.8824 H   0  0  0  0  0  0  0  0  0  0  0  0
  -36.5575   63.1248   64.6830 N   0  0  0  0  0  0  0  0  0  0  0  0
  -34.4826   62.8522   65.4655 O   0  0  0  0  0  0  0  0  0  0  0  0
  -35.2884   62.0735   66.3489 C   0  0  0  0  0  0  0  0  0  0  0  0
  -35.3510   63.4393   64.4759 C   0  0  0  0  0  0  0  0  0  0  0  0
  -36.7508   62.2473   65.8532 C   0  0  0  0  0  0  0  0  0  0  0  0
  -36.3968   63.4649   61.7735 O   0  0  0  0  0  0  0  0  0  0  0  0
  -35.4283   64.3299   62.0987 C   0  0  0  0  0  0  0  0  0  0  0  0
  -34.9555   65.2336   61.1382 C   0  0  0  0  0  0  0  0  0  0  0  0
  -33.9331   66.1449   61.4519 C   0  0  0  0  0  0  0  0  0  0  0  0
  -33.3789   66.1698   62.7328 C   0  0  0  0  0  0  0  0  0  0  0  0
  -33.8516   65.2746   63.6965 C   0  0  0  0  0  0  0  0  0  0  0  0
  -34.8699   64.3541   63.3825 C   0  0  0  0  0  0  0  0  0  0  0  0
  -36.7555   63.4670   60.9080 H   0  0  0  0  0  0  0  0  0  0  0  0
  -40.3434   60.4310   61.7831 O   0  0  0  0  0  0  0  0  0  0  0  0
  -39.3244   60.2091   62.4161 C   0  0  0  0  0  0  0  0  0  0  0  0
  -38.0782   59.9868   61.6753 O   0  0  0  0  0  0  0  0  0  0  0  0
  -37.7873   58.7165   61.0625 C   0  0  0  0  0  0  0  0  0  0  0  0
  -38.9263   58.1394   60.2312 C   0  0  0  0  0  0  0  0  0  0  0  0
  -37.3567   57.7461   62.1522 C   0  0  0  0  0  0  0  0  0  0  0  0
  -35.5058   59.2840   62.6054 N   0  0  0  0  0  0  0  0  0  0  0  0
  -36.3134   57.9167   64.2160 O   0  0  0  0  0  0  0  0  0  0  0  0
  -36.3073   58.3165   63.0741 C   0  0  0  0  0  0  0  0  0  0  0  0
  -35.5897   59.5273   61.6552 H   0  0  0  0  0  0  0  0  0  0  0  0
  -32.4099   59.6000   62.1929 N   0  0  0  0  0  0  0  0  0  0  0  0
  -33.1328   61.7052   62.5255 O   0  0  0  0  0  0  0  0  0  0  0  0
  -32.6379   58.1524   62.0724 C   0  0  0  0  0  0  0  0  0  0  0  0
  -32.7279   57.4971   63.4634 C   0  0  0  0  0  0  0  0  0  0  0  0
  -32.7517   58.4640   64.6358 C   0  0  0  0  0  0  0  0  0  0  0  0
  -34.0286   59.3069   64.6906 C   0  0  0  0  0  0  0  0  0  0  0  0
  -34.5126   60.0057   63.4090 C   0  0  0  0  0  0  0  0  0  0  0  0
  -33.2936   60.4993   62.6546 C   0  0  0  0  0  0  0  0  0  0  0  0
  -30.9395   60.5905   60.0999 Si  0  0  0  0  0  0  0  0  0  0  0  0
  -31.1965   60.0718   61.7913 O   0  0  0  0  0  0  0  0  0  0  0  0
  -29.6010   61.0371   59.9401 H   0  0  0  0  0  0  0  0  0  0  0  0
  -31.8324   61.6500   59.7888 H   0  0  0  0  0  0  0  0  0  0  0  0
  -31.1807   59.4965   59.2275 H   0  0  0  0  0  0  0  0  0  0  0  0
  -40.9840   59.2602   65.7945 C   0  0  0  0  0  0  0  0  0  0  0  0
  -40.7551   60.1163   64.5429 C   0  0  0  0  0  0  0  0  0  0  0  0
  -42.4427   58.9292   66.1527 C   0  0  0  0  0  0  0  0  0  0  0  0
  -43.4269   58.6991   64.9874 C   0  0  0  0  0  0  0  0  0  0  0  0
  -44.4267   57.7165   65.4172 N   0  0  0  0  0  0  0  0  0  0  0  0
  -45.7178   57.9169   65.7922 C   0  0  0  0  0  0  0  0  0  0  0  0
  -43.9562   56.3960   65.4324 O   0  0  0  0  0  0  0  0  0  0  0  0
  -46.4367   56.9763   66.1289 O   0  0  0  0  0  0  0  0  0  0  0  0
  -44.6660   55.8030   65.7248 H   0  0  0  0  0  0  0  0  0  0  0  0
  -46.2793   59.3426   65.7857 C   0  0  0  0  0  0  0  0  0  0  0  0
  -47.3505   59.5990   64.7169 C   0  0  0  0  0  0  0  0  0  0  0  0
  -48.7432   59.6747   65.3717 C   0  0  0  0  0  0  0  0  0  0  0  0
  -49.5840   58.3986   65.1780 C   0  0  0  0  0  0  0  0  0  0  0  0
  -50.1110   58.1888   63.7460 C   0  0  0  0  0  0  0  0  0  0  0  0
  -51.1257   59.2688   63.3157 C   0  0  0  0  0  0  0  0  0  0  0  0
  -50.5960   60.2602   62.2536 C   0  0  0  0  0  0  0  0  0  0  0  0
  -49.3429   59.7612   61.5248 C   0  0  0  0  0  0  0  0  0  0  0  0
  -49.5454   59.3886   60.0527 C   0  0  0  0  0  0  0  0  0  0  0  0
  -50.1322   57.9725   59.9079 C   0  0  0  0  0  0  0  0  0  0  0  0
  -49.2073   56.8596   60.4234 C   0  0  0  0  0  0  0  0  0  0  0  0
  -48.4768   56.0496   59.3475 C   0  0  0  0  0  0  0  0  0  0  0  0
  -47.1905   56.7232   58.8078 C   0  0  0  0  0  0  0  0  0  0  0  0
  -47.2983   57.0189   57.2980 C   0  0  0  0  0  0  0  0  0  0  0  0
  -47.2709   58.4910   56.8696 C   0  0  0  0  0  0  0  0  0  0  0  0
 46 47  1  0  0  0
 46 48  1  0  0  0
 46 45  1  0  0  0
 47 49  2  0  0  0
 47 51  1  0  0  0
 19 20  2  0  0  0
 37 38  1  0  0  0
 37 39  1  0  0  0
 37 40  1  0  0  0
 37 41  1  0  0  0
 48 50  1  0  0  0
 38 29  1  0  0  0
 45 44  1  0  0  0
 25 27  1  0  0  0
 25 35  1  0  0  0
 25 28  1  0  0  0
 21 20  1  0  0  0
 21 22  1  0  0  0
 44 42  1  0  0  0
  2  1  1  0  0  0
  2  4  1  0  0  0
  2  5  1  0  0  0
 26 27  2  0  0  0
 42 43  2  0  0  0
 29 31  1  0  0  0
 29 36  1  0  0  0
  3  4  2  0  0  0
 43  1  1  0  0  0
  6  9  2  0  0  0
  6 10  1  0  0  0
  1 20  1  0  0  0
 30 36  2  0  0  0
  7  8  1  0  0  0
  7  9  1  0  0  0
 22 24  1  0  0  0
 22 23  1  0  0  0
 11 12  1  0  0  0
 11 18  1  0  0  0
 24 27  1  0  0  0
  4 10  1  0  0  0
 51 52  1  0  0  0
 52 53  1  0  0  0
 53 54  1  0  0  0
 54 55  1  0  0  0
 55 56  1  0  0  0
 56 57  1  0  0  0
 57 58  1  0  0  0
 58 59  1  0  0  0
 59 60  1  0  0  0
 60 61  1  0  0  0
 61 62  1  0  0  0
 62 63  1  0  0  0
 63 64  1  0  0  0
 64 65  1  0  0  0
 31 32  1  0  0  0
 32 33  1  0  0  0
 33 34  1  0  0  0
 34 35  1  0  0  0
 35 36  1  0  0  0
  8 10  1  0  0  0
  9 17  1  0  0  0
 12 13  2  0  0  0
 12 17  1  0  0  0
 13 14  1  0  0  0
 14 15  2  0  0  0
 15 16  1  0  0  0
 16 17  2  0  0  0
M  END
> <minimizedAffinity>
-9.60594

> <CNNscore>
0.1636912972

> <CNNaffinity>
7.0265645981

> <CNN_VS>
1.1501874924

> <CNNaffinity_variance>
0.5448097587

$$$$
/media/chris/experiments/cd1a-new-docking/inputs/ligands/1xz0_ligand.pdb


 65 67  0  0  0  0  0  0  0  0999 V2000
  -39.9885   58.6706   63.3769 C   0  0  0  0  0  0  0  0  0  0  0  0
  -38.7392   58.7198   64.1390 N   0  0  0  0  0  0  0  0  0  0  0  0
  -37.3977   57.2645   63.0185 O   0  0  0  0  0  0  0  0  0  0  0  0
  -37.5879   58.0574   63.9313 C   0  0  0  0  0  0  0  0  0  0  0  0
  -38.7428   59.3252   64.9153 H   0  0  0  0  0  0  0  0  0  0  0  0
  -36.4224   59.5883   65.5056 N   0  0  0  0  0  0  0  0  0  0  0  0
  -34.3085   59.1889   64.9024 O   0  0  0  0  0  0  0  0  0  0  0  0
  -35.0005   57.9938   64.5429 C   0  0  0  0  0  0  0  0  0  0  0  0
  -35.2691   60.1037   65.4668 C   0  0  0  0  0  0  0  0  0  0  0  0
  -36.4799   58.2178   64.9621 C   0  0  0  0  0  0  0  0  0  0  0  0
  -37.1381   62.3009   65.7426 O   0  0  0  0  0  0  0  0  0  0  0  0
  -35.8662   62.4851   66.1168 C   0  0  0  0  0  0  0  0  0  0  0  0
  -35.4716   63.7213   66.6450 C   0  0  0  0  0  0  0  0  0  0  0  0
  -34.1404   63.9428   67.0362 C   0  0  0  0  0  0  0  0  0  0  0  0
  -33.1907   62.9273   66.9129 C   0  0  0  0  0  0  0  0  0  0  0  0
  -33.5807   61.6901   66.3923 C   0  0  0  0  0  0  0  0  0  0  0  0
  -34.9120   61.4680   65.9913 C   0  0  0  0  0  0  0  0  0  0  0  0
  -37.7593   62.9961   65.8359 H   0  0  0  0  0  0  0  0  0  0  0  0
  -41.0254   60.2442   61.8990 O   0  0  0  0  0  0  0  0  0  0  0  0
  -40.1158   60.0108   62.6777 C   0  0  0  0  0  0  0  0  0  0  0  0
  -39.0905   61.0398   62.8804 O   0  0  0  0  0  0  0  0  0  0  0  0
  -38.0276   61.2361   61.9288 C   0  0  0  0  0  0  0  0  0  0  0  0
  -37.9119   60.1417   60.8750 C   0  0  0  0  0  0  0  0  0  0  0  0
  -36.7233   61.4011   62.6943 C   0  0  0  0  0  0  0  0  0  0  0  0
  -34.7360   62.8284   62.7929 N   0  0  0  0  0  0  0  0  0  0  0  0
  -36.5771   63.4623   61.6423 O   0  0  0  0  0  0  0  0  0  0  0  0
  -35.9964   62.6802   62.3596 C   0  0  0  0  0  0  0  0  0  0  0  0
  -34.3664   62.1252   63.3744 H   0  0  0  0  0  0  0  0  0  0  0  0
  -31.9616   62.8978   61.3256 N   0  0  0  0  0  0  0  0  0  0  0  0
  -33.1822   64.4578   60.2571 O   0  0  0  0  0  0  0  0  0  0  0  0
  -31.7911   61.8650   62.3583 C   0  0  0  0  0  0  0  0  0  0  0  0
  -31.4680   62.5054   63.7214 C   0  0  0  0  0  0  0  0  0  0  0  0
  -31.5724   64.0209   63.7674 C   0  0  0  0  0  0  0  0  0  0  0  0
  -33.0081   64.5272   63.6047 C   0  0  0  0  0  0  0  0  0  0  0  0
  -33.8688   63.9646   62.4612 C   0  0  0  0  0  0  0  0  0  0  0  0
  -32.9755   63.7749   61.2509 C   0  0  0  0  0  0  0  0  0  0  0  0
  -30.8847   64.4064   59.3038 Si  0  0  0  0  0  0  0  0  0  0  0  0
  -31.0106   62.9640   60.3524 O   0  0  0  0  0  0  0  0  0  0  0  0
  -29.8222   64.2277   58.3787 H   0  0  0  0  0  0  0  0  0  0  0  0
  -30.6287   65.5519   60.1030 H   0  0  0  0  0  0  0  0  0  0  0  0
  -32.1029   64.5853   58.5966 H   0  0  0  0  0  0  0  0  0  0  0  0
  -41.6647   59.0798   65.3560 C   0  0  0  0  0  0  0  0  0  0  0  0
  -41.2689   58.2420   64.1340 C   0  0  0  0  0  0  0  0  0  0  0  0
  -42.6442   58.4361   66.3520 C   0  0  0  0  0  0  0  0  0  0  0  0
  -44.0883   58.9776   66.3807 C   0  0  0  0  0  0  0  0  0  0  0  0
  -45.0069   57.8465   66.2183 N   0  0  0  0  0  0  0  0  0  0  0  0
  -46.3537   57.8050   66.3975 C   0  0  0  0  0  0  0  0  0  0  0  0
  -44.3797   56.6570   65.8218 O   0  0  0  0  0  0  0  0  0  0  0  0
  -46.9885   56.7659   66.2179 O   0  0  0  0  0  0  0  0  0  0  0  0
  -45.0433   55.9550   65.7343 H   0  0  0  0  0  0  0  0  0  0  0  0
  -47.0849   59.0820   66.8247 C   0  0  0  0  0  0  0  0  0  0  0  0
  -47.4274   60.0346   65.6711 C   0  0  0  0  0  0  0  0  0  0  0  0
  -48.8492   60.5988   65.8558 C   0  0  0  0  0  0  0  0  0  0  0  0
  -49.9508   59.5241   65.7898 C   0  0  0  0  0  0  0  0  0  0  0  0
  -51.2635   59.9906   65.1330 C   0  0  0  0  0  0  0  0  0  0  0  0
  -51.0336   60.9608   63.9553 C   0  0  0  0  0  0  0  0  0  0  0  0
  -51.0312   60.2897   62.5620 C   0  0  0  0  0  0  0  0  0  0  0  0
  -51.5289   58.8397   62.5827 C   0  0  0  0  0  0  0  0  0  0  0  0
  -50.4934   57.7854   62.1790 C   0  0  0  0  0  0  0  0  0  0  0  0
  -50.5150   57.5303   60.6608 C   0  0  0  0  0  0  0  0  0  0  0  0
  -49.5711   56.4075   60.2046 C   0  0  0  0  0  0  0  0  0  0  0  0
  -48.1328   56.8329   59.8917 C   0  0  0  0  0  0  0  0  0  0  0  0
  -47.4762   56.0485   58.7285 C   0  0  0  0  0  0  0  0  0  0  0  0
  -47.3585   56.9149   57.4581 C   0  0  0  0  0  0  0  0  0  0  0  0
  -47.6795   58.4079   57.5973 C   0  0  0  0  0  0  0  0  0  0  0  0
 46 47  1  0  0  0
 46 48  1  0  0  0
 46 45  1  0  0  0
 47 49  2  0  0  0
 47 51  1  0  0  0
 19 20  2  0  0  0
 37 38  1  0  0  0
 37 39  1  0  0  0
 37 40  1  0  0  0
 37 41  1  0  0  0
 48 50  1  0  0  0
 38 29  1  0  0  0
 45 44  1  0  0  0
 25 27  1  0  0  0
 25 35  1  0  0  0
 25 28  1  0  0  0
 21 20  1  0  0  0
 21 22  1  0  0  0
 44 42  1  0  0  0
  2  1  1  0  0  0
  2  4  1  0  0  0
  2  5  1  0  0  0
 26 27  2  0  0  0
 42 43  2  0  0  0
 29 31  1  0  0  0
 29 36  1  0  0  0
  3  4  2  0  0  0
 43  1  1  0  0  0
  6  9  2  0  0  0
  6 10  1  0  0  0
  1 20  1  0  0  0
 30 36  2  0  0  0
  7  8  1  0  0  0
  7  9  1  0  0  0
 22 24  1  0  0  0
 22 23  1  0  0  0
 11 12  1  0  0  0
 11 18  1  0  0  0
 24 27  1  0  0  0
  4 10  1  0  0  0
 51 52  1  0  0  0
 52 53  1  0  0  0
 53 54  1  0  0  0
 54 55  1  0  0  0
 55 56  1  0  0  0
 56 57  1  0  0  0
 57 58  1  0  0  0
 58 59  1  0  0  0
 59 60  1  0  0  0
 60 61  1  0  0  0
 61 62  1  0  0  0
 62 63  1  0  0  0
 63 64  1  0  0  0
 64 65  1  0  0  0
 31 32  1  0  0  0
 32 33  1  0  0  0
 33 34  1  0  0  0
 34 35  1  0  0  0
 35 36  1  0  0  0
  8 10  1  0  0  0
  9 17  1  0  0  0
 12 13  2  0  0  0
 12 17  1  0  0  0
 13 14  1  0  0  0
 14 15  2  0  0  0
 15 16  1  0  0  0
 16 17  2  0  0  0
M  END
> <minimizedAffinity>
-9.38553

> <CNNscore>
0.1580591053

> <CNNaffinity>
6.9259872437

> <CNN_VS>
1.0947153568

> <CNNaffinity_variance>
0.1436057538

$$$$
/media/chris/experiments/cd1a-new-docking/inputs/ligands/1xz0_ligand.pdb


 65 67  0  0  0  0  0  0  0  0999 V2000
  -42.0525   59.4887   62.5205 C   0  0  0  0  0  0  0  0  0  0  0  0
  -40.7757   59.0751   61.9350 N   0  0  0  0  0  0  0  0  0  0  0  0
  -41.4135   57.8084   60.1570 O   0  0  0  0  0  0  0  0  0  0  0  0
  -40.5419   58.3080   60.8561 C   0  0  0  0  0  0  0  0  0  0  0  0
  -39.9727   59.4066   62.3983 H   0  0  0  0  0  0  0  0  0  0  0  0
  -38.3423   57.5799   61.7572 N   0  0  0  0  0  0  0  0  0  0  0  0
  -37.0267   59.0917   60.7693 O   0  0  0  0  0  0  0  0  0  0  0  0
  -38.1576   59.0018   59.9037 C   0  0  0  0  0  0  0  0  0  0  0  0
  -37.2455   58.1963   61.8777 C   0  0  0  0  0  0  0  0  0  0  0  0
  -39.0980   57.9428   60.5431 C   0  0  0  0  0  0  0  0  0  0  0  0
  -34.5320   59.2131   61.8739 O   0  0  0  0  0  0  0  0  0  0  0  0
  -34.9613   58.5246   62.9384 C   0  0  0  0  0  0  0  0  0  0  0  0
  -34.1022   58.3253   64.0271 C   0  0  0  0  0  0  0  0  0  0  0  0
  -34.5259   57.5980   65.1521 C   0  0  0  0  0  0  0  0  0  0  0  0
  -35.8170   57.0702   65.2056 C   0  0  0  0  0  0  0  0  0  0  0  0
  -36.6801   57.2716   64.1248 C   0  0  0  0  0  0  0  0  0  0  0  0
  -36.2554   57.9925   62.9923 C   0  0  0  0  0  0  0  0  0  0  0  0
  -33.6616   59.5600   61.8601 H   0  0  0  0  0  0  0  0  0  0  0  0
  -42.3815   61.8244   62.9348 O   0  0  0  0  0  0  0  0  0  0  0  0
  -41.7899   60.8006   63.2353 C   0  0  0  0  0  0  0  0  0  0  0  0
  -40.7539   60.8728   64.2709 O   0  0  0  0  0  0  0  0  0  0  0  0
  -40.3691   59.7098   65.0281 C   0  0  0  0  0  0  0  0  0  0  0  0
  -41.0321   59.5974   66.3954 C   0  0  0  0  0  0  0  0  0  0  0  0
  -38.8527   59.6978   65.1507 C   0  0  0  0  0  0  0  0  0  0  0  0
  -37.2711   61.5652   65.0645 N   0  0  0  0  0  0  0  0  0  0  0  0
  -38.4705   60.9615   63.2445 O   0  0  0  0  0  0  0  0  0  0  0  0
  -38.1886   60.8348   64.4141 C   0  0  0  0  0  0  0  0  0  0  0  0
  -37.1257   61.3726   66.0189 H   0  0  0  0  0  0  0  0  0  0  0  0
  -34.1704   61.7606   64.6147 N   0  0  0  0  0  0  0  0  0  0  0  0
  -35.0457   62.2707   62.6049 O   0  0  0  0  0  0  0  0  0  0  0  0
  -34.3006   61.3863   66.0306 C   0  0  0  0  0  0  0  0  0  0  0  0
  -34.5946   62.6254   66.8971 C   0  0  0  0  0  0  0  0  0  0  0  0
  -34.8685   63.9061   66.1260 C   0  0  0  0  0  0  0  0  0  0  0  0
  -36.1769   63.8590   65.3325 C   0  0  0  0  0  0  0  0  0  0  0  0
  -36.4686   62.6311   64.4538 C   0  0  0  0  0  0  0  0  0  0  0  0
  -35.1648   62.1873   63.8197 C   0  0  0  0  0  0  0  0  0  0  0  0
  -32.6545   60.5773   62.6587 Si  0  0  0  0  0  0  0  0  0  0  0  0
  -32.9317   61.6558   64.0573 O   0  0  0  0  0  0  0  0  0  0  0  0
  -31.2907   60.6480   62.2696 H   0  0  0  0  0  0  0  0  0  0  0  0
  -33.4774   60.9854   61.5758 H   0  0  0  0  0  0  0  0  0  0  0  0
  -32.9751   59.2420   63.0199 H   0  0  0  0  0  0  0  0  0  0  0  0
  -44.0015   58.9672   64.2007 C   0  0  0  0  0  0  0  0  0  0  0  0
  -42.8092   58.4517   63.3855 C   0  0  0  0  0  0  0  0  0  0  0  0
  -44.4782   58.0859   65.3677 C   0  0  0  0  0  0  0  0  0  0  0  0
  -45.6473   58.6121   66.2255 C   0  0  0  0  0  0  0  0  0  0  0  0
  -46.8474   57.8389   65.8912 N   0  0  0  0  0  0  0  0  0  0  0  0
  -47.9995   58.2578   65.3040 C   0  0  0  0  0  0  0  0  0  0  0  0
  -46.7644   56.4827   66.2365 O   0  0  0  0  0  0  0  0  0  0  0  0
  -48.9251   57.4759   65.0877 O   0  0  0  0  0  0  0  0  0  0  0  0
  -47.5882   56.0347   65.9881 H   0  0  0  0  0  0  0  0  0  0  0  0
  -48.1348   59.7304   64.9027 C   0  0  0  0  0  0  0  0  0  0  0  0
  -49.2478   60.4899   65.6376 C   0  0  0  0  0  0  0  0  0  0  0  0
  -50.3060   60.9811   64.6311 C   0  0  0  0  0  0  0  0  0  0  0  0
  -51.4168   59.9504   64.3543 C   0  0  0  0  0  0  0  0  0  0  0  0
  -51.5283   59.5070   62.8835 C   0  0  0  0  0  0  0  0  0  0  0  0
  -50.6513   60.3503   61.9343 C   0  0  0  0  0  0  0  0  0  0  0  0
  -49.3997   59.6180   61.3968 C   0  0  0  0  0  0  0  0  0  0  0  0
  -49.3820   59.4812   59.8699 C   0  0  0  0  0  0  0  0  0  0  0  0
  -49.8795   58.1381   59.3263 C   0  0  0  0  0  0  0  0  0  0  0  0
  -49.5292   56.9819   60.2808 C   0  0  0  0  0  0  0  0  0  0  0  0
  -48.5856   55.9346   59.6704 C   0  0  0  0  0  0  0  0  0  0  0  0
  -47.4538   56.4866   58.7977 C   0  0  0  0  0  0  0  0  0  0  0  0
  -47.5100   56.0292   57.3187 C   0  0  0  0  0  0  0  0  0  0  0  0
  -47.7751   57.2158   56.3700 C   0  0  0  0  0  0  0  0  0  0  0  0
  -47.1247   58.5573   56.7287 C   0  0  0  0  0  0  0  0  0  0  0  0
 46 47  1  0  0  0
 46 48  1  0  0  0
 46 45  1  0  0  0
 47 49  2  0  0  0
 47 51  1  0  0  0
 19 20  2  0  0  0
 37 38  1  0  0  0
 37 39  1  0  0  0
 37 40  1  0  0  0
 37 41  1  0  0  0
 48 50  1  0  0  0
 38 29  1  0  0  0
 45 44  1  0  0  0
 25 27  1  0  0  0
 25 35  1  0  0  0
 25 28  1  0  0  0
 21 20  1  0  0  0
 21 22  1  0  0  0
 44 42  1  0  0  0
  2  1  1  0  0  0
  2  4  1  0  0  0
  2  5  1  0  0  0
 26 27  2  0  0  0
 42 43  2  0  0  0
 29 31  1  0  0  0
 29 36  1  0  0  0
  3  4  2  0  0  0
 43  1  1  0  0  0
  6  9  2  0  0  0
  6 10  1  0  0  0
  1 20  1  0  0  0
 30 36  2  0  0  0
  7  8  1  0  0  0
  7  9  1  0  0  0
 22 24  1  0  0  0
 22 23  1  0  0  0
 11 12  1  0  0  0
 11 18  1  0  0  0
 24 27  1  0  0  0
  4 10  1  0  0  0
 51 52  1  0  0  0
 52 53  1  0  0  0
 53 54  1  0  0  0
 54 55  1  0  0  0
 55 56  1  0  0  0
 56 57  1  0  0  0
 57 58  1  0  0  0
 58 59  1  0  0  0
 59 60  1  0  0  0
 60 61  1  0  0  0
 61 62  1  0  0  0
 62 63  1  0  0  0
 63 64  1  0  0  0
 64 65  1  0  0  0
 31 32  1  0  0  0
 32 33  1  0  0  0
 33 34  1  0  0  0
 34 35  1  0  0  0
 35 36  1  0  0  0
  8 10  1  0  0  0
  9 17  1  0  0  0
 12 13  2  0  0  0
 12 17  1  0  0  0
 13 14  1  0  0  0
 14 15  2  0  0  0
 15 16  1  0  0  0
 16 17  2  0  0  0
M  END
> <minimizedAffinity>
-10.19035

> <CNNscore>
0.1544823498

> <CNNaffinity>
7.4864225388

> <CNN_VS>
1.1565201283

> <CNNaffinity_variance>
0.7826966047

$$$$
/media/chris/experiments/cd1a-new-docking/inputs/ligands/1xz0_ligand.pdb


 65 67  0  0  0  0  0  0  0  0999 V2000
  -41.0251   59.1335   64.6148 C   0  0  0  0  0  0  0  0  0  0  0  0
  -39.9758   58.6948   63.6925 N   0  0  0  0  0  0  0  0  0  0  0  0
  -41.1502   57.7202   62.0062 O   0  0  0  0  0  0  0  0  0  0  0  0
  -40.0888   58.0543   62.5159 C   0  0  0  0  0  0  0  0  0  0  0  0
  -39.0548   58.8983   63.9746 H   0  0  0  0  0  0  0  0  0  0  0  0
  -37.6609   57.5723   62.7459 N   0  0  0  0  0  0  0  0  0  0  0  0
  -36.8876   58.7755   61.0294 O   0  0  0  0  0  0  0  0  0  0  0  0
  -38.2316   58.4716   60.6586 C   0  0  0  0  0  0  0  0  0  0  0  0
  -36.6441   58.1947   62.3260 C   0  0  0  0  0  0  0  0  0  0  0  0
  -38.8087   57.6154   61.8199 C   0  0  0  0  0  0  0  0  0  0  0  0
  -36.3288   58.1493   65.2063 O   0  0  0  0  0  0  0  0  0  0  0  0
  -35.2354   58.2347   64.4389 C   0  0  0  0  0  0  0  0  0  0  0  0
  -33.9702   58.2836   65.0388 C   0  0  0  0  0  0  0  0  0  0  0  0
  -32.8078   58.3830   64.2557 C   0  0  0  0  0  0  0  0  0  0  0  0
  -32.8968   58.4245   62.8633 C   0  0  0  0  0  0  0  0  0  0  0  0
  -34.1563   58.3697   62.2597 C   0  0  0  0  0  0  0  0  0  0  0  0
  -35.3234   58.2790   63.0422 C   0  0  0  0  0  0  0  0  0  0  0  0
  -36.2455   58.1211   66.1391 H   0  0  0  0  0  0  0  0  0  0  0  0
  -41.0166   60.8809   66.2524 O   0  0  0  0  0  0  0  0  0  0  0  0
  -40.3653   60.0915   65.5883 C   0  0  0  0  0  0  0  0  0  0  0  0
  -38.9032   60.1292   65.6973 O   0  0  0  0  0  0  0  0  0  0  0  0
  -38.1382   61.2155   65.1418 C   0  0  0  0  0  0  0  0  0  0  0  0
  -37.7672   61.0424   63.6742 C   0  0  0  0  0  0  0  0  0  0  0  0
  -36.8992   61.4179   66.0011 C   0  0  0  0  0  0  0  0  0  0  0  0
  -35.0381   62.6713   65.0206 N   0  0  0  0  0  0  0  0  0  0  0  0
  -36.7423   63.7304   66.0643 O   0  0  0  0  0  0  0  0  0  0  0  0
  -36.1842   62.7154   65.7154 C   0  0  0  0  0  0  0  0  0  0  0  0
  -34.6757   61.7851   64.7915 H   0  0  0  0  0  0  0  0  0  0  0  0
  -33.8417   63.3695   62.2035 N   0  0  0  0  0  0  0  0  0  0  0  0
  -34.9818   65.2207   62.7852 O   0  0  0  0  0  0  0  0  0  0  0  0
  -33.3647   62.0030   62.4627 C   0  0  0  0  0  0  0  0  0  0  0  0
  -32.1214   62.0230   63.3718 C   0  0  0  0  0  0  0  0  0  0  0  0
  -31.7625   63.3817   63.9504 C   0  0  0  0  0  0  0  0  0  0  0  0
  -32.7962   63.8963   64.9556 C   0  0  0  0  0  0  0  0  0  0  0  0
  -34.2862   63.8509   64.5775 C   0  0  0  0  0  0  0  0  0  0  0  0
  -34.4071   64.1890   63.1045 C   0  0  0  0  0  0  0  0  0  0  0  0
  -35.0338   63.6584   59.7501 Si  0  0  0  0  0  0  0  0  0  0  0  0
  -33.7062   63.8426   60.9331 O   0  0  0  0  0  0  0  0  0  0  0  0
  -34.6453   64.2304   58.5099 H   0  0  0  0  0  0  0  0  0  0  0  0
  -36.1939   64.3194   60.2336 H   0  0  0  0  0  0  0  0  0  0  0  0
  -35.3166   62.2789   59.5671 H   0  0  0  0  0  0  0  0  0  0  0  0
  -43.3280   57.8923   64.8382 C   0  0  0  0  0  0  0  0  0  0  0  0
  -41.8736   58.0367   65.3027 C   0  0  0  0  0  0  0  0  0  0  0  0
  -44.2859   57.1400   65.7775 C   0  0  0  0  0  0  0  0  0  0  0  0
  -45.3744   57.9655   66.4938 C   0  0  0  0  0  0  0  0  0  0  0  0
  -46.6852   57.4522   66.0836 N   0  0  0  0  0  0  0  0  0  0  0  0
  -47.7804   58.1393   65.6641 C   0  0  0  0  0  0  0  0  0  0  0  0
  -46.7927   56.0556   66.1422 O   0  0  0  0  0  0  0  0  0  0  0  0
  -48.8175   57.5551   65.3508 O   0  0  0  0  0  0  0  0  0  0  0  0
  -47.6807   55.7874   65.8588 H   0  0  0  0  0  0  0  0  0  0  0  0
  -47.7092   59.6675   65.5775 C   0  0  0  0  0  0  0  0  0  0  0  0
  -47.1663   60.2042   64.2461 C   0  0  0  0  0  0  0  0  0  0  0  0
  -48.3275   60.6996   63.3628 C   0  0  0  0  0  0  0  0  0  0  0  0
  -49.6821   60.7431   64.0951 C   0  0  0  0  0  0  0  0  0  0  0  0
  -50.9128   60.7099   63.1697 C   0  0  0  0  0  0  0  0  0  0  0  0
  -51.4888   59.2899   62.9878 C   0  0  0  0  0  0  0  0  0  0  0  0
  -50.6714   58.3825   62.0391 C   0  0  0  0  0  0  0  0  0  0  0  0
  -50.1605   59.1096   60.7898 C   0  0  0  0  0  0  0  0  0  0  0  0
  -49.1779   58.3144   59.9243 C   0  0  0  0  0  0  0  0  0  0  0  0
  -49.5325   56.8163   59.9049 C   0  0  0  0  0  0  0  0  0  0  0  0
  -48.3251   55.8934   59.6808 C   0  0  0  0  0  0  0  0  0  0  0  0
  -47.3100   56.3673   58.6356 C   0  0  0  0  0  0  0  0  0  0  0  0
  -47.7008   56.0362   57.1736 C   0  0  0  0  0  0  0  0  0  0  0  0
  -47.9598   57.3167   56.3542 C   0  0  0  0  0  0  0  0  0  0  0  0
  -47.1568   58.5661   56.7359 C   0  0  0  0  0  0  0  0  0  0  0  0
 46 47  1  0  0  0
 46 48  1  0  0  0
 46 45  1  0  0  0
 47 49  2  0  0  0
 47 51  1  0  0  0
 19 20  2  0  0  0
 37 38  1  0  0  0
 37 39  1  0  0  0
 37 40  1  0  0  0
 37 41  1  0  0  0
 48 50  1  0  0  0
 38 29  1  0  0  0
 45 44  1  0  0  0
 25 27  1  0  0  0
 25 35  1  0  0  0
 25 28  1  0  0  0
 21 20  1  0  0  0
 21 22  1  0  0  0
 44 42  1  0  0  0
  2  1  1  0  0  0
  2  4  1  0  0  0
  2  5  1  0  0  0
 26 27  2  0  0  0
 42 43  2  0  0  0
 29 31  1  0  0  0
 29 36  1  0  0  0
  3  4  2  0  0  0
 43  1  1  0  0  0
  6  9  2  0  0  0
  6 10  1  0  0  0
  1 20  1  0  0  0
 30 36  2  0  0  0
  7  8  1  0  0  0
  7  9  1  0  0  0
 22 24  1  0  0  0
 22 23  1  0  0  0
 11 12  1  0  0  0
 11 18  1  0  0  0
 24 27  1  0  0  0
  4 10  1  0  0  0
 51 52  1  0  0  0
 52 53  1  0  0  0
 53 54  1  0  0  0
 54 55  1  0  0  0
 55 56  1  0  0  0
 56 57  1  0  0  0
 57 58  1  0  0  0
 58 59  1  0  0  0
 59 60  1  0  0  0
 60 61  1  0  0  0
 61 62  1  0  0  0
 62 63  1  0  0  0
 63 64  1  0  0  0
 64 65  1  0  0  0
 31 32  1  0  0  0
 32 33  1  0  0  0
 33 34  1  0  0  0
 34 35  1  0  0  0
 35 36  1  0  0  0
  8 10  1  0  0  0
  9 17  1  0  0  0
 12 13  2  0  0  0
 12 17  1  0  0  0
 13 14  1  0  0  0
 14 15  2  0  0  0
 15 16  1  0  0  0
 16 17  2  0  0  0
M  END
> <minimizedAffinity>
-10.21535

> <CNNscore>
0.1543104500

> <CNNaffinity>
7.0862822533

> <CNN_VS>
1.0934873819

> <CNNaffinity_variance>
0.7191531062

$$$$
/media/chris/experiments/cd1a-new-docking/inputs/ligands/1xz0_ligand.pdb


 65 67  0  0  0  0  0  0  0  0999 V2000
  -41.2832   58.0824   63.3375 C   0  0  0  0  0  0  0  0  0  0  0  0
  -39.9993   58.2979   64.0078 N   0  0  0  0  0  0  0  0  0  0  0  0
  -38.6217   56.8194   62.9643 O   0  0  0  0  0  0  0  0  0  0  0  0
  -38.8167   57.6940   63.7980 C   0  0  0  0  0  0  0  0  0  0  0  0
  -40.0027   58.9839   64.7140 H   0  0  0  0  0  0  0  0  0  0  0  0
  -36.5136   58.6066   64.0060 N   0  0  0  0  0  0  0  0  0  0  0  0
  -35.5933   56.9910   65.2449 O   0  0  0  0  0  0  0  0  0  0  0  0
  -36.9830   56.9173   65.5607 C   0  0  0  0  0  0  0  0  0  0  0  0
  -35.4149   58.0431   64.2757 C   0  0  0  0  0  0  0  0  0  0  0  0
  -37.6663   58.0403   64.7322 C   0  0  0  0  0  0  0  0  0  0  0  0
  -32.9801   58.2612   65.8317 O   0  0  0  0  0  0  0  0  0  0  0  0
  -32.9309   58.5133   64.5180 C   0  0  0  0  0  0  0  0  0  0  0  0
  -31.7098   58.8587   63.9241 C   0  0  0  0  0  0  0  0  0  0  0  0
  -31.6337   59.1372   62.5491 C   0  0  0  0  0  0  0  0  0  0  0  0
  -32.7760   59.0638   61.7502 C   0  0  0  0  0  0  0  0  0  0  0  0
  -33.9954   58.7135   62.3367 C   0  0  0  0  0  0  0  0  0  0  0  0
  -34.0765   58.4424   63.7160 C   0  0  0  0  0  0  0  0  0  0  0  0
  -32.2004   58.3149   66.3485 H   0  0  0  0  0  0  0  0  0  0  0  0
  -42.4121   59.2954   61.6085 O   0  0  0  0  0  0  0  0  0  0  0  0
  -41.4139   59.1818   62.3007 C   0  0  0  0  0  0  0  0  0  0  0  0
  -40.2942   60.0992   62.0647 O   0  0  0  0  0  0  0  0  0  0  0  0
  -39.4115   59.9303   60.9394 C   0  0  0  0  0  0  0  0  0  0  0  0
  -39.6032   58.6261   60.1753 C   0  0  0  0  0  0  0  0  0  0  0  0
  -37.9782   60.0744   61.4286 C   0  0  0  0  0  0  0  0  0  0  0  0
  -36.6629   61.7987   62.5656 N   0  0  0  0  0  0  0  0  0  0  0  0
  -38.7899   61.3476   63.1884 O   0  0  0  0  0  0  0  0  0  0  0  0
  -37.8197   61.1235   62.5013 C   0  0  0  0  0  0  0  0  0  0  0  0
  -35.9399   61.5269   61.9552 H   0  0  0  0  0  0  0  0  0  0  0  0
  -34.4652   64.0374   62.4497 N   0  0  0  0  0  0  0  0  0  0  0  0
  -36.3800   65.1706   62.7886 O   0  0  0  0  0  0  0  0  0  0  0  0
  -33.7112   62.7898   62.2579 C   0  0  0  0  0  0  0  0  0  0  0  0
  -33.4292   62.1098   63.6110 C   0  0  0  0  0  0  0  0  0  0  0  0
  -34.1208   62.7383   64.8095 C   0  0  0  0  0  0  0  0  0  0  0  0
  -35.6426   62.5736   64.7768 C   0  0  0  0  0  0  0  0  0  0  0  0
  -36.3987   62.9141   63.4817 C   0  0  0  0  0  0  0  0  0  0  0  0
  -35.7404   64.1301   62.8598 C   0  0  0  0  0  0  0  0  0  0  0  0
  -34.7281   66.6585   61.6852 Si  0  0  0  0  0  0  0  0  0  0  0  0
  -33.8144   65.2029   62.1777 O   0  0  0  0  0  0  0  0  0  0  0  0
  -33.8247   67.7311   61.4618 H   0  0  0  0  0  0  0  0  0  0  0  0
  -35.6410   67.0147   62.7128 H   0  0  0  0  0  0  0  0  0  0  0  0
  -35.4439   66.3859   60.4895 H   0  0  0  0  0  0  0  0  0  0  0  0
  -43.1163   59.1999   64.8491 C   0  0  0  0  0  0  0  0  0  0  0  0
  -42.5362   57.9213   64.2321 C   0  0  0  0  0  0  0  0  0  0  0  0
  -44.0568   59.0253   66.0535 C   0  0  0  0  0  0  0  0  0  0  0  0
  -45.5656   59.2399   65.8151 C   0  0  0  0  0  0  0  0  0  0  0  0
  -46.2302   57.9342   65.8709 N   0  0  0  0  0  0  0  0  0  0  0  0
  -47.5551   57.6435   65.7816 C   0  0  0  0  0  0  0  0  0  0  0  0
  -45.3509   56.8553   66.0393 O   0  0  0  0  0  0  0  0  0  0  0  0
  -47.9583   56.4824   65.8465 O   0  0  0  0  0  0  0  0  0  0  0  0
  -45.8560   56.0277   66.0674 H   0  0  0  0  0  0  0  0  0  0  0  0
  -48.5546   58.7891   65.5907 C   0  0  0  0  0  0  0  0  0  0  0  0
  -49.9995   58.3367   65.3393 C   0  0  0  0  0  0  0  0  0  0  0  0
  -50.8797   59.5510   64.9856 C   0  0  0  0  0  0  0  0  0  0  0  0
  -51.5512   59.4421   63.6036 C   0  0  0  0  0  0  0  0  0  0  0  0
  -51.0764   60.4862   62.5757 C   0  0  0  0  0  0  0  0  0  0  0  0
  -49.5528   60.4417   62.3349 C   0  0  0  0  0  0  0  0  0  0  0  0
  -49.0820   59.2918   61.4142 C   0  0  0  0  0  0  0  0  0  0  0  0
  -49.7657   59.2904   60.0420 C   0  0  0  0  0  0  0  0  0  0  0  0
  -50.4152   57.9642   59.6344 C   0  0  0  0  0  0  0  0  0  0  0  0
  -50.0453   56.8343   60.6126 C   0  0  0  0  0  0  0  0  0  0  0  0
  -48.8622   55.9713   60.1484 C   0  0  0  0  0  0  0  0  0  0  0  0
  -48.4868   56.0972   58.6683 C   0  0  0  0  0  0  0  0  0  0  0  0
  -47.1628   56.8589   58.4105 C   0  0  0  0  0  0  0  0  0  0  0  0
  -47.3839   58.0846   57.5011 C   0  0  0  0  0  0  0  0  0  0  0  0
  -47.7931   57.8134   56.0484 C   0  0  0  0  0  0  0  0  0  0  0  0
 46 47  1  0  0  0
 46 48  1  0  0  0
 46 45  1  0  0  0
 47 49  2  0  0  0
 47 51  1  0  0  0
 19 20  2  0  0  0
 37 38  1  0  0  0
 37 39  1  0  0  0
 37 40  1  0  0  0
 37 41  1  0  0  0
 48 50  1  0  0  0
 38 29  1  0  0  0
 45 44  1  0  0  0
 25 27  1  0  0  0
 25 35  1  0  0  0
 25 28  1  0  0  0
 21 20  1  0  0  0
 21 22  1  0  0  0
 44 42  1  0  0  0
  2  1  1  0  0  0
  2  4  1  0  0  0
  2  5  1  0  0  0
 26 27  2  0  0  0
 42 43  2  0  0  0
 29 31  1  0  0  0
 29 36  1  0  0  0
  3  4  2  0  0  0
 43  1  1  0  0  0
  6  9  2  0  0  0
  6 10  1  0  0  0
  1 20  1  0  0  0
 30 36  2  0  0  0
  7  8  1  0  0  0
  7  9  1  0  0  0
 22 24  1  0  0  0
 22 23  1  0  0  0
 11 12  1  0  0  0
 11 18  1  0  0  0
 24 27  1  0  0  0
  4 10  1  0  0  0
 51 52  1  0  0  0
 52 53  1  0  0  0
 53 54  1  0  0  0
 54 55  1  0  0  0
 55 56  1  0  0  0
 56 57  1  0  0  0
 57 58  1  0  0  0
 58 59  1  0  0  0
 59 60  1  0  0  0
 60 61  1  0  0  0
 61 62  1  0  0  0
 62 63  1  0  0  0
 63 64  1  0  0  0
 64 65  1  0  0  0
 31 32  1  0  0  0
 32 33  1  0  0  0
 33 34  1  0  0  0
 34 35  1  0  0  0
 35 36  1  0  0  0
  8 10  1  0  0  0
  9 17  1  0  0  0
 12 13  2  0  0  0
 12 17  1  0  0  0
 13 14  1  0  0  0
 14 15  2  0  0  0
 15 16  1  0  0  0
 16 17  2  0  0  0
M  END
> <minimizedAffinity>
-9.16627

> <CNNscore>
0.1430337429

> <CNNaffinity>
7.3320913315

> <CNN_VS>
1.0487364531

> <CNNaffinity_variance>
0.3657164872

$$$$
/media/chris/experiments/cd1a-new-docking/inputs/ligands/1xz0_ligand.pdb


 65 67  0  0  0  0  0  0  0  0999 V2000
  -38.6793   59.8817   65.2189 C   0  0  0  0  0  0  0  0  0  0  0  0
  -37.8451   60.8374   64.4875 N   0  0  0  0  0  0  0  0  0  0  0  0
  -36.5119   61.7036   66.1138 O   0  0  0  0  0  0  0  0  0  0  0  0
  -36.8711   61.6429   64.9453 C   0  0  0  0  0  0  0  0  0  0  0  0
  -38.0232   60.8988   63.5212 H   0  0  0  0  0  0  0  0  0  0  0  0
  -35.1965   61.9973   63.1424 N   0  0  0  0  0  0  0  0  0  0  0  0
  -34.1911   63.8284   63.9353 O   0  0  0  0  0  0  0  0  0  0  0  0
  -35.4973   63.8778   64.5080 C   0  0  0  0  0  0  0  0  0  0  0  0
  -34.1050   62.6344   63.1321 C   0  0  0  0  0  0  0  0  0  0  0  0
  -36.2447   62.6270   63.9680 C   0  0  0  0  0  0  0  0  0  0  0  0
  -32.5830   64.4479   61.4612 O   0  0  0  0  0  0  0  0  0  0  0  0
  -32.1803   63.1757   61.5659 C   0  0  0  0  0  0  0  0  0  0  0  0
  -31.0312   62.7545   60.8841 C   0  0  0  0  0  0  0  0  0  0  0  0
  -30.5933   61.4222   60.9702 C   0  0  0  0  0  0  0  0  0  0  0  0
  -31.2939   60.4982   61.7473 C   0  0  0  0  0  0  0  0  0  0  0  0
  -32.4374   60.9150   62.4345 C   0  0  0  0  0  0  0  0  0  0  0  0
  -32.8836   62.2473   62.3431 C   0  0  0  0  0  0  0  0  0  0  0  0
  -32.0964   65.0516   60.9352 H   0  0  0  0  0  0  0  0  0  0  0  0
  -37.3309   58.0526   65.9748 O   0  0  0  0  0  0  0  0  0  0  0  0
  -38.0054   58.5302   65.0774 C   0  0  0  0  0  0  0  0  0  0  0  0
  -38.1014   57.7958   63.8114 O   0  0  0  0  0  0  0  0  0  0  0  0
  -36.9388   57.5489   62.9984 C   0  0  0  0  0  0  0  0  0  0  0  0
  -35.7299   57.0272   63.7651 C   0  0  0  0  0  0  0  0  0  0  0  0
  -36.6011   58.8263   62.2443 C   0  0  0  0  0  0  0  0  0  0  0  0
  -38.5526   58.4221   60.8214 N   0  0  0  0  0  0  0  0  0  0  0  0
  -37.8847   60.5238   61.3236 O   0  0  0  0  0  0  0  0  0  0  0  0
  -37.7353   59.3248   61.3832 C   0  0  0  0  0  0  0  0  0  0  0  0
  -38.3305   57.4699   60.9363 H   0  0  0  0  0  0  0  0  0  0  0  0
  -41.5209   58.8202   61.7623 N   0  0  0  0  0  0  0  0  0  0  0  0
  -41.0991   60.6390   60.5055 O   0  0  0  0  0  0  0  0  0  0  0  0
  -41.1254   57.5400   62.3678 C   0  0  0  0  0  0  0  0  0  0  0  0
  -41.2462   56.3936   61.3462 C   0  0  0  0  0  0  0  0  0  0  0  0
  -41.5552   56.8238   59.9217 C   0  0  0  0  0  0  0  0  0  0  0  0
  -40.4084   57.6001   59.2688 C   0  0  0  0  0  0  0  0  0  0  0  0
  -39.7544   58.7536   60.0476 C   0  0  0  0  0  0  0  0  0  0  0  0
  -40.8437   59.4820   60.8102 C   0  0  0  0  0  0  0  0  0  0  0  0
  -43.2075   60.9762   61.5865 Si  0  0  0  0  0  0  0  0  0  0  0  0
  -42.6724   59.3904   62.2150 O   0  0  0  0  0  0  0  0  0  0  0  0
  -44.4265   61.3468   62.2135 H   0  0  0  0  0  0  0  0  0  0  0  0
  -43.4050   60.8870   60.1831 H   0  0  0  0  0  0  0  0  0  0  0  0
  -42.2161   61.9542   61.8638 H   0  0  0  0  0  0  0  0  0  0  0  0
  -41.1041   59.1188   65.8762 C   0  0  0  0  0  0  0  0  0  0  0  0
  -40.1918   59.8581   64.8899 C   0  0  0  0  0  0  0  0  0  0  0  0
  -42.4966   58.7131   65.3643 C   0  0  0  0  0  0  0  0  0  0  0  0
  -43.7044   59.0090   66.2771 C   0  0  0  0  0  0  0  0  0  0  0  0
  -44.6415   57.8857   66.1784 N   0  0  0  0  0  0  0  0  0  0  0  0
  -45.9776   57.8611   66.4274 C   0  0  0  0  0  0  0  0  0  0  0  0
  -44.0476   56.6842   65.7669 O   0  0  0  0  0  0  0  0  0  0  0  0
  -46.6313   56.8266   66.2954 O   0  0  0  0  0  0  0  0  0  0  0  0
  -44.7220   55.9883   65.7236 H   0  0  0  0  0  0  0  0  0  0  0  0
  -46.6728   59.1516   66.8736 C   0  0  0  0  0  0  0  0  0  0  0  0
  -47.4399   59.8782   65.7604 C   0  0  0  0  0  0  0  0  0  0  0  0
  -48.8419   60.2783   66.2587 C   0  0  0  0  0  0  0  0  0  0  0  0
  -49.9587   59.3324   65.7780 C   0  0  0  0  0  0  0  0  0  0  0  0
  -51.2235   60.0437   65.2615 C   0  0  0  0  0  0  0  0  0  0  0  0
  -51.1437   60.3959   63.7613 C   0  0  0  0  0  0  0  0  0  0  0  0
  -50.9059   59.1847   62.8295 C   0  0  0  0  0  0  0  0  0  0  0  0
  -49.5726   59.2480   62.0754 C   0  0  0  0  0  0  0  0  0  0  0  0
  -49.6855   59.4292   60.5583 C   0  0  0  0  0  0  0  0  0  0  0  0
  -50.0194   58.0995   59.8577 C   0  0  0  0  0  0  0  0  0  0  0  0
  -48.9632   57.0036   60.0659 C   0  0  0  0  0  0  0  0  0  0  0  0
  -47.7051   57.1185   59.1990 C   0  0  0  0  0  0  0  0  0  0  0  0
  -47.6391   56.0981   58.0354 C   0  0  0  0  0  0  0  0  0  0  0  0
  -47.2034   56.7710   56.7179 C   0  0  0  0  0  0  0  0  0  0  0  0
  -47.2533   58.3027   56.6646 C   0  0  0  0  0  0  0  0  0  0  0  0
 46 47  1  0  0  0
 46 48  1  0  0  0
 46 45  1  0  0  0
 47 49  2  0  0  0
 47 51  1  0  0  0
 19 20  2  0  0  0
 37 38  1  0  0  0
 37 39  1  0  0  0
 37 40  1  0  0  0
 37 41  1  0  0  0
 48 50  1  0  0  0
 38 29  1  0  0  0
 45 44  1  0  0  0
 25 27  1  0  0  0
 25 35  1  0  0  0
 25 28  1  0  0  0
 21 20  1  0  0  0
 21 22  1  0  0  0
 44 42  1  0  0  0
  2  1  1  0  0  0
  2  4  1  0  0  0
  2  5  1  0  0  0
 26 27  2  0  0  0
 42 43  2  0  0  0
 29 31  1  0  0  0
 29 36  1  0  0  0
  3  4  2  0  0  0
 43  1  1  0  0  0
  6  9  2  0  0  0
  6 10  1  0  0  0
  1 20  1  0  0  0
 30 36  2  0  0  0
  7  8  1  0  0  0
  7  9  1  0  0  0
 22 24  1  0  0  0
 22 23  1  0  0  0
 11 12  1  0  0  0
 11 18  1  0  0  0
 24 27  1  0  0  0
  4 10  1  0  0  0
 51 52  1  0  0  0
 52 53  1  0  0  0
 53 54  1  0  0  0
 54 55  1  0  0  0
 55 56  1  0  0  0
 56 57  1  0  0  0
 57 58  1  0  0  0
 58 59  1  0  0  0
 59 60  1  0  0  0
 60 61  1  0  0  0
 61 62  1  0  0  0
 62 63  1  0  0  0
 63 64  1  0  0  0
 64 65  1  0  0  0
 31 32  1  0  0  0
 32 33  1  0  0  0
 33 34  1  0  0  0
 34 35  1  0  0  0
 35 36  1  0  0  0
  8 10  1  0  0  0
  9 17  1  0  0  0
 12 13  2  0  0  0
 12 17  1  0  0  0
 13 14  1  0  0  0
 14 15  2  0  0  0
 15 16  1  0  0  0
 16 17  2  0  0  0
M  END
> <minimizedAffinity>
-10.45291

> <CNNscore>
0.1403094530

> <CNNaffinity>
7.4002494812

> <CNN_VS>
1.0383249521

> <CNNaffinity_variance>
1.1651608944

$$$$
