/media/chris/experiments/cd1a-new-docking/inputs/ligands/1xz0_ligand.pdb


 65 67  0  0  0  0  0  0  0  0999 V2000
  -36.1593   57.4873   62.6146 C   0  0  0  0  0  0  0  0  0  0  0  0
  -36.6294   57.2310   63.9774 N   0  0  0  0  0  0  0  0  0  0  0  0
  -37.4010   57.7906   66.0424 O   0  0  0  0  0  0  0  0  0  0  0  0
  -37.0339   58.1029   64.9173 C   0  0  0  0  0  0  0  0  0  0  0  0
  -36.6525   56.2834   64.2439 H   0  0  0  0  0  0  0  0  0  0  0  0
  -35.9897   60.3581   64.9820 N   0  0  0  0  0  0  0  0  0  0  0  0
  -37.7361   61.5462   65.7101 O   0  0  0  0  0  0  0  0  0  0  0  0
  -38.3306   60.4200   65.0662 C   0  0  0  0  0  0  0  0  0  0  0  0
  -36.3046   61.4046   65.6168 C   0  0  0  0  0  0  0  0  0  0  0  0
  -37.1491   59.5687   64.5244 C   0  0  0  0  0  0  0  0  0  0  0  0
  -36.9644   64.1564   66.2407 O   0  0  0  0  0  0  0  0  0  0  0  0
  -35.7151   63.7276   66.4572 C   0  0  0  0  0  0  0  0  0  0  0  0
  -34.7640   64.6064   66.9921 C   0  0  0  0  0  0  0  0  0  0  0  0
  -33.4436   64.1833   67.2198 C   0  0  0  0  0  0  0  0  0  0  0  0
  -33.0618   62.8734   66.9247 C   0  0  0  0  0  0  0  0  0  0  0  0
  -34.0085   61.9911   66.3968 C   0  0  0  0  0  0  0  0  0  0  0  0
  -35.3302   62.4147   66.1592 C   0  0  0  0  0  0  0  0  0  0  0  0
  -37.1992   65.0396   66.4478 H   0  0  0  0  0  0  0  0  0  0  0  0
  -33.8962   56.7121   62.7273 O   0  0  0  0  0  0  0  0  0  0  0  0
  -34.6559   57.6665   62.7075 C   0  0  0  0  0  0  0  0  0  0  0  0
  -34.0885   59.0119   62.8456 O   0  0  0  0  0  0  0  0  0  0  0  0
  -32.8818   59.2426   63.5968 C   0  0  0  0  0  0  0  0  0  0  0  0
  -32.9074   58.6954   65.0187 C   0  0  0  0  0  0  0  0  0  0  0  0
  -32.5898   60.7355   63.5884 C   0  0  0  0  0  0  0  0  0  0  0  0
  -33.0036   62.5242   61.9681 N   0  0  0  0  0  0  0  0  0  0  0  0
  -31.8459   60.6682   61.3932 O   0  0  0  0  0  0  0  0  0  0  0  0
  -32.4803   61.3111   62.1980 C   0  0  0  0  0  0  0  0  0  0  0  0
  -32.8712   62.9180   61.0755 H   0  0  0  0  0  0  0  0  0  0  0  0
  -34.9050   64.9898   61.5680 N   0  0  0  0  0  0  0  0  0  0  0  0
  -36.1022   63.5813   62.8519 O   0  0  0  0  0  0  0  0  0  0  0  0
  -33.6910   65.3534   60.8225 C   0  0  0  0  0  0  0  0  0  0  0  0
  -32.6136   65.9089   61.7729 C   0  0  0  0  0  0  0  0  0  0  0  0
  -32.9358   65.7986   63.2541 C   0  0  0  0  0  0  0  0  0  0  0  0
  -32.9663   64.3518   63.7539 C   0  0  0  0  0  0  0  0  0  0  0  0
  -33.7598   63.3060   62.9530 C   0  0  0  0  0  0  0  0  0  0  0  0
  -35.0201   63.9699   62.4337 C   0  0  0  0  0  0  0  0  0  0  0  0
  -36.8008   65.7763   59.7484 Si  0  0  0  0  0  0  0  0  0  0  0  0
  -36.0149   65.7503   61.3538 O   0  0  0  0  0  0  0  0  0  0  0  0
  -37.9281   66.6390   59.7871 H   0  0  0  0  0  0  0  0  0  0  0  0
  -37.2209   64.4638   59.4056 H   0  0  0  0  0  0  0  0  0  0  0  0
  -35.8779   66.2467   58.7771 H   0  0  0  0  0  0  0  0  0  0  0  0
  -38.1822   58.2330   61.1158 C   0  0  0  0  0  0  0  0  0  0  0  0
  -36.8690   58.6065   61.8145 C   0  0  0  0  0  0  0  0  0  0  0  0
  -38.6604   59.1663   59.9907 C   0  0  0  0  0  0  0  0  0  0  0  0
  -40.0158   59.8769   60.1835 C   0  0  0  0  0  0  0  0  0  0  0  0
  -40.9741   58.9030   60.7155 N   0  0  0  0  0  0  0  0  0  0  0  0
  -41.4793   58.7984   61.9730 C   0  0  0  0  0  0  0  0  0  0  0  0
  -41.4122   57.9628   59.7723 O   0  0  0  0  0  0  0  0  0  0  0  0
  -41.1567   59.5916   62.8571 O   0  0  0  0  0  0  0  0  0  0  0  0
  -42.0403   57.3535   60.1907 H   0  0  0  0  0  0  0  0  0  0  0  0
  -42.4627   57.6655   62.2855 C   0  0  0  0  0  0  0  0  0  0  0  0
  -41.9379   56.6262   63.2856 C   0  0  0  0  0  0  0  0  0  0  0  0
  -42.8608   56.5654   64.5179 C   0  0  0  0  0  0  0  0  0  0  0  0
  -42.5406   57.6348   65.5795 C   0  0  0  0  0  0  0  0  0  0  0  0
  -43.6738   58.6467   65.8326 C   0  0  0  0  0  0  0  0  0  0  0  0
  -45.0000   58.2449   65.1537 C   0  0  0  0  0  0  0  0  0  0  0  0
  -46.0682   57.6779   66.1175 C   0  0  0  0  0  0  0  0  0  0  0  0
  -47.4566   58.2983   65.9225 C   0  0  0  0  0  0  0  0  0  0  0  0
  -47.6659   59.6603   66.5919 C   0  0  0  0  0  0  0  0  0  0  0  0
  -49.0999   60.1772   66.3759 C   0  0  0  0  0  0  0  0  0  0  0  0
  -50.0460   59.1439   65.7459 C   0  0  0  0  0  0  0  0  0  0  0  0
  -51.0290   59.6890   64.7047 C   0  0  0  0  0  0  0  0  0  0  0  0
  -51.1061   58.8521   63.4034 C   0  0  0  0  0  0  0  0  0  0  0  0
  -49.8016   58.0668   63.1585 C   0  0  0  0  0  0  0  0  0  0  0  0
  -48.7112   58.7610   62.3336 C   0  0  0  0  0  0  0  0  0  0  0  0
 46 47  1  0  0  0
 46 48  1  0  0  0
 46 45  1  0  0  0
 47 49  2  0  0  0
 47 51  1  0  0  0
 19 20  2  0  0  0
 37 38  1  0  0  0
 37 39  1  0  0  0
 37 40  1  0  0  0
 37 41  1  0  0  0
 48 50  1  0  0  0
 38 29  1  0  0  0
 45 44  1  0  0  0
 25 27  1  0  0  0
 25 35  1  0  0  0
 25 28  1  0  0  0
 21 20  1  0  0  0
 21 22  1  0  0  0
 44 42  1  0  0  0
  2  1  1  0  0  0
  2  4  1  0  0  0
  2  5  1  0  0  0
 26 27  2  0  0  0
 42 43  2  0  0  0
 29 31  1  0  0  0
 29 36  1  0  0  0
  3  4  2  0  0  0
 43  1  1  0  0  0
  6  9  2  0  0  0
  6 10  1  0  0  0
  1 20  1  0  0  0
 30 36  2  0  0  0
  7  8  1  0  0  0
  7  9  1  0  0  0
 22 24  1  0  0  0
 22 23  1  0  0  0
 11 12  1  0  0  0
 11 18  1  0  0  0
 24 27  1  0  0  0
  4 10  1  0  0  0
 51 52  1  0  0  0
 52 53  1  0  0  0
 53 54  1  0  0  0
 54 55  1  0  0  0
 55 56  1  0  0  0
 56 57  1  0  0  0
 57 58  1  0  0  0
 58 59  1  0  0  0
 59 60  1  0  0  0
 60 61  1  0  0  0
 61 62  1  0  0  0
 62 63  1  0  0  0
 63 64  1  0  0  0
 64 65  1  0  0  0
 31 32  1  0  0  0
 32 33  1  0  0  0
 33 34  1  0  0  0
 34 35  1  0  0  0
 35 36  1  0  0  0
  8 10  1  0  0  0
  9 17  1  0  0  0
 12 13  2  0  0  0
 12 17  1  0  0  0
 13 14  1  0  0  0
 14 15  2  0  0  0
 15 16  1  0  0  0
 16 17  2  0  0  0
M  END
> <minimizedAffinity>
-9.00358

> <CNNscore>
0.2058784068

> <CNNaffinity>
7.1477899551

> <CNN_VS>
1.4715756178

> <CNNaffinity_variance>
1.6632661819

$$$$
/media/chris/experiments/cd1a-new-docking/inputs/ligands/1xz0_ligand.pdb


 65 67  0  0  0  0  0  0  0  0999 V2000
  -38.4165   60.9173   62.3855 C   0  0  0  0  0  0  0  0  0  0  0  0
  -37.8277   60.4473   61.1299 N   0  0  0  0  0  0  0  0  0  0  0  0
  -37.8113   59.3833   59.1198 O   0  0  0  0  0  0  0  0  0  0  0  0
  -38.3939   59.7433   60.1343 C   0  0  0  0  0  0  0  0  0  0  0  0
  -36.8806   60.6804   60.9954 H   0  0  0  0  0  0  0  0  0  0  0  0
  -40.2558   58.7879   61.4761 N   0  0  0  0  0  0  0  0  0  0  0  0
  -41.2198   57.5204   59.9090 O   0  0  0  0  0  0  0  0  0  0  0  0
  -40.5617   58.5454   59.1656 C   0  0  0  0  0  0  0  0  0  0  0  0
  -40.9579   57.7506   61.3077 C   0  0  0  0  0  0  0  0  0  0  0  0
  -39.8881   59.4676   60.2194 C   0  0  0  0  0  0  0  0  0  0  0  0
  -43.2415   58.4446   62.9511 O   0  0  0  0  0  0  0  0  0  0  0  0
  -42.6282   57.2733   63.1604 C   0  0  0  0  0  0  0  0  0  0  0  0
  -43.1093   56.4067   64.1506 C   0  0  0  0  0  0  0  0  0  0  0  0
  -42.4775   55.1759   64.3961 C   0  0  0  0  0  0  0  0  0  0  0  0
  -41.3635   54.7931   63.6470 C   0  0  0  0  0  0  0  0  0  0  0  0
  -40.8835   55.6513   62.6537 C   0  0  0  0  0  0  0  0  0  0  0  0
  -41.5092   56.8893   62.4114 C   0  0  0  0  0  0  0  0  0  0  0  0
  -43.9889   58.6804   63.4647 H   0  0  0  0  0  0  0  0  0  0  0  0
  -37.3536   62.0896   64.1830 O   0  0  0  0  0  0  0  0  0  0  0  0
  -37.4268   61.9011   62.9798 C   0  0  0  0  0  0  0  0  0  0  0  0
  -36.5752   62.7037   62.0956 O   0  0  0  0  0  0  0  0  0  0  0  0
  -35.7272   63.7453   62.6150 C   0  0  0  0  0  0  0  0  0  0  0  0
  -35.7710   65.0485   61.8268 C   0  0  0  0  0  0  0  0  0  0  0  0
  -34.3075   63.2067   62.7066 C   0  0  0  0  0  0  0  0  0  0  0  0
  -33.5599   61.4010   64.1820 N   0  0  0  0  0  0  0  0  0  0  0  0
  -33.9880   63.4705   64.9880 O   0  0  0  0  0  0  0  0  0  0  0  0
  -33.9610   62.6763   64.0759 C   0  0  0  0  0  0  0  0  0  0  0  0
  -33.2753   61.0832   65.0694 H   0  0  0  0  0  0  0  0  0  0  0  0
  -34.5960   58.4427   64.0092 N   0  0  0  0  0  0  0  0  0  0  0  0
  -35.4458   59.4259   62.1716 O   0  0  0  0  0  0  0  0  0  0  0  0
  -33.8033   58.4692   65.2472 C   0  0  0  0  0  0  0  0  0  0  0  0
  -32.3020   58.3197   64.9365 C   0  0  0  0  0  0  0  0  0  0  0  0
  -31.9372   58.3633   63.4618 C   0  0  0  0  0  0  0  0  0  0  0  0
  -32.1725   59.7366   62.8273 C   0  0  0  0  0  0  0  0  0  0  0  0
  -33.5153   60.4460   63.0689 C   0  0  0  0  0  0  0  0  0  0  0  0
  -34.6087   59.3957   63.0633 C   0  0  0  0  0  0  0  0  0  0  0  0
  -36.4333   57.2525   62.3565 Si  0  0  0  0  0  0  0  0  0  0  0  0
  -35.3962   57.3585   63.8087 O   0  0  0  0  0  0  0  0  0  0  0  0
  -37.1631   56.0347   62.3839 H   0  0  0  0  0  0  0  0  0  0  0  0
  -35.6222   57.2922   61.1916 H   0  0  0  0  0  0  0  0  0  0  0  0
  -37.3385   58.3466   62.3404 H   0  0  0  0  0  0  0  0  0  0  0  0
  -40.2521   60.0987   64.0751 C   0  0  0  0  0  0  0  0  0  0  0  0
  -38.9039   59.8447   63.3896 C   0  0  0  0  0  0  0  0  0  0  0  0
  -40.5400   59.3017   65.3587 C   0  0  0  0  0  0  0  0  0  0  0  0
  -41.5127   59.9254   66.3805 C   0  0  0  0  0  0  0  0  0  0  0  0
  -42.6609   59.0259   66.5307 N   0  0  0  0  0  0  0  0  0  0  0  0
  -43.9267   59.1671   66.0559 C   0  0  0  0  0  0  0  0  0  0  0  0
  -42.3831   57.8681   67.2708 O   0  0  0  0  0  0  0  0  0  0  0  0
  -44.2501   60.1477   65.3860 O   0  0  0  0  0  0  0  0  0  0  0  0
  -43.1828   57.3224   67.3299 H   0  0  0  0  0  0  0  0  0  0  0  0
  -44.9625   58.0829   66.3714 C   0  0  0  0  0  0  0  0  0  0  0  0
  -46.3216   58.6197   66.8411 C   0  0  0  0  0  0  0  0  0  0  0  0
  -47.3295   58.5983   65.6759 C   0  0  0  0  0  0  0  0  0  0  0  0
  -48.3666   59.7358   65.7388 C   0  0  0  0  0  0  0  0  0  0  0  0
  -48.5485   60.5114   64.4207 C   0  0  0  0  0  0  0  0  0  0  0  0
  -49.9754   61.0724   64.2465 C   0  0  0  0  0  0  0  0  0  0  0  0
  -51.0868   59.9979   64.2050 C   0  0  0  0  0  0  0  0  0  0  0  0
  -51.1776   59.2659   62.8610 C   0  0  0  0  0  0  0  0  0  0  0  0
  -50.5215   57.8820   62.8226 C   0  0  0  0  0  0  0  0  0  0  0  0
  -49.3741   57.8333   61.7972 C   0  0  0  0  0  0  0  0  0  0  0  0
  -49.4258   58.9569   60.7510 C   0  0  0  0  0  0  0  0  0  0  0  0
  -49.3590   58.5077   59.2877 C   0  0  0  0  0  0  0  0  0  0  0  0
  -48.0460   57.7801   58.9051 C   0  0  0  0  0  0  0  0  0  0  0  0
  -48.0734   57.2977   57.4405 C   0  0  0  0  0  0  0  0  0  0  0  0
  -47.4017   58.1963   56.3952 C   0  0  0  0  0  0  0  0  0  0  0  0
 46 47  1  0  0  0
 46 48  1  0  0  0
 46 45  1  0  0  0
 47 49  2  0  0  0
 47 51  1  0  0  0
 19 20  2  0  0  0
 37 38  1  0  0  0
 37 39  1  0  0  0
 37 40  1  0  0  0
 37 41  1  0  0  0
 48 50  1  0  0  0
 38 29  1  0  0  0
 45 44  1  0  0  0
 25 27  1  0  0  0
 25 35  1  0  0  0
 25 28  1  0  0  0
 21 20  1  0  0  0
 21 22  1  0  0  0
 44 42  1  0  0  0
  2  1  1  0  0  0
  2  4  1  0  0  0
  2  5  1  0  0  0
 26 27  2  0  0  0
 42 43  2  0  0  0
 29 31  1  0  0  0
 29 36  1  0  0  0
  3  4  2  0  0  0
 43  1  1  0  0  0
  6  9  2  0  0  0
  6 10  1  0  0  0
  1 20  1  0  0  0
 30 36  2  0  0  0
  7  8  1  0  0  0
  7  9  1  0  0  0
 22 24  1  0  0  0
 22 23  1  0  0  0
 11 12  1  0  0  0
 11 18  1  0  0  0
 24 27  1  0  0  0
  4 10  1  0  0  0
 51 52  1  0  0  0
 52 53  1  0  0  0
 53 54  1  0  0  0
 54 55  1  0  0  0
 55 56  1  0  0  0
 56 57  1  0  0  0
 57 58  1  0  0  0
 58 59  1  0  0  0
 59 60  1  0  0  0
 60 61  1  0  0  0
 61 62  1  0  0  0
 62 63  1  0  0  0
 63 64  1  0  0  0
 64 65  1  0  0  0
 31 32  1  0  0  0
 32 33  1  0  0  0
 33 34  1  0  0  0
 34 35  1  0  0  0
 35 36  1  0  0  0
  8 10  1  0  0  0
  9 17  1  0  0  0
 12 13  2  0  0  0
 12 17  1  0  0  0
 13 14  1  0  0  0
 14 15  2  0  0  0
 15 16  1  0  0  0
 16 17  2  0  0  0
M  END
> <minimizedAffinity>
-8.91617

> <CNNscore>
0.1922661215

> <CNNaffinity>
7.6034264565

> <CNN_VS>
1.4618812799

> <CNNaffinity_variance>
0.9465959668

$$$$
/media/chris/experiments/cd1a-new-docking/inputs/ligands/1xz0_ligand.pdb


 65 67  0  0  0  0  0  0  0  0999 V2000
  -35.9728   60.2950   64.9605 C   0  0  0  0  0  0  0  0  0  0  0  0
  -34.8791   60.6777   65.8558 N   0  0  0  0  0  0  0  0  0  0  0  0
  -33.3105   62.0724   66.7318 O   0  0  0  0  0  0  0  0  0  0  0  0
  -34.2284   61.8501   65.9531 C   0  0  0  0  0  0  0  0  0  0  0  0
  -34.5768   59.9753   66.4759 H   0  0  0  0  0  0  0  0  0  0  0  0
  -33.9035   63.2447   63.9210 N   0  0  0  0  0  0  0  0  0  0  0  0
  -34.0333   65.2734   64.8481 O   0  0  0  0  0  0  0  0  0  0  0  0
  -34.7824   64.4419   65.7335 C   0  0  0  0  0  0  0  0  0  0  0  0
  -33.5267   64.4433   63.7840 C   0  0  0  0  0  0  0  0  0  0  0  0
  -34.7361   63.0162   65.1173 C   0  0  0  0  0  0  0  0  0  0  0  0
  -33.8846   63.6636   61.0161 O   0  0  0  0  0  0  0  0  0  0  0  0
  -32.9407   64.5641   61.3158 C   0  0  0  0  0  0  0  0  0  0  0  0
  -32.1626   65.1190   60.2913 C   0  0  0  0  0  0  0  0  0  0  0  0
  -31.1592   66.0590   60.5808 C   0  0  0  0  0  0  0  0  0  0  0  0
  -30.9293   66.4626   61.8972 C   0  0  0  0  0  0  0  0  0  0  0  0
  -31.7072   65.9167   62.9222 C   0  0  0  0  0  0  0  0  0  0  0  0
  -32.7075   64.9679   62.6361 C   0  0  0  0  0  0  0  0  0  0  0  0
  -34.0228   63.4085   60.1252 H   0  0  0  0  0  0  0  0  0  0  0  0
  -36.2487   61.4878   62.9023 O   0  0  0  0  0  0  0  0  0  0  0  0
  -35.5591   60.7335   63.5686 C   0  0  0  0  0  0  0  0  0  0  0  0
  -34.3353   60.1936   62.9670 O   0  0  0  0  0  0  0  0  0  0  0  0
  -34.1870   58.7852   62.7062 C   0  0  0  0  0  0  0  0  0  0  0  0
  -32.9097   58.4102   61.9648 C   0  0  0  0  0  0  0  0  0  0  0  0
  -35.4191   58.3044   61.9545 C   0  0  0  0  0  0  0  0  0  0  0  0
  -37.7419   57.9573   62.6477 N   0  0  0  0  0  0  0  0  0  0  0  0
  -36.0426   56.8529   63.6519 O   0  0  0  0  0  0  0  0  0  0  0  0
  -36.4493   57.6638   62.8517 C   0  0  0  0  0  0  0  0  0  0  0  0
  -38.4101   57.4858   63.1959 H   0  0  0  0  0  0  0  0  0  0  0  0
  -40.6635   58.9349   62.0454 N   0  0  0  0  0  0  0  0  0  0  0  0
  -39.4851   60.8402   62.2611 O   0  0  0  0  0  0  0  0  0  0  0  0
  -40.7714   57.4685   62.0374 C   0  0  0  0  0  0  0  0  0  0  0  0
  -40.3205   56.8963   60.6802 C   0  0  0  0  0  0  0  0  0  0  0  0
  -39.7005   57.9030   59.7253 C   0  0  0  0  0  0  0  0  0  0  0  0
  -38.3521   58.4393   60.2134 C   0  0  0  0  0  0  0  0  0  0  0  0
  -38.2304   58.9315   61.6652 C   0  0  0  0  0  0  0  0  0  0  0  0
  -39.5205   59.6392   62.0307 C   0  0  0  0  0  0  0  0  0  0  0  0
  -41.8786   61.3347   61.5087 Si  0  0  0  0  0  0  0  0  0  0  0  0
  -41.8277   59.6417   62.0804 O   0  0  0  0  0  0  0  0  0  0  0  0
  -43.1973   61.8424   61.6494 H   0  0  0  0  0  0  0  0  0  0  0  0
  -41.4955   61.3847   60.1422 H   0  0  0  0  0  0  0  0  0  0  0  0
  -40.9835   62.1221   62.2803 H   0  0  0  0  0  0  0  0  0  0  0  0
  -38.3653   59.6430   65.8236 C   0  0  0  0  0  0  0  0  0  0  0  0
  -37.4029   60.7398   65.3516 C   0  0  0  0  0  0  0  0  0  0  0  0
  -39.8665   59.9763   65.7948 C   0  0  0  0  0  0  0  0  0  0  0  0
  -40.8383   58.8484   65.3912 C   0  0  0  0  0  0  0  0  0  0  0  0
  -42.1783   59.2027   65.8695 N   0  0  0  0  0  0  0  0  0  0  0  0
  -43.3876   58.7659   65.4289 C   0  0  0  0  0  0  0  0  0  0  0  0
  -42.1794   60.1205   66.9293 O   0  0  0  0  0  0  0  0  0  0  0  0
  -43.4746   57.9500   64.5115 O   0  0  0  0  0  0  0  0  0  0  0  0
  -43.0936   60.3084   67.1934 H   0  0  0  0  0  0  0  0  0  0  0  0
  -44.6586   59.3102   66.0895 C   0  0  0  0  0  0  0  0  0  0  0  0
  -45.5613   58.2362   66.7119 C   0  0  0  0  0  0  0  0  0  0  0  0
  -46.9041   58.1732   65.9588 C   0  0  0  0  0  0  0  0  0  0  0  0
  -47.0192   59.2036   64.8194 C   0  0  0  0  0  0  0  0  0  0  0  0
  -48.1689   58.9392   63.8293 C   0  0  0  0  0  0  0  0  0  0  0  0
  -49.2484   60.0415   63.8548 C   0  0  0  0  0  0  0  0  0  0  0  0
  -50.3548   59.8811   62.7864 C   0  0  0  0  0  0  0  0  0  0  0  0
  -51.0700   58.5264   62.8474 C   0  0  0  0  0  0  0  0  0  0  0  0
  -51.1766   57.7806   61.5135 C   0  0  0  0  0  0  0  0  0  0  0  0
  -49.7983   57.6262   60.8452 C   0  0  0  0  0  0  0  0  0  0  0  0
  -49.4611   56.1835   60.4394 C   0  0  0  0  0  0  0  0  0  0  0  0
  -48.4587   56.0321   59.2905 C   0  0  0  0  0  0  0  0  0  0  0  0
  -47.7001   57.3344   58.9325 C   0  0  0  0  0  0  0  0  0  0  0  0
  -48.0684   57.8329   57.5203 C   0  0  0  0  0  0  0  0  0  0  0  0
  -46.9135   58.0806   56.5424 C   0  0  0  0  0  0  0  0  0  0  0  0
 46 47  1  0  0  0
 46 48  1  0  0  0
 46 45  1  0  0  0
 47 49  2  0  0  0
 47 51  1  0  0  0
 19 20  2  0  0  0
 37 38  1  0  0  0
 37 39  1  0  0  0
 37 40  1  0  0  0
 37 41  1  0  0  0
 48 50  1  0  0  0
 38 29  1  0  0  0
 45 44  1  0  0  0
 25 27  1  0  0  0
 25 35  1  0  0  0
 25 28  1  0  0  0
 21 20  1  0  0  0
 21 22  1  0  0  0
 44 42  1  0  0  0
  2  1  1  0  0  0
  2  4  1  0  0  0
  2  5  1  0  0  0
 26 27  2  0  0  0
 42 43  2  0  0  0
 29 31  1  0  0  0
 29 36  1  0  0  0
  3  4  2  0  0  0
 43  1  1  0  0  0
  6  9  2  0  0  0
  6 10  1  0  0  0
  1 20  1  0  0  0
 30 36  2  0  0  0
  7  8  1  0  0  0
  7  9  1  0  0  0
 22 24  1  0  0  0
 22 23  1  0  0  0
 11 12  1  0  0  0
 11 18  1  0  0  0
 24 27  1  0  0  0
  4 10  1  0  0  0
 51 52  1  0  0  0
 52 53  1  0  0  0
 53 54  1  0  0  0
 54 55  1  0  0  0
 55 56  1  0  0  0
 56 57  1  0  0  0
 57 58  1  0  0  0
 58 59  1  0  0  0
 59 60  1  0  0  0
 60 61  1  0  0  0
 61 62  1  0  0  0
 62 63  1  0  0  0
 63 64  1  0  0  0
 64 65  1  0  0  0
 31 32  1  0  0  0
 32 33  1  0  0  0
 33 34  1  0  0  0
 34 35  1  0  0  0
 35 36  1  0  0  0
  8 10  1  0  0  0
  9 17  1  0  0  0
 12 13  2  0  0  0
 12 17  1  0  0  0
 13 14  1  0  0  0
 14 15  2  0  0  0
 15 16  1  0  0  0
 16 17  2  0  0  0
M  END
> <minimizedAffinity>
-8.89059

> <CNNscore>
0.1692308187

> <CNNaffinity>
7.4520521164

> <CNN_VS>
1.2611168623

> <CNNaffinity_variance>
0.2306529582

$$$$
/media/chris/experiments/cd1a-new-docking/inputs/ligands/1xz0_ligand.pdb


 65 67  0  0  0  0  0  0  0  0999 V2000
  -38.2253   59.9753   65.5585 C   0  0  0  0  0  0  0  0  0  0  0  0
  -37.5900   58.6567   65.6010 N   0  0  0  0  0  0  0  0  0  0  0  0
  -36.7156   56.7491   64.7239 O   0  0  0  0  0  0  0  0  0  0  0  0
  -37.2350   57.8490   64.5868 C   0  0  0  0  0  0  0  0  0  0  0  0
  -37.3948   58.3120   66.5023 H   0  0  0  0  0  0  0  0  0  0  0  0
  -38.4377   59.4111   63.0723 N   0  0  0  0  0  0  0  0  0  0  0  0
  -38.9622   57.9916   61.4285 O   0  0  0  0  0  0  0  0  0  0  0  0
  -37.8019   57.4135   62.0251 C   0  0  0  0  0  0  0  0  0  0  0  0
  -39.2765   59.1987   62.1510 C   0  0  0  0  0  0  0  0  0  0  0  0
  -37.3867   58.3801   63.1686 C   0  0  0  0  0  0  0  0  0  0  0  0
  -39.9991   59.9652   59.4515 O   0  0  0  0  0  0  0  0  0  0  0  0
  -40.7336   60.4258   60.4713 C   0  0  0  0  0  0  0  0  0  0  0  0
  -41.8377   61.2489   60.2136 C   0  0  0  0  0  0  0  0  0  0  0  0
  -42.6189   61.7529   61.2672 C   0  0  0  0  0  0  0  0  0  0  0  0
  -42.3109   61.4310   62.5901 C   0  0  0  0  0  0  0  0  0  0  0  0
  -41.2143   60.6050   62.8522 C   0  0  0  0  0  0  0  0  0  0  0  0
  -40.4243   60.1057   61.7989 C   0  0  0  0  0  0  0  0  0  0  0  0
  -40.2251   60.1927   58.5710 H   0  0  0  0  0  0  0  0  0  0  0  0
  -37.1486   60.9017   67.4867 O   0  0  0  0  0  0  0  0  0  0  0  0
  -37.2850   60.9261   66.2746 C   0  0  0  0  0  0  0  0  0  0  0  0
  -36.5644   61.9515   65.5127 O   0  0  0  0  0  0  0  0  0  0  0  0
  -35.6176   62.8305   66.1488 C   0  0  0  0  0  0  0  0  0  0  0  0
  -36.2404   64.0361   66.8418 C   0  0  0  0  0  0  0  0  0  0  0  0
  -34.5925   63.2626   65.1113 C   0  0  0  0  0  0  0  0  0  0  0  0
  -32.5365   62.1352   64.4057 N   0  0  0  0  0  0  0  0  0  0  0  0
  -32.7478   62.9892   66.4894 O   0  0  0  0  0  0  0  0  0  0  0  0
  -33.2045   62.7441   65.3963 C   0  0  0  0  0  0  0  0  0  0  0  0
  -31.6086   61.8576   64.5827 H   0  0  0  0  0  0  0  0  0  0  0  0
  -33.5487   59.4353   63.1644 N   0  0  0  0  0  0  0  0  0  0  0  0
  -35.2190   60.8857   62.7497 O   0  0  0  0  0  0  0  0  0  0  0  0
  -32.2266   59.0998   63.7134 C   0  0  0  0  0  0  0  0  0  0  0  0
  -31.1094   59.5208   62.7400 C   0  0  0  0  0  0  0  0  0  0  0  0
  -31.5662   60.3363   61.5417 C   0  0  0  0  0  0  0  0  0  0  0  0
  -32.0800   61.7267   61.9247 C   0  0  0  0  0  0  0  0  0  0  0  0
  -33.0909   61.8535   63.0767 C   0  0  0  0  0  0  0  0  0  0  0  0
  -34.0403   60.6739   62.9999 C   0  0  0  0  0  0  0  0  0  0  0  0
  -34.3130   56.8581   63.7095 Si  0  0  0  0  0  0  0  0  0  0  0  0
  -34.3499   58.3959   62.7988 O   0  0  0  0  0  0  0  0  0  0  0  0
  -35.2334   55.9438   63.1321 H   0  0  0  0  0  0  0  0  0  0  0  0
  -34.6718   57.1001   65.0620 H   0  0  0  0  0  0  0  0  0  0  0  0
  -33.0046   56.3087   63.6580 H   0  0  0  0  0  0  0  0  0  0  0  0
  -40.5950   58.8644   65.7697 C   0  0  0  0  0  0  0  0  0  0  0  0
  -39.6932   60.0752   66.0397 C   0  0  0  0  0  0  0  0  0  0  0  0
  -42.1134   59.1006   65.8354 C   0  0  0  0  0  0  0  0  0  0  0  0
  -43.0199   58.1219   65.0610 C   0  0  0  0  0  0  0  0  0  0  0  0
  -44.3882   58.2628   65.5687 N   0  0  0  0  0  0  0  0  0  0  0  0
  -45.3441   59.1621   65.2149 C   0  0  0  0  0  0  0  0  0  0  0  0
  -44.7284   57.3252   66.5539 O   0  0  0  0  0  0  0  0  0  0  0  0
  -45.1314   60.0104   64.3489 O   0  0  0  0  0  0  0  0  0  0  0  0
  -45.6420   57.4765   66.8425 H   0  0  0  0  0  0  0  0  0  0  0  0
  -46.7049   59.1133   65.9177 C   0  0  0  0  0  0  0  0  0  0  0  0
  -47.8524   59.7556   65.1262 C   0  0  0  0  0  0  0  0  0  0  0  0
  -48.9788   60.1873   66.0848 C   0  0  0  0  0  0  0  0  0  0  0  0
  -50.3210   59.4811   65.8144 C   0  0  0  0  0  0  0  0  0  0  0  0
  -50.3457   58.6173   64.5395 C   0  0  0  0  0  0  0  0  0  0  0  0
  -51.1723   59.2512   63.4010 C   0  0  0  0  0  0  0  0  0  0  0  0
  -50.3349   60.0125   62.3471 C   0  0  0  0  0  0  0  0  0  0  0  0
  -50.1094   59.2166   61.0563 C   0  0  0  0  0  0  0  0  0  0  0  0
  -50.9168   57.9202   60.9360 C   0  0  0  0  0  0  0  0  0  0  0  0
  -49.9944   56.6965   60.7875 C   0  0  0  0  0  0  0  0  0  0  0  0
  -48.5442   57.0501   60.4250 C   0  0  0  0  0  0  0  0  0  0  0  0
  -48.1127   56.7070   58.9954 C   0  0  0  0  0  0  0  0  0  0  0  0
  -48.9130   57.4470   57.8946 C   0  0  0  0  0  0  0  0  0  0  0  0
  -48.1183   57.5268   56.5753 C   0  0  0  0  0  0  0  0  0  0  0  0
  -46.8222   58.3460   56.5874 C   0  0  0  0  0  0  0  0  0  0  0  0
 46 47  1  0  0  0
 46 48  1  0  0  0
 46 45  1  0  0  0
 47 49  2  0  0  0
 47 51  1  0  0  0
 19 20  2  0  0  0
 37 38  1  0  0  0
 37 39  1  0  0  0
 37 40  1  0  0  0
 37 41  1  0  0  0
 48 50  1  0  0  0
 38 29  1  0  0  0
 45 44  1  0  0  0
 25 27  1  0  0  0
 25 35  1  0  0  0
 25 28  1  0  0  0
 21 20  1  0  0  0
 21 22  1  0  0  0
 44 42  1  0  0  0
  2  1  1  0  0  0
  2  4  1  0  0  0
  2  5  1  0  0  0
 26 27  2  0  0  0
 42 43  2  0  0  0
 29 31  1  0  0  0
 29 36  1  0  0  0
  3  4  2  0  0  0
 43  1  1  0  0  0
  6  9  2  0  0  0
  6 10  1  0  0  0
  1 20  1  0  0  0
 30 36  2  0  0  0
  7  8  1  0  0  0
  7  9  1  0  0  0
 22 24  1  0  0  0
 22 23  1  0  0  0
 11 12  1  0  0  0
 11 18  1  0  0  0
 24 27  1  0  0  0
  4 10  1  0  0  0
 51 52  1  0  0  0
 52 53  1  0  0  0
 53 54  1  0  0  0
 54 55  1  0  0  0
 55 56  1  0  0  0
 56 57  1  0  0  0
 57 58  1  0  0  0
 58 59  1  0  0  0
 59 60  1  0  0  0
 60 61  1  0  0  0
 61 62  1  0  0  0
 62 63  1  0  0  0
 63 64  1  0  0  0
 64 65  1  0  0  0
 31 32  1  0  0  0
 32 33  1  0  0  0
 33 34  1  0  0  0
 34 35  1  0  0  0
 35 36  1  0  0  0
  8 10  1  0  0  0
  9 17  1  0  0  0
 12 13  2  0  0  0
 12 17  1  0  0  0
 13 14  1  0  0  0
 14 15  2  0  0  0
 15 16  1  0  0  0
 16 17  2  0  0  0
M  END
> <minimizedAffinity>
-9.34807

> <CNNscore>
0.1499999613

> <CNNaffinity>
7.3237900734

> <CNN_VS>
1.0985682011

> <CNNaffinity_variance>
0.6061943173

$$$$
/media/chris/experiments/cd1a-new-docking/inputs/ligands/1xz0_ligand.pdb


 65 67  0  0  0  0  0  0  0  0999 V2000
  -36.2796   57.4987   62.6180 C   0  0  0  0  0  0  0  0  0  0  0  0
  -36.7467   57.2464   63.9826 N   0  0  0  0  0  0  0  0  0  0  0  0
  -37.5028   57.8128   66.0515 O   0  0  0  0  0  0  0  0  0  0  0  0
  -37.1369   58.1220   64.9251 C   0  0  0  0  0  0  0  0  0  0  0  0
  -36.7799   56.2989   64.2482 H   0  0  0  0  0  0  0  0  0  0  0  0
  -36.0546   60.3597   64.9660 N   0  0  0  0  0  0  0  0  0  0  0  0
  -37.7649   61.5765   65.7317 O   0  0  0  0  0  0  0  0  0  0  0  0
  -38.3918   60.4602   65.1014 C   0  0  0  0  0  0  0  0  0  0  0  0
  -36.3383   61.4113   65.6071 C   0  0  0  0  0  0  0  0  0  0  0  0
  -37.2365   59.5895   64.5342 C   0  0  0  0  0  0  0  0  0  0  0  0
  -36.9372   64.1758   66.2366 O   0  0  0  0  0  0  0  0  0  0  0  0
  -35.6915   63.7254   66.4297 C   0  0  0  0  0  0  0  0  0  0  0  0
  -34.7148   64.5885   66.9436 C   0  0  0  0  0  0  0  0  0  0  0  0
  -33.3979   64.1427   67.1465 C   0  0  0  0  0  0  0  0  0  0  0  0
  -33.0451   62.8256   66.8474 C   0  0  0  0  0  0  0  0  0  0  0  0
  -34.0174   61.9589   66.3404 C   0  0  0  0  0  0  0  0  0  0  0  0
  -35.3358   62.4053   66.1277 C   0  0  0  0  0  0  0  0  0  0  0  0
  -37.1522   65.0634   66.4460 H   0  0  0  0  0  0  0  0  0  0  0  0
  -34.0310   56.6827   62.7348 O   0  0  0  0  0  0  0  0  0  0  0  0
  -34.7728   57.6508   62.7033 C   0  0  0  0  0  0  0  0  0  0  0  0
  -34.1797   58.9872   62.8194 O   0  0  0  0  0  0  0  0  0  0  0  0
  -32.9712   59.2078   63.5709 C   0  0  0  0  0  0  0  0  0  0  0  0
  -32.9903   58.6340   64.9823 C   0  0  0  0  0  0  0  0  0  0  0  0
  -32.6843   60.7017   63.5895 C   0  0  0  0  0  0  0  0  0  0  0  0
  -32.9299   62.5350   61.9849 N   0  0  0  0  0  0  0  0  0  0  0  0
  -31.8799   60.6140   61.4165 O   0  0  0  0  0  0  0  0  0  0  0  0
  -32.4947   61.2869   62.2118 C   0  0  0  0  0  0  0  0  0  0  0  0
  -32.7446   62.9308   61.1026 H   0  0  0  0  0  0  0  0  0  0  0  0
  -34.7927   65.0234   61.5464 N   0  0  0  0  0  0  0  0  0  0  0  0
  -36.0008   63.6657   62.8740 O   0  0  0  0  0  0  0  0  0  0  0  0
  -33.5801   65.3487   60.7810 C   0  0  0  0  0  0  0  0  0  0  0  0
  -32.4839   65.9070   61.7080 C   0  0  0  0  0  0  0  0  0  0  0  0
  -32.7930   65.8363   63.1943 C   0  0  0  0  0  0  0  0  0  0  0  0
  -32.8432   64.4020   63.7276 C   0  0  0  0  0  0  0  0  0  0  0  0
  -33.6626   63.3522   62.9587 C   0  0  0  0  0  0  0  0  0  0  0  0
  -34.9165   64.0257   62.4365 C   0  0  0  0  0  0  0  0  0  0  0  0
  -37.2990   65.7103   62.4240 Si  0  0  0  0  0  0  0  0  0  0  0  0
  -35.8914   65.7980   61.3254 O   0  0  0  0  0  0  0  0  0  0  0  0
  -38.3039   66.6092   61.9784 H   0  0  0  0  0  0  0  0  0  0  0  0
  -36.8961   66.0649   63.7388 H   0  0  0  0  0  0  0  0  0  0  0  0
  -37.8150   64.3874   62.4277 H   0  0  0  0  0  0  0  0  0  0  0  0
  -38.2129   58.2488   61.0075 C   0  0  0  0  0  0  0  0  0  0  0  0
  -36.9736   58.6328   61.8253 C   0  0  0  0  0  0  0  0  0  0  0  0
  -38.6438   59.2245   59.8993 C   0  0  0  0  0  0  0  0  0  0  0  0
  -40.0097   59.9233   60.0581 C   0  0  0  0  0  0  0  0  0  0  0  0
  -40.9279   58.9929   60.7223 N   0  0  0  0  0  0  0  0  0  0  0  0
  -41.3407   58.9759   62.0172 C   0  0  0  0  0  0  0  0  0  0  0  0
  -41.4341   57.9942   59.8786 O   0  0  0  0  0  0  0  0  0  0  0  0
  -40.9540   59.8246   62.8203 O   0  0  0  0  0  0  0  0  0  0  0  0
  -42.0308   57.4180   60.3814 H   0  0  0  0  0  0  0  0  0  0  0  0
  -42.2999   57.8722   62.4755 C   0  0  0  0  0  0  0  0  0  0  0  0
  -43.6472   58.3810   63.0060 C   0  0  0  0  0  0  0  0  0  0  0  0
  -43.8194   57.9789   64.4834 C   0  0  0  0  0  0  0  0  0  0  0  0
  -44.6721   58.9720   65.2958 C   0  0  0  0  0  0  0  0  0  0  0  0
  -46.1932   58.7960   65.1306 C   0  0  0  0  0  0  0  0  0  0  0  0
  -46.8771   60.0340   64.5134 C   0  0  0  0  0  0  0  0  0  0  0  0
  -47.7952   59.7256   63.3078 C   0  0  0  0  0  0  0  0  0  0  0  0
  -49.2879   59.7461   63.6570 C   0  0  0  0  0  0  0  0  0  0  0  0
  -50.2349   59.9704   62.4739 C   0  0  0  0  0  0  0  0  0  0  0  0
  -49.4584   60.3281   61.1935 C   0  0  0  0  0  0  0  0  0  0  0  0
  -49.6090   59.2966   60.0652 C   0  0  0  0  0  0  0  0  0  0  0  0
  -48.7583   58.0298   60.2034 C   0  0  0  0  0  0  0  0  0  0  0  0
  -48.3385   57.3952   58.8540 C   0  0  0  0  0  0  0  0  0  0  0  0
  -47.8159   58.4593   57.8675 C   0  0  0  0  0  0  0  0  0  0  0  0
  -47.2562   57.9590   56.5305 C   0  0  0  0  0  0  0  0  0  0  0  0
 46 47  1  0  0  0
 46 48  1  0  0  0
 46 45  1  0  0  0
 47 49  2  0  0  0
 47 51  1  0  0  0
 19 20  2  0  0  0
 37 38  1  0  0  0
 37 39  1  0  0  0
 37 40  1  0  0  0
 37 41  1  0  0  0
 48 50  1  0  0  0
 38 29  1  0  0  0
 45 44  1  0  0  0
 25 27  1  0  0  0
 25 35  1  0  0  0
 25 28  1  0  0  0
 21 20  1  0  0  0
 21 22  1  0  0  0
 44 42  1  0  0  0
  2  1  1  0  0  0
  2  4  1  0  0  0
  2  5  1  0  0  0
 26 27  2  0  0  0
 42 43  2  0  0  0
 29 31  1  0  0  0
 29 36  1  0  0  0
  3  4  2  0  0  0
 43  1  1  0  0  0
  6  9  2  0  0  0
  6 10  1  0  0  0
  1 20  1  0  0  0
 30 36  2  0  0  0
  7  8  1  0  0  0
  7  9  1  0  0  0
 22 24  1  0  0  0
 22 23  1  0  0  0
 11 12  1  0  0  0
 11 18  1  0  0  0
 24 27  1  0  0  0
  4 10  1  0  0  0
 51 52  1  0  0  0
 52 53  1  0  0  0
 53 54  1  0  0  0
 54 55  1  0  0  0
 55 56  1  0  0  0
 56 57  1  0  0  0
 57 58  1  0  0  0
 58 59  1  0  0  0
 59 60  1  0  0  0
 60 61  1  0  0  0
 61 62  1  0  0  0
 62 63  1  0  0  0
 63 64  1  0  0  0
 64 65  1  0  0  0
 31 32  1  0  0  0
 32 33  1  0  0  0
 33 34  1  0  0  0
 34 35  1  0  0  0
 35 36  1  0  0  0
  8 10  1  0  0  0
  9 17  1  0  0  0
 12 13  2  0  0  0
 12 17  1  0  0  0
 13 14  1  0  0  0
 14 15  2  0  0  0
 15 16  1  0  0  0
 16 17  2  0  0  0
M  END
> <minimizedAffinity>
-9.39344

> <CNNscore>
0.1426373422

> <CNNaffinity>
7.1005578041

> <CNN_VS>
1.0128047466

> <CNNaffinity_variance>
0.9229735136

$$$$
/media/chris/experiments/cd1a-new-docking/inputs/ligands/1xz0_ligand.pdb


 65 67  0  0  0  0  0  0  0  0999 V2000
  -38.6468   60.9449   61.4260 C   0  0  0  0  0  0  0  0  0  0  0  0
  -37.9736   60.2183   60.3476 N   0  0  0  0  0  0  0  0  0  0  0  0
  -37.7673   58.6276   58.7352 O   0  0  0  0  0  0  0  0  0  0  0  0
  -38.4140   59.1808   59.6149 C   0  0  0  0  0  0  0  0  0  0  0  0
  -37.0679   60.5353   60.1273 H   0  0  0  0  0  0  0  0  0  0  0  0
  -40.1353   58.3775   61.2188 N   0  0  0  0  0  0  0  0  0  0  0  0
  -40.8883   56.6050   60.0860 O   0  0  0  0  0  0  0  0  0  0  0  0
  -40.3754   57.4687   59.0723 C   0  0  0  0  0  0  0  0  0  0  0  0
  -40.6790   57.2454   61.3604 C   0  0  0  0  0  0  0  0  0  0  0  0
  -39.8541   58.7305   59.8142 C   0  0  0  0  0  0  0  0  0  0  0  0
  -41.6600   54.5396   61.6969 O   0  0  0  0  0  0  0  0  0  0  0  0
  -41.5637   55.3294   62.7733 C   0  0  0  0  0  0  0  0  0  0  0  0
  -41.9208   54.8304   64.0328 C   0  0  0  0  0  0  0  0  0  0  0  0
  -41.8377   55.6423   65.1766 C   0  0  0  0  0  0  0  0  0  0  0  0
  -41.3869   56.9595   65.0753 C   0  0  0  0  0  0  0  0  0  0  0  0
  -41.0235   57.4601   63.8220 C   0  0  0  0  0  0  0  0  0  0  0  0
  -41.1140   56.6516   62.6727 C   0  0  0  0  0  0  0  0  0  0  0  0
  -41.9636   53.6578   61.7885 H   0  0  0  0  0  0  0  0  0  0  0  0
  -36.8981   62.0703   62.6140 O   0  0  0  0  0  0  0  0  0  0  0  0
  -37.6286   61.0959   62.5402 C   0  0  0  0  0  0  0  0  0  0  0  0
  -37.4584   60.0213   63.5238 O   0  0  0  0  0  0  0  0  0  0  0  0
  -36.6470   58.8663   63.2387 C   0  0  0  0  0  0  0  0  0  0  0  0
  -37.3162   57.5320   63.5444 C   0  0  0  0  0  0  0  0  0  0  0  0
  -35.3324   59.0062   63.9914 C   0  0  0  0  0  0  0  0  0  0  0  0
  -34.0129   61.0534   64.2445 N   0  0  0  0  0  0  0  0  0  0  0  0
  -34.0849   59.9425   62.2757 O   0  0  0  0  0  0  0  0  0  0  0  0
  -34.4356   60.0795   63.4253 C   0  0  0  0  0  0  0  0  0  0  0  0
  -33.3776   61.7125   63.8821 H   0  0  0  0  0  0  0  0  0  0  0  0
  -35.8040   63.2497   65.5948 N   0  0  0  0  0  0  0  0  0  0  0  0
  -36.6941   61.3084   66.3051 O   0  0  0  0  0  0  0  0  0  0  0  0
  -34.8147   64.0210   64.8277 C   0  0  0  0  0  0  0  0  0  0  0  0
  -33.4915   64.1384   65.6074 C   0  0  0  0  0  0  0  0  0  0  0  0
  -33.4112   63.3081   66.8778 C   0  0  0  0  0  0  0  0  0  0  0  0
  -33.3916   61.8012   66.6079 C   0  0  0  0  0  0  0  0  0  0  0  0
  -34.4306   61.2061   65.6429 C   0  0  0  0  0  0  0  0  0  0  0  0
  -35.7427   61.9345   65.8584 C   0  0  0  0  0  0  0  0  0  0  0  0
  -37.0451   64.2622   67.8215 Si  0  0  0  0  0  0  0  0  0  0  0  0
  -36.8841   63.9288   66.0726 O   0  0  0  0  0  0  0  0  0  0  0  0
  -38.2485   64.9780   68.0580 H   0  0  0  0  0  0  0  0  0  0  0  0
  -35.9392   65.0379   68.2593 H   0  0  0  0  0  0  0  0  0  0  0  0
  -37.0755   63.0356   68.5364 H   0  0  0  0  0  0  0  0  0  0  0  0
  -41.2388   61.2928   61.6586 C   0  0  0  0  0  0  0  0  0  0  0  0
  -40.0149   60.4022   61.9054 C   0  0  0  0  0  0  0  0  0  0  0  0
  -42.4970   60.9905   62.4901 C   0  0  0  0  0  0  0  0  0  0  0  0
  -42.2923   60.5069   63.9404 C   0  0  0  0  0  0  0  0  0  0  0  0
  -43.4662   59.7209   64.3331 N   0  0  0  0  0  0  0  0  0  0  0  0
  -43.8652   59.3408   65.5757 C   0  0  0  0  0  0  0  0  0  0  0  0
  -44.2694   59.3215   63.2557 O   0  0  0  0  0  0  0  0  0  0  0  0
  -43.2239   59.6609   66.5763 O   0  0  0  0  0  0  0  0  0  0  0  0
  -45.0231   58.8087   63.5869 H   0  0  0  0  0  0  0  0  0  0  0  0
  -45.1340   58.4940   65.7206 C   0  0  0  0  0  0  0  0  0  0  0  0
  -46.3564   59.2641   66.2384 C   0  0  0  0  0  0  0  0  0  0  0  0
  -47.3963   59.4236   65.1126 C   0  0  0  0  0  0  0  0  0  0  0  0
  -48.6264   58.5111   65.2777 C   0  0  0  0  0  0  0  0  0  0  0  0
  -49.9007   59.2325   65.7551 C   0  0  0  0  0  0  0  0  0  0  0  0
  -50.9822   59.3291   64.6587 C   0  0  0  0  0  0  0  0  0  0  0  0
  -51.0475   60.6971   63.9404 C   0  0  0  0  0  0  0  0  0  0  0  0
  -50.9309   60.5914   62.4154 C   0  0  0  0  0  0  0  0  0  0  0  0
  -50.1591   59.3727   61.8998 C   0  0  0  0  0  0  0  0  0  0  0  0
  -49.5568   59.6376   60.5079 C   0  0  0  0  0  0  0  0  0  0  0  0
  -49.6775   58.4502   59.5408 C   0  0  0  0  0  0  0  0  0  0  0  0
  -48.7311   57.2753   59.8077 C   0  0  0  0  0  0  0  0  0  0  0  0
  -47.5640   57.1562   58.7960 C   0  0  0  0  0  0  0  0  0  0  0  0
  -47.6675   58.2218   57.6860 C   0  0  0  0  0  0  0  0  0  0  0  0
  -47.8136   57.7191   56.2448 C   0  0  0  0  0  0  0  0  0  0  0  0
 46 47  1  0  0  0
 46 48  1  0  0  0
 46 45  1  0  0  0
 47 49  2  0  0  0
 47 51  1  0  0  0
 19 20  2  0  0  0
 37 38  1  0  0  0
 37 39  1  0  0  0
 37 40  1  0  0  0
 37 41  1  0  0  0
 48 50  1  0  0  0
 38 29  1  0  0  0
 45 44  1  0  0  0
 25 27  1  0  0  0
 25 35  1  0  0  0
 25 28  1  0  0  0
 21 20  1  0  0  0
 21 22  1  0  0  0
 44 42  1  0  0  0
  2  1  1  0  0  0
  2  4  1  0  0  0
  2  5  1  0  0  0
 26 27  2  0  0  0
 42 43  2  0  0  0
 29 31  1  0  0  0
 29 36  1  0  0  0
  3  4  2  0  0  0
 43  1  1  0  0  0
  6  9  2  0  0  0
  6 10  1  0  0  0
  1 20  1  0  0  0
 30 36  2  0  0  0
  7  8  1  0  0  0
  7  9  1  0  0  0
 22 24  1  0  0  0
 22 23  1  0  0  0
 11 12  1  0  0  0
 11 18  1  0  0  0
 24 27  1  0  0  0
  4 10  1  0  0  0
 51 52  1  0  0  0
 52 53  1  0  0  0
 53 54  1  0  0  0
 54 55  1  0  0  0
 55 56  1  0  0  0
 56 57  1  0  0  0
 57 58  1  0  0  0
 58 59  1  0  0  0
 59 60  1  0  0  0
 60 61  1  0  0  0
 61 62  1  0  0  0
 62 63  1  0  0  0
 63 64  1  0  0  0
 64 65  1  0  0  0
 31 32  1  0  0  0
 32 33  1  0  0  0
 33 34  1  0  0  0
 34 35  1  0  0  0
 35 36  1  0  0  0
  8 10  1  0  0  0
  9 17  1  0  0  0
 12 13  2  0  0  0
 12 17  1  0  0  0
 13 14  1  0  0  0
 14 15  2  0  0  0
 15 16  1  0  0  0
 16 17  2  0  0  0
M  END
> <minimizedAffinity>
-9.62486

> <CNNscore>
0.1412160248

> <CNNaffinity>
7.6657629013

> <CNN_VS>
1.0825285912

> <CNNaffinity_variance>
0.8535936475

$$$$
/media/chris/experiments/cd1a-new-docking/inputs/ligands/1xz0_ligand.pdb


 65 67  0  0  0  0  0  0  0  0999 V2000
  -36.6161   59.0925   62.4793 C   0  0  0  0  0  0  0  0  0  0  0  0
  -37.0636   58.3954   61.2719 N   0  0  0  0  0  0  0  0  0  0  0  0
  -38.4386   57.9814   59.5081 O   0  0  0  0  0  0  0  0  0  0  0  0
  -38.1385   58.6325   60.5001 C   0  0  0  0  0  0  0  0  0  0  0  0
  -36.4954   57.6448   60.9837 H   0  0  0  0  0  0  0  0  0  0  0  0
  -40.0280   59.5733   61.8136 N   0  0  0  0  0  0  0  0  0  0  0  0
  -41.1578   60.5687   60.1629 O   0  0  0  0  0  0  0  0  0  0  0  0
  -39.8134   60.5311   59.6857 C   0  0  0  0  0  0  0  0  0  0  0  0
  -41.1837   59.9453   61.4624 C   0  0  0  0  0  0  0  0  0  0  0  0
  -38.9817   59.8601   60.8138 C   0  0  0  0  0  0  0  0  0  0  0  0
  -42.3154   62.0819   63.0596 O   0  0  0  0  0  0  0  0  0  0  0  0
  -42.9338   60.8950   63.0389 C   0  0  0  0  0  0  0  0  0  0  0  0
  -44.1149   60.7164   63.7710 C   0  0  0  0  0  0  0  0  0  0  0  0
  -44.7777   59.4775   63.7733 C   0  0  0  0  0  0  0  0  0  0  0  0
  -44.2723   58.4058   63.0353 C   0  0  0  0  0  0  0  0  0  0  0  0
  -43.0977   58.5807   62.2982 C   0  0  0  0  0  0  0  0  0  0  0  0
  -42.4265   59.8185   62.3010 C   0  0  0  0  0  0  0  0  0  0  0  0
  -42.6735   62.7881   63.5607 H   0  0  0  0  0  0  0  0  0  0  0  0
  -35.2012   57.2729   63.1295 O   0  0  0  0  0  0  0  0  0  0  0  0
  -35.2935   58.4618   62.8716 C   0  0  0  0  0  0  0  0  0  0  0  0
  -34.0989   59.3006   63.0145 O   0  0  0  0  0  0  0  0  0  0  0  0
  -32.9395   58.8372   63.7319 C   0  0  0  0  0  0  0  0  0  0  0  0
  -33.1842   58.5425   65.2067 C   0  0  0  0  0  0  0  0  0  0  0  0
  -31.8257   59.8579   63.5536 C   0  0  0  0  0  0  0  0  0  0  0  0
  -32.7897   62.0590   63.0829 N   0  0  0  0  0  0  0  0  0  0  0  0
  -31.8222   60.8306   61.4487 O   0  0  0  0  0  0  0  0  0  0  0  0
  -32.1843   60.9664   62.5950 C   0  0  0  0  0  0  0  0  0  0  0  0
  -32.9619   62.8029   62.4612 H   0  0  0  0  0  0  0  0  0  0  0  0
  -35.3300   63.4670   64.2743 N   0  0  0  0  0  0  0  0  0  0  0  0
  -35.2942   61.4584   65.2889 O   0  0  0  0  0  0  0  0  0  0  0  0
  -34.7763   64.4621   63.3441 C   0  0  0  0  0  0  0  0  0  0  0  0
  -33.6202   65.2390   64.0018 C   0  0  0  0  0  0  0  0  0  0  0  0
  -33.1753   64.7156   65.3575 C   0  0  0  0  0  0  0  0  0  0  0  0
  -32.5164   63.3359   65.2796 C   0  0  0  0  0  0  0  0  0  0  0  0
  -33.2137   62.2242   64.4779 C   0  0  0  0  0  0  0  0  0  0  0  0
  -34.7083   62.3545   64.6968 C   0  0  0  0  0  0  0  0  0  0  0  0
  -37.0393   63.2089   66.4039 Si  0  0  0  0  0  0  0  0  0  0  0  0
  -36.5902   63.6893   64.7416 O   0  0  0  0  0  0  0  0  0  0  0  0
  -38.3974   63.5472   66.6438 H   0  0  0  0  0  0  0  0  0  0  0  0
  -36.2104   63.8905   67.3339 H   0  0  0  0  0  0  0  0  0  0  0  0
  -36.8668   61.8075   66.5546 H   0  0  0  0  0  0  0  0  0  0  0  0
  -38.2584   57.9009   64.1457 C   0  0  0  0  0  0  0  0  0  0  0  0
  -37.6212   59.2053   63.6511 C   0  0  0  0  0  0  0  0  0  0  0  0
  -39.5448   58.0285   64.9791 C   0  0  0  0  0  0  0  0  0  0  0  0
  -40.7941   57.2740   64.4796 C   0  0  0  0  0  0  0  0  0  0  0  0
  -41.9059   57.5740   65.3872 N   0  0  0  0  0  0  0  0  0  0  0  0
  -43.0341   56.8543   65.6256 C   0  0  0  0  0  0  0  0  0  0  0  0
  -41.7551   58.7756   66.0934 O   0  0  0  0  0  0  0  0  0  0  0  0
  -43.2377   55.7819   65.0571 O   0  0  0  0  0  0  0  0  0  0  0  0
  -42.5226   58.9097   66.6711 H   0  0  0  0  0  0  0  0  0  0  0  0
  -44.0666   57.4006   66.6174 C   0  0  0  0  0  0  0  0  0  0  0  0
  -45.5272   57.1831   66.1988 C   0  0  0  0  0  0  0  0  0  0  0  0
  -46.4488   58.1397   66.9795 C   0  0  0  0  0  0  0  0  0  0  0  0
  -47.4724   58.8703   66.0898 C   0  0  0  0  0  0  0  0  0  0  0  0
  -48.3167   57.9465   65.1921 C   0  0  0  0  0  0  0  0  0  0  0  0
  -49.7975   58.3736   65.1154 C   0  0  0  0  0  0  0  0  0  0  0  0
  -50.4794   58.0843   63.7579 C   0  0  0  0  0  0  0  0  0  0  0  0
  -51.0068   59.3432   63.0598 C   0  0  0  0  0  0  0  0  0  0  0  0
  -49.9328   60.3171   62.5649 C   0  0  0  0  0  0  0  0  0  0  0  0
  -49.8016   60.2760   61.0315 C   0  0  0  0  0  0  0  0  0  0  0  0
  -49.0449   59.0475   60.5040 C   0  0  0  0  0  0  0  0  0  0  0  0
  -49.8150   58.1648   59.5164 C   0  0  0  0  0  0  0  0  0  0  0  0
  -48.9536   57.0730   58.8339 C   0  0  0  0  0  0  0  0  0  0  0  0
  -48.5943   57.4605   57.3850 C   0  0  0  0  0  0  0  0  0  0  0  0
  -47.4169   58.4232   57.1896 C   0  0  0  0  0  0  0  0  0  0  0  0
 46 47  1  0  0  0
 46 48  1  0  0  0
 46 45  1  0  0  0
 47 49  2  0  0  0
 47 51  1  0  0  0
 19 20  2  0  0  0
 37 38  1  0  0  0
 37 39  1  0  0  0
 37 40  1  0  0  0
 37 41  1  0  0  0
 48 50  1  0  0  0
 38 29  1  0  0  0
 45 44  1  0  0  0
 25 27  1  0  0  0
 25 35  1  0  0  0
 25 28  1  0  0  0
 21 20  1  0  0  0
 21 22  1  0  0  0
 44 42  1  0  0  0
  2  1  1  0  0  0
  2  4  1  0  0  0
  2  5  1  0  0  0
 26 27  2  0  0  0
 42 43  2  0  0  0
 29 31  1  0  0  0
 29 36  1  0  0  0
  3  4  2  0  0  0
 43  1  1  0  0  0
  6  9  2  0  0  0
  6 10  1  0  0  0
  1 20  1  0  0  0
 30 36  2  0  0  0
  7  8  1  0  0  0
  7  9  1  0  0  0
 22 24  1  0  0  0
 22 23  1  0  0  0
 11 12  1  0  0  0
 11 18  1  0  0  0
 24 27  1  0  0  0
  4 10  1  0  0  0
 51 52  1  0  0  0
 52 53  1  0  0  0
 53 54  1  0  0  0
 54 55  1  0  0  0
 55 56  1  0  0  0
 56 57  1  0  0  0
 57 58  1  0  0  0
 58 59  1  0  0  0
 59 60  1  0  0  0
 60 61  1  0  0  0
 61 62  1  0  0  0
 62 63  1  0  0  0
 63 64  1  0  0  0
 64 65  1  0  0  0
 31 32  1  0  0  0
 32 33  1  0  0  0
 33 34  1  0  0  0
 34 35  1  0  0  0
 35 36  1  0  0  0
  8 10  1  0  0  0
  9 17  1  0  0  0
 12 13  2  0  0  0
 12 17  1  0  0  0
 13 14  1  0  0  0
 14 15  2  0  0  0
 15 16  1  0  0  0
 16 17  2  0  0  0
M  END
> <minimizedAffinity>
-8.67905

> <CNNscore>
0.1392853260

> <CNNaffinity>
7.1513252258

> <CNN_VS>
0.9960746765

> <CNNaffinity_variance>
0.9341958165

$$$$
/media/chris/experiments/cd1a-new-docking/inputs/ligands/1xz0_ligand.pdb


 65 67  0  0  0  0  0  0  0  0999 V2000
  -38.2613   60.0330   65.1858 C   0  0  0  0  0  0  0  0  0  0  0  0
  -37.4396   58.9764   65.7796 N   0  0  0  0  0  0  0  0  0  0  0  0
  -36.0494   57.1764   65.7618 O   0  0  0  0  0  0  0  0  0  0  0  0
  -36.6984   58.0320   65.1745 C   0  0  0  0  0  0  0  0  0  0  0  0
  -37.4284   58.9544   66.7638 H   0  0  0  0  0  0  0  0  0  0  0  0
  -37.7565   58.6912   63.0237 N   0  0  0  0  0  0  0  0  0  0  0  0
  -37.4609   56.7962   61.8776 O   0  0  0  0  0  0  0  0  0  0  0  0
  -36.4126   56.7798   62.8458 C   0  0  0  0  0  0  0  0  0  0  0  0
  -38.2329   57.9963   62.0816 C   0  0  0  0  0  0  0  0  0  0  0  0
  -36.5665   58.0945   63.6596 C   0  0  0  0  0  0  0  0  0  0  0  0
  -39.3386   60.6699   61.9187 O   0  0  0  0  0  0  0  0  0  0  0  0
  -39.8909   59.6975   61.1832 C   0  0  0  0  0  0  0  0  0  0  0  0
  -40.9731   59.9934   60.3440 C   0  0  0  0  0  0  0  0  0  0  0  0
  -41.5764   58.9885   59.5690 C   0  0  0  0  0  0  0  0  0  0  0  0
  -41.0977   57.6781   59.6168 C   0  0  0  0  0  0  0  0  0  0  0  0
  -40.0143   57.3790   60.4476 C   0  0  0  0  0  0  0  0  0  0  0  0
  -39.4133   58.3821   61.2321 C   0  0  0  0  0  0  0  0  0  0  0  0
  -39.6752   61.5430   61.8697 H   0  0  0  0  0  0  0  0  0  0  0  0
  -37.3013   62.0923   64.4288 O   0  0  0  0  0  0  0  0  0  0  0  0
  -37.4865   61.3254   65.3595 C   0  0  0  0  0  0  0  0  0  0  0  0
  -36.8805   61.6443   66.6565 O   0  0  0  0  0  0  0  0  0  0  0  0
  -35.6723   62.4225   66.7478 C   0  0  0  0  0  0  0  0  0  0  0  0
  -35.8328   63.8876   66.3612 C   0  0  0  0  0  0  0  0  0  0  0  0
  -34.6017   61.7465   65.9046 C   0  0  0  0  0  0  0  0  0  0  0  0
  -32.8610   62.9118   64.6364 N   0  0  0  0  0  0  0  0  0  0  0  0
  -32.8135   62.8397   66.8965 O   0  0  0  0  0  0  0  0  0  0  0  0
  -33.3143   62.5307   65.8396 C   0  0  0  0  0  0  0  0  0  0  0  0
  -32.0552   63.4769   64.6090 H   0  0  0  0  0  0  0  0  0  0  0  0
  -31.5767   62.5372   61.7965 N   0  0  0  0  0  0  0  0  0  0  0  0
  -32.8042   60.6736   62.0894 O   0  0  0  0  0  0  0  0  0  0  0  0
  -31.0682   63.8413   62.2466 C   0  0  0  0  0  0  0  0  0  0  0  0
  -32.1119   64.9473   62.0017 C   0  0  0  0  0  0  0  0  0  0  0  0
  -33.4752   64.4617   61.5380 C   0  0  0  0  0  0  0  0  0  0  0  0
  -34.2239   63.6660   62.6105 C   0  0  0  0  0  0  0  0  0  0  0  0
  -33.4811   62.5459   63.3579 C   0  0  0  0  0  0  0  0  0  0  0  0
  -32.5737   61.8425   62.3677 C   0  0  0  0  0  0  0  0  0  0  0  0
  -31.1603   60.2353   60.3642 Si  0  0  0  0  0  0  0  0  0  0  0  0
  -30.9760   61.9799   60.7081 O   0  0  0  0  0  0  0  0  0  0  0  0
  -30.4428   59.9072   59.1835 H   0  0  0  0  0  0  0  0  0  0  0  0
  -32.5355   59.9314   60.1822 H   0  0  0  0  0  0  0  0  0  0  0  0
  -30.6492   59.4814   61.4537 H   0  0  0  0  0  0  0  0  0  0  0  0
  -40.7137   59.1051   65.0487 C   0  0  0  0  0  0  0  0  0  0  0  0
  -39.7376   60.1288   65.6414 C   0  0  0  0  0  0  0  0  0  0  0  0
  -42.2119   59.4420   65.1365 C   0  0  0  0  0  0  0  0  0  0  0  0
  -43.1779   58.2980   65.5076 C   0  0  0  0  0  0  0  0  0  0  0  0
  -44.5449   58.8281   65.4946 N   0  0  0  0  0  0  0  0  0  0  0  0
  -45.6553   58.3473   66.1138 C   0  0  0  0  0  0  0  0  0  0  0  0
  -44.6957   59.9932   64.7295 O   0  0  0  0  0  0  0  0  0  0  0  0
  -45.6065   57.3369   66.8149 O   0  0  0  0  0  0  0  0  0  0  0  0
  -45.6196   60.2864   64.7655 H   0  0  0  0  0  0  0  0  0  0  0  0
  -46.9870   59.0811   65.9239 C   0  0  0  0  0  0  0  0  0  0  0  0
  -47.8256   58.5800   64.7402 C   0  0  0  0  0  0  0  0  0  0  0  0
  -49.0287   57.7649   65.2524 C   0  0  0  0  0  0  0  0  0  0  0  0
  -50.3478   58.5604   65.2703 C   0  0  0  0  0  0  0  0  0  0  0  0
  -50.2640   59.9559   64.6240 C   0  0  0  0  0  0  0  0  0  0  0  0
  -51.1606   60.0941   63.3758 C   0  0  0  0  0  0  0  0  0  0  0  0
  -50.8745   59.0596   62.2624 C   0  0  0  0  0  0  0  0  0  0  0  0
  -49.4995   59.2334   61.6070 C   0  0  0  0  0  0  0  0  0  0  0  0
  -49.5116   59.3527   60.0798 C   0  0  0  0  0  0  0  0  0  0  0  0
  -49.8611   58.0090   59.4147 C   0  0  0  0  0  0  0  0  0  0  0  0
  -49.2534   56.7878   60.1212 C   0  0  0  0  0  0  0  0  0  0  0  0
  -48.2527   55.9713   59.2968 C   0  0  0  0  0  0  0  0  0  0  0  0
  -47.2013   56.8253   58.5452 C   0  0  0  0  0  0  0  0  0  0  0  0
  -47.3404   56.6763   57.0166 C   0  0  0  0  0  0  0  0  0  0  0  0
  -47.7403   57.9273   56.2251 C   0  0  0  0  0  0  0  0  0  0  0  0
 46 47  1  0  0  0
 46 48  1  0  0  0
 46 45  1  0  0  0
 47 49  2  0  0  0
 47 51  1  0  0  0
 19 20  2  0  0  0
 37 38  1  0  0  0
 37 39  1  0  0  0
 37 40  1  0  0  0
 37 41  1  0  0  0
 48 50  1  0  0  0
 38 29  1  0  0  0
 45 44  1  0  0  0
 25 27  1  0  0  0
 25 35  1  0  0  0
 25 28  1  0  0  0
 21 20  1  0  0  0
 21 22  1  0  0  0
 44 42  1  0  0  0
  2  1  1  0  0  0
  2  4  1  0  0  0
  2  5  1  0  0  0
 26 27  2  0  0  0
 42 43  2  0  0  0
 29 31  1  0  0  0
 29 36  1  0  0  0
  3  4  2  0  0  0
 43  1  1  0  0  0
  6  9  2  0  0  0
  6 10  1  0  0  0
  1 20  1  0  0  0
 30 36  2  0  0  0
  7  8  1  0  0  0
  7  9  1  0  0  0
 22 24  1  0  0  0
 22 23  1  0  0  0
 11 12  1  0  0  0
 11 18  1  0  0  0
 24 27  1  0  0  0
  4 10  1  0  0  0
 51 52  1  0  0  0
 52 53  1  0  0  0
 53 54  1  0  0  0
 54 55  1  0  0  0
 55 56  1  0  0  0
 56 57  1  0  0  0
 57 58  1  0  0  0
 58 59  1  0  0  0
 59 60  1  0  0  0
 60 61  1  0  0  0
 61 62  1  0  0  0
 62 63  1  0  0  0
 63 64  1  0  0  0
 64 65  1  0  0  0
 31 32  1  0  0  0
 32 33  1  0  0  0
 33 34  1  0  0  0
 34 35  1  0  0  0
 35 36  1  0  0  0
  8 10  1  0  0  0
  9 17  1  0  0  0
 12 13  2  0  0  0
 12 17  1  0  0  0
 13 14  1  0  0  0
 14 15  2  0  0  0
 15 16  1  0  0  0
 16 17  2  0  0  0
M  END
> <minimizedAffinity>
-9.06281

> <CNNscore>
0.1313926131

> <CNNaffinity>
7.1248674393

> <CNN_VS>
0.9361549616

> <CNNaffinity_variance>
0.4762127995

$$$$
/media/chris/experiments/cd1a-new-docking/inputs/ligands/1xz0_ligand.pdb


 65 67  0  0  0  0  0  0  0  0999 V2000
  -38.5209   58.8923   62.0233 C   0  0  0  0  0  0  0  0  0  0  0  0
  -37.6428   58.8261   60.8535 N   0  0  0  0  0  0  0  0  0  0  0  0
  -37.1505   58.7441   58.6345 O   0  0  0  0  0  0  0  0  0  0  0  0
  -37.9624   58.8143   59.5477 C   0  0  0  0  0  0  0  0  0  0  0  0
  -36.6793   58.7840   61.0517 H   0  0  0  0  0  0  0  0  0  0  0  0
  -40.1080   59.9510   60.0814 N   0  0  0  0  0  0  0  0  0  0  0  0
  -41.4731   58.1825   60.0519 O   0  0  0  0  0  0  0  0  0  0  0  0
  -40.3958   57.7998   59.1978 C   0  0  0  0  0  0  0  0  0  0  0  0
  -41.1930   59.5052   60.5519 C   0  0  0  0  0  0  0  0  0  0  0  0
  -39.4240   59.0120   59.1720 C   0  0  0  0  0  0  0  0  0  0  0  0
  -42.0286   62.2495   60.1417 O   0  0  0  0  0  0  0  0  0  0  0  0
  -42.4969   61.5846   61.2048 C   0  0  0  0  0  0  0  0  0  0  0  0
  -43.3872   62.2187   62.0813 C   0  0  0  0  0  0  0  0  0  0  0  0
  -43.8856   61.5456   63.2095 C   0  0  0  0  0  0  0  0  0  0  0  0
  -43.5073   60.2271   63.4685 C   0  0  0  0  0  0  0  0  0  0  0  0
  -42.6243   59.5880   62.5937 C   0  0  0  0  0  0  0  0  0  0  0  0
  -42.1162   60.2629   61.4671 C   0  0  0  0  0  0  0  0  0  0  0  0
  -42.2974   63.1336   59.9863 H   0  0  0  0  0  0  0  0  0  0  0  0
  -37.8985   61.0379   62.8863 O   0  0  0  0  0  0  0  0  0  0  0  0
  -37.8470   59.8253   63.0113 C   0  0  0  0  0  0  0  0  0  0  0  0
  -37.0529   59.2715   64.1130 O   0  0  0  0  0  0  0  0  0  0  0  0
  -36.0603   58.2537   63.8833 C   0  0  0  0  0  0  0  0  0  0  0  0
  -35.9344   57.2286   65.0035 C   0  0  0  0  0  0  0  0  0  0  0  0
  -34.7281   58.9360   63.6114 C   0  0  0  0  0  0  0  0  0  0  0  0
  -34.2068   60.5031   65.4193 N   0  0  0  0  0  0  0  0  0  0  0  0
  -33.2795   58.4412   65.3530 O   0  0  0  0  0  0  0  0  0  0  0  0
  -33.9803   59.3009   64.8700 C   0  0  0  0  0  0  0  0  0  0  0  0
  -33.7628   60.7065   66.2742 H   0  0  0  0  0  0  0  0  0  0  0  0
  -33.5095   63.3961   64.4198 N   0  0  0  0  0  0  0  0  0  0  0  0
  -34.6735   62.4970   62.7163 O   0  0  0  0  0  0  0  0  0  0  0  0
  -32.9097   63.3298   65.7606 C   0  0  0  0  0  0  0  0  0  0  0  0
  -33.9704   63.5943   66.8459 C   0  0  0  0  0  0  0  0  0  0  0  0
  -35.4029   63.6797   66.3458 C   0  0  0  0  0  0  0  0  0  0  0  0
  -35.9339   62.3437   65.8194 C   0  0  0  0  0  0  0  0  0  0  0  0
  -35.0697   61.5367   64.8361 C   0  0  0  0  0  0  0  0  0  0  0  0
  -34.3814   62.5148   63.9042 C   0  0  0  0  0  0  0  0  0  0  0  0
  -33.4190   64.3818   61.8617 Si  0  0  0  0  0  0  0  0  0  0  0  0
  -33.1398   64.4402   63.6265 O   0  0  0  0  0  0  0  0  0  0  0  0
  -32.9483   65.5829   61.2681 H   0  0  0  0  0  0  0  0  0  0  0  0
  -34.8089   64.2409   61.6067 H   0  0  0  0  0  0  0  0  0  0  0  0
  -32.7218   63.2754   61.3085 H   0  0  0  0  0  0  0  0  0  0  0  0
  -40.3835   57.5161   63.2606 C   0  0  0  0  0  0  0  0  0  0  0  0
  -38.9778   57.5519   62.6484 C   0  0  0  0  0  0  0  0  0  0  0  0
  -40.6832   56.3739   64.2461 C   0  0  0  0  0  0  0  0  0  0  0  0
  -42.1641   56.0373   64.5162 C   0  0  0  0  0  0  0  0  0  0  0  0
  -42.7511   57.1345   65.2918 N   0  0  0  0  0  0  0  0  0  0  0  0
  -44.0535   57.3551   65.6122 C   0  0  0  0  0  0  0  0  0  0  0  0
  -41.8137   58.0690   65.7540 O   0  0  0  0  0  0  0  0  0  0  0  0
  -44.9377   56.5762   65.2568 O   0  0  0  0  0  0  0  0  0  0  0  0
  -42.2693   58.7628   66.2560 H   0  0  0  0  0  0  0  0  0  0  0  0
  -44.4163   58.6021   66.4255 C   0  0  0  0  0  0  0  0  0  0  0  0
  -45.9233   58.8681   66.5428 C   0  0  0  0  0  0  0  0  0  0  0  0
  -46.3947   59.7605   65.3785 C   0  0  0  0  0  0  0  0  0  0  0  0
  -47.9169   59.7156   65.1464 C   0  0  0  0  0  0  0  0  0  0  0  0
  -48.5566   58.3298   65.3524 C   0  0  0  0  0  0  0  0  0  0  0  0
  -50.0605   58.3056   65.0075 C   0  0  0  0  0  0  0  0  0  0  0  0
  -50.3707   58.1686   63.4987 C   0  0  0  0  0  0  0  0  0  0  0  0
  -51.1774   59.3430   62.9328 C   0  0  0  0  0  0  0  0  0  0  0  0
  -50.4401   60.2118   61.9088 C   0  0  0  0  0  0  0  0  0  0  0  0
  -49.3136   59.4258   61.2135 C   0  0  0  0  0  0  0  0  0  0  0  0
  -49.7559   58.7084   59.9291 C   0  0  0  0  0  0  0  0  0  0  0  0
  -48.6353   58.3482   58.9482 C   0  0  0  0  0  0  0  0  0  0  0  0
  -49.0583   57.3567   57.8357 C   0  0  0  0  0  0  0  0  0  0  0  0
  -48.1889   57.5204   56.5724 C   0  0  0  0  0  0  0  0  0  0  0  0
  -46.9272   58.3825   56.6982 C   0  0  0  0  0  0  0  0  0  0  0  0
 46 47  1  0  0  0
 46 48  1  0  0  0
 46 45  1  0  0  0
 47 49  2  0  0  0
 47 51  1  0  0  0
 19 20  2  0  0  0
 37 38  1  0  0  0
 37 39  1  0  0  0
 37 40  1  0  0  0
 37 41  1  0  0  0
 48 50  1  0  0  0
 38 29  1  0  0  0
 45 44  1  0  0  0
 25 27  1  0  0  0
 25 35  1  0  0  0
 25 28  1  0  0  0
 21 20  1  0  0  0
 21 22  1  0  0  0
 44 42  1  0  0  0
  2  1  1  0  0  0
  2  4  1  0  0  0
  2  5  1  0  0  0
 26 27  2  0  0  0
 42 43  2  0  0  0
 29 31  1  0  0  0
 29 36  1  0  0  0
  3  4  2  0  0  0
 43  1  1  0  0  0
  6  9  2  0  0  0
  6 10  1  0  0  0
  1 20  1  0  0  0
 30 36  2  0  0  0
  7  8  1  0  0  0
  7  9  1  0  0  0
 22 24  1  0  0  0
 22 23  1  0  0  0
 11 12  1  0  0  0
 11 18  1  0  0  0
 24 27  1  0  0  0
  4 10  1  0  0  0
 51 52  1  0  0  0
 52 53  1  0  0  0
 53 54  1  0  0  0
 54 55  1  0  0  0
 55 56  1  0  0  0
 56 57  1  0  0  0
 57 58  1  0  0  0
 58 59  1  0  0  0
 59 60  1  0  0  0
 60 61  1  0  0  0
 61 62  1  0  0  0
 62 63  1  0  0  0
 63 64  1  0  0  0
 64 65  1  0  0  0
 31 32  1  0  0  0
 32 33  1  0  0  0
 33 34  1  0  0  0
 34 35  1  0  0  0
 35 36  1  0  0  0
  8 10  1  0  0  0
  9 17  1  0  0  0
 12 13  2  0  0  0
 12 17  1  0  0  0
 13 14  1  0  0  0
 14 15  2  0  0  0
 15 16  1  0  0  0
 16 17  2  0  0  0
M  END
> <minimizedAffinity>
-9.09113

> <CNNscore>
0.1290116012

> <CNNaffinity>
7.3257079124

> <CNN_VS>
0.9451013207

> <CNNaffinity_variance>
1.0919172764

$$$$
