/media/chris/experiments/cd1a-new-docking/inputs/ligands/1xz0_ligand.pdb


 65 67  0  0  0  0  0  0  0  0999 V2000
  -39.7760   59.8967   64.8390 C   0  0  0  0  0  0  0  0  0  0  0  0
  -38.7652   60.9041   65.1669 N   0  0  0  0  0  0  0  0  0  0  0  0
  -36.9986   59.6509   65.8607 O   0  0  0  0  0  0  0  0  0  0  0  0
  -37.5141   60.7367   65.6293 C   0  0  0  0  0  0  0  0  0  0  0  0
  -39.0418   61.8388   65.0287 H   0  0  0  0  0  0  0  0  0  0  0  0
  -36.6624   62.9501   64.8840 N   0  0  0  0  0  0  0  0  0  0  0  0
  -34.5212   62.7368   65.4855 O   0  0  0  0  0  0  0  0  0  0  0  0
  -35.2155   61.8535   66.3655 C   0  0  0  0  0  0  0  0  0  0  0  0
  -35.4930   63.3447   64.6114 C   0  0  0  0  0  0  0  0  0  0  0  0
  -36.7192   61.9817   65.9955 C   0  0  0  0  0  0  0  0  0  0  0  0
  -33.3061   65.2358   64.8072 O   0  0  0  0  0  0  0  0  0  0  0  0
  -34.0636   65.2375   63.7035 C   0  0  0  0  0  0  0  0  0  0  0  0
  -33.7758   66.1353   62.6671 C   0  0  0  0  0  0  0  0  0  0  0  0
  -34.5617   66.1634   61.5028 C   0  0  0  0  0  0  0  0  0  0  0  0
  -35.6384   65.2869   61.3572 C   0  0  0  0  0  0  0  0  0  0  0  0
  -35.9258   64.3849   62.3855 C   0  0  0  0  0  0  0  0  0  0  0  0
  -35.1454   64.3605   63.5574 C   0  0  0  0  0  0  0  0  0  0  0  0
  -32.5872   65.8320   64.8828 H   0  0  0  0  0  0  0  0  0  0  0  0
  -41.1483   60.8765   63.1384 O   0  0  0  0  0  0  0  0  0  0  0  0
  -40.1956   60.1628   63.4058 C   0  0  0  0  0  0  0  0  0  0  0  0
  -39.4905   59.4996   62.3040 O   0  0  0  0  0  0  0  0  0  0  0  0
  -38.4866   60.1882   61.5347 C   0  0  0  0  0  0  0  0  0  0  0  0
  -38.3938   59.7490   60.0786 C   0  0  0  0  0  0  0  0  0  0  0  0
  -37.1489   60.0306   62.2418 C   0  0  0  0  0  0  0  0  0  0  0  0
  -35.6490   58.3262   63.1592 N   0  0  0  0  0  0  0  0  0  0  0  0
  -37.4868   57.7525   61.9723 O   0  0  0  0  0  0  0  0  0  0  0  0
  -36.7425   58.5897   62.4290 C   0  0  0  0  0  0  0  0  0  0  0  0
  -35.4287   57.3819   63.3287 H   0  0  0  0  0  0  0  0  0  0  0  0
  -32.8395   59.3265   62.1788 N   0  0  0  0  0  0  0  0  0  0  0  0
  -34.0113   61.2213   62.4983 O   0  0  0  0  0  0  0  0  0  0  0  0
  -32.7087   57.8621   62.1953 C   0  0  0  0  0  0  0  0  0  0  0  0
  -32.4093   57.3577   63.6196 C   0  0  0  0  0  0  0  0  0  0  0  0
  -32.4928   58.4109   64.7119 C   0  0  0  0  0  0  0  0  0  0  0  0
  -33.9167   58.9254   64.9398 C   0  0  0  0  0  0  0  0  0  0  0  0
  -34.7577   59.3464   63.7232 C   0  0  0  0  0  0  0  0  0  0  0  0
  -33.8384   60.0329   62.7320 C   0  0  0  0  0  0  0  0  0  0  0  0
  -32.0497   61.7831   61.2484 Si  0  0  0  0  0  0  0  0  0  0  0  0
  -31.8645   60.0285   61.5364 O   0  0  0  0  0  0  0  0  0  0  0  0
  -30.9051   62.2742   60.5665 H   0  0  0  0  0  0  0  0  0  0  0  0
  -32.1846   62.4552   62.4919 H   0  0  0  0  0  0  0  0  0  0  0  0
  -33.2066   62.0134   60.4579 H   0  0  0  0  0  0  0  0  0  0  0  0
  -41.6914   58.3864   65.8109 C   0  0  0  0  0  0  0  0  0  0  0  0
  -40.9672   59.7383   65.8148 C   0  0  0  0  0  0  0  0  0  0  0  0
  -43.1011   58.3517   66.4250 C   0  0  0  0  0  0  0  0  0  0  0  0
  -43.9796   57.1207   66.1212 C   0  0  0  0  0  0  0  0  0  0  0  0
  -45.3819   57.5485   66.1074 N   0  0  0  0  0  0  0  0  0  0  0  0
  -45.9981   58.4361   65.2826 C   0  0  0  0  0  0  0  0  0  0  0  0
  -46.1717   56.9397   67.0928 O   0  0  0  0  0  0  0  0  0  0  0  0
  -45.3799   59.0048   64.3830 O   0  0  0  0  0  0  0  0  0  0  0  0
  -47.0823   57.2674   67.0255 H   0  0  0  0  0  0  0  0  0  0  0  0
  -47.4875   58.7306   65.4896 C   0  0  0  0  0  0  0  0  0  0  0  0
  -47.7851   59.7653   66.5832 C   0  0  0  0  0  0  0  0  0  0  0  0
  -49.0955   60.5102   66.2637 C   0  0  0  0  0  0  0  0  0  0  0  0
  -50.2411   59.5786   65.8244 C   0  0  0  0  0  0  0  0  0  0  0  0
  -51.1533   60.1574   64.7268 C   0  0  0  0  0  0  0  0  0  0  0  0
  -50.3789   60.5652   63.4559 C   0  0  0  0  0  0  0  0  0  0  0  0
  -50.0849   59.4004   62.4820 C   0  0  0  0  0  0  0  0  0  0  0  0
  -51.1777   58.3253   62.4694 C   0  0  0  0  0  0  0  0  0  0  0  0
  -50.9544   57.1750   61.4826 C   0  0  0  0  0  0  0  0  0  0  0  0
  -49.8073   57.4891   60.5049 C   0  0  0  0  0  0  0  0  0  0  0  0
  -48.9820   56.2592   60.0976 C   0  0  0  0  0  0  0  0  0  0  0  0
  -48.2819   56.3479   58.7375 C   0  0  0  0  0  0  0  0  0  0  0  0
  -48.7787   57.5094   57.8409 C   0  0  0  0  0  0  0  0  0  0  0  0
  -48.0255   57.5467   56.4957 C   0  0  0  0  0  0  0  0  0  0  0  0
  -46.8451   58.5188   56.3813 C   0  0  0  0  0  0  0  0  0  0  0  0
 46 47  1  0  0  0
 46 48  1  0  0  0
 46 45  1  0  0  0
 47 49  2  0  0  0
 47 51  1  0  0  0
 19 20  2  0  0  0
 37 38  1  0  0  0
 37 39  1  0  0  0
 37 40  1  0  0  0
 37 41  1  0  0  0
 48 50  1  0  0  0
 38 29  1  0  0  0
 45 44  1  0  0  0
 25 27  1  0  0  0
 25 35  1  0  0  0
 25 28  1  0  0  0
 21 20  1  0  0  0
 21 22  1  0  0  0
 44 42  1  0  0  0
  2  1  1  0  0  0
  2  4  1  0  0  0
  2  5  1  0  0  0
 26 27  2  0  0  0
 42 43  2  0  0  0
 29 31  1  0  0  0
 29 36  1  0  0  0
  3  4  2  0  0  0
 43  1  1  0  0  0
  6  9  2  0  0  0
  6 10  1  0  0  0
  1 20  1  0  0  0
 30 36  2  0  0  0
  7  8  1  0  0  0
  7  9  1  0  0  0
 22 24  1  0  0  0
 22 23  1  0  0  0
 11 12  1  0  0  0
 11 18  1  0  0  0
 24 27  1  0  0  0
  4 10  1  0  0  0
 51 52  1  0  0  0
 52 53  1  0  0  0
 53 54  1  0  0  0
 54 55  1  0  0  0
 55 56  1  0  0  0
 56 57  1  0  0  0
 57 58  1  0  0  0
 58 59  1  0  0  0
 59 60  1  0  0  0
 60 61  1  0  0  0
 61 62  1  0  0  0
 62 63  1  0  0  0
 63 64  1  0  0  0
 64 65  1  0  0  0
 31 32  1  0  0  0
 32 33  1  0  0  0
 33 34  1  0  0  0
 34 35  1  0  0  0
 35 36  1  0  0  0
  8 10  1  0  0  0
  9 17  1  0  0  0
 12 13  2  0  0  0
 12 17  1  0  0  0
 13 14  1  0  0  0
 14 15  2  0  0  0
 15 16  1  0  0  0
 16 17  2  0  0  0
M  END
> <minimizedAffinity>
-9.25627

> <CNNscore>
0.2739644647

> <CNNaffinity>
7.0825104713

> <CNN_VS>
1.9403561354

> <CNNaffinity_variance>
0.3725234866

$$$$
/media/chris/experiments/cd1a-new-docking/inputs/ligands/1xz0_ligand.pdb


 65 67  0  0  0  0  0  0  0  0999 V2000
  -40.1227   58.5815   63.9841 C   0  0  0  0  0  0  0  0  0  0  0  0
  -39.3831   59.7199   64.5328 N   0  0  0  0  0  0  0  0  0  0  0  0
  -37.6980   58.7256   65.6923 O   0  0  0  0  0  0  0  0  0  0  0  0
  -38.2834   59.7286   65.3060 C   0  0  0  0  0  0  0  0  0  0  0  0
  -39.7431   60.6067   64.3022 H   0  0  0  0  0  0  0  0  0  0  0  0
  -37.4188   61.9889   64.7372 N   0  0  0  0  0  0  0  0  0  0  0  0
  -35.6388   62.0472   66.0863 O   0  0  0  0  0  0  0  0  0  0  0  0
  -36.5261   61.1310   66.7266 C   0  0  0  0  0  0  0  0  0  0  0  0
  -36.2713   62.5012   64.8732 C   0  0  0  0  0  0  0  0  0  0  0  0
  -37.7935   61.0709   65.8296 C   0  0  0  0  0  0  0  0  0  0  0  0
  -33.8837   64.0388   65.4493 O   0  0  0  0  0  0  0  0  0  0  0  0
  -34.4863   64.2024   64.2653 C   0  0  0  0  0  0  0  0  0  0  0  0
  -33.9454   65.0944   63.3300 C   0  0  0  0  0  0  0  0  0  0  0  0
  -34.5643   65.2910   62.0841 C   0  0  0  0  0  0  0  0  0  0  0  0
  -35.7259   64.5901   61.7551 C   0  0  0  0  0  0  0  0  0  0  0  0
  -36.2660   63.6943   62.6822 C   0  0  0  0  0  0  0  0  0  0  0  0
  -35.6528   63.5018   63.9352 C   0  0  0  0  0  0  0  0  0  0  0  0
  -33.1038   64.5185   65.6482 H   0  0  0  0  0  0  0  0  0  0  0  0
  -41.3036   59.8526   62.3333 O   0  0  0  0  0  0  0  0  0  0  0  0
  -40.5027   58.9621   62.5658 C   0  0  0  0  0  0  0  0  0  0  0  0
  -39.9536   58.2060   61.4354 O   0  0  0  0  0  0  0  0  0  0  0  0
  -38.9441   58.7695   60.5767 C   0  0  0  0  0  0  0  0  0  0  0  0
  -38.9212   58.1949   59.1657 C   0  0  0  0  0  0  0  0  0  0  0  0
  -37.5926   58.6096   61.2566 C   0  0  0  0  0  0  0  0  0  0  0  0
  -35.9349   59.8453   62.5685 N   0  0  0  0  0  0  0  0  0  0  0  0
  -37.7815   60.8664   61.7543 O   0  0  0  0  0  0  0  0  0  0  0  0
  -37.1093   59.8746   61.9217 C   0  0  0  0  0  0  0  0  0  0  0  0
  -35.5982   60.6907   62.9441 H   0  0  0  0  0  0  0  0  0  0  0  0
  -33.7863   59.1782   64.7579 N   0  0  0  0  0  0  0  0  0  0  0  0
  -35.1313   57.3738   64.7470 O   0  0  0  0  0  0  0  0  0  0  0  0
  -33.3918   60.5069   64.2670 C   0  0  0  0  0  0  0  0  0  0  0  0
  -32.5883   60.3879   62.9582 C   0  0  0  0  0  0  0  0  0  0  0  0
  -32.5278   58.9928   62.3586 C   0  0  0  0  0  0  0  0  0  0  0  0
  -33.8844   58.5019   61.8464 C   0  0  0  0  0  0  0  0  0  0  0  0
  -35.1165   58.6419   62.7559 C   0  0  0  0  0  0  0  0  0  0  0  0
  -34.6820   58.3611   64.1811 C   0  0  0  0  0  0  0  0  0  0  0  0
  -31.8650   57.5509   65.8462 Si  0  0  0  0  0  0  0  0  0  0  0  0
  -33.1969   58.7418   65.9060 O   0  0  0  0  0  0  0  0  0  0  0  0
  -31.4278   57.2632   67.1663 H   0  0  0  0  0  0  0  0  0  0  0  0
  -30.7849   58.0860   65.0958 H   0  0  0  0  0  0  0  0  0  0  0  0
  -32.3247   56.3574   65.2292 H   0  0  0  0  0  0  0  0  0  0  0  0
  -42.1970   56.9797   64.1455 C   0  0  0  0  0  0  0  0  0  0  0  0
  -41.3062   58.0321   64.8171 C   0  0  0  0  0  0  0  0  0  0  0  0
  -43.5881   56.7520   64.7609 C   0  0  0  0  0  0  0  0  0  0  0  0
  -43.8038   57.2047   66.2196 C   0  0  0  0  0  0  0  0  0  0  0  0
  -44.9130   58.1631   66.2445 N   0  0  0  0  0  0  0  0  0  0  0  0
  -46.2227   57.9492   66.5390 C   0  0  0  0  0  0  0  0  0  0  0  0
  -44.5395   59.4737   65.9152 O   0  0  0  0  0  0  0  0  0  0  0  0
  -46.6311   56.8308   66.8508 O   0  0  0  0  0  0  0  0  0  0  0  0
  -45.3184   60.0507   65.9516 H   0  0  0  0  0  0  0  0  0  0  0  0
  -47.2000   59.1275   66.4725 C   0  0  0  0  0  0  0  0  0  0  0  0
  -48.0217   59.1997   65.1784 C   0  0  0  0  0  0  0  0  0  0  0  0
  -49.1144   58.1134   65.1846 C   0  0  0  0  0  0  0  0  0  0  0  0
  -50.0030   58.1277   63.9262 C   0  0  0  0  0  0  0  0  0  0  0  0
  -51.0520   59.2549   63.8946 C   0  0  0  0  0  0  0  0  0  0  0  0
  -50.9367   60.1471   62.6409 C   0  0  0  0  0  0  0  0  0  0  0  0
  -49.5505   60.1156   61.9560 C   0  0  0  0  0  0  0  0  0  0  0  0
  -49.6059   60.4116   60.4529 C   0  0  0  0  0  0  0  0  0  0  0  0
  -49.2723   59.2283   59.5389 C   0  0  0  0  0  0  0  0  0  0  0  0
  -50.0533   57.9660   59.9475 C   0  0  0  0  0  0  0  0  0  0  0  0
  -49.2069   56.6841   59.9516 C   0  0  0  0  0  0  0  0  0  0  0  0
  -47.7272   56.8623   59.5959 C   0  0  0  0  0  0  0  0  0  0  0  0
  -47.3302   56.2812   58.2159 C   0  0  0  0  0  0  0  0  0  0  0  0
  -46.9264   57.3951   57.2287 C   0  0  0  0  0  0  0  0  0  0  0  0
  -47.9454   57.7756   56.1480 C   0  0  0  0  0  0  0  0  0  0  0  0
 46 47  1  0  0  0
 46 48  1  0  0  0
 46 45  1  0  0  0
 47 49  2  0  0  0
 47 51  1  0  0  0
 19 20  2  0  0  0
 37 38  1  0  0  0
 37 39  1  0  0  0
 37 40  1  0  0  0
 37 41  1  0  0  0
 48 50  1  0  0  0
 38 29  1  0  0  0
 45 44  1  0  0  0
 25 27  1  0  0  0
 25 35  1  0  0  0
 25 28  1  0  0  0
 21 20  1  0  0  0
 21 22  1  0  0  0
 44 42  1  0  0  0
  2  1  1  0  0  0
  2  4  1  0  0  0
  2  5  1  0  0  0
 26 27  2  0  0  0
 42 43  2  0  0  0
 29 31  1  0  0  0
 29 36  1  0  0  0
  3  4  2  0  0  0
 43  1  1  0  0  0
  6  9  2  0  0  0
  6 10  1  0  0  0
  1 20  1  0  0  0
 30 36  2  0  0  0
  7  8  1  0  0  0
  7  9  1  0  0  0
 22 24  1  0  0  0
 22 23  1  0  0  0
 11 12  1  0  0  0
 11 18  1  0  0  0
 24 27  1  0  0  0
  4 10  1  0  0  0
 51 52  1  0  0  0
 52 53  1  0  0  0
 53 54  1  0  0  0
 54 55  1  0  0  0
 55 56  1  0  0  0
 56 57  1  0  0  0
 57 58  1  0  0  0
 58 59  1  0  0  0
 59 60  1  0  0  0
 60 61  1  0  0  0
 61 62  1  0  0  0
 62 63  1  0  0  0
 63 64  1  0  0  0
 64 65  1  0  0  0
 31 32  1  0  0  0
 32 33  1  0  0  0
 33 34  1  0  0  0
 34 35  1  0  0  0
 35 36  1  0  0  0
  8 10  1  0  0  0
  9 17  1  0  0  0
 12 13  2  0  0  0
 12 17  1  0  0  0
 13 14  1  0  0  0
 14 15  2  0  0  0
 15 16  1  0  0  0
 16 17  2  0  0  0
M  END
> <minimizedAffinity>
-9.49644

> <CNNscore>
0.2361164540

> <CNNaffinity>
7.4821891785

> <CNN_VS>
1.7666679621

> <CNNaffinity_variance>
0.3764221668

$$$$
/media/chris/experiments/cd1a-new-docking/inputs/ligands/1xz0_ligand.pdb


 65 67  0  0  0  0  0  0  0  0999 V2000
  -39.6650   59.7552   64.7422 C   0  0  0  0  0  0  0  0  0  0  0  0
  -38.8120   60.8729   65.1508 N   0  0  0  0  0  0  0  0  0  0  0  0
  -37.0268   59.8339   66.1028 O   0  0  0  0  0  0  0  0  0  0  0  0
  -37.6180   60.8521   65.7682 C   0  0  0  0  0  0  0  0  0  0  0  0
  -39.1636   61.7688   64.9436 H   0  0  0  0  0  0  0  0  0  0  0  0
  -36.6635   63.0199   65.0133 N   0  0  0  0  0  0  0  0  0  0  0  0
  -34.7832   63.0289   66.2201 O   0  0  0  0  0  0  0  0  0  0  0  0
  -35.6721   62.2057   66.9742 C   0  0  0  0  0  0  0  0  0  0  0  0
  -35.4797   63.4622   65.0347 C   0  0  0  0  0  0  0  0  0  0  0  0
  -37.0071   62.1839   66.1793 C   0  0  0  0  0  0  0  0  0  0  0  0
  -36.5868   63.9136   62.3951 O   0  0  0  0  0  0  0  0  0  0  0  0
  -35.4693   64.5619   62.7455 C   0  0  0  0  0  0  0  0  0  0  0  0
  -34.8718   65.4506   61.8421 C   0  0  0  0  0  0  0  0  0  0  0  0
  -33.6934   66.1360   62.1824 C   0  0  0  0  0  0  0  0  0  0  0  0
  -33.1045   65.9480   63.4340 C   0  0  0  0  0  0  0  0  0  0  0  0
  -33.7002   65.0673   64.3412 C   0  0  0  0  0  0  0  0  0  0  0  0
  -34.8763   64.3723   63.9997 C   0  0  0  0  0  0  0  0  0  0  0  0
  -36.9658   64.0564   61.5501 H   0  0  0  0  0  0  0  0  0  0  0  0
  -40.9636   61.1492   63.2910 O   0  0  0  0  0  0  0  0  0  0  0  0
  -40.2761   60.1484   63.4107 C   0  0  0  0  0  0  0  0  0  0  0  0
  -40.1016   59.2789   62.2425 O   0  0  0  0  0  0  0  0  0  0  0  0
  -40.0348   59.8196   60.9094 C   0  0  0  0  0  0  0  0  0  0  0  0
  -40.5767   58.8968   59.8248 C   0  0  0  0  0  0  0  0  0  0  0  0
  -38.5939   60.2151   60.6241 C   0  0  0  0  0  0  0  0  0  0  0  0
  -36.9471   58.4828   61.1563 N   0  0  0  0  0  0  0  0  0  0  0  0
  -37.8549   58.6405   59.0908 O   0  0  0  0  0  0  0  0  0  0  0  0
  -37.7262   59.0479   60.2226 C   0  0  0  0  0  0  0  0  0  0  0  0
  -36.4335   57.6828   60.9006 H   0  0  0  0  0  0  0  0  0  0  0  0
  -34.3838   59.3664   62.7387 N   0  0  0  0  0  0  0  0  0  0  0  0
  -35.8333   61.0575   63.0616 O   0  0  0  0  0  0  0  0  0  0  0  0
  -34.0181   58.0597   62.1723 C   0  0  0  0  0  0  0  0  0  0  0  0
  -34.5729   56.9148   63.0406 C   0  0  0  0  0  0  0  0  0  0  0  0
  -35.5091   57.3433   64.1585 C   0  0  0  0  0  0  0  0  0  0  0  0
  -36.8346   57.9114   63.6445 C   0  0  0  0  0  0  0  0  0  0  0  0
  -36.8061   58.9728   62.5323 C   0  0  0  0  0  0  0  0  0  0  0  0
  -35.6215   59.8850   62.7842 C   0  0  0  0  0  0  0  0  0  0  0  0
  -33.6981   61.2947   64.5650 Si  0  0  0  0  0  0  0  0  0  0  0  0
  -33.3747   60.1223   63.2548 O   0  0  0  0  0  0  0  0  0  0  0  0
  -32.4901   61.9500   64.9225 H   0  0  0  0  0  0  0  0  0  0  0  0
  -34.2176   60.6100   65.6953 H   0  0  0  0  0  0  0  0  0  0  0  0
  -34.6433   62.2554   64.1179 H   0  0  0  0  0  0  0  0  0  0  0  0
  -41.4269   57.9308   65.4215 C   0  0  0  0  0  0  0  0  0  0  0  0
  -40.6993   59.2351   65.7698 C   0  0  0  0  0  0  0  0  0  0  0  0
  -42.7300   57.6371   66.1840 C   0  0  0  0  0  0  0  0  0  0  0  0
  -43.8296   56.8533   65.4384 C   0  0  0  0  0  0  0  0  0  0  0  0
  -45.0847   57.6031   65.5498 N   0  0  0  0  0  0  0  0  0  0  0  0
  -45.4300   58.7846   64.9734 C   0  0  0  0  0  0  0  0  0  0  0  0
  -46.0418   56.9905   66.3709 O   0  0  0  0  0  0  0  0  0  0  0  0
  -44.6528   59.3812   64.2284 O   0  0  0  0  0  0  0  0  0  0  0  0
  -46.8421   57.5382   66.3987 H   0  0  0  0  0  0  0  0  0  0  0  0
  -46.8117   59.3780   65.2680 C   0  0  0  0  0  0  0  0  0  0  0  0
  -47.3767   60.2608   64.1470 C   0  0  0  0  0  0  0  0  0  0  0  0
  -48.7358   60.8495   64.5719 C   0  0  0  0  0  0  0  0  0  0  0  0
  -49.4162   60.0663   65.7107 C   0  0  0  0  0  0  0  0  0  0  0  0
  -50.7967   59.4846   65.3535 C   0  0  0  0  0  0  0  0  0  0  0  0
  -51.1776   59.7074   63.8748 C   0  0  0  0  0  0  0  0  0  0  0  0
  -50.8610   58.5139   62.9437 C   0  0  0  0  0  0  0  0  0  0  0  0
  -50.1191   58.9182   61.6645 C   0  0  0  0  0  0  0  0  0  0  0  0
  -49.0028   57.9657   61.2251 C   0  0  0  0  0  0  0  0  0  0  0  0
  -49.3866   57.2049   59.9428 C   0  0  0  0  0  0  0  0  0  0  0  0
  -48.4695   56.0137   59.6274 C   0  0  0  0  0  0  0  0  0  0  0  0
  -47.3269   56.2947   58.6459 C   0  0  0  0  0  0  0  0  0  0  0  0
  -47.6733   55.9997   57.1651 C   0  0  0  0  0  0  0  0  0  0  0  0
  -47.6659   57.2869   56.3159 C   0  0  0  0  0  0  0  0  0  0  0  0
  -47.3145   58.5961   57.0326 C   0  0  0  0  0  0  0  0  0  0  0  0
 46 47  1  0  0  0
 46 48  1  0  0  0
 46 45  1  0  0  0
 47 49  2  0  0  0
 47 51  1  0  0  0
 19 20  2  0  0  0
 37 38  1  0  0  0
 37 39  1  0  0  0
 37 40  1  0  0  0
 37 41  1  0  0  0
 48 50  1  0  0  0
 38 29  1  0  0  0
 45 44  1  0  0  0
 25 27  1  0  0  0
 25 35  1  0  0  0
 25 28  1  0  0  0
 21 20  1  0  0  0
 21 22  1  0  0  0
 44 42  1  0  0  0
  2  1  1  0  0  0
  2  4  1  0  0  0
  2  5  1  0  0  0
 26 27  2  0  0  0
 42 43  2  0  0  0
 29 31  1  0  0  0
 29 36  1  0  0  0
  3  4  2  0  0  0
 43  1  1  0  0  0
  6  9  2  0  0  0
  6 10  1  0  0  0
  1 20  1  0  0  0
 30 36  2  0  0  0
  7  8  1  0  0  0
  7  9  1  0  0  0
 22 24  1  0  0  0
 22 23  1  0  0  0
 11 12  1  0  0  0
 11 18  1  0  0  0
 24 27  1  0  0  0
  4 10  1  0  0  0
 51 52  1  0  0  0
 52 53  1  0  0  0
 53 54  1  0  0  0
 54 55  1  0  0  0
 55 56  1  0  0  0
 56 57  1  0  0  0
 57 58  1  0  0  0
 58 59  1  0  0  0
 59 60  1  0  0  0
 60 61  1  0  0  0
 61 62  1  0  0  0
 62 63  1  0  0  0
 63 64  1  0  0  0
 64 65  1  0  0  0
 31 32  1  0  0  0
 32 33  1  0  0  0
 33 34  1  0  0  0
 34 35  1  0  0  0
 35 36  1  0  0  0
  8 10  1  0  0  0
  9 17  1  0  0  0
 12 13  2  0  0  0
 12 17  1  0  0  0
 13 14  1  0  0  0
 14 15  2  0  0  0
 15 16  1  0  0  0
 16 17  2  0  0  0
M  END
> <minimizedAffinity>
-9.20335

> <CNNscore>
0.2186128795

> <CNNaffinity>
7.3935689926

> <CNN_VS>
1.6163294315

> <CNNaffinity_variance>
0.7555290461

$$$$
/media/chris/experiments/cd1a-new-docking/inputs/ligands/1xz0_ligand.pdb


 65 67  0  0  0  0  0  0  0  0999 V2000
  -41.6051   57.9696   62.7912 C   0  0  0  0  0  0  0  0  0  0  0  0
  -40.7284   58.3579   63.8979 N   0  0  0  0  0  0  0  0  0  0  0  0
  -40.5875   60.6166   63.6720 O   0  0  0  0  0  0  0  0  0  0  0  0
  -40.2963   59.5801   64.2540 C   0  0  0  0  0  0  0  0  0  0  0  0
  -40.4096   57.6172   64.4625 H   0  0  0  0  0  0  0  0  0  0  0  0
  -38.5857   60.9713   65.4022 N   0  0  0  0  0  0  0  0  0  0  0  0
  -36.9195   59.4863   65.5058 O   0  0  0  0  0  0  0  0  0  0  0  0
  -38.0956   58.6803   65.4458 C   0  0  0  0  0  0  0  0  0  0  0  0
  -37.3271   60.8682   65.4573 C   0  0  0  0  0  0  0  0  0  0  0  0
  -39.2886   59.6743   65.3906 C   0  0  0  0  0  0  0  0  0  0  0  0
  -36.9964   62.8579   63.3768 O   0  0  0  0  0  0  0  0  0  0  0  0
  -36.2641   62.9631   64.4924 C   0  0  0  0  0  0  0  0  0  0  0  0
  -35.3718   64.0336   64.6369 C   0  0  0  0  0  0  0  0  0  0  0  0
  -34.5850   64.1610   65.7940 C   0  0  0  0  0  0  0  0  0  0  0  0
  -34.6889   63.2249   66.8243 C   0  0  0  0  0  0  0  0  0  0  0  0
  -35.5823   62.1587   66.6877 C   0  0  0  0  0  0  0  0  0  0  0  0
  -36.3656   62.0234   65.5254 C   0  0  0  0  0  0  0  0  0  0  0  0
  -36.9115   63.4989   62.6986 H   0  0  0  0  0  0  0  0  0  0  0  0
  -41.4852   59.4263   60.8941 O   0  0  0  0  0  0  0  0  0  0  0  0
  -40.9698   58.5209   61.5289 C   0  0  0  0  0  0  0  0  0  0  0  0
  -39.7393   57.9166   61.0074 O   0  0  0  0  0  0  0  0  0  0  0  0
  -38.7037   58.7209   60.4120 C   0  0  0  0  0  0  0  0  0  0  0  0
  -38.4489   58.4336   58.9375 C   0  0  0  0  0  0  0  0  0  0  0  0
  -37.4336   58.5508   61.2318 C   0  0  0  0  0  0  0  0  0  0  0  0
  -35.8443   59.8274   62.5885 N   0  0  0  0  0  0  0  0  0  0  0  0
  -37.8057   60.7335   61.9201 O   0  0  0  0  0  0  0  0  0  0  0  0
  -37.0408   59.7985   61.9837 C   0  0  0  0  0  0  0  0  0  0  0  0
  -35.5708   60.6679   63.0219 H   0  0  0  0  0  0  0  0  0  0  0  0
  -33.5967   59.1634   64.6773 N   0  0  0  0  0  0  0  0  0  0  0  0
  -34.7684   57.2491   64.5108 O   0  0  0  0  0  0  0  0  0  0  0  0
  -33.3378   60.5636   64.3106 C   0  0  0  0  0  0  0  0  0  0  0  0
  -32.5549   60.6444   62.9865 C   0  0  0  0  0  0  0  0  0  0  0  0
  -32.3780   59.3237   62.2557 C   0  0  0  0  0  0  0  0  0  0  0  0
  -33.6939   58.7573   61.7159 C   0  0  0  0  0  0  0  0  0  0  0  0
  -34.9139   58.6943   62.6499 C   0  0  0  0  0  0  0  0  0  0  0  0
  -34.4249   58.3231   64.0363 C   0  0  0  0  0  0  0  0  0  0  0  0
  -33.4133   57.1076   66.4839 Si  0  0  0  0  0  0  0  0  0  0  0  0
  -32.9450   58.6786   65.7710 O   0  0  0  0  0  0  0  0  0  0  0  0
  -32.5874   56.8319   67.6056 H   0  0  0  0  0  0  0  0  0  0  0  0
  -33.2539   56.0819   65.5150 H   0  0  0  0  0  0  0  0  0  0  0  0
  -34.7707   57.1613   66.8973 H   0  0  0  0  0  0  0  0  0  0  0  0
  -43.5864   58.8322   64.2826 C   0  0  0  0  0  0  0  0  0  0  0  0
  -43.1110   58.3028   62.9241 C   0  0  0  0  0  0  0  0  0  0  0  0
  -45.0954   58.7529   64.5697 C   0  0  0  0  0  0  0  0  0  0  0  0
  -45.5295   58.2513   65.9623 C   0  0  0  0  0  0  0  0  0  0  0  0
  -46.9882   58.1029   65.9635 N   0  0  0  0  0  0  0  0  0  0  0  0
  -47.9462   59.0622   66.0618 C   0  0  0  0  0  0  0  0  0  0  0  0
  -47.4247   56.7759   65.8445 O   0  0  0  0  0  0  0  0  0  0  0  0
  -47.6483   60.2527   66.1563 O   0  0  0  0  0  0  0  0  0  0  0  0
  -48.3944   56.7526   65.8523 H   0  0  0  0  0  0  0  0  0  0  0  0
  -49.4197   58.6420   66.0599 C   0  0  0  0  0  0  0  0  0  0  0  0
  -50.4137   59.8097   65.9983 C   0  0  0  0  0  0  0  0  0  0  0  0
  -51.1771   59.7840   64.6600 C   0  0  0  0  0  0  0  0  0  0  0  0
  -50.8016   60.9417   63.7155 C   0  0  0  0  0  0  0  0  0  0  0  0
  -49.3313   60.9442   63.2572 C   0  0  0  0  0  0  0  0  0  0  0  0
  -49.0823   60.0377   62.0336 C   0  0  0  0  0  0  0  0  0  0  0  0
  -48.5063   58.6435   62.3744 C   0  0  0  0  0  0  0  0  0  0  0  0
  -49.5441   57.5182   62.2930 C   0  0  0  0  0  0  0  0  0  0  0  0
  -49.5881   56.7619   60.9615 C   0  0  0  0  0  0  0  0  0  0  0  0
  -50.5163   57.4594   59.9504 C   0  0  0  0  0  0  0  0  0  0  0  0
  -49.7717   58.2552   58.8678 C   0  0  0  0  0  0  0  0  0  0  0  0
  -48.2616   58.0100   58.7816 C   0  0  0  0  0  0  0  0  0  0  0  0
  -47.6202   58.4557   57.4438 C   0  0  0  0  0  0  0  0  0  0  0  0
  -47.7371   57.3574   56.3676 C   0  0  0  0  0  0  0  0  0  0  0  0
  -47.6941   55.9012   56.8461 C   0  0  0  0  0  0  0  0  0  0  0  0
 46 47  1  0  0  0
 46 48  1  0  0  0
 46 45  1  0  0  0
 47 49  2  0  0  0
 47 51  1  0  0  0
 19 20  2  0  0  0
 37 38  1  0  0  0
 37 39  1  0  0  0
 37 40  1  0  0  0
 37 41  1  0  0  0
 48 50  1  0  0  0
 38 29  1  0  0  0
 45 44  1  0  0  0
 25 27  1  0  0  0
 25 35  1  0  0  0
 25 28  1  0  0  0
 21 20  1  0  0  0
 21 22  1  0  0  0
 44 42  1  0  0  0
  2  1  1  0  0  0
  2  4  1  0  0  0
  2  5  1  0  0  0
 26 27  2  0  0  0
 42 43  2  0  0  0
 29 31  1  0  0  0
 29 36  1  0  0  0
  3  4  2  0  0  0
 43  1  1  0  0  0
  6  9  2  0  0  0
  6 10  1  0  0  0
  1 20  1  0  0  0
 30 36  2  0  0  0
  7  8  1  0  0  0
  7  9  1  0  0  0
 22 24  1  0  0  0
 22 23  1  0  0  0
 11 12  1  0  0  0
 11 18  1  0  0  0
 24 27  1  0  0  0
  4 10  1  0  0  0
 51 52  1  0  0  0
 52 53  1  0  0  0
 53 54  1  0  0  0
 54 55  1  0  0  0
 55 56  1  0  0  0
 56 57  1  0  0  0
 57 58  1  0  0  0
 58 59  1  0  0  0
 59 60  1  0  0  0
 60 61  1  0  0  0
 61 62  1  0  0  0
 62 63  1  0  0  0
 63 64  1  0  0  0
 64 65  1  0  0  0
 31 32  1  0  0  0
 32 33  1  0  0  0
 33 34  1  0  0  0
 34 35  1  0  0  0
 35 36  1  0  0  0
  8 10  1  0  0  0
  9 17  1  0  0  0
 12 13  2  0  0  0
 12 17  1  0  0  0
 13 14  1  0  0  0
 14 15  2  0  0  0
 15 16  1  0  0  0
 16 17  2  0  0  0
M  END
> <minimizedAffinity>
-9.63082

> <CNNscore>
0.2079095095

> <CNNaffinity>
7.4927902222

> <CNN_VS>
1.5578223467

> <CNNaffinity_variance>
0.6457799077

$$$$
/media/chris/experiments/cd1a-new-docking/inputs/ligands/1xz0_ligand.pdb


 65 67  0  0  0  0  0  0  0  0999 V2000
  -41.5880   58.6743   64.6971 C   0  0  0  0  0  0  0  0  0  0  0  0
  -40.2509   58.7105   65.2930 N   0  0  0  0  0  0  0  0  0  0  0  0
  -39.8605   60.9373   65.5413 O   0  0  0  0  0  0  0  0  0  0  0  0
  -39.5094   59.7706   65.6584 C   0  0  0  0  0  0  0  0  0  0  0  0
  -39.8351   57.8318   65.4484 H   0  0  0  0  0  0  0  0  0  0  0  0
  -37.3670   60.7638   66.4355 N   0  0  0  0  0  0  0  0  0  0  0  0
  -35.9489   59.6395   65.1252 O   0  0  0  0  0  0  0  0  0  0  0  0
  -37.0806   58.7762   65.2278 C   0  0  0  0  0  0  0  0  0  0  0  0
  -36.2313   60.8315   65.8850 C   0  0  0  0  0  0  0  0  0  0  0  0
  -38.0926   59.5114   66.1498 C   0  0  0  0  0  0  0  0  0  0  0  0
  -36.9875   63.6227   66.0701 O   0  0  0  0  0  0  0  0  0  0  0  0
  -35.6903   63.2998   66.1398 C   0  0  0  0  0  0  0  0  0  0  0  0
  -34.7339   64.3084   66.3158 C   0  0  0  0  0  0  0  0  0  0  0  0
  -33.3656   63.9963   66.3825 C   0  0  0  0  0  0  0  0  0  0  0  0
  -32.9387   62.6708   66.2840 C   0  0  0  0  0  0  0  0  0  0  0  0
  -33.8895   61.6604   66.1147 C   0  0  0  0  0  0  0  0  0  0  0  0
  -35.2609   61.9710   66.0387 C   0  0  0  0  0  0  0  0  0  0  0  0
  -37.2515   64.5190   66.1403 H   0  0  0  0  0  0  0  0  0  0  0  0
  -42.4091   59.0177   66.9204 O   0  0  0  0  0  0  0  0  0  0  0  0
  -42.5609   58.4672   65.8423 C   0  0  0  0  0  0  0  0  0  0  0  0
  -43.6806   57.5326   65.6885 O   0  0  0  0  0  0  0  0  0  0  0  0
  -44.9132   57.9365   65.0628 C   0  0  0  0  0  0  0  0  0  0  0  0
  -45.0031   59.4239   64.7444 C   0  0  0  0  0  0  0  0  0  0  0  0
  -46.0681   57.4941   65.9487 C   0  0  0  0  0  0  0  0  0  0  0  0
  -48.0304   58.9567   66.0251 N   0  0  0  0  0  0  0  0  0  0  0  0
  -46.3495   59.1733   67.5227 O   0  0  0  0  0  0  0  0  0  0  0  0
  -46.8340   58.6485   66.5463 C   0  0  0  0  0  0  0  0  0  0  0  0
  -48.5501   59.6694   66.4623 H   0  0  0  0  0  0  0  0  0  0  0  0
  -49.0066   60.1874   63.3070 N   0  0  0  0  0  0  0  0  0  0  0  0
  -47.6884   58.4721   62.6862 O   0  0  0  0  0  0  0  0  0  0  0  0
  -49.6497   61.0275   64.3281 C   0  0  0  0  0  0  0  0  0  0  0  0
  -50.9231   60.3498   64.8684 C   0  0  0  0  0  0  0  0  0  0  0  0
  -51.1490   58.9231   64.3962 C   0  0  0  0  0  0  0  0  0  0  0  0
  -50.1103   57.9401   64.9427 C   0  0  0  0  0  0  0  0  0  0  0  0
  -48.6198   58.3065   64.8490 C   0  0  0  0  0  0  0  0  0  0  0  0
  -48.3925   59.0138   63.5273 C   0  0  0  0  0  0  0  0  0  0  0  0
  -50.5816   60.9415   61.1917 Si  0  0  0  0  0  0  0  0  0  0  0  0
  -49.0275   60.6459   62.0243 O   0  0  0  0  0  0  0  0  0  0  0  0
  -50.3313   61.4123   59.8756 H   0  0  0  0  0  0  0  0  0  0  0  0
  -51.3254   61.9151   61.9093 H   0  0  0  0  0  0  0  0  0  0  0  0
  -51.3223   59.7316   61.1287 H   0  0  0  0  0  0  0  0  0  0  0  0
  -41.3699   56.2525   63.7066 C   0  0  0  0  0  0  0  0  0  0  0  0
  -41.8131   57.7074   63.5094 C   0  0  0  0  0  0  0  0  0  0  0  0
  -41.1796   55.4060   62.4366 C   0  0  0  0  0  0  0  0  0  0  0  0
  -41.2486   56.1345   61.0787 C   0  0  0  0  0  0  0  0  0  0  0  0
  -40.0276   56.9308   60.9215 N   0  0  0  0  0  0  0  0  0  0  0  0
  -39.8086   58.0153   60.1318 C   0  0  0  0  0  0  0  0  0  0  0  0
  -38.9550   56.4882   61.7084 O   0  0  0  0  0  0  0  0  0  0  0  0
  -40.7010   58.4758   59.4202 O   0  0  0  0  0  0  0  0  0  0  0  0
  -38.1848   57.0576   61.5549 H   0  0  0  0  0  0  0  0  0  0  0  0
  -38.4205   58.6643   60.1311 C   0  0  0  0  0  0  0  0  0  0  0  0
  -38.3927   60.1063   60.6557 C   0  0  0  0  0  0  0  0  0  0  0  0
  -37.9268   60.1256   62.1244 C   0  0  0  0  0  0  0  0  0  0  0  0
  -37.7176   61.5454   62.6845 C   0  0  0  0  0  0  0  0  0  0  0  0
  -36.2815   62.0841   62.5466 C   0  0  0  0  0  0  0  0  0  0  0  0
  -36.2097   63.6243   62.6074 C   0  0  0  0  0  0  0  0  0  0  0  0
  -34.7743   64.1997   62.6240 C   0  0  0  0  0  0  0  0  0  0  0  0
  -34.0942   64.1824   61.2502 C   0  0  0  0  0  0  0  0  0  0  0  0
  -32.6227   63.7564   61.2524 C   0  0  0  0  0  0  0  0  0  0  0  0
  -32.0769   63.6310   62.6866 C   0  0  0  0  0  0  0  0  0  0  0  0
  -31.6109   62.2140   63.0537 C   0  0  0  0  0  0  0  0  0  0  0  0
  -32.2769   61.0724   62.2785 C   0  0  0  0  0  0  0  0  0  0  0  0
  -32.6706   59.8552   63.1520 C   0  0  0  0  0  0  0  0  0  0  0  0
  -33.8908   59.1132   62.5699 C   0  0  0  0  0  0  0  0  0  0  0  0
  -34.0506   57.6331   62.9375 C   0  0  0  0  0  0  0  0  0  0  0  0
 46 47  1  0  0  0
 46 48  1  0  0  0
 46 45  1  0  0  0
 47 49  2  0  0  0
 47 51  1  0  0  0
 19 20  2  0  0  0
 37 38  1  0  0  0
 37 39  1  0  0  0
 37 40  1  0  0  0
 37 41  1  0  0  0
 48 50  1  0  0  0
 38 29  1  0  0  0
 45 44  1  0  0  0
 25 27  1  0  0  0
 25 35  1  0  0  0
 25 28  1  0  0  0
 21 20  1  0  0  0
 21 22  1  0  0  0
 44 42  1  0  0  0
  2  1  1  0  0  0
  2  4  1  0  0  0
  2  5  1  0  0  0
 26 27  2  0  0  0
 42 43  2  0  0  0
 29 31  1  0  0  0
 29 36  1  0  0  0
  3  4  2  0  0  0
 43  1  1  0  0  0
  6  9  2  0  0  0
  6 10  1  0  0  0
  1 20  1  0  0  0
 30 36  2  0  0  0
  7  8  1  0  0  0
  7  9  1  0  0  0
 22 24  1  0  0  0
 22 23  1  0  0  0
 11 12  1  0  0  0
 11 18  1  0  0  0
 24 27  1  0  0  0
  4 10  1  0  0  0
 51 52  1  0  0  0
 52 53  1  0  0  0
 53 54  1  0  0  0
 54 55  1  0  0  0
 55 56  1  0  0  0
 56 57  1  0  0  0
 57 58  1  0  0  0
 58 59  1  0  0  0
 59 60  1  0  0  0
 60 61  1  0  0  0
 61 62  1  0  0  0
 62 63  1  0  0  0
 63 64  1  0  0  0
 64 65  1  0  0  0
 31 32  1  0  0  0
 32 33  1  0  0  0
 33 34  1  0  0  0
 34 35  1  0  0  0
 35 36  1  0  0  0
  8 10  1  0  0  0
  9 17  1  0  0  0
 12 13  2  0  0  0
 12 17  1  0  0  0
 13 14  1  0  0  0
 14 15  2  0  0  0
 15 16  1  0  0  0
 16 17  2  0  0  0
M  END
> <minimizedAffinity>
-8.69301

> <CNNscore>
0.1814682335

> <CNNaffinity>
7.4000597000

> <CNN_VS>
1.3428757191

> <CNNaffinity_variance>
1.4855492115

$$$$
/media/chris/experiments/cd1a-new-docking/inputs/ligands/1xz0_ligand.pdb


 65 67  0  0  0  0  0  0  0  0999 V2000
  -39.2100   60.0376   64.7306 C   0  0  0  0  0  0  0  0  0  0  0  0
  -38.3863   61.2261   64.9614 N   0  0  0  0  0  0  0  0  0  0  0  0
  -36.6341   60.4105   66.1602 O   0  0  0  0  0  0  0  0  0  0  0  0
  -37.2200   61.3396   65.6203 C   0  0  0  0  0  0  0  0  0  0  0  0
  -38.7373   62.0625   64.5788 H   0  0  0  0  0  0  0  0  0  0  0  0
  -36.2596   63.3507   64.5190 N   0  0  0  0  0  0  0  0  0  0  0  0
  -34.4293   63.6127   65.7734 O   0  0  0  0  0  0  0  0  0  0  0  0
  -35.3388   62.9245   66.6312 C   0  0  0  0  0  0  0  0  0  0  0  0
  -35.0824   63.8107   64.5036 C   0  0  0  0  0  0  0  0  0  0  0  0
  -36.6406   62.7347   65.8042 C   0  0  0  0  0  0  0  0  0  0  0  0
  -36.5516   65.1469   62.3934 O   0  0  0  0  0  0  0  0  0  0  0  0
  -35.2136   65.1703   62.3625 C   0  0  0  0  0  0  0  0  0  0  0  0
  -34.5563   65.8488   61.3279 C   0  0  0  0  0  0  0  0  0  0  0  0
  -33.1529   65.8800   61.2678 C   0  0  0  0  0  0  0  0  0  0  0  0
  -32.3905   65.2414   62.2475 C   0  0  0  0  0  0  0  0  0  0  0  0
  -33.0415   64.5686   63.2853 C   0  0  0  0  0  0  0  0  0  0  0  0
  -34.4479   64.5281   63.3433 C   0  0  0  0  0  0  0  0  0  0  0  0
  -37.0432   65.5839   61.7261 H   0  0  0  0  0  0  0  0  0  0  0  0
  -40.4825   61.0789   62.9895 O   0  0  0  0  0  0  0  0  0  0  0  0
  -39.7508   60.1599   63.3187 C   0  0  0  0  0  0  0  0  0  0  0  0
  -39.4507   59.1193   62.3297 O   0  0  0  0  0  0  0  0  0  0  0  0
  -38.1141   58.9229   61.8308 C   0  0  0  0  0  0  0  0  0  0  0  0
  -37.9843   59.0181   60.3156 C   0  0  0  0  0  0  0  0  0  0  0  0
  -37.6031   57.5845   62.3425 C   0  0  0  0  0  0  0  0  0  0  0  0
  -36.0132   58.2588   64.0784 N   0  0  0  0  0  0  0  0  0  0  0  0
  -37.9215   57.1628   64.6002 O   0  0  0  0  0  0  0  0  0  0  0  0
  -37.1604   57.6300   63.7841 C   0  0  0  0  0  0  0  0  0  0  0  0
  -35.7655   58.3384   65.0278 H   0  0  0  0  0  0  0  0  0  0  0  0
  -32.8829   58.1226   63.8824 N   0  0  0  0  0  0  0  0  0  0  0  0
  -33.5835   57.5399   61.8245 O   0  0  0  0  0  0  0  0  0  0  0  0
  -33.1337   58.5376   65.2705 C   0  0  0  0  0  0  0  0  0  0  0  0
  -33.4015   60.0525   65.3465 C   0  0  0  0  0  0  0  0  0  0  0  0
  -33.5354   60.7558   64.0060 C   0  0  0  0  0  0  0  0  0  0  0  0
  -34.7871   60.3349   63.2315 C   0  0  0  0  0  0  0  0  0  0  0  0
  -35.1008   58.8367   63.0848 C   0  0  0  0  0  0  0  0  0  0  0  0
  -33.7900   58.0993   62.8927 C   0  0  0  0  0  0  0  0  0  0  0  0
  -31.3030   56.0262   63.0871 Si  0  0  0  0  0  0  0  0  0  0  0  0
  -31.6192   57.7164   63.5758 O   0  0  0  0  0  0  0  0  0  0  0  0
  -29.9174   55.8610   62.8237 H   0  0  0  0  0  0  0  0  0  0  0  0
  -32.0467   55.7252   61.9156 H   0  0  0  0  0  0  0  0  0  0  0  0
  -31.6934   55.1498   64.1339 H   0  0  0  0  0  0  0  0  0  0  0  0
  -41.2551   58.5578   65.4528 C   0  0  0  0  0  0  0  0  0  0  0  0
  -40.2950   59.7069   65.7840 C   0  0  0  0  0  0  0  0  0  0  0  0
  -42.5702   58.5000   66.2483 C   0  0  0  0  0  0  0  0  0  0  0  0
  -43.4556   57.2495   66.0700 C   0  0  0  0  0  0  0  0  0  0  0  0
  -44.8312   57.6917   65.8212 N   0  0  0  0  0  0  0  0  0  0  0  0
  -45.3266   58.3979   64.7708 C   0  0  0  0  0  0  0  0  0  0  0  0
  -45.7382   57.3185   66.8230 O   0  0  0  0  0  0  0  0  0  0  0  0
  -44.6004   58.7531   63.8427 O   0  0  0  0  0  0  0  0  0  0  0  0
  -46.6236   57.6421   66.5944 H   0  0  0  0  0  0  0  0  0  0  0  0
  -46.8160   58.7576   64.7551 C   0  0  0  0  0  0  0  0  0  0  0  0
  -47.1338   60.1720   65.2590 C   0  0  0  0  0  0  0  0  0  0  0  0
  -48.5576   60.2165   65.8462 C   0  0  0  0  0  0  0  0  0  0  0  0
  -49.2735   58.8525   65.8275 C   0  0  0  0  0  0  0  0  0  0  0  0
  -50.4428   58.7555   64.8299 C   0  0  0  0  0  0  0  0  0  0  0  0
  -51.1731   60.0998   64.6284 C   0  0  0  0  0  0  0  0  0  0  0  0
  -51.0844   60.6695   63.1934 C   0  0  0  0  0  0  0  0  0  0  0  0
  -49.8683   60.1623   62.4098 C   0  0  0  0  0  0  0  0  0  0  0  0
  -49.8130   60.5860   60.9387 C   0  0  0  0  0  0  0  0  0  0  0  0
  -49.4574   59.3983   60.0257 C   0  0  0  0  0  0  0  0  0  0  0  0
  -48.9131   58.1752   60.7789 C   0  0  0  0  0  0  0  0  0  0  0  0
  -48.1059   57.1806   59.9381 C   0  0  0  0  0  0  0  0  0  0  0  0
  -48.5175   57.1282   58.4456 C   0  0  0  0  0  0  0  0  0  0  0  0
  -47.3588   57.5608   57.5244 C   0  0  0  0  0  0  0  0  0  0  0  0
  -47.7105   57.9044   56.0720 C   0  0  0  0  0  0  0  0  0  0  0  0
 46 47  1  0  0  0
 46 48  1  0  0  0
 46 45  1  0  0  0
 47 49  2  0  0  0
 47 51  1  0  0  0
 19 20  2  0  0  0
 37 38  1  0  0  0
 37 39  1  0  0  0
 37 40  1  0  0  0
 37 41  1  0  0  0
 48 50  1  0  0  0
 38 29  1  0  0  0
 45 44  1  0  0  0
 25 27  1  0  0  0
 25 35  1  0  0  0
 25 28  1  0  0  0
 21 20  1  0  0  0
 21 22  1  0  0  0
 44 42  1  0  0  0
  2  1  1  0  0  0
  2  4  1  0  0  0
  2  5  1  0  0  0
 26 27  2  0  0  0
 42 43  2  0  0  0
 29 31  1  0  0  0
 29 36  1  0  0  0
  3  4  2  0  0  0
 43  1  1  0  0  0
  6  9  2  0  0  0
  6 10  1  0  0  0
  1 20  1  0  0  0
 30 36  2  0  0  0
  7  8  1  0  0  0
  7  9  1  0  0  0
 22 24  1  0  0  0
 22 23  1  0  0  0
 11 12  1  0  0  0
 11 18  1  0  0  0
 24 27  1  0  0  0
  4 10  1  0  0  0
 51 52  1  0  0  0
 52 53  1  0  0  0
 53 54  1  0  0  0
 54 55  1  0  0  0
 55 56  1  0  0  0
 56 57  1  0  0  0
 57 58  1  0  0  0
 58 59  1  0  0  0
 59 60  1  0  0  0
 60 61  1  0  0  0
 61 62  1  0  0  0
 62 63  1  0  0  0
 63 64  1  0  0  0
 64 65  1  0  0  0
 31 32  1  0  0  0
 32 33  1  0  0  0
 33 34  1  0  0  0
 34 35  1  0  0  0
 35 36  1  0  0  0
  8 10  1  0  0  0
  9 17  1  0  0  0
 12 13  2  0  0  0
 12 17  1  0  0  0
 13 14  1  0  0  0
 14 15  2  0  0  0
 15 16  1  0  0  0
 16 17  2  0  0  0
M  END
> <minimizedAffinity>
-8.72926

> <CNNscore>
0.1769233942

> <CNNaffinity>
7.2521543503

> <CNN_VS>
1.2830758095

> <CNNaffinity_variance>
0.4159096777

$$$$
/media/chris/experiments/cd1a-new-docking/inputs/ligands/1xz0_ligand.pdb


 65 67  0  0  0  0  0  0  0  0999 V2000
  -37.2353   58.5387   61.7591 C   0  0  0  0  0  0  0  0  0  0  0  0
  -35.8624   58.6334   62.2594 N   0  0  0  0  0  0  0  0  0  0  0  0
  -35.8507   57.1742   64.0040 O   0  0  0  0  0  0  0  0  0  0  0  0
  -35.2836   57.9881   63.2870 C   0  0  0  0  0  0  0  0  0  0  0  0
  -35.2791   59.2599   61.7731 H   0  0  0  0  0  0  0  0  0  0  0  0
  -33.8170   59.5159   64.5890 N   0  0  0  0  0  0  0  0  0  0  0  0
  -32.4006   60.1253   62.9721 O   0  0  0  0  0  0  0  0  0  0  0  0
  -32.8782   58.8491   62.5481 C   0  0  0  0  0  0  0  0  0  0  0  0
  -33.0465   60.4474   64.2199 C   0  0  0  0  0  0  0  0  0  0  0  0
  -33.8584   58.3737   63.6562 C   0  0  0  0  0  0  0  0  0  0  0  0
  -31.1804   62.5113   63.4108 O   0  0  0  0  0  0  0  0  0  0  0  0
  -31.8750   62.6775   64.5429 C   0  0  0  0  0  0  0  0  0  0  0  0
  -31.6990   63.8439   65.2988 C   0  0  0  0  0  0  0  0  0  0  0  0
  -32.4091   64.0377   66.4956 C   0  0  0  0  0  0  0  0  0  0  0  0
  -33.3110   63.0716   66.9451 C   0  0  0  0  0  0  0  0  0  0  0  0
  -33.4949   61.9091   66.1913 C   0  0  0  0  0  0  0  0  0  0  0  0
  -32.7781   61.7080   64.9960 C   0  0  0  0  0  0  0  0  0  0  0  0
  -30.5815   63.1738   63.1272 H   0  0  0  0  0  0  0  0  0  0  0  0
  -38.1062   60.6492   61.0362 O   0  0  0  0  0  0  0  0  0  0  0  0
  -37.8623   59.9036   61.9706 C   0  0  0  0  0  0  0  0  0  0  0  0
  -38.1268   60.3823   63.3314 O   0  0  0  0  0  0  0  0  0  0  0  0
  -37.1176   61.0727   64.0922 C   0  0  0  0  0  0  0  0  0  0  0  0
  -37.0612   60.6866   65.5651 C   0  0  0  0  0  0  0  0  0  0  0  0
  -37.3312   62.5695   63.9249 C   0  0  0  0  0  0  0  0  0  0  0  0
  -35.2627   63.8769   63.8351 N   0  0  0  0  0  0  0  0  0  0  0  0
  -36.4244   63.6540   65.7628 O   0  0  0  0  0  0  0  0  0  0  0  0
  -36.2622   63.4000   64.5912 C   0  0  0  0  0  0  0  0  0  0  0  0
  -34.6057   64.4699   64.2661 H   0  0  0  0  0  0  0  0  0  0  0  0
  -33.4068   65.2400   61.7014 N   0  0  0  0  0  0  0  0  0  0  0  0
  -32.9818   63.0422   61.4684 O   0  0  0  0  0  0  0  0  0  0  0  0
  -34.1072   66.3673   62.3343 C   0  0  0  0  0  0  0  0  0  0  0  0
  -35.5106   66.5479   61.7256 C   0  0  0  0  0  0  0  0  0  0  0  0
  -35.9470   65.4540   60.7652 C   0  0  0  0  0  0  0  0  0  0  0  0
  -36.1620   64.1036   61.4538 C   0  0  0  0  0  0  0  0  0  0  0  0
  -35.0792   63.5771   62.4103 C   0  0  0  0  0  0  0  0  0  0  0  0
  -33.7255   63.9424   61.8336 C   0  0  0  0  0  0  0  0  0  0  0  0
  -31.9650   64.5582   59.4697 Si  0  0  0  0  0  0  0  0  0  0  0  0
  -32.3325   65.5387   60.9186 O   0  0  0  0  0  0  0  0  0  0  0  0
  -30.8046   65.0719   58.8325 H   0  0  0  0  0  0  0  0  0  0  0  0
  -33.0624   64.6128   58.5703 H   0  0  0  0  0  0  0  0  0  0  0  0
  -31.7359   63.2110   59.8556 H   0  0  0  0  0  0  0  0  0  0  0  0
  -39.4272   57.1085   61.5490 C   0  0  0  0  0  0  0  0  0  0  0  0
  -38.1048   57.3691   62.2808 C   0  0  0  0  0  0  0  0  0  0  0  0
  -40.4802   56.2710   62.2940 C   0  0  0  0  0  0  0  0  0  0  0  0
  -40.8977   56.7417   63.7024 C   0  0  0  0  0  0  0  0  0  0  0  0
  -42.2397   57.3254   63.6132 N   0  0  0  0  0  0  0  0  0  0  0  0
  -43.1360   57.5669   64.6062 C   0  0  0  0  0  0  0  0  0  0  0  0
  -42.6229   57.6732   62.3102 O   0  0  0  0  0  0  0  0  0  0  0  0
  -42.8733   57.3031   65.7794 O   0  0  0  0  0  0  0  0  0  0  0  0
  -43.5162   58.0511   62.3258 H   0  0  0  0  0  0  0  0  0  0  0  0
  -44.4966   58.1728   64.2463 C   0  0  0  0  0  0  0  0  0  0  0  0
  -45.0509   59.1544   65.2877 C   0  0  0  0  0  0  0  0  0  0  0  0
  -46.4216   59.6905   64.8318 C   0  0  0  0  0  0  0  0  0  0  0  0
  -47.3470   60.0844   65.9988 C   0  0  0  0  0  0  0  0  0  0  0  0
  -48.6755   59.3074   66.0543 C   0  0  0  0  0  0  0  0  0  0  0  0
  -48.8642   58.3545   64.8553 C   0  0  0  0  0  0  0  0  0  0  0  0
  -50.3347   58.1527   64.4212 C   0  0  0  0  0  0  0  0  0  0  0  0
  -50.5249   58.1371   62.9001 C   0  0  0  0  0  0  0  0  0  0  0  0
  -49.5316   58.9914   62.1063 C   0  0  0  0  0  0  0  0  0  0  0  0
  -49.9930   59.1807   60.6497 C   0  0  0  0  0  0  0  0  0  0  0  0
  -48.8777   58.9815   59.6123 C   0  0  0  0  0  0  0  0  0  0  0  0
  -49.1670   57.9544   58.5127 C   0  0  0  0  0  0  0  0  0  0  0  0
  -48.2020   58.0285   57.3032 C   0  0  0  0  0  0  0  0  0  0  0  0
  -47.0956   56.9583   57.3969 C   0  0  0  0  0  0  0  0  0  0  0  0
  -47.1870   55.9566   58.5542 C   0  0  0  0  0  0  0  0  0  0  0  0
 46 47  1  0  0  0
 46 48  1  0  0  0
 46 45  1  0  0  0
 47 49  2  0  0  0
 47 51  1  0  0  0
 19 20  2  0  0  0
 37 38  1  0  0  0
 37 39  1  0  0  0
 37 40  1  0  0  0
 37 41  1  0  0  0
 48 50  1  0  0  0
 38 29  1  0  0  0
 45 44  1  0  0  0
 25 27  1  0  0  0
 25 35  1  0  0  0
 25 28  1  0  0  0
 21 20  1  0  0  0
 21 22  1  0  0  0
 44 42  1  0  0  0
  2  1  1  0  0  0
  2  4  1  0  0  0
  2  5  1  0  0  0
 26 27  2  0  0  0
 42 43  2  0  0  0
 29 31  1  0  0  0
 29 36  1  0  0  0
  3  4  2  0  0  0
 43  1  1  0  0  0
  6  9  2  0  0  0
  6 10  1  0  0  0
  1 20  1  0  0  0
 30 36  2  0  0  0
  7  8  1  0  0  0
  7  9  1  0  0  0
 22 24  1  0  0  0
 22 23  1  0  0  0
 11 12  1  0  0  0
 11 18  1  0  0  0
 24 27  1  0  0  0
  4 10  1  0  0  0
 51 52  1  0  0  0
 52 53  1  0  0  0
 53 54  1  0  0  0
 54 55  1  0  0  0
 55 56  1  0  0  0
 56 57  1  0  0  0
 57 58  1  0  0  0
 58 59  1  0  0  0
 59 60  1  0  0  0
 60 61  1  0  0  0
 61 62  1  0  0  0
 62 63  1  0  0  0
 63 64  1  0  0  0
 64 65  1  0  0  0
 31 32  1  0  0  0
 32 33  1  0  0  0
 33 34  1  0  0  0
 34 35  1  0  0  0
 35 36  1  0  0  0
  8 10  1  0  0  0
  9 17  1  0  0  0
 12 13  2  0  0  0
 12 17  1  0  0  0
 13 14  1  0  0  0
 14 15  2  0  0  0
 15 16  1  0  0  0
 16 17  2  0  0  0
M  END
> <minimizedAffinity>
-8.81138

> <CNNscore>
0.1647853702

> <CNNaffinity>
6.9181580544

> <CNN_VS>
1.1400111914

> <CNNaffinity_variance>
0.3964572549

$$$$
/media/chris/experiments/cd1a-new-docking/inputs/ligands/1xz0_ligand.pdb


 65 67  0  0  0  0  0  0  0  0999 V2000
  -40.0105   58.3785   63.6759 C   0  0  0  0  0  0  0  0  0  0  0  0
  -38.6643   58.2878   64.2448 N   0  0  0  0  0  0  0  0  0  0  0  0
  -37.5014   57.1784   62.6355 O   0  0  0  0  0  0  0  0  0  0  0  0
  -37.5564   57.7293   63.7271 C   0  0  0  0  0  0  0  0  0  0  0  0
  -38.5548   58.6944   65.1347 H   0  0  0  0  0  0  0  0  0  0  0  0
  -35.8806   59.0237   65.0295 N   0  0  0  0  0  0  0  0  0  0  0  0
  -34.0078   58.1266   64.2049 O   0  0  0  0  0  0  0  0  0  0  0  0
  -34.9880   57.1055   64.0221 C   0  0  0  0  0  0  0  0  0  0  0  0
  -34.6581   59.2605   64.8125 C   0  0  0  0  0  0  0  0  0  0  0  0
  -36.3111   57.6794   64.6004 C   0  0  0  0  0  0  0  0  0  0  0  0
  -32.3483   60.3183   63.4186 O   0  0  0  0  0  0  0  0  0  0  0  0
  -32.8395   60.9983   64.4618 C   0  0  0  0  0  0  0  0  0  0  0  0
  -32.2417   62.2060   64.8450 C   0  0  0  0  0  0  0  0  0  0  0  0
  -32.7325   62.9336   65.9421 C   0  0  0  0  0  0  0  0  0  0  0  0
  -33.8333   62.4668   66.6626 C   0  0  0  0  0  0  0  0  0  0  0  0
  -34.4373   61.2657   66.2803 C   0  0  0  0  0  0  0  0  0  0  0  0
  -33.9421   60.5298   65.1866 C   0  0  0  0  0  0  0  0  0  0  0  0
  -31.6094   60.6514   62.9484 H   0  0  0  0  0  0  0  0  0  0  0  0
  -40.9776   60.0223   62.2274 O   0  0  0  0  0  0  0  0  0  0  0  0
  -40.1192   59.7573   63.0529 C   0  0  0  0  0  0  0  0  0  0  0  0
  -39.1342   60.7902   63.3902 O   0  0  0  0  0  0  0  0  0  0  0  0
  -38.1856   61.2671   62.4172 C   0  0  0  0  0  0  0  0  0  0  0  0
  -38.1221   60.4414   61.1383 C   0  0  0  0  0  0  0  0  0  0  0  0
  -36.8201   61.3553   63.0820 C   0  0  0  0  0  0  0  0  0  0  0  0
  -35.9989   63.6429   63.3795 N   0  0  0  0  0  0  0  0  0  0  0  0
  -37.1817   62.6030   65.0026 O   0  0  0  0  0  0  0  0  0  0  0  0
  -36.6460   62.5991   63.9180 C   0  0  0  0  0  0  0  0  0  0  0  0
  -35.9463   64.4713   63.9087 H   0  0  0  0  0  0  0  0  0  0  0  0
  -33.0948   64.4737   62.5243 N   0  0  0  0  0  0  0  0  0  0  0  0
  -33.3795   62.4469   61.5882 O   0  0  0  0  0  0  0  0  0  0  0  0
  -33.5675   65.6115   63.3268 C   0  0  0  0  0  0  0  0  0  0  0  0
  -34.4497   66.5472   62.4789 C   0  0  0  0  0  0  0  0  0  0  0  0
  -34.7972   66.0313   61.0923 C   0  0  0  0  0  0  0  0  0  0  0  0
  -35.7152   64.8065   61.1220 C   0  0  0  0  0  0  0  0  0  0  0  0
  -35.3635   63.6372   62.0567 C   0  0  0  0  0  0  0  0  0  0  0  0
  -33.8563   63.4722   62.0553 C   0  0  0  0  0  0  0  0  0  0  0  0
  -31.0981   63.1140   61.2251 Si  0  0  0  0  0  0  0  0  0  0  0  0
  -31.7633   64.4269   62.2397 O   0  0  0  0  0  0  0  0  0  0  0  0
  -29.6968   63.2921   61.0794 H   0  0  0  0  0  0  0  0  0  0  0  0
  -31.7147   63.1452   59.9464 H   0  0  0  0  0  0  0  0  0  0  0  0
  -31.3542   61.8617   61.8436 H   0  0  0  0  0  0  0  0  0  0  0  0
  -41.8573   56.6509   64.3820 C   0  0  0  0  0  0  0  0  0  0  0  0
  -41.2001   58.0194   64.5990 C   0  0  0  0  0  0  0  0  0  0  0  0
  -43.2684   56.4578   64.9627 C   0  0  0  0  0  0  0  0  0  0  0  0
  -43.5957   57.1726   66.2898 C   0  0  0  0  0  0  0  0  0  0  0  0
  -44.7116   58.0937   66.0530 N   0  0  0  0  0  0  0  0  0  0  0  0
  -46.0126   57.9769   66.4291 C   0  0  0  0  0  0  0  0  0  0  0  0
  -44.3558   59.2458   65.3378 O   0  0  0  0  0  0  0  0  0  0  0  0
  -46.4052   57.0028   67.0711 O   0  0  0  0  0  0  0  0  0  0  0  0
  -45.1382   59.8067   65.2182 H   0  0  0  0  0  0  0  0  0  0  0  0
  -47.0004   59.0805   66.0363 C   0  0  0  0  0  0  0  0  0  0  0  0
  -47.8369   58.7700   64.7877 C   0  0  0  0  0  0  0  0  0  0  0  0
  -48.9220   57.7289   65.1239 C   0  0  0  0  0  0  0  0  0  0  0  0
  -50.3469   58.1853   64.7569 C   0  0  0  0  0  0  0  0  0  0  0  0
  -50.6875   59.6266   65.1793 C   0  0  0  0  0  0  0  0  0  0  0  0
  -51.1741   60.4980   64.0025 C   0  0  0  0  0  0  0  0  0  0  0  0
  -51.0722   59.8194   62.6165 C   0  0  0  0  0  0  0  0  0  0  0  0
  -49.8999   60.3312   61.7715 C   0  0  0  0  0  0  0  0  0  0  0  0
  -49.6207   59.5396   60.4900 C   0  0  0  0  0  0  0  0  0  0  0  0
  -50.0453   58.0670   60.6363 C   0  0  0  0  0  0  0  0  0  0  0  0
  -48.8879   57.0677   60.4893 C   0  0  0  0  0  0  0  0  0  0  0  0
  -47.9444   57.3111   59.3069 C   0  0  0  0  0  0  0  0  0  0  0  0
  -48.2308   56.4223   58.0709 C   0  0  0  0  0  0  0  0  0  0  0  0
  -48.1222   57.2262   56.7594 C   0  0  0  0  0  0  0  0  0  0  0  0
  -46.9667   58.2279   56.6463 C   0  0  0  0  0  0  0  0  0  0  0  0
 46 47  1  0  0  0
 46 48  1  0  0  0
 46 45  1  0  0  0
 47 49  2  0  0  0
 47 51  1  0  0  0
 19 20  2  0  0  0
 37 38  1  0  0  0
 37 39  1  0  0  0
 37 40  1  0  0  0
 37 41  1  0  0  0
 48 50  1  0  0  0
 38 29  1  0  0  0
 45 44  1  0  0  0
 25 27  1  0  0  0
 25 35  1  0  0  0
 25 28  1  0  0  0
 21 20  1  0  0  0
 21 22  1  0  0  0
 44 42  1  0  0  0
  2  1  1  0  0  0
  2  4  1  0  0  0
  2  5  1  0  0  0
 26 27  2  0  0  0
 42 43  2  0  0  0
 29 31  1  0  0  0
 29 36  1  0  0  0
  3  4  2  0  0  0
 43  1  1  0  0  0
  6  9  2  0  0  0
  6 10  1  0  0  0
  1 20  1  0  0  0
 30 36  2  0  0  0
  7  8  1  0  0  0
  7  9  1  0  0  0
 22 24  1  0  0  0
 22 23  1  0  0  0
 11 12  1  0  0  0
 11 18  1  0  0  0
 24 27  1  0  0  0
  4 10  1  0  0  0
 51 52  1  0  0  0
 52 53  1  0  0  0
 53 54  1  0  0  0
 54 55  1  0  0  0
 55 56  1  0  0  0
 56 57  1  0  0  0
 57 58  1  0  0  0
 58 59  1  0  0  0
 59 60  1  0  0  0
 60 61  1  0  0  0
 61 62  1  0  0  0
 62 63  1  0  0  0
 63 64  1  0  0  0
 64 65  1  0  0  0
 31 32  1  0  0  0
 32 33  1  0  0  0
 33 34  1  0  0  0
 34 35  1  0  0  0
 35 36  1  0  0  0
  8 10  1  0  0  0
  9 17  1  0  0  0
 12 13  2  0  0  0
 12 17  1  0  0  0
 13 14  1  0  0  0
 14 15  2  0  0  0
 15 16  1  0  0  0
 16 17  2  0  0  0
M  END
> <minimizedAffinity>
-8.85388

> <CNNscore>
0.1545992941

> <CNNaffinity>
6.9358086586

> <CNN_VS>
1.0722711086

> <CNNaffinity_variance>
0.2612296045

$$$$
/media/chris/experiments/cd1a-new-docking/inputs/ligands/1xz0_ligand.pdb


 65 67  0  0  0  0  0  0  0  0999 V2000
  -40.6681   59.1044   64.5606 C   0  0  0  0  0  0  0  0  0  0  0  0
  -39.6091   58.6998   63.6338 N   0  0  0  0  0  0  0  0  0  0  0  0
  -40.7653   57.7817   61.9038 O   0  0  0  0  0  0  0  0  0  0  0  0
  -39.7096   58.1000   62.4349 C   0  0  0  0  0  0  0  0  0  0  0  0
  -38.6914   58.8952   63.9317 H   0  0  0  0  0  0  0  0  0  0  0  0
  -37.2878   57.5927   62.6752 N   0  0  0  0  0  0  0  0  0  0  0  0
  -36.4834   58.8733   61.0305 O   0  0  0  0  0  0  0  0  0  0  0  0
  -37.8236   58.5958   60.6264 C   0  0  0  0  0  0  0  0  0  0  0  0
  -36.2616   58.2285   62.3005 C   0  0  0  0  0  0  0  0  0  0  0  0
  -38.4218   57.6877   61.7364 C   0  0  0  0  0  0  0  0  0  0  0  0
  -35.9947   58.1520   65.1850 O   0  0  0  0  0  0  0  0  0  0  0  0
  -34.8869   58.2125   64.4360 C   0  0  0  0  0  0  0  0  0  0  0  0
  -33.6308   58.2211   65.0564 C   0  0  0  0  0  0  0  0  0  0  0  0
  -32.4535   58.2937   64.2930 C   0  0  0  0  0  0  0  0  0  0  0  0
  -32.5186   58.3485   62.8996 C   0  0  0  0  0  0  0  0  0  0  0  0
  -33.7692   58.3338   62.2755 C   0  0  0  0  0  0  0  0  0  0  0  0
  -34.9511   58.2700   63.0384 C   0  0  0  0  0  0  0  0  0  0  0  0
  -35.9273   58.1143   66.1188 H   0  0  0  0  0  0  0  0  0  0  0  0
  -40.7164   60.9078   66.1357 O   0  0  0  0  0  0  0  0  0  0  0  0
  -40.0416   60.1019   65.5164 C   0  0  0  0  0  0  0  0  0  0  0  0
  -38.5831   60.1571   65.6608 O   0  0  0  0  0  0  0  0  0  0  0  0
  -37.8133   61.2297   65.0856 C   0  0  0  0  0  0  0  0  0  0  0  0
  -37.7960   61.2495   63.5621 C   0  0  0  0  0  0  0  0  0  0  0  0
  -36.4021   61.1632   65.6498 C   0  0  0  0  0  0  0  0  0  0  0  0
  -35.3655   63.3816   65.6510 N   0  0  0  0  0  0  0  0  0  0  0  0
  -36.3198   62.5339   67.5181 O   0  0  0  0  0  0  0  0  0  0  0  0
  -35.9864   62.4277   66.3600 C   0  0  0  0  0  0  0  0  0  0  0  0
  -35.1558   64.2280   66.1079 H   0  0  0  0  0  0  0  0  0  0  0  0
  -32.5165   63.3213   64.3338 N   0  0  0  0  0  0  0  0  0  0  0  0
  -33.5633   61.5358   63.4497 O   0  0  0  0  0  0  0  0  0  0  0  0
  -32.4786   64.5036   65.2071 C   0  0  0  0  0  0  0  0  0  0  0  0
  -33.1431   65.7109   64.5190 C   0  0  0  0  0  0  0  0  0  0  0  0
  -33.8449   65.4043   63.2063 C   0  0  0  0  0  0  0  0  0  0  0  0
  -35.0844   64.5229   63.3818 C   0  0  0  0  0  0  0  0  0  0  0  0
  -34.9766   63.2527   64.2419 C   0  0  0  0  0  0  0  0  0  0  0  0
  -33.6164   62.6310   63.9924 C   0  0  0  0  0  0  0  0  0  0  0  0
  -31.0938   61.1543   63.4371 Si  0  0  0  0  0  0  0  0  0  0  0  0
  -31.3278   62.8815   63.8343 O   0  0  0  0  0  0  0  0  0  0  0  0
  -29.7792   60.9575   62.9375 H   0  0  0  0  0  0  0  0  0  0  0  0
  -32.0383   60.7631   62.4516 H   0  0  0  0  0  0  0  0  0  0  0  0
  -31.2779   60.3705   64.6067 H   0  0  0  0  0  0  0  0  0  0  0  0
  -42.6989   57.4403   64.5409 C   0  0  0  0  0  0  0  0  0  0  0  0
  -41.4625   57.9808   65.2696 C   0  0  0  0  0  0  0  0  0  0  0  0
  -43.7222   56.6662   65.3891 C   0  0  0  0  0  0  0  0  0  0  0  0
  -44.4782   57.4491   66.4821 C   0  0  0  0  0  0  0  0  0  0  0  0
  -45.8396   57.7087   66.0035 N   0  0  0  0  0  0  0  0  0  0  0  0
  -46.3270   58.8030   65.3611 C   0  0  0  0  0  0  0  0  0  0  0  0
  -46.7403   56.6648   66.2576 O   0  0  0  0  0  0  0  0  0  0  0  0
  -45.6000   59.7579   65.0882 O   0  0  0  0  0  0  0  0  0  0  0  0
  -47.6163   56.9033   65.9161 H   0  0  0  0  0  0  0  0  0  0  0  0
  -47.8107   58.8398   64.9799 C   0  0  0  0  0  0  0  0  0  0  0  0
  -48.7271   59.4484   66.0499 C   0  0  0  0  0  0  0  0  0  0  0  0
  -50.2037   59.2205   65.6731 C   0  0  0  0  0  0  0  0  0  0  0  0
  -50.3936   58.2617   64.4823 C   0  0  0  0  0  0  0  0  0  0  0  0
  -51.1764   58.8578   63.2975 C   0  0  0  0  0  0  0  0  0  0  0  0
  -50.7004   60.2751   62.9158 C   0  0  0  0  0  0  0  0  0  0  0  0
  -49.4496   60.3089   62.0069 C   0  0  0  0  0  0  0  0  0  0  0  0
  -49.7834   60.3573   60.5114 C   0  0  0  0  0  0  0  0  0  0  0  0
  -49.0523   59.3288   59.6428 C   0  0  0  0  0  0  0  0  0  0  0  0
  -49.9096   58.0690   59.4232 C   0  0  0  0  0  0  0  0  0  0  0  0
  -49.2823   56.7835   59.9834 C   0  0  0  0  0  0  0  0  0  0  0  0
  -47.9412   56.3735   59.3662 C   0  0  0  0  0  0  0  0  0  0  0  0
  -48.0059   56.0689   57.8487 C   0  0  0  0  0  0  0  0  0  0  0  0
  -46.9199   56.8396   57.0710 C   0  0  0  0  0  0  0  0  0  0  0  0
  -47.2502   58.2749   56.6443 C   0  0  0  0  0  0  0  0  0  0  0  0
 46 47  1  0  0  0
 46 48  1  0  0  0
 46 45  1  0  0  0
 47 49  2  0  0  0
 47 51  1  0  0  0
 19 20  2  0  0  0
 37 38  1  0  0  0
 37 39  1  0  0  0
 37 40  1  0  0  0
 37 41  1  0  0  0
 48 50  1  0  0  0
 38 29  1  0  0  0
 45 44  1  0  0  0
 25 27  1  0  0  0
 25 35  1  0  0  0
 25 28  1  0  0  0
 21 20  1  0  0  0
 21 22  1  0  0  0
 44 42  1  0  0  0
  2  1  1  0  0  0
  2  4  1  0  0  0
  2  5  1  0  0  0
 26 27  2  0  0  0
 42 43  2  0  0  0
 29 31  1  0  0  0
 29 36  1  0  0  0
  3  4  2  0  0  0
 43  1  1  0  0  0
  6  9  2  0  0  0
  6 10  1  0  0  0
  1 20  1  0  0  0
 30 36  2  0  0  0
  7  8  1  0  0  0
  7  9  1  0  0  0
 22 24  1  0  0  0
 22 23  1  0  0  0
 11 12  1  0  0  0
 11 18  1  0  0  0
 24 27  1  0  0  0
  4 10  1  0  0  0
 51 52  1  0  0  0
 52 53  1  0  0  0
 53 54  1  0  0  0
 54 55  1  0  0  0
 55 56  1  0  0  0
 56 57  1  0  0  0
 57 58  1  0  0  0
 58 59  1  0  0  0
 59 60  1  0  0  0
 60 61  1  0  0  0
 61 62  1  0  0  0
 62 63  1  0  0  0
 63 64  1  0  0  0
 64 65  1  0  0  0
 31 32  1  0  0  0
 32 33  1  0  0  0
 33 34  1  0  0  0
 34 35  1  0  0  0
 35 36  1  0  0  0
  8 10  1  0  0  0
  9 17  1  0  0  0
 12 13  2  0  0  0
 12 17  1  0  0  0
 13 14  1  0  0  0
 14 15  2  0  0  0
 15 16  1  0  0  0
 16 17  2  0  0  0
M  END
> <minimizedAffinity>
-9.95621

> <CNNscore>
0.1511947960

> <CNNaffinity>
7.1307296753

> <CNN_VS>
1.0781291723

> <CNNaffinity_variance>
0.6301784515

$$$$
