/media/chris/experiments/cd1a-new-docking/inputs/ligands/1xz0_ligand.pdb


 65 67  0  0  0  0  0  0  0  0999 V2000
  -37.3348   57.5438   62.4480 C   0  0  0  0  0  0  0  0  0  0  0  0
  -36.9000   57.1243   63.7818 N   0  0  0  0  0  0  0  0  0  0  0  0
  -36.3697   57.4141   65.9744 O   0  0  0  0  0  0  0  0  0  0  0  0
  -36.7542   57.8564   64.8998 C   0  0  0  0  0  0  0  0  0  0  0  0
  -36.6831   56.1682   63.8729 H   0  0  0  0  0  0  0  0  0  0  0  0
  -36.0727   60.2423   65.0523 N   0  0  0  0  0  0  0  0  0  0  0  0
  -37.5844   60.9578   66.5338 O   0  0  0  0  0  0  0  0  0  0  0  0
  -38.2121   59.8344   65.9171 C   0  0  0  0  0  0  0  0  0  0  0  0
  -36.2771   61.1122   65.9463 C   0  0  0  0  0  0  0  0  0  0  0  0
  -37.2005   59.3108   64.8602 C   0  0  0  0  0  0  0  0  0  0  0  0
  -37.0080   63.9002   66.2460 O   0  0  0  0  0  0  0  0  0  0  0  0
  -35.7382   63.5388   66.4669 C   0  0  0  0  0  0  0  0  0  0  0  0
  -34.7998   64.5055   66.8514 C   0  0  0  0  0  0  0  0  0  0  0  0
  -33.4589   64.1533   67.0799 C   0  0  0  0  0  0  0  0  0  0  0  0
  -33.0433   62.8283   66.9363 C   0  0  0  0  0  0  0  0  0  0  0  0
  -33.9771   61.8591   66.5591 C   0  0  0  0  0  0  0  0  0  0  0  0
  -35.3196   62.2106   66.3209 C   0  0  0  0  0  0  0  0  0  0  0  0
  -37.2653   64.7951   66.3501 H   0  0  0  0  0  0  0  0  0  0  0  0
  -36.9500   59.6273   61.3317 O   0  0  0  0  0  0  0  0  0  0  0  0
  -36.5302   58.7834   62.1063 C   0  0  0  0  0  0  0  0  0  0  0  0
  -35.1830   58.9545   62.6601 O   0  0  0  0  0  0  0  0  0  0  0  0
  -34.0320   58.3647   62.0267 C   0  0  0  0  0  0  0  0  0  0  0  0
  -33.4577   57.1568   62.7568 C   0  0  0  0  0  0  0  0  0  0  0  0
  -32.9786   59.4468   61.8430 C   0  0  0  0  0  0  0  0  0  0  0  0
  -33.6915   61.7306   62.3645 N   0  0  0  0  0  0  0  0  0  0  0  0
  -32.8153   60.3850   63.9573 O   0  0  0  0  0  0  0  0  0  0  0  0
  -33.1330   60.5954   62.8092 C   0  0  0  0  0  0  0  0  0  0  0  0
  -33.9083   61.7891   61.4059 H   0  0  0  0  0  0  0  0  0  0  0  0
  -34.8615   64.5386   61.5890 N   0  0  0  0  0  0  0  0  0  0  0  0
  -36.1491   63.8679   63.3089 O   0  0  0  0  0  0  0  0  0  0  0  0
  -33.7531   64.3426   60.6430 C   0  0  0  0  0  0  0  0  0  0  0  0
  -32.4071   64.7069   61.2975 C   0  0  0  0  0  0  0  0  0  0  0  0
  -32.4689   65.0028   62.7869 C   0  0  0  0  0  0  0  0  0  0  0  0
  -32.8130   63.7708   63.6281 C   0  0  0  0  0  0  0  0  0  0  0  0
  -34.0022   62.8919   63.2061 C   0  0  0  0  0  0  0  0  0  0  0  0
  -35.0977   63.8023   62.6867 C   0  0  0  0  0  0  0  0  0  0  0  0
  -37.2100   65.7610   62.3060 Si  0  0  0  0  0  0  0  0  0  0  0  0
  -35.7320   65.5520   61.3222 O   0  0  0  0  0  0  0  0  0  0  0  0
  -37.9423   66.8799   61.8284 H   0  0  0  0  0  0  0  0  0  0  0  0
  -36.8491   65.9756   63.6626 H   0  0  0  0  0  0  0  0  0  0  0  0
  -38.0124   64.5935   62.2087 H   0  0  0  0  0  0  0  0  0  0  0  0
  -39.3185   57.8803   60.7610 C   0  0  0  0  0  0  0  0  0  0  0  0
  -38.8561   57.7075   62.2130 C   0  0  0  0  0  0  0  0  0  0  0  0
  -40.7232   58.4681   60.5445 C   0  0  0  0  0  0  0  0  0  0  0  0
  -40.8605   60.0046   60.5515 C   0  0  0  0  0  0  0  0  0  0  0  0
  -40.6255   60.4809   61.9181 N   0  0  0  0  0  0  0  0  0  0  0  0
  -41.5052   60.5944   62.9481 C   0  0  0  0  0  0  0  0  0  0  0  0
  -39.3001   60.8646   62.1665 O   0  0  0  0  0  0  0  0  0  0  0  0
  -41.1474   61.0160   64.0478 O   0  0  0  0  0  0  0  0  0  0  0  0
  -39.2177   61.1671   63.0845 H   0  0  0  0  0  0  0  0  0  0  0  0
  -42.9641   60.1814   62.7266 C   0  0  0  0  0  0  0  0  0  0  0  0
  -43.3528   58.8471   63.3778 C   0  0  0  0  0  0  0  0  0  0  0  0
  -43.9896   59.0983   64.7583 C   0  0  0  0  0  0  0  0  0  0  0  0
  -45.5069   58.8342   64.7929 C   0  0  0  0  0  0  0  0  0  0  0  0
  -46.3663   59.9488   64.1673 C   0  0  0  0  0  0  0  0  0  0  0  0
  -47.8763   59.7552   64.4194 C   0  0  0  0  0  0  0  0  0  0  0  0
  -48.6968   59.3981   63.1581 C   0  0  0  0  0  0  0  0  0  0  0  0
  -49.8898   58.4794   63.4463 C   0  0  0  0  0  0  0  0  0  0  0  0
  -51.0441   58.5697   62.4432 C   0  0  0  0  0  0  0  0  0  0  0  0
  -50.7612   57.7286   61.1852 C   0  0  0  0  0  0  0  0  0  0  0  0
  -50.1402   58.5271   60.0290 C   0  0  0  0  0  0  0  0  0  0  0  0
  -49.8710   57.7375   58.7438 C   0  0  0  0  0  0  0  0  0  0  0  0
  -48.4064   57.2576   58.5872 C   0  0  0  0  0  0  0  0  0  0  0  0
  -47.9300   57.3647   57.1244 C   0  0  0  0  0  0  0  0  0  0  0  0
  -47.0661   58.5770   56.7569 C   0  0  0  0  0  0  0  0  0  0  0  0
 46 47  1  0  0  0
 46 48  1  0  0  0
 46 45  1  0  0  0
 47 49  2  0  0  0
 47 51  1  0  0  0
 19 20  2  0  0  0
 37 38  1  0  0  0
 37 39  1  0  0  0
 37 40  1  0  0  0
 37 41  1  0  0  0
 48 50  1  0  0  0
 38 29  1  0  0  0
 45 44  1  0  0  0
 25 27  1  0  0  0
 25 35  1  0  0  0
 25 28  1  0  0  0
 21 20  1  0  0  0
 21 22  1  0  0  0
 44 42  1  0  0  0
  2  1  1  0  0  0
  2  4  1  0  0  0
  2  5  1  0  0  0
 26 27  2  0  0  0
 42 43  2  0  0  0
 29 31  1  0  0  0
 29 36  1  0  0  0
  3  4  2  0  0  0
 43  1  1  0  0  0
  6  9  2  0  0  0
  6 10  1  0  0  0
  1 20  1  0  0  0
 30 36  2  0  0  0
  7  8  1  0  0  0
  7  9  1  0  0  0
 22 24  1  0  0  0
 22 23  1  0  0  0
 11 12  1  0  0  0
 11 18  1  0  0  0
 24 27  1  0  0  0
  4 10  1  0  0  0
 51 52  1  0  0  0
 52 53  1  0  0  0
 53 54  1  0  0  0
 54 55  1  0  0  0
 55 56  1  0  0  0
 56 57  1  0  0  0
 57 58  1  0  0  0
 58 59  1  0  0  0
 59 60  1  0  0  0
 60 61  1  0  0  0
 61 62  1  0  0  0
 62 63  1  0  0  0
 63 64  1  0  0  0
 64 65  1  0  0  0
 31 32  1  0  0  0
 32 33  1  0  0  0
 33 34  1  0  0  0
 34 35  1  0  0  0
 35 36  1  0  0  0
  8 10  1  0  0  0
  9 17  1  0  0  0
 12 13  2  0  0  0
 12 17  1  0  0  0
 13 14  1  0  0  0
 14 15  2  0  0  0
 15 16  1  0  0  0
 16 17  2  0  0  0
M  END
> <minimizedAffinity>
-9.29020

> <CNNscore>
0.2174720317

> <CNNaffinity>
7.2727918625

> <CNN_VS>
1.5816287994

> <CNNaffinity_variance>
0.9005464315

$$$$
/media/chris/experiments/cd1a-new-docking/inputs/ligands/1xz0_ligand.pdb


 65 67  0  0  0  0  0  0  0  0999 V2000
  -40.0415   58.7499   65.6565 C   0  0  0  0  0  0  0  0  0  0  0  0
  -40.4427   60.1197   65.9834 N   0  0  0  0  0  0  0  0  0  0  0  0
  -41.4784   62.1143   65.6344 O   0  0  0  0  0  0  0  0  0  0  0  0
  -41.2060   60.9746   65.2807 C   0  0  0  0  0  0  0  0  0  0  0  0
  -40.1047   60.4643   66.8415 H   0  0  0  0  0  0  0  0  0  0  0  0
  -40.9157   59.7440   63.1402 N   0  0  0  0  0  0  0  0  0  0  0  0
  -41.8891   61.1977   61.7506 O   0  0  0  0  0  0  0  0  0  0  0  0
  -42.5036   61.4625   63.0111 C   0  0  0  0  0  0  0  0  0  0  0  0
  -40.9245   60.1436   61.9411 C   0  0  0  0  0  0  0  0  0  0  0  0
  -41.8684   60.4576   64.0118 C   0  0  0  0  0  0  0  0  0  0  0  0
  -38.1110   60.7059   61.5353 O   0  0  0  0  0  0  0  0  0  0  0  0
  -38.7281   59.8645   60.6969 C   0  0  0  0  0  0  0  0  0  0  0  0
  -38.0030   59.2651   59.6587 C   0  0  0  0  0  0  0  0  0  0  0  0
  -38.6299   58.3859   58.7597 C   0  0  0  0  0  0  0  0  0  0  0  0
  -39.9871   58.0882   58.8949 C   0  0  0  0  0  0  0  0  0  0  0  0
  -40.7134   58.6786   59.9328 C   0  0  0  0  0  0  0  0  0  0  0  0
  -40.0899   59.5669   60.8299 C   0  0  0  0  0  0  0  0  0  0  0  0
  -37.1987   60.8900   61.4270 H   0  0  0  0  0  0  0  0  0  0  0  0
  -38.2587   59.9186   64.5651 O   0  0  0  0  0  0  0  0  0  0  0  0
  -38.8522   58.8643   64.7220 C   0  0  0  0  0  0  0  0  0  0  0  0
  -38.4336   57.7043   63.9282 O   0  0  0  0  0  0  0  0  0  0  0  0
  -37.0479   57.3252   63.8286 C   0  0  0  0  0  0  0  0  0  0  0  0
  -36.2539   57.4859   65.1191 C   0  0  0  0  0  0  0  0  0  0  0  0
  -36.4151   58.1153   62.6930 C   0  0  0  0  0  0  0  0  0  0  0  0
  -35.3506   60.1789   63.4707 N   0  0  0  0  0  0  0  0  0  0  0  0
  -34.1576   58.2769   63.1977 O   0  0  0  0  0  0  0  0  0  0  0  0
  -35.1951   58.8940   63.1195 C   0  0  0  0  0  0  0  0  0  0  0  0
  -36.2443   60.5777   63.3630 H   0  0  0  0  0  0  0  0  0  0  0  0
  -35.4300   62.3351   65.7509 N   0  0  0  0  0  0  0  0  0  0  0  0
  -33.6640   61.0449   66.2823 O   0  0  0  0  0  0  0  0  0  0  0  0
  -36.5639   62.6920   64.8856 C   0  0  0  0  0  0  0  0  0  0  0  0
  -36.0855   63.5056   63.6682 C   0  0  0  0  0  0  0  0  0  0  0  0
  -34.5777   63.6112   63.5104 C   0  0  0  0  0  0  0  0  0  0  0  0
  -33.9160   62.2725   63.1726 C   0  0  0  0  0  0  0  0  0  0  0  0
  -34.2827   61.0322   64.0043 C   0  0  0  0  0  0  0  0  0  0  0  0
  -34.4516   61.4673   65.4467 C   0  0  0  0  0  0  0  0  0  0  0  0
  -33.8556   62.9173   67.9203 Si  0  0  0  0  0  0  0  0  0  0  0  0
  -35.3726   62.9313   66.9746 O   0  0  0  0  0  0  0  0  0  0  0  0
  -34.0575   63.5996   69.1491 H   0  0  0  0  0  0  0  0  0  0  0  0
  -32.8312   63.5662   67.1813 H   0  0  0  0  0  0  0  0  0  0  0  0
  -33.4731   61.5750   68.1815 H   0  0  0  0  0  0  0  0  0  0  0  0
  -42.5506   57.9789   65.7196 C   0  0  0  0  0  0  0  0  0  0  0  0
  -41.1413   57.7877   65.1458 C   0  0  0  0  0  0  0  0  0  0  0  0
  -43.5270   56.7997   65.5715 C   0  0  0  0  0  0  0  0  0  0  0  0
  -45.0352   57.1080   65.6709 C   0  0  0  0  0  0  0  0  0  0  0  0
  -45.3174   58.2918   64.8531 N   0  0  0  0  0  0  0  0  0  0  0  0
  -46.1550   59.3307   65.1115 C   0  0  0  0  0  0  0  0  0  0  0  0
  -44.6097   58.3291   63.6434 O   0  0  0  0  0  0  0  0  0  0  0  0
  -46.2817   60.2601   64.3145 O   0  0  0  0  0  0  0  0  0  0  0  0
  -44.8439   59.1347   63.1565 H   0  0  0  0  0  0  0  0  0  0  0  0
  -46.9456   59.3375   66.4241 C   0  0  0  0  0  0  0  0  0  0  0  0
  -48.1430   60.2974   66.4400 C   0  0  0  0  0  0  0  0  0  0  0  0
  -49.4395   59.5306   66.1157 C   0  0  0  0  0  0  0  0  0  0  0  0
  -50.2036   60.0988   64.9047 C   0  0  0  0  0  0  0  0  0  0  0  0
  -50.9301   59.0422   64.0515 C   0  0  0  0  0  0  0  0  0  0  0  0
  -49.9642   58.1866   63.2053 C   0  0  0  0  0  0  0  0  0  0  0  0
  -48.9067   58.9983   62.4215 C   0  0  0  0  0  0  0  0  0  0  0  0
  -49.2731   59.2155   60.9487 C   0  0  0  0  0  0  0  0  0  0  0  0
  -50.2638   58.2042   60.3635 C   0  0  0  0  0  0  0  0  0  0  0  0
  -49.6125   57.3582   59.2543 C   0  0  0  0  0  0  0  0  0  0  0  0
  -48.3450   56.6143   59.7017 C   0  0  0  0  0  0  0  0  0  0  0  0
  -47.2431   56.4819   58.6452 C   0  0  0  0  0  0  0  0  0  0  0  0
  -47.7506   56.0453   57.2482 C   0  0  0  0  0  0  0  0  0  0  0  0
  -47.8237   57.2394   56.2749 C   0  0  0  0  0  0  0  0  0  0  0  0
  -47.1190   58.5330   56.7004 C   0  0  0  0  0  0  0  0  0  0  0  0
 46 47  1  0  0  0
 46 48  1  0  0  0
 46 45  1  0  0  0
 47 49  2  0  0  0
 47 51  1  0  0  0
 19 20  2  0  0  0
 37 38  1  0  0  0
 37 39  1  0  0  0
 37 40  1  0  0  0
 37 41  1  0  0  0
 48 50  1  0  0  0
 38 29  1  0  0  0
 45 44  1  0  0  0
 25 27  1  0  0  0
 25 35  1  0  0  0
 25 28  1  0  0  0
 21 20  1  0  0  0
 21 22  1  0  0  0
 44 42  1  0  0  0
  2  1  1  0  0  0
  2  4  1  0  0  0
  2  5  1  0  0  0
 26 27  2  0  0  0
 42 43  2  0  0  0
 29 31  1  0  0  0
 29 36  1  0  0  0
  3  4  2  0  0  0
 43  1  1  0  0  0
  6  9  2  0  0  0
  6 10  1  0  0  0
  1 20  1  0  0  0
 30 36  2  0  0  0
  7  8  1  0  0  0
  7  9  1  0  0  0
 22 24  1  0  0  0
 22 23  1  0  0  0
 11 12  1  0  0  0
 11 18  1  0  0  0
 24 27  1  0  0  0
  4 10  1  0  0  0
 51 52  1  0  0  0
 52 53  1  0  0  0
 53 54  1  0  0  0
 54 55  1  0  0  0
 55 56  1  0  0  0
 56 57  1  0  0  0
 57 58  1  0  0  0
 58 59  1  0  0  0
 59 60  1  0  0  0
 60 61  1  0  0  0
 61 62  1  0  0  0
 62 63  1  0  0  0
 63 64  1  0  0  0
 64 65  1  0  0  0
 31 32  1  0  0  0
 32 33  1  0  0  0
 33 34  1  0  0  0
 34 35  1  0  0  0
 35 36  1  0  0  0
  8 10  1  0  0  0
  9 17  1  0  0  0
 12 13  2  0  0  0
 12 17  1  0  0  0
 13 14  1  0  0  0
 14 15  2  0  0  0
 15 16  1  0  0  0
 16 17  2  0  0  0
M  END
> <minimizedAffinity>
-9.44872

> <CNNscore>
0.1540833116

> <CNNaffinity>
7.5557389259

> <CNN_VS>
1.1642132998

> <CNNaffinity_variance>
1.2371792793

$$$$
/media/chris/experiments/cd1a-new-docking/inputs/ligands/1xz0_ligand.pdb


 65 67  0  0  0  0  0  0  0  0999 V2000
  -40.4215   57.5187   63.8898 C   0  0  0  0  0  0  0  0  0  0  0  0
  -40.7350   58.8659   63.4092 N   0  0  0  0  0  0  0  0  0  0  0  0
  -40.6963   61.1397   63.4456 O   0  0  0  0  0  0  0  0  0  0  0  0
  -40.3718   60.0571   63.9156 C   0  0  0  0  0  0  0  0  0  0  0  0
  -41.2920   58.9049   62.5983 H   0  0  0  0  0  0  0  0  0  0  0  0
  -38.6645   61.3389   65.1893 N   0  0  0  0  0  0  0  0  0  0  0  0
  -37.0438   59.8030   65.2713 O   0  0  0  0  0  0  0  0  0  0  0  0
  -38.2386   59.0352   65.1313 C   0  0  0  0  0  0  0  0  0  0  0  0
  -37.4118   61.1967   65.2803 C   0  0  0  0  0  0  0  0  0  0  0  0
  -39.4016   60.0649   65.0881 C   0  0  0  0  0  0  0  0  0  0  0  0
  -36.3332   62.0916   67.8166 O   0  0  0  0  0  0  0  0  0  0  0  0
  -35.9245   62.6939   66.6932 C   0  0  0  0  0  0  0  0  0  0  0  0
  -34.9788   63.7251   66.7648 C   0  0  0  0  0  0  0  0  0  0  0  0
  -34.5408   64.3795   65.6011 C   0  0  0  0  0  0  0  0  0  0  0  0
  -35.0360   64.0030   64.3513 C   0  0  0  0  0  0  0  0  0  0  0  0
  -35.9748   62.9704   64.2740 C   0  0  0  0  0  0  0  0  0  0  0  0
  -36.4222   62.3188   65.4393 C   0  0  0  0  0  0  0  0  0  0  0  0
  -35.9861   62.3594   68.6447 H   0  0  0  0  0  0  0  0  0  0  0  0
  -40.4193   55.7961   62.2261 O   0  0  0  0  0  0  0  0  0  0  0  0
  -39.8509   56.7639   62.7043 C   0  0  0  0  0  0  0  0  0  0  0  0
  -38.5504   57.1530   62.1489 O   0  0  0  0  0  0  0  0  0  0  0  0
  -38.3218   58.4784   61.6343 C   0  0  0  0  0  0  0  0  0  0  0  0
  -39.2500   58.8837   60.4959 C   0  0  0  0  0  0  0  0  0  0  0  0
  -36.8626   58.5858   61.2173 C   0  0  0  0  0  0  0  0  0  0  0  0
  -34.8098   59.0390   62.4728 N   0  0  0  0  0  0  0  0  0  0  0  0
  -36.2245   57.3888   63.0979 O   0  0  0  0  0  0  0  0  0  0  0  0
  -35.9009   58.2715   62.3366 C   0  0  0  0  0  0  0  0  0  0  0  0
  -34.6471   59.7286   61.7892 H   0  0  0  0  0  0  0  0  0  0  0  0
  -32.8374   61.1702   63.6655 N   0  0  0  0  0  0  0  0  0  0  0  0
  -33.8787   60.3210   65.4711 O   0  0  0  0  0  0  0  0  0  0  0  0
  -32.6011   61.2403   62.2160 C   0  0  0  0  0  0  0  0  0  0  0  0
  -31.6500   60.1160   61.7638 C   0  0  0  0  0  0  0  0  0  0  0  0
  -31.3096   59.0868   62.8289 C   0  0  0  0  0  0  0  0  0  0  0  0
  -32.5099   58.2286   63.2374 C   0  0  0  0  0  0  0  0  0  0  0  0
  -33.8410   58.9234   63.5690 C   0  0  0  0  0  0  0  0  0  0  0  0
  -33.5276   60.2118   64.3041 C   0  0  0  0  0  0  0  0  0  0  0  0
  -32.5608   62.1863   66.1983 Si  0  0  0  0  0  0  0  0  0  0  0  0
  -32.3174   62.1729   64.4272 O   0  0  0  0  0  0  0  0  0  0  0  0
  -31.9249   63.3274   66.7549 H   0  0  0  0  0  0  0  0  0  0  0  0
  -31.9998   61.0098   66.7620 H   0  0  0  0  0  0  0  0  0  0  0  0
  -33.9508   62.2321   66.4847 H   0  0  0  0  0  0  0  0  0  0  0  0
  -42.8842   57.4684   64.7990 C   0  0  0  0  0  0  0  0  0  0  0  0
  -41.5394   56.7497   64.6349 C   0  0  0  0  0  0  0  0  0  0  0  0
  -43.8338   56.9271   65.8811 C   0  0  0  0  0  0  0  0  0  0  0  0
  -45.3367   56.8595   65.5399 C   0  0  0  0  0  0  0  0  0  0  0  0
  -46.0458   57.8168   66.3945 N   0  0  0  0  0  0  0  0  0  0  0  0
  -46.4794   59.0707   66.0987 C   0  0  0  0  0  0  0  0  0  0  0  0
  -46.2978   57.3443   67.6902 O   0  0  0  0  0  0  0  0  0  0  0  0
  -47.0667   59.7556   66.9359 O   0  0  0  0  0  0  0  0  0  0  0  0
  -46.7668   58.0253   68.1973 H   0  0  0  0  0  0  0  0  0  0  0  0
  -46.2326   59.6286   64.6930 C   0  0  0  0  0  0  0  0  0  0  0  0
  -47.4496   59.5630   63.7604 C   0  0  0  0  0  0  0  0  0  0  0  0
  -48.2573   60.8720   63.8524 C   0  0  0  0  0  0  0  0  0  0  0  0
  -49.7518   60.6525   64.1550 C   0  0  0  0  0  0  0  0  0  0  0  0
  -50.0533   59.4340   65.0475 C   0  0  0  0  0  0  0  0  0  0  0  0
  -50.5375   58.2078   64.2454 C   0  0  0  0  0  0  0  0  0  0  0  0
  -51.1073   58.5402   62.8468 C   0  0  0  0  0  0  0  0  0  0  0  0
  -50.2098   58.0720   61.6954 C   0  0  0  0  0  0  0  0  0  0  0  0
  -49.8783   59.1388   60.6471 C   0  0  0  0  0  0  0  0  0  0  0  0
  -48.8978   58.6003   59.5894 C   0  0  0  0  0  0  0  0  0  0  0  0
  -48.9619   57.0773   59.3991 C   0  0  0  0  0  0  0  0  0  0  0  0
  -47.6516   56.4033   58.9787 C   0  0  0  0  0  0  0  0  0  0  0  0
  -47.5955   55.9984   57.4845 C   0  0  0  0  0  0  0  0  0  0  0  0
  -48.0304   57.1598   56.5676 C   0  0  0  0  0  0  0  0  0  0  0  0
  -47.0686   58.3469   56.4381 C   0  0  0  0  0  0  0  0  0  0  0  0
 46 47  1  0  0  0
 46 48  1  0  0  0
 46 45  1  0  0  0
 47 49  2  0  0  0
 47 51  1  0  0  0
 19 20  2  0  0  0
 37 38  1  0  0  0
 37 39  1  0  0  0
 37 40  1  0  0  0
 37 41  1  0  0  0
 48 50  1  0  0  0
 38 29  1  0  0  0
 45 44  1  0  0  0
 25 27  1  0  0  0
 25 35  1  0  0  0
 25 28  1  0  0  0
 21 20  1  0  0  0
 21 22  1  0  0  0
 44 42  1  0  0  0
  2  1  1  0  0  0
  2  4  1  0  0  0
  2  5  1  0  0  0
 26 27  2  0  0  0
 42 43  2  0  0  0
 29 31  1  0  0  0
 29 36  1  0  0  0
  3  4  2  0  0  0
 43  1  1  0  0  0
  6  9  2  0  0  0
  6 10  1  0  0  0
  1 20  1  0  0  0
 30 36  2  0  0  0
  7  8  1  0  0  0
  7  9  1  0  0  0
 22 24  1  0  0  0
 22 23  1  0  0  0
 11 12  1  0  0  0
 11 18  1  0  0  0
 24 27  1  0  0  0
  4 10  1  0  0  0
 51 52  1  0  0  0
 52 53  1  0  0  0
 53 54  1  0  0  0
 54 55  1  0  0  0
 55 56  1  0  0  0
 56 57  1  0  0  0
 57 58  1  0  0  0
 58 59  1  0  0  0
 59 60  1  0  0  0
 60 61  1  0  0  0
 61 62  1  0  0  0
 62 63  1  0  0  0
 63 64  1  0  0  0
 64 65  1  0  0  0
 31 32  1  0  0  0
 32 33  1  0  0  0
 33 34  1  0  0  0
 34 35  1  0  0  0
 35 36  1  0  0  0
  8 10  1  0  0  0
  9 17  1  0  0  0
 12 13  2  0  0  0
 12 17  1  0  0  0
 13 14  1  0  0  0
 14 15  2  0  0  0
 15 16  1  0  0  0
 16 17  2  0  0  0
M  END
> <minimizedAffinity>
-9.49619

> <CNNscore>
0.1490184218

> <CNNaffinity>
7.3128561974

> <CNN_VS>
1.0897502899

> <CNNaffinity_variance>
0.8087893724

$$$$
/media/chris/experiments/cd1a-new-docking/inputs/ligands/1xz0_ligand.pdb


 65 67  0  0  0  0  0  0  0  0999 V2000
  -41.9005   58.7435   65.2509 C   0  0  0  0  0  0  0  0  0  0  0  0
  -41.8198   57.2902   65.4103 N   0  0  0  0  0  0  0  0  0  0  0  0
  -42.0076   55.1205   64.7545 O   0  0  0  0  0  0  0  0  0  0  0  0
  -42.0943   56.3191   64.5221 C   0  0  0  0  0  0  0  0  0  0  0  0
  -41.5216   56.9794   66.2957 H   0  0  0  0  0  0  0  0  0  0  0  0
  -41.2196   56.9508   62.2825 N   0  0  0  0  0  0  0  0  0  0  0  0
  -42.4050   58.8138   61.9418 O   0  0  0  0  0  0  0  0  0  0  0  0
  -43.2094   58.0542   62.8432 C   0  0  0  0  0  0  0  0  0  0  0  0
  -41.2062   58.0592   61.6750 C   0  0  0  0  0  0  0  0  0  0  0  0
  -42.4304   56.7338   63.0970 C   0  0  0  0  0  0  0  0  0  0  0  0
  -39.5604   60.4051   62.1053 O   0  0  0  0  0  0  0  0  0  0  0  0
  -39.3460   59.6577   61.0157 C   0  0  0  0  0  0  0  0  0  0  0  0
  -38.3277   60.0129   60.1215 C   0  0  0  0  0  0  0  0  0  0  0  0
  -38.0889   59.2503   58.9658 C   0  0  0  0  0  0  0  0  0  0  0  0
  -38.8594   58.1177   58.6964 C   0  0  0  0  0  0  0  0  0  0  0  0
  -39.8724   57.7555   59.5887 C   0  0  0  0  0  0  0  0  0  0  0  0
  -40.1197   58.5229   60.7431 C   0  0  0  0  0  0  0  0  0  0  0  0
  -39.0299   61.1603   62.2673 H   0  0  0  0  0  0  0  0  0  0  0  0
  -40.2980   60.4754   65.6610 O   0  0  0  0  0  0  0  0  0  0  0  0
  -40.5089   59.2815   65.5249 C   0  0  0  0  0  0  0  0  0  0  0  0
  -39.3661   58.3631   65.5638 O   0  0  0  0  0  0  0  0  0  0  0  0
  -38.2649   58.4981   64.6456 C   0  0  0  0  0  0  0  0  0  0  0  0
  -38.2233   57.4419   63.5482 C   0  0  0  0  0  0  0  0  0  0  0  0
  -36.9714   58.5086   65.4465 C   0  0  0  0  0  0  0  0  0  0  0  0
  -36.1462   60.5671   64.4085 N   0  0  0  0  0  0  0  0  0  0  0  0
  -34.7841   58.7905   64.7301 O   0  0  0  0  0  0  0  0  0  0  0  0
  -35.8744   59.3111   64.7915 C   0  0  0  0  0  0  0  0  0  0  0  0
  -37.0732   60.8845   64.5050 H   0  0  0  0  0  0  0  0  0  0  0  0
  -34.0693   62.4156   65.8661 N   0  0  0  0  0  0  0  0  0  0  0  0
  -32.8475   61.3470   64.3070 O   0  0  0  0  0  0  0  0  0  0  0  0
  -35.3385   62.6979   66.5526 C   0  0  0  0  0  0  0  0  0  0  0  0
  -36.1810   63.7058   65.7480 C   0  0  0  0  0  0  0  0  0  0  0  0
  -35.6403   64.0489   64.3697 C   0  0  0  0  0  0  0  0  0  0  0  0
  -35.6924   62.8690   63.3955 C   0  0  0  0  0  0  0  0  0  0  0  0
  -35.1594   61.5020   63.8557 C   0  0  0  0  0  0  0  0  0  0  0  0
  -33.9322   61.7411   64.7132 C   0  0  0  0  0  0  0  0  0  0  0  0
  -32.7954   62.9320   68.2397 Si  0  0  0  0  0  0  0  0  0  0  0  0
  -32.9300   62.8710   66.4581 O   0  0  0  0  0  0  0  0  0  0  0  0
  -31.5198   63.4406   68.6010 H   0  0  0  0  0  0  0  0  0  0  0  0
  -32.9515   61.6245   68.7712 H   0  0  0  0  0  0  0  0  0  0  0  0
  -33.8081   63.7793   68.7621 H   0  0  0  0  0  0  0  0  0  0  0  0
  -44.3201   58.7154   66.2700 C   0  0  0  0  0  0  0  0  0  0  0  0
  -43.0160   59.4849   66.0269 C   0  0  0  0  0  0  0  0  0  0  0  0
  -45.5608   59.5483   66.6340 C   0  0  0  0  0  0  0  0  0  0  0  0
  -46.7375   58.8143   67.3095 C   0  0  0  0  0  0  0  0  0  0  0  0
  -47.3910   57.9705   66.3042 N   0  0  0  0  0  0  0  0  0  0  0  0
  -48.5567   58.1806   65.6373 C   0  0  0  0  0  0  0  0  0  0  0  0
  -46.6924   56.7909   66.0109 O   0  0  0  0  0  0  0  0  0  0  0  0
  -48.9747   57.3673   64.8133 O   0  0  0  0  0  0  0  0  0  0  0  0
  -47.1795   56.2845   65.3421 H   0  0  0  0  0  0  0  0  0  0  0  0
  -49.3528   59.4591   65.9196 C   0  0  0  0  0  0  0  0  0  0  0  0
  -50.7860   59.4498   65.3706 C   0  0  0  0  0  0  0  0  0  0  0  0
  -51.0708   60.7616   64.6142 C   0  0  0  0  0  0  0  0  0  0  0  0
  -50.8009   60.6698   63.1003 C   0  0  0  0  0  0  0  0  0  0  0  0
  -49.3292   60.4134   62.7257 C   0  0  0  0  0  0  0  0  0  0  0  0
  -49.1647   59.3091   61.6604 C   0  0  0  0  0  0  0  0  0  0  0  0
  -50.4940   58.7831   61.0710 C   0  0  0  0  0  0  0  0  0  0  0  0
  -50.3015   57.7026   60.0005 C   0  0  0  0  0  0  0  0  0  0  0  0
  -50.0771   56.2841   60.5337 C   0  0  0  0  0  0  0  0  0  0  0  0
  -48.6276   55.8201   60.3012 C   0  0  0  0  0  0  0  0  0  0  0  0
  -47.8075   56.7637   59.4084 C   0  0  0  0  0  0  0  0  0  0  0  0
  -47.0368   56.0956   58.2650 C   0  0  0  0  0  0  0  0  0  0  0  0
  -47.8069   56.0478   56.9217 C   0  0  0  0  0  0  0  0  0  0  0  0
  -48.1482   57.4640   56.4152 C   0  0  0  0  0  0  0  0  0  0  0  0
  -47.0461   58.5257   56.5108 C   0  0  0  0  0  0  0  0  0  0  0  0
 46 47  1  0  0  0
 46 48  1  0  0  0
 46 45  1  0  0  0
 47 49  2  0  0  0
 47 51  1  0  0  0
 19 20  2  0  0  0
 37 38  1  0  0  0
 37 39  1  0  0  0
 37 40  1  0  0  0
 37 41  1  0  0  0
 48 50  1  0  0  0
 38 29  1  0  0  0
 45 44  1  0  0  0
 25 27  1  0  0  0
 25 35  1  0  0  0
 25 28  1  0  0  0
 21 20  1  0  0  0
 21 22  1  0  0  0
 44 42  1  0  0  0
  2  1  1  0  0  0
  2  4  1  0  0  0
  2  5  1  0  0  0
 26 27  2  0  0  0
 42 43  2  0  0  0
 29 31  1  0  0  0
 29 36  1  0  0  0
  3  4  2  0  0  0
 43  1  1  0  0  0
  6  9  2  0  0  0
  6 10  1  0  0  0
  1 20  1  0  0  0
 30 36  2  0  0  0
  7  8  1  0  0  0
  7  9  1  0  0  0
 22 24  1  0  0  0
 22 23  1  0  0  0
 11 12  1  0  0  0
 11 18  1  0  0  0
 24 27  1  0  0  0
  4 10  1  0  0  0
 51 52  1  0  0  0
 52 53  1  0  0  0
 53 54  1  0  0  0
 54 55  1  0  0  0
 55 56  1  0  0  0
 56 57  1  0  0  0
 57 58  1  0  0  0
 58 59  1  0  0  0
 59 60  1  0  0  0
 60 61  1  0  0  0
 61 62  1  0  0  0
 62 63  1  0  0  0
 63 64  1  0  0  0
 64 65  1  0  0  0
 31 32  1  0  0  0
 32 33  1  0  0  0
 33 34  1  0  0  0
 34 35  1  0  0  0
 35 36  1  0  0  0
  8 10  1  0  0  0
  9 17  1  0  0  0
 12 13  2  0  0  0
 12 17  1  0  0  0
 13 14  1  0  0  0
 14 15  2  0  0  0
 15 16  1  0  0  0
 16 17  2  0  0  0
M  END
> <minimizedAffinity>
-10.26384

> <CNNscore>
0.1373885572

> <CNNaffinity>
7.4327383041

> <CNN_VS>
1.0211732388

> <CNNaffinity_variance>
1.1002619267

$$$$
/media/chris/experiments/cd1a-new-docking/inputs/ligands/1xz0_ligand.pdb


 65 67  0  0  0  0  0  0  0  0999 V2000
  -42.1379   58.9031   65.1817 C   0  0  0  0  0  0  0  0  0  0  0  0
  -41.8677   57.5069   65.5306 N   0  0  0  0  0  0  0  0  0  0  0  0
  -41.6970   55.2714   65.1475 O   0  0  0  0  0  0  0  0  0  0  0  0
  -41.9318   56.4080   64.7587 C   0  0  0  0  0  0  0  0  0  0  0  0
  -41.6006   57.3502   66.4652 H   0  0  0  0  0  0  0  0  0  0  0  0
  -40.9638   56.7193   62.4901 N   0  0  0  0  0  0  0  0  0  0  0  0
  -42.1631   58.4821   61.8222 O   0  0  0  0  0  0  0  0  0  0  0  0
  -42.9960   57.8466   62.7912 C   0  0  0  0  0  0  0  0  0  0  0  0
  -40.9405   57.7247   61.7244 C   0  0  0  0  0  0  0  0  0  0  0  0
  -42.2076   56.5976   63.2741 C   0  0  0  0  0  0  0  0  0  0  0  0
  -41.1913   57.8328   58.8396 O   0  0  0  0  0  0  0  0  0  0  0  0
  -40.0085   58.1219   59.3956 C   0  0  0  0  0  0  0  0  0  0  0  0
  -38.9292   58.4839   58.5789 C   0  0  0  0  0  0  0  0  0  0  0  0
  -37.6750   58.7827   59.1374 C   0  0  0  0  0  0  0  0  0  0  0  0
  -37.4886   58.7328   60.5200 C   0  0  0  0  0  0  0  0  0  0  0  0
  -38.5639   58.3784   61.3395 C   0  0  0  0  0  0  0  0  0  0  0  0
  -39.8196   58.0698   60.7821 C   0  0  0  0  0  0  0  0  0  0  0  0
  -41.2943   57.8744   57.9092 H   0  0  0  0  0  0  0  0  0  0  0  0
  -41.1811   60.8789   66.1389 O   0  0  0  0  0  0  0  0  0  0  0  0
  -41.0156   59.7210   65.7920 C   0  0  0  0  0  0  0  0  0  0  0  0
  -39.6736   59.1422   65.9136 O   0  0  0  0  0  0  0  0  0  0  0  0
  -38.8590   58.8888   64.7533 C   0  0  0  0  0  0  0  0  0  0  0  0
  -37.5764   58.1168   65.0374 C   0  0  0  0  0  0  0  0  0  0  0  0
  -38.5607   60.2186   64.0771 C   0  0  0  0  0  0  0  0  0  0  0  0
  -36.1474   60.5625   63.8459 N   0  0  0  0  0  0  0  0  0  0  0  0
  -37.3324   61.6226   65.4544 O   0  0  0  0  0  0  0  0  0  0  0  0
  -37.2640   60.8395   64.5349 C   0  0  0  0  0  0  0  0  0  0  0  0
  -36.2116   59.9058   63.1152 H   0  0  0  0  0  0  0  0  0  0  0  0
  -33.2993   59.7503   62.8049 N   0  0  0  0  0  0  0  0  0  0  0  0
  -33.4233   61.9582   62.3861 O   0  0  0  0  0  0  0  0  0  0  0  0
  -33.8617   58.4921   63.3174 C   0  0  0  0  0  0  0  0  0  0  0  0
  -33.6994   58.4056   64.8468 C   0  0  0  0  0  0  0  0  0  0  0  0
  -33.1829   59.6680   65.5168 C   0  0  0  0  0  0  0  0  0  0  0  0
  -34.1776   60.8300   65.4519 C   0  0  0  0  0  0  0  0  0  0  0  0
  -34.8365   61.1691   64.1044 C   0  0  0  0  0  0  0  0  0  0  0  0
  -33.8004   60.9783   63.0141 C   0  0  0  0  0  0  0  0  0  0  0  0
  -31.6957   61.0090   60.9698 Si  0  0  0  0  0  0  0  0  0  0  0  0
  -32.1745   59.6606   62.0415 O   0  0  0  0  0  0  0  0  0  0  0  0
  -30.4973   60.6692   60.2880 H   0  0  0  0  0  0  0  0  0  0  0  0
  -31.4829   62.1785   61.7467 H   0  0  0  0  0  0  0  0  0  0  0  0
  -32.7265   61.2504   60.0235 H   0  0  0  0  0  0  0  0  0  0  0  0
  -44.3822   58.6851   66.5269 C   0  0  0  0  0  0  0  0  0  0  0  0
  -43.5495   59.4557   65.4951 C   0  0  0  0  0  0  0  0  0  0  0  0
  -45.8983   58.9441   66.5295 C   0  0  0  0  0  0  0  0  0  0  0  0
  -46.6510   58.7769   65.1934 C   0  0  0  0  0  0  0  0  0  0  0  0
  -47.2331   60.0721   64.8283 N   0  0  0  0  0  0  0  0  0  0  0  0
  -48.3571   60.6701   65.3045 C   0  0  0  0  0  0  0  0  0  0  0  0
  -46.5067   60.7667   63.8509 O   0  0  0  0  0  0  0  0  0  0  0  0
  -48.7156   61.7729   64.8917 O   0  0  0  0  0  0  0  0  0  0  0  0
  -46.9466   61.6098   63.6592 H   0  0  0  0  0  0  0  0  0  0  0  0
  -49.1810   59.9523   66.3787 C   0  0  0  0  0  0  0  0  0  0  0  0
  -50.2143   58.9593   65.8293 C   0  0  0  0  0  0  0  0  0  0  0  0
  -51.1778   59.6783   64.8654 C   0  0  0  0  0  0  0  0  0  0  0  0
  -51.0652   59.1930   63.4077 C   0  0  0  0  0  0  0  0  0  0  0  0
  -50.9466   60.3194   62.3640 C   0  0  0  0  0  0  0  0  0  0  0  0
  -49.5292   60.4357   61.7650 C   0  0  0  0  0  0  0  0  0  0  0  0
  -49.4806   60.3973   60.2198 C   0  0  0  0  0  0  0  0  0  0  0  0
  -49.5780   58.9808   59.6415 C   0  0  0  0  0  0  0  0  0  0  0  0
  -48.8338   57.8983   60.4296 C   0  0  0  0  0  0  0  0  0  0  0  0
  -49.2211   56.4879   59.9488 C   0  0  0  0  0  0  0  0  0  0  0  0
  -48.0273   55.6366   59.4907 C   0  0  0  0  0  0  0  0  0  0  0  0
  -47.1003   56.2899   58.4604 C   0  0  0  0  0  0  0  0  0  0  0  0
  -47.5416   56.0879   56.9893 C   0  0  0  0  0  0  0  0  0  0  0  0
  -47.9928   57.4156   56.3472 C   0  0  0  0  0  0  0  0  0  0  0  0
  -47.1208   58.6499   56.6061 C   0  0  0  0  0  0  0  0  0  0  0  0
 46 47  1  0  0  0
 46 48  1  0  0  0
 46 45  1  0  0  0
 47 49  2  0  0  0
 47 51  1  0  0  0
 19 20  2  0  0  0
 37 38  1  0  0  0
 37 39  1  0  0  0
 37 40  1  0  0  0
 37 41  1  0  0  0
 48 50  1  0  0  0
 38 29  1  0  0  0
 45 44  1  0  0  0
 25 27  1  0  0  0
 25 35  1  0  0  0
 25 28  1  0  0  0
 21 20  1  0  0  0
 21 22  1  0  0  0
 44 42  1  0  0  0
  2  1  1  0  0  0
  2  4  1  0  0  0
  2  5  1  0  0  0
 26 27  2  0  0  0
 42 43  2  0  0  0
 29 31  1  0  0  0
 29 36  1  0  0  0
  3  4  2  0  0  0
 43  1  1  0  0  0
  6  9  2  0  0  0
  6 10  1  0  0  0
  1 20  1  0  0  0
 30 36  2  0  0  0
  7  8  1  0  0  0
  7  9  1  0  0  0
 22 24  1  0  0  0
 22 23  1  0  0  0
 11 12  1  0  0  0
 11 18  1  0  0  0
 24 27  1  0  0  0
  4 10  1  0  0  0
 51 52  1  0  0  0
 52 53  1  0  0  0
 53 54  1  0  0  0
 54 55  1  0  0  0
 55 56  1  0  0  0
 56 57  1  0  0  0
 57 58  1  0  0  0
 58 59  1  0  0  0
 59 60  1  0  0  0
 60 61  1  0  0  0
 61 62  1  0  0  0
 62 63  1  0  0  0
 63 64  1  0  0  0
 64 65  1  0  0  0
 31 32  1  0  0  0
 32 33  1  0  0  0
 33 34  1  0  0  0
 34 35  1  0  0  0
 35 36  1  0  0  0
  8 10  1  0  0  0
  9 17  1  0  0  0
 12 13  2  0  0  0
 12 17  1  0  0  0
 13 14  1  0  0  0
 14 15  2  0  0  0
 15 16  1  0  0  0
 16 17  2  0  0  0
M  END
> <minimizedAffinity>
-10.13645

> <CNNscore>
0.1348875463

> <CNNaffinity>
7.3377776146

> <CNN_VS>
0.9897748232

> <CNNaffinity_variance>
1.4255872965

$$$$
/media/chris/experiments/cd1a-new-docking/inputs/ligands/1xz0_ligand.pdb


 65 67  0  0  0  0  0  0  0  0999 V2000
  -40.1758   57.4550   62.5124 C   0  0  0  0  0  0  0  0  0  0  0  0
  -40.5853   57.5200   61.1080 N   0  0  0  0  0  0  0  0  0  0  0  0
  -41.2650   58.5423   59.1934 O   0  0  0  0  0  0  0  0  0  0  0  0
  -40.9216   58.5903   60.3673 C   0  0  0  0  0  0  0  0  0  0  0  0
  -40.6193   56.6552   60.6386 H   0  0  0  0  0  0  0  0  0  0  0  0
  -39.5398   60.0627   61.8175 N   0  0  0  0  0  0  0  0  0  0  0  0
  -41.1354   60.8320   63.1792 O   0  0  0  0  0  0  0  0  0  0  0  0
  -41.8373   60.4932   61.9837 C   0  0  0  0  0  0  0  0  0  0  0  0
  -39.7431   60.5164   62.9796 C   0  0  0  0  0  0  0  0  0  0  0  0
  -40.7605   59.9675   60.9944 C   0  0  0  0  0  0  0  0  0  0  0  0
  -39.6442   59.2321   65.5753 O   0  0  0  0  0  0  0  0  0  0  0  0
  -38.6751   60.0943   65.2448 C   0  0  0  0  0  0  0  0  0  0  0  0
  -37.6324   60.3435   66.1468 C   0  0  0  0  0  0  0  0  0  0  0  0
  -36.6085   61.2511   65.8274 C   0  0  0  0  0  0  0  0  0  0  0  0
  -36.6102   61.9123   64.5979 C   0  0  0  0  0  0  0  0  0  0  0  0
  -37.6448   61.6623   63.6920 C   0  0  0  0  0  0  0  0  0  0  0  0
  -38.6770   60.7600   64.0129 C   0  0  0  0  0  0  0  0  0  0  0  0
  -39.6221   58.7981   66.4055 H   0  0  0  0  0  0  0  0  0  0  0  0
  -38.2702   56.2236   61.7457 O   0  0  0  0  0  0  0  0  0  0  0  0
  -38.7101   57.0643   62.5126 C   0  0  0  0  0  0  0  0  0  0  0  0
  -37.7980   57.6535   63.4985 O   0  0  0  0  0  0  0  0  0  0  0  0
  -36.3690   57.5597   63.3470 C   0  0  0  0  0  0  0  0  0  0  0  0
  -35.5956   57.5130   64.6590 C   0  0  0  0  0  0  0  0  0  0  0  0
  -35.9023   58.7163   62.4757 C   0  0  0  0  0  0  0  0  0  0  0  0
  -34.2795   60.4537   63.0622 N   0  0  0  0  0  0  0  0  0  0  0  0
  -33.6518   58.2922   62.8396 O   0  0  0  0  0  0  0  0  0  0  0  0
  -34.4932   59.1596   62.7828 C   0  0  0  0  0  0  0  0  0  0  0  0
  -35.0420   61.0712   62.9812 H   0  0  0  0  0  0  0  0  0  0  0  0
  -33.5067   63.3941   63.8442 N   0  0  0  0  0  0  0  0  0  0  0  0
  -32.6822   62.1481   65.5274 O   0  0  0  0  0  0  0  0  0  0  0  0
  -34.2175   63.5423   62.5656 C   0  0  0  0  0  0  0  0  0  0  0  0
  -33.2763   63.2495   61.3818 C   0  0  0  0  0  0  0  0  0  0  0  0
  -31.9091   62.7041   61.7595 C   0  0  0  0  0  0  0  0  0  0  0  0
  -31.9712   61.2984   62.3630 C   0  0  0  0  0  0  0  0  0  0  0  0
  -32.9893   61.0141   63.4799 C   0  0  0  0  0  0  0  0  0  0  0  0
  -33.0651   62.2398   64.3690 C   0  0  0  0  0  0  0  0  0  0  0  0
  -33.8665   64.6604   66.2506 Si  0  0  0  0  0  0  0  0  0  0  0  0
  -33.2853   64.5287   64.5651 O   0  0  0  0  0  0  0  0  0  0  0  0
  -33.5115   65.9311   66.7758 H   0  0  0  0  0  0  0  0  0  0  0  0
  -33.2707   63.6397   67.0379 H   0  0  0  0  0  0  0  0  0  0  0  0
  -35.2787   64.5150   66.2770 H   0  0  0  0  0  0  0  0  0  0  0  0
  -42.5047   57.0370   63.6506 C   0  0  0  0  0  0  0  0  0  0  0  0
  -41.0448   56.6036   63.4695 C   0  0  0  0  0  0  0  0  0  0  0  0
  -43.2412   56.4977   64.8885 C   0  0  0  0  0  0  0  0  0  0  0  0
  -43.9336   57.5247   65.8080 C   0  0  0  0  0  0  0  0  0  0  0  0
  -43.9094   58.8297   65.1401 N   0  0  0  0  0  0  0  0  0  0  0  0
  -44.8596   59.4098   64.3601 C   0  0  0  0  0  0  0  0  0  0  0  0
  -42.7301   59.5568   65.3552 O   0  0  0  0  0  0  0  0  0  0  0  0
  -44.6860   60.5245   63.8677 O   0  0  0  0  0  0  0  0  0  0  0  0
  -42.7829   60.4046   64.8868 H   0  0  0  0  0  0  0  0  0  0  0  0
  -46.1685   58.6563   64.1013 C   0  0  0  0  0  0  0  0  0  0  0  0
  -47.4376   59.4612   64.4126 C   0  0  0  0  0  0  0  0  0  0  0  0
  -48.0899   58.9398   65.7075 C   0  0  0  0  0  0  0  0  0  0  0  0
  -49.2455   59.8242   66.2132 C   0  0  0  0  0  0  0  0  0  0  0  0
  -50.6322   59.4456   65.6602 C   0  0  0  0  0  0  0  0  0  0  0  0
  -51.1760   60.4753   64.6477 C   0  0  0  0  0  0  0  0  0  0  0  0
  -50.9774   60.0837   63.1649 C   0  0  0  0  0  0  0  0  0  0  0  0
  -51.1350   58.5811   62.9044 C   0  0  0  0  0  0  0  0  0  0  0  0
  -50.0042   57.9332   62.0993 C   0  0  0  0  0  0  0  0  0  0  0  0
  -50.5571   57.0584   60.9594 C   0  0  0  0  0  0  0  0  0  0  0  0
  -50.1584   57.5394   59.5559 C   0  0  0  0  0  0  0  0  0  0  0  0
  -48.9523   58.4823   59.4931 C   0  0  0  0  0  0  0  0  0  0  0  0
  -48.0038   58.2228   58.2961 C   0  0  0  0  0  0  0  0  0  0  0  0
  -47.5693   56.7446   58.2295 C   0  0  0  0  0  0  0  0  0  0  0  0
  -47.4070   56.1251   56.8363 C   0  0  0  0  0  0  0  0  0  0  0  0
 46 47  1  0  0  0
 46 48  1  0  0  0
 46 45  1  0  0  0
 47 49  2  0  0  0
 47 51  1  0  0  0
 19 20  2  0  0  0
 37 38  1  0  0  0
 37 39  1  0  0  0
 37 40  1  0  0  0
 37 41  1  0  0  0
 48 50  1  0  0  0
 38 29  1  0  0  0
 45 44  1  0  0  0
 25 27  1  0  0  0
 25 35  1  0  0  0
 25 28  1  0  0  0
 21 20  1  0  0  0
 21 22  1  0  0  0
 44 42  1  0  0  0
  2  1  1  0  0  0
  2  4  1  0  0  0
  2  5  1  0  0  0
 26 27  2  0  0  0
 42 43  2  0  0  0
 29 31  1  0  0  0
 29 36  1  0  0  0
  3  4  2  0  0  0
 43  1  1  0  0  0
  6  9  2  0  0  0
  6 10  1  0  0  0
  1 20  1  0  0  0
 30 36  2  0  0  0
  7  8  1  0  0  0
  7  9  1  0  0  0
 22 24  1  0  0  0
 22 23  1  0  0  0
 11 12  1  0  0  0
 11 18  1  0  0  0
 24 27  1  0  0  0
  4 10  1  0  0  0
 51 52  1  0  0  0
 52 53  1  0  0  0
 53 54  1  0  0  0
 54 55  1  0  0  0
 55 56  1  0  0  0
 56 57  1  0  0  0
 57 58  1  0  0  0
 58 59  1  0  0  0
 59 60  1  0  0  0
 60 61  1  0  0  0
 61 62  1  0  0  0
 62 63  1  0  0  0
 63 64  1  0  0  0
 64 65  1  0  0  0
 31 32  1  0  0  0
 32 33  1  0  0  0
 33 34  1  0  0  0
 34 35  1  0  0  0
 35 36  1  0  0  0
  8 10  1  0  0  0
  9 17  1  0  0  0
 12 13  2  0  0  0
 12 17  1  0  0  0
 13 14  1  0  0  0
 14 15  2  0  0  0
 15 16  1  0  0  0
 16 17  2  0  0  0
M  END
> <minimizedAffinity>
-9.13925

> <CNNscore>
0.1250918061

> <CNNaffinity>
7.1998200417

> <CNN_VS>
0.9006385207

> <CNNaffinity_variance>
0.8867349625

$$$$
/media/chris/experiments/cd1a-new-docking/inputs/ligands/1xz0_ligand.pdb


 65 67  0  0  0  0  0  0  0  0999 V2000
  -37.6548   58.2328   62.2845 C   0  0  0  0  0  0  0  0  0  0  0  0
  -37.3161   58.3023   60.8616 N   0  0  0  0  0  0  0  0  0  0  0  0
  -37.5353   59.0126   58.7121 O   0  0  0  0  0  0  0  0  0  0  0  0
  -37.8842   59.0311   59.8852 C   0  0  0  0  0  0  0  0  0  0  0  0
  -36.5639   57.7332   60.5793 H   0  0  0  0  0  0  0  0  0  0  0  0
  -39.0885   60.1603   61.7438 N   0  0  0  0  0  0  0  0  0  0  0  0
  -41.1927   59.8100   61.0790 O   0  0  0  0  0  0  0  0  0  0  0  0
  -40.4385   59.7716   59.8682 C   0  0  0  0  0  0  0  0  0  0  0  0
  -40.2735   60.0368   62.1660 C   0  0  0  0  0  0  0  0  0  0  0  0
  -38.9625   60.0300   60.2797 C   0  0  0  0  0  0  0  0  0  0  0  0
  -42.8767   60.9682   63.0337 O   0  0  0  0  0  0  0  0  0  0  0  0
  -41.9791   60.6078   63.9590 C   0  0  0  0  0  0  0  0  0  0  0  0
  -42.3197   60.6722   65.3165 C   0  0  0  0  0  0  0  0  0  0  0  0
  -41.3922   60.3086   66.3073 C   0  0  0  0  0  0  0  0  0  0  0  0
  -40.1167   59.8667   65.9515 C   0  0  0  0  0  0  0  0  0  0  0  0
  -39.7743   59.7946   64.5983 C   0  0  0  0  0  0  0  0  0  0  0  0
  -40.6986   60.1667   63.6035 C   0  0  0  0  0  0  0  0  0  0  0  0
  -43.7278   61.2602   63.2952 H   0  0  0  0  0  0  0  0  0  0  0  0
  -36.1971   57.8780   64.1511 O   0  0  0  0  0  0  0  0  0  0  0  0
  -36.3472   58.3635   63.0420 C   0  0  0  0  0  0  0  0  0  0  0  0
  -35.2476   59.1474   62.4698 O   0  0  0  0  0  0  0  0  0  0  0  0
  -33.9842   58.5383   62.1430 C   0  0  0  0  0  0  0  0  0  0  0  0
  -33.6504   57.2966   62.9606 C   0  0  0  0  0  0  0  0  0  0  0  0
  -32.8951   59.5922   62.2762 C   0  0  0  0  0  0  0  0  0  0  0  0
  -33.8417   61.8023   62.7405 N   0  0  0  0  0  0  0  0  0  0  0  0
  -33.0676   60.4860   64.4089 O   0  0  0  0  0  0  0  0  0  0  0  0
  -33.2563   60.7011   63.2335 C   0  0  0  0  0  0  0  0  0  0  0  0
  -33.9422   61.8686   61.7633 H   0  0  0  0  0  0  0  0  0  0  0  0
  -35.0200   64.5787   61.8697 N   0  0  0  0  0  0  0  0  0  0  0  0
  -36.5274   63.7840   63.3399 O   0  0  0  0  0  0  0  0  0  0  0  0
  -33.7666   64.4708   61.1086 C   0  0  0  0  0  0  0  0  0  0  0  0
  -32.5628   64.8738   61.9812 C   0  0  0  0  0  0  0  0  0  0  0  0
  -32.8761   65.1106   63.4493 C   0  0  0  0  0  0  0  0  0  0  0  0
  -33.2841   63.8332   64.1879 C   0  0  0  0  0  0  0  0  0  0  0  0
  -34.3430   62.9153   63.5548 C   0  0  0  0  0  0  0  0  0  0  0  0
  -35.3885   63.7915   62.8931 C   0  0  0  0  0  0  0  0  0  0  0  0
  -37.3005   65.9577   62.5186 Si  0  0  0  0  0  0  0  0  0  0  0  0
  -35.8893   65.5589   61.4962 O   0  0  0  0  0  0  0  0  0  0  0  0
  -38.0432   67.0054   61.9126 H   0  0  0  0  0  0  0  0  0  0  0  0
  -36.8537   66.3744   63.8005 H   0  0  0  0  0  0  0  0  0  0  0  0
  -38.1256   64.8101   62.6549 H   0  0  0  0  0  0  0  0  0  0  0  0
  -39.7040   56.6492   61.8520 C   0  0  0  0  0  0  0  0  0  0  0  0
  -38.5263   57.0421   62.7523 C   0  0  0  0  0  0  0  0  0  0  0  0
  -40.8096   55.7905   62.4893 C   0  0  0  0  0  0  0  0  0  0  0  0
  -42.1850   56.4524   62.7121 C   0  0  0  0  0  0  0  0  0  0  0  0
  -42.4995   56.3889   64.1428 N   0  0  0  0  0  0  0  0  0  0  0  0
  -43.4562   57.0576   64.8394 C   0  0  0  0  0  0  0  0  0  0  0  0
  -41.6839   55.5069   64.8656 O   0  0  0  0  0  0  0  0  0  0  0  0
  -43.5951   56.8915   66.0511 O   0  0  0  0  0  0  0  0  0  0  0  0
  -41.9465   55.5154   65.7994 H   0  0  0  0  0  0  0  0  0  0  0  0
  -44.3764   58.0282   64.0915 C   0  0  0  0  0  0  0  0  0  0  0  0
  -45.4559   58.6815   64.9651 C   0  0  0  0  0  0  0  0  0  0  0  0
  -46.0392   59.9155   64.2501 C   0  0  0  0  0  0  0  0  0  0  0  0
  -47.4654   59.6966   63.7105 C   0  0  0  0  0  0  0  0  0  0  0  0
  -48.4515   59.0957   64.7296 C   0  0  0  0  0  0  0  0  0  0  0  0
  -49.3859   58.0366   64.1079 C   0  0  0  0  0  0  0  0  0  0  0  0
  -50.7281   58.5952   63.5809 C   0  0  0  0  0  0  0  0  0  0  0  0
  -50.8289   58.5986   62.0512 C   0  0  0  0  0  0  0  0  0  0  0  0
  -51.1773   57.2496   61.4141 C   0  0  0  0  0  0  0  0  0  0  0  0
  -49.9408   56.5984   60.7681 C   0  0  0  0  0  0  0  0  0  0  0  0
  -48.9041   57.6074   60.2513 C   0  0  0  0  0  0  0  0  0  0  0  0
  -49.1064   58.0913   58.8116 C   0  0  0  0  0  0  0  0  0  0  0  0
  -47.7944   58.2468   58.0027 C   0  0  0  0  0  0  0  0  0  0  0  0
  -47.8754   57.5137   56.6482 C   0  0  0  0  0  0  0  0  0  0  0  0
  -47.4134   56.0521   56.6150 C   0  0  0  0  0  0  0  0  0  0  0  0
 46 47  1  0  0  0
 46 48  1  0  0  0
 46 45  1  0  0  0
 47 49  2  0  0  0
 47 51  1  0  0  0
 19 20  2  0  0  0
 37 38  1  0  0  0
 37 39  1  0  0  0
 37 40  1  0  0  0
 37 41  1  0  0  0
 48 50  1  0  0  0
 38 29  1  0  0  0
 45 44  1  0  0  0
 25 27  1  0  0  0
 25 35  1  0  0  0
 25 28  1  0  0  0
 21 20  1  0  0  0
 21 22  1  0  0  0
 44 42  1  0  0  0
  2  1  1  0  0  0
  2  4  1  0  0  0
  2  5  1  0  0  0
 26 27  2  0  0  0
 42 43  2  0  0  0
 29 31  1  0  0  0
 29 36  1  0  0  0
  3  4  2  0  0  0
 43  1  1  0  0  0
  6  9  2  0  0  0
  6 10  1  0  0  0
  1 20  1  0  0  0
 30 36  2  0  0  0
  7  8  1  0  0  0
  7  9  1  0  0  0
 22 24  1  0  0  0
 22 23  1  0  0  0
 11 12  1  0  0  0
 11 18  1  0  0  0
 24 27  1  0  0  0
  4 10  1  0  0  0
 51 52  1  0  0  0
 52 53  1  0  0  0
 53 54  1  0  0  0
 54 55  1  0  0  0
 55 56  1  0  0  0
 56 57  1  0  0  0
 57 58  1  0  0  0
 58 59  1  0  0  0
 59 60  1  0  0  0
 60 61  1  0  0  0
 61 62  1  0  0  0
 62 63  1  0  0  0
 63 64  1  0  0  0
 64 65  1  0  0  0
 31 32  1  0  0  0
 32 33  1  0  0  0
 33 34  1  0  0  0
 34 35  1  0  0  0
 35 36  1  0  0  0
  8 10  1  0  0  0
  9 17  1  0  0  0
 12 13  2  0  0  0
 12 17  1  0  0  0
 13 14  1  0  0  0
 14 15  2  0  0  0
 15 16  1  0  0  0
 16 17  2  0  0  0
M  END
> <minimizedAffinity>
-9.72768

> <CNNscore>
0.1196047515

> <CNNaffinity>
7.2203493118

> <CNN_VS>
0.8635880947

> <CNNaffinity_variance>
1.1626347303

$$$$
/media/chris/experiments/cd1a-new-docking/inputs/ligands/1xz0_ligand.pdb


 65 67  0  0  0  0  0  0  0  0999 V2000
  -40.6243   58.3072   63.4967 C   0  0  0  0  0  0  0  0  0  0  0  0
  -39.3765   57.6840   63.9425 N   0  0  0  0  0  0  0  0  0  0  0  0
  -37.3700   57.5975   65.0100 O   0  0  0  0  0  0  0  0  0  0  0  0
  -38.3897   58.1980   64.6972 C   0  0  0  0  0  0  0  0  0  0  0  0
  -39.2406   56.7547   63.6471 H   0  0  0  0  0  0  0  0  0  0  0  0
  -37.8149   60.6144   64.5946 N   0  0  0  0  0  0  0  0  0  0  0  0
  -37.3078   60.9586   66.7432 O   0  0  0  0  0  0  0  0  0  0  0  0
  -38.2030   59.8477   66.7747 C   0  0  0  0  0  0  0  0  0  0  0  0
  -37.1247   61.3406   65.3653 C   0  0  0  0  0  0  0  0  0  0  0  0
  -38.6000   59.5810   65.2962 C   0  0  0  0  0  0  0  0  0  0  0  0
  -34.9449   62.4504   66.9190 O   0  0  0  0  0  0  0  0  0  0  0  0
  -35.2143   62.9765   65.7180 C   0  0  0  0  0  0  0  0  0  0  0  0
  -34.4328   64.0336   65.2337 C   0  0  0  0  0  0  0  0  0  0  0  0
  -34.7013   64.6093   63.9804 C   0  0  0  0  0  0  0  0  0  0  0  0
  -35.7483   64.1277   63.1927 C   0  0  0  0  0  0  0  0  0  0  0  0
  -36.5270   63.0691   63.6686 C   0  0  0  0  0  0  0  0  0  0  0  0
  -36.2658   62.4959   64.9279 C   0  0  0  0  0  0  0  0  0  0  0  0
  -34.2360   62.7882   67.4301 H   0  0  0  0  0  0  0  0  0  0  0  0
  -40.4218   60.3418   62.2498 O   0  0  0  0  0  0  0  0  0  0  0  0
  -40.2768   59.1306   62.2711 C   0  0  0  0  0  0  0  0  0  0  0  0
  -39.8168   58.4623   61.0493 O   0  0  0  0  0  0  0  0  0  0  0  0
  -38.6130   58.8768   60.3764 C   0  0  0  0  0  0  0  0  0  0  0  0
  -38.5710   58.5405   58.8908 C   0  0  0  0  0  0  0  0  0  0  0  0
  -37.4228   58.2757   61.1089 C   0  0  0  0  0  0  0  0  0  0  0  0
  -35.6251   58.8546   62.6674 N   0  0  0  0  0  0  0  0  0  0  0  0
  -37.0068   60.4389   61.8332 O   0  0  0  0  0  0  0  0  0  0  0  0
  -36.6683   59.2826   61.9417 C   0  0  0  0  0  0  0  0  0  0  0  0
  -35.4439   57.8869   62.6819 H   0  0  0  0  0  0  0  0  0  0  0  0
  -32.6019   59.5720   62.2196 N   0  0  0  0  0  0  0  0  0  0  0  0
  -33.6005   61.5697   62.4980 O   0  0  0  0  0  0  0  0  0  0  0  0
  -32.6332   58.1040   62.1425 C   0  0  0  0  0  0  0  0  0  0  0  0
  -32.6277   57.4839   63.5526 C   0  0  0  0  0  0  0  0  0  0  0  0
  -32.7762   58.4730   64.6968 C   0  0  0  0  0  0  0  0  0  0  0  0
  -34.1547   59.1377   64.7383 C   0  0  0  0  0  0  0  0  0  0  0  0
  -34.7344   59.7268   63.4415 C   0  0  0  0  0  0  0  0  0  0  0  0
  -33.5966   60.3574   62.6628 C   0  0  0  0  0  0  0  0  0  0  0  0
  -31.2270   61.9408   62.0706 Si  0  0  0  0  0  0  0  0  0  0  0  0
  -31.4651   60.1907   61.7942 O   0  0  0  0  0  0  0  0  0  0  0  0
  -29.9725   62.3380   61.5367 H   0  0  0  0  0  0  0  0  0  0  0  0
  -31.2538   62.2077   63.4651 H   0  0  0  0  0  0  0  0  0  0  0  0
  -32.2655   62.6668   61.4296 H   0  0  0  0  0  0  0  0  0  0  0  0
  -42.0921   58.2574   65.6732 C   0  0  0  0  0  0  0  0  0  0  0  0
  -41.4502   59.0829   64.5514 C   0  0  0  0  0  0  0  0  0  0  0  0
  -43.2416   58.9190   66.4521 C   0  0  0  0  0  0  0  0  0  0  0  0
  -44.5242   59.2669   65.6689 C   0  0  0  0  0  0  0  0  0  0  0  0
  -45.4803   58.1688   65.8413 N   0  0  0  0  0  0  0  0  0  0  0  0
  -46.7904   58.2228   66.2001 C   0  0  0  0  0  0  0  0  0  0  0  0
  -44.9390   56.8994   65.5941 O   0  0  0  0  0  0  0  0  0  0  0  0
  -47.4658   57.1989   66.3014 O   0  0  0  0  0  0  0  0  0  0  0  0
  -45.6232   56.2246   65.7263 H   0  0  0  0  0  0  0  0  0  0  0  0
  -47.4285   59.5887   66.4746 C   0  0  0  0  0  0  0  0  0  0  0  0
  -48.4691   60.0247   65.4342 C   0  0  0  0  0  0  0  0  0  0  0  0
  -49.8904   59.8528   66.0039 C   0  0  0  0  0  0  0  0  0  0  0  0
  -50.9759   59.7198   64.9189 C   0  0  0  0  0  0  0  0  0  0  0  0
  -51.1221   60.9500   64.0037 C   0  0  0  0  0  0  0  0  0  0  0  0
  -51.1772   60.5808   62.5064 C   0  0  0  0  0  0  0  0  0  0  0  0
  -49.8071   60.2296   61.8812 C   0  0  0  0  0  0  0  0  0  0  0  0
  -49.7411   58.8057   61.3169 C   0  0  0  0  0  0  0  0  0  0  0  0
  -49.6538   58.7088   59.7906 C   0  0  0  0  0  0  0  0  0  0  0  0
  -49.4194   57.2576   59.3330 C   0  0  0  0  0  0  0  0  0  0  0  0
  -48.0180   56.7202   59.6605 C   0  0  0  0  0  0  0  0  0  0  0  0
  -47.1351   56.3845   58.4540 C   0  0  0  0  0  0  0  0  0  0  0  0
  -47.9205   56.1209   57.1450 C   0  0  0  0  0  0  0  0  0  0  0  0
  -47.9059   57.3542   56.2191 C   0  0  0  0  0  0  0  0  0  0  0  0
  -47.0591   58.5528   56.6634 C   0  0  0  0  0  0  0  0  0  0  0  0
 46 47  1  0  0  0
 46 48  1  0  0  0
 46 45  1  0  0  0
 47 49  2  0  0  0
 47 51  1  0  0  0
 19 20  2  0  0  0
 37 38  1  0  0  0
 37 39  1  0  0  0
 37 40  1  0  0  0
 37 41  1  0  0  0
 48 50  1  0  0  0
 38 29  1  0  0  0
 45 44  1  0  0  0
 25 27  1  0  0  0
 25 35  1  0  0  0
 25 28  1  0  0  0
 21 20  1  0  0  0
 21 22  1  0  0  0
 44 42  1  0  0  0
  2  1  1  0  0  0
  2  4  1  0  0  0
  2  5  1  0  0  0
 26 27  2  0  0  0
 42 43  2  0  0  0
 29 31  1  0  0  0
 29 36  1  0  0  0
  3  4  2  0  0  0
 43  1  1  0  0  0
  6  9  2  0  0  0
  6 10  1  0  0  0
  1 20  1  0  0  0
 30 36  2  0  0  0
  7  8  1  0  0  0
  7  9  1  0  0  0
 22 24  1  0  0  0
 22 23  1  0  0  0
 11 12  1  0  0  0
 11 18  1  0  0  0
 24 27  1  0  0  0
  4 10  1  0  0  0
 51 52  1  0  0  0
 52 53  1  0  0  0
 53 54  1  0  0  0
 54 55  1  0  0  0
 55 56  1  0  0  0
 56 57  1  0  0  0
 57 58  1  0  0  0
 58 59  1  0  0  0
 59 60  1  0  0  0
 60 61  1  0  0  0
 61 62  1  0  0  0
 62 63  1  0  0  0
 63 64  1  0  0  0
 64 65  1  0  0  0
 31 32  1  0  0  0
 32 33  1  0  0  0
 33 34  1  0  0  0
 34 35  1  0  0  0
 35 36  1  0  0  0
  8 10  1  0  0  0
  9 17  1  0  0  0
 12 13  2  0  0  0
 12 17  1  0  0  0
 13 14  1  0  0  0
 14 15  2  0  0  0
 15 16  1  0  0  0
 16 17  2  0  0  0
M  END
> <minimizedAffinity>
-9.41448

> <CNNscore>
0.1143885180

> <CNNaffinity>
7.2155823708

> <CNN_VS>
0.8253797889

> <CNNaffinity_variance>
0.4480146468

$$$$
/media/chris/experiments/cd1a-new-docking/inputs/ligands/1xz0_ligand.pdb


 65 67  0  0  0  0  0  0  0  0999 V2000
  -36.6162   61.7298   62.8622 C   0  0  0  0  0  0  0  0  0  0  0  0
  -36.0547   61.1091   64.0637 N   0  0  0  0  0  0  0  0  0  0  0  0
  -35.2259   59.4042   65.3204 O   0  0  0  0  0  0  0  0  0  0  0  0
  -35.6772   59.8350   64.2673 C   0  0  0  0  0  0  0  0  0  0  0  0
  -35.9367   61.7117   64.8333 H   0  0  0  0  0  0  0  0  0  0  0  0
  -37.0002   58.9312   62.3665 N   0  0  0  0  0  0  0  0  0  0  0  0
  -36.6821   56.7463   62.7091 O   0  0  0  0  0  0  0  0  0  0  0  0
  -35.5406   57.3582   63.3083 C   0  0  0  0  0  0  0  0  0  0  0  0
  -37.5178   57.7936   62.1774 C   0  0  0  0  0  0  0  0  0  0  0  0
  -35.7086   58.8858   63.0782 C   0  0  0  0  0  0  0  0  0  0  0  0
  -38.1350   58.8170   59.5376 O   0  0  0  0  0  0  0  0  0  0  0  0
  -39.0382   58.0491   60.1592 C   0  0  0  0  0  0  0  0  0  0  0  0
  -40.2467   57.7449   59.5191 C   0  0  0  0  0  0  0  0  0  0  0  0
  -41.2149   56.9490   60.1542 C   0  0  0  0  0  0  0  0  0  0  0  0
  -40.9812   56.4398   61.4328 C   0  0  0  0  0  0  0  0  0  0  0  0
  -39.7744   56.7351   62.0731 C   0  0  0  0  0  0  0  0  0  0  0  0
  -38.8060   57.5397   61.4427 C   0  0  0  0  0  0  0  0  0  0  0  0
  -38.3121   59.1466   58.6786 H   0  0  0  0  0  0  0  0  0  0  0  0
  -36.2317   63.7889   64.0231 O   0  0  0  0  0  0  0  0  0  0  0  0
  -36.2882   63.2081   62.9518 C   0  0  0  0  0  0  0  0  0  0  0  0
  -36.0974   63.9888   61.7249 O   0  0  0  0  0  0  0  0  0  0  0  0
  -35.7674   65.3898   61.7721 C   0  0  0  0  0  0  0  0  0  0  0  0
  -36.8208   66.3085   61.1655 C   0  0  0  0  0  0  0  0  0  0  0  0
  -34.4158   65.5869   61.1021 C   0  0  0  0  0  0  0  0  0  0  0  0
  -33.1238   64.5157   62.8851 N   0  0  0  0  0  0  0  0  0  0  0  0
  -32.8821   63.8890   60.7254 O   0  0  0  0  0  0  0  0  0  0  0  0
  -33.3722   64.6029   61.5702 C   0  0  0  0  0  0  0  0  0  0  0  0
  -33.5818   65.1521   63.4805 H   0  0  0  0  0  0  0  0  0  0  0  0
  -33.3091   63.0389   65.6491 N   0  0  0  0  0  0  0  0  0  0  0  0
  -32.9126   61.3861   64.1738 O   0  0  0  0  0  0  0  0  0  0  0  0
  -33.5229   64.4537   65.9878 C   0  0  0  0  0  0  0  0  0  0  0  0
  -32.1784   65.1982   66.0924 C   0  0  0  0  0  0  0  0  0  0  0  0
  -30.9598   64.4011   65.6572 C   0  0  0  0  0  0  0  0  0  0  0  0
  -30.9458   64.1012   64.1559 C   0  0  0  0  0  0  0  0  0  0  0  0
  -32.2172   63.5387   63.4990 C   0  0  0  0  0  0  0  0  0  0  0  0
  -32.8602   62.5712   64.4733 C   0  0  0  0  0  0  0  0  0  0  0  0
  -33.2624   60.3858   66.3435 Si  0  0  0  0  0  0  0  0  0  0  0  0
  -33.6021   62.1203   66.6115 O   0  0  0  0  0  0  0  0  0  0  0  0
  -33.6564   59.6438   67.4883 H   0  0  0  0  0  0  0  0  0  0  0  0
  -31.8720   60.2052   66.1179 H   0  0  0  0  0  0  0  0  0  0  0  0
  -33.9886   59.9306   65.2113 H   0  0  0  0  0  0  0  0  0  0  0  0
  -38.9625   60.8796   63.6782 C   0  0  0  0  0  0  0  0  0  0  0  0
  -38.1028   61.4427   62.5399 C   0  0  0  0  0  0  0  0  0  0  0  0
  -40.2800   60.1933   63.2796 C   0  0  0  0  0  0  0  0  0  0  0  0
  -41.5761   60.7004   63.9449 C   0  0  0  0  0  0  0  0  0  0  0  0
  -41.6508   60.1357   65.2959 N   0  0  0  0  0  0  0  0  0  0  0  0
  -42.2227   58.9732   65.7073 C   0  0  0  0  0  0  0  0  0  0  0  0
  -41.0379   60.9270   66.2777 O   0  0  0  0  0  0  0  0  0  0  0  0
  -42.1998   58.6359   66.8909 O   0  0  0  0  0  0  0  0  0  0  0  0
  -41.1249   60.4951   67.1419 H   0  0  0  0  0  0  0  0  0  0  0  0
  -42.8995   58.0715   64.6696 C   0  0  0  0  0  0  0  0  0  0  0  0
  -44.3402   57.6725   65.0172 C   0  0  0  0  0  0  0  0  0  0  0  0
  -45.2276   58.9284   65.1144 C   0  0  0  0  0  0  0  0  0  0  0  0
  -46.2106   59.0794   63.9379 C   0  0  0  0  0  0  0  0  0  0  0  0
  -47.0865   60.3451   63.9924 C   0  0  0  0  0  0  0  0  0  0  0  0
  -48.5664   60.0657   63.6559 C   0  0  0  0  0  0  0  0  0  0  0  0
  -49.0015   58.5943   63.8486 C   0  0  0  0  0  0  0  0  0  0  0  0
  -50.4498   58.3257   63.4234 C   0  0  0  0  0  0  0  0  0  0  0  0
  -50.8210   58.8101   62.0183 C   0  0  0  0  0  0  0  0  0  0  0  0
  -51.1724   57.6309   61.0930 C   0  0  0  0  0  0  0  0  0  0  0  0
  -50.4271   57.6499   59.7498 C   0  0  0  0  0  0  0  0  0  0  0  0
  -49.0153   58.2446   59.7803 C   0  0  0  0  0  0  0  0  0  0  0  0
  -47.8853   57.2131   59.5376 C   0  0  0  0  0  0  0  0  0  0  0  0
  -47.5512   57.0832   58.0376 C   0  0  0  0  0  0  0  0  0  0  0  0
  -47.4550   58.3814   57.2273 C   0  0  0  0  0  0  0  0  0  0  0  0
 46 47  1  0  0  0
 46 48  1  0  0  0
 46 45  1  0  0  0
 47 49  2  0  0  0
 47 51  1  0  0  0
 19 20  2  0  0  0
 37 38  1  0  0  0
 37 39  1  0  0  0
 37 40  1  0  0  0
 37 41  1  0  0  0
 48 50  1  0  0  0
 38 29  1  0  0  0
 45 44  1  0  0  0
 25 27  1  0  0  0
 25 35  1  0  0  0
 25 28  1  0  0  0
 21 20  1  0  0  0
 21 22  1  0  0  0
 44 42  1  0  0  0
  2  1  1  0  0  0
  2  4  1  0  0  0
  2  5  1  0  0  0
 26 27  2  0  0  0
 42 43  2  0  0  0
 29 31  1  0  0  0
 29 36  1  0  0  0
  3  4  2  0  0  0
 43  1  1  0  0  0
  6  9  2  0  0  0
  6 10  1  0  0  0
  1 20  1  0  0  0
 30 36  2  0  0  0
  7  8  1  0  0  0
  7  9  1  0  0  0
 22 24  1  0  0  0
 22 23  1  0  0  0
 11 12  1  0  0  0
 11 18  1  0  0  0
 24 27  1  0  0  0
  4 10  1  0  0  0
 51 52  1  0  0  0
 52 53  1  0  0  0
 53 54  1  0  0  0
 54 55  1  0  0  0
 55 56  1  0  0  0
 56 57  1  0  0  0
 57 58  1  0  0  0
 58 59  1  0  0  0
 59 60  1  0  0  0
 60 61  1  0  0  0
 61 62  1  0  0  0
 62 63  1  0  0  0
 63 64  1  0  0  0
 64 65  1  0  0  0
 31 32  1  0  0  0
 32 33  1  0  0  0
 33 34  1  0  0  0
 34 35  1  0  0  0
 35 36  1  0  0  0
  8 10  1  0  0  0
  9 17  1  0  0  0
 12 13  2  0  0  0
 12 17  1  0  0  0
 13 14  1  0  0  0
 14 15  2  0  0  0
 15 16  1  0  0  0
 16 17  2  0  0  0
M  END
> <minimizedAffinity>
-9.45058

> <CNNscore>
0.1119270325

> <CNNaffinity>
7.2003278732

> <CNN_VS>
0.8059113026

> <CNNaffinity_variance>
0.4908578992

$$$$
