/media/chris/experiments/cd1a-new-docking/inputs/ligands/1xz0_ligand.pdb


 65 67  0  0  0  0  0  0  0  0999 V2000
  -36.9054   61.8147   62.9531 C   0  0  0  0  0  0  0  0  0  0  0  0
  -36.9615   63.1071   62.2672 N   0  0  0  0  0  0  0  0  0  0  0  0
  -36.2000   65.1592   61.6491 O   0  0  0  0  0  0  0  0  0  0  0  0
  -36.0566   64.1012   62.2475 C   0  0  0  0  0  0  0  0  0  0  0  0
  -37.7798   63.2719   61.7451 H   0  0  0  0  0  0  0  0  0  0  0  0
  -34.2554   62.4635   62.7510 N   0  0  0  0  0  0  0  0  0  0  0  0
  -34.0681   62.7948   64.9526 O   0  0  0  0  0  0  0  0  0  0  0  0
  -34.5844   64.0311   64.4614 C   0  0  0  0  0  0  0  0  0  0  0  0
  -33.9181   61.9011   63.8315 C   0  0  0  0  0  0  0  0  0  0  0  0
  -34.7153   63.8546   62.9230 C   0  0  0  0  0  0  0  0  0  0  0  0
  -32.0654   60.6990   61.9555 O   0  0  0  0  0  0  0  0  0  0  0  0
  -32.4644   59.9852   63.0152 C   0  0  0  0  0  0  0  0  0  0  0  0
  -31.9695   58.6881   63.2029 C   0  0  0  0  0  0  0  0  0  0  0  0
  -32.3802   57.9149   64.3019 C   0  0  0  0  0  0  0  0  0  0  0  0
  -33.2831   58.4341   65.2314 C   0  0  0  0  0  0  0  0  0  0  0  0
  -33.7749   59.7300   65.0521 C   0  0  0  0  0  0  0  0  0  0  0  0
  -33.3719   60.5039   63.9470 C   0  0  0  0  0  0  0  0  0  0  0  0
  -31.4571   60.3312   61.3450 H   0  0  0  0  0  0  0  0  0  0  0  0
  -38.6003   61.0066   61.4665 O   0  0  0  0  0  0  0  0  0  0  0  0
  -37.5269   60.8027   62.0095 C   0  0  0  0  0  0  0  0  0  0  0  0
  -36.8665   59.5125   61.7852 O   0  0  0  0  0  0  0  0  0  0  0  0
  -37.2507   58.6537   60.6949 C   0  0  0  0  0  0  0  0  0  0  0  0
  -38.1159   59.3251   59.6355 C   0  0  0  0  0  0  0  0  0  0  0  0
  -37.9416   57.4271   61.2712 C   0  0  0  0  0  0  0  0  0  0  0  0
  -39.4218   57.7951   63.1869 N   0  0  0  0  0  0  0  0  0  0  0  0
  -37.2423   57.2647   63.4760 O   0  0  0  0  0  0  0  0  0  0  0  0
  -38.1805   57.5240   62.7578 C   0  0  0  0  0  0  0  0  0  0  0  0
  -39.5808   57.7932   64.1585 H   0  0  0  0  0  0  0  0  0  0  0  0
  -42.4694   57.1212   63.5233 N   0  0  0  0  0  0  0  0  0  0  0  0
  -42.4485   59.3163   63.0266 O   0  0  0  0  0  0  0  0  0  0  0  0
  -41.7933   55.8386   63.7682 C   0  0  0  0  0  0  0  0  0  0  0  0
  -41.4393   55.1464   62.4385 C   0  0  0  0  0  0  0  0  0  0  0  0
  -41.6786   55.9790   61.1898 C   0  0  0  0  0  0  0  0  0  0  0  0
  -40.7395   57.1835   61.0845 C   0  0  0  0  0  0  0  0  0  0  0  0
  -40.5598   58.0946   62.3103 C   0  0  0  0  0  0  0  0  0  0  0  0
  -41.9032   58.2213   63.0017 C   0  0  0  0  0  0  0  0  0  0  0  0
  -44.8695   58.3543   63.0312 Si  0  0  0  0  0  0  0  0  0  0  0  0
  -43.7856   57.2031   63.8650 O   0  0  0  0  0  0  0  0  0  0  0  0
  -46.1796   58.2448   63.5680 H   0  0  0  0  0  0  0  0  0  0  0  0
  -44.9002   58.0552   61.6433 H   0  0  0  0  0  0  0  0  0  0  0  0
  -44.3899   59.6775   63.2196 H   0  0  0  0  0  0  0  0  0  0  0  0
  -37.7300   60.3506   64.9706 C   0  0  0  0  0  0  0  0  0  0  0  0
  -37.4686   61.7472   64.3934 C   0  0  0  0  0  0  0  0  0  0  0  0
  -38.6705   60.2655   66.1848 C   0  0  0  0  0  0  0  0  0  0  0  0
  -39.6698   59.0913   66.2299 C   0  0  0  0  0  0  0  0  0  0  0  0
  -41.0277   59.6437   66.2535 N   0  0  0  0  0  0  0  0  0  0  0  0
  -42.2040   59.0129   66.5108 C   0  0  0  0  0  0  0  0  0  0  0  0
  -41.0887   61.0150   65.9681 O   0  0  0  0  0  0  0  0  0  0  0  0
  -42.2373   57.8131   66.7829 O   0  0  0  0  0  0  0  0  0  0  0  0
  -42.0118   61.3113   66.0010 H   0  0  0  0  0  0  0  0  0  0  0  0
  -43.5061   59.8187   66.4520 C   0  0  0  0  0  0  0  0  0  0  0  0
  -44.7824   58.9727   66.5548 C   0  0  0  0  0  0  0  0  0  0  0  0
  -45.8755   59.5512   65.6357 C   0  0  0  0  0  0  0  0  0  0  0  0
  -47.3024   59.3675   66.1864 C   0  0  0  0  0  0  0  0  0  0  0  0
  -48.3740   60.2277   65.4909 C   0  0  0  0  0  0  0  0  0  0  0  0
  -49.8106   59.8521   65.9107 C   0  0  0  0  0  0  0  0  0  0  0  0
  -50.7581   59.5243   64.7332 C   0  0  0  0  0  0  0  0  0  0  0  0
  -50.1233   59.7550   63.3570 C   0  0  0  0  0  0  0  0  0  0  0  0
  -50.9932   59.3602   62.1592 C   0  0  0  0  0  0  0  0  0  0  0  0
  -51.1773   57.8339   62.0784 C   0  0  0  0  0  0  0  0  0  0  0  0
  -50.7146   57.2204   60.7481 C   0  0  0  0  0  0  0  0  0  0  0  0
  -50.1670   58.2094   59.7139 C   0  0  0  0  0  0  0  0  0  0  0  0
  -48.6330   58.1346   59.5123 C   0  0  0  0  0  0  0  0  0  0  0  0
  -48.2721   57.5204   58.1445 C   0  0  0  0  0  0  0  0  0  0  0  0
  -47.4878   58.4030   57.1661 C   0  0  0  0  0  0  0  0  0  0  0  0
 46 47  1  0  0  0
 46 48  1  0  0  0
 46 45  1  0  0  0
 47 49  2  0  0  0
 47 51  1  0  0  0
 19 20  2  0  0  0
 37 38  1  0  0  0
 37 39  1  0  0  0
 37 40  1  0  0  0
 37 41  1  0  0  0
 48 50  1  0  0  0
 38 29  1  0  0  0
 45 44  1  0  0  0
 25 27  1  0  0  0
 25 35  1  0  0  0
 25 28  1  0  0  0
 21 20  1  0  0  0
 21 22  1  0  0  0
 44 42  1  0  0  0
  2  1  1  0  0  0
  2  4  1  0  0  0
  2  5  1  0  0  0
 26 27  2  0  0  0
 42 43  2  0  0  0
 29 31  1  0  0  0
 29 36  1  0  0  0
  3  4  2  0  0  0
 43  1  1  0  0  0
  6  9  2  0  0  0
  6 10  1  0  0  0
  1 20  1  0  0  0
 30 36  2  0  0  0
  7  8  1  0  0  0
  7  9  1  0  0  0
 22 24  1  0  0  0
 22 23  1  0  0  0
 11 12  1  0  0  0
 11 18  1  0  0  0
 24 27  1  0  0  0
  4 10  1  0  0  0
 51 52  1  0  0  0
 52 53  1  0  0  0
 53 54  1  0  0  0
 54 55  1  0  0  0
 55 56  1  0  0  0
 56 57  1  0  0  0
 57 58  1  0  0  0
 58 59  1  0  0  0
 59 60  1  0  0  0
 60 61  1  0  0  0
 61 62  1  0  0  0
 62 63  1  0  0  0
 63 64  1  0  0  0
 64 65  1  0  0  0
 31 32  1  0  0  0
 32 33  1  0  0  0
 33 34  1  0  0  0
 34 35  1  0  0  0
 35 36  1  0  0  0
  8 10  1  0  0  0
  9 17  1  0  0  0
 12 13  2  0  0  0
 12 17  1  0  0  0
 13 14  1  0  0  0
 14 15  2  0  0  0
 15 16  1  0  0  0
 16 17  2  0  0  0
M  END
> <minimizedAffinity>
-8.82997

> <CNNscore>
0.2555123568

> <CNNaffinity>
7.5943880081

> <CNN_VS>
1.9404599667

> <CNNaffinity_variance>
0.5396208167

$$$$
/media/chris/experiments/cd1a-new-docking/inputs/ligands/1xz0_ligand.pdb


 65 67  0  0  0  0  0  0  0  0999 V2000
  -36.8244   59.2598   62.0750 C   0  0  0  0  0  0  0  0  0  0  0  0
  -36.8655   58.9416   60.6463 N   0  0  0  0  0  0  0  0  0  0  0  0
  -37.8553   58.6052   58.6264 O   0  0  0  0  0  0  0  0  0  0  0  0
  -37.9200   58.8958   59.8137 C   0  0  0  0  0  0  0  0  0  0  0  0
  -35.9955   58.7309   60.2364 H   0  0  0  0  0  0  0  0  0  0  0  0
  -39.6851   58.5535   61.5304 N   0  0  0  0  0  0  0  0  0  0  0  0
  -41.4752   58.4574   60.1968 O   0  0  0  0  0  0  0  0  0  0  0  0
  -40.5337   59.2307   59.4537 C   0  0  0  0  0  0  0  0  0  0  0  0
  -40.8538   58.0804   61.4416 C   0  0  0  0  0  0  0  0  0  0  0  0
  -39.2715   59.3410   60.3534 C   0  0  0  0  0  0  0  0  0  0  0  0
  -43.2881   58.8901   62.7891 O   0  0  0  0  0  0  0  0  0  0  0  0
  -42.7321   57.7160   63.1118 C   0  0  0  0  0  0  0  0  0  0  0  0
  -43.3425   56.9019   64.0748 C   0  0  0  0  0  0  0  0  0  0  0  0
  -42.7736   55.6694   64.4379 C   0  0  0  0  0  0  0  0  0  0  0  0
  -41.5930   55.2325   63.8347 C   0  0  0  0  0  0  0  0  0  0  0  0
  -40.9836   56.0382   62.8688 C   0  0  0  0  0  0  0  0  0  0  0  0
  -41.5466   57.2777   62.5092 C   0  0  0  0  0  0  0  0  0  0  0  0
  -44.0819   59.1628   63.2055 H   0  0  0  0  0  0  0  0  0  0  0  0
  -35.1493   57.7508   62.8827 O   0  0  0  0  0  0  0  0  0  0  0  0
  -35.4336   58.8911   62.5552 C   0  0  0  0  0  0  0  0  0  0  0  0
  -34.4113   59.9330   62.6992 O   0  0  0  0  0  0  0  0  0  0  0  0
  -33.6604   60.0822   63.9190 C   0  0  0  0  0  0  0  0  0  0  0  0
  -34.5039   60.4097   65.1449 C   0  0  0  0  0  0  0  0  0  0  0  0
  -32.5859   61.1355   63.6946 C   0  0  0  0  0  0  0  0  0  0  0  0
  -33.2763   62.7843   62.0209 N   0  0  0  0  0  0  0  0  0  0  0  0
  -31.8433   61.1144   61.4981 O   0  0  0  0  0  0  0  0  0  0  0  0
  -32.5694   61.6759   62.2860 C   0  0  0  0  0  0  0  0  0  0  0  0
  -33.2082   63.1648   61.1154 H   0  0  0  0  0  0  0  0  0  0  0  0
  -35.0694   65.3375   61.6734 N   0  0  0  0  0  0  0  0  0  0  0  0
  -36.4480   63.8275   62.6141 O   0  0  0  0  0  0  0  0  0  0  0  0
  -33.7616   65.7472   61.1405 C   0  0  0  0  0  0  0  0  0  0  0  0
  -32.8114   66.1549   62.2822 C   0  0  0  0  0  0  0  0  0  0  0  0
  -33.3289   65.8838   63.6852 C   0  0  0  0  0  0  0  0  0  0  0  0
  -33.4480   64.3905   64.0011 C   0  0  0  0  0  0  0  0  0  0  0  0
  -34.1444   63.4697   62.9852 C   0  0  0  0  0  0  0  0  0  0  0  0
  -35.3141   64.2282   62.3892 C   0  0  0  0  0  0  0  0  0  0  0  0
  -37.5541   66.1658   62.4880 Si  0  0  0  0  0  0  0  0  0  0  0  0
  -36.1291   66.1518   61.4088 O   0  0  0  0  0  0  0  0  0  0  0  0
  -38.5114   67.0920   61.9959 H   0  0  0  0  0  0  0  0  0  0  0  0
  -37.1539   66.5487   63.7956 H   0  0  0  0  0  0  0  0  0  0  0  0
  -38.1290   64.8681   62.5299 H   0  0  0  0  0  0  0  0  0  0  0  0
  -38.5539   59.6397   64.0137 C   0  0  0  0  0  0  0  0  0  0  0  0
  -37.9579   58.6935   62.9643 C   0  0  0  0  0  0  0  0  0  0  0  0
  -39.3427   58.9925   65.1646 C   0  0  0  0  0  0  0  0  0  0  0  0
  -40.0594   59.9342   66.1540 C   0  0  0  0  0  0  0  0  0  0  0  0
  -41.4645   60.0429   65.7499 N   0  0  0  0  0  0  0  0  0  0  0  0
  -42.5649   59.4845   66.3201 C   0  0  0  0  0  0  0  0  0  0  0  0
  -41.6697   60.8406   64.6153 O   0  0  0  0  0  0  0  0  0  0  0  0
  -42.4737   58.7815   67.3262 O   0  0  0  0  0  0  0  0  0  0  0  0
  -42.6165   60.8679   64.4062 H   0  0  0  0  0  0  0  0  0  0  0  0
  -43.9373   59.7367   65.6868 C   0  0  0  0  0  0  0  0  0  0  0  0
  -45.1113   59.0928   66.4367 C   0  0  0  0  0  0  0  0  0  0  0  0
  -46.0629   58.4055   65.4386 C   0  0  0  0  0  0  0  0  0  0  0  0
  -46.5632   59.3413   64.3218 C   0  0  0  0  0  0  0  0  0  0  0  0
  -48.0276   59.1142   63.9027 C   0  0  0  0  0  0  0  0  0  0  0  0
  -48.6363   60.3265   63.1672 C   0  0  0  0  0  0  0  0  0  0  0  0
  -49.8164   59.9816   62.2290 C   0  0  0  0  0  0  0  0  0  0  0  0
  -49.4517   60.0454   60.7414 C   0  0  0  0  0  0  0  0  0  0  0  0
  -50.0965   58.9696   59.8615 C   0  0  0  0  0  0  0  0  0  0  0  0
  -50.5988   57.7828   60.7038 C   0  0  0  0  0  0  0  0  0  0  0  0
  -49.5508   56.6789   60.9114 C   0  0  0  0  0  0  0  0  0  0  0  0
  -48.9108   56.1204   59.6363 C   0  0  0  0  0  0  0  0  0  0  0  0
  -47.4792   56.6442   59.3610 C   0  0  0  0  0  0  0  0  0  0  0  0
  -47.2283   56.8365   57.8516 C   0  0  0  0  0  0  0  0  0  0  0  0
  -47.4662   58.2376   57.2756 C   0  0  0  0  0  0  0  0  0  0  0  0
 46 47  1  0  0  0
 46 48  1  0  0  0
 46 45  1  0  0  0
 47 49  2  0  0  0
 47 51  1  0  0  0
 19 20  2  0  0  0
 37 38  1  0  0  0
 37 39  1  0  0  0
 37 40  1  0  0  0
 37 41  1  0  0  0
 48 50  1  0  0  0
 38 29  1  0  0  0
 45 44  1  0  0  0
 25 27  1  0  0  0
 25 35  1  0  0  0
 25 28  1  0  0  0
 21 20  1  0  0  0
 21 22  1  0  0  0
 44 42  1  0  0  0
  2  1  1  0  0  0
  2  4  1  0  0  0
  2  5  1  0  0  0
 26 27  2  0  0  0
 42 43  2  0  0  0
 29 31  1  0  0  0
 29 36  1  0  0  0
  3  4  2  0  0  0
 43  1  1  0  0  0
  6  9  2  0  0  0
  6 10  1  0  0  0
  1 20  1  0  0  0
 30 36  2  0  0  0
  7  8  1  0  0  0
  7  9  1  0  0  0
 22 24  1  0  0  0
 22 23  1  0  0  0
 11 12  1  0  0  0
 11 18  1  0  0  0
 24 27  1  0  0  0
  4 10  1  0  0  0
 51 52  1  0  0  0
 52 53  1  0  0  0
 53 54  1  0  0  0
 54 55  1  0  0  0
 55 56  1  0  0  0
 56 57  1  0  0  0
 57 58  1  0  0  0
 58 59  1  0  0  0
 59 60  1  0  0  0
 60 61  1  0  0  0
 61 62  1  0  0  0
 62 63  1  0  0  0
 63 64  1  0  0  0
 64 65  1  0  0  0
 31 32  1  0  0  0
 32 33  1  0  0  0
 33 34  1  0  0  0
 34 35  1  0  0  0
 35 36  1  0  0  0
  8 10  1  0  0  0
  9 17  1  0  0  0
 12 13  2  0  0  0
 12 17  1  0  0  0
 13 14  1  0  0  0
 14 15  2  0  0  0
 15 16  1  0  0  0
 16 17  2  0  0  0
M  END
> <minimizedAffinity>
-9.10504

> <CNNscore>
0.1913295537

> <CNNaffinity>
7.3677072525

> <CNN_VS>
1.4096601009

> <CNNaffinity_variance>
0.6699873209

$$$$
/media/chris/experiments/cd1a-new-docking/inputs/ligands/1xz0_ligand.pdb


 65 67  0  0  0  0  0  0  0  0999 V2000
  -36.6835   58.0729   64.2136 C   0  0  0  0  0  0  0  0  0  0  0  0
  -36.6493   59.2474   65.0874 N   0  0  0  0  0  0  0  0  0  0  0  0
  -36.4429   61.4584   65.5792 O   0  0  0  0  0  0  0  0  0  0  0  0
  -36.4679   60.5410   64.7693 C   0  0  0  0  0  0  0  0  0  0  0  0
  -36.7776   59.0632   66.0460 H   0  0  0  0  0  0  0  0  0  0  0  0
  -35.4203   61.9809   63.0346 N   0  0  0  0  0  0  0  0  0  0  0  0
  -37.2646   62.7098   62.0053 O   0  0  0  0  0  0  0  0  0  0  0  0
  -37.6601   61.4642   62.5785 C   0  0  0  0  0  0  0  0  0  0  0  0
  -35.8853   62.9400   62.3553 C   0  0  0  0  0  0  0  0  0  0  0  0
  -36.3981   60.9069   63.2938 C   0  0  0  0  0  0  0  0  0  0  0  0
  -36.8972   65.6553   62.3611 O   0  0  0  0  0  0  0  0  0  0  0  0
  -35.6421   65.4355   61.9509 C   0  0  0  0  0  0  0  0  0  0  0  0
  -34.8446   66.5159   61.5516 C   0  0  0  0  0  0  0  0  0  0  0  0
  -33.5273   66.3104   61.1079 C   0  0  0  0  0  0  0  0  0  0  0  0
  -32.9892   65.0230   61.0681 C   0  0  0  0  0  0  0  0  0  0  0  0
  -33.7787   63.9425   61.4715 C   0  0  0  0  0  0  0  0  0  0  0  0
  -35.1020   64.1443   61.9082 C   0  0  0  0  0  0  0  0  0  0  0  0
  -37.2373   66.5282   62.3814 H   0  0  0  0  0  0  0  0  0  0  0  0
  -34.9594   56.9007   63.0351 O   0  0  0  0  0  0  0  0  0  0  0  0
  -35.2571   57.8418   63.7522 C   0  0  0  0  0  0  0  0  0  0  0  0
  -34.1850   58.7238   64.2254 O   0  0  0  0  0  0  0  0  0  0  0  0
  -33.0985   59.1115   63.3633 C   0  0  0  0  0  0  0  0  0  0  0  0
  -32.1758   57.9694   62.9561 C   0  0  0  0  0  0  0  0  0  0  0  0
  -32.3219   60.2286   64.0438 C   0  0  0  0  0  0  0  0  0  0  0  0
  -31.9461   62.6375   63.8152 N   0  0  0  0  0  0  0  0  0  0  0  0
  -32.2986   61.3303   62.0036 O   0  0  0  0  0  0  0  0  0  0  0  0
  -32.2156   61.4760   63.2016 C   0  0  0  0  0  0  0  0  0  0  0  0
  -31.8157   63.4337   63.2509 H   0  0  0  0  0  0  0  0  0  0  0  0
  -33.9207   63.9679   65.8611 N   0  0  0  0  0  0  0  0  0  0  0  0
  -33.4358   61.9755   66.7889 O   0  0  0  0  0  0  0  0  0  0  0  0
  -33.7878   64.9701   64.7933 C   0  0  0  0  0  0  0  0  0  0  0  0
  -32.5017   65.7970   64.9790 C   0  0  0  0  0  0  0  0  0  0  0  0
  -31.5685   65.3083   66.0745 C   0  0  0  0  0  0  0  0  0  0  0  0
  -30.9319   63.9525   65.7576 C   0  0  0  0  0  0  0  0  0  0  0  0
  -31.8320   62.8055   65.2685 C   0  0  0  0  0  0  0  0  0  0  0  0
  -33.1445   62.8844   66.0233 C   0  0  0  0  0  0  0  0  0  0  0  0
  -35.0139   63.1521   68.2408 Si  0  0  0  0  0  0  0  0  0  0  0  0
  -34.9276   64.1504   66.7605 O   0  0  0  0  0  0  0  0  0  0  0  0
  -36.1470   63.5362   69.0055 H   0  0  0  0  0  0  0  0  0  0  0  0
  -33.8361   63.3442   69.0106 H   0  0  0  0  0  0  0  0  0  0  0  0
  -35.1268   61.7827   67.8823 H   0  0  0  0  0  0  0  0  0  0  0  0
  -39.0262   57.3128   63.3037 C   0  0  0  0  0  0  0  0  0  0  0  0
  -37.7162   58.0722   63.0605 C   0  0  0  0  0  0  0  0  0  0  0  0
  -39.8508   56.9345   62.0617 C   0  0  0  0  0  0  0  0  0  0  0  0
  -40.9681   55.8863   62.2416 C   0  0  0  0  0  0  0  0  0  0  0  0
  -41.8006   56.2920   63.3782 N   0  0  0  0  0  0  0  0  0  0  0  0
  -42.6141   57.3742   63.5003 C   0  0  0  0  0  0  0  0  0  0  0  0
  -41.7270   55.4228   64.4758 O   0  0  0  0  0  0  0  0  0  0  0  0
  -42.7456   58.1794   62.5788 O   0  0  0  0  0  0  0  0  0  0  0  0
  -42.2995   55.7507   65.1869 H   0  0  0  0  0  0  0  0  0  0  0  0
  -43.3710   57.5886   64.8153 C   0  0  0  0  0  0  0  0  0  0  0  0
  -44.8037   58.1119   64.6460 C   0  0  0  0  0  0  0  0  0  0  0  0
  -45.1022   59.1884   65.7072 C   0  0  0  0  0  0  0  0  0  0  0  0
  -46.5953   59.2964   66.0707 C   0  0  0  0  0  0  0  0  0  0  0  0
  -47.4465   58.0828   65.6528 C   0  0  0  0  0  0  0  0  0  0  0  0
  -48.6887   58.4770   64.8266 C   0  0  0  0  0  0  0  0  0  0  0  0
  -48.4054   59.4714   63.6767 C   0  0  0  0  0  0  0  0  0  0  0  0
  -48.9644   59.0151   62.3240 C   0  0  0  0  0  0  0  0  0  0  0  0
  -49.9212   57.8198   62.3796 C   0  0  0  0  0  0  0  0  0  0  0  0
  -50.8316   57.7717   61.1390 C   0  0  0  0  0  0  0  0  0  0  0  0
  -50.0924   57.4272   59.8372 C   0  0  0  0  0  0  0  0  0  0  0  0
  -48.8606   56.5289   59.9889 C   0  0  0  0  0  0  0  0  0  0  0  0
  -47.6728   56.9182   59.0739 C   0  0  0  0  0  0  0  0  0  0  0  0
  -48.1116   57.8929   57.9623 C   0  0  0  0  0  0  0  0  0  0  0  0
  -47.1083   58.1666   56.8355 C   0  0  0  0  0  0  0  0  0  0  0  0
 46 47  1  0  0  0
 46 48  1  0  0  0
 46 45  1  0  0  0
 47 49  2  0  0  0
 47 51  1  0  0  0
 19 20  2  0  0  0
 37 38  1  0  0  0
 37 39  1  0  0  0
 37 40  1  0  0  0
 37 41  1  0  0  0
 48 50  1  0  0  0
 38 29  1  0  0  0
 45 44  1  0  0  0
 25 27  1  0  0  0
 25 35  1  0  0  0
 25 28  1  0  0  0
 21 20  1  0  0  0
 21 22  1  0  0  0
 44 42  1  0  0  0
  2  1  1  0  0  0
  2  4  1  0  0  0
  2  5  1  0  0  0
 26 27  2  0  0  0
 42 43  2  0  0  0
 29 31  1  0  0  0
 29 36  1  0  0  0
  3  4  2  0  0  0
 43  1  1  0  0  0
  6  9  2  0  0  0
  6 10  1  0  0  0
  1 20  1  0  0  0
 30 36  2  0  0  0
  7  8  1  0  0  0
  7  9  1  0  0  0
 22 24  1  0  0  0
 22 23  1  0  0  0
 11 12  1  0  0  0
 11 18  1  0  0  0
 24 27  1  0  0  0
  4 10  1  0  0  0
 51 52  1  0  0  0
 52 53  1  0  0  0
 53 54  1  0  0  0
 54 55  1  0  0  0
 55 56  1  0  0  0
 56 57  1  0  0  0
 57 58  1  0  0  0
 58 59  1  0  0  0
 59 60  1  0  0  0
 60 61  1  0  0  0
 61 62  1  0  0  0
 62 63  1  0  0  0
 63 64  1  0  0  0
 64 65  1  0  0  0
 31 32  1  0  0  0
 32 33  1  0  0  0
 33 34  1  0  0  0
 34 35  1  0  0  0
 35 36  1  0  0  0
  8 10  1  0  0  0
  9 17  1  0  0  0
 12 13  2  0  0  0
 12 17  1  0  0  0
 13 14  1  0  0  0
 14 15  2  0  0  0
 15 16  1  0  0  0
 16 17  2  0  0  0
M  END
> <minimizedAffinity>
-8.80858

> <CNNscore>
0.1910544187

> <CNNaffinity>
6.9963922501

> <CNN_VS>
1.3366916180

> <CNNaffinity_variance>
0.3358916342

$$$$
/media/chris/experiments/cd1a-new-docking/inputs/ligands/1xz0_ligand.pdb


 65 67  0  0  0  0  0  0  0  0999 V2000
  -41.9044   59.0288   65.0404 C   0  0  0  0  0  0  0  0  0  0  0  0
  -41.7914   57.6292   65.4557 N   0  0  0  0  0  0  0  0  0  0  0  0
  -41.8708   55.3731   65.1788 O   0  0  0  0  0  0  0  0  0  0  0  0
  -41.9774   56.5092   64.7358 C   0  0  0  0  0  0  0  0  0  0  0  0
  -41.5435   57.4881   66.3980 H   0  0  0  0  0  0  0  0  0  0  0  0
  -40.9760   56.8087   62.4803 N   0  0  0  0  0  0  0  0  0  0  0  0
  -42.2242   58.5127   61.7519 O   0  0  0  0  0  0  0  0  0  0  0  0
  -43.0530   57.8674   62.7180 C   0  0  0  0  0  0  0  0  0  0  0  0
  -40.9735   57.7983   61.6940 C   0  0  0  0  0  0  0  0  0  0  0  0
  -42.2301   56.6580   63.2425 C   0  0  0  0  0  0  0  0  0  0  0  0
  -40.9434   57.2545   58.8479 O   0  0  0  0  0  0  0  0  0  0  0  0
  -39.8994   57.8893   59.3944 C   0  0  0  0  0  0  0  0  0  0  0  0
  -38.8296   58.2891   58.5830 C   0  0  0  0  0  0  0  0  0  0  0  0
  -37.7178   58.9484   59.1340 C   0  0  0  0  0  0  0  0  0  0  0  0
  -37.6678   59.2244   60.5015 C   0  0  0  0  0  0  0  0  0  0  0  0
  -38.7355   58.8332   61.3143 C   0  0  0  0  0  0  0  0  0  0  0  0
  -39.8470   58.1646   60.7663 C   0  0  0  0  0  0  0  0  0  0  0  0
  -40.9566   57.0811   57.9271 H   0  0  0  0  0  0  0  0  0  0  0  0
  -40.8289   60.9395   66.0038 O   0  0  0  0  0  0  0  0  0  0  0  0
  -40.7478   59.7627   65.6919 C   0  0  0  0  0  0  0  0  0  0  0  0
  -39.4697   59.0736   65.8981 O   0  0  0  0  0  0  0  0  0  0  0  0
  -38.4821   58.9979   64.8527 C   0  0  0  0  0  0  0  0  0  0  0  0
  -37.9574   57.5939   64.5787 C   0  0  0  0  0  0  0  0  0  0  0  0
  -37.3469   59.9509   65.1957 C   0  0  0  0  0  0  0  0  0  0  0  0
  -36.2608   61.9916   64.3883 N   0  0  0  0  0  0  0  0  0  0  0  0
  -38.2841   61.3534   63.6047 O   0  0  0  0  0  0  0  0  0  0  0  0
  -37.3396   61.1963   64.3440 C   0  0  0  0  0  0  0  0  0  0  0  0
  -36.2387   62.7670   63.7819 H   0  0  0  0  0  0  0  0  0  0  0  0
  -34.2281   64.0671   65.5780 N   0  0  0  0  0  0  0  0  0  0  0  0
  -34.8913   62.8689   67.3641 O   0  0  0  0  0  0  0  0  0  0  0  0
  -34.2523   64.3780   64.1411 C   0  0  0  0  0  0  0  0  0  0  0  0
  -33.3358   63.4174   63.3601 C   0  0  0  0  0  0  0  0  0  0  0  0
  -32.7599   62.2677   64.1703 C   0  0  0  0  0  0  0  0  0  0  0  0
  -33.8227   61.2626   64.6220 C   0  0  0  0  0  0  0  0  0  0  0  0
  -35.1110   61.7879   65.2770 C   0  0  0  0  0  0  0  0  0  0  0  0
  -34.7439   62.9692   66.1537 C   0  0  0  0  0  0  0  0  0  0  0  0
  -33.1921   64.5386   68.0736 Si  0  0  0  0  0  0  0  0  0  0  0  0
  -33.6379   64.9796   66.3996 O   0  0  0  0  0  0  0  0  0  0  0  0
  -32.5975   65.6570   68.7154 H   0  0  0  0  0  0  0  0  0  0  0  0
  -32.2680   63.4606   68.0490 H   0  0  0  0  0  0  0  0  0  0  0  0
  -34.3565   64.1476   68.7862 H   0  0  0  0  0  0  0  0  0  0  0  0
  -44.3500   58.9295   65.9905 C   0  0  0  0  0  0  0  0  0  0  0  0
  -43.2727   59.7240   65.2422 C   0  0  0  0  0  0  0  0  0  0  0  0
  -45.8041   59.4019   65.8225 C   0  0  0  0  0  0  0  0  0  0  0  0
  -46.8074   59.0254   66.9320 C   0  0  0  0  0  0  0  0  0  0  0  0
  -48.0326   58.5316   66.2960 N   0  0  0  0  0  0  0  0  0  0  0  0
  -49.2083   59.1802   66.0839 C   0  0  0  0  0  0  0  0  0  0  0  0
  -47.9487   57.2034   65.8550 O   0  0  0  0  0  0  0  0  0  0  0  0
  -49.3607   60.3518   66.4287 O   0  0  0  0  0  0  0  0  0  0  0  0
  -48.7897   56.9445   65.4468 H   0  0  0  0  0  0  0  0  0  0  0  0
  -50.3593   58.4274   65.4084 C   0  0  0  0  0  0  0  0  0  0  0  0
  -50.3489   58.4933   63.8752 C   0  0  0  0  0  0  0  0  0  0  0  0
  -51.1762   59.7003   63.3923 C   0  0  0  0  0  0  0  0  0  0  0  0
  -50.5998   60.3770   62.1342 C   0  0  0  0  0  0  0  0  0  0  0  0
  -49.3665   59.6749   61.5361 C   0  0  0  0  0  0  0  0  0  0  0  0
  -49.3976   59.6169   59.9945 C   0  0  0  0  0  0  0  0  0  0  0  0
  -50.2309   58.4512   59.4128 C   0  0  0  0  0  0  0  0  0  0  0  0
  -50.6824   57.4372   60.4702 C   0  0  0  0  0  0  0  0  0  0  0  0
  -49.6052   56.4528   60.9367 C   0  0  0  0  0  0  0  0  0  0  0  0
  -48.8687   55.8194   59.7422 C   0  0  0  0  0  0  0  0  0  0  0  0
  -47.5177   56.4775   59.4235 C   0  0  0  0  0  0  0  0  0  0  0  0
  -46.9009   56.1097   58.0701 C   0  0  0  0  0  0  0  0  0  0  0  0
  -47.9010   56.1350   56.8874 C   0  0  0  0  0  0  0  0  0  0  0  0
  -48.1703   57.5751   56.4058 C   0  0  0  0  0  0  0  0  0  0  0  0
  -47.0219   58.5828   56.5362 C   0  0  0  0  0  0  0  0  0  0  0  0
 46 47  1  0  0  0
 46 48  1  0  0  0
 46 45  1  0  0  0
 47 49  2  0  0  0
 47 51  1  0  0  0
 19 20  2  0  0  0
 37 38  1  0  0  0
 37 39  1  0  0  0
 37 40  1  0  0  0
 37 41  1  0  0  0
 48 50  1  0  0  0
 38 29  1  0  0  0
 45 44  1  0  0  0
 25 27  1  0  0  0
 25 35  1  0  0  0
 25 28  1  0  0  0
 21 20  1  0  0  0
 21 22  1  0  0  0
 44 42  1  0  0  0
  2  1  1  0  0  0
  2  4  1  0  0  0
  2  5  1  0  0  0
 26 27  2  0  0  0
 42 43  2  0  0  0
 29 31  1  0  0  0
 29 36  1  0  0  0
  3  4  2  0  0  0
 43  1  1  0  0  0
  6  9  2  0  0  0
  6 10  1  0  0  0
  1 20  1  0  0  0
 30 36  2  0  0  0
  7  8  1  0  0  0
  7  9  1  0  0  0
 22 24  1  0  0  0
 22 23  1  0  0  0
 11 12  1  0  0  0
 11 18  1  0  0  0
 24 27  1  0  0  0
  4 10  1  0  0  0
 51 52  1  0  0  0
 52 53  1  0  0  0
 53 54  1  0  0  0
 54 55  1  0  0  0
 55 56  1  0  0  0
 56 57  1  0  0  0
 57 58  1  0  0  0
 58 59  1  0  0  0
 59 60  1  0  0  0
 60 61  1  0  0  0
 61 62  1  0  0  0
 62 63  1  0  0  0
 63 64  1  0  0  0
 64 65  1  0  0  0
 31 32  1  0  0  0
 32 33  1  0  0  0
 33 34  1  0  0  0
 34 35  1  0  0  0
 35 36  1  0  0  0
  8 10  1  0  0  0
  9 17  1  0  0  0
 12 13  2  0  0  0
 12 17  1  0  0  0
 13 14  1  0  0  0
 14 15  2  0  0  0
 15 16  1  0  0  0
 16 17  2  0  0  0
M  END
> <minimizedAffinity>
-10.43833

> <CNNscore>
0.1718166023

> <CNNaffinity>
7.4200849533

> <CNN_VS>
1.2748937607

> <CNNaffinity_variance>
0.9526234865

$$$$
/media/chris/experiments/cd1a-new-docking/inputs/ligands/1xz0_ligand.pdb


 65 67  0  0  0  0  0  0  0  0999 V2000
  -36.9071   57.9072   63.1607 C   0  0  0  0  0  0  0  0  0  0  0  0
  -35.4870   57.5502   63.1687 N   0  0  0  0  0  0  0  0  0  0  0  0
  -33.2567   57.9297   63.4021 O   0  0  0  0  0  0  0  0  0  0  0  0
  -34.4166   58.3194   63.4328 C   0  0  0  0  0  0  0  0  0  0  0  0
  -35.2874   56.6115   62.9491 H   0  0  0  0  0  0  0  0  0  0  0  0
  -34.3368   60.7401   62.8724 N   0  0  0  0  0  0  0  0  0  0  0  0
  -33.2427   61.4930   64.6691 O   0  0  0  0  0  0  0  0  0  0  0  0
  -33.8724   60.2967   65.1261 C   0  0  0  0  0  0  0  0  0  0  0  0
  -33.5763   61.6649   63.2773 C   0  0  0  0  0  0  0  0  0  0  0  0
  -34.6648   59.7433   63.9094 C   0  0  0  0  0  0  0  0  0  0  0  0
  -35.3451   63.5691   61.9958 O   0  0  0  0  0  0  0  0  0  0  0  0
  -34.0225   63.7302   61.8682 C   0  0  0  0  0  0  0  0  0  0  0  0
  -33.5244   64.8166   61.1373 C   0  0  0  0  0  0  0  0  0  0  0  0
  -32.1404   65.0025   60.9806 C   0  0  0  0  0  0  0  0  0  0  0  0
  -31.2386   64.1093   61.5617 C   0  0  0  0  0  0  0  0  0  0  0  0
  -31.7305   63.0274   62.2972 C   0  0  0  0  0  0  0  0  0  0  0  0
  -33.1169   62.8336   62.4486 C   0  0  0  0  0  0  0  0  0  0  0  0
  -35.9323   64.1819   61.5987 H   0  0  0  0  0  0  0  0  0  0  0  0
  -36.5352   58.9651   61.0445 O   0  0  0  0  0  0  0  0  0  0  0  0
  -37.2534   58.2506   61.7243 C   0  0  0  0  0  0  0  0  0  0  0  0
  -38.5134   57.7749   61.1438 O   0  0  0  0  0  0  0  0  0  0  0  0
  -38.9379   58.1904   59.8319 C   0  0  0  0  0  0  0  0  0  0  0  0
  -37.8836   58.9515   59.0376 C   0  0  0  0  0  0  0  0  0  0  0  0
  -40.2123   59.0083   59.9770 C   0  0  0  0  0  0  0  0  0  0  0  0
  -41.3201   59.2053   62.1519 N   0  0  0  0  0  0  0  0  0  0  0  0
  -39.5234   60.4774   61.6334 O   0  0  0  0  0  0  0  0  0  0  0  0
  -40.3542   59.6503   61.3350 C   0  0  0  0  0  0  0  0  0  0  0  0
  -41.3639   59.5862   63.0588 H   0  0  0  0  0  0  0  0  0  0  0  0
  -42.4492   56.7919   63.8119 N   0  0  0  0  0  0  0  0  0  0  0  0
  -44.2902   57.8251   63.0317 O   0  0  0  0  0  0  0  0  0  0  0  0
  -40.9905   56.6611   63.9431 C   0  0  0  0  0  0  0  0  0  0  0  0
  -40.3919   55.9682   62.7045 C   0  0  0  0  0  0  0  0  0  0  0  0
  -41.3621   55.7376   61.5576 C   0  0  0  0  0  0  0  0  0  0  0  0
  -41.8277   57.0379   60.8969 C   0  0  0  0  0  0  0  0  0  0  0  0
  -42.3164   58.1909   61.7894 C   0  0  0  0  0  0  0  0  0  0  0  0
  -43.0921   57.5923   62.9465 C   0  0  0  0  0  0  0  0  0  0  0  0
  -44.8838   56.5458   65.0511 Si  0  0  0  0  0  0  0  0  0  0  0  0
  -43.2166   56.0406   64.6502 O   0  0  0  0  0  0  0  0  0  0  0  0
  -45.4651   55.5999   65.9364 H   0  0  0  0  0  0  0  0  0  0  0  0
  -45.6558   56.6171   63.8614 H   0  0  0  0  0  0  0  0  0  0  0  0
  -44.8551   57.8216   65.6738 H   0  0  0  0  0  0  0  0  0  0  0  0
  -38.4017   58.5112   65.2332 C   0  0  0  0  0  0  0  0  0  0  0  0
  -37.3811   58.9680   64.1836 C   0  0  0  0  0  0  0  0  0  0  0  0
  -39.1952   59.6128   65.9561 C   0  0  0  0  0  0  0  0  0  0  0  0
  -40.3699   60.2601   65.1941 C   0  0  0  0  0  0  0  0  0  0  0  0
  -41.6222   59.7911   65.7954 N   0  0  0  0  0  0  0  0  0  0  0  0
  -42.8949   59.9258   65.3372 C   0  0  0  0  0  0  0  0  0  0  0  0
  -41.4505   59.1125   67.0101 O   0  0  0  0  0  0  0  0  0  0  0  0
  -43.1316   60.4967   64.2729 O   0  0  0  0  0  0  0  0  0  0  0  0
  -42.3151   58.8323   67.3490 H   0  0  0  0  0  0  0  0  0  0  0  0
  -44.0478   59.3584   66.1720 C   0  0  0  0  0  0  0  0  0  0  0  0
  -45.4411   59.5890   65.5714 C   0  0  0  0  0  0  0  0  0  0  0  0
  -46.4676   58.6573   66.2441 C   0  0  0  0  0  0  0  0  0  0  0  0
  -47.9306   59.0419   65.9527 C   0  0  0  0  0  0  0  0  0  0  0  0
  -48.1029   60.3335   65.1318 C   0  0  0  0  0  0  0  0  0  0  0  0
  -49.1705   60.2033   64.0253 C   0  0  0  0  0  0  0  0  0  0  0  0
  -48.8475   59.1469   62.9430 C   0  0  0  0  0  0  0  0  0  0  0  0
  -49.7746   57.9267   62.9857 C   0  0  0  0  0  0  0  0  0  0  0  0
  -50.9381   57.9521   61.9894 C   0  0  0  0  0  0  0  0  0  0  0  0
  -50.5645   57.2480   60.6723 C   0  0  0  0  0  0  0  0  0  0  0  0
  -50.2112   58.2118   59.5294 C   0  0  0  0  0  0  0  0  0  0  0  0
  -48.7704   58.1335   59.0141 C   0  0  0  0  0  0  0  0  0  0  0  0
  -47.9408   56.9734   59.6186 C   0  0  0  0  0  0  0  0  0  0  0  0
  -47.1942   56.1829   58.5249 C   0  0  0  0  0  0  0  0  0  0  0  0
  -47.8317   56.1445   57.1308 C   0  0  0  0  0  0  0  0  0  0  0  0
 46 47  1  0  0  0
 46 48  1  0  0  0
 46 45  1  0  0  0
 47 49  2  0  0  0
 47 51  1  0  0  0
 19 20  2  0  0  0
 37 38  1  0  0  0
 37 39  1  0  0  0
 37 40  1  0  0  0
 37 41  1  0  0  0
 48 50  1  0  0  0
 38 29  1  0  0  0
 45 44  1  0  0  0
 25 27  1  0  0  0
 25 35  1  0  0  0
 25 28  1  0  0  0
 21 20  1  0  0  0
 21 22  1  0  0  0
 44 42  1  0  0  0
  2  1  1  0  0  0
  2  4  1  0  0  0
  2  5  1  0  0  0
 26 27  2  0  0  0
 42 43  2  0  0  0
 29 31  1  0  0  0
 29 36  1  0  0  0
  3  4  2  0  0  0
 43  1  1  0  0  0
  6  9  2  0  0  0
  6 10  1  0  0  0
  1 20  1  0  0  0
 30 36  2  0  0  0
  7  8  1  0  0  0
  7  9  1  0  0  0
 22 24  1  0  0  0
 22 23  1  0  0  0
 11 12  1  0  0  0
 11 18  1  0  0  0
 24 27  1  0  0  0
  4 10  1  0  0  0
 51 52  1  0  0  0
 52 53  1  0  0  0
 53 54  1  0  0  0
 54 55  1  0  0  0
 55 56  1  0  0  0
 56 57  1  0  0  0
 57 58  1  0  0  0
 58 59  1  0  0  0
 59 60  1  0  0  0
 60 61  1  0  0  0
 61 62  1  0  0  0
 62 63  1  0  0  0
 63 64  1  0  0  0
 64 65  1  0  0  0
 31 32  1  0  0  0
 32 33  1  0  0  0
 33 34  1  0  0  0
 34 35  1  0  0  0
 35 36  1  0  0  0
  8 10  1  0  0  0
  9 17  1  0  0  0
 12 13  2  0  0  0
 12 17  1  0  0  0
 13 14  1  0  0  0
 14 15  2  0  0  0
 15 16  1  0  0  0
 16 17  2  0  0  0
M  END
> <minimizedAffinity>
-8.96976

> <CNNscore>
0.1514621675

> <CNNaffinity>
7.5747137070

> <CNN_VS>
1.1472826004

> <CNNaffinity_variance>
1.3572672606

$$$$
/media/chris/experiments/cd1a-new-docking/inputs/ligands/1xz0_ligand.pdb


 65 67  0  0  0  0  0  0  0  0999 V2000
  -37.5666   58.4097   62.3267 C   0  0  0  0  0  0  0  0  0  0  0  0
  -37.2594   58.4365   60.8953 N   0  0  0  0  0  0  0  0  0  0  0  0
  -37.5822   59.0073   58.7175 O   0  0  0  0  0  0  0  0  0  0  0  0
  -37.9123   59.0537   59.8952 C   0  0  0  0  0  0  0  0  0  0  0  0
  -36.4595   57.9295   60.6265 H   0  0  0  0  0  0  0  0  0  0  0  0
  -39.1930   60.1552   61.7191 N   0  0  0  0  0  0  0  0  0  0  0  0
  -41.2626   59.5683   61.1155 O   0  0  0  0  0  0  0  0  0  0  0  0
  -40.5269   59.5408   59.8930 C   0  0  0  0  0  0  0  0  0  0  0  0
  -40.3535   59.9393   62.1709 C   0  0  0  0  0  0  0  0  0  0  0  0
  -39.0771   59.9622   60.2611 C   0  0  0  0  0  0  0  0  0  0  0  0
  -43.0126   60.6920   63.0424 O   0  0  0  0  0  0  0  0  0  0  0  0
  -42.0749   60.4512   63.9667 C   0  0  0  0  0  0  0  0  0  0  0  0
  -42.4000   60.5514   65.3258 C   0  0  0  0  0  0  0  0  0  0  0  0
  -41.4311   60.3130   66.3152 C   0  0  0  0  0  0  0  0  0  0  0  0
  -40.1285   59.9619   65.9567 C   0  0  0  0  0  0  0  0  0  0  0  0
  -39.8008   59.8545   64.6022 C   0  0  0  0  0  0  0  0  0  0  0  0
  -40.7672   60.1013   63.6084 C   0  0  0  0  0  0  0  0  0  0  0  0
  -43.8812   60.9245   63.3058 H   0  0  0  0  0  0  0  0  0  0  0  0
  -36.1242   58.4453   64.2382 O   0  0  0  0  0  0  0  0  0  0  0  0
  -36.2611   58.6825   63.0493 C   0  0  0  0  0  0  0  0  0  0  0  0
  -35.1467   59.3096   62.3309 O   0  0  0  0  0  0  0  0  0  0  0  0
  -33.8218   58.7462   62.3650 C   0  0  0  0  0  0  0  0  0  0  0  0
  -33.7560   57.3155   62.8849 C   0  0  0  0  0  0  0  0  0  0  0  0
  -32.9295   59.6686   63.1818 C   0  0  0  0  0  0  0  0  0  0  0  0
  -33.7263   61.9296   63.6815 N   0  0  0  0  0  0  0  0  0  0  0  0
  -32.5532   61.4909   61.7982 O   0  0  0  0  0  0  0  0  0  0  0  0
  -33.0897   61.1243   62.8185 C   0  0  0  0  0  0  0  0  0  0  0  0
  -33.7698   62.8891   63.4651 H   0  0  0  0  0  0  0  0  0  0  0  0
  -35.7053   63.4330   65.5993 N   0  0  0  0  0  0  0  0  0  0  0  0
  -36.7031   61.4491   65.2333 O   0  0  0  0  0  0  0  0  0  0  0  0
  -34.6036   64.3877   65.4071 C   0  0  0  0  0  0  0  0  0  0  0  0
  -33.4225   64.0514   66.3369 C   0  0  0  0  0  0  0  0  0  0  0  0
  -33.5495   62.7433   67.1000 C   0  0  0  0  0  0  0  0  0  0  0  0
  -33.4908   61.5123   66.1916 C   0  0  0  0  0  0  0  0  0  0  0  0
  -34.3628   61.4814   64.9254 C   0  0  0  0  0  0  0  0  0  0  0  0
  -35.6906   62.1356   65.2538 C   0  0  0  0  0  0  0  0  0  0  0  0
  -36.9264   64.1996   67.9327 Si  0  0  0  0  0  0  0  0  0  0  0  0
  -36.8463   63.9103   66.1705 O   0  0  0  0  0  0  0  0  0  0  0  0
  -38.2136   64.6929   68.2734 H   0  0  0  0  0  0  0  0  0  0  0  0
  -35.9412   65.1537   68.3011 H   0  0  0  0  0  0  0  0  0  0  0  0
  -36.6879   62.9822   68.6237 H   0  0  0  0  0  0  0  0  0  0  0  0
  -39.4238   56.5883   61.9698 C   0  0  0  0  0  0  0  0  0  0  0  0
  -38.3298   57.1769   62.8690 C   0  0  0  0  0  0  0  0  0  0  0  0
  -40.4604   55.6740   62.6445 C   0  0  0  0  0  0  0  0  0  0  0  0
  -41.9470   56.0633   62.5103 C   0  0  0  0  0  0  0  0  0  0  0  0
  -42.4885   56.2815   63.8553 N   0  0  0  0  0  0  0  0  0  0  0  0
  -43.4459   57.1570   64.2609 C   0  0  0  0  0  0  0  0  0  0  0  0
  -41.9209   55.4574   64.8372 O   0  0  0  0  0  0  0  0  0  0  0  0
  -44.0037   57.9070   63.4602 O   0  0  0  0  0  0  0  0  0  0  0  0
  -42.3238   55.6547   65.6973 H   0  0  0  0  0  0  0  0  0  0  0  0
  -43.8249   57.2066   65.7448 C   0  0  0  0  0  0  0  0  0  0  0  0
  -45.3334   57.2952   66.0130 C   0  0  0  0  0  0  0  0  0  0  0  0
  -45.7461   58.7636   66.2314 C   0  0  0  0  0  0  0  0  0  0  0  0
  -46.8220   59.2534   65.2437 C   0  0  0  0  0  0  0  0  0  0  0  0
  -48.2496   58.7684   65.5579 C   0  0  0  0  0  0  0  0  0  0  0  0
  -48.8815   57.9709   64.3979 C   0  0  0  0  0  0  0  0  0  0  0  0
  -50.2948   58.4461   63.9875 C   0  0  0  0  0  0  0  0  0  0  0  0
  -50.4537   58.6540   62.4769 C   0  0  0  0  0  0  0  0  0  0  0  0
  -49.2822   59.3584   61.7852 C   0  0  0  0  0  0  0  0  0  0  0  0
  -49.5532   59.5539   60.2823 C   0  0  0  0  0  0  0  0  0  0  0  0
  -49.6651   58.2403   59.4938 C   0  0  0  0  0  0  0  0  0  0  0  0
  -48.3498   57.6810   58.9419 C   0  0  0  0  0  0  0  0  0  0  0  0
  -47.7560   58.4958   57.7658 C   0  0  0  0  0  0  0  0  0  0  0  0
  -47.5964   57.6280   56.5010 C   0  0  0  0  0  0  0  0  0  0  0  0
  -47.3403   56.1303   56.7077 C   0  0  0  0  0  0  0  0  0  0  0  0
 46 47  1  0  0  0
 46 48  1  0  0  0
 46 45  1  0  0  0
 47 49  2  0  0  0
 47 51  1  0  0  0
 19 20  2  0  0  0
 37 38  1  0  0  0
 37 39  1  0  0  0
 37 40  1  0  0  0
 37 41  1  0  0  0
 48 50  1  0  0  0
 38 29  1  0  0  0
 45 44  1  0  0  0
 25 27  1  0  0  0
 25 35  1  0  0  0
 25 28  1  0  0  0
 21 20  1  0  0  0
 21 22  1  0  0  0
 44 42  1  0  0  0
  2  1  1  0  0  0
  2  4  1  0  0  0
  2  5  1  0  0  0
 26 27  2  0  0  0
 42 43  2  0  0  0
 29 31  1  0  0  0
 29 36  1  0  0  0
  3  4  2  0  0  0
 43  1  1  0  0  0
  6  9  2  0  0  0
  6 10  1  0  0  0
  1 20  1  0  0  0
 30 36  2  0  0  0
  7  8  1  0  0  0
  7  9  1  0  0  0
 22 24  1  0  0  0
 22 23  1  0  0  0
 11 12  1  0  0  0
 11 18  1  0  0  0
 24 27  1  0  0  0
  4 10  1  0  0  0
 51 52  1  0  0  0
 52 53  1  0  0  0
 53 54  1  0  0  0
 54 55  1  0  0  0
 55 56  1  0  0  0
 56 57  1  0  0  0
 57 58  1  0  0  0
 58 59  1  0  0  0
 59 60  1  0  0  0
 60 61  1  0  0  0
 61 62  1  0  0  0
 62 63  1  0  0  0
 63 64  1  0  0  0
 64 65  1  0  0  0
 31 32  1  0  0  0
 32 33  1  0  0  0
 33 34  1  0  0  0
 34 35  1  0  0  0
 35 36  1  0  0  0
  8 10  1  0  0  0
  9 17  1  0  0  0
 12 13  2  0  0  0
 12 17  1  0  0  0
 13 14  1  0  0  0
 14 15  2  0  0  0
 15 16  1  0  0  0
 16 17  2  0  0  0
M  END
> <minimizedAffinity>
-10.11199

> <CNNscore>
0.1463247538

> <CNNaffinity>
7.4395475388

> <CNN_VS>
1.0885899067

> <CNNaffinity_variance>
1.3890599012

$$$$
/media/chris/experiments/cd1a-new-docking/inputs/ligands/1xz0_ligand.pdb


 65 67  0  0  0  0  0  0  0  0999 V2000
  -36.5211   57.9147   62.5368 C   0  0  0  0  0  0  0  0  0  0  0  0
  -35.1544   58.2397   62.1238 N   0  0  0  0  0  0  0  0  0  0  0  0
  -33.1640   59.3355   62.2273 O   0  0  0  0  0  0  0  0  0  0  0  0
  -34.2916   59.1238   62.6540 C   0  0  0  0  0  0  0  0  0  0  0  0
  -34.8190   57.7384   61.3456 H   0  0  0  0  0  0  0  0  0  0  0  0
  -34.4463   61.2845   63.8736 N   0  0  0  0  0  0  0  0  0  0  0  0
  -33.4882   60.6834   65.8006 O   0  0  0  0  0  0  0  0  0  0  0  0
  -34.0038   59.4603   65.2765 C   0  0  0  0  0  0  0  0  0  0  0  0
  -33.7974   61.7325   64.8615 C   0  0  0  0  0  0  0  0  0  0  0  0
  -34.6993   59.8325   63.9376 C   0  0  0  0  0  0  0  0  0  0  0  0
  -33.0860   62.8843   67.4236 O   0  0  0  0  0  0  0  0  0  0  0  0
  -33.0857   63.6707   66.3404 C   0  0  0  0  0  0  0  0  0  0  0  0
  -32.7285   65.0197   66.4638 C   0  0  0  0  0  0  0  0  0  0  0  0
  -32.7296   65.8681   65.3437 C   0  0  0  0  0  0  0  0  0  0  0  0
  -33.0783   65.3745   64.0854 C   0  0  0  0  0  0  0  0  0  0  0  0
  -33.4293   64.0278   63.9559 C   0  0  0  0  0  0  0  0  0  0  0  0
  -33.4376   63.1773   65.0781 C   0  0  0  0  0  0  0  0  0  0  0  0
  -32.8467   63.2365   68.2582 H   0  0  0  0  0  0  0  0  0  0  0  0
  -37.2615   59.8489   61.3342 O   0  0  0  0  0  0  0  0  0  0  0  0
  -37.4423   58.6718   61.5992 C   0  0  0  0  0  0  0  0  0  0  0  0
  -38.6237   58.0054   61.0412 O   0  0  0  0  0  0  0  0  0  0  0  0
  -38.8396   57.9297   59.6194 C   0  0  0  0  0  0  0  0  0  0  0  0
  -37.9396   58.8406   58.7937 C   0  0  0  0  0  0  0  0  0  0  0  0
  -40.3085   58.2112   59.3418 C   0  0  0  0  0  0  0  0  0  0  0  0
  -41.5213   58.7854   61.3903 N   0  0  0  0  0  0  0  0  0  0  0  0
  -41.6705   56.7199   60.4810 O   0  0  0  0  0  0  0  0  0  0  0  0
  -41.2118   57.8392   60.4917 C   0  0  0  0  0  0  0  0  0  0  0  0
  -42.1614   58.5502   62.1003 H   0  0  0  0  0  0  0  0  0  0  0  0
  -41.6534   61.0226   63.5885 N   0  0  0  0  0  0  0  0  0  0  0  0
  -39.4734   60.9293   63.0366 O   0  0  0  0  0  0  0  0  0  0  0  0
  -43.0485   60.5795   63.4490 C   0  0  0  0  0  0  0  0  0  0  0  0
  -43.7169   61.2566   62.2377 C   0  0  0  0  0  0  0  0  0  0  0  0
  -42.7856   62.0686   61.3527 C   0  0  0  0  0  0  0  0  0  0  0  0
  -41.7659   61.2051   60.6056 C   0  0  0  0  0  0  0  0  0  0  0  0
  -40.9728   60.1464   61.3898 C   0  0  0  0  0  0  0  0  0  0  0  0
  -40.6455   60.7207   62.7543 C   0  0  0  0  0  0  0  0  0  0  0  0
  -41.8534   61.3052   66.3095 Si  0  0  0  0  0  0  0  0  0  0  0  0
  -41.3553   61.8012   64.6659 O   0  0  0  0  0  0  0  0  0  0  0  0
  -41.4256   62.2807   67.2485 H   0  0  0  0  0  0  0  0  0  0  0  0
  -41.2626   60.0531   66.6255 H   0  0  0  0  0  0  0  0  0  0  0  0
  -43.2676   61.1875   66.3603 H   0  0  0  0  0  0  0  0  0  0  0  0
  -38.3202   57.7868   64.4448 C   0  0  0  0  0  0  0  0  0  0  0  0
  -36.8752   58.0939   64.0330 C   0  0  0  0  0  0  0  0  0  0  0  0
  -38.7963   58.3612   65.7899 C   0  0  0  0  0  0  0  0  0  0  0  0
  -39.9571   59.3765   65.7592 C   0  0  0  0  0  0  0  0  0  0  0  0
  -41.2043   58.6578   66.0379 N   0  0  0  0  0  0  0  0  0  0  0  0
  -41.8815   57.7812   65.2501 C   0  0  0  0  0  0  0  0  0  0  0  0
  -41.7491   58.9329   67.3001 O   0  0  0  0  0  0  0  0  0  0  0  0
  -41.4647   57.4753   64.1332 O   0  0  0  0  0  0  0  0  0  0  0  0
  -42.5681   58.4262   67.4162 H   0  0  0  0  0  0  0  0  0  0  0  0
  -43.1890   57.1742   65.7697 C   0  0  0  0  0  0  0  0  0  0  0  0
  -44.4343   57.5581   64.9591 C   0  0  0  0  0  0  0  0  0  0  0  0
  -45.6602   57.6553   65.8875 C   0  0  0  0  0  0  0  0  0  0  0  0
  -46.5091   58.9195   65.6548 C   0  0  0  0  0  0  0  0  0  0  0  0
  -46.4340   59.4884   64.2256 C   0  0  0  0  0  0  0  0  0  0  0  0
  -47.7718   59.3781   63.4646 C   0  0  0  0  0  0  0  0  0  0  0  0
  -49.0113   59.1885   64.3699 C   0  0  0  0  0  0  0  0  0  0  0  0
  -49.9537   58.0790   63.8892 C   0  0  0  0  0  0  0  0  0  0  0  0
  -51.0776   58.5336   62.9525 C   0  0  0  0  0  0  0  0  0  0  0  0
  -51.1195   57.6810   61.6713 C   0  0  0  0  0  0  0  0  0  0  0  0
  -50.1807   58.1779   60.5616 C   0  0  0  0  0  0  0  0  0  0  0  0
  -49.5095   57.0877   59.7199 C   0  0  0  0  0  0  0  0  0  0  0  0
  -48.1524   57.5067   59.1014 C   0  0  0  0  0  0  0  0  0  0  0  0
  -48.3008   57.8777   57.6119 C   0  0  0  0  0  0  0  0  0  0  0  0
  -47.0142   57.9732   56.7831 C   0  0  0  0  0  0  0  0  0  0  0  0
 46 47  1  0  0  0
 46 48  1  0  0  0
 46 45  1  0  0  0
 47 49  2  0  0  0
 47 51  1  0  0  0
 19 20  2  0  0  0
 37 38  1  0  0  0
 37 39  1  0  0  0
 37 40  1  0  0  0
 37 41  1  0  0  0
 48 50  1  0  0  0
 38 29  1  0  0  0
 45 44  1  0  0  0
 25 27  1  0  0  0
 25 35  1  0  0  0
 25 28  1  0  0  0
 21 20  1  0  0  0
 21 22  1  0  0  0
 44 42  1  0  0  0
  2  1  1  0  0  0
  2  4  1  0  0  0
  2  5  1  0  0  0
 26 27  2  0  0  0
 42 43  2  0  0  0
 29 31  1  0  0  0
 29 36  1  0  0  0
  3  4  2  0  0  0
 43  1  1  0  0  0
  6  9  2  0  0  0
  6 10  1  0  0  0
  1 20  1  0  0  0
 30 36  2  0  0  0
  7  8  1  0  0  0
  7  9  1  0  0  0
 22 24  1  0  0  0
 22 23  1  0  0  0
 11 12  1  0  0  0
 11 18  1  0  0  0
 24 27  1  0  0  0
  4 10  1  0  0  0
 51 52  1  0  0  0
 52 53  1  0  0  0
 53 54  1  0  0  0
 54 55  1  0  0  0
 55 56  1  0  0  0
 56 57  1  0  0  0
 57 58  1  0  0  0
 58 59  1  0  0  0
 59 60  1  0  0  0
 60 61  1  0  0  0
 61 62  1  0  0  0
 62 63  1  0  0  0
 63 64  1  0  0  0
 64 65  1  0  0  0
 31 32  1  0  0  0
 32 33  1  0  0  0
 33 34  1  0  0  0
 34 35  1  0  0  0
 35 36  1  0  0  0
  8 10  1  0  0  0
  9 17  1  0  0  0
 12 13  2  0  0  0
 12 17  1  0  0  0
 13 14  1  0  0  0
 14 15  2  0  0  0
 15 16  1  0  0  0
 16 17  2  0  0  0
M  END
> <minimizedAffinity>
-8.69855

> <CNNscore>
0.1427880824

> <CNNaffinity>
7.5106949806

> <CNN_VS>
1.0724377632

> <CNNaffinity_variance>
0.8246546984

$$$$
/media/chris/experiments/cd1a-new-docking/inputs/ligands/1xz0_ligand.pdb


 65 67  0  0  0  0  0  0  0  0999 V2000
  -36.6910   59.3604   62.0419 C   0  0  0  0  0  0  0  0  0  0  0  0
  -37.0576   59.0139   60.6673 N   0  0  0  0  0  0  0  0  0  0  0  0
  -38.4711   58.7391   58.9067 O   0  0  0  0  0  0  0  0  0  0  0  0
  -38.2599   59.0639   60.0678 C   0  0  0  0  0  0  0  0  0  0  0  0
  -36.3169   58.6990   60.1003 H   0  0  0  0  0  0  0  0  0  0  0  0
  -39.8870   58.7750   61.9249 N   0  0  0  0  0  0  0  0  0  0  0  0
  -41.7697   59.3032   60.8439 O   0  0  0  0  0  0  0  0  0  0  0  0
  -40.7518   59.9920   60.1187 C   0  0  0  0  0  0  0  0  0  0  0  0
  -41.1355   58.5782   61.9164 C   0  0  0  0  0  0  0  0  0  0  0  0
  -39.4184   59.6680   60.8481 C   0  0  0  0  0  0  0  0  0  0  0  0
  -39.9294   56.5820   63.6362 O   0  0  0  0  0  0  0  0  0  0  0  0
  -41.2445   56.8102   63.7364 C   0  0  0  0  0  0  0  0  0  0  0  0
  -42.0019   56.0967   64.6745 C   0  0  0  0  0  0  0  0  0  0  0  0
  -43.3856   56.3110   64.7927 C   0  0  0  0  0  0  0  0  0  0  0  0
  -44.0259   57.2487   63.9807 C   0  0  0  0  0  0  0  0  0  0  0  0
  -43.2736   57.9677   63.0476 C   0  0  0  0  0  0  0  0  0  0  0  0
  -41.8884   57.7488   62.9209 C   0  0  0  0  0  0  0  0  0  0  0  0
  -39.5200   55.9491   64.1926 H   0  0  0  0  0  0  0  0  0  0  0  0
  -37.1139   57.0986   62.7059 O   0  0  0  0  0  0  0  0  0  0  0  0
  -36.3563   58.0544   62.7371 C   0  0  0  0  0  0  0  0  0  0  0  0
  -35.1258   57.9428   63.5274 O   0  0  0  0  0  0  0  0  0  0  0  0
  -33.8521   58.3491   62.9921 C   0  0  0  0  0  0  0  0  0  0  0  0
  -32.8511   57.2147   62.8115 C   0  0  0  0  0  0  0  0  0  0  0  0
  -33.2854   59.4448   63.8822 C   0  0  0  0  0  0  0  0  0  0  0  0
  -33.1039   61.8865   63.8455 N   0  0  0  0  0  0  0  0  0  0  0  0
  -32.7366   60.6568   61.9832 O   0  0  0  0  0  0  0  0  0  0  0  0
  -33.0481   60.7419   63.1489 C   0  0  0  0  0  0  0  0  0  0  0  0
  -32.8851   62.7215   63.3719 H   0  0  0  0  0  0  0  0  0  0  0  0
  -35.5561   63.2878   65.2160 N   0  0  0  0  0  0  0  0  0  0  0  0
  -35.5359   61.2242   66.1142 O   0  0  0  0  0  0  0  0  0  0  0  0
  -35.0121   64.3201   64.3214 C   0  0  0  0  0  0  0  0  0  0  0  0
  -33.8102   65.0287   64.9741 C   0  0  0  0  0  0  0  0  0  0  0  0
  -33.3272   64.4177   66.2792 C   0  0  0  0  0  0  0  0  0  0  0  0
  -32.7101   63.0285   66.0974 C   0  0  0  0  0  0  0  0  0  0  0  0
  -33.4684   61.9822   65.2636 C   0  0  0  0  0  0  0  0  0  0  0  0
  -34.9492   62.1375   65.5499 C   0  0  0  0  0  0  0  0  0  0  0  0
  -36.9612   64.2241   67.3776 Si  0  0  0  0  0  0  0  0  0  0  0  0
  -36.7906   63.5147   65.7457 O   0  0  0  0  0  0  0  0  0  0  0  0
  -38.3390   64.3578   67.6940 H   0  0  0  0  0  0  0  0  0  0  0  0
  -36.3431   65.5023   67.4051 H   0  0  0  0  0  0  0  0  0  0  0  0
  -36.3369   63.3759   68.3301 H   0  0  0  0  0  0  0  0  0  0  0  0
  -37.7999   59.9748   64.3412 C   0  0  0  0  0  0  0  0  0  0  0  0
  -37.6735   60.2529   62.8383 C   0  0  0  0  0  0  0  0  0  0  0  0
  -39.0490   60.5286   65.0475 C   0  0  0  0  0  0  0  0  0  0  0  0
  -39.8603   59.5544   65.9261 C   0  0  0  0  0  0  0  0  0  0  0  0
  -41.2839   59.8657   65.7641 N   0  0  0  0  0  0  0  0  0  0  0  0
  -42.3492   59.3880   66.4603 C   0  0  0  0  0  0  0  0  0  0  0  0
  -41.5515   60.7876   64.7423 O   0  0  0  0  0  0  0  0  0  0  0  0
  -42.2002   58.5853   67.3813 O   0  0  0  0  0  0  0  0  0  0  0  0
  -42.5072   60.9459   64.6919 H   0  0  0  0  0  0  0  0  0  0  0  0
  -43.7564   59.8593   66.0786 C   0  0  0  0  0  0  0  0  0  0  0  0
  -44.8903   58.9749   66.6147 C   0  0  0  0  0  0  0  0  0  0  0  0
  -46.2547   59.6244   66.3139 C   0  0  0  0  0  0  0  0  0  0  0  0
  -46.5123   59.8462   64.8113 C   0  0  0  0  0  0  0  0  0  0  0  0
  -47.6344   58.9745   64.2174 C   0  0  0  0  0  0  0  0  0  0  0  0
  -48.5005   58.2931   65.2975 C   0  0  0  0  0  0  0  0  0  0  0  0
  -49.9047   57.8604   64.8153 C   0  0  0  0  0  0  0  0  0  0  0  0
  -50.6808   58.9808   64.1135 C   0  0  0  0  0  0  0  0  0  0  0  0
  -51.1773   58.6501   62.7024 C   0  0  0  0  0  0  0  0  0  0  0  0
  -50.2187   57.6844   61.9822 C   0  0  0  0  0  0  0  0  0  0  0  0
  -50.4582   57.5831   60.4682 C   0  0  0  0  0  0  0  0  0  0  0  0
  -49.5212   58.4175   59.5888 C   0  0  0  0  0  0  0  0  0  0  0  0
  -48.8768   57.6305   58.4205 C   0  0  0  0  0  0  0  0  0  0  0  0
  -47.8715   58.5010   57.6394 C   0  0  0  0  0  0  0  0  0  0  0  0
  -46.8100   57.7696   56.8090 C   0  0  0  0  0  0  0  0  0  0  0  0
 46 47  1  0  0  0
 46 48  1  0  0  0
 46 45  1  0  0  0
 47 49  2  0  0  0
 47 51  1  0  0  0
 19 20  2  0  0  0
 37 38  1  0  0  0
 37 39  1  0  0  0
 37 40  1  0  0  0
 37 41  1  0  0  0
 48 50  1  0  0  0
 38 29  1  0  0  0
 45 44  1  0  0  0
 25 27  1  0  0  0
 25 35  1  0  0  0
 25 28  1  0  0  0
 21 20  1  0  0  0
 21 22  1  0  0  0
 44 42  1  0  0  0
  2  1  1  0  0  0
  2  4  1  0  0  0
  2  5  1  0  0  0
 26 27  2  0  0  0
 42 43  2  0  0  0
 29 31  1  0  0  0
 29 36  1  0  0  0
  3  4  2  0  0  0
 43  1  1  0  0  0
  6  9  2  0  0  0
  6 10  1  0  0  0
  1 20  1  0  0  0
 30 36  2  0  0  0
  7  8  1  0  0  0
  7  9  1  0  0  0
 22 24  1  0  0  0
 22 23  1  0  0  0
 11 12  1  0  0  0
 11 18  1  0  0  0
 24 27  1  0  0  0
  4 10  1  0  0  0
 51 52  1  0  0  0
 52 53  1  0  0  0
 53 54  1  0  0  0
 54 55  1  0  0  0
 55 56  1  0  0  0
 56 57  1  0  0  0
 57 58  1  0  0  0
 58 59  1  0  0  0
 59 60  1  0  0  0
 60 61  1  0  0  0
 61 62  1  0  0  0
 62 63  1  0  0  0
 63 64  1  0  0  0
 64 65  1  0  0  0
 31 32  1  0  0  0
 32 33  1  0  0  0
 33 34  1  0  0  0
 34 35  1  0  0  0
 35 36  1  0  0  0
  8 10  1  0  0  0
  9 17  1  0  0  0
 12 13  2  0  0  0
 12 17  1  0  0  0
 13 14  1  0  0  0
 14 15  2  0  0  0
 15 16  1  0  0  0
 16 17  2  0  0  0
M  END
> <minimizedAffinity>
-9.04875

> <CNNscore>
0.1419104785

> <CNNaffinity>
7.4811811447

> <CNN_VS>
1.0616580248

> <CNNaffinity_variance>
1.0361907482

$$$$
/media/chris/experiments/cd1a-new-docking/inputs/ligands/1xz0_ligand.pdb


 65 67  0  0  0  0  0  0  0  0999 V2000
  -36.4714   61.1316   65.2907 C   0  0  0  0  0  0  0  0  0  0  0  0
  -36.7004   62.3939   65.9967 N   0  0  0  0  0  0  0  0  0  0  0  0
  -36.1030   64.2575   67.1556 O   0  0  0  0  0  0  0  0  0  0  0  0
  -35.8113   63.2213   66.5730 C   0  0  0  0  0  0  0  0  0  0  0  0
  -37.6412   62.6775   66.0581 H   0  0  0  0  0  0  0  0  0  0  0  0
  -33.7239   63.7014   65.3112 N   0  0  0  0  0  0  0  0  0  0  0  0
  -33.1026   61.6104   64.8276 O   0  0  0  0  0  0  0  0  0  0  0  0
  -33.8901   61.4707   66.0095 C   0  0  0  0  0  0  0  0  0  0  0  0
  -33.0766   63.0081   64.4758 C   0  0  0  0  0  0  0  0  0  0  0  0
  -34.3322   62.9091   66.3969 C   0  0  0  0  0  0  0  0  0  0  0  0
  -32.8520   61.6864   61.9068 O   0  0  0  0  0  0  0  0  0  0  0  0
  -32.2629   62.8767   62.0735 C   0  0  0  0  0  0  0  0  0  0  0  0
  -31.5693   63.4618   61.0062 C   0  0  0  0  0  0  0  0  0  0  0  0
  -30.9343   64.7060   61.1586 C   0  0  0  0  0  0  0  0  0  0  0  0
  -30.9943   65.3839   62.3774 C   0  0  0  0  0  0  0  0  0  0  0  0
  -31.6905   64.8072   63.4434 C   0  0  0  0  0  0  0  0  0  0  0  0
  -32.3204   63.5565   63.2963 C   0  0  0  0  0  0  0  0  0  0  0  0
  -32.8004   61.2499   61.0793 H   0  0  0  0  0  0  0  0  0  0  0  0
  -37.1679   62.3032   63.3215 O   0  0  0  0  0  0  0  0  0  0  0  0
  -36.4235   61.4708   63.8131 C   0  0  0  0  0  0  0  0  0  0  0  0
  -35.5114   60.7412   62.9260 O   0  0  0  0  0  0  0  0  0  0  0  0
  -35.4345   59.3033   62.9491 C   0  0  0  0  0  0  0  0  0  0  0  0
  -34.0442   58.7400   62.6821 C   0  0  0  0  0  0  0  0  0  0  0  0
  -36.4494   58.7530   61.9585 C   0  0  0  0  0  0  0  0  0  0  0  0
  -38.6595   57.7084   62.1023 N   0  0  0  0  0  0  0  0  0  0  0  0
  -36.9508   57.0189   63.4140 O   0  0  0  0  0  0  0  0  0  0  0  0
  -37.4065   57.7640   62.5769 C   0  0  0  0  0  0  0  0  0  0  0  0
  -39.2572   57.0169   62.4683 H   0  0  0  0  0  0  0  0  0  0  0  0
  -41.5491   58.8887   61.7680 N   0  0  0  0  0  0  0  0  0  0  0  0
  -40.2029   60.6829   61.5826 O   0  0  0  0  0  0  0  0  0  0  0  0
  -41.7743   57.4486   61.9613 C   0  0  0  0  0  0  0  0  0  0  0  0
  -41.5678   56.6826   60.6411 C   0  0  0  0  0  0  0  0  0  0  0  0
  -41.0108   57.5075   59.4926 C   0  0  0  0  0  0  0  0  0  0  0  0
  -39.5683   57.9632   59.7275 C   0  0  0  0  0  0  0  0  0  0  0  0
  -39.2026   58.6056   61.0760 C   0  0  0  0  0  0  0  0  0  0  0  0
  -40.3668   59.4724   61.5140 C   0  0  0  0  0  0  0  0  0  0  0  0
  -42.7613   61.1727   60.8527 Si  0  0  0  0  0  0  0  0  0  0  0  0
  -42.6359   59.7045   61.8648 O   0  0  0  0  0  0  0  0  0  0  0  0
  -43.9787   61.8442   61.1415 H   0  0  0  0  0  0  0  0  0  0  0  0
  -42.7371   60.8057   59.4812 H   0  0  0  0  0  0  0  0  0  0  0  0
  -41.6677   62.0346   61.1314 H   0  0  0  0  0  0  0  0  0  0  0  0
  -38.8895   60.1092   65.2534 C   0  0  0  0  0  0  0  0  0  0  0  0
  -37.4104   59.9473   65.6251 C   0  0  0  0  0  0  0  0  0  0  0  0
  -39.8878   59.1688   65.9495 C   0  0  0  0  0  0  0  0  0  0  0  0
  -40.7789   58.2862   65.0515 C   0  0  0  0  0  0  0  0  0  0  0  0
  -42.1719   58.4571   65.4758 N   0  0  0  0  0  0  0  0  0  0  0  0
  -43.1844   57.5501   65.4749 C   0  0  0  0  0  0  0  0  0  0  0  0
  -42.4699   59.7448   65.9432 O   0  0  0  0  0  0  0  0  0  0  0  0
  -43.0039   56.3942   65.0927 O   0  0  0  0  0  0  0  0  0  0  0  0
  -43.4029   59.7857   66.2054 H   0  0  0  0  0  0  0  0  0  0  0  0
  -44.5725   57.9876   65.9544 C   0  0  0  0  0  0  0  0  0  0  0  0
  -45.5808   58.2498   64.8276 C   0  0  0  0  0  0  0  0  0  0  0  0
  -45.6186   59.7531   64.4912 C   0  0  0  0  0  0  0  0  0  0  0  0
  -47.0245   60.2663   64.1264 C   0  0  0  0  0  0  0  0  0  0  0  0
  -48.0790   59.1617   63.9276 C   0  0  0  0  0  0  0  0  0  0  0  0
  -49.2766   59.2946   64.8916 C   0  0  0  0  0  0  0  0  0  0  0  0
  -50.6513   59.4183   64.1939 C   0  0  0  0  0  0  0  0  0  0  0  0
  -50.9670   58.2472   63.2562 C   0  0  0  0  0  0  0  0  0  0  0  0
  -50.9689   58.5859   61.7621 C   0  0  0  0  0  0  0  0  0  0  0  0
  -51.0658   57.3148   60.8988 C   0  0  0  0  0  0  0  0  0  0  0  0
  -49.7119   56.6415   60.6277 C   0  0  0  0  0  0  0  0  0  0  0  0
  -48.5753   57.5783   60.2059 C   0  0  0  0  0  0  0  0  0  0  0  0
  -47.7729   57.0904   58.9739 C   0  0  0  0  0  0  0  0  0  0  0  0
  -48.2217   57.8102   57.6860 C   0  0  0  0  0  0  0  0  0  0  0  0
  -47.1199   58.3291   56.7542 C   0  0  0  0  0  0  0  0  0  0  0  0
 46 47  1  0  0  0
 46 48  1  0  0  0
 46 45  1  0  0  0
 47 49  2  0  0  0
 47 51  1  0  0  0
 19 20  2  0  0  0
 37 38  1  0  0  0
 37 39  1  0  0  0
 37 40  1  0  0  0
 37 41  1  0  0  0
 48 50  1  0  0  0
 38 29  1  0  0  0
 45 44  1  0  0  0
 25 27  1  0  0  0
 25 35  1  0  0  0
 25 28  1  0  0  0
 21 20  1  0  0  0
 21 22  1  0  0  0
 44 42  1  0  0  0
  2  1  1  0  0  0
  2  4  1  0  0  0
  2  5  1  0  0  0
 26 27  2  0  0  0
 42 43  2  0  0  0
 29 31  1  0  0  0
 29 36  1  0  0  0
  3  4  2  0  0  0
 43  1  1  0  0  0
  6  9  2  0  0  0
  6 10  1  0  0  0
  1 20  1  0  0  0
 30 36  2  0  0  0
  7  8  1  0  0  0
  7  9  1  0  0  0
 22 24  1  0  0  0
 22 23  1  0  0  0
 11 12  1  0  0  0
 11 18  1  0  0  0
 24 27  1  0  0  0
  4 10  1  0  0  0
 51 52  1  0  0  0
 52 53  1  0  0  0
 53 54  1  0  0  0
 54 55  1  0  0  0
 55 56  1  0  0  0
 56 57  1  0  0  0
 57 58  1  0  0  0
 58 59  1  0  0  0
 59 60  1  0  0  0
 60 61  1  0  0  0
 61 62  1  0  0  0
 62 63  1  0  0  0
 63 64  1  0  0  0
 64 65  1  0  0  0
 31 32  1  0  0  0
 32 33  1  0  0  0
 33 34  1  0  0  0
 34 35  1  0  0  0
 35 36  1  0  0  0
  8 10  1  0  0  0
  9 17  1  0  0  0
 12 13  2  0  0  0
 12 17  1  0  0  0
 13 14  1  0  0  0
 14 15  2  0  0  0
 15 16  1  0  0  0
 16 17  2  0  0  0
M  END
> <minimizedAffinity>
-9.75775

> <CNNscore>
0.1345743239

> <CNNaffinity>
7.3518776894

> <CNN_VS>
0.9893739820

> <CNNaffinity_variance>
0.8001915216

$$$$
