/media/chris/experiments/cd1a-new-docking/inputs/ligands/1xz0_ligand.pdb


 65 67  0  0  0  0  0  0  0  0999 V2000
  -40.9544   57.3639   63.3086 C   0  0  0  0  0  0  0  0  0  0  0  0
  -40.0594   58.0215   64.2628 N   0  0  0  0  0  0  0  0  0  0  0  0
  -41.1379   59.9718   64.7167 O   0  0  0  0  0  0  0  0  0  0  0  0
  -40.1918   59.2114   64.8744 C   0  0  0  0  0  0  0  0  0  0  0  0
  -39.2429   57.5200   64.4892 H   0  0  0  0  0  0  0  0  0  0  0  0
  -38.5305   61.0123   65.2953 N   0  0  0  0  0  0  0  0  0  0  0  0
  -36.6779   59.7714   65.4377 O   0  0  0  0  0  0  0  0  0  0  0  0
  -37.7235   58.8720   65.8044 C   0  0  0  0  0  0  0  0  0  0  0  0
  -37.2778   61.0458   65.1309 C   0  0  0  0  0  0  0  0  0  0  0  0
  -39.0372   59.6992   65.7375 C   0  0  0  0  0  0  0  0  0  0  0  0
  -36.0285   62.8867   66.9877 O   0  0  0  0  0  0  0  0  0  0  0  0
  -35.8946   63.1054   65.6739 C   0  0  0  0  0  0  0  0  0  0  0  0
  -35.1454   64.2018   65.2271 C   0  0  0  0  0  0  0  0  0  0  0  0
  -34.9978   64.4584   63.8534 C   0  0  0  0  0  0  0  0  0  0  0  0
  -35.5894   63.6157   62.9109 C   0  0  0  0  0  0  0  0  0  0  0  0
  -36.3324   62.5169   63.3515 C   0  0  0  0  0  0  0  0  0  0  0  0
  -36.4895   62.2622   64.7275 C   0  0  0  0  0  0  0  0  0  0  0  0
  -35.6212   63.4645   67.6026 H   0  0  0  0  0  0  0  0  0  0  0  0
  -41.4769   58.2864   61.1612 O   0  0  0  0  0  0  0  0  0  0  0  0
  -40.6115   57.9275   61.9427 C   0  0  0  0  0  0  0  0  0  0  0  0
  -39.2120   57.9872   61.5082 O   0  0  0  0  0  0  0  0  0  0  0  0
  -38.3152   58.9977   62.0066 C   0  0  0  0  0  0  0  0  0  0  0  0
  -38.7664   60.4291   61.7439 C   0  0  0  0  0  0  0  0  0  0  0  0
  -36.9334   58.7422   61.4236 C   0  0  0  0  0  0  0  0  0  0  0  0
  -34.8417   59.2351   62.5974 N   0  0  0  0  0  0  0  0  0  0  0  0
  -36.1337   57.4774   63.1949 O   0  0  0  0  0  0  0  0  0  0  0  0
  -35.8977   58.4181   62.4717 C   0  0  0  0  0  0  0  0  0  0  0  0
  -34.7521   59.9701   61.9485 H   0  0  0  0  0  0  0  0  0  0  0  0
  -32.8130   61.3616   63.7006 N   0  0  0  0  0  0  0  0  0  0  0  0
  -33.7436   60.4845   65.5526 O   0  0  0  0  0  0  0  0  0  0  0  0
  -32.6616   61.4509   62.2408 C   0  0  0  0  0  0  0  0  0  0  0  0
  -31.7335   60.3373   61.7199 C   0  0  0  0  0  0  0  0  0  0  0  0
  -31.3271   59.2967   62.7502 C   0  0  0  0  0  0  0  0  0  0  0  0
  -32.4977   58.4272   63.2167 C   0  0  0  0  0  0  0  0  0  0  0  0
  -33.8105   59.1110   63.6339 C   0  0  0  0  0  0  0  0  0  0  0  0
  -33.4606   60.3917   64.3660 C   0  0  0  0  0  0  0  0  0  0  0  0
  -32.7180   62.5818   66.1554 Si  0  0  0  0  0  0  0  0  0  0  0  0
  -32.2541   62.3573   64.4436 O   0  0  0  0  0  0  0  0  0  0  0  0
  -31.9987   63.6778   66.7010 H   0  0  0  0  0  0  0  0  0  0  0  0
  -32.4125   61.4038   66.8870 H   0  0  0  0  0  0  0  0  0  0  0  0
  -34.1116   62.8420   66.2378 H   0  0  0  0  0  0  0  0  0  0  0  0
  -42.8806   57.0685   65.0683 C   0  0  0  0  0  0  0  0  0  0  0  0
  -42.4697   57.3812   63.6241 C   0  0  0  0  0  0  0  0  0  0  0  0
  -44.3442   56.6566   65.3005 C   0  0  0  0  0  0  0  0  0  0  0  0
  -45.0837   57.2989   66.4921 C   0  0  0  0  0  0  0  0  0  0  0  0
  -46.2976   57.9465   65.9850 N   0  0  0  0  0  0  0  0  0  0  0  0
  -46.4492   59.1933   65.4651 C   0  0  0  0  0  0  0  0  0  0  0  0
  -47.4441   57.1430   66.0592 O   0  0  0  0  0  0  0  0  0  0  0  0
  -45.4908   59.9574   65.3527 O   0  0  0  0  0  0  0  0  0  0  0  0
  -48.2048   57.6321   65.7088 H   0  0  0  0  0  0  0  0  0  0  0  0
  -47.8435   59.6469   65.0200 C   0  0  0  0  0  0  0  0  0  0  0  0
  -48.7490   60.1299   66.1611 C   0  0  0  0  0  0  0  0  0  0  0  0
  -50.2232   59.8264   65.8307 C   0  0  0  0  0  0  0  0  0  0  0  0
  -50.4468   58.4143   65.2570 C   0  0  0  0  0  0  0  0  0  0  0  0
  -50.6694   58.3686   63.7338 C   0  0  0  0  0  0  0  0  0  0  0  0
  -51.5468   59.5295   63.2204 C   0  0  0  0  0  0  0  0  0  0  0  0
  -50.7955   60.5675   62.3545 C   0  0  0  0  0  0  0  0  0  0  0  0
  -49.4927   60.0301   61.7512 C   0  0  0  0  0  0  0  0  0  0  0  0
  -49.5567   59.6767   60.2619 C   0  0  0  0  0  0  0  0  0  0  0  0
  -50.3575   58.3830   60.0261 C   0  0  0  0  0  0  0  0  0  0  0  0
  -49.5853   57.3056   59.2498 C   0  0  0  0  0  0  0  0  0  0  0  0
  -48.1743   56.9987   59.7621 C   0  0  0  0  0  0  0  0  0  0  0  0
  -47.1420   56.7047   58.6450 C   0  0  0  0  0  0  0  0  0  0  0  0
  -47.6758   57.1196   57.2589 C   0  0  0  0  0  0  0  0  0  0  0  0
  -47.1527   58.4367   56.6732 C   0  0  0  0  0  0  0  0  0  0  0  0
 46 47  1  0  0  0
 46 48  1  0  0  0
 46 45  1  0  0  0
 47 49  2  0  0  0
 47 51  1  0  0  0
 19 20  2  0  0  0
 37 38  1  0  0  0
 37 39  1  0  0  0
 37 40  1  0  0  0
 37 41  1  0  0  0
 48 50  1  0  0  0
 38 29  1  0  0  0
 45 44  1  0  0  0
 25 27  1  0  0  0
 25 35  1  0  0  0
 25 28  1  0  0  0
 21 20  1  0  0  0
 21 22  1  0  0  0
 44 42  1  0  0  0
  2  1  1  0  0  0
  2  4  1  0  0  0
  2  5  1  0  0  0
 26 27  2  0  0  0
 42 43  2  0  0  0
 29 31  1  0  0  0
 29 36  1  0  0  0
  3  4  2  0  0  0
 43  1  1  0  0  0
  6  9  2  0  0  0
  6 10  1  0  0  0
  1 20  1  0  0  0
 30 36  2  0  0  0
  7  8  1  0  0  0
  7  9  1  0  0  0
 22 24  1  0  0  0
 22 23  1  0  0  0
 11 12  1  0  0  0
 11 18  1  0  0  0
 24 27  1  0  0  0
  4 10  1  0  0  0
 51 52  1  0  0  0
 52 53  1  0  0  0
 53 54  1  0  0  0
 54 55  1  0  0  0
 55 56  1  0  0  0
 56 57  1  0  0  0
 57 58  1  0  0  0
 58 59  1  0  0  0
 59 60  1  0  0  0
 60 61  1  0  0  0
 61 62  1  0  0  0
 62 63  1  0  0  0
 63 64  1  0  0  0
 64 65  1  0  0  0
 31 32  1  0  0  0
 32 33  1  0  0  0
 33 34  1  0  0  0
 34 35  1  0  0  0
 35 36  1  0  0  0
  8 10  1  0  0  0
  9 17  1  0  0  0
 12 13  2  0  0  0
 12 17  1  0  0  0
 13 14  1  0  0  0
 14 15  2  0  0  0
 15 16  1  0  0  0
 16 17  2  0  0  0
M  END
> <minimizedAffinity>
-10.10766

> <CNNscore>
0.1863079816

> <CNNaffinity>
7.3006429672

> <CNN_VS>
1.3601680994

> <CNNaffinity_variance>
0.7256560326

$$$$
/media/chris/experiments/cd1a-new-docking/inputs/ligands/1xz0_ligand.pdb


 65 67  0  0  0  0  0  0  0  0999 V2000
  -40.8034   59.2840   64.3036 C   0  0  0  0  0  0  0  0  0  0  0  0
  -39.7806   58.8850   63.3348 N   0  0  0  0  0  0  0  0  0  0  0  0
  -40.1101   56.6434   63.1357 O   0  0  0  0  0  0  0  0  0  0  0  0
  -39.5082   57.6663   62.8367 C   0  0  0  0  0  0  0  0  0  0  0  0
  -39.2102   59.6142   62.9998 H   0  0  0  0  0  0  0  0  0  0  0  0
  -37.0386   57.4262   62.6816 N   0  0  0  0  0  0  0  0  0  0  0  0
  -36.6104   59.0332   61.1895 O   0  0  0  0  0  0  0  0  0  0  0  0
  -37.9606   58.6606   60.9159 C   0  0  0  0  0  0  0  0  0  0  0  0
  -36.1455   58.2321   62.2941 C   0  0  0  0  0  0  0  0  0  0  0  0
  -38.2997   57.5262   61.9224 C   0  0  0  0  0  0  0  0  0  0  0  0
  -35.4323   57.5723   65.0241 O   0  0  0  0  0  0  0  0  0  0  0  0
  -34.4689   57.9685   64.1835 C   0  0  0  0  0  0  0  0  0  0  0  0
  -33.1438   58.0398   64.6328 C   0  0  0  0  0  0  0  0  0  0  0  0
  -32.1159   58.4619   63.7727 C   0  0  0  0  0  0  0  0  0  0  0  0
  -32.4001   58.8079   62.4505 C   0  0  0  0  0  0  0  0  0  0  0  0
  -33.7196   58.7324   61.9957 C   0  0  0  0  0  0  0  0  0  0  0  0
  -34.7531   58.3182   62.8578 C   0  0  0  0  0  0  0  0  0  0  0  0
  -35.2184   57.3431   65.9071 H   0  0  0  0  0  0  0  0  0  0  0  0
  -40.6391   60.5645   66.3208 O   0  0  0  0  0  0  0  0  0  0  0  0
  -40.1360   60.2628   65.2510 C   0  0  0  0  0  0  0  0  0  0  0  0
  -38.8873   60.9235   64.8571 O   0  0  0  0  0  0  0  0  0  0  0  0
  -37.6160   60.4970   65.3823 C   0  0  0  0  0  0  0  0  0  0  0  0
  -37.5926   59.0627   65.8956 C   0  0  0  0  0  0  0  0  0  0  0  0
  -37.1932   61.4753   66.4678 C   0  0  0  0  0  0  0  0  0  0  0  0
  -35.0648   61.5332   65.2585 N   0  0  0  0  0  0  0  0  0  0  0  0
  -35.3438   62.6714   67.1929 O   0  0  0  0  0  0  0  0  0  0  0  0
  -35.7567   61.9186   66.3406 C   0  0  0  0  0  0  0  0  0  0  0  0
  -35.5043   60.9153   64.6306 H   0  0  0  0  0  0  0  0  0  0  0  0
  -33.9124   64.4168   64.7981 N   0  0  0  0  0  0  0  0  0  0  0  0
  -32.4946   63.4941   66.2827 O   0  0  0  0  0  0  0  0  0  0  0  0
  -35.0976   64.3657   63.9297 C   0  0  0  0  0  0  0  0  0  0  0  0
  -34.7707   63.6556   62.6024 C   0  0  0  0  0  0  0  0  0  0  0  0
  -33.3974   63.0085   62.5340 C   0  0  0  0  0  0  0  0  0  0  0  0
  -33.2504   61.8146   63.4810 C   0  0  0  0  0  0  0  0  0  0  0  0
  -33.6989   61.9677   64.9440 C   0  0  0  0  0  0  0  0  0  0  0  0
  -33.3348   63.3661   65.4028 C   0  0  0  0  0  0  0  0  0  0  0  0
  -31.7241   65.7819   65.7320 Si  0  0  0  0  0  0  0  0  0  0  0  0
  -33.3563   65.6411   65.0163 O   0  0  0  0  0  0  0  0  0  0  0  0
  -31.3777   67.1535   65.8546 H   0  0  0  0  0  0  0  0  0  0  0  0
  -30.7819   65.1286   64.8942 H   0  0  0  0  0  0  0  0  0  0  0  0
  -31.7164   65.1751   67.0159 H   0  0  0  0  0  0  0  0  0  0  0  0
  -42.9393   57.7621   64.4294 C   0  0  0  0  0  0  0  0  0  0  0  0
  -41.5816   58.1563   65.0239 C   0  0  0  0  0  0  0  0  0  0  0  0
  -43.8994   56.9843   65.3454 C   0  0  0  0  0  0  0  0  0  0  0  0
  -44.6257   57.7766   66.4518 C   0  0  0  0  0  0  0  0  0  0  0  0
  -46.0625   57.7627   66.1596 N   0  0  0  0  0  0  0  0  0  0  0  0
  -46.8409   58.7510   65.6447 C   0  0  0  0  0  0  0  0  0  0  0  0
  -46.6927   56.5477   66.4633 O   0  0  0  0  0  0  0  0  0  0  0  0
  -46.3638   59.8436   65.3389 O   0  0  0  0  0  0  0  0  0  0  0  0
  -47.6360   56.6097   66.2460 H   0  0  0  0  0  0  0  0  0  0  0  0
  -48.3386   58.4910   65.4515 C   0  0  0  0  0  0  0  0  0  0  0  0
  -49.2544   59.5336   66.1070 C   0  0  0  0  0  0  0  0  0  0  0  0
  -50.7166   59.2927   65.6850 C   0  0  0  0  0  0  0  0  0  0  0  0
  -51.3044   60.4292   64.8271 C   0  0  0  0  0  0  0  0  0  0  0  0
  -51.5528   60.0576   63.3533 C   0  0  0  0  0  0  0  0  0  0  0  0
  -50.2972   60.2256   62.4721 C   0  0  0  0  0  0  0  0  0  0  0  0
  -49.6288   58.8972   62.0474 C   0  0  0  0  0  0  0  0  0  0  0  0
  -50.6035   57.7154   61.9886 C   0  0  0  0  0  0  0  0  0  0  0  0
  -50.4088   56.7634   60.8042 C   0  0  0  0  0  0  0  0  0  0  0  0
  -49.1088   57.0762   60.0408 C   0  0  0  0  0  0  0  0  0  0  0  0
  -49.3287   57.8241   58.7171 C   0  0  0  0  0  0  0  0  0  0  0  0
  -48.2389   58.8297   58.3318 C   0  0  0  0  0  0  0  0  0  0  0  0
  -47.3721   58.3962   57.1233 C   0  0  0  0  0  0  0  0  0  0  0  0
  -47.9969   57.1978   56.3806 C   0  0  0  0  0  0  0  0  0  0  0  0
  -47.4311   55.8076   56.6949 C   0  0  0  0  0  0  0  0  0  0  0  0
 46 47  1  0  0  0
 46 48  1  0  0  0
 46 45  1  0  0  0
 47 49  2  0  0  0
 47 51  1  0  0  0
 19 20  2  0  0  0
 37 38  1  0  0  0
 37 39  1  0  0  0
 37 40  1  0  0  0
 37 41  1  0  0  0
 48 50  1  0  0  0
 38 29  1  0  0  0
 45 44  1  0  0  0
 25 27  1  0  0  0
 25 35  1  0  0  0
 25 28  1  0  0  0
 21 20  1  0  0  0
 21 22  1  0  0  0
 44 42  1  0  0  0
  2  1  1  0  0  0
  2  4  1  0  0  0
  2  5  1  0  0  0
 26 27  2  0  0  0
 42 43  2  0  0  0
 29 31  1  0  0  0
 29 36  1  0  0  0
  3  4  2  0  0  0
 43  1  1  0  0  0
  6  9  2  0  0  0
  6 10  1  0  0  0
  1 20  1  0  0  0
 30 36  2  0  0  0
  7  8  1  0  0  0
  7  9  1  0  0  0
 22 24  1  0  0  0
 22 23  1  0  0  0
 11 12  1  0  0  0
 11 18  1  0  0  0
 24 27  1  0  0  0
  4 10  1  0  0  0
 51 52  1  0  0  0
 52 53  1  0  0  0
 53 54  1  0  0  0
 54 55  1  0  0  0
 55 56  1  0  0  0
 56 57  1  0  0  0
 57 58  1  0  0  0
 58 59  1  0  0  0
 59 60  1  0  0  0
 60 61  1  0  0  0
 61 62  1  0  0  0
 62 63  1  0  0  0
 63 64  1  0  0  0
 64 65  1  0  0  0
 31 32  1  0  0  0
 32 33  1  0  0  0
 33 34  1  0  0  0
 34 35  1  0  0  0
 35 36  1  0  0  0
  8 10  1  0  0  0
  9 17  1  0  0  0
 12 13  2  0  0  0
 12 17  1  0  0  0
 13 14  1  0  0  0
 14 15  2  0  0  0
 15 16  1  0  0  0
 16 17  2  0  0  0
M  END
> <minimizedAffinity>
-9.76191

> <CNNscore>
0.1860771328

> <CNNaffinity>
7.1286745071

> <CNN_VS>
1.3264833689

> <CNNaffinity_variance>
0.4083247185

$$$$
/media/chris/experiments/cd1a-new-docking/inputs/ligands/1xz0_ligand.pdb


 65 67  0  0  0  0  0  0  0  0999 V2000
  -39.7811   58.9515   64.6686 C   0  0  0  0  0  0  0  0  0  0  0  0
  -38.3651   59.0357   65.0318 N   0  0  0  0  0  0  0  0  0  0  0  0
  -37.4472   57.2714   63.9285 O   0  0  0  0  0  0  0  0  0  0  0  0
  -37.3430   58.2429   64.6656 C   0  0  0  0  0  0  0  0  0  0  0  0
  -38.1273   59.7802   65.6306 H   0  0  0  0  0  0  0  0  0  0  0  0
  -35.4151   59.7981   64.8776 N   0  0  0  0  0  0  0  0  0  0  0  0
  -33.7466   58.3631   64.4919 O   0  0  0  0  0  0  0  0  0  0  0  0
  -34.7990   57.5401   64.9938 C   0  0  0  0  0  0  0  0  0  0  0  0
  -34.2299   59.7203   64.4454 C   0  0  0  0  0  0  0  0  0  0  0  0
  -35.9819   58.5017   65.2954 C   0  0  0  0  0  0  0  0  0  0  0  0
  -31.9238   59.5161   62.7026 O   0  0  0  0  0  0  0  0  0  0  0  0
  -32.2998   60.7254   63.1361 C   0  0  0  0  0  0  0  0  0  0  0  0
  -31.5862   61.8601   62.7283 C   0  0  0  0  0  0  0  0  0  0  0  0
  -31.9549   63.1396   63.1769 C   0  0  0  0  0  0  0  0  0  0  0  0
  -33.0478   63.3000   64.0305 C   0  0  0  0  0  0  0  0  0  0  0  0
  -33.7668   62.1718   64.4351 C   0  0  0  0  0  0  0  0  0  0  0  0
  -33.3943   60.8874   63.9942 C   0  0  0  0  0  0  0  0  0  0  0  0
  -31.1880   59.4321   62.1286 H   0  0  0  0  0  0  0  0  0  0  0  0
  -39.3495   60.9084   63.3573 O   0  0  0  0  0  0  0  0  0  0  0  0
  -40.1424   60.2860   64.0446 C   0  0  0  0  0  0  0  0  0  0  0  0
  -41.4505   60.8898   64.3194 O   0  0  0  0  0  0  0  0  0  0  0  0
  -42.5264   60.8130   63.3654 C   0  0  0  0  0  0  0  0  0  0  0  0
  -42.6590   59.4645   62.6686 C   0  0  0  0  0  0  0  0  0  0  0  0
  -42.3532   61.9377   62.3558 C   0  0  0  0  0  0  0  0  0  0  0  0
  -40.9430   60.4997   60.9632 N   0  0  0  0  0  0  0  0  0  0  0  0
  -42.4492   61.9114   60.0392 O   0  0  0  0  0  0  0  0  0  0  0  0
  -41.8818   61.4563   61.0058 C   0  0  0  0  0  0  0  0  0  0  0  0
  -40.5494   60.2065   61.8167 H   0  0  0  0  0  0  0  0  0  0  0  0
  -40.7023   57.4578   60.2257 N   0  0  0  0  0  0  0  0  0  0  0  0
  -41.7729   58.3622   58.4646 O   0  0  0  0  0  0  0  0  0  0  0  0
  -40.0541   57.5560   61.5417 C   0  0  0  0  0  0  0  0  0  0  0  0
  -38.6034   58.0538   61.3991 C   0  0  0  0  0  0  0  0  0  0  0  0
  -38.2070   58.5063   60.0035 C   0  0  0  0  0  0  0  0  0  0  0  0
  -38.9358   59.7764   59.5566 C   0  0  0  0  0  0  0  0  0  0  0  0
  -40.4611   59.8588   59.7342 C   0  0  0  0  0  0  0  0  0  0  0  0
  -41.0428   58.4905   59.4379 C   0  0  0  0  0  0  0  0  0  0  0  0
  -42.1570   55.1699   60.6419 Si  0  0  0  0  0  0  0  0  0  0  0  0
  -40.9916   56.2073   59.7692 O   0  0  0  0  0  0  0  0  0  0  0  0
  -42.2815   53.9266   59.9674 H   0  0  0  0  0  0  0  0  0  0  0  0
  -43.4222   55.8131   60.6865 H   0  0  0  0  0  0  0  0  0  0  0  0
  -41.6930   54.9462   61.9653 H   0  0  0  0  0  0  0  0  0  0  0  0
  -41.9274   57.5861   65.3193 C   0  0  0  0  0  0  0  0  0  0  0  0
  -40.7720   58.4909   65.7650 C   0  0  0  0  0  0  0  0  0  0  0  0
  -43.1331   57.4805   66.2685 C   0  0  0  0  0  0  0  0  0  0  0  0
  -44.4413   56.8982   65.6950 C   0  0  0  0  0  0  0  0  0  0  0  0
  -45.5603   57.7060   66.1903 N   0  0  0  0  0  0  0  0  0  0  0  0
  -46.0786   58.8544   65.6801 C   0  0  0  0  0  0  0  0  0  0  0  0
  -46.1585   57.1973   67.3517 O   0  0  0  0  0  0  0  0  0  0  0  0
  -45.6202   59.3604   64.6560 O   0  0  0  0  0  0  0  0  0  0  0  0
  -46.8868   57.7785   67.6213 H   0  0  0  0  0  0  0  0  0  0  0  0
  -47.2503   59.5254   66.4047 C   0  0  0  0  0  0  0  0  0  0  0  0
  -48.2965   60.1544   65.4745 C   0  0  0  0  0  0  0  0  0  0  0  0
  -49.7119   59.9227   66.0376 C   0  0  0  0  0  0  0  0  0  0  0  0
  -50.3675   58.6215   65.5374 C   0  0  0  0  0  0  0  0  0  0  0  0
  -50.3166   58.4234   64.0109 C   0  0  0  0  0  0  0  0  0  0  0  0
  -51.4621   59.1476   63.2731 C   0  0  0  0  0  0  0  0  0  0  0  0
  -51.0263   60.4102   62.4936 C   0  0  0  0  0  0  0  0  0  0  0  0
  -49.6029   60.3191   61.9317 C   0  0  0  0  0  0  0  0  0  0  0  0
  -49.5049   60.2310   60.4054 C   0  0  0  0  0  0  0  0  0  0  0  0
  -49.8547   58.8188   59.9013 C   0  0  0  0  0  0  0  0  0  0  0  0
  -48.8593   57.7356   60.3437 C   0  0  0  0  0  0  0  0  0  0  0  0
  -47.8218   57.3174   59.2966 C   0  0  0  0  0  0  0  0  0  0  0  0
  -47.8335   58.1800   58.0099 C   0  0  0  0  0  0  0  0  0  0  0  0
  -48.2008   57.3399   56.7698 C   0  0  0  0  0  0  0  0  0  0  0  0
  -47.7541   55.8730   56.7610 C   0  0  0  0  0  0  0  0  0  0  0  0
 46 47  1  0  0  0
 46 48  1  0  0  0
 46 45  1  0  0  0
 47 49  2  0  0  0
 47 51  1  0  0  0
 19 20  2  0  0  0
 37 38  1  0  0  0
 37 39  1  0  0  0
 37 40  1  0  0  0
 37 41  1  0  0  0
 48 50  1  0  0  0
 38 29  1  0  0  0
 45 44  1  0  0  0
 25 27  1  0  0  0
 25 35  1  0  0  0
 25 28  1  0  0  0
 21 20  1  0  0  0
 21 22  1  0  0  0
 44 42  1  0  0  0
  2  1  1  0  0  0
  2  4  1  0  0  0
  2  5  1  0  0  0
 26 27  2  0  0  0
 42 43  2  0  0  0
 29 31  1  0  0  0
 29 36  1  0  0  0
  3  4  2  0  0  0
 43  1  1  0  0  0
  6  9  2  0  0  0
  6 10  1  0  0  0
  1 20  1  0  0  0
 30 36  2  0  0  0
  7  8  1  0  0  0
  7  9  1  0  0  0
 22 24  1  0  0  0
 22 23  1  0  0  0
 11 12  1  0  0  0
 11 18  1  0  0  0
 24 27  1  0  0  0
  4 10  1  0  0  0
 51 52  1  0  0  0
 52 53  1  0  0  0
 53 54  1  0  0  0
 54 55  1  0  0  0
 55 56  1  0  0  0
 56 57  1  0  0  0
 57 58  1  0  0  0
 58 59  1  0  0  0
 59 60  1  0  0  0
 60 61  1  0  0  0
 61 62  1  0  0  0
 62 63  1  0  0  0
 63 64  1  0  0  0
 64 65  1  0  0  0
 31 32  1  0  0  0
 32 33  1  0  0  0
 33 34  1  0  0  0
 34 35  1  0  0  0
 35 36  1  0  0  0
  8 10  1  0  0  0
  9 17  1  0  0  0
 12 13  2  0  0  0
 12 17  1  0  0  0
 13 14  1  0  0  0
 14 15  2  0  0  0
 15 16  1  0  0  0
 16 17  2  0  0  0
M  END
> <minimizedAffinity>
-9.24861

> <CNNscore>
0.1791516393

> <CNNaffinity>
7.6647238731

> <CNN_VS>
1.3731478453

> <CNNaffinity_variance>
1.8684451580

$$$$
/media/chris/experiments/cd1a-new-docking/inputs/ligands/1xz0_ligand.pdb


 65 67  0  0  0  0  0  0  0  0999 V2000
  -42.3888   58.4565   63.5069 C   0  0  0  0  0  0  0  0  0  0  0  0
  -41.3451   58.7854   64.4798 N   0  0  0  0  0  0  0  0  0  0  0  0
  -40.7927   60.9236   63.9359 O   0  0  0  0  0  0  0  0  0  0  0  0
  -40.6501   59.9262   64.6309 C   0  0  0  0  0  0  0  0  0  0  0  0
  -41.1199   58.0675   65.1149 H   0  0  0  0  0  0  0  0  0  0  0  0
  -38.5366   60.9976   65.3831 N   0  0  0  0  0  0  0  0  0  0  0  0
  -37.2833   59.1696   65.6659 O   0  0  0  0  0  0  0  0  0  0  0  0
  -38.6202   58.6996   65.8344 C   0  0  0  0  0  0  0  0  0  0  0  0
  -37.3433   60.5810   65.3787 C   0  0  0  0  0  0  0  0  0  0  0  0
  -39.5325   59.9460   65.6637 C   0  0  0  0  0  0  0  0  0  0  0  0
  -36.1941   62.3334   67.3801 O   0  0  0  0  0  0  0  0  0  0  0  0
  -35.6090   62.2549   66.1788 C   0  0  0  0  0  0  0  0  0  0  0  0
  -34.4527   63.0031   65.9214 C   0  0  0  0  0  0  0  0  0  0  0  0
  -33.8252   62.9453   64.6654 C   0  0  0  0  0  0  0  0  0  0  0  0
  -34.3411   62.1309   63.6559 C   0  0  0  0  0  0  0  0  0  0  0  0
  -35.4908   61.3776   63.9099 C   0  0  0  0  0  0  0  0  0  0  0  0
  -36.1269   61.4402   65.1646 C   0  0  0  0  0  0  0  0  0  0  0  0
  -35.8295   62.8854   68.0437 H   0  0  0  0  0  0  0  0  0  0  0  0
  -43.0481   56.4499   64.6357 O   0  0  0  0  0  0  0  0  0  0  0  0
  -43.3724   57.5518   64.2245 C   0  0  0  0  0  0  0  0  0  0  0  0
  -44.7702   57.9690   64.3771 O   0  0  0  0  0  0  0  0  0  0  0  0
  -45.2643   58.4910   65.6249 C   0  0  0  0  0  0  0  0  0  0  0  0
  -44.2054   59.1542   66.4969 C   0  0  0  0  0  0  0  0  0  0  0  0
  -45.9642   57.3656   66.3718 C   0  0  0  0  0  0  0  0  0  0  0  0
  -47.9960   58.0971   65.2174 N   0  0  0  0  0  0  0  0  0  0  0  0
  -47.8205   56.0093   66.0694 O   0  0  0  0  0  0  0  0  0  0  0  0
  -47.3721   57.1184   65.8891 C   0  0  0  0  0  0  0  0  0  0  0  0
  -47.5328   58.9618   65.1338 H   0  0  0  0  0  0  0  0  0  0  0  0
  -49.1867   59.5047   62.6766 N   0  0  0  0  0  0  0  0  0  0  0  0
  -49.6313   57.3228   62.3492 O   0  0  0  0  0  0  0  0  0  0  0  0
  -48.6297   60.6121   63.4673 C   0  0  0  0  0  0  0  0  0  0  0  0
  -49.6093   61.0355   64.5780 C   0  0  0  0  0  0  0  0  0  0  0  0
  -50.8236   60.1378   64.7489 C   0  0  0  0  0  0  0  0  0  0  0  0
  -50.4681   58.7425   65.2691 C   0  0  0  0  0  0  0  0  0  0  0  0
  -49.3202   57.9700   64.5979 C   0  0  0  0  0  0  0  0  0  0  0  0
  -49.3755   58.2474   63.1084 C   0  0  0  0  0  0  0  0  0  0  0  0
  -48.6759   58.9879   60.0316 Si  0  0  0  0  0  0  0  0  0  0  0  0
  -49.5333   59.7768   61.3875 O   0  0  0  0  0  0  0  0  0  0  0  0
  -49.2224   59.4372   58.8004 H   0  0  0  0  0  0  0  0  0  0  0  0
  -48.8276   57.5796   60.1309 H   0  0  0  0  0  0  0  0  0  0  0  0
  -47.2964   59.3203   60.0865 H   0  0  0  0  0  0  0  0  0  0  0  0
  -41.1380   58.8678   61.2352 C   0  0  0  0  0  0  0  0  0  0  0  0
  -41.9346   57.9113   62.1312 C   0  0  0  0  0  0  0  0  0  0  0  0
  -41.0605   58.5165   59.7398 C   0  0  0  0  0  0  0  0  0  0  0  0
  -39.7209   57.9688   59.2060 C   0  0  0  0  0  0  0  0  0  0  0  0
  -38.6519   58.4098   60.1074 N   0  0  0  0  0  0  0  0  0  0  0  0
  -38.1818   57.8127   61.2344 C   0  0  0  0  0  0  0  0  0  0  0  0
  -38.0497   59.6174   59.7271 O   0  0  0  0  0  0  0  0  0  0  0  0
  -38.6467   56.7440   61.6303 O   0  0  0  0  0  0  0  0  0  0  0  0
  -37.3556   59.8473   60.3645 H   0  0  0  0  0  0  0  0  0  0  0  0
  -37.0573   58.4942   62.0211 C   0  0  0  0  0  0  0  0  0  0  0  0
  -36.4480   57.6321   63.1351 C   0  0  0  0  0  0  0  0  0  0  0  0
  -34.9103   57.6537   63.0389 C   0  0  0  0  0  0  0  0  0  0  0  0
  -34.2217   58.1813   64.3120 C   0  0  0  0  0  0  0  0  0  0  0  0
  -32.7122   58.4470   64.1616 C   0  0  0  0  0  0  0  0  0  0  0  0
  -32.3340   58.9883   62.7670 C   0  0  0  0  0  0  0  0  0  0  0  0
  -30.9494   59.6736   62.6984 C   0  0  0  0  0  0  0  0  0  0  0  0
  -30.9914   61.0724   62.0726 C   0  0  0  0  0  0  0  0  0  0  0  0
  -30.5585   62.2165   62.9950 C   0  0  0  0  0  0  0  0  0  0  0  0
  -30.8323   63.5890   62.3530 C   0  0  0  0  0  0  0  0  0  0  0  0
  -31.7243   63.5252   61.1040 C   0  0  0  0  0  0  0  0  0  0  0  0
  -32.4327   64.8297   60.7247 C   0  0  0  0  0  0  0  0  0  0  0  0
  -33.5603   65.2483   61.7010 C   0  0  0  0  0  0  0  0  0  0  0  0
  -34.9442   64.7949   61.1935 C   0  0  0  0  0  0  0  0  0  0  0  0
  -36.1551   65.1248   62.0747 C   0  0  0  0  0  0  0  0  0  0  0  0
 46 47  1  0  0  0
 46 48  1  0  0  0
 46 45  1  0  0  0
 47 49  2  0  0  0
 47 51  1  0  0  0
 19 20  2  0  0  0
 37 38  1  0  0  0
 37 39  1  0  0  0
 37 40  1  0  0  0
 37 41  1  0  0  0
 48 50  1  0  0  0
 38 29  1  0  0  0
 45 44  1  0  0  0
 25 27  1  0  0  0
 25 35  1  0  0  0
 25 28  1  0  0  0
 21 20  1  0  0  0
 21 22  1  0  0  0
 44 42  1  0  0  0
  2  1  1  0  0  0
  2  4  1  0  0  0
  2  5  1  0  0  0
 26 27  2  0  0  0
 42 43  2  0  0  0
 29 31  1  0  0  0
 29 36  1  0  0  0
  3  4  2  0  0  0
 43  1  1  0  0  0
  6  9  2  0  0  0
  6 10  1  0  0  0
  1 20  1  0  0  0
 30 36  2  0  0  0
  7  8  1  0  0  0
  7  9  1  0  0  0
 22 24  1  0  0  0
 22 23  1  0  0  0
 11 12  1  0  0  0
 11 18  1  0  0  0
 24 27  1  0  0  0
  4 10  1  0  0  0
 51 52  1  0  0  0
 52 53  1  0  0  0
 53 54  1  0  0  0
 54 55  1  0  0  0
 55 56  1  0  0  0
 56 57  1  0  0  0
 57 58  1  0  0  0
 58 59  1  0  0  0
 59 60  1  0  0  0
 60 61  1  0  0  0
 61 62  1  0  0  0
 62 63  1  0  0  0
 63 64  1  0  0  0
 64 65  1  0  0  0
 31 32  1  0  0  0
 32 33  1  0  0  0
 33 34  1  0  0  0
 34 35  1  0  0  0
 35 36  1  0  0  0
  8 10  1  0  0  0
  9 17  1  0  0  0
 12 13  2  0  0  0
 12 17  1  0  0  0
 13 14  1  0  0  0
 14 15  2  0  0  0
 15 16  1  0  0  0
 16 17  2  0  0  0
M  END
> <minimizedAffinity>
-9.11168

> <CNNscore>
0.1754304767

> <CNNaffinity>
7.4561629295

> <CNN_VS>
1.3080382347

> <CNNaffinity_variance>
1.2903511524

$$$$
/media/chris/experiments/cd1a-new-docking/inputs/ligands/1xz0_ligand.pdb


 65 67  0  0  0  0  0  0  0  0999 V2000
  -42.2294   59.2096   62.7351 C   0  0  0  0  0  0  0  0  0  0  0  0
  -40.9532   58.7685   62.1685 N   0  0  0  0  0  0  0  0  0  0  0  0
  -41.3530   58.7865   59.9296 O   0  0  0  0  0  0  0  0  0  0  0  0
  -40.6079   58.5928   60.8812 C   0  0  0  0  0  0  0  0  0  0  0  0
  -40.2462   58.5723   62.8250 H   0  0  0  0  0  0  0  0  0  0  0  0
  -38.4984   57.6732   61.8217 N   0  0  0  0  0  0  0  0  0  0  0  0
  -37.0241   58.8880   60.6628 O   0  0  0  0  0  0  0  0  0  0  0  0
  -38.1810   58.8623   59.8275 C   0  0  0  0  0  0  0  0  0  0  0  0
  -37.3273   58.1470   61.8615 C   0  0  0  0  0  0  0  0  0  0  0  0
  -39.2337   58.0085   60.5874 C   0  0  0  0  0  0  0  0  0  0  0  0
  -34.5658   59.0240   61.8131 O   0  0  0  0  0  0  0  0  0  0  0  0
  -35.0227   58.3908   62.9004 C   0  0  0  0  0  0  0  0  0  0  0  0
  -34.1677   58.1814   63.9904 C   0  0  0  0  0  0  0  0  0  0  0  0
  -34.6204   57.5111   65.1394 C   0  0  0  0  0  0  0  0  0  0  0  0
  -35.9363   57.0514   65.2154 C   0  0  0  0  0  0  0  0  0  0  0  0
  -36.7949   57.2635   64.1331 C   0  0  0  0  0  0  0  0  0  0  0  0
  -36.3416   57.9271   62.9769 C   0  0  0  0  0  0  0  0  0  0  0  0
  -33.6792   59.3256   61.7846 H   0  0  0  0  0  0  0  0  0  0  0  0
  -42.6683   61.5594   62.8818 O   0  0  0  0  0  0  0  0  0  0  0  0
  -42.0001   60.6128   63.2638 C   0  0  0  0  0  0  0  0  0  0  0  0
  -40.9074   60.8671   64.2085 O   0  0  0  0  0  0  0  0  0  0  0  0
  -40.5711   59.9183   65.2382 C   0  0  0  0  0  0  0  0  0  0  0  0
  -41.1596   60.2355   66.6073 C   0  0  0  0  0  0  0  0  0  0  0  0
  -39.0558   59.8013   65.3060 C   0  0  0  0  0  0  0  0  0  0  0  0
  -37.3956   61.5864   65.0759 N   0  0  0  0  0  0  0  0  0  0  0  0
  -38.6168   60.8876   63.3050 O   0  0  0  0  0  0  0  0  0  0  0  0
  -38.3425   60.8450   64.4825 C   0  0  0  0  0  0  0  0  0  0  0  0
  -37.2601   61.4664   66.0436 H   0  0  0  0  0  0  0  0  0  0  0  0
  -34.3107   61.5382   64.4959 N   0  0  0  0  0  0  0  0  0  0  0  0
  -35.2328   62.0206   62.5003 O   0  0  0  0  0  0  0  0  0  0  0  0
  -34.4064   61.2374   65.9319 C   0  0  0  0  0  0  0  0  0  0  0  0
  -34.5760   62.5316   66.7499 C   0  0  0  0  0  0  0  0  0  0  0  0
  -34.7919   63.7932   65.9306 C   0  0  0  0  0  0  0  0  0  0  0  0
  -36.1330   63.8051   65.1921 C   0  0  0  0  0  0  0  0  0  0  0  0
  -36.5470   62.5637   64.3845 C   0  0  0  0  0  0  0  0  0  0  0  0
  -35.3057   61.9997   63.7213 C   0  0  0  0  0  0  0  0  0  0  0  0
  -33.0266   60.7836   62.1925 Si  0  0  0  0  0  0  0  0  0  0  0  0
  -33.1073   61.3201   63.8959 O   0  0  0  0  0  0  0  0  0  0  0  0
  -31.6683   60.6295   61.8085 H   0  0  0  0  0  0  0  0  0  0  0  0
  -33.6465   61.7535   61.3609 H   0  0  0  0  0  0  0  0  0  0  0  0
  -33.7013   59.5416   62.0550 H   0  0  0  0  0  0  0  0  0  0  0  0
  -44.0388   58.8763   64.6083 C   0  0  0  0  0  0  0  0  0  0  0  0
  -42.9210   58.2691   63.7516 C   0  0  0  0  0  0  0  0  0  0  0  0
  -44.4255   58.1145   65.8874 C   0  0  0  0  0  0  0  0  0  0  0  0
  -45.7334   57.2970   65.8608 C   0  0  0  0  0  0  0  0  0  0  0  0
  -46.8367   58.1819   66.2476 N   0  0  0  0  0  0  0  0  0  0  0  0
  -47.9193   58.5678   65.5218 C   0  0  0  0  0  0  0  0  0  0  0  0
  -46.7330   58.6827   67.5530 O   0  0  0  0  0  0  0  0  0  0  0  0
  -48.0925   58.1633   64.3722 O   0  0  0  0  0  0  0  0  0  0  0  0
  -47.4919   59.2570   67.7402 H   0  0  0  0  0  0  0  0  0  0  0  0
  -48.9320   59.5284   66.1538 C   0  0  0  0  0  0  0  0  0  0  0  0
  -50.3977   59.2125   65.8262 C   0  0  0  0  0  0  0  0  0  0  0  0
  -51.1492   60.5078   65.4631 C   0  0  0  0  0  0  0  0  0  0  0  0
  -51.5526   60.5893   63.9785 C   0  0  0  0  0  0  0  0  0  0  0  0
  -50.3692   60.6485   62.9947 C   0  0  0  0  0  0  0  0  0  0  0  0
  -50.4536   59.5754   61.8891 C   0  0  0  0  0  0  0  0  0  0  0  0
  -50.9690   58.1986   62.3689 C   0  0  0  0  0  0  0  0  0  0  0  0
  -51.3911   57.2720   61.2229 C   0  0  0  0  0  0  0  0  0  0  0  0
  -50.4790   57.2939   59.9922 C   0  0  0  0  0  0  0  0  0  0  0  0
  -49.2458   56.3939   60.1918 C   0  0  0  0  0  0  0  0  0  0  0  0
  -47.9287   57.0292   59.7211 C   0  0  0  0  0  0  0  0  0  0  0  0
  -47.1378   56.2287   58.6813 C   0  0  0  0  0  0  0  0  0  0  0  0
  -47.8867   56.0098   57.3430 C   0  0  0  0  0  0  0  0  0  0  0  0
  -48.1267   57.3426   56.6052 C   0  0  0  0  0  0  0  0  0  0  0  0
  -46.9704   58.3497   56.5858 C   0  0  0  0  0  0  0  0  0  0  0  0
 46 47  1  0  0  0
 46 48  1  0  0  0
 46 45  1  0  0  0
 47 49  2  0  0  0
 47 51  1  0  0  0
 19 20  2  0  0  0
 37 38  1  0  0  0
 37 39  1  0  0  0
 37 40  1  0  0  0
 37 41  1  0  0  0
 48 50  1  0  0  0
 38 29  1  0  0  0
 45 44  1  0  0  0
 25 27  1  0  0  0
 25 35  1  0  0  0
 25 28  1  0  0  0
 21 20  1  0  0  0
 21 22  1  0  0  0
 44 42  1  0  0  0
  2  1  1  0  0  0
  2  4  1  0  0  0
  2  5  1  0  0  0
 26 27  2  0  0  0
 42 43  2  0  0  0
 29 31  1  0  0  0
 29 36  1  0  0  0
  3  4  2  0  0  0
 43  1  1  0  0  0
  6  9  2  0  0  0
  6 10  1  0  0  0
  1 20  1  0  0  0
 30 36  2  0  0  0
  7  8  1  0  0  0
  7  9  1  0  0  0
 22 24  1  0  0  0
 22 23  1  0  0  0
 11 12  1  0  0  0
 11 18  1  0  0  0
 24 27  1  0  0  0
  4 10  1  0  0  0
 51 52  1  0  0  0
 52 53  1  0  0  0
 53 54  1  0  0  0
 54 55  1  0  0  0
 55 56  1  0  0  0
 56 57  1  0  0  0
 57 58  1  0  0  0
 58 59  1  0  0  0
 59 60  1  0  0  0
 60 61  1  0  0  0
 61 62  1  0  0  0
 62 63  1  0  0  0
 63 64  1  0  0  0
 64 65  1  0  0  0
 31 32  1  0  0  0
 32 33  1  0  0  0
 33 34  1  0  0  0
 34 35  1  0  0  0
 35 36  1  0  0  0
  8 10  1  0  0  0
  9 17  1  0  0  0
 12 13  2  0  0  0
 12 17  1  0  0  0
 13 14  1  0  0  0
 14 15  2  0  0  0
 15 16  1  0  0  0
 16 17  2  0  0  0
M  END
> <minimizedAffinity>
-10.12668

> <CNNscore>
0.1666131318

> <CNNaffinity>
7.5167937279

> <CNN_VS>
1.2523965836

> <CNNaffinity_variance>
0.5550649762

$$$$
/media/chris/experiments/cd1a-new-docking/inputs/ligands/1xz0_ligand.pdb


 65 67  0  0  0  0  0  0  0  0999 V2000
  -35.6867   61.0612   65.7184 C   0  0  0  0  0  0  0  0  0  0  0  0
  -34.9186   62.3064   65.6601 N   0  0  0  0  0  0  0  0  0  0  0  0
  -36.0652   63.6820   67.0622 O   0  0  0  0  0  0  0  0  0  0  0  0
  -35.1360   63.4720   66.2938 C   0  0  0  0  0  0  0  0  0  0  0  0
  -34.1293   62.2874   65.0720 H   0  0  0  0  0  0  0  0  0  0  0  0
  -33.9567   64.7315   64.5040 N   0  0  0  0  0  0  0  0  0  0  0  0
  -31.9205   64.8397   65.4173 O   0  0  0  0  0  0  0  0  0  0  0  0
  -32.7937   64.7077   66.5383 C   0  0  0  0  0  0  0  0  0  0  0  0
  -32.7281   64.8277   64.2233 C   0  0  0  0  0  0  0  0  0  0  0  0
  -34.2312   64.6467   65.9511 C   0  0  0  0  0  0  0  0  0  0  0  0
  -33.4958   63.1922   61.9578 O   0  0  0  0  0  0  0  0  0  0  0  0
  -32.5906   64.1614   61.7764 C   0  0  0  0  0  0  0  0  0  0  0  0
  -32.0495   64.3742   60.5017 C   0  0  0  0  0  0  0  0  0  0  0  0
  -31.0908   65.3789   60.2874 C   0  0  0  0  0  0  0  0  0  0  0  0
  -30.6698   66.1889   61.3434 C   0  0  0  0  0  0  0  0  0  0  0  0
  -31.2114   65.9848   62.6157 C   0  0  0  0  0  0  0  0  0  0  0  0
  -32.1657   64.9730   62.8354 C   0  0  0  0  0  0  0  0  0  0  0  0
  -33.7652   62.6614   61.2340 H   0  0  0  0  0  0  0  0  0  0  0  0
  -33.7179   59.7377   65.3904 O   0  0  0  0  0  0  0  0  0  0  0  0
  -34.8480   60.0085   65.0189 C   0  0  0  0  0  0  0  0  0  0  0  0
  -35.3681   59.3372   63.8231 O   0  0  0  0  0  0  0  0  0  0  0  0
  -35.2668   57.9099   63.6614 C   0  0  0  0  0  0  0  0  0  0  0  0
  -34.1242   57.4546   62.7621 C   0  0  0  0  0  0  0  0  0  0  0  0
  -36.6038   57.3886   63.1564 C   0  0  0  0  0  0  0  0  0  0  0  0
  -38.5322   58.0388   61.7946 N   0  0  0  0  0  0  0  0  0  0  0  0
  -36.7136   59.3730   61.9621 O   0  0  0  0  0  0  0  0  0  0  0  0
  -37.2953   58.3426   62.2141 C   0  0  0  0  0  0  0  0  0  0  0  0
  -38.9052   57.1680   62.0626 H   0  0  0  0  0  0  0  0  0  0  0  0
  -41.6009   58.6749   61.9780 N   0  0  0  0  0  0  0  0  0  0  0  0
  -40.6312   60.7018   61.8469 O   0  0  0  0  0  0  0  0  0  0  0  0
  -41.5400   57.2065   62.0187 C   0  0  0  0  0  0  0  0  0  0  0  0
  -41.3996   56.6271   60.5983 C   0  0  0  0  0  0  0  0  0  0  0  0
  -41.1708   57.6518   59.4995 C   0  0  0  0  0  0  0  0  0  0  0  0
  -39.8115   58.3482   59.6041 C   0  0  0  0  0  0  0  0  0  0  0  0
  -39.3691   58.9127   60.9644 C   0  0  0  0  0  0  0  0  0  0  0  0
  -40.5894   59.4950   61.6503 C   0  0  0  0  0  0  0  0  0  0  0  0
  -42.8355   60.9352   62.9219 Si  0  0  0  0  0  0  0  0  0  0  0  0
  -42.7872   59.2555   62.3119 O   0  0  0  0  0  0  0  0  0  0  0  0
  -44.1800   61.3012   63.1951 H   0  0  0  0  0  0  0  0  0  0  0  0
  -42.2965   61.8103   61.9420 H   0  0  0  0  0  0  0  0  0  0  0  0
  -42.0680   61.0285   64.1131 H   0  0  0  0  0  0  0  0  0  0  0  0
  -38.0691   59.9580   65.6796 C   0  0  0  0  0  0  0  0  0  0  0  0
  -37.1560   61.1066   65.2333 C   0  0  0  0  0  0  0  0  0  0  0  0
  -39.3657   59.7499   64.8787 C   0  0  0  0  0  0  0  0  0  0  0  0
  -40.3443   58.6670   65.3778 C   0  0  0  0  0  0  0  0  0  0  0  0
  -41.6922   59.2435   65.4069 N   0  0  0  0  0  0  0  0  0  0  0  0
  -42.8505   58.6897   65.8533 C   0  0  0  0  0  0  0  0  0  0  0  0
  -41.7638   60.5480   64.8982 O   0  0  0  0  0  0  0  0  0  0  0  0
  -42.8725   57.5538   66.3269 O   0  0  0  0  0  0  0  0  0  0  0  0
  -42.6792   60.8646   64.9480 H   0  0  0  0  0  0  0  0  0  0  0  0
  -44.1468   59.5007   65.7545 C   0  0  0  0  0  0  0  0  0  0  0  0
  -45.2239   58.8712   64.8606 C   0  0  0  0  0  0  0  0  0  0  0  0
  -46.5247   59.6932   64.9416 C   0  0  0  0  0  0  0  0  0  0  0  0
  -47.6872   59.0862   64.1332 C   0  0  0  0  0  0  0  0  0  0  0  0
  -48.6330   58.1846   64.9482 C   0  0  0  0  0  0  0  0  0  0  0  0
  -50.0592   58.1255   64.3620 C   0  0  0  0  0  0  0  0  0  0  0  0
  -50.6432   59.4985   63.9551 C   0  0  0  0  0  0  0  0  0  0  0  0
  -51.0355   59.5802   62.4754 C   0  0  0  0  0  0  0  0  0  0  0  0
  -50.0491   60.3321   61.5762 C   0  0  0  0  0  0  0  0  0  0  0  0
  -49.6427   59.4840   60.3571 C   0  0  0  0  0  0  0  0  0  0  0  0
  -48.9526   58.1608   60.7214 C   0  0  0  0  0  0  0  0  0  0  0  0
  -48.3435   57.3833   59.5501 C   0  0  0  0  0  0  0  0  0  0  0  0
  -49.0525   57.6188   58.1930 C   0  0  0  0  0  0  0  0  0  0  0  0
  -48.1265   57.2842   57.0060 C   0  0  0  0  0  0  0  0  0  0  0  0
  -47.0976   58.3463   56.6003 C   0  0  0  0  0  0  0  0  0  0  0  0
 46 47  1  0  0  0
 46 48  1  0  0  0
 46 45  1  0  0  0
 47 49  2  0  0  0
 47 51  1  0  0  0
 19 20  2  0  0  0
 37 38  1  0  0  0
 37 39  1  0  0  0
 37 40  1  0  0  0
 37 41  1  0  0  0
 48 50  1  0  0  0
 38 29  1  0  0  0
 45 44  1  0  0  0
 25 27  1  0  0  0
 25 35  1  0  0  0
 25 28  1  0  0  0
 21 20  1  0  0  0
 21 22  1  0  0  0
 44 42  1  0  0  0
  2  1  1  0  0  0
  2  4  1  0  0  0
  2  5  1  0  0  0
 26 27  2  0  0  0
 42 43  2  0  0  0
 29 31  1  0  0  0
 29 36  1  0  0  0
  3  4  2  0  0  0
 43  1  1  0  0  0
  6  9  2  0  0  0
  6 10  1  0  0  0
  1 20  1  0  0  0
 30 36  2  0  0  0
  7  8  1  0  0  0
  7  9  1  0  0  0
 22 24  1  0  0  0
 22 23  1  0  0  0
 11 12  1  0  0  0
 11 18  1  0  0  0
 24 27  1  0  0  0
  4 10  1  0  0  0
 51 52  1  0  0  0
 52 53  1  0  0  0
 53 54  1  0  0  0
 54 55  1  0  0  0
 55 56  1  0  0  0
 56 57  1  0  0  0
 57 58  1  0  0  0
 58 59  1  0  0  0
 59 60  1  0  0  0
 60 61  1  0  0  0
 61 62  1  0  0  0
 62 63  1  0  0  0
 63 64  1  0  0  0
 64 65  1  0  0  0
 31 32  1  0  0  0
 32 33  1  0  0  0
 33 34  1  0  0  0
 34 35  1  0  0  0
 35 36  1  0  0  0
  8 10  1  0  0  0
  9 17  1  0  0  0
 12 13  2  0  0  0
 12 17  1  0  0  0
 13 14  1  0  0  0
 14 15  2  0  0  0
 15 16  1  0  0  0
 16 17  2  0  0  0
M  END
> <minimizedAffinity>
-9.60797

> <CNNscore>
0.1593883038

> <CNNaffinity>
7.2390909195

> <CNN_VS>
1.1538264751

> <CNNaffinity_variance>
0.7220997214

$$$$
/media/chris/experiments/cd1a-new-docking/inputs/ligands/1xz0_ligand.pdb


 65 67  0  0  0  0  0  0  0  0999 V2000
  -40.1259   58.9763   62.6321 C   0  0  0  0  0  0  0  0  0  0  0  0
  -39.1592   58.9436   63.7314 N   0  0  0  0  0  0  0  0  0  0  0  0
  -40.0192   60.4378   65.2149 O   0  0  0  0  0  0  0  0  0  0  0  0
  -39.1591   59.6311   64.8867 C   0  0  0  0  0  0  0  0  0  0  0  0
  -38.3998   58.3296   63.6064 H   0  0  0  0  0  0  0  0  0  0  0  0
  -37.3261   60.7807   66.1110 N   0  0  0  0  0  0  0  0  0  0  0  0
  -35.6014   59.5269   65.4436 O   0  0  0  0  0  0  0  0  0  0  0  0
  -36.7252   58.6548   65.3294 C   0  0  0  0  0  0  0  0  0  0  0  0
  -36.0780   60.8037   65.9134 C   0  0  0  0  0  0  0  0  0  0  0  0
  -37.9531   59.4813   65.8027 C   0  0  0  0  0  0  0  0  0  0  0  0
  -36.9870   63.5434   66.1675 O   0  0  0  0  0  0  0  0  0  0  0  0
  -35.6827   63.2803   66.3135 C   0  0  0  0  0  0  0  0  0  0  0  0
  -34.7934   64.3243   66.6001 C   0  0  0  0  0  0  0  0  0  0  0  0
  -33.4184   64.0756   66.7485 C   0  0  0  0  0  0  0  0  0  0  0  0
  -32.9185   62.7784   66.6220 C   0  0  0  0  0  0  0  0  0  0  0  0
  -33.8026   61.7325   66.3424 C   0  0  0  0  0  0  0  0  0  0  0  0
  -35.1798   61.9800   66.1844 C   0  0  0  0  0  0  0  0  0  0  0  0
  -37.3008   64.4216   66.2585 H   0  0  0  0  0  0  0  0  0  0  0  0
  -40.1786   60.3301   60.6573 O   0  0  0  0  0  0  0  0  0  0  0  0
  -39.7960   60.2072   61.8093 C   0  0  0  0  0  0  0  0  0  0  0  0
  -38.9401   61.2552   62.3749 O   0  0  0  0  0  0  0  0  0  0  0  0
  -37.5534   61.3712   62.0044 C   0  0  0  0  0  0  0  0  0  0  0  0
  -36.7411   60.0951   62.1866 C   0  0  0  0  0  0  0  0  0  0  0  0
  -36.9436   62.5260   62.7848 C   0  0  0  0  0  0  0  0  0  0  0  0
  -34.5400   62.9592   62.6096 N   0  0  0  0  0  0  0  0  0  0  0  0
  -35.9852   63.7272   61.0485 O   0  0  0  0  0  0  0  0  0  0  0  0
  -35.7607   63.1532   62.0895 C   0  0  0  0  0  0  0  0  0  0  0  0
  -34.4787   62.4767   63.4656 H   0  0  0  0  0  0  0  0  0  0  0  0
  -32.4483   65.0796   63.6015 N   0  0  0  0  0  0  0  0  0  0  0  0
  -31.1970   63.2833   63.0785 O   0  0  0  0  0  0  0  0  0  0  0  0
  -33.7390   65.7744   63.7153 C   0  0  0  0  0  0  0  0  0  0  0  0
  -34.1745   66.3423   62.3513 C   0  0  0  0  0  0  0  0  0  0  0  0
  -33.3132   65.9262   61.1704 C   0  0  0  0  0  0  0  0  0  0  0  0
  -33.4203   64.4334   60.8479 C   0  0  0  0  0  0  0  0  0  0  0  0
  -33.2890   63.4151   61.9928 C   0  0  0  0  0  0  0  0  0  0  0  0
  -32.2323   63.9232   62.9540 C   0  0  0  0  0  0  0  0  0  0  0  0
  -30.6814   64.9311   65.6944 Si  0  0  0  0  0  0  0  0  0  0  0  0
  -31.3778   65.6560   64.2160 O   0  0  0  0  0  0  0  0  0  0  0  0
  -29.5833   65.7164   66.1346 H   0  0  0  0  0  0  0  0  0  0  0  0
  -30.2370   63.6126   65.4108 H   0  0  0  0  0  0  0  0  0  0  0  0
  -31.6710   64.8884   66.7120 H   0  0  0  0  0  0  0  0  0  0  0  0
  -42.4815   60.1196   62.8284 C   0  0  0  0  0  0  0  0  0  0  0  0
  -41.6255   58.8584   62.9979 C   0  0  0  0  0  0  0  0  0  0  0  0
  -43.8248   60.1533   63.5769 C   0  0  0  0  0  0  0  0  0  0  0  0
  -44.2135   58.9064   64.3977 C   0  0  0  0  0  0  0  0  0  0  0  0
  -45.6052   59.0583   64.8336 N   0  0  0  0  0  0  0  0  0  0  0  0
  -46.3166   58.2972   65.7067 C   0  0  0  0  0  0  0  0  0  0  0  0
  -46.2671   60.1491   64.2526 O   0  0  0  0  0  0  0  0  0  0  0  0
  -45.8064   57.3292   66.2703 O   0  0  0  0  0  0  0  0  0  0  0  0
  -47.1778   60.1886   64.5843 H   0  0  0  0  0  0  0  0  0  0  0  0
  -47.7805   58.6565   65.9819 C   0  0  0  0  0  0  0  0  0  0  0  0
  -48.8003   57.7357   65.2980 C   0  0  0  0  0  0  0  0  0  0  0  0
  -50.2201   58.3150   65.4488 C   0  0  0  0  0  0  0  0  0  0  0  0
  -50.2729   59.8506   65.3373 C   0  0  0  0  0  0  0  0  0  0  0  0
  -51.5515   60.4024   64.6795 C   0  0  0  0  0  0  0  0  0  0  0  0
  -51.5526   60.2451   63.1445 C   0  0  0  0  0  0  0  0  0  0  0  0
  -50.1823   60.4951   62.4727 C   0  0  0  0  0  0  0  0  0  0  0  0
  -49.6960   59.3165   61.6216 C   0  0  0  0  0  0  0  0  0  0  0  0
  -50.4068   57.9841   61.8797 C   0  0  0  0  0  0  0  0  0  0  0  0
  -50.5229   57.1510   60.5901 C   0  0  0  0  0  0  0  0  0  0  0  0
  -49.4455   56.0649   60.4515 C   0  0  0  0  0  0  0  0  0  0  0  0
  -48.4865   56.2259   59.2675 C   0  0  0  0  0  0  0  0  0  0  0  0
  -48.2050   57.6972   58.8725 C   0  0  0  0  0  0  0  0  0  0  0  0
  -48.1489   57.8703   57.3411 C   0  0  0  0  0  0  0  0  0  0  0  0
  -46.7636   57.8437   56.6842 C   0  0  0  0  0  0  0  0  0  0  0  0
 46 47  1  0  0  0
 46 48  1  0  0  0
 46 45  1  0  0  0
 47 49  2  0  0  0
 47 51  1  0  0  0
 19 20  2  0  0  0
 37 38  1  0  0  0
 37 39  1  0  0  0
 37 40  1  0  0  0
 37 41  1  0  0  0
 48 50  1  0  0  0
 38 29  1  0  0  0
 45 44  1  0  0  0
 25 27  1  0  0  0
 25 35  1  0  0  0
 25 28  1  0  0  0
 21 20  1  0  0  0
 21 22  1  0  0  0
 44 42  1  0  0  0
  2  1  1  0  0  0
  2  4  1  0  0  0
  2  5  1  0  0  0
 26 27  2  0  0  0
 42 43  2  0  0  0
 29 31  1  0  0  0
 29 36  1  0  0  0
  3  4  2  0  0  0
 43  1  1  0  0  0
  6  9  2  0  0  0
  6 10  1  0  0  0
  1 20  1  0  0  0
 30 36  2  0  0  0
  7  8  1  0  0  0
  7  9  1  0  0  0
 22 24  1  0  0  0
 22 23  1  0  0  0
 11 12  1  0  0  0
 11 18  1  0  0  0
 24 27  1  0  0  0
  4 10  1  0  0  0
 51 52  1  0  0  0
 52 53  1  0  0  0
 53 54  1  0  0  0
 54 55  1  0  0  0
 55 56  1  0  0  0
 56 57  1  0  0  0
 57 58  1  0  0  0
 58 59  1  0  0  0
 59 60  1  0  0  0
 60 61  1  0  0  0
 61 62  1  0  0  0
 62 63  1  0  0  0
 63 64  1  0  0  0
 64 65  1  0  0  0
 31 32  1  0  0  0
 32 33  1  0  0  0
 33 34  1  0  0  0
 34 35  1  0  0  0
 35 36  1  0  0  0
  8 10  1  0  0  0
  9 17  1  0  0  0
 12 13  2  0  0  0
 12 17  1  0  0  0
 13 14  1  0  0  0
 14 15  2  0  0  0
 15 16  1  0  0  0
 16 17  2  0  0  0
M  END
> <minimizedAffinity>
-9.18504

> <CNNscore>
0.1535693109

> <CNNaffinity>
6.9069442749

> <CNN_VS>
1.0606946945

> <CNNaffinity_variance>
0.1840883344

$$$$
/media/chris/experiments/cd1a-new-docking/inputs/ligands/1xz0_ligand.pdb


 65 67  0  0  0  0  0  0  0  0999 V2000
  -37.4223   60.0620   65.6754 C   0  0  0  0  0  0  0  0  0  0  0  0
  -36.6479   61.1396   65.0565 N   0  0  0  0  0  0  0  0  0  0  0  0
  -35.9632   62.3698   66.8427 O   0  0  0  0  0  0  0  0  0  0  0  0
  -36.0031   62.1669   65.6363 C   0  0  0  0  0  0  0  0  0  0  0  0
  -36.5913   61.1072   64.0741 H   0  0  0  0  0  0  0  0  0  0  0  0
  -34.5735   62.6000   63.6491 N   0  0  0  0  0  0  0  0  0  0  0  0
  -33.1731   64.1020   64.5294 O   0  0  0  0  0  0  0  0  0  0  0  0
  -34.3554   64.2302   65.3183 C   0  0  0  0  0  0  0  0  0  0  0  0
  -33.4045   63.0702   63.5497 C   0  0  0  0  0  0  0  0  0  0  0  0
  -35.3709   63.2123   64.7288 C   0  0  0  0  0  0  0  0  0  0  0  0
  -32.4073   60.3727   63.1939 O   0  0  0  0  0  0  0  0  0  0  0  0
  -31.9623   61.3377   62.3799 C   0  0  0  0  0  0  0  0  0  0  0  0
  -31.0433   61.0229   61.3702 C   0  0  0  0  0  0  0  0  0  0  0  0
  -30.5539   62.0195   60.5090 C   0  0  0  0  0  0  0  0  0  0  0  0
  -30.9855   63.3404   60.6413 C   0  0  0  0  0  0  0  0  0  0  0  0
  -31.9071   63.6583   61.6429 C   0  0  0  0  0  0  0  0  0  0  0  0
  -32.3927   62.6634   62.5131 C   0  0  0  0  0  0  0  0  0  0  0  0
  -32.1052   59.4924   63.0858 H   0  0  0  0  0  0  0  0  0  0  0  0
  -35.9281   58.1923   65.5927 O   0  0  0  0  0  0  0  0  0  0  0  0
  -36.8859   58.7651   65.0998 C   0  0  0  0  0  0  0  0  0  0  0  0
  -37.4798   58.2072   63.8804 O   0  0  0  0  0  0  0  0  0  0  0  0
  -36.8200   58.3217   62.6055 C   0  0  0  0  0  0  0  0  0  0  0  0
  -35.3368   57.9738   62.6273 C   0  0  0  0  0  0  0  0  0  0  0  0
  -37.0459   59.7289   62.0735 C   0  0  0  0  0  0  0  0  0  0  0  0
  -39.4811   59.6851   61.8209 N   0  0  0  0  0  0  0  0  0  0  0  0
  -38.1313   60.1786   60.0745 O   0  0  0  0  0  0  0  0  0  0  0  0
  -38.2897   59.8515   61.2284 C   0  0  0  0  0  0  0  0  0  0  0  0
  -39.4875   59.4165   62.7681 H   0  0  0  0  0  0  0  0  0  0  0  0
  -42.2016   58.1694   62.2166 N   0  0  0  0  0  0  0  0  0  0  0  0
  -42.7677   60.3445   62.3342 O   0  0  0  0  0  0  0  0  0  0  0  0
  -41.2163   57.0913   62.0467 C   0  0  0  0  0  0  0  0  0  0  0  0
  -40.9144   56.8590   60.5542 C   0  0  0  0  0  0  0  0  0  0  0  0
  -41.5259   57.8743   59.6029 C   0  0  0  0  0  0  0  0  0  0  0  0
  -40.9202   59.2727   59.7498 C   0  0  0  0  0  0  0  0  0  0  0  0
  -40.7760   59.8753   61.1572 C   0  0  0  0  0  0  0  0  0  0  0  0
  -41.9923   59.4721   61.9675 C   0  0  0  0  0  0  0  0  0  0  0  0
  -44.6911   59.0570   62.9502 Si  0  0  0  0  0  0  0  0  0  0  0  0
  -43.4339   57.8157   62.6770 O   0  0  0  0  0  0  0  0  0  0  0  0
  -45.8750   58.4347   63.4271 H   0  0  0  0  0  0  0  0  0  0  0  0
  -44.9675   59.7274   61.7293 H   0  0  0  0  0  0  0  0  0  0  0  0
  -44.2292   59.9950   63.9111 H   0  0  0  0  0  0  0  0  0  0  0  0
  -39.7584   58.8652   65.7448 C   0  0  0  0  0  0  0  0  0  0  0  0
  -38.9655   60.1724   65.6231 C   0  0  0  0  0  0  0  0  0  0  0  0
  -41.2204   58.8925   65.2677 C   0  0  0  0  0  0  0  0  0  0  0  0
  -42.2850   59.3950   66.2646 C   0  0  0  0  0  0  0  0  0  0  0  0
  -43.3648   58.4048   66.3221 N   0  0  0  0  0  0  0  0  0  0  0  0
  -44.6173   58.4728   65.7982 C   0  0  0  0  0  0  0  0  0  0  0  0
  -43.0283   57.2364   67.0201 O   0  0  0  0  0  0  0  0  0  0  0  0
  -44.9883   59.4579   65.1603 O   0  0  0  0  0  0  0  0  0  0  0  0
  -43.7849   56.6295   67.0182 H   0  0  0  0  0  0  0  0  0  0  0  0
  -45.5776   57.2991   66.0172 C   0  0  0  0  0  0  0  0  0  0  0  0
  -47.0612   57.6903   66.0551 C   0  0  0  0  0  0  0  0  0  0  0  0
  -47.2547   58.9462   66.9267 C   0  0  0  0  0  0  0  0  0  0  0  0
  -48.3822   59.8713   66.4307 C   0  0  0  0  0  0  0  0  0  0  0  0
  -49.3983   59.1967   65.4904 C   0  0  0  0  0  0  0  0  0  0  0  0
  -50.8614   59.5349   65.8456 C   0  0  0  0  0  0  0  0  0  0  0  0
  -51.5524   60.5075   64.8617 C   0  0  0  0  0  0  0  0  0  0  0  0
  -50.6876   60.8627   63.6467 C   0  0  0  0  0  0  0  0  0  0  0  0
  -51.1283   60.2326   62.3216 C   0  0  0  0  0  0  0  0  0  0  0  0
  -49.9948   60.2662   61.2801 C   0  0  0  0  0  0  0  0  0  0  0  0
  -49.6779   58.8967   60.6606 C   0  0  0  0  0  0  0  0  0  0  0  0
  -48.7799   58.9194   59.4194 C   0  0  0  0  0  0  0  0  0  0  0  0
  -48.4565   57.5185   58.8425 C   0  0  0  0  0  0  0  0  0  0  0  0
  -47.4838   57.6095   57.6493 C   0  0  0  0  0  0  0  0  0  0  0  0
  -47.4501   56.4203   56.6818 C   0  0  0  0  0  0  0  0  0  0  0  0
 46 47  1  0  0  0
 46 48  1  0  0  0
 46 45  1  0  0  0
 47 49  2  0  0  0
 47 51  1  0  0  0
 19 20  2  0  0  0
 37 38  1  0  0  0
 37 39  1  0  0  0
 37 40  1  0  0  0
 37 41  1  0  0  0
 48 50  1  0  0  0
 38 29  1  0  0  0
 45 44  1  0  0  0
 25 27  1  0  0  0
 25 35  1  0  0  0
 25 28  1  0  0  0
 21 20  1  0  0  0
 21 22  1  0  0  0
 44 42  1  0  0  0
  2  1  1  0  0  0
  2  4  1  0  0  0
  2  5  1  0  0  0
 26 27  2  0  0  0
 42 43  2  0  0  0
 29 31  1  0  0  0
 29 36  1  0  0  0
  3  4  2  0  0  0
 43  1  1  0  0  0
  6  9  2  0  0  0
  6 10  1  0  0  0
  1 20  1  0  0  0
 30 36  2  0  0  0
  7  8  1  0  0  0
  7  9  1  0  0  0
 22 24  1  0  0  0
 22 23  1  0  0  0
 11 12  1  0  0  0
 11 18  1  0  0  0
 24 27  1  0  0  0
  4 10  1  0  0  0
 51 52  1  0  0  0
 52 53  1  0  0  0
 53 54  1  0  0  0
 54 55  1  0  0  0
 55 56  1  0  0  0
 56 57  1  0  0  0
 57 58  1  0  0  0
 58 59  1  0  0  0
 59 60  1  0  0  0
 60 61  1  0  0  0
 61 62  1  0  0  0
 62 63  1  0  0  0
 63 64  1  0  0  0
 64 65  1  0  0  0
 31 32  1  0  0  0
 32 33  1  0  0  0
 33 34  1  0  0  0
 34 35  1  0  0  0
 35 36  1  0  0  0
  8 10  1  0  0  0
  9 17  1  0  0  0
 12 13  2  0  0  0
 12 17  1  0  0  0
 13 14  1  0  0  0
 14 15  2  0  0  0
 15 16  1  0  0  0
 16 17  2  0  0  0
M  END
> <minimizedAffinity>
-9.19998

> <CNNscore>
0.1502927393

> <CNNaffinity>
7.5270986557

> <CNN_VS>
1.1312682629

> <CNNaffinity_variance>
0.6301843524

$$$$
/media/chris/experiments/cd1a-new-docking/inputs/ligands/1xz0_ligand.pdb


 65 67  0  0  0  0  0  0  0  0999 V2000
  -39.7927   59.9925   65.0353 C   0  0  0  0  0  0  0  0  0  0  0  0
  -38.5892   60.6937   65.4872 N   0  0  0  0  0  0  0  0  0  0  0  0
  -36.9369   59.7118   64.2712 O   0  0  0  0  0  0  0  0  0  0  0  0
  -37.3112   60.5257   65.1052 C   0  0  0  0  0  0  0  0  0  0  0  0
  -38.7373   61.3882   66.1691 H   0  0  0  0  0  0  0  0  0  0  0  0
  -36.0121   62.6423   65.2165 N   0  0  0  0  0  0  0  0  0  0  0  0
  -33.9517   61.7954   65.3885 O   0  0  0  0  0  0  0  0  0  0  0  0
  -34.7907   60.7695   65.9181 C   0  0  0  0  0  0  0  0  0  0  0  0
  -34.7961   62.8878   64.9743 C   0  0  0  0  0  0  0  0  0  0  0  0
  -36.2405   61.3230   65.8359 C   0  0  0  0  0  0  0  0  0  0  0  0
  -32.8149   64.5849   66.2359 O   0  0  0  0  0  0  0  0  0  0  0  0
  -33.2998   64.9389   65.0395 C   0  0  0  0  0  0  0  0  0  0  0  0
  -32.8311   66.1046   64.4195 C   0  0  0  0  0  0  0  0  0  0  0  0
  -33.3312   66.5027   63.1682 C   0  0  0  0  0  0  0  0  0  0  0  0
  -34.2983   65.7343   62.5180 C   0  0  0  0  0  0  0  0  0  0  0  0
  -34.7644   64.5671   63.1295 C   0  0  0  0  0  0  0  0  0  0  0  0
  -34.2717   64.1702   64.3875 C   0  0  0  0  0  0  0  0  0  0  0  0
  -32.1647   65.1150   66.6533 H   0  0  0  0  0  0  0  0  0  0  0  0
  -39.5237   60.8452   62.8136 O   0  0  0  0  0  0  0  0  0  0  0  0
  -40.2563   60.7052   63.7792 C   0  0  0  0  0  0  0  0  0  0  0  0
  -41.5934   61.3060   63.7323 O   0  0  0  0  0  0  0  0  0  0  0  0
  -42.5901   60.8442   62.8013 C   0  0  0  0  0  0  0  0  0  0  0  0
  -42.8148   59.3372   62.8109 C   0  0  0  0  0  0  0  0  0  0  0  0
  -42.2114   61.3337   61.4115 C   0  0  0  0  0  0  0  0  0  0  0  0
  -41.0902   59.1666   61.2058 N   0  0  0  0  0  0  0  0  0  0  0  0
  -41.3480   60.5261   59.4168 O   0  0  0  0  0  0  0  0  0  0  0  0
  -41.4733   60.2991   60.5985 C   0  0  0  0  0  0  0  0  0  0  0  0
  -41.2430   59.0932   62.1756 H   0  0  0  0  0  0  0  0  0  0  0  0
  -40.9675   56.1371   62.0195 N   0  0  0  0  0  0  0  0  0  0  0  0
  -41.6511   56.0980   59.8755 O   0  0  0  0  0  0  0  0  0  0  0  0
  -40.5452   56.8482   63.2351 C   0  0  0  0  0  0  0  0  0  0  0  0
  -39.0567   57.2357   63.1508 C   0  0  0  0  0  0  0  0  0  0  0  0
  -38.3962   56.9842   61.8054 C   0  0  0  0  0  0  0  0  0  0  0  0
  -38.9372   57.8883   60.6946 C   0  0  0  0  0  0  0  0  0  0  0  0
  -40.4594   58.0288   60.5269 C   0  0  0  0  0  0  0  0  0  0  0  0
  -41.0881   56.6756   60.7954 C   0  0  0  0  0  0  0  0  0  0  0  0
  -41.6875   54.1328   63.7482 Si  0  0  0  0  0  0  0  0  0  0  0  0
  -41.2726   54.8157   62.1490 O   0  0  0  0  0  0  0  0  0  0  0  0
  -41.9625   52.7462   63.6140 H   0  0  0  0  0  0  0  0  0  0  0  0
  -42.8335   54.7950   64.2628 H   0  0  0  0  0  0  0  0  0  0  0  0
  -40.5962   54.3150   64.6383 H   0  0  0  0  0  0  0  0  0  0  0  0
  -41.7052   58.4558   65.9708 C   0  0  0  0  0  0  0  0  0  0  0  0
  -40.9192   59.7688   66.0731 C   0  0  0  0  0  0  0  0  0  0  0  0
  -43.0689   58.4052   66.6804 C   0  0  0  0  0  0  0  0  0  0  0  0
  -44.1733   57.5405   66.0387 C   0  0  0  0  0  0  0  0  0  0  0  0
  -45.4741   58.0593   66.4731 N   0  0  0  0  0  0  0  0  0  0  0  0
  -46.1556   59.1461   66.0235 C   0  0  0  0  0  0  0  0  0  0  0  0
  -46.0736   57.3084   67.4941 O   0  0  0  0  0  0  0  0  0  0  0  0
  -45.7057   59.8514   65.1206 O   0  0  0  0  0  0  0  0  0  0  0  0
  -46.9259   57.7066   67.7303 H   0  0  0  0  0  0  0  0  0  0  0  0
  -47.5038   59.4932   66.6636 C   0  0  0  0  0  0  0  0  0  0  0  0
  -48.4865   60.2091   65.7271 C   0  0  0  0  0  0  0  0  0  0  0  0
  -49.9128   59.6674   65.9433 C   0  0  0  0  0  0  0  0  0  0  0  0
  -50.1459   58.2806   65.3145 C   0  0  0  0  0  0  0  0  0  0  0  0
  -50.4153   58.3009   63.7983 C   0  0  0  0  0  0  0  0  0  0  0  0
  -51.4550   59.3646   63.3876 C   0  0  0  0  0  0  0  0  0  0  0  0
  -50.8901   60.5121   62.5182 C   0  0  0  0  0  0  0  0  0  0  0  0
  -49.5296   60.1886   61.8902 C   0  0  0  0  0  0  0  0  0  0  0  0
  -49.5355   60.0110   60.3685 C   0  0  0  0  0  0  0  0  0  0  0  0
  -49.7773   58.5419   59.9761 C   0  0  0  0  0  0  0  0  0  0  0  0
  -48.5802   57.6191   60.2504 C   0  0  0  0  0  0  0  0  0  0  0  0
  -48.4759   56.3802   59.3550 C   0  0  0  0  0  0  0  0  0  0  0  0
  -47.2068   56.3420   58.4674 C   0  0  0  0  0  0  0  0  0  0  0  0
  -47.1355   57.5649   57.5305 C   0  0  0  0  0  0  0  0  0  0  0  0
  -48.0839   57.5796   56.3257 C   0  0  0  0  0  0  0  0  0  0  0  0
 46 47  1  0  0  0
 46 48  1  0  0  0
 46 45  1  0  0  0
 47 49  2  0  0  0
 47 51  1  0  0  0
 19 20  2  0  0  0
 37 38  1  0  0  0
 37 39  1  0  0  0
 37 40  1  0  0  0
 37 41  1  0  0  0
 48 50  1  0  0  0
 38 29  1  0  0  0
 45 44  1  0  0  0
 25 27  1  0  0  0
 25 35  1  0  0  0
 25 28  1  0  0  0
 21 20  1  0  0  0
 21 22  1  0  0  0
 44 42  1  0  0  0
  2  1  1  0  0  0
  2  4  1  0  0  0
  2  5  1  0  0  0
 26 27  2  0  0  0
 42 43  2  0  0  0
 29 31  1  0  0  0
 29 36  1  0  0  0
  3  4  2  0  0  0
 43  1  1  0  0  0
  6  9  2  0  0  0
  6 10  1  0  0  0
  1 20  1  0  0  0
 30 36  2  0  0  0
  7  8  1  0  0  0
  7  9  1  0  0  0
 22 24  1  0  0  0
 22 23  1  0  0  0
 11 12  1  0  0  0
 11 18  1  0  0  0
 24 27  1  0  0  0
  4 10  1  0  0  0
 51 52  1  0  0  0
 52 53  1  0  0  0
 53 54  1  0  0  0
 54 55  1  0  0  0
 55 56  1  0  0  0
 56 57  1  0  0  0
 57 58  1  0  0  0
 58 59  1  0  0  0
 59 60  1  0  0  0
 60 61  1  0  0  0
 61 62  1  0  0  0
 62 63  1  0  0  0
 63 64  1  0  0  0
 64 65  1  0  0  0
 31 32  1  0  0  0
 32 33  1  0  0  0
 33 34  1  0  0  0
 34 35  1  0  0  0
 35 36  1  0  0  0
  8 10  1  0  0  0
  9 17  1  0  0  0
 12 13  2  0  0  0
 12 17  1  0  0  0
 13 14  1  0  0  0
 14 15  2  0  0  0
 15 16  1  0  0  0
 16 17  2  0  0  0
M  END
> <minimizedAffinity>
-10.35033

> <CNNscore>
0.1474160254

> <CNNaffinity>
7.4255166054

> <CNN_VS>
1.0946401358

> <CNNaffinity_variance>
1.8966048956

$$$$
