/media/chris/experiments/cd1a-new-docking/inputs/ligands/1xz0_ligand.pdb


 65 67  0  0  0  0  0  0  0  0999 V2000
  -40.0260   59.3902   65.0040 C   0  0  0  0  0  0  0  0  0  0  0  0
  -39.1541   59.7783   66.1145 N   0  0  0  0  0  0  0  0  0  0  0  0
  -37.2698   60.6160   67.0741 O   0  0  0  0  0  0  0  0  0  0  0  0
  -37.9314   60.3364   66.0830 C   0  0  0  0  0  0  0  0  0  0  0  0
  -39.5153   59.6057   67.0140 H   0  0  0  0  0  0  0  0  0  0  0  0
  -36.1545   59.9992   64.3774 N   0  0  0  0  0  0  0  0  0  0  0  0
  -35.5546   62.1267   64.0522 O   0  0  0  0  0  0  0  0  0  0  0  0
  -36.9049   62.2155   64.5054 C   0  0  0  0  0  0  0  0  0  0  0  0
  -35.1878   60.7330   64.0244 C   0  0  0  0  0  0  0  0  0  0  0  0
  -37.3743   60.7511   64.7288 C   0  0  0  0  0  0  0  0  0  0  0  0
  -34.0180   58.2042   64.8205 O   0  0  0  0  0  0  0  0  0  0  0  0
  -33.3382   58.9931   63.9797 C   0  0  0  0  0  0  0  0  0  0  0  0
  -32.0925   58.5760   63.4928 C   0  0  0  0  0  0  0  0  0  0  0  0
  -31.3549   59.3901   62.6167 C   0  0  0  0  0  0  0  0  0  0  0  0
  -31.8594   60.6263   62.2095 C   0  0  0  0  0  0  0  0  0  0  0  0
  -33.1047   61.0441   62.6874 C   0  0  0  0  0  0  0  0  0  0  0  0
  -33.8421   60.2344   63.5724 C   0  0  0  0  0  0  0  0  0  0  0  0
  -33.6610   57.3774   65.0793 H   0  0  0  0  0  0  0  0  0  0  0  0
  -41.3568   61.3214   65.4884 O   0  0  0  0  0  0  0  0  0  0  0  0
  -40.8273   60.6250   64.6380 C   0  0  0  0  0  0  0  0  0  0  0  0
  -41.0371   60.9672   63.2273 O   0  0  0  0  0  0  0  0  0  0  0  0
  -42.3193   61.4138   62.7474 C   0  0  0  0  0  0  0  0  0  0  0  0
  -43.4937   60.5435   63.1773 C   0  0  0  0  0  0  0  0  0  0  0  0
  -42.2494   61.5323   61.2324 C   0  0  0  0  0  0  0  0  0  0  0  0
  -41.2982   59.2774   61.3178 N   0  0  0  0  0  0  0  0  0  0  0  0
  -41.3329   60.4616   59.3911 O   0  0  0  0  0  0  0  0  0  0  0  0
  -41.5493   60.3671   60.5776 C   0  0  0  0  0  0  0  0  0  0  0  0
  -41.5162   59.3157   62.2771 H   0  0  0  0  0  0  0  0  0  0  0  0
  -38.5292   57.9247   61.9158 N   0  0  0  0  0  0  0  0  0  0  0  0
  -40.0195   56.2610   62.1927 O   0  0  0  0  0  0  0  0  0  0  0  0
  -38.1821   59.3172   61.5961 C   0  0  0  0  0  0  0  0  0  0  0  0
  -38.1314   59.5300   60.0713 C   0  0  0  0  0  0  0  0  0  0  0  0
  -38.6155   58.3563   59.2360 C   0  0  0  0  0  0  0  0  0  0  0  0
  -40.1160   58.0930   59.3864 C   0  0  0  0  0  0  0  0  0  0  0  0
  -40.7214   58.0320   60.7987 C   0  0  0  0  0  0  0  0  0  0  0  0
  -39.7222   57.3444   61.7084 C   0  0  0  0  0  0  0  0  0  0  0  0
  -36.0364   57.9009   63.0598 Si  0  0  0  0  0  0  0  0  0  0  0  0
  -37.5560   57.1577   62.4818 O   0  0  0  0  0  0  0  0  0  0  0  0
  -35.1943   56.8951   63.6034 H   0  0  0  0  0  0  0  0  0  0  0  0
  -36.3312   58.8635   64.0612 H   0  0  0  0  0  0  0  0  0  0  0  0
  -35.3764   58.5346   61.9738 H   0  0  0  0  0  0  0  0  0  0  0  0
  -42.4007   58.3310   65.3681 C   0  0  0  0  0  0  0  0  0  0  0  0
  -40.8923   58.1206   65.1881 C   0  0  0  0  0  0  0  0  0  0  0  0
  -43.1974   57.1635   65.9748 C   0  0  0  0  0  0  0  0  0  0  0  0
  -44.5643   56.8303   65.3424 C   0  0  0  0  0  0  0  0  0  0  0  0
  -45.5926   57.6201   66.0269 N   0  0  0  0  0  0  0  0  0  0  0  0
  -46.3401   58.6500   65.5491 C   0  0  0  0  0  0  0  0  0  0  0  0
  -45.8133   57.2354   67.3569 O   0  0  0  0  0  0  0  0  0  0  0  0
  -46.2176   59.0413   64.3886 O   0  0  0  0  0  0  0  0  0  0  0  0
  -46.5021   57.7970   67.7458 H   0  0  0  0  0  0  0  0  0  0  0  0
  -47.3454   59.3324   66.4827 C   0  0  0  0  0  0  0  0  0  0  0  0
  -48.3720   60.2230   65.7695 C   0  0  0  0  0  0  0  0  0  0  0  0
  -49.7973   59.6974   66.0273 C   0  0  0  0  0  0  0  0  0  0  0  0
  -50.0582   58.3050   65.4223 C   0  0  0  0  0  0  0  0  0  0  0  0
  -49.9281   58.2374   63.8891 C   0  0  0  0  0  0  0  0  0  0  0  0
  -51.1752   58.7753   63.1566 C   0  0  0  0  0  0  0  0  0  0  0  0
  -50.9621   60.1257   62.4338 C   0  0  0  0  0  0  0  0  0  0  0  0
  -49.5648   60.2761   61.8216 C   0  0  0  0  0  0  0  0  0  0  0  0
  -49.5062   60.1926   60.2930 C   0  0  0  0  0  0  0  0  0  0  0  0
  -49.6434   58.7389   59.8048 C   0  0  0  0  0  0  0  0  0  0  0  0
  -48.5899   57.7845   60.3874 C   0  0  0  0  0  0  0  0  0  0  0  0
  -48.3863   56.4719   59.6239 C   0  0  0  0  0  0  0  0  0  0  0  0
  -47.2122   56.4992   58.6137 C   0  0  0  0  0  0  0  0  0  0  0  0
  -47.6671   57.0118   57.2322 C   0  0  0  0  0  0  0  0  0  0  0  0
  -47.0940   58.3534   56.7601 C   0  0  0  0  0  0  0  0  0  0  0  0
 46 47  1  0  0  0
 46 48  1  0  0  0
 46 45  1  0  0  0
 47 49  2  0  0  0
 47 51  1  0  0  0
 19 20  2  0  0  0
 37 38  1  0  0  0
 37 39  1  0  0  0
 37 40  1  0  0  0
 37 41  1  0  0  0
 48 50  1  0  0  0
 38 29  1  0  0  0
 45 44  1  0  0  0
 25 27  1  0  0  0
 25 35  1  0  0  0
 25 28  1  0  0  0
 21 20  1  0  0  0
 21 22  1  0  0  0
 44 42  1  0  0  0
  2  1  1  0  0  0
  2  4  1  0  0  0
  2  5  1  0  0  0
 26 27  2  0  0  0
 42 43  2  0  0  0
 29 31  1  0  0  0
 29 36  1  0  0  0
  3  4  2  0  0  0
 43  1  1  0  0  0
  6  9  2  0  0  0
  6 10  1  0  0  0
  1 20  1  0  0  0
 30 36  2  0  0  0
  7  8  1  0  0  0
  7  9  1  0  0  0
 22 24  1  0  0  0
 22 23  1  0  0  0
 11 12  1  0  0  0
 11 18  1  0  0  0
 24 27  1  0  0  0
  4 10  1  0  0  0
 51 52  1  0  0  0
 52 53  1  0  0  0
 53 54  1  0  0  0
 54 55  1  0  0  0
 55 56  1  0  0  0
 56 57  1  0  0  0
 57 58  1  0  0  0
 58 59  1  0  0  0
 59 60  1  0  0  0
 60 61  1  0  0  0
 61 62  1  0  0  0
 62 63  1  0  0  0
 63 64  1  0  0  0
 64 65  1  0  0  0
 31 32  1  0  0  0
 32 33  1  0  0  0
 33 34  1  0  0  0
 34 35  1  0  0  0
 35 36  1  0  0  0
  8 10  1  0  0  0
  9 17  1  0  0  0
 12 13  2  0  0  0
 12 17  1  0  0  0
 13 14  1  0  0  0
 14 15  2  0  0  0
 15 16  1  0  0  0
 16 17  2  0  0  0
M  END
> <minimizedAffinity>
-10.14145

> <CNNscore>
0.2952596545

> <CNNaffinity>
7.7622632980

> <CNN_VS>
2.2918832302

> <CNNaffinity_variance>
2.2388176918

$$$$
/media/chris/experiments/cd1a-new-docking/inputs/ligands/1xz0_ligand.pdb


 65 67  0  0  0  0  0  0  0  0999 V2000
  -37.8722   58.0475   62.1046 C   0  0  0  0  0  0  0  0  0  0  0  0
  -37.5184   58.1671   60.6888 N   0  0  0  0  0  0  0  0  0  0  0  0
  -37.6799   58.9924   58.5755 O   0  0  0  0  0  0  0  0  0  0  0  0
  -38.0369   58.9733   59.7462 C   0  0  0  0  0  0  0  0  0  0  0  0
  -36.7967   57.5713   60.3831 H   0  0  0  0  0  0  0  0  0  0  0  0
  -39.1253   60.1419   61.6513 N   0  0  0  0  0  0  0  0  0  0  0  0
  -41.2653   59.8722   61.0682 O   0  0  0  0  0  0  0  0  0  0  0  0
  -40.5604   59.8088   59.8290 C   0  0  0  0  0  0  0  0  0  0  0  0
  -40.2968   60.0617   62.1190 C   0  0  0  0  0  0  0  0  0  0  0  0
  -39.0610   60.0107   60.1833 C   0  0  0  0  0  0  0  0  0  0  0  0
  -42.8855   60.9305   63.0890 O   0  0  0  0  0  0  0  0  0  0  0  0
  -41.9369   60.6127   63.9782 C   0  0  0  0  0  0  0  0  0  0  0  0
  -42.2180   60.6902   65.3485 C   0  0  0  0  0  0  0  0  0  0  0  0
  -41.2364   60.3712   66.3020 C   0  0  0  0  0  0  0  0  0  0  0  0
  -39.9654   59.9613   65.8957 C   0  0  0  0  0  0  0  0  0  0  0  0
  -39.6820   59.8761   64.5297 C   0  0  0  0  0  0  0  0  0  0  0  0
  -40.6608   60.2036   63.5720 C   0  0  0  0  0  0  0  0  0  0  0  0
  -43.7325   61.2016   63.3842 H   0  0  0  0  0  0  0  0  0  0  0  0
  -36.4056   57.3738   63.8740 O   0  0  0  0  0  0  0  0  0  0  0  0
  -36.5649   58.0544   62.8740 C   0  0  0  0  0  0  0  0  0  0  0  0
  -35.4778   58.9465   62.4576 O   0  0  0  0  0  0  0  0  0  0  0  0
  -34.1028   58.5203   62.4954 C   0  0  0  0  0  0  0  0  0  0  0  0
  -33.6949   57.8131   63.7819 C   0  0  0  0  0  0  0  0  0  0  0  0
  -33.2186   59.7293   62.2295 C   0  0  0  0  0  0  0  0  0  0  0  0
  -33.6673   62.0906   62.6977 N   0  0  0  0  0  0  0  0  0  0  0  0
  -33.5279   60.5716   64.3676 O   0  0  0  0  0  0  0  0  0  0  0  0
  -33.4574   60.8633   63.1957 C   0  0  0  0  0  0  0  0  0  0  0  0
  -33.5820   62.2102   61.7242 H   0  0  0  0  0  0  0  0  0  0  0  0
  -35.0345   64.7873   61.8531 N   0  0  0  0  0  0  0  0  0  0  0  0
  -36.2113   64.1198   63.6516 O   0  0  0  0  0  0  0  0  0  0  0  0
  -33.9538   64.6147   60.8711 C   0  0  0  0  0  0  0  0  0  0  0  0
  -32.6080   65.0865   61.4533 C   0  0  0  0  0  0  0  0  0  0  0  0
  -32.6297   65.4446   62.9301 C   0  0  0  0  0  0  0  0  0  0  0  0
  -32.8655   64.2334   63.8363 C   0  0  0  0  0  0  0  0  0  0  0  0
  -34.0148   63.2681   63.5015 C   0  0  0  0  0  0  0  0  0  0  0  0
  -35.1828   64.0883   62.9898 C   0  0  0  0  0  0  0  0  0  0  0  0
  -37.4094   65.9185   62.6302 Si  0  0  0  0  0  0  0  0  0  0  0  0
  -35.9744   65.7348   61.5800 O   0  0  0  0  0  0  0  0  0  0  0  0
  -38.2285   66.9667   62.1336 H   0  0  0  0  0  0  0  0  0  0  0  0
  -36.9921   66.2294   63.9515 H   0  0  0  0  0  0  0  0  0  0  0  0
  -38.1473   64.7053   62.6401 H   0  0  0  0  0  0  0  0  0  0  0  0
  -40.1211   56.7533   61.7031 C   0  0  0  0  0  0  0  0  0  0  0  0
  -38.8226   56.8937   62.5068 C   0  0  0  0  0  0  0  0  0  0  0  0
  -41.2482   55.9251   62.3431 C   0  0  0  0  0  0  0  0  0  0  0  0
  -41.5877   56.2078   63.8210 C   0  0  0  0  0  0  0  0  0  0  0  0
  -42.7632   57.0831   63.8636 N   0  0  0  0  0  0  0  0  0  0  0  0
  -43.5977   57.3457   64.9040 C   0  0  0  0  0  0  0  0  0  0  0  0
  -43.0384   57.7249   62.6479 O   0  0  0  0  0  0  0  0  0  0  0  0
  -43.4190   56.8336   66.0088 O   0  0  0  0  0  0  0  0  0  0  0  0
  -43.8243   58.2845   62.7484 H   0  0  0  0  0  0  0  0  0  0  0  0
  -44.7821   58.2927   64.6840 C   0  0  0  0  0  0  0  0  0  0  0  0
  -45.2135   59.0719   65.9339 C   0  0  0  0  0  0  0  0  0  0  0  0
  -46.6632   58.7089   66.3090 C   0  0  0  0  0  0  0  0  0  0  0  0
  -47.1707   57.4231   65.6292 C   0  0  0  0  0  0  0  0  0  0  0  0
  -48.6990   57.3520   65.4514 C   0  0  0  0  0  0  0  0  0  0  0  0
  -49.2100   58.2338   64.2928 C   0  0  0  0  0  0  0  0  0  0  0  0
  -50.6271   58.8152   64.5058 C   0  0  0  0  0  0  0  0  0  0  0  0
  -51.1755   59.5508   63.2776 C   0  0  0  0  0  0  0  0  0  0  0  0
  -50.7987   58.9390   61.9246 C   0  0  0  0  0  0  0  0  0  0  0  0
  -49.8774   59.8760   61.1222 C   0  0  0  0  0  0  0  0  0  0  0  0
  -49.2515   59.2210   59.8814 C   0  0  0  0  0  0  0  0  0  0  0  0
  -48.6501   57.8283   60.0960 C   0  0  0  0  0  0  0  0  0  0  0  0
  -47.9567   57.2351   58.8441 C   0  0  0  0  0  0  0  0  0  0  0  0
  -47.7648   58.3009   57.7461 C   0  0  0  0  0  0  0  0  0  0  0  0
  -47.5929   57.8000   56.3071 C   0  0  0  0  0  0  0  0  0  0  0  0
 46 47  1  0  0  0
 46 48  1  0  0  0
 46 45  1  0  0  0
 47 49  2  0  0  0
 47 51  1  0  0  0
 19 20  2  0  0  0
 37 38  1  0  0  0
 37 39  1  0  0  0
 37 40  1  0  0  0
 37 41  1  0  0  0
 48 50  1  0  0  0
 38 29  1  0  0  0
 45 44  1  0  0  0
 25 27  1  0  0  0
 25 35  1  0  0  0
 25 28  1  0  0  0
 21 20  1  0  0  0
 21 22  1  0  0  0
 44 42  1  0  0  0
  2  1  1  0  0  0
  2  4  1  0  0  0
  2  5  1  0  0  0
 26 27  2  0  0  0
 42 43  2  0  0  0
 29 31  1  0  0  0
 29 36  1  0  0  0
  3  4  2  0  0  0
 43  1  1  0  0  0
  6  9  2  0  0  0
  6 10  1  0  0  0
  1 20  1  0  0  0
 30 36  2  0  0  0
  7  8  1  0  0  0
  7  9  1  0  0  0
 22 24  1  0  0  0
 22 23  1  0  0  0
 11 12  1  0  0  0
 11 18  1  0  0  0
 24 27  1  0  0  0
  4 10  1  0  0  0
 51 52  1  0  0  0
 52 53  1  0  0  0
 53 54  1  0  0  0
 54 55  1  0  0  0
 55 56  1  0  0  0
 56 57  1  0  0  0
 57 58  1  0  0  0
 58 59  1  0  0  0
 59 60  1  0  0  0
 60 61  1  0  0  0
 61 62  1  0  0  0
 62 63  1  0  0  0
 63 64  1  0  0  0
 64 65  1  0  0  0
 31 32  1  0  0  0
 32 33  1  0  0  0
 33 34  1  0  0  0
 34 35  1  0  0  0
 35 36  1  0  0  0
  8 10  1  0  0  0
  9 17  1  0  0  0
 12 13  2  0  0  0
 12 17  1  0  0  0
 13 14  1  0  0  0
 14 15  2  0  0  0
 15 16  1  0  0  0
 16 17  2  0  0  0
M  END
> <minimizedAffinity>
-9.42052

> <CNNscore>
0.2558738887

> <CNNaffinity>
7.4246797562

> <CNN_VS>
1.8997817039

> <CNNaffinity_variance>
0.9288219213

$$$$
/media/chris/experiments/cd1a-new-docking/inputs/ligands/1xz0_ligand.pdb


 65 67  0  0  0  0  0  0  0  0999 V2000
  -41.6956   57.2311   60.2617 C   0  0  0  0  0  0  0  0  0  0  0  0
  -41.5140   55.8999   60.8440 N   0  0  0  0  0  0  0  0  0  0  0  0
  -41.1774   54.4004   62.5207 O   0  0  0  0  0  0  0  0  0  0  0  0
  -41.3336   55.5496   62.1294 C   0  0  0  0  0  0  0  0  0  0  0  0
  -41.5258   55.1539   60.2017 H   0  0  0  0  0  0  0  0  0  0  0  0
  -40.1937   57.4228   63.3007 N   0  0  0  0  0  0  0  0  0  0  0  0
  -40.6376   56.8529   65.4150 O   0  0  0  0  0  0  0  0  0  0  0  0
  -41.6962   56.2546   64.6680 C   0  0  0  0  0  0  0  0  0  0  0  0
  -39.7669   57.5284   64.4857 C   0  0  0  0  0  0  0  0  0  0  0  0
  -41.4394   56.6408   63.1849 C   0  0  0  0  0  0  0  0  0  0  0  0
  -39.8242   60.0088   65.9828 O   0  0  0  0  0  0  0  0  0  0  0  0
  -38.6392   59.4899   65.6394 C   0  0  0  0  0  0  0  0  0  0  0  0
  -37.4601   60.1428   66.0218 C   0  0  0  0  0  0  0  0  0  0  0  0
  -36.2039   59.6235   65.6654 C   0  0  0  0  0  0  0  0  0  0  0  0
  -36.1126   58.4399   64.9310 C   0  0  0  0  0  0  0  0  0  0  0  0
  -37.2859   57.7814   64.5526 C   0  0  0  0  0  0  0  0  0  0  0  0
  -38.5462   58.3040   64.9007 C   0  0  0  0  0  0  0  0  0  0  0  0
  -39.8620   60.8037   66.4776 H   0  0  0  0  0  0  0  0  0  0  0  0
  -39.9936   57.6308   58.6249 O   0  0  0  0  0  0  0  0  0  0  0  0
  -40.3246   57.6853   59.7980 C   0  0  0  0  0  0  0  0  0  0  0  0
  -39.3360   58.1415   60.7806 O   0  0  0  0  0  0  0  0  0  0  0  0
  -38.4314   59.2229   60.4867 C   0  0  0  0  0  0  0  0  0  0  0  0
  -37.6308   59.0464   59.2024 C   0  0  0  0  0  0  0  0  0  0  0  0
  -37.5130   59.4184   61.6836 C   0  0  0  0  0  0  0  0  0  0  0  0
  -36.5945   61.5372   62.4979 N   0  0  0  0  0  0  0  0  0  0  0  0
  -38.8090   61.0954   62.6242 O   0  0  0  0  0  0  0  0  0  0  0  0
  -37.6794   60.7638   62.3460 C   0  0  0  0  0  0  0  0  0  0  0  0
  -35.7234   61.1600   62.2367 H   0  0  0  0  0  0  0  0  0  0  0  0
  -34.3877   63.7686   62.4224 N   0  0  0  0  0  0  0  0  0  0  0  0
  -36.2403   64.8092   61.6804 O   0  0  0  0  0  0  0  0  0  0  0  0
  -33.6776   62.5844   62.9276 C   0  0  0  0  0  0  0  0  0  0  0  0
  -33.9238   62.4042   64.4375 C   0  0  0  0  0  0  0  0  0  0  0  0
  -34.9605   63.3369   65.0416 C   0  0  0  0  0  0  0  0  0  0  0  0
  -36.3796   63.0611   64.5380 C   0  0  0  0  0  0  0  0  0  0  0  0
  -36.6140   62.9061   63.0261 C   0  0  0  0  0  0  0  0  0  0  0  0
  -35.7193   63.8975   62.3083 C   0  0  0  0  0  0  0  0  0  0  0  0
  -34.2796   66.0396   60.8879 Si  0  0  0  0  0  0  0  0  0  0  0  0
  -33.6256   64.8258   62.0258 O   0  0  0  0  0  0  0  0  0  0  0  0
  -33.2951   67.0313   60.6361 H   0  0  0  0  0  0  0  0  0  0  0  0
  -35.4304   66.6483   61.4551 H   0  0  0  0  0  0  0  0  0  0  0  0
  -34.6331   65.4032   59.6686 H   0  0  0  0  0  0  0  0  0  0  0  0
  -41.9031   59.7204   61.0705 C   0  0  0  0  0  0  0  0  0  0  0  0
  -42.4432   58.2857   61.1132 C   0  0  0  0  0  0  0  0  0  0  0  0
  -42.3368   60.6601   62.2084 C   0  0  0  0  0  0  0  0  0  0  0  0
  -42.0216   60.2209   63.6531 C   0  0  0  0  0  0  0  0  0  0  0  0
  -43.2838   59.8759   64.3146 N   0  0  0  0  0  0  0  0  0  0  0  0
  -43.4924   59.4312   65.5820 C   0  0  0  0  0  0  0  0  0  0  0  0
  -44.4146   60.0385   63.5018 O   0  0  0  0  0  0  0  0  0  0  0  0
  -42.5552   59.2738   66.3642 O   0  0  0  0  0  0  0  0  0  0  0  0
  -45.2094   59.7936   64.0010 H   0  0  0  0  0  0  0  0  0  0  0  0
  -44.9231   59.1174   66.0320 C   0  0  0  0  0  0  0  0  0  0  0  0
  -45.2553   57.6204   66.0964 C   0  0  0  0  0  0  0  0  0  0  0  0
  -46.7825   57.4191   66.1345 C   0  0  0  0  0  0  0  0  0  0  0  0
  -47.5481   58.3351   65.1610 C   0  0  0  0  0  0  0  0  0  0  0  0
  -48.7853   59.0237   65.7672 C   0  0  0  0  0  0  0  0  0  0  0  0
  -50.1140   58.4195   65.2666 C   0  0  0  0  0  0  0  0  0  0  0  0
  -51.0526   59.4274   64.5633 C   0  0  0  0  0  0  0  0  0  0  0  0
  -51.1775   59.1933   63.0534 C   0  0  0  0  0  0  0  0  0  0  0  0
  -50.7593   60.3732   62.1703 C   0  0  0  0  0  0  0  0  0  0  0  0
  -49.3637   60.1499   61.5595 C   0  0  0  0  0  0  0  0  0  0  0  0
  -49.3878   59.4580   60.1881 C   0  0  0  0  0  0  0  0  0  0  0  0
  -48.9483   57.9903   60.1754 C   0  0  0  0  0  0  0  0  0  0  0  0
  -48.6879   57.4165   58.7602 C   0  0  0  0  0  0  0  0  0  0  0  0
  -47.7994   58.3588   57.9230 C   0  0  0  0  0  0  0  0  0  0  0  0
  -47.5766   57.9873   56.4521 C   0  0  0  0  0  0  0  0  0  0  0  0
 46 47  1  0  0  0
 46 48  1  0  0  0
 46 45  1  0  0  0
 47 49  2  0  0  0
 47 51  1  0  0  0
 19 20  2  0  0  0
 37 38  1  0  0  0
 37 39  1  0  0  0
 37 40  1  0  0  0
 37 41  1  0  0  0
 48 50  1  0  0  0
 38 29  1  0  0  0
 45 44  1  0  0  0
 25 27  1  0  0  0
 25 35  1  0  0  0
 25 28  1  0  0  0
 21 20  1  0  0  0
 21 22  1  0  0  0
 44 42  1  0  0  0
  2  1  1  0  0  0
  2  4  1  0  0  0
  2  5  1  0  0  0
 26 27  2  0  0  0
 42 43  2  0  0  0
 29 31  1  0  0  0
 29 36  1  0  0  0
  3  4  2  0  0  0
 43  1  1  0  0  0
  6  9  2  0  0  0
  6 10  1  0  0  0
  1 20  1  0  0  0
 30 36  2  0  0  0
  7  8  1  0  0  0
  7  9  1  0  0  0
 22 24  1  0  0  0
 22 23  1  0  0  0
 11 12  1  0  0  0
 11 18  1  0  0  0
 24 27  1  0  0  0
  4 10  1  0  0  0
 51 52  1  0  0  0
 52 53  1  0  0  0
 53 54  1  0  0  0
 54 55  1  0  0  0
 55 56  1  0  0  0
 56 57  1  0  0  0
 57 58  1  0  0  0
 58 59  1  0  0  0
 59 60  1  0  0  0
 60 61  1  0  0  0
 61 62  1  0  0  0
 62 63  1  0  0  0
 63 64  1  0  0  0
 64 65  1  0  0  0
 31 32  1  0  0  0
 32 33  1  0  0  0
 33 34  1  0  0  0
 34 35  1  0  0  0
 35 36  1  0  0  0
  8 10  1  0  0  0
  9 17  1  0  0  0
 12 13  2  0  0  0
 12 17  1  0  0  0
 13 14  1  0  0  0
 14 15  2  0  0  0
 15 16  1  0  0  0
 16 17  2  0  0  0
M  END
> <minimizedAffinity>
-9.02106

> <CNNscore>
0.2489030361

> <CNNaffinity>
7.6796751022

> <CNN_VS>
1.9114944935

> <CNNaffinity_variance>
0.9927463531

$$$$
/media/chris/experiments/cd1a-new-docking/inputs/ligands/1xz0_ligand.pdb


 65 67  0  0  0  0  0  0  0  0999 V2000
  -40.5310   57.5583   62.3425 C   0  0  0  0  0  0  0  0  0  0  0  0
  -40.8222   57.7027   60.9148 N   0  0  0  0  0  0  0  0  0  0  0  0
  -41.2705   58.8392   58.9963 O   0  0  0  0  0  0  0  0  0  0  0  0
  -41.0184   58.8204   60.1940 C   0  0  0  0  0  0  0  0  0  0  0  0
  -40.8831   56.8597   60.4099 H   0  0  0  0  0  0  0  0  0  0  0  0
  -39.5941   60.1609   61.7284 N   0  0  0  0  0  0  0  0  0  0  0  0
  -41.1737   60.9388   63.1037 O   0  0  0  0  0  0  0  0  0  0  0  0
  -41.8722   60.6871   61.8850 C   0  0  0  0  0  0  0  0  0  0  0  0
  -39.7941   60.5698   62.9075 C   0  0  0  0  0  0  0  0  0  0  0  0
  -40.8054   60.1589   60.8862 C   0  0  0  0  0  0  0  0  0  0  0  0
  -37.3082   62.0161   62.5533 O   0  0  0  0  0  0  0  0  0  0  0  0
  -37.5589   61.4446   63.7374 C   0  0  0  0  0  0  0  0  0  0  0  0
  -36.6292   61.5703   64.7779 C   0  0  0  0  0  0  0  0  0  0  0  0
  -36.8646   60.9717   66.0272 C   0  0  0  0  0  0  0  0  0  0  0  0
  -38.0372   60.2489   66.2532 C   0  0  0  0  0  0  0  0  0  0  0  0
  -38.9708   60.1259   65.2203 C   0  0  0  0  0  0  0  0  0  0  0  0
  -38.7337   60.7173   63.9646 C   0  0  0  0  0  0  0  0  0  0  0  0
  -36.5152   62.4983   62.4242 H   0  0  0  0  0  0  0  0  0  0  0  0
  -38.7587   56.0288   61.8376 O   0  0  0  0  0  0  0  0  0  0  0  0
  -39.1123   57.0302   62.4382 C   0  0  0  0  0  0  0  0  0  0  0  0
  -38.1464   57.6895   63.3233 O   0  0  0  0  0  0  0  0  0  0  0  0
  -36.7293   57.4818   63.1730 C   0  0  0  0  0  0  0  0  0  0  0  0
  -35.9673   57.3451   64.4853 C   0  0  0  0  0  0  0  0  0  0  0  0
  -36.1660   58.6134   62.3265 C   0  0  0  0  0  0  0  0  0  0  0  0
  -34.4749   60.2319   63.0454 N   0  0  0  0  0  0  0  0  0  0  0  0
  -33.9447   58.0610   62.6969 O   0  0  0  0  0  0  0  0  0  0  0  0
  -34.7435   58.9693   62.6821 C   0  0  0  0  0  0  0  0  0  0  0  0
  -35.2062   60.8889   62.9920 H   0  0  0  0  0  0  0  0  0  0  0  0
  -33.5686   63.0890   63.9782 N   0  0  0  0  0  0  0  0  0  0  0  0
  -32.8521   61.7270   65.6205 O   0  0  0  0  0  0  0  0  0  0  0  0
  -34.2389   63.3317   62.6923 C   0  0  0  0  0  0  0  0  0  0  0  0
  -33.2856   63.0421   61.5175 C   0  0  0  0  0  0  0  0  0  0  0  0
  -31.9585   62.4079   61.9001 C   0  0  0  0  0  0  0  0  0  0  0  0
  -32.1090   60.9822   62.4370 C   0  0  0  0  0  0  0  0  0  0  0  0
  -33.1677   60.7033   63.5169 C   0  0  0  0  0  0  0  0  0  0  0  0
  -33.2010   61.8905   64.4593 C   0  0  0  0  0  0  0  0  0  0  0  0
  -32.3061   64.0190   66.2288 Si  0  0  0  0  0  0  0  0  0  0  0  0
  -33.3056   64.1768   64.7550 O   0  0  0  0  0  0  0  0  0  0  0  0
  -32.1825   65.2874   66.8550 H   0  0  0  0  0  0  0  0  0  0  0  0
  -31.0174   63.5371   65.8774 H   0  0  0  0  0  0  0  0  0  0  0  0
  -32.9244   63.1071   67.1247 H   0  0  0  0  0  0  0  0  0  0  0  0
  -42.7474   57.5463   63.7502 C   0  0  0  0  0  0  0  0  0  0  0  0
  -41.5470   56.7660   63.2006 C   0  0  0  0  0  0  0  0  0  0  0  0
  -43.5069   56.9134   64.9285 C   0  0  0  0  0  0  0  0  0  0  0  0
  -43.9647   57.8502   66.0654 C   0  0  0  0  0  0  0  0  0  0  0  0
  -45.1285   58.6083   65.5960 N   0  0  0  0  0  0  0  0  0  0  0  0
  -46.2368   58.9888   66.2849 C   0  0  0  0  0  0  0  0  0  0  0  0
  -45.0588   58.9787   64.2456 O   0  0  0  0  0  0  0  0  0  0  0  0
  -46.3708   58.7154   67.4774 O   0  0  0  0  0  0  0  0  0  0  0  0
  -45.8571   59.4744   64.0047 H   0  0  0  0  0  0  0  0  0  0  0  0
  -47.3353   59.7661   65.5519 C   0  0  0  0  0  0  0  0  0  0  0  0
  -48.5152   60.1875   66.4383 C   0  0  0  0  0  0  0  0  0  0  0  0
  -49.8282   59.6016   65.8843 C   0  0  0  0  0  0  0  0  0  0  0  0
  -49.6696   58.1882   65.2926 C   0  0  0  0  0  0  0  0  0  0  0  0
  -49.9597   58.0885   63.7833 C   0  0  0  0  0  0  0  0  0  0  0  0
  -51.1760   58.9328   63.3488 C   0  0  0  0  0  0  0  0  0  0  0  0
  -50.8165   60.2471   62.6174 C   0  0  0  0  0  0  0  0  0  0  0  0
  -49.4633   60.1950   61.8991 C   0  0  0  0  0  0  0  0  0  0  0  0
  -49.5299   60.2609   60.3699 C   0  0  0  0  0  0  0  0  0  0  0  0
  -49.7040   58.8602   59.7550 C   0  0  0  0  0  0  0  0  0  0  0  0
  -48.7390   57.8073   60.3211 C   0  0  0  0  0  0  0  0  0  0  0  0
  -47.6487   57.3197   59.3617 C   0  0  0  0  0  0  0  0  0  0  0  0
  -48.0352   56.0602   58.5468 C   0  0  0  0  0  0  0  0  0  0  0  0
  -47.6836   56.2230   57.0541 C   0  0  0  0  0  0  0  0  0  0  0  0
  -47.2555   57.6183   56.5841 C   0  0  0  0  0  0  0  0  0  0  0  0
 46 47  1  0  0  0
 46 48  1  0  0  0
 46 45  1  0  0  0
 47 49  2  0  0  0
 47 51  1  0  0  0
 19 20  2  0  0  0
 37 38  1  0  0  0
 37 39  1  0  0  0
 37 40  1  0  0  0
 37 41  1  0  0  0
 48 50  1  0  0  0
 38 29  1  0  0  0
 45 44  1  0  0  0
 25 27  1  0  0  0
 25 35  1  0  0  0
 25 28  1  0  0  0
 21 20  1  0  0  0
 21 22  1  0  0  0
 44 42  1  0  0  0
  2  1  1  0  0  0
  2  4  1  0  0  0
  2  5  1  0  0  0
 26 27  2  0  0  0
 42 43  2  0  0  0
 29 31  1  0  0  0
 29 36  1  0  0  0
  3  4  2  0  0  0
 43  1  1  0  0  0
  6  9  2  0  0  0
  6 10  1  0  0  0
  1 20  1  0  0  0
 30 36  2  0  0  0
  7  8  1  0  0  0
  7  9  1  0  0  0
 22 24  1  0  0  0
 22 23  1  0  0  0
 11 12  1  0  0  0
 11 18  1  0  0  0
 24 27  1  0  0  0
  4 10  1  0  0  0
 51 52  1  0  0  0
 52 53  1  0  0  0
 53 54  1  0  0  0
 54 55  1  0  0  0
 55 56  1  0  0  0
 56 57  1  0  0  0
 57 58  1  0  0  0
 58 59  1  0  0  0
 59 60  1  0  0  0
 60 61  1  0  0  0
 61 62  1  0  0  0
 62 63  1  0  0  0
 63 64  1  0  0  0
 64 65  1  0  0  0
 31 32  1  0  0  0
 32 33  1  0  0  0
 33 34  1  0  0  0
 34 35  1  0  0  0
 35 36  1  0  0  0
  8 10  1  0  0  0
  9 17  1  0  0  0
 12 13  2  0  0  0
 12 17  1  0  0  0
 13 14  1  0  0  0
 14 15  2  0  0  0
 15 16  1  0  0  0
 16 17  2  0  0  0
M  END
> <minimizedAffinity>
-9.38545

> <CNNscore>
0.2063774318

> <CNNaffinity>
7.4014868736

> <CNN_VS>
1.5274997950

> <CNNaffinity_variance>
0.8475946188

$$$$
/media/chris/experiments/cd1a-new-docking/inputs/ligands/1xz0_ligand.pdb


 65 67  0  0  0  0  0  0  0  0999 V2000
  -41.9967   57.6670   65.5641 C   0  0  0  0  0  0  0  0  0  0  0  0
  -41.5218   58.9924   65.9664 N   0  0  0  0  0  0  0  0  0  0  0  0
  -41.0382   61.1959   65.6767 O   0  0  0  0  0  0  0  0  0  0  0  0
  -41.4667   60.1305   65.2530 C   0  0  0  0  0  0  0  0  0  0  0  0
  -41.1960   59.0599   66.8930 H   0  0  0  0  0  0  0  0  0  0  0  0
  -41.2855   59.3246   62.9083 N   0  0  0  0  0  0  0  0  0  0  0  0
  -41.5628   61.2644   61.8348 O   0  0  0  0  0  0  0  0  0  0  0  0
  -42.2295   61.4624   63.0809 C   0  0  0  0  0  0  0  0  0  0  0  0
  -41.0077   59.9340   61.8364 C   0  0  0  0  0  0  0  0  0  0  0  0
  -42.0787   60.1261   63.8595 C   0  0  0  0  0  0  0  0  0  0  0  0
  -38.3464   60.7462   61.0273 O   0  0  0  0  0  0  0  0  0  0  0  0
  -38.9580   59.7699   60.3458 C   0  0  0  0  0  0  0  0  0  0  0  0
  -38.2977   59.1546   59.2743 C   0  0  0  0  0  0  0  0  0  0  0  0
  -38.9219   58.1340   58.5371 C   0  0  0  0  0  0  0  0  0  0  0  0
  -40.2097   57.7104   58.8696 C   0  0  0  0  0  0  0  0  0  0  0  0
  -40.8702   58.3168   59.9418 C   0  0  0  0  0  0  0  0  0  0  0  0
  -40.2507   59.3457   60.6768 C   0  0  0  0  0  0  0  0  0  0  0  0
  -37.4809   61.0135   60.7878 H   0  0  0  0  0  0  0  0  0  0  0  0
  -41.2853   56.4829   63.6078 O   0  0  0  0  0  0  0  0  0  0  0  0
  -40.9636   57.1177   64.5987 C   0  0  0  0  0  0  0  0  0  0  0  0
  -39.5351   57.2873   64.8844 O   0  0  0  0  0  0  0  0  0  0  0  0
  -38.7094   58.1560   64.0859 C   0  0  0  0  0  0  0  0  0  0  0  0
  -37.8608   57.4393   63.0429 C   0  0  0  0  0  0  0  0  0  0  0  0
  -37.8438   58.9873   65.0208 C   0  0  0  0  0  0  0  0  0  0  0  0
  -36.7581   61.1790   65.1392 N   0  0  0  0  0  0  0  0  0  0  0  0
  -38.4836   60.8017   63.7266 O   0  0  0  0  0  0  0  0  0  0  0  0
  -37.7313   60.4314   64.5985 C   0  0  0  0  0  0  0  0  0  0  0  0
  -36.2058   60.7707   65.8446 H   0  0  0  0  0  0  0  0  0  0  0  0
  -34.4585   62.3257   63.3360 N   0  0  0  0  0  0  0  0  0  0  0  0
  -36.3246   63.2710   62.5058 O   0  0  0  0  0  0  0  0  0  0  0  0
  -33.7593   61.4510   64.2889 C   0  0  0  0  0  0  0  0  0  0  0  0
  -33.5314   62.1765   65.6285 C   0  0  0  0  0  0  0  0  0  0  0  0
  -34.2133   63.5285   65.7584 C   0  0  0  0  0  0  0  0  0  0  0  0
  -35.7401   63.4269   65.8035 C   0  0  0  0  0  0  0  0  0  0  0  0
  -36.4583   62.5627   64.7536 C   0  0  0  0  0  0  0  0  0  0  0  0
  -35.7347   62.7318   63.4320 C   0  0  0  0  0  0  0  0  0  0  0  0
  -34.5950   63.3428   60.7923 Si  0  0  0  0  0  0  0  0  0  0  0  0
  -33.7505   62.7545   62.2540 O   0  0  0  0  0  0  0  0  0  0  0  0
  -33.6387   63.7281   59.8159 H   0  0  0  0  0  0  0  0  0  0  0  0
  -35.4031   64.4605   61.1301 H   0  0  0  0  0  0  0  0  0  0  0  0
  -35.4141   62.3073   60.2697 H   0  0  0  0  0  0  0  0  0  0  0  0
  -44.4923   58.4713   65.7030 C   0  0  0  0  0  0  0  0  0  0  0  0
  -43.4508   57.5583   65.0444 C   0  0  0  0  0  0  0  0  0  0  0  0
  -45.9696   58.0831   65.5228 C   0  0  0  0  0  0  0  0  0  0  0  0
  -46.9395   58.4201   66.6740 C   0  0  0  0  0  0  0  0  0  0  0  0
  -48.3003   58.4663   66.1302 N   0  0  0  0  0  0  0  0  0  0  0  0
  -49.2255   59.4579   66.2218 C   0  0  0  0  0  0  0  0  0  0  0  0
  -48.6689   57.3139   65.4218 O   0  0  0  0  0  0  0  0  0  0  0  0
  -48.9777   60.5075   66.8149 O   0  0  0  0  0  0  0  0  0  0  0  0
  -49.5758   57.4132   65.0923 H   0  0  0  0  0  0  0  0  0  0  0  0
  -50.6001   59.2517   65.5769 C   0  0  0  0  0  0  0  0  0  0  0  0
  -51.1680   60.4955   64.8796 C   0  0  0  0  0  0  0  0  0  0  0  0
  -51.0207   60.3585   63.3520 C   0  0  0  0  0  0  0  0  0  0  0  0
  -49.5561   60.3265   62.8757 C   0  0  0  0  0  0  0  0  0  0  0  0
  -49.1514   59.0396   62.1325 C   0  0  0  0  0  0  0  0  0  0  0  0
  -50.0034   57.8189   62.5385 C   0  0  0  0  0  0  0  0  0  0  0  0
  -50.9102   57.2666   61.4141 C   0  0  0  0  0  0  0  0  0  0  0  0
  -50.9597   58.1657   60.1735 C   0  0  0  0  0  0  0  0  0  0  0  0
  -49.9970   57.7805   59.0458 C   0  0  0  0  0  0  0  0  0  0  0  0
  -49.1880   56.5206   59.4045 C   0  0  0  0  0  0  0  0  0  0  0  0
  -47.6690   56.7467   59.4450 C   0  0  0  0  0  0  0  0  0  0  0  0
  -46.8731   56.1284   58.2911 C   0  0  0  0  0  0  0  0  0  0  0  0
  -47.6114   56.1434   56.9293 C   0  0  0  0  0  0  0  0  0  0  0  0
  -47.2821   57.4154   56.1219 C   0  0  0  0  0  0  0  0  0  0  0  0
  -47.2018   58.7355   56.8977 C   0  0  0  0  0  0  0  0  0  0  0  0
 46 47  1  0  0  0
 46 48  1  0  0  0
 46 45  1  0  0  0
 47 49  2  0  0  0
 47 51  1  0  0  0
 19 20  2  0  0  0
 37 38  1  0  0  0
 37 39  1  0  0  0
 37 40  1  0  0  0
 37 41  1  0  0  0
 48 50  1  0  0  0
 38 29  1  0  0  0
 45 44  1  0  0  0
 25 27  1  0  0  0
 25 35  1  0  0  0
 25 28  1  0  0  0
 21 20  1  0  0  0
 21 22  1  0  0  0
 44 42  1  0  0  0
  2  1  1  0  0  0
  2  4  1  0  0  0
  2  5  1  0  0  0
 26 27  2  0  0  0
 42 43  2  0  0  0
 29 31  1  0  0  0
 29 36  1  0  0  0
  3  4  2  0  0  0
 43  1  1  0  0  0
  6  9  2  0  0  0
  6 10  1  0  0  0
  1 20  1  0  0  0
 30 36  2  0  0  0
  7  8  1  0  0  0
  7  9  1  0  0  0
 22 24  1  0  0  0
 22 23  1  0  0  0
 11 12  1  0  0  0
 11 18  1  0  0  0
 24 27  1  0  0  0
  4 10  1  0  0  0
 51 52  1  0  0  0
 52 53  1  0  0  0
 53 54  1  0  0  0
 54 55  1  0  0  0
 55 56  1  0  0  0
 56 57  1  0  0  0
 57 58  1  0  0  0
 58 59  1  0  0  0
 59 60  1  0  0  0
 60 61  1  0  0  0
 61 62  1  0  0  0
 62 63  1  0  0  0
 63 64  1  0  0  0
 64 65  1  0  0  0
 31 32  1  0  0  0
 32 33  1  0  0  0
 33 34  1  0  0  0
 34 35  1  0  0  0
 35 36  1  0  0  0
  8 10  1  0  0  0
  9 17  1  0  0  0
 12 13  2  0  0  0
 12 17  1  0  0  0
 13 14  1  0  0  0
 14 15  2  0  0  0
 15 16  1  0  0  0
 16 17  2  0  0  0
M  END
> <minimizedAffinity>
-10.30305

> <CNNscore>
0.1976884604

> <CNNaffinity>
7.5183935165

> <CNN_VS>
1.4862996340

> <CNNaffinity_variance>
1.2649902105

$$$$
/media/chris/experiments/cd1a-new-docking/inputs/ligands/1xz0_ligand.pdb


 65 67  0  0  0  0  0  0  0  0999 V2000
  -41.1453   57.8014   62.3576 C   0  0  0  0  0  0  0  0  0  0  0  0
  -41.1584   57.4271   60.9421 N   0  0  0  0  0  0  0  0  0  0  0  0
  -41.0310   57.7935   58.7010 O   0  0  0  0  0  0  0  0  0  0  0  0
  -40.9908   58.1998   59.8548 C   0  0  0  0  0  0  0  0  0  0  0  0
  -41.3119   56.4717   60.7603 H   0  0  0  0  0  0  0  0  0  0  0  0
  -39.4886   59.8090   61.0098 N   0  0  0  0  0  0  0  0  0  0  0  0
  -41.0210   61.2165   61.8239 O   0  0  0  0  0  0  0  0  0  0  0  0
  -41.6565   60.6373   60.6850 C   0  0  0  0  0  0  0  0  0  0  0  0
  -39.7086   60.6323   61.9433 C   0  0  0  0  0  0  0  0  0  0  0  0
  -40.6168   59.6591   60.0710 C   0  0  0  0  0  0  0  0  0  0  0  0
  -40.1257   60.2324   64.7829 O   0  0  0  0  0  0  0  0  0  0  0  0
  -38.9748   60.7772   64.3704 C   0  0  0  0  0  0  0  0  0  0  0  0
  -37.9967   61.1251   65.3111 C   0  0  0  0  0  0  0  0  0  0  0  0
  -36.7842   61.7072   64.9044 C   0  0  0  0  0  0  0  0  0  0  0  0
  -36.5320   61.9389   63.5512 C   0  0  0  0  0  0  0  0  0  0  0  0
  -37.5020   61.5877   62.6081 C   0  0  0  0  0  0  0  0  0  0  0  0
  -38.7216   61.0123   63.0134 C   0  0  0  0  0  0  0  0  0  0  0  0
  -40.2731   60.0842   65.6963 H   0  0  0  0  0  0  0  0  0  0  0  0
  -39.9510   55.7547   62.7045 O   0  0  0  0  0  0  0  0  0  0  0  0
  -40.1028   56.9228   63.0225 C   0  0  0  0  0  0  0  0  0  0  0  0
  -39.2939   57.4559   64.1237 O   0  0  0  0  0  0  0  0  0  0  0  0
  -37.8985   57.7650   63.9470 C   0  0  0  0  0  0  0  0  0  0  0  0
  -37.2981   57.2553   62.6426 C   0  0  0  0  0  0  0  0  0  0  0  0
  -37.1334   57.2318   65.1488 C   0  0  0  0  0  0  0  0  0  0  0  0
  -35.2687   58.8160   65.0514 N   0  0  0  0  0  0  0  0  0  0  0  0
  -34.9063   56.5870   65.1755 O   0  0  0  0  0  0  0  0  0  0  0  0
  -35.6560   57.5328   65.0932 C   0  0  0  0  0  0  0  0  0  0  0  0
  -35.9700   59.5036   64.9837 H   0  0  0  0  0  0  0  0  0  0  0  0
  -33.5307   60.2568   62.8701 N   0  0  0  0  0  0  0  0  0  0  0  0
  -33.2327   61.5072   64.7176 O   0  0  0  0  0  0  0  0  0  0  0  0
  -34.1162   59.1116   62.1576 C   0  0  0  0  0  0  0  0  0  0  0  0
  -33.3120   57.8277   62.4359 C   0  0  0  0  0  0  0  0  0  0  0  0
  -32.2316   57.9559   63.4971 C   0  0  0  0  0  0  0  0  0  0  0  0
  -32.7961   58.1880   64.9011 C   0  0  0  0  0  0  0  0  0  0  0  0
  -33.8734   59.2675   65.0992 C   0  0  0  0  0  0  0  0  0  0  0  0
  -33.5337   60.4402   64.2002 C   0  0  0  0  0  0  0  0  0  0  0  0
  -32.2040   62.6576   62.8826 Si  0  0  0  0  0  0  0  0  0  0  0  0
  -32.9409   61.2227   62.1118 O   0  0  0  0  0  0  0  0  0  0  0  0
  -31.6613   63.5063   61.8819 H   0  0  0  0  0  0  0  0  0  0  0  0
  -31.1700   62.2431   63.7633 H   0  0  0  0  0  0  0  0  0  0  0  0
  -33.1951   63.3630   63.6149 H   0  0  0  0  0  0  0  0  0  0  0  0
  -42.5291   57.2280   64.5141 C   0  0  0  0  0  0  0  0  0  0  0  0
  -42.5027   57.8243   63.1014 C   0  0  0  0  0  0  0  0  0  0  0  0
  -43.9071   56.8479   65.0820 C   0  0  0  0  0  0  0  0  0  0  0  0
  -44.4629   57.7075   66.2360 C   0  0  0  0  0  0  0  0  0  0  0  0
  -45.6023   58.4779   65.7281 N   0  0  0  0  0  0  0  0  0  0  0  0
  -46.6541   59.0018   66.4113 C   0  0  0  0  0  0  0  0  0  0  0  0
  -45.5742   58.6875   64.3421 O   0  0  0  0  0  0  0  0  0  0  0  0
  -46.7480   58.8743   67.6319 O   0  0  0  0  0  0  0  0  0  0  0  0
  -46.3534   59.2010   64.0770 H   0  0  0  0  0  0  0  0  0  0  0  0
  -47.7394   59.7572   65.6370 C   0  0  0  0  0  0  0  0  0  0  0  0
  -48.9833   60.1079   66.4648 C   0  0  0  0  0  0  0  0  0  0  0  0
  -50.2228   59.4030   65.8809 C   0  0  0  0  0  0  0  0  0  0  0  0
  -49.8804   58.1889   64.9968 C   0  0  0  0  0  0  0  0  0  0  0  0
  -50.4918   58.2318   63.5838 C   0  0  0  0  0  0  0  0  0  0  0  0
  -51.1724   59.5794   63.2650 C   0  0  0  0  0  0  0  0  0  0  0  0
  -50.5786   60.3262   62.0479 C   0  0  0  0  0  0  0  0  0  0  0  0
  -49.2820   59.7003   61.5215 C   0  0  0  0  0  0  0  0  0  0  0  0
  -49.2922   59.3220   60.0370 C   0  0  0  0  0  0  0  0  0  0  0  0
  -50.1563   58.0734   59.7820 C   0  0  0  0  0  0  0  0  0  0  0  0
  -49.3822   56.7500   59.8798 C   0  0  0  0  0  0  0  0  0  0  0  0
  -47.8758   56.8391   59.6149 C   0  0  0  0  0  0  0  0  0  0  0  0
  -47.4341   56.2532   58.2505 C   0  0  0  0  0  0  0  0  0  0  0  0
  -47.9570   57.1030   57.0747 C   0  0  0  0  0  0  0  0  0  0  0  0
  -47.1492   58.3513   56.6998 C   0  0  0  0  0  0  0  0  0  0  0  0
 46 47  1  0  0  0
 46 48  1  0  0  0
 46 45  1  0  0  0
 47 49  2  0  0  0
 47 51  1  0  0  0
 19 20  2  0  0  0
 37 38  1  0  0  0
 37 39  1  0  0  0
 37 40  1  0  0  0
 37 41  1  0  0  0
 48 50  1  0  0  0
 38 29  1  0  0  0
 45 44  1  0  0  0
 25 27  1  0  0  0
 25 35  1  0  0  0
 25 28  1  0  0  0
 21 20  1  0  0  0
 21 22  1  0  0  0
 44 42  1  0  0  0
  2  1  1  0  0  0
  2  4  1  0  0  0
  2  5  1  0  0  0
 26 27  2  0  0  0
 42 43  2  0  0  0
 29 31  1  0  0  0
 29 36  1  0  0  0
  3  4  2  0  0  0
 43  1  1  0  0  0
  6  9  2  0  0  0
  6 10  1  0  0  0
  1 20  1  0  0  0
 30 36  2  0  0  0
  7  8  1  0  0  0
  7  9  1  0  0  0
 22 24  1  0  0  0
 22 23  1  0  0  0
 11 12  1  0  0  0
 11 18  1  0  0  0
 24 27  1  0  0  0
  4 10  1  0  0  0
 51 52  1  0  0  0
 52 53  1  0  0  0
 53 54  1  0  0  0
 54 55  1  0  0  0
 55 56  1  0  0  0
 56 57  1  0  0  0
 57 58  1  0  0  0
 58 59  1  0  0  0
 59 60  1  0  0  0
 60 61  1  0  0  0
 61 62  1  0  0  0
 62 63  1  0  0  0
 63 64  1  0  0  0
 64 65  1  0  0  0
 31 32  1  0  0  0
 32 33  1  0  0  0
 33 34  1  0  0  0
 34 35  1  0  0  0
 35 36  1  0  0  0
  8 10  1  0  0  0
  9 17  1  0  0  0
 12 13  2  0  0  0
 12 17  1  0  0  0
 13 14  1  0  0  0
 14 15  2  0  0  0
 15 16  1  0  0  0
 16 17  2  0  0  0
M  END
> <minimizedAffinity>
-8.92879

> <CNNscore>
0.1669962555

> <CNNaffinity>
7.4115691185

> <CNN_VS>
1.2377042770

> <CNNaffinity_variance>
0.9030985832

$$$$
/media/chris/experiments/cd1a-new-docking/inputs/ligands/1xz0_ligand.pdb


 65 67  0  0  0  0  0  0  0  0999 V2000
  -37.9250   57.9390   62.2371 C   0  0  0  0  0  0  0  0  0  0  0  0
  -37.4623   57.4158   63.5240 N   0  0  0  0  0  0  0  0  0  0  0  0
  -36.8096   57.5447   65.6990 O   0  0  0  0  0  0  0  0  0  0  0  0
  -37.2082   58.0727   64.6691 C   0  0  0  0  0  0  0  0  0  0  0  0
  -37.3163   56.4427   63.5552 H   0  0  0  0  0  0  0  0  0  0  0  0
  -36.3359   60.3897   64.8939 N   0  0  0  0  0  0  0  0  0  0  0  0
  -37.7007   61.1377   66.4970 O   0  0  0  0  0  0  0  0  0  0  0  0
  -38.4479   60.0982   65.8666 C   0  0  0  0  0  0  0  0  0  0  0  0
  -36.4209   61.2244   65.8392 C   0  0  0  0  0  0  0  0  0  0  0  0
  -37.5418   59.5564   64.7263 C   0  0  0  0  0  0  0  0  0  0  0  0
  -36.9327   64.0115   66.4453 O   0  0  0  0  0  0  0  0  0  0  0  0
  -35.6746   63.5586   66.5062 C   0  0  0  0  0  0  0  0  0  0  0  0
  -34.6416   64.4303   66.8748 C   0  0  0  0  0  0  0  0  0  0  0  0
  -33.3115   63.9816   66.9369 C   0  0  0  0  0  0  0  0  0  0  0  0
  -33.0006   62.6534   66.6409 C   0  0  0  0  0  0  0  0  0  0  0  0
  -34.0285   61.7781   66.2789 C   0  0  0  0  0  0  0  0  0  0  0  0
  -35.3611   62.2270   66.2072 C   0  0  0  0  0  0  0  0  0  0  0  0
  -37.1188   64.9067   66.6499 H   0  0  0  0  0  0  0  0  0  0  0  0
  -36.6435   58.8507   60.4309 O   0  0  0  0  0  0  0  0  0  0  0  0
  -36.7534   58.6917   61.6356 C   0  0  0  0  0  0  0  0  0  0  0  0
  -35.6821   59.1894   62.5048 O   0  0  0  0  0  0  0  0  0  0  0  0
  -34.3258   58.7268   62.3622 C   0  0  0  0  0  0  0  0  0  0  0  0
  -34.1353   57.2371   62.6193 C   0  0  0  0  0  0  0  0  0  0  0  0
  -33.4370   59.5593   63.2739 C   0  0  0  0  0  0  0  0  0  0  0  0
  -32.9052   61.9283   62.9555 N   0  0  0  0  0  0  0  0  0  0  0  0
  -31.9300   60.3287   61.6885 O   0  0  0  0  0  0  0  0  0  0  0  0
  -32.7121   60.6655   62.5476 C   0  0  0  0  0  0  0  0  0  0  0  0
  -33.5704   62.0835   63.6645 H   0  0  0  0  0  0  0  0  0  0  0  0
  -33.2592   64.9821   63.5908 N   0  0  0  0  0  0  0  0  0  0  0  0
  -31.0434   64.6385   63.7850 O   0  0  0  0  0  0  0  0  0  0  0  0
  -34.6265   64.5160   63.3168 C   0  0  0  0  0  0  0  0  0  0  0  0
  -34.8875   64.4544   61.7999 C   0  0  0  0  0  0  0  0  0  0  0  0
  -33.6707   64.6955   60.9219 C   0  0  0  0  0  0  0  0  0  0  0  0
  -32.6271   63.5803   61.0257 C   0  0  0  0  0  0  0  0  0  0  0  0
  -32.1950   63.0952   62.4196 C   0  0  0  0  0  0  0  0  0  0  0  0
  -32.1305   64.3005   63.3370 C   0  0  0  0  0  0  0  0  0  0  0  0
  -31.7763   66.5500   65.2840 Si  0  0  0  0  0  0  0  0  0  0  0  0
  -33.1264   66.2117   64.1621 O   0  0  0  0  0  0  0  0  0  0  0  0
  -31.8629   67.8927   65.7378 H   0  0  0  0  0  0  0  0  0  0  0  0
  -30.5413   66.3569   64.6101 H   0  0  0  0  0  0  0  0  0  0  0  0
  -31.8520   65.6690   66.3951 H   0  0  0  0  0  0  0  0  0  0  0  0
  -40.4674   58.0761   62.8784 C   0  0  0  0  0  0  0  0  0  0  0  0
  -39.2484   58.7420   62.2283 C   0  0  0  0  0  0  0  0  0  0  0  0
  -41.8487   58.6399   62.5046 C   0  0  0  0  0  0  0  0  0  0  0  0
  -43.0895   57.8555   62.9789 C   0  0  0  0  0  0  0  0  0  0  0  0
  -43.6974   58.5873   64.0945 N   0  0  0  0  0  0  0  0  0  0  0  0
  -44.3147   58.0996   65.2030 C   0  0  0  0  0  0  0  0  0  0  0  0
  -43.6138   59.9815   63.9727 O   0  0  0  0  0  0  0  0  0  0  0  0
  -44.4191   56.8880   65.3929 O   0  0  0  0  0  0  0  0  0  0  0  0
  -44.0335   60.3989   64.7412 H   0  0  0  0  0  0  0  0  0  0  0  0
  -44.8928   59.0850   66.2242 C   0  0  0  0  0  0  0  0  0  0  0  0
  -46.3465   58.8029   66.6272 C   0  0  0  0  0  0  0  0  0  0  0  0
  -47.2849   59.8402   65.9811 C   0  0  0  0  0  0  0  0  0  0  0  0
  -48.6956   59.8629   66.5994 C   0  0  0  0  0  0  0  0  0  0  0  0
  -49.8264   60.1877   65.6055 C   0  0  0  0  0  0  0  0  0  0  0  0
  -49.7417   59.3573   64.3077 C   0  0  0  0  0  0  0  0  0  0  0  0
  -51.1112   58.9583   63.7105 C   0  0  0  0  0  0  0  0  0  0  0  0
  -51.1327   58.9620   62.1777 C   0  0  0  0  0  0  0  0  0  0  0  0
  -50.3393   60.0918   61.5137 C   0  0  0  0  0  0  0  0  0  0  0  0
  -49.3783   59.5474   60.4410 C   0  0  0  0  0  0  0  0  0  0  0  0
  -49.3571   58.0143   60.3444 C   0  0  0  0  0  0  0  0  0  0  0  0
  -48.0194   57.3919   59.9317 C   0  0  0  0  0  0  0  0  0  0  0  0
  -48.0583   56.6404   58.5776 C   0  0  0  0  0  0  0  0  0  0  0  0
  -48.2639   57.6120   57.3978 C   0  0  0  0  0  0  0  0  0  0  0  0
  -47.0129   58.0549   56.6297 C   0  0  0  0  0  0  0  0  0  0  0  0
 46 47  1  0  0  0
 46 48  1  0  0  0
 46 45  1  0  0  0
 47 49  2  0  0  0
 47 51  1  0  0  0
 19 20  2  0  0  0
 37 38  1  0  0  0
 37 39  1  0  0  0
 37 40  1  0  0  0
 37 41  1  0  0  0
 48 50  1  0  0  0
 38 29  1  0  0  0
 45 44  1  0  0  0
 25 27  1  0  0  0
 25 35  1  0  0  0
 25 28  1  0  0  0
 21 20  1  0  0  0
 21 22  1  0  0  0
 44 42  1  0  0  0
  2  1  1  0  0  0
  2  4  1  0  0  0
  2  5  1  0  0  0
 26 27  2  0  0  0
 42 43  2  0  0  0
 29 31  1  0  0  0
 29 36  1  0  0  0
  3  4  2  0  0  0
 43  1  1  0  0  0
  6  9  2  0  0  0
  6 10  1  0  0  0
  1 20  1  0  0  0
 30 36  2  0  0  0
  7  8  1  0  0  0
  7  9  1  0  0  0
 22 24  1  0  0  0
 22 23  1  0  0  0
 11 12  1  0  0  0
 11 18  1  0  0  0
 24 27  1  0  0  0
  4 10  1  0  0  0
 51 52  1  0  0  0
 52 53  1  0  0  0
 53 54  1  0  0  0
 54 55  1  0  0  0
 55 56  1  0  0  0
 56 57  1  0  0  0
 57 58  1  0  0  0
 58 59  1  0  0  0
 59 60  1  0  0  0
 60 61  1  0  0  0
 61 62  1  0  0  0
 62 63  1  0  0  0
 63 64  1  0  0  0
 64 65  1  0  0  0
 31 32  1  0  0  0
 32 33  1  0  0  0
 33 34  1  0  0  0
 34 35  1  0  0  0
 35 36  1  0  0  0
  8 10  1  0  0  0
  9 17  1  0  0  0
 12 13  2  0  0  0
 12 17  1  0  0  0
 13 14  1  0  0  0
 14 15  2  0  0  0
 15 16  1  0  0  0
 16 17  2  0  0  0
M  END
> <minimizedAffinity>
-9.49890

> <CNNscore>
0.1632921845

> <CNNaffinity>
6.7765007019

> <CNN_VS>
1.1065496206

> <CNNaffinity_variance>
0.7606656551

$$$$
/media/chris/experiments/cd1a-new-docking/inputs/ligands/1xz0_ligand.pdb


 65 67  0  0  0  0  0  0  0  0999 V2000
  -38.9381   58.1865   61.7662 C   0  0  0  0  0  0  0  0  0  0  0  0
  -39.6659   58.6654   60.5893 N   0  0  0  0  0  0  0  0  0  0  0  0
  -41.0759   60.0296   59.4387 O   0  0  0  0  0  0  0  0  0  0  0  0
  -40.5001   59.7130   60.4714 C   0  0  0  0  0  0  0  0  0  0  0  0
  -39.5238   58.1452   59.7656 H   0  0  0  0  0  0  0  0  0  0  0  0
  -39.3631   60.9330   62.3149 N   0  0  0  0  0  0  0  0  0  0  0  0
  -40.6462   60.2847   64.0253 O   0  0  0  0  0  0  0  0  0  0  0  0
  -41.5044   60.1747   62.8904 C   0  0  0  0  0  0  0  0  0  0  0  0
  -39.3586   60.7400   63.5640 C   0  0  0  0  0  0  0  0  0  0  0  0
  -40.6570   60.6351   61.6719 C   0  0  0  0  0  0  0  0  0  0  0  0
  -37.2835   62.6986   63.0589 O   0  0  0  0  0  0  0  0  0  0  0  0
  -37.2290   61.9768   64.1848 C   0  0  0  0  0  0  0  0  0  0  0  0
  -36.1872   62.1928   65.0963 C   0  0  0  0  0  0  0  0  0  0  0  0
  -36.1023   61.4416   66.2807 C   0  0  0  0  0  0  0  0  0  0  0  0
  -37.0640   60.4726   66.5718 C   0  0  0  0  0  0  0  0  0  0  0  0
  -38.1089   60.2578   65.6687 C   0  0  0  0  0  0  0  0  0  0  0  0
  -38.1917   61.0029   64.4768 C   0  0  0  0  0  0  0  0  0  0  0  0
  -36.6280   63.3451   62.8846 H   0  0  0  0  0  0  0  0  0  0  0  0
  -37.0798   58.7259   60.3551 O   0  0  0  0  0  0  0  0  0  0  0  0
  -37.4633   58.2807   61.4243 C   0  0  0  0  0  0  0  0  0  0  0  0
  -36.4620   57.7659   62.3643 O   0  0  0  0  0  0  0  0  0  0  0  0
  -35.1242   58.2980   62.3996 C   0  0  0  0  0  0  0  0  0  0  0  0
  -34.0459   57.2759   62.7376 C   0  0  0  0  0  0  0  0  0  0  0  0
  -35.0983   59.4659   63.3740 C   0  0  0  0  0  0  0  0  0  0  0  0
  -33.5831   61.2537   62.6638 N   0  0  0  0  0  0  0  0  0  0  0  0
  -32.9598   59.7422   64.2266 O   0  0  0  0  0  0  0  0  0  0  0  0
  -33.7625   60.1654   63.4267 C   0  0  0  0  0  0  0  0  0  0  0  0
  -34.3078   61.5042   62.0464 H   0  0  0  0  0  0  0  0  0  0  0  0
  -33.2419   64.2712   63.4594 N   0  0  0  0  0  0  0  0  0  0  0  0
  -31.6298   63.2155   64.6222 O   0  0  0  0  0  0  0  0  0  0  0  0
  -34.3704   64.2782   62.5169 C   0  0  0  0  0  0  0  0  0  0  0  0
  -33.8654   64.2537   61.0619 C   0  0  0  0  0  0  0  0  0  0  0  0
  -32.3690   64.0442   60.8979 C   0  0  0  0  0  0  0  0  0  0  0  0
  -31.9091   62.6492   61.3294 C   0  0  0  0  0  0  0  0  0  0  0  0
  -32.3826   62.0972   62.6844 C   0  0  0  0  0  0  0  0  0  0  0  0
  -32.4051   63.2437   63.6763 C   0  0  0  0  0  0  0  0  0  0  0  0
  -32.1898   65.3333   65.7592 Si  0  0  0  0  0  0  0  0  0  0  0  0
  -33.0328   65.4055   64.1843 O   0  0  0  0  0  0  0  0  0  0  0  0
  -32.1000   66.6397   66.3083 H   0  0  0  0  0  0  0  0  0  0  0  0
  -30.8840   64.8073   65.5734 H   0  0  0  0  0  0  0  0  0  0  0  0
  -32.9157   64.4957   66.6468 H   0  0  0  0  0  0  0  0  0  0  0  0
  -40.8244   56.4116   62.1967 C   0  0  0  0  0  0  0  0  0  0  0  0
  -39.3528   56.8147   62.3513 C   0  0  0  0  0  0  0  0  0  0  0  0
  -41.3407   55.2980   63.1236 C   0  0  0  0  0  0  0  0  0  0  0  0
  -41.3258   55.5716   64.6416 C   0  0  0  0  0  0  0  0  0  0  0  0
  -42.6313   56.1194   65.0230 N   0  0  0  0  0  0  0  0  0  0  0  0
  -42.9176   57.2882   65.6551 C   0  0  0  0  0  0  0  0  0  0  0  0
  -43.7151   55.3018   64.6729 O   0  0  0  0  0  0  0  0  0  0  0  0
  -42.0253   58.0691   65.9850 O   0  0  0  0  0  0  0  0  0  0  0  0
  -44.5422   55.7237   64.9537 H   0  0  0  0  0  0  0  0  0  0  0  0
  -44.3801   57.6262   65.9628 C   0  0  0  0  0  0  0  0  0  0  0  0
  -44.7402   59.1080   65.7894 C   0  0  0  0  0  0  0  0  0  0  0  0
  -45.1938   59.3757   64.3414 C   0  0  0  0  0  0  0  0  0  0  0  0
  -46.7210   59.5089   64.1900 C   0  0  0  0  0  0  0  0  0  0  0  0
  -47.5193   59.2377   65.4789 C   0  0  0  0  0  0  0  0  0  0  0  0
  -48.3469   57.9371   65.4099 C   0  0  0  0  0  0  0  0  0  0  0  0
  -49.8667   58.1528   65.2221 C   0  0  0  0  0  0  0  0  0  0  0  0
  -50.3340   59.5629   65.6004 C   0  0  0  0  0  0  0  0  0  0  0  0
  -51.1777   60.2800   64.5416 C   0  0  0  0  0  0  0  0  0  0  0  0
  -51.1024   59.5606   63.1824 C   0  0  0  0  0  0  0  0  0  0  0  0
  -50.4759   60.4070   62.0639 C   0  0  0  0  0  0  0  0  0  0  0  0
  -49.4252   59.6989   61.2025 C   0  0  0  0  0  0  0  0  0  0  0  0
  -49.0997   58.2539   61.6562 C   0  0  0  0  0  0  0  0  0  0  0  0
  -49.1722   57.2618   60.4777 C   0  0  0  0  0  0  0  0  0  0  0  0
  -48.0600   57.3427   59.4253 C   0  0  0  0  0  0  0  0  0  0  0  0
 46 47  1  0  0  0
 46 48  1  0  0  0
 46 45  1  0  0  0
 47 49  2  0  0  0
 47 51  1  0  0  0
 19 20  2  0  0  0
 37 38  1  0  0  0
 37 39  1  0  0  0
 37 40  1  0  0  0
 37 41  1  0  0  0
 48 50  1  0  0  0
 38 29  1  0  0  0
 45 44  1  0  0  0
 25 27  1  0  0  0
 25 35  1  0  0  0
 25 28  1  0  0  0
 21 20  1  0  0  0
 21 22  1  0  0  0
 44 42  1  0  0  0
  2  1  1  0  0  0
  2  4  1  0  0  0
  2  5  1  0  0  0
 26 27  2  0  0  0
 42 43  2  0  0  0
 29 31  1  0  0  0
 29 36  1  0  0  0
  3  4  2  0  0  0
 43  1  1  0  0  0
  6  9  2  0  0  0
  6 10  1  0  0  0
  1 20  1  0  0  0
 30 36  2  0  0  0
  7  8  1  0  0  0
  7  9  1  0  0  0
 22 24  1  0  0  0
 22 23  1  0  0  0
 11 12  1  0  0  0
 11 18  1  0  0  0
 24 27  1  0  0  0
  4 10  1  0  0  0
 51 52  1  0  0  0
 52 53  1  0  0  0
 53 54  1  0  0  0
 54 55  1  0  0  0
 55 56  1  0  0  0
 56 57  1  0  0  0
 57 58  1  0  0  0
 58 59  1  0  0  0
 59 60  1  0  0  0
 60 61  1  0  0  0
 61 62  1  0  0  0
 62 63  1  0  0  0
 63 64  1  0  0  0
 64 65  1  0  0  0
 31 32  1  0  0  0
 32 33  1  0  0  0
 33 34  1  0  0  0
 34 35  1  0  0  0
 35 36  1  0  0  0
  8 10  1  0  0  0
  9 17  1  0  0  0
 12 13  2  0  0  0
 12 17  1  0  0  0
 13 14  1  0  0  0
 14 15  2  0  0  0
 15 16  1  0  0  0
 16 17  2  0  0  0
M  END
> <minimizedAffinity>
-8.45249

> <CNNscore>
0.1384597719

> <CNNaffinity>
7.2520723343

> <CNN_VS>
1.0041202307

> <CNNaffinity_variance>
0.9468866587

$$$$
/media/chris/experiments/cd1a-new-docking/inputs/ligands/1xz0_ligand.pdb


 65 67  0  0  0  0  0  0  0  0999 V2000
  -37.0111   59.3892   62.9789 C   0  0  0  0  0  0  0  0  0  0  0  0
  -36.9844   60.6544   63.7155 N   0  0  0  0  0  0  0  0  0  0  0  0
  -37.5291   62.0834   65.3991 O   0  0  0  0  0  0  0  0  0  0  0  0
  -37.6034   60.9860   64.8619 C   0  0  0  0  0  0  0  0  0  0  0  0
  -36.4338   61.3646   63.3133 H   0  0  0  0  0  0  0  0  0  0  0  0
  -38.6385   58.7291   64.7402 N   0  0  0  0  0  0  0  0  0  0  0  0
  -40.6351   59.1968   65.6273 O   0  0  0  0  0  0  0  0  0  0  0  0
  -39.7720   60.1900   66.1798 C   0  0  0  0  0  0  0  0  0  0  0  0
  -39.8489   58.3655   64.7505 C   0  0  0  0  0  0  0  0  0  0  0  0
  -38.3600   59.8931   65.6029 C   0  0  0  0  0  0  0  0  0  0  0  0
  -42.1871   56.8566   65.5588 O   0  0  0  0  0  0  0  0  0  0  0  0
  -41.5507   56.5069   64.4344 C   0  0  0  0  0  0  0  0  0  0  0  0
  -42.0338   55.4375   63.6690 C   0  0  0  0  0  0  0  0  0  0  0  0
  -41.3782   55.0448   62.4898 C   0  0  0  0  0  0  0  0  0  0  0  0
  -40.2376   55.7236   62.0574 C   0  0  0  0  0  0  0  0  0  0  0  0
  -39.7554   56.7952   62.8142 C   0  0  0  0  0  0  0  0  0  0  0  0
  -40.4051   57.1854   64.0009 C   0  0  0  0  0  0  0  0  0  0  0  0
  -42.9521   56.3879   65.8293 H   0  0  0  0  0  0  0  0  0  0  0  0
  -35.0448   58.7585   61.7658 O   0  0  0  0  0  0  0  0  0  0  0  0
  -35.5685   58.9374   62.8531 C   0  0  0  0  0  0  0  0  0  0  0  0
  -34.7896   58.6387   64.0594 O   0  0  0  0  0  0  0  0  0  0  0  0
  -33.5113   59.2575   64.2981 C   0  0  0  0  0  0  0  0  0  0  0  0
  -32.3230   58.3078   64.2127 C   0  0  0  0  0  0  0  0  0  0  0  0
  -33.5610   59.9544   65.6495 C   0  0  0  0  0  0  0  0  0  0  0  0
  -33.7852   62.0402   64.3862 N   0  0  0  0  0  0  0  0  0  0  0  0
  -34.5008   61.8844   66.5260 O   0  0  0  0  0  0  0  0  0  0  0  0
  -33.9620   61.4059   65.5545 C   0  0  0  0  0  0  0  0  0  0  0  0
  -33.3317   61.5494   63.6631 H   0  0  0  0  0  0  0  0  0  0  0  0
  -33.7875   63.6609   61.6978 N   0  0  0  0  0  0  0  0  0  0  0  0
  -35.8691   63.9430   62.5058 O   0  0  0  0  0  0  0  0  0  0  0  0
  -32.4258   63.1125   61.7801 C   0  0  0  0  0  0  0  0  0  0  0  0
  -31.5431   63.9806   62.6967 C   0  0  0  0  0  0  0  0  0  0  0  0
  -32.2747   65.0776   63.4525 C   0  0  0  0  0  0  0  0  0  0  0  0
  -33.2440   64.5349   64.5058 C   0  0  0  0  0  0  0  0  0  0  0  0
  -34.2197   63.4142   64.1097 C   0  0  0  0  0  0  0  0  0  0  0  0
  -34.6890   63.6795   62.6926 C   0  0  0  0  0  0  0  0  0  0  0  0
  -35.7664   63.7845   59.8024 Si  0  0  0  0  0  0  0  0  0  0  0  0
  -34.1717   64.1887   60.5021 O   0  0  0  0  0  0  0  0  0  0  0  0
  -35.9235   64.4577   58.5620 H   0  0  0  0  0  0  0  0  0  0  0  0
  -36.7923   64.1926   60.6955 H   0  0  0  0  0  0  0  0  0  0  0  0
  -35.8503   62.3824   59.5940 H   0  0  0  0  0  0  0  0  0  0  0  0
  -39.0808   60.1837   61.5721 C   0  0  0  0  0  0  0  0  0  0  0  0
  -37.7892   59.3597   61.6410 C   0  0  0  0  0  0  0  0  0  0  0  0
  -40.0699   59.8322   60.4479 C   0  0  0  0  0  0  0  0  0  0  0  0
  -41.3783   60.6457   60.3712 C   0  0  0  0  0  0  0  0  0  0  0  0
  -42.0691   60.5280   61.6590 N   0  0  0  0  0  0  0  0  0  0  0  0
  -42.6258   59.4296   62.2346 C   0  0  0  0  0  0  0  0  0  0  0  0
  -42.1500   61.7320   62.3728 O   0  0  0  0  0  0  0  0  0  0  0  0
  -42.5870   58.3313   61.6805 O   0  0  0  0  0  0  0  0  0  0  0  0
  -42.6167   61.5810   63.2097 H   0  0  0  0  0  0  0  0  0  0  0  0
  -43.3167   59.5745   63.5947 C   0  0  0  0  0  0  0  0  0  0  0  0
  -44.6520   58.8271   63.7121 C   0  0  0  0  0  0  0  0  0  0  0  0
  -45.5896   59.5695   64.6836 C   0  0  0  0  0  0  0  0  0  0  0  0
  -47.0334   59.0325   64.6761 C   0  0  0  0  0  0  0  0  0  0  0  0
  -48.0637   59.9718   64.0217 C   0  0  0  0  0  0  0  0  0  0  0  0
  -48.5068   59.4951   62.6226 C   0  0  0  0  0  0  0  0  0  0  0  0
  -49.7575   60.2142   62.0658 C   0  0  0  0  0  0  0  0  0  0  0  0
  -51.0756   59.5367   62.4574 C   0  0  0  0  0  0  0  0  0  0  0  0
  -51.0588   58.0050   62.4305 C   0  0  0  0  0  0  0  0  0  0  0  0
  -51.1403   57.4683   60.9897 C   0  0  0  0  0  0  0  0  0  0  0  0
  -49.8787   56.7210   60.5314 C   0  0  0  0  0  0  0  0  0  0  0  0
  -49.0461   57.4203   59.4521 C   0  0  0  0  0  0  0  0  0  0  0  0
  -47.9894   56.5117   58.7755 C   0  0  0  0  0  0  0  0  0  0  0  0
  -47.1725   57.2842   57.7200 C   0  0  0  0  0  0  0  0  0  0  0  0
  -47.8758   57.6209   56.3997 C   0  0  0  0  0  0  0  0  0  0  0  0
 46 47  1  0  0  0
 46 48  1  0  0  0
 46 45  1  0  0  0
 47 49  2  0  0  0
 47 51  1  0  0  0
 19 20  2  0  0  0
 37 38  1  0  0  0
 37 39  1  0  0  0
 37 40  1  0  0  0
 37 41  1  0  0  0
 48 50  1  0  0  0
 38 29  1  0  0  0
 45 44  1  0  0  0
 25 27  1  0  0  0
 25 35  1  0  0  0
 25 28  1  0  0  0
 21 20  1  0  0  0
 21 22  1  0  0  0
 44 42  1  0  0  0
  2  1  1  0  0  0
  2  4  1  0  0  0
  2  5  1  0  0  0
 26 27  2  0  0  0
 42 43  2  0  0  0
 29 31  1  0  0  0
 29 36  1  0  0  0
  3  4  2  0  0  0
 43  1  1  0  0  0
  6  9  2  0  0  0
  6 10  1  0  0  0
  1 20  1  0  0  0
 30 36  2  0  0  0
  7  8  1  0  0  0
  7  9  1  0  0  0
 22 24  1  0  0  0
 22 23  1  0  0  0
 11 12  1  0  0  0
 11 18  1  0  0  0
 24 27  1  0  0  0
  4 10  1  0  0  0
 51 52  1  0  0  0
 52 53  1  0  0  0
 53 54  1  0  0  0
 54 55  1  0  0  0
 55 56  1  0  0  0
 56 57  1  0  0  0
 57 58  1  0  0  0
 58 59  1  0  0  0
 59 60  1  0  0  0
 60 61  1  0  0  0
 61 62  1  0  0  0
 62 63  1  0  0  0
 63 64  1  0  0  0
 64 65  1  0  0  0
 31 32  1  0  0  0
 32 33  1  0  0  0
 33 34  1  0  0  0
 34 35  1  0  0  0
 35 36  1  0  0  0
  8 10  1  0  0  0
  9 17  1  0  0  0
 12 13  2  0  0  0
 12 17  1  0  0  0
 13 14  1  0  0  0
 14 15  2  0  0  0
 15 16  1  0  0  0
 16 17  2  0  0  0
M  END
> <minimizedAffinity>
-9.46464

> <CNNscore>
0.1177224964

> <CNNaffinity>
7.3787679672

> <CNN_VS>
0.8686469793

> <CNNaffinity_variance>
0.6984604001

$$$$
