/media/chris/experiments/cd1a-new-docking/inputs/ligands/1xz0_ligand.pdb


 65 67  0  0  0  0  0  0  0  0999 V2000
  -36.5330   61.4899   63.6297 C   0  0  0  0  0  0  0  0  0  0  0  0
  -35.4088   61.0910   64.4789 N   0  0  0  0  0  0  0  0  0  0  0  0
  -33.7042   59.7506   65.1649 O   0  0  0  0  0  0  0  0  0  0  0  0
  -34.6196   60.0059   64.3936 C   0  0  0  0  0  0  0  0  0  0  0  0
  -35.2010   61.7060   65.2191 H   0  0  0  0  0  0  0  0  0  0  0  0
  -36.1473   59.2110   62.6007 N   0  0  0  0  0  0  0  0  0  0  0  0
  -35.9112   57.0061   62.8737 O   0  0  0  0  0  0  0  0  0  0  0  0
  -34.6924   57.5479   63.3809 C   0  0  0  0  0  0  0  0  0  0  0  0
  -36.7362   58.1046   62.4372 C   0  0  0  0  0  0  0  0  0  0  0  0
  -34.8026   59.0866   63.1946 C   0  0  0  0  0  0  0  0  0  0  0  0
  -37.6753   59.5493   60.1074 O   0  0  0  0  0  0  0  0  0  0  0  0
  -38.4842   58.6473   60.6765 C   0  0  0  0  0  0  0  0  0  0  0  0
  -39.7518   58.4103   60.1287 C   0  0  0  0  0  0  0  0  0  0  0  0
  -40.6230   57.4756   60.7131 C   0  0  0  0  0  0  0  0  0  0  0  0
  -40.2327   56.7599   61.8462 C   0  0  0  0  0  0  0  0  0  0  0  0
  -38.9667   56.9880   62.3927 C   0  0  0  0  0  0  0  0  0  0  0  0
  -38.0948   57.9304   61.8145 C   0  0  0  0  0  0  0  0  0  0  0  0
  -37.9574   60.0171   59.3462 H   0  0  0  0  0  0  0  0  0  0  0  0
  -36.3323   63.7910   64.2621 O   0  0  0  0  0  0  0  0  0  0  0  0
  -36.3587   62.9720   63.3582 C   0  0  0  0  0  0  0  0  0  0  0  0
  -36.2860   63.4571   61.9760 O   0  0  0  0  0  0  0  0  0  0  0  0
  -35.5518   64.6490   61.6379 C   0  0  0  0  0  0  0  0  0  0  0  0
  -36.2761   65.5879   60.6810 C   0  0  0  0  0  0  0  0  0  0  0  0
  -34.1974   64.2360   61.0816 C   0  0  0  0  0  0  0  0  0  0  0  0
  -33.1643   63.9825   63.2871 N   0  0  0  0  0  0  0  0  0  0  0  0
  -32.9916   62.3611   61.7197 O   0  0  0  0  0  0  0  0  0  0  0  0
  -33.3623   63.4585   62.0687 C   0  0  0  0  0  0  0  0  0  0  0  0
  -33.5120   64.8877   63.4580 H   0  0  0  0  0  0  0  0  0  0  0  0
  -32.8923   64.7717   66.3133 N   0  0  0  0  0  0  0  0  0  0  0  0
  -33.5464   62.6189   66.3684 O   0  0  0  0  0  0  0  0  0  0  0  0
  -32.5231   65.9987   65.5922 C   0  0  0  0  0  0  0  0  0  0  0  0
  -31.0561   65.9367   65.1264 C   0  0  0  0  0  0  0  0  0  0  0  0
  -30.3667   64.5977   65.3304 C   0  0  0  0  0  0  0  0  0  0  0  0
  -30.9408   63.4880   64.4457 C   0  0  0  0  0  0  0  0  0  0  0  0
  -32.4661   63.3020   64.3837 C   0  0  0  0  0  0  0  0  0  0  0  0
  -33.0260   63.5509   65.7706 C   0  0  0  0  0  0  0  0  0  0  0  0
  -33.3755   63.4285   68.6555 Si  0  0  0  0  0  0  0  0  0  0  0  0
  -33.1290   64.8859   67.6501 O   0  0  0  0  0  0  0  0  0  0  0  0
  -33.6021   63.8157   70.0029 H   0  0  0  0  0  0  0  0  0  0  0  0
  -32.2203   62.6056   68.5875 H   0  0  0  0  0  0  0  0  0  0  0  0
  -34.5000   62.7066   68.1750 H   0  0  0  0  0  0  0  0  0  0  0  0
  -38.0550   60.1884   65.3279 C   0  0  0  0  0  0  0  0  0  0  0  0
  -37.9560   61.1096   64.1058 C   0  0  0  0  0  0  0  0  0  0  0  0
  -39.3937   59.4627   65.5444 C   0  0  0  0  0  0  0  0  0  0  0  0
  -40.6862   60.2848   65.3624 C   0  0  0  0  0  0  0  0  0  0  0  0
  -41.4483   59.7037   64.2528 N   0  0  0  0  0  0  0  0  0  0  0  0
  -42.5116   58.8577   64.2950 C   0  0  0  0  0  0  0  0  0  0  0  0
  -40.9941   60.0938   62.9851 O   0  0  0  0  0  0  0  0  0  0  0  0
  -43.0473   58.4560   63.2622 O   0  0  0  0  0  0  0  0  0  0  0  0
  -41.5408   59.6743   62.3024 H   0  0  0  0  0  0  0  0  0  0  0  0
  -43.0480   58.4081   65.6581 C   0  0  0  0  0  0  0  0  0  0  0  0
  -44.5192   57.9709   65.6494 C   0  0  0  0  0  0  0  0  0  0  0  0
  -45.4380   59.2057   65.7213 C   0  0  0  0  0  0  0  0  0  0  0  0
  -46.1982   59.4839   64.4106 C   0  0  0  0  0  0  0  0  0  0  0  0
  -47.7224   59.6347   64.5728 C   0  0  0  0  0  0  0  0  0  0  0  0
  -48.4982   59.3147   63.2779 C   0  0  0  0  0  0  0  0  0  0  0  0
  -49.9916   59.7150   63.3091 C   0  0  0  0  0  0  0  0  0  0  0  0
  -50.9455   58.5257   63.1476 C   0  0  0  0  0  0  0  0  0  0  0  0
  -51.3663   58.2138   61.7080 C   0  0  0  0  0  0  0  0  0  0  0  0
  -50.6466   56.9629   61.1716 C   0  0  0  0  0  0  0  0  0  0  0  0
  -49.8285   57.2143   59.8959 C   0  0  0  0  0  0  0  0  0  0  0  0
  -48.3388   56.8660   59.9811 C   0  0  0  0  0  0  0  0  0  0  0  0
  -47.6162   56.8235   58.6115 C   0  0  0  0  0  0  0  0  0  0  0  0
  -47.9105   58.0870   57.7778 C   0  0  0  0  0  0  0  0  0  0  0  0
  -47.0277   58.3359   56.5489 C   0  0  0  0  0  0  0  0  0  0  0  0
 46 47  1  0  0  0
 46 48  1  0  0  0
 46 45  1  0  0  0
 47 49  2  0  0  0
 47 51  1  0  0  0
 19 20  2  0  0  0
 37 38  1  0  0  0
 37 39  1  0  0  0
 37 40  1  0  0  0
 37 41  1  0  0  0
 48 50  1  0  0  0
 38 29  1  0  0  0
 45 44  1  0  0  0
 25 27  1  0  0  0
 25 35  1  0  0  0
 25 28  1  0  0  0
 21 20  1  0  0  0
 21 22  1  0  0  0
 44 42  1  0  0  0
  2  1  1  0  0  0
  2  4  1  0  0  0
  2  5  1  0  0  0
 26 27  2  0  0  0
 42 43  2  0  0  0
 29 31  1  0  0  0
 29 36  1  0  0  0
  3  4  2  0  0  0
 43  1  1  0  0  0
  6  9  2  0  0  0
  6 10  1  0  0  0
  1 20  1  0  0  0
 30 36  2  0  0  0
  7  8  1  0  0  0
  7  9  1  0  0  0
 22 24  1  0  0  0
 22 23  1  0  0  0
 11 12  1  0  0  0
 11 18  1  0  0  0
 24 27  1  0  0  0
  4 10  1  0  0  0
 51 52  1  0  0  0
 52 53  1  0  0  0
 53 54  1  0  0  0
 54 55  1  0  0  0
 55 56  1  0  0  0
 56 57  1  0  0  0
 57 58  1  0  0  0
 58 59  1  0  0  0
 59 60  1  0  0  0
 60 61  1  0  0  0
 61 62  1  0  0  0
 62 63  1  0  0  0
 63 64  1  0  0  0
 64 65  1  0  0  0
 31 32  1  0  0  0
 32 33  1  0  0  0
 33 34  1  0  0  0
 34 35  1  0  0  0
 35 36  1  0  0  0
  8 10  1  0  0  0
  9 17  1  0  0  0
 12 13  2  0  0  0
 12 17  1  0  0  0
 13 14  1  0  0  0
 14 15  2  0  0  0
 15 16  1  0  0  0
 16 17  2  0  0  0
M  END
> <minimizedAffinity>
-9.81556

> <CNNscore>
0.3768022358

> <CNNaffinity>
7.2960586548

> <CNN_VS>
2.7491712570

> <CNNaffinity_variance>
0.5247985125

$$$$
/media/chris/experiments/cd1a-new-docking/inputs/ligands/1xz0_ligand.pdb


 65 67  0  0  0  0  0  0  0  0999 V2000
  -40.5281   58.8877   65.1475 C   0  0  0  0  0  0  0  0  0  0  0  0
  -41.1431   58.0073   64.1521 N   0  0  0  0  0  0  0  0  0  0  0  0
  -42.7070   56.5664   63.3451 O   0  0  0  0  0  0  0  0  0  0  0  0
  -42.2768   57.2894   64.2342 C   0  0  0  0  0  0  0  0  0  0  0  0
  -40.6562   57.9299   63.2999 H   0  0  0  0  0  0  0  0  0  0  0  0
  -44.5328   57.8295   65.1280 N   0  0  0  0  0  0  0  0  0  0  0  0
  -43.9644   59.3730   66.6402 O   0  0  0  0  0  0  0  0  0  0  0  0
  -42.7895   58.5742   66.5056 C   0  0  0  0  0  0  0  0  0  0  0  0
  -44.9637   58.8447   65.7457 C   0  0  0  0  0  0  0  0  0  0  0  0
  -43.1440   57.4696   65.4718 C   0  0  0  0  0  0  0  0  0  0  0  0
  -46.8738   58.9975   67.9193 O   0  0  0  0  0  0  0  0  0  0  0  0
  -47.2256   59.4692   66.7171 C   0  0  0  0  0  0  0  0  0  0  0  0
  -48.4939   60.0375   66.5399 C   0  0  0  0  0  0  0  0  0  0  0  0
  -48.8905   60.5311   65.2855 C   0  0  0  0  0  0  0  0  0  0  0  0
  -48.0194   60.4712   64.1964 C   0  0  0  0  0  0  0  0  0  0  0  0
  -46.7507   59.9110   64.3696 C   0  0  0  0  0  0  0  0  0  0  0  0
  -46.3536   59.4076   65.6232 C   0  0  0  0  0  0  0  0  0  0  0  0
  -47.4741   59.0496   68.6369 H   0  0  0  0  0  0  0  0  0  0  0  0
  -41.0810   61.1815   65.5580 O   0  0  0  0  0  0  0  0  0  0  0  0
  -40.8722   60.3061   64.7343 C   0  0  0  0  0  0  0  0  0  0  0  0
  -41.0278   60.6348   63.3134 O   0  0  0  0  0  0  0  0  0  0  0  0
  -42.2365   61.2354   62.8113 C   0  0  0  0  0  0  0  0  0  0  0  0
  -43.5055   60.4454   63.1073 C   0  0  0  0  0  0  0  0  0  0  0  0
  -42.0711   61.4685   61.3172 C   0  0  0  0  0  0  0  0  0  0  0  0
  -41.1086   59.2169   61.3129 N   0  0  0  0  0  0  0  0  0  0  0  0
  -41.2090   60.4512   59.4202 O   0  0  0  0  0  0  0  0  0  0  0  0
  -41.3873   60.3245   60.6100 C   0  0  0  0  0  0  0  0  0  0  0  0
  -41.2964   59.2289   62.2792 H   0  0  0  0  0  0  0  0  0  0  0  0
  -38.2915   57.8979   61.7355 N   0  0  0  0  0  0  0  0  0  0  0  0
  -39.7399   56.2076   62.0680 O   0  0  0  0  0  0  0  0  0  0  0  0
  -37.9827   59.3002   61.4191 C   0  0  0  0  0  0  0  0  0  0  0  0
  -38.0199   59.5365   59.8974 C   0  0  0  0  0  0  0  0  0  0  0  0
  -38.5324   58.3682   59.0717 C   0  0  0  0  0  0  0  0  0  0  0  0
  -40.0185   58.0798   59.3006 C   0  0  0  0  0  0  0  0  0  0  0  0
  -40.5436   57.9884   60.7431 C   0  0  0  0  0  0  0  0  0  0  0  0
  -39.4856   57.3026   61.5852 C   0  0  0  0  0  0  0  0  0  0  0  0
  -37.1653   56.8134   63.9892 Si  0  0  0  0  0  0  0  0  0  0  0  0
  -37.2774   57.1375   62.2347 O   0  0  0  0  0  0  0  0  0  0  0  0
  -36.0284   56.0033   64.2492 H   0  0  0  0  0  0  0  0  0  0  0  0
  -38.3369   56.1376   64.4215 H   0  0  0  0  0  0  0  0  0  0  0  0
  -37.0415   58.0420   64.6905 H   0  0  0  0  0  0  0  0  0  0  0  0
  -38.1472   59.9342   65.5085 C   0  0  0  0  0  0  0  0  0  0  0  0
  -39.0252   58.6780   65.4529 C   0  0  0  0  0  0  0  0  0  0  0  0
  -36.6291   59.7274   65.3740 C   0  0  0  0  0  0  0  0  0  0  0  0
  -36.0112   59.8849   63.9694 C   0  0  0  0  0  0  0  0  0  0  0  0
  -34.8554   58.9880   63.8723 N   0  0  0  0  0  0  0  0  0  0  0  0
  -33.6128   59.2428   63.3837 C   0  0  0  0  0  0  0  0  0  0  0  0
  -35.0960   57.6956   64.3596 O   0  0  0  0  0  0  0  0  0  0  0  0
  -32.7419   58.3731   63.3726 O   0  0  0  0  0  0  0  0  0  0  0  0
  -34.2932   57.1595   64.2647 H   0  0  0  0  0  0  0  0  0  0  0  0
  -33.3001   60.6431   62.8455 C   0  0  0  0  0  0  0  0  0  0  0  0
  -31.8711   60.8148   62.3127 C   0  0  0  0  0  0  0  0  0  0  0  0
  -31.2172   62.0587   62.9446 C   0  0  0  0  0  0  0  0  0  0  0  0
  -31.9561   63.3719   62.6239 C   0  0  0  0  0  0  0  0  0  0  0  0
  -31.4444   64.6012   63.3979 C   0  0  0  0  0  0  0  0  0  0  0  0
  -32.5859   65.4754   63.9582 C   0  0  0  0  0  0  0  0  0  0  0  0
  -32.8457   65.2984   65.4723 C   0  0  0  0  0  0  0  0  0  0  0  0
  -32.0796   64.1225   66.0893 C   0  0  0  0  0  0  0  0  0  0  0  0
  -32.9434   63.0848   66.8131 C   0  0  0  0  0  0  0  0  0  0  0  0
  -34.0217   62.5038   65.8804 C   0  0  0  0  0  0  0  0  0  0  0  0
  -35.4480   62.9681   66.2124 C   0  0  0  0  0  0  0  0  0  0  0  0
  -36.2267   63.6046   65.0564 C   0  0  0  0  0  0  0  0  0  0  0  0
  -35.5733   63.4090   63.6655 C   0  0  0  0  0  0  0  0  0  0  0  0
  -36.0056   64.5117   62.6779 C   0  0  0  0  0  0  0  0  0  0  0  0
  -35.2862   64.5604   61.3246 C   0  0  0  0  0  0  0  0  0  0  0  0
 46 47  1  0  0  0
 46 48  1  0  0  0
 46 45  1  0  0  0
 47 49  2  0  0  0
 47 51  1  0  0  0
 19 20  2  0  0  0
 37 38  1  0  0  0
 37 39  1  0  0  0
 37 40  1  0  0  0
 37 41  1  0  0  0
 48 50  1  0  0  0
 38 29  1  0  0  0
 45 44  1  0  0  0
 25 27  1  0  0  0
 25 35  1  0  0  0
 25 28  1  0  0  0
 21 20  1  0  0  0
 21 22  1  0  0  0
 44 42  1  0  0  0
  2  1  1  0  0  0
  2  4  1  0  0  0
  2  5  1  0  0  0
 26 27  2  0  0  0
 42 43  2  0  0  0
 29 31  1  0  0  0
 29 36  1  0  0  0
  3  4  2  0  0  0
 43  1  1  0  0  0
  6  9  2  0  0  0
  6 10  1  0  0  0
  1 20  1  0  0  0
 30 36  2  0  0  0
  7  8  1  0  0  0
  7  9  1  0  0  0
 22 24  1  0  0  0
 22 23  1  0  0  0
 11 12  1  0  0  0
 11 18  1  0  0  0
 24 27  1  0  0  0
  4 10  1  0  0  0
 51 52  1  0  0  0
 52 53  1  0  0  0
 53 54  1  0  0  0
 54 55  1  0  0  0
 55 56  1  0  0  0
 56 57  1  0  0  0
 57 58  1  0  0  0
 58 59  1  0  0  0
 59 60  1  0  0  0
 60 61  1  0  0  0
 61 62  1  0  0  0
 62 63  1  0  0  0
 63 64  1  0  0  0
 64 65  1  0  0  0
 31 32  1  0  0  0
 32 33  1  0  0  0
 33 34  1  0  0  0
 34 35  1  0  0  0
 35 36  1  0  0  0
  8 10  1  0  0  0
  9 17  1  0  0  0
 12 13  2  0  0  0
 12 17  1  0  0  0
 13 14  1  0  0  0
 14 15  2  0  0  0
 15 16  1  0  0  0
 16 17  2  0  0  0
M  END
> <minimizedAffinity>
-8.92354

> <CNNscore>
0.2081655115

> <CNNaffinity>
7.6823945045

> <CNN_VS>
1.5992095470

> <CNNaffinity_variance>
1.7633473873

$$$$
/media/chris/experiments/cd1a-new-docking/inputs/ligands/1xz0_ligand.pdb


 65 67  0  0  0  0  0  0  0  0999 V2000
  -40.1585   59.4740   65.1094 C   0  0  0  0  0  0  0  0  0  0  0  0
  -39.1610   59.9849   66.0519 N   0  0  0  0  0  0  0  0  0  0  0  0
  -37.1235   60.7696   66.6890 O   0  0  0  0  0  0  0  0  0  0  0  0
  -37.8909   60.3635   65.8262 C   0  0  0  0  0  0  0  0  0  0  0  0
  -39.4642   60.0623   66.9854 H   0  0  0  0  0  0  0  0  0  0  0  0
  -36.0649   59.7938   64.2384 N   0  0  0  0  0  0  0  0  0  0  0  0
  -35.8573   61.7624   63.2022 O   0  0  0  0  0  0  0  0  0  0  0  0
  -37.2059   61.7598   63.6689 C   0  0  0  0  0  0  0  0  0  0  0  0
  -35.2436   60.5252   63.6153 C   0  0  0  0  0  0  0  0  0  0  0  0
  -37.4042   60.3949   64.3846 C   0  0  0  0  0  0  0  0  0  0  0  0
  -33.3831   62.2181   62.1767 O   0  0  0  0  0  0  0  0  0  0  0  0
  -32.9684   61.0180   62.6001 C   0  0  0  0  0  0  0  0  0  0  0  0
  -31.6491   60.6149   62.3553 C   0  0  0  0  0  0  0  0  0  0  0  0
  -31.1923   59.3562   62.7811 C   0  0  0  0  0  0  0  0  0  0  0  0
  -32.0469   58.4901   63.4655 C   0  0  0  0  0  0  0  0  0  0  0  0
  -33.3621   58.8902   63.7177 C   0  0  0  0  0  0  0  0  0  0  0  0
  -33.8253   60.1474   63.2846 C   0  0  0  0  0  0  0  0  0  0  0  0
  -32.7918   62.7840   61.7206 H   0  0  0  0  0  0  0  0  0  0  0  0
  -41.5025   61.4322   65.4175 O   0  0  0  0  0  0  0  0  0  0  0  0
  -40.9523   60.6760   64.6340 C   0  0  0  0  0  0  0  0  0  0  0  0
  -41.1292   60.9117   63.1973 O   0  0  0  0  0  0  0  0  0  0  0  0
  -42.3706   61.4140   62.6676 C   0  0  0  0  0  0  0  0  0  0  0  0
  -43.5941   60.5783   63.0232 C   0  0  0  0  0  0  0  0  0  0  0  0
  -42.2247   61.5598   61.1604 C   0  0  0  0  0  0  0  0  0  0  0  0
  -41.3714   59.2664   61.2524 N   0  0  0  0  0  0  0  0  0  0  0  0
  -41.3635   60.4423   59.3203 O   0  0  0  0  0  0  0  0  0  0  0  0
  -41.5784   60.3626   60.5081 C   0  0  0  0  0  0  0  0  0  0  0  0
  -41.5833   59.3184   62.2124 H   0  0  0  0  0  0  0  0  0  0  0  0
  -38.6206   57.8450   61.7692 N   0  0  0  0  0  0  0  0  0  0  0  0
  -40.1455   56.2312   62.1381 O   0  0  0  0  0  0  0  0  0  0  0  0
  -38.2468   59.2203   61.4078 C   0  0  0  0  0  0  0  0  0  0  0  0
  -38.2506   59.4020   59.8782 C   0  0  0  0  0  0  0  0  0  0  0  0
  -38.8006   58.2271   59.0866 C   0  0  0  0  0  0  0  0  0  0  0  0
  -40.3010   58.0109   59.3008 C   0  0  0  0  0  0  0  0  0  0  0  0
  -40.8514   57.9949   60.7367 C   0  0  0  0  0  0  0  0  0  0  0  0
  -39.8368   57.2960   61.6205 C   0  0  0  0  0  0  0  0  0  0  0  0
  -36.0283   57.7337   62.6588 Si  0  0  0  0  0  0  0  0  0  0  0  0
  -37.6479   57.0608   62.3123 O   0  0  0  0  0  0  0  0  0  0  0  0
  -35.2045   56.7208   63.2172 H   0  0  0  0  0  0  0  0  0  0  0  0
  -36.1491   58.8071   63.5807 H   0  0  0  0  0  0  0  0  0  0  0  0
  -35.4450   58.2077   61.4541 H   0  0  0  0  0  0  0  0  0  0  0  0
  -42.0782   57.7632   64.5785 C   0  0  0  0  0  0  0  0  0  0  0  0
  -41.0424   58.2928   65.5779 C   0  0  0  0  0  0  0  0  0  0  0  0
  -43.2275   56.9171   65.1519 C   0  0  0  0  0  0  0  0  0  0  0  0
  -44.6678   57.4061   64.8950 C   0  0  0  0  0  0  0  0  0  0  0  0
  -45.2962   57.6860   66.1898 N   0  0  0  0  0  0  0  0  0  0  0  0
  -46.3112   58.5418   66.4815 C   0  0  0  0  0  0  0  0  0  0  0  0
  -44.7538   56.9537   67.2552 O   0  0  0  0  0  0  0  0  0  0  0  0
  -46.7310   58.6635   67.6321 O   0  0  0  0  0  0  0  0  0  0  0  0
  -45.2145   57.1877   68.0761 H   0  0  0  0  0  0  0  0  0  0  0  0
  -46.9406   59.3596   65.3487 C   0  0  0  0  0  0  0  0  0  0  0  0
  -48.0662   58.6392   64.5942 C   0  0  0  0  0  0  0  0  0  0  0  0
  -49.3172   58.5323   65.4874 C   0  0  0  0  0  0  0  0  0  0  0  0
  -49.9232   59.8978   65.8631 C   0  0  0  0  0  0  0  0  0  0  0  0
  -51.2404   60.2358   65.1400 C   0  0  0  0  0  0  0  0  0  0  0  0
  -51.0279   61.0972   63.8774 C   0  0  0  0  0  0  0  0  0  0  0  0
  -50.8760   60.2894   62.5676 C   0  0  0  0  0  0  0  0  0  0  0  0
  -51.7382   59.0223   62.5289 C   0  0  0  0  0  0  0  0  0  0  0  0
  -50.9645   57.7067   62.3970 C   0  0  0  0  0  0  0  0  0  0  0  0
  -51.0167   57.1672   60.9560 C   0  0  0  0  0  0  0  0  0  0  0  0
  -49.6677   56.6473   60.4365 C   0  0  0  0  0  0  0  0  0  0  0  0
  -48.5579   57.6952   60.3013 C   0  0  0  0  0  0  0  0  0  0  0  0
  -48.6195   58.5215   58.9925 C   0  0  0  0  0  0  0  0  0  0  0  0
  -48.1369   57.6982   57.7811 C   0  0  0  0  0  0  0  0  0  0  0  0
  -47.1764   58.3874   56.8045 C   0  0  0  0  0  0  0  0  0  0  0  0
 46 47  1  0  0  0
 46 48  1  0  0  0
 46 45  1  0  0  0
 47 49  2  0  0  0
 47 51  1  0  0  0
 19 20  2  0  0  0
 37 38  1  0  0  0
 37 39  1  0  0  0
 37 40  1  0  0  0
 37 41  1  0  0  0
 48 50  1  0  0  0
 38 29  1  0  0  0
 45 44  1  0  0  0
 25 27  1  0  0  0
 25 35  1  0  0  0
 25 28  1  0  0  0
 21 20  1  0  0  0
 21 22  1  0  0  0
 44 42  1  0  0  0
  2  1  1  0  0  0
  2  4  1  0  0  0
  2  5  1  0  0  0
 26 27  2  0  0  0
 42 43  2  0  0  0
 29 31  1  0  0  0
 29 36  1  0  0  0
  3  4  2  0  0  0
 43  1  1  0  0  0
  6  9  2  0  0  0
  6 10  1  0  0  0
  1 20  1  0  0  0
 30 36  2  0  0  0
  7  8  1  0  0  0
  7  9  1  0  0  0
 22 24  1  0  0  0
 22 23  1  0  0  0
 11 12  1  0  0  0
 11 18  1  0  0  0
 24 27  1  0  0  0
  4 10  1  0  0  0
 51 52  1  0  0  0
 52 53  1  0  0  0
 53 54  1  0  0  0
 54 55  1  0  0  0
 55 56  1  0  0  0
 56 57  1  0  0  0
 57 58  1  0  0  0
 58 59  1  0  0  0
 59 60  1  0  0  0
 60 61  1  0  0  0
 61 62  1  0  0  0
 62 63  1  0  0  0
 63 64  1  0  0  0
 64 65  1  0  0  0
 31 32  1  0  0  0
 32 33  1  0  0  0
 33 34  1  0  0  0
 34 35  1  0  0  0
 35 36  1  0  0  0
  8 10  1  0  0  0
  9 17  1  0  0  0
 12 13  2  0  0  0
 12 17  1  0  0  0
 13 14  1  0  0  0
 14 15  2  0  0  0
 15 16  1  0  0  0
 16 17  2  0  0  0
M  END
> <minimizedAffinity>
-10.31403

> <CNNscore>
0.2015220076

> <CNNaffinity>
7.7313585281

> <CNN_VS>
1.5580389500

> <CNNaffinity_variance>
1.5672096014

$$$$
/media/chris/experiments/cd1a-new-docking/inputs/ligands/1xz0_ligand.pdb


 65 67  0  0  0  0  0  0  0  0999 V2000
  -37.3992   61.0852   63.1636 C   0  0  0  0  0  0  0  0  0  0  0  0
  -38.2467   61.1002   64.3577 N   0  0  0  0  0  0  0  0  0  0  0  0
  -39.1294   60.2696   66.2822 O   0  0  0  0  0  0  0  0  0  0  0  0
  -38.3792   60.1710   65.3202 C   0  0  0  0  0  0  0  0  0  0  0  0
  -38.7991   61.9071   64.4722 H   0  0  0  0  0  0  0  0  0  0  0  0
  -36.0588   59.3425   64.9893 N   0  0  0  0  0  0  0  0  0  0  0  0
  -36.4597   57.7239   63.5021 O   0  0  0  0  0  0  0  0  0  0  0  0
  -37.6923   57.8543   64.2092 C   0  0  0  0  0  0  0  0  0  0  0  0
  -35.5344   58.6873   64.0440 C   0  0  0  0  0  0  0  0  0  0  0  0
  -37.4557   58.9622   65.2728 C   0  0  0  0  0  0  0  0  0  0  0  0
  -33.1995   58.3942   65.7349 O   0  0  0  0  0  0  0  0  0  0  0  0
  -33.0251   58.6647   64.4357 C   0  0  0  0  0  0  0  0  0  0  0  0
  -31.7276   58.7835   63.9208 C   0  0  0  0  0  0  0  0  0  0  0  0
  -31.5182   59.0763   62.5626 C   0  0  0  0  0  0  0  0  0  0  0  0
  -32.6042   59.2440   61.7016 C   0  0  0  0  0  0  0  0  0  0  0  0
  -33.9005   59.1202   62.2091 C   0  0  0  0  0  0  0  0  0  0  0  0
  -34.1136   58.8354   63.5715 C   0  0  0  0  0  0  0  0  0  0  0  0
  -32.4559   58.2840   66.2943 H   0  0  0  0  0  0  0  0  0  0  0  0
  -36.2775   62.9317   64.1970 O   0  0  0  0  0  0  0  0  0  0  0  0
  -36.6408   62.3988   63.1613 C   0  0  0  0  0  0  0  0  0  0  0  0
  -36.3880   63.0932   61.8944 O   0  0  0  0  0  0  0  0  0  0  0  0
  -35.6719   64.3420   61.8544 C   0  0  0  0  0  0  0  0  0  0  0  0
  -36.4505   65.4981   61.2388 C   0  0  0  0  0  0  0  0  0  0  0  0
  -34.3558   64.1168   61.1254 C   0  0  0  0  0  0  0  0  0  0  0  0
  -33.3470   63.5503   63.2835 N   0  0  0  0  0  0  0  0  0  0  0  0
  -32.6258   62.5918   61.3661 O   0  0  0  0  0  0  0  0  0  0  0  0
  -33.3378   63.3731   61.9542 C   0  0  0  0  0  0  0  0  0  0  0  0
  -33.9713   64.2165   63.6520 H   0  0  0  0  0  0  0  0  0  0  0  0
  -33.2522   63.6468   66.4198 N   0  0  0  0  0  0  0  0  0  0  0  0
  -33.3523   61.4490   65.9451 O   0  0  0  0  0  0  0  0  0  0  0  0
  -33.2047   65.0608   66.0198 C   0  0  0  0  0  0  0  0  0  0  0  0
  -31.7723   65.4681   65.6261 C   0  0  0  0  0  0  0  0  0  0  0  0
  -30.7710   64.3273   65.5506 C   0  0  0  0  0  0  0  0  0  0  0  0
  -31.0602   63.3518   64.4067 C   0  0  0  0  0  0  0  0  0  0  0  0
  -32.4924   62.8212   64.2275 C   0  0  0  0  0  0  0  0  0  0  0  0
  -33.0843   62.5931   65.6047 C   0  0  0  0  0  0  0  0  0  0  0  0
  -35.1411   62.9339   68.2765 Si  0  0  0  0  0  0  0  0  0  0  0  0
  -33.4980   63.3822   67.7334 O   0  0  0  0  0  0  0  0  0  0  0  0
  -35.1318   62.7112   69.6789 H   0  0  0  0  0  0  0  0  0  0  0  0
  -35.5523   61.7484   67.6118 H   0  0  0  0  0  0  0  0  0  0  0  0
  -36.0444   63.9859   67.9702 H   0  0  0  0  0  0  0  0  0  0  0  0
  -37.8601   59.3491   61.2485 C   0  0  0  0  0  0  0  0  0  0  0  0
  -38.0786   60.7588   61.8115 C   0  0  0  0  0  0  0  0  0  0  0  0
  -38.1434   59.1477   59.7503 C   0  0  0  0  0  0  0  0  0  0  0  0
  -39.2484   58.1431   59.3638 C   0  0  0  0  0  0  0  0  0  0  0  0
  -40.4798   58.5224   60.0634 N   0  0  0  0  0  0  0  0  0  0  0  0
  -41.1142   57.8882   61.0846 C   0  0  0  0  0  0  0  0  0  0  0  0
  -41.0595   59.7085   59.5914 O   0  0  0  0  0  0  0  0  0  0  0  0
  -42.1513   58.3406   61.5692 O   0  0  0  0  0  0  0  0  0  0  0  0
  -41.8658   59.8977   60.0965 H   0  0  0  0  0  0  0  0  0  0  0  0
  -40.5152   56.5911   61.6386 C   0  0  0  0  0  0  0  0  0  0  0  0
  -41.5245   55.6755   62.3446 C   0  0  0  0  0  0  0  0  0  0  0  0
  -41.3786   55.8071   63.8728 C   0  0  0  0  0  0  0  0  0  0  0  0
  -42.6568   56.3076   64.5719 C   0  0  0  0  0  0  0  0  0  0  0  0
  -42.6238   57.7914   64.9833 C   0  0  0  0  0  0  0  0  0  0  0  0
  -43.9779   58.2938   65.5266 C   0  0  0  0  0  0  0  0  0  0  0  0
  -45.1053   58.3680   64.4707 C   0  0  0  0  0  0  0  0  0  0  0  0
  -45.7792   59.7429   64.3933 C   0  0  0  0  0  0  0  0  0  0  0  0
  -47.1935   59.8135   64.9779 C   0  0  0  0  0  0  0  0  0  0  0  0
  -47.5704   58.5039   65.6942 C   0  0  0  0  0  0  0  0  0  0  0  0
  -48.8636   57.8590   65.1729 C   0  0  0  0  0  0  0  0  0  0  0  0
  -49.8047   58.7872   64.3979 C   0  0  0  0  0  0  0  0  0  0  0  0
  -50.8988   59.4545   65.2682 C   0  0  0  0  0  0  0  0  0  0  0  0
  -51.6457   60.5567   64.4901 C   0  0  0  0  0  0  0  0  0  0  0  0
  -51.6632   60.4444   62.9609 C   0  0  0  0  0  0  0  0  0  0  0  0
 46 47  1  0  0  0
 46 48  1  0  0  0
 46 45  1  0  0  0
 47 49  2  0  0  0
 47 51  1  0  0  0
 19 20  2  0  0  0
 37 38  1  0  0  0
 37 39  1  0  0  0
 37 40  1  0  0  0
 37 41  1  0  0  0
 48 50  1  0  0  0
 38 29  1  0  0  0
 45 44  1  0  0  0
 25 27  1  0  0  0
 25 35  1  0  0  0
 25 28  1  0  0  0
 21 20  1  0  0  0
 21 22  1  0  0  0
 44 42  1  0  0  0
  2  1  1  0  0  0
  2  4  1  0  0  0
  2  5  1  0  0  0
 26 27  2  0  0  0
 42 43  2  0  0  0
 29 31  1  0  0  0
 29 36  1  0  0  0
  3  4  2  0  0  0
 43  1  1  0  0  0
  6  9  2  0  0  0
  6 10  1  0  0  0
  1 20  1  0  0  0
 30 36  2  0  0  0
  7  8  1  0  0  0
  7  9  1  0  0  0
 22 24  1  0  0  0
 22 23  1  0  0  0
 11 12  1  0  0  0
 11 18  1  0  0  0
 24 27  1  0  0  0
  4 10  1  0  0  0
 51 52  1  0  0  0
 52 53  1  0  0  0
 53 54  1  0  0  0
 54 55  1  0  0  0
 55 56  1  0  0  0
 56 57  1  0  0  0
 57 58  1  0  0  0
 58 59  1  0  0  0
 59 60  1  0  0  0
 60 61  1  0  0  0
 61 62  1  0  0  0
 62 63  1  0  0  0
 63 64  1  0  0  0
 64 65  1  0  0  0
 31 32  1  0  0  0
 32 33  1  0  0  0
 33 34  1  0  0  0
 34 35  1  0  0  0
 35 36  1  0  0  0
  8 10  1  0  0  0
  9 17  1  0  0  0
 12 13  2  0  0  0
 12 17  1  0  0  0
 13 14  1  0  0  0
 14 15  2  0  0  0
 15 16  1  0  0  0
 16 17  2  0  0  0
M  END
> <minimizedAffinity>
-9.11464

> <CNNscore>
0.1628074646

> <CNNaffinity>
7.2711882591

> <CNN_VS>
1.1838036776

> <CNNaffinity_variance>
1.2326402664

$$$$
/media/chris/experiments/cd1a-new-docking/inputs/ligands/1xz0_ligand.pdb


 65 67  0  0  0  0  0  0  0  0999 V2000
  -43.4367   56.7973   65.8613 C   0  0  0  0  0  0  0  0  0  0  0  0
  -43.0295   55.7771   64.8931 N   0  0  0  0  0  0  0  0  0  0  0  0
  -41.8148   54.9237   63.1700 O   0  0  0  0  0  0  0  0  0  0  0  0
  -42.0758   55.8325   63.9472 C   0  0  0  0  0  0  0  0  0  0  0  0
  -43.5257   54.9281   64.9419 H   0  0  0  0  0  0  0  0  0  0  0  0
  -41.7888   58.1622   63.1283 N   0  0  0  0  0  0  0  0  0  0  0  0
  -39.7346   57.9934   62.2658 O   0  0  0  0  0  0  0  0  0  0  0  0
  -39.7732   56.9746   63.2643 C   0  0  0  0  0  0  0  0  0  0  0  0
  -41.0183   58.6489   62.2524 C   0  0  0  0  0  0  0  0  0  0  0  0
  -41.1844   57.0654   63.9083 C   0  0  0  0  0  0  0  0  0  0  0  0
  -42.7511   60.8563   62.9747 O   0  0  0  0  0  0  0  0  0  0  0  0
  -42.1881   60.8489   61.7604 C   0  0  0  0  0  0  0  0  0  0  0  0
  -42.4330   61.9081   60.8767 C   0  0  0  0  0  0  0  0  0  0  0  0
  -41.8615   61.9189   59.5931 C   0  0  0  0  0  0  0  0  0  0  0  0
  -41.0303   60.8753   59.1822 C   0  0  0  0  0  0  0  0  0  0  0  0
  -40.7778   59.8195   60.0625 C   0  0  0  0  0  0  0  0  0  0  0  0
  -41.3561   59.8015   61.3462 C   0  0  0  0  0  0  0  0  0  0  0  0
  -43.3045   61.5681   63.2301 H   0  0  0  0  0  0  0  0  0  0  0  0
  -44.6478   57.9127   64.1221 O   0  0  0  0  0  0  0  0  0  0  0  0
  -44.6476   57.4914   65.2671 C   0  0  0  0  0  0  0  0  0  0  0  0
  -45.8325   57.7300   66.0977 O   0  0  0  0  0  0  0  0  0  0  0  0
  -47.0170   58.3434   65.5547 C   0  0  0  0  0  0  0  0  0  0  0  0
  -47.3750   59.6876   66.1766 C   0  0  0  0  0  0  0  0  0  0  0  0
  -48.1681   57.3567   65.6798 C   0  0  0  0  0  0  0  0  0  0  0  0
  -49.6218   57.8075   63.7615 N   0  0  0  0  0  0  0  0  0  0  0  0
  -50.3045   58.2367   65.8746 O   0  0  0  0  0  0  0  0  0  0  0  0
  -49.4581   57.8720   65.0910 C   0  0  0  0  0  0  0  0  0  0  0  0
  -48.8605   57.4943   63.2215 H   0  0  0  0  0  0  0  0  0  0  0  0
  -50.1163   58.3833   60.7155 N   0  0  0  0  0  0  0  0  0  0  0  0
  -51.7283   56.9102   61.2601 O   0  0  0  0  0  0  0  0  0  0  0  0
  -48.9532   59.2182   61.0500 C   0  0  0  0  0  0  0  0  0  0  0  0
  -49.3996   60.5321   61.7187 C   0  0  0  0  0  0  0  0  0  0  0  0
  -50.8786   60.6176   62.0577 C   0  0  0  0  0  0  0  0  0  0  0  0
  -51.2979   59.6399   63.1586 C   0  0  0  0  0  0  0  0  0  0  0  0
  -50.8554   58.1708   63.0550 C   0  0  0  0  0  0  0  0  0  0  0  0
  -50.9184   57.7634   61.5959 C   0  0  0  0  0  0  0  0  0  0  0  0
  -49.0816   58.0441   58.1980 Si  0  0  0  0  0  0  0  0  0  0  0  0
  -50.3996   58.2163   59.3934 O   0  0  0  0  0  0  0  0  0  0  0  0
  -49.6369   57.8840   56.9009 H   0  0  0  0  0  0  0  0  0  0  0  0
  -48.2960   56.9059   58.5202 H   0  0  0  0  0  0  0  0  0  0  0  0
  -48.2649   59.2055   58.2232 H   0  0  0  0  0  0  0  0  0  0  0  0
  -42.6525   59.2728   66.2495 C   0  0  0  0  0  0  0  0  0  0  0  0
  -42.3481   57.7744   66.3676 C   0  0  0  0  0  0  0  0  0  0  0  0
  -41.4541   60.2337   66.3297 C   0  0  0  0  0  0  0  0  0  0  0  0
  -40.0419   59.6179   66.2533 C   0  0  0  0  0  0  0  0  0  0  0  0
  -39.3751   60.1435   65.0580 N   0  0  0  0  0  0  0  0  0  0  0  0
  -38.0797   60.0051   64.6698 C   0  0  0  0  0  0  0  0  0  0  0  0
  -40.2163   60.8870   64.2182 O   0  0  0  0  0  0  0  0  0  0  0  0
  -37.6699   60.5124   63.6259 O   0  0  0  0  0  0  0  0  0  0  0  0
  -39.7118   61.2020   63.4519 H   0  0  0  0  0  0  0  0  0  0  0  0
  -37.1234   59.1957   65.5520 C   0  0  0  0  0  0  0  0  0  0  0  0
  -37.1105   57.6891   65.2598 C   0  0  0  0  0  0  0  0  0  0  0  0
  -35.7175   57.2593   64.7608 C   0  0  0  0  0  0  0  0  0  0  0  0
  -35.5163   57.4640   63.2473 C   0  0  0  0  0  0  0  0  0  0  0  0
  -34.4788   58.5408   62.8780 C   0  0  0  0  0  0  0  0  0  0  0  0
  -33.1616   58.4015   63.6697 C   0  0  0  0  0  0  0  0  0  0  0  0
  -31.9226   59.0007   62.9645 C   0  0  0  0  0  0  0  0  0  0  0  0
  -32.2278   60.2812   62.1786 C   0  0  0  0  0  0  0  0  0  0  0  0
  -31.4396   61.5207   62.6133 C   0  0  0  0  0  0  0  0  0  0  0  0
  -32.2043   62.3264   63.6793 C   0  0  0  0  0  0  0  0  0  0  0  0
  -33.7325   62.2316   63.5540 C   0  0  0  0  0  0  0  0  0  0  0  0
  -34.4762   61.7703   64.8117 C   0  0  0  0  0  0  0  0  0  0  0  0
  -35.5604   62.7591   65.3081 C   0  0  0  0  0  0  0  0  0  0  0  0
  -35.1448   63.4367   66.6296 C   0  0  0  0  0  0  0  0  0  0  0  0
  -33.8395   64.2414   66.6231 C   0  0  0  0  0  0  0  0  0  0  0  0
 46 47  1  0  0  0
 46 48  1  0  0  0
 46 45  1  0  0  0
 47 49  2  0  0  0
 47 51  1  0  0  0
 19 20  2  0  0  0
 37 38  1  0  0  0
 37 39  1  0  0  0
 37 40  1  0  0  0
 37 41  1  0  0  0
 48 50  1  0  0  0
 38 29  1  0  0  0
 45 44  1  0  0  0
 25 27  1  0  0  0
 25 35  1  0  0  0
 25 28  1  0  0  0
 21 20  1  0  0  0
 21 22  1  0  0  0
 44 42  1  0  0  0
  2  1  1  0  0  0
  2  4  1  0  0  0
  2  5  1  0  0  0
 26 27  2  0  0  0
 42 43  2  0  0  0
 29 31  1  0  0  0
 29 36  1  0  0  0
  3  4  2  0  0  0
 43  1  1  0  0  0
  6  9  2  0  0  0
  6 10  1  0  0  0
  1 20  1  0  0  0
 30 36  2  0  0  0
  7  8  1  0  0  0
  7  9  1  0  0  0
 22 24  1  0  0  0
 22 23  1  0  0  0
 11 12  1  0  0  0
 11 18  1  0  0  0
 24 27  1  0  0  0
  4 10  1  0  0  0
 51 52  1  0  0  0
 52 53  1  0  0  0
 53 54  1  0  0  0
 54 55  1  0  0  0
 55 56  1  0  0  0
 56 57  1  0  0  0
 57 58  1  0  0  0
 58 59  1  0  0  0
 59 60  1  0  0  0
 60 61  1  0  0  0
 61 62  1  0  0  0
 62 63  1  0  0  0
 63 64  1  0  0  0
 64 65  1  0  0  0
 31 32  1  0  0  0
 32 33  1  0  0  0
 33 34  1  0  0  0
 34 35  1  0  0  0
 35 36  1  0  0  0
  8 10  1  0  0  0
  9 17  1  0  0  0
 12 13  2  0  0  0
 12 17  1  0  0  0
 13 14  1  0  0  0
 14 15  2  0  0  0
 15 16  1  0  0  0
 16 17  2  0  0  0
M  END
> <minimizedAffinity>
-9.03240

> <CNNscore>
0.1313786805

> <CNNaffinity>
7.4964370728

> <CNN_VS>
0.9848719835

> <CNNaffinity_variance>
0.7973675728

$$$$
/media/chris/experiments/cd1a-new-docking/inputs/ligands/1xz0_ligand.pdb


 65 67  0  0  0  0  0  0  0  0999 V2000
  -40.5776   59.2064   64.8587 C   0  0  0  0  0  0  0  0  0  0  0  0
  -39.4388   58.4179   65.3337 N   0  0  0  0  0  0  0  0  0  0  0  0
  -37.2381   57.9078   65.5976 O   0  0  0  0  0  0  0  0  0  0  0  0
  -38.1227   58.6374   65.1693 C   0  0  0  0  0  0  0  0  0  0  0  0
  -39.6704   57.6107   65.8476 H   0  0  0  0  0  0  0  0  0  0  0  0
  -36.3144   60.3135   64.8518 N   0  0  0  0  0  0  0  0  0  0  0  0
  -37.4726   62.1795   65.2629 O   0  0  0  0  0  0  0  0  0  0  0  0
  -38.4616   61.2517   64.8183 C   0  0  0  0  0  0  0  0  0  0  0  0
  -36.1994   61.5035   65.2621 C   0  0  0  0  0  0  0  0  0  0  0  0
  -37.6970   59.9367   64.5010 C   0  0  0  0  0  0  0  0  0  0  0  0
  -35.7934   63.0428   67.6835 O   0  0  0  0  0  0  0  0  0  0  0  0
  -34.7659   62.8834   66.8406 C   0  0  0  0  0  0  0  0  0  0  0  0
  -33.5209   63.4455   67.1517 C   0  0  0  0  0  0  0  0  0  0  0  0
  -32.4294   63.3004   66.2789 C   0  0  0  0  0  0  0  0  0  0  0  0
  -32.5678   62.5829   65.0896 C   0  0  0  0  0  0  0  0  0  0  0  0
  -33.8061   62.0146   64.7776 C   0  0  0  0  0  0  0  0  0  0  0  0
  -34.9041   62.1658   65.6461 C   0  0  0  0  0  0  0  0  0  0  0  0
  -35.6774   63.5270   68.4772 H   0  0  0  0  0  0  0  0  0  0  0  0
  -41.9696   60.2699   66.4917 O   0  0  0  0  0  0  0  0  0  0  0  0
  -41.5866   59.2253   65.9911 C   0  0  0  0  0  0  0  0  0  0  0  0
  -42.0737   57.9623   66.5555 O   0  0  0  0  0  0  0  0  0  0  0  0
  -43.2803   57.3418   66.0727 C   0  0  0  0  0  0  0  0  0  0  0  0
  -43.0575   56.2464   65.0372 C   0  0  0  0  0  0  0  0  0  0  0  0
  -44.1958   58.4299   65.5324 C   0  0  0  0  0  0  0  0  0  0  0  0
  -46.5435   59.1261   65.5209 N   0  0  0  0  0  0  0  0  0  0  0  0
  -45.8123   57.4955   66.9073 O   0  0  0  0  0  0  0  0  0  0  0  0
  -45.6038   58.3406   66.0673 C   0  0  0  0  0  0  0  0  0  0  0  0
  -46.2558   59.7805   64.8440 H   0  0  0  0  0  0  0  0  0  0  0  0
  -49.0253   58.3942   63.7434 N   0  0  0  0  0  0  0  0  0  0  0  0
  -49.2920   57.1412   65.5939 O   0  0  0  0  0  0  0  0  0  0  0  0
  -48.2909   59.3813   62.9382 C   0  0  0  0  0  0  0  0  0  0  0  0
  -48.6178   60.8137   63.4008 C   0  0  0  0  0  0  0  0  0  0  0  0
  -49.4522   60.9120   64.6671 C   0  0  0  0  0  0  0  0  0  0  0  0
  -48.7076   60.4272   65.9138 C   0  0  0  0  0  0  0  0  0  0  0  0
  -47.9701   59.0787   65.8607 C   0  0  0  0  0  0  0  0  0  0  0  0
  -48.8072   58.1179   65.0391 C   0  0  0  0  0  0  0  0  0  0  0  0
  -49.6001   56.4712   61.8739 Si  0  0  0  0  0  0  0  0  0  0  0  0
  -50.0086   57.6906   63.1157 O   0  0  0  0  0  0  0  0  0  0  0  0
  -50.7935   55.8836   61.3770 H   0  0  0  0  0  0  0  0  0  0  0  0
  -48.7814   55.4644   62.4505 H   0  0  0  0  0  0  0  0  0  0  0  0
  -48.9011   57.0969   60.8080 H   0  0  0  0  0  0  0  0  0  0  0  0
  -40.6928   57.5196   62.8498 C   0  0  0  0  0  0  0  0  0  0  0  0
  -41.1890   58.8221   63.4895 C   0  0  0  0  0  0  0  0  0  0  0  0
  -40.9435   57.3463   61.3423 C   0  0  0  0  0  0  0  0  0  0  0  0
  -39.7258   57.4544   60.4014 C   0  0  0  0  0  0  0  0  0  0  0  0
  -39.1926   58.8170   60.4942 N   0  0  0  0  0  0  0  0  0  0  0  0
  -38.0306   59.2451   61.0548 C   0  0  0  0  0  0  0  0  0  0  0  0
  -40.0177   59.7912   59.9147 O   0  0  0  0  0  0  0  0  0  0  0  0
  -37.7224   60.4368   61.0504 O   0  0  0  0  0  0  0  0  0  0  0  0
  -39.6053   60.6637   60.0121 H   0  0  0  0  0  0  0  0  0  0  0  0
  -37.0927   58.2163   61.6951 C   0  0  0  0  0  0  0  0  0  0  0  0
  -35.7090   58.7644   62.0699 C   0  0  0  0  0  0  0  0  0  0  0  0
  -34.9533   57.7415   62.9399 C   0  0  0  0  0  0  0  0  0  0  0  0
  -33.4470   57.6619   62.6271 C   0  0  0  0  0  0  0  0  0  0  0  0
  -32.5307   58.1913   63.7461 C   0  0  0  0  0  0  0  0  0  0  0  0
  -31.6365   59.3618   63.2862 C   0  0  0  0  0  0  0  0  0  0  0  0
  -32.1400   60.0953   62.0213 C   0  0  0  0  0  0  0  0  0  0  0  0
  -31.0665   60.9591   61.3491 C   0  0  0  0  0  0  0  0  0  0  0  0
  -31.1558   62.4604   61.6406 C   0  0  0  0  0  0  0  0  0  0  0  0
  -32.5720   63.0009   61.3713 C   0  0  0  0  0  0  0  0  0  0  0  0
  -32.6044   64.4755   60.9420 C   0  0  0  0  0  0  0  0  0  0  0  0
  -33.8447   65.2665   61.3708 C   0  0  0  0  0  0  0  0  0  0  0  0
  -34.1830   65.1509   62.8781 C   0  0  0  0  0  0  0  0  0  0  0  0
  -35.6495   64.7272   63.0973 C   0  0  0  0  0  0  0  0  0  0  0  0
  -36.1917   63.5990   62.2116 C   0  0  0  0  0  0  0  0  0  0  0  0
 46 47  1  0  0  0
 46 48  1  0  0  0
 46 45  1  0  0  0
 47 49  2  0  0  0
 47 51  1  0  0  0
 19 20  2  0  0  0
 37 38  1  0  0  0
 37 39  1  0  0  0
 37 40  1  0  0  0
 37 41  1  0  0  0
 48 50  1  0  0  0
 38 29  1  0  0  0
 45 44  1  0  0  0
 25 27  1  0  0  0
 25 35  1  0  0  0
 25 28  1  0  0  0
 21 20  1  0  0  0
 21 22  1  0  0  0
 44 42  1  0  0  0
  2  1  1  0  0  0
  2  4  1  0  0  0
  2  5  1  0  0  0
 26 27  2  0  0  0
 42 43  2  0  0  0
 29 31  1  0  0  0
 29 36  1  0  0  0
  3  4  2  0  0  0
 43  1  1  0  0  0
  6  9  2  0  0  0
  6 10  1  0  0  0
  1 20  1  0  0  0
 30 36  2  0  0  0
  7  8  1  0  0  0
  7  9  1  0  0  0
 22 24  1  0  0  0
 22 23  1  0  0  0
 11 12  1  0  0  0
 11 18  1  0  0  0
 24 27  1  0  0  0
  4 10  1  0  0  0
 51 52  1  0  0  0
 52 53  1  0  0  0
 53 54  1  0  0  0
 54 55  1  0  0  0
 55 56  1  0  0  0
 56 57  1  0  0  0
 57 58  1  0  0  0
 58 59  1  0  0  0
 59 60  1  0  0  0
 60 61  1  0  0  0
 61 62  1  0  0  0
 62 63  1  0  0  0
 63 64  1  0  0  0
 64 65  1  0  0  0
 31 32  1  0  0  0
 32 33  1  0  0  0
 33 34  1  0  0  0
 34 35  1  0  0  0
 35 36  1  0  0  0
  8 10  1  0  0  0
  9 17  1  0  0  0
 12 13  2  0  0  0
 12 17  1  0  0  0
 13 14  1  0  0  0
 14 15  2  0  0  0
 15 16  1  0  0  0
 16 17  2  0  0  0
M  END
> <minimizedAffinity>
-8.32763

> <CNNscore>
0.1134437919

> <CNNaffinity>
7.4481763840

> <CNN_VS>
0.8449493647

> <CNNaffinity_variance>
1.0024220943

$$$$
/media/chris/experiments/cd1a-new-docking/inputs/ligands/1xz0_ligand.pdb


 65 67  0  0  0  0  0  0  0  0999 V2000
  -43.4652   58.3224   65.2089 C   0  0  0  0  0  0  0  0  0  0  0  0
  -44.4516   57.3791   65.7392 N   0  0  0  0  0  0  0  0  0  0  0  0
  -46.4379   56.7549   66.6547 O   0  0  0  0  0  0  0  0  0  0  0  0
  -45.6852   57.6159   66.2182 C   0  0  0  0  0  0  0  0  0  0  0  0
  -44.1710   56.4354   65.7459 H   0  0  0  0  0  0  0  0  0  0  0  0
  -47.6511   59.0533   65.7189 N   0  0  0  0  0  0  0  0  0  0  0  0
  -46.7041   60.4771   64.2809 O   0  0  0  0  0  0  0  0  0  0  0  0
  -45.6136   60.0178   65.0787 C   0  0  0  0  0  0  0  0  0  0  0  0
  -47.8993   59.8164   64.7423 C   0  0  0  0  0  0  0  0  0  0  0  0
  -46.2291   59.0332   66.1114 C   0  0  0  0  0  0  0  0  0  0  0  0
  -50.3264   60.0828   66.3027 O   0  0  0  0  0  0  0  0  0  0  0  0
  -50.3994   60.2001   64.9713 C   0  0  0  0  0  0  0  0  0  0  0  0
  -51.6350   60.4634   64.3657 C   0  0  0  0  0  0  0  0  0  0  0  0
  -51.7395   60.5816   62.9695 C   0  0  0  0  0  0  0  0  0  0  0  0
  -50.6076   60.4476   62.1636 C   0  0  0  0  0  0  0  0  0  0  0  0
  -49.3715   60.1912   62.7634 C   0  0  0  0  0  0  0  0  0  0  0  0
  -49.2651   60.0636   64.1617 C   0  0  0  0  0  0  0  0  0  0  0  0
  -51.0989   60.1781   66.8244 H   0  0  0  0  0  0  0  0  0  0  0  0
  -44.1042   58.2164   62.9033 O   0  0  0  0  0  0  0  0  0  0  0  0
  -43.2653   57.9571   63.7504 C   0  0  0  0  0  0  0  0  0  0  0  0
  -42.0692   57.2132   63.3417 O   0  0  0  0  0  0  0  0  0  0  0  0
  -41.9963   55.7810   63.4728 C   0  0  0  0  0  0  0  0  0  0  0  0
  -41.3830   55.2959   64.7807 C   0  0  0  0  0  0  0  0  0  0  0  0
  -41.2409   55.2276   62.2739 C   0  0  0  0  0  0  0  0  0  0  0  0
  -40.0478   57.1172   61.2729 N   0  0  0  0  0  0  0  0  0  0  0  0
  -41.7885   56.1370   60.2124 O   0  0  0  0  0  0  0  0  0  0  0  0
  -41.0565   56.2394   61.1700 C   0  0  0  0  0  0  0  0  0  0  0  0
  -39.5172   57.1094   62.1022 H   0  0  0  0  0  0  0  0  0  0  0  0
  -38.8454   60.0047   61.5396 N   0  0  0  0  0  0  0  0  0  0  0  0
  -37.5085   58.9944   60.0370 O   0  0  0  0  0  0  0  0  0  0  0  0
  -39.9932   60.0122   62.4584 C   0  0  0  0  0  0  0  0  0  0  0  0
  -41.3047   60.2624   61.6901 C   0  0  0  0  0  0  0  0  0  0  0  0
  -41.1794   60.2629   60.1756 C   0  0  0  0  0  0  0  0  0  0  0  0
  -40.8314   58.8862   59.6034 C   0  0  0  0  0  0  0  0  0  0  0  0
  -39.6792   58.0884   60.2366 C   0  0  0  0  0  0  0  0  0  0  0  0
  -38.5840   59.0662   60.6156 C   0  0  0  0  0  0  0  0  0  0  0  0
  -36.3515   60.7855   62.3731 Si  0  0  0  0  0  0  0  0  0  0  0  0
  -37.9631   61.0378   61.6416 O   0  0  0  0  0  0  0  0  0  0  0  0
  -35.6294   62.0082   62.3605 H   0  0  0  0  0  0  0  0  0  0  0  0
  -35.6408   59.8084   61.6271 H   0  0  0  0  0  0  0  0  0  0  0  0
  -36.5043   60.3397   63.7126 H   0  0  0  0  0  0  0  0  0  0  0  0
  -41.3865   59.8086   65.8128 C   0  0  0  0  0  0  0  0  0  0  0  0
  -42.1413   58.4860   65.9944 C   0  0  0  0  0  0  0  0  0  0  0  0
  -39.9024   59.8227   66.2165 C   0  0  0  0  0  0  0  0  0  0  0  0
  -38.9050   59.1027   65.2857 C   0  0  0  0  0  0  0  0  0  0  0  0
  -37.7010   59.9318   65.1725 N   0  0  0  0  0  0  0  0  0  0  0  0
  -36.4230   59.5534   64.9056 C   0  0  0  0  0  0  0  0  0  0  0  0
  -37.9323   61.3003   65.3714 O   0  0  0  0  0  0  0  0  0  0  0  0
  -35.5137   60.3805   64.8426 O   0  0  0  0  0  0  0  0  0  0  0  0
  -37.0971   61.7856   65.2825 H   0  0  0  0  0  0  0  0  0  0  0  0
  -36.1220   58.0688   64.6746 C   0  0  0  0  0  0  0  0  0  0  0  0
  -36.0822   57.6504   63.1985 C   0  0  0  0  0  0  0  0  0  0  0  0
  -34.8339   58.2413   62.5151 C   0  0  0  0  0  0  0  0  0  0  0  0
  -33.5346   57.4827   62.8458 C   0  0  0  0  0  0  0  0  0  0  0  0
  -32.5369   58.2688   63.7170 C   0  0  0  0  0  0  0  0  0  0  0  0
  -32.4093   59.7482   63.2969 C   0  0  0  0  0  0  0  0  0  0  0  0
  -31.5138   59.9888   62.0593 C   0  0  0  0  0  0  0  0  0  0  0  0
  -31.4933   61.4501   61.5960 C   0  0  0  0  0  0  0  0  0  0  0  0
  -32.3407   62.4147   62.4316 C   0  0  0  0  0  0  0  0  0  0  0  0
  -32.2386   63.8559   61.8999 C   0  0  0  0  0  0  0  0  0  0  0  0
  -33.4222   64.2790   61.0167 C   0  0  0  0  0  0  0  0  0  0  0  0
  -34.0706   65.6213   61.3708 C   0  0  0  0  0  0  0  0  0  0  0  0
  -35.5804   65.5298   61.7055 C   0  0  0  0  0  0  0  0  0  0  0  0
  -35.9973   64.0844   62.0451 C   0  0  0  0  0  0  0  0  0  0  0  0
  -36.0607   63.7048   63.5294 C   0  0  0  0  0  0  0  0  0  0  0  0
 46 47  1  0  0  0
 46 48  1  0  0  0
 46 45  1  0  0  0
 47 49  2  0  0  0
 47 51  1  0  0  0
 19 20  2  0  0  0
 37 38  1  0  0  0
 37 39  1  0  0  0
 37 40  1  0  0  0
 37 41  1  0  0  0
 48 50  1  0  0  0
 38 29  1  0  0  0
 45 44  1  0  0  0
 25 27  1  0  0  0
 25 35  1  0  0  0
 25 28  1  0  0  0
 21 20  1  0  0  0
 21 22  1  0  0  0
 44 42  1  0  0  0
  2  1  1  0  0  0
  2  4  1  0  0  0
  2  5  1  0  0  0
 26 27  2  0  0  0
 42 43  2  0  0  0
 29 31  1  0  0  0
 29 36  1  0  0  0
  3  4  2  0  0  0
 43  1  1  0  0  0
  6  9  2  0  0  0
  6 10  1  0  0  0
  1 20  1  0  0  0
 30 36  2  0  0  0
  7  8  1  0  0  0
  7  9  1  0  0  0
 22 24  1  0  0  0
 22 23  1  0  0  0
 11 12  1  0  0  0
 11 18  1  0  0  0
 24 27  1  0  0  0
  4 10  1  0  0  0
 51 52  1  0  0  0
 52 53  1  0  0  0
 53 54  1  0  0  0
 54 55  1  0  0  0
 55 56  1  0  0  0
 56 57  1  0  0  0
 57 58  1  0  0  0
 58 59  1  0  0  0
 59 60  1  0  0  0
 60 61  1  0  0  0
 61 62  1  0  0  0
 62 63  1  0  0  0
 63 64  1  0  0  0
 64 65  1  0  0  0
 31 32  1  0  0  0
 32 33  1  0  0  0
 33 34  1  0  0  0
 34 35  1  0  0  0
 35 36  1  0  0  0
  8 10  1  0  0  0
  9 17  1  0  0  0
 12 13  2  0  0  0
 12 17  1  0  0  0
 13 14  1  0  0  0
 14 15  2  0  0  0
 15 16  1  0  0  0
 16 17  2  0  0  0
M  END
> <minimizedAffinity>
-9.65813

> <CNNscore>
0.1043287739

> <CNNaffinity>
7.4162306786

> <CNN_VS>
0.7737262249

> <CNNaffinity_variance>
1.8997223377

$$$$
/media/chris/experiments/cd1a-new-docking/inputs/ligands/1xz0_ligand.pdb


 65 67  0  0  0  0  0  0  0  0999 V2000
  -39.5015   59.6066   64.7641 C   0  0  0  0  0  0  0  0  0  0  0  0
  -38.7362   60.2044   65.8600 N   0  0  0  0  0  0  0  0  0  0  0  0
  -36.9377   61.2086   66.8244 O   0  0  0  0  0  0  0  0  0  0  0  0
  -37.5032   60.7401   65.8452 C   0  0  0  0  0  0  0  0  0  0  0  0
  -39.1900   60.2158   66.7337 H   0  0  0  0  0  0  0  0  0  0  0  0
  -35.9450   62.0732   64.4398 N   0  0  0  0  0  0  0  0  0  0  0  0
  -37.1763   62.2312   62.5822 O   0  0  0  0  0  0  0  0  0  0  0  0
  -37.6470   61.0373   63.2063 C   0  0  0  0  0  0  0  0  0  0  0  0
  -36.1500   62.7951   63.4227 C   0  0  0  0  0  0  0  0  0  0  0  0
  -36.8029   60.8745   64.5007 C   0  0  0  0  0  0  0  0  0  0  0  0
  -33.6147   63.5536   64.6033 O   0  0  0  0  0  0  0  0  0  0  0  0
  -34.1600   64.3523   63.6780 C   0  0  0  0  0  0  0  0  0  0  0  0
  -33.4913   65.5209   63.2904 C   0  0  0  0  0  0  0  0  0  0  0  0
  -34.0474   66.3806   62.3281 C   0  0  0  0  0  0  0  0  0  0  0  0
  -35.2739   66.0764   61.7351 C   0  0  0  0  0  0  0  0  0  0  0  0
  -35.9419   64.9086   62.1136 C   0  0  0  0  0  0  0  0  0  0  0  0
  -35.3914   64.0495   63.0840 C   0  0  0  0  0  0  0  0  0  0  0  0
  -32.7895   63.7766   64.9870 H   0  0  0  0  0  0  0  0  0  0  0  0
  -41.2954   61.0924   65.3205 O   0  0  0  0  0  0  0  0  0  0  0  0
  -40.6201   60.5796   64.4434 C   0  0  0  0  0  0  0  0  0  0  0  0
  -40.9556   60.8707   63.0456 O   0  0  0  0  0  0  0  0  0  0  0  0
  -42.2285   61.4384   62.6832 C   0  0  0  0  0  0  0  0  0  0  0  0
  -43.4336   60.5962   63.0836 C   0  0  0  0  0  0  0  0  0  0  0  0
  -42.2228   61.7118   61.1867 C   0  0  0  0  0  0  0  0  0  0  0  0
  -41.6735   59.3412   60.9133 N   0  0  0  0  0  0  0  0  0  0  0  0
  -41.3041   60.8283   59.2497 O   0  0  0  0  0  0  0  0  0  0  0  0
  -41.6594   60.5702   60.3769 C   0  0  0  0  0  0  0  0  0  0  0  0
  -41.9840   59.2514   61.8432 H   0  0  0  0  0  0  0  0  0  0  0  0
  -39.2969   57.3761   61.5004 N   0  0  0  0  0  0  0  0  0  0  0  0
  -41.0809   56.0222   61.2779 O   0  0  0  0  0  0  0  0  0  0  0  0
  -38.6685   58.7054   61.5094 C   0  0  0  0  0  0  0  0  0  0  0  0
  -38.3698   59.1768   60.0737 C   0  0  0  0  0  0  0  0  0  0  0  0
  -38.9325   58.2951   58.9711 C   0  0  0  0  0  0  0  0  0  0  0  0
  -40.4621   58.3147   58.9109 C   0  0  0  0  0  0  0  0  0  0  0  0
  -41.2590   58.1209   60.2118 C   0  0  0  0  0  0  0  0  0  0  0  0
  -40.5329   57.0938   61.0584 C   0  0  0  0  0  0  0  0  0  0  0  0
  -37.1273   56.6501   63.0136 Si  0  0  0  0  0  0  0  0  0  0  0  0
  -38.5623   56.3401   61.9935 O   0  0  0  0  0  0  0  0  0  0  0  0
  -36.5426   55.4139   63.3962 H   0  0  0  0  0  0  0  0  0  0  0  0
  -37.5181   57.3682   64.1746 H   0  0  0  0  0  0  0  0  0  0  0  0
  -36.1815   57.4143   62.2803 H   0  0  0  0  0  0  0  0  0  0  0  0
  -41.3219   57.7729   64.2978 C   0  0  0  0  0  0  0  0  0  0  0  0
  -39.9822   58.1462   64.9442 C   0  0  0  0  0  0  0  0  0  0  0  0
  -42.0127   56.5002   64.8162 C   0  0  0  0  0  0  0  0  0  0  0  0
  -43.5539   56.5033   64.8812 C   0  0  0  0  0  0  0  0  0  0  0  0
  -43.9687   57.4588   65.9130 N   0  0  0  0  0  0  0  0  0  0  0  0
  -44.9994   58.3449   65.8945 C   0  0  0  0  0  0  0  0  0  0  0  0
  -43.1732   57.4304   67.0671 O   0  0  0  0  0  0  0  0  0  0  0  0
  -45.2191   59.0865   66.8520 O   0  0  0  0  0  0  0  0  0  0  0  0
  -43.5030   58.0840   67.7034 H   0  0  0  0  0  0  0  0  0  0  0  0
  -45.9008   58.4084   64.6570 C   0  0  0  0  0  0  0  0  0  0  0  0
  -46.5836   59.7652   64.4369 C   0  0  0  0  0  0  0  0  0  0  0  0
  -48.0473   59.7040   64.9145 C   0  0  0  0  0  0  0  0  0  0  0  0
  -48.6530   58.2886   64.8609 C   0  0  0  0  0  0  0  0  0  0  0  0
  -50.1537   58.2199   65.2007 C   0  0  0  0  0  0  0  0  0  0  0  0
  -50.8989   59.5364   64.8960 C   0  0  0  0  0  0  0  0  0  0  0  0
  -51.6955   59.5308   63.5705 C   0  0  0  0  0  0  0  0  0  0  0  0
  -51.2666   60.6342   62.5964 C   0  0  0  0  0  0  0  0  0  0  0  0
  -49.9708   60.3615   61.8262 C   0  0  0  0  0  0  0  0  0  0  0  0
  -49.8614   58.8808   61.4189 C   0  0  0  0  0  0  0  0  0  0  0  0
  -48.9436   58.6331   60.2121 C   0  0  0  0  0  0  0  0  0  0  0  0
  -48.5188   57.1784   59.9863 C   0  0  0  0  0  0  0  0  0  0  0  0
  -47.9635   56.8905   58.5691 C   0  0  0  0  0  0  0  0  0  0  0  0
  -47.8308   58.1845   57.7406 C   0  0  0  0  0  0  0  0  0  0  0  0
  -47.3936   58.0373   56.2782 C   0  0  0  0  0  0  0  0  0  0  0  0
 46 47  1  0  0  0
 46 48  1  0  0  0
 46 45  1  0  0  0
 47 49  2  0  0  0
 47 51  1  0  0  0
 19 20  2  0  0  0
 37 38  1  0  0  0
 37 39  1  0  0  0
 37 40  1  0  0  0
 37 41  1  0  0  0
 48 50  1  0  0  0
 38 29  1  0  0  0
 45 44  1  0  0  0
 25 27  1  0  0  0
 25 35  1  0  0  0
 25 28  1  0  0  0
 21 20  1  0  0  0
 21 22  1  0  0  0
 44 42  1  0  0  0
  2  1  1  0  0  0
  2  4  1  0  0  0
  2  5  1  0  0  0
 26 27  2  0  0  0
 42 43  2  0  0  0
 29 31  1  0  0  0
 29 36  1  0  0  0
  3  4  2  0  0  0
 43  1  1  0  0  0
  6  9  2  0  0  0
  6 10  1  0  0  0
  1 20  1  0  0  0
 30 36  2  0  0  0
  7  8  1  0  0  0
  7  9  1  0  0  0
 22 24  1  0  0  0
 22 23  1  0  0  0
 11 12  1  0  0  0
 11 18  1  0  0  0
 24 27  1  0  0  0
  4 10  1  0  0  0
 51 52  1  0  0  0
 52 53  1  0  0  0
 53 54  1  0  0  0
 54 55  1  0  0  0
 55 56  1  0  0  0
 56 57  1  0  0  0
 57 58  1  0  0  0
 58 59  1  0  0  0
 59 60  1  0  0  0
 60 61  1  0  0  0
 61 62  1  0  0  0
 62 63  1  0  0  0
 63 64  1  0  0  0
 64 65  1  0  0  0
 31 32  1  0  0  0
 32 33  1  0  0  0
 33 34  1  0  0  0
 34 35  1  0  0  0
 35 36  1  0  0  0
  8 10  1  0  0  0
  9 17  1  0  0  0
 12 13  2  0  0  0
 12 17  1  0  0  0
 13 14  1  0  0  0
 14 15  2  0  0  0
 15 16  1  0  0  0
 16 17  2  0  0  0
M  END
> <minimizedAffinity>
-9.75487

> <CNNscore>
0.1040611267

> <CNNaffinity>
7.3832597733

> <CNN_VS>
0.7683103085

> <CNNaffinity_variance>
1.7643461227

$$$$
/media/chris/experiments/cd1a-new-docking/inputs/ligands/1xz0_ligand.pdb


 65 67  0  0  0  0  0  0  0  0999 V2000
  -36.4066   60.9329   64.7705 C   0  0  0  0  0  0  0  0  0  0  0  0
  -35.2263   60.3014   65.3639 N   0  0  0  0  0  0  0  0  0  0  0  0
  -33.4710   58.8575   65.4481 O   0  0  0  0  0  0  0  0  0  0  0  0
  -34.4370   59.3335   64.8663 C   0  0  0  0  0  0  0  0  0  0  0  0
  -34.9744   60.6335   66.2559 H   0  0  0  0  0  0  0  0  0  0  0  0
  -36.0390   59.2472   62.9673 N   0  0  0  0  0  0  0  0  0  0  0  0
  -35.9184   57.0680   62.4893 O   0  0  0  0  0  0  0  0  0  0  0  0
  -34.6626   57.3555   63.1031 C   0  0  0  0  0  0  0  0  0  0  0  0
  -36.6903   58.2852   62.4692 C   0  0  0  0  0  0  0  0  0  0  0  0
  -34.6921   58.8724   63.4387 C   0  0  0  0  0  0  0  0  0  0  0  0
  -37.8381   60.7186   61.3931 O   0  0  0  0  0  0  0  0  0  0  0  0
  -38.5600   59.5921   61.3528 C   0  0  0  0  0  0  0  0  0  0  0  0
  -39.8389   59.6089   60.7810 C   0  0  0  0  0  0  0  0  0  0  0  0
  -40.6202   58.4419   60.7352 C   0  0  0  0  0  0  0  0  0  0  0  0
  -40.1273   57.2424   61.2518 C   0  0  0  0  0  0  0  0  0  0  0  0
  -38.8495   57.2190   61.8175 C   0  0  0  0  0  0  0  0  0  0  0  0
  -38.0677   58.3888   61.8728 C   0  0  0  0  0  0  0  0  0  0  0  0
  -38.1883   61.5122   61.0388 H   0  0  0  0  0  0  0  0  0  0  0  0
  -36.6419   63.0553   63.6861 O   0  0  0  0  0  0  0  0  0  0  0  0
  -36.0236   62.3729   64.4865 C   0  0  0  0  0  0  0  0  0  0  0  0
  -34.8420   62.9546   65.1317 O   0  0  0  0  0  0  0  0  0  0  0  0
  -34.7791   63.1324   66.5595 C   0  0  0  0  0  0  0  0  0  0  0  0
  -35.9572   63.8938   67.1545 C   0  0  0  0  0  0  0  0  0  0  0  0
  -33.4598   63.8087   66.9007 C   0  0  0  0  0  0  0  0  0  0  0  0
  -32.1737   63.8345   64.8171 N   0  0  0  0  0  0  0  0  0  0  0  0
  -33.0856   65.7275   65.6538 O   0  0  0  0  0  0  0  0  0  0  0  0
  -32.8500   64.5436   65.7326 C   0  0  0  0  0  0  0  0  0  0  0  0
  -32.0423   62.8738   64.9880 H   0  0  0  0  0  0  0  0  0  0  0  0
  -33.1075   63.4834   61.8406 N   0  0  0  0  0  0  0  0  0  0  0  0
  -32.8746   65.7091   62.0796 O   0  0  0  0  0  0  0  0  0  0  0  0
  -33.0449   62.1082   62.3573 C   0  0  0  0  0  0  0  0  0  0  0  0
  -31.5991   61.5781   62.3222 C   0  0  0  0  0  0  0  0  0  0  0  0
  -30.5405   62.6044   61.9537 C   0  0  0  0  0  0  0  0  0  0  0  0
  -30.3657   63.6921   63.0167 C   0  0  0  0  0  0  0  0  0  0  0  0
  -31.6161   64.3893   63.5784 C   0  0  0  0  0  0  0  0  0  0  0  0
  -32.6020   64.5726   62.4412 C   0  0  0  0  0  0  0  0  0  0  0  0
  -35.3856   64.3752   60.6003 Si  0  0  0  0  0  0  0  0  0  0  0  0
  -33.7437   63.6698   60.6505 O   0  0  0  0  0  0  0  0  0  0  0  0
  -35.8218   64.4636   59.2518 H   0  0  0  0  0  0  0  0  0  0  0  0
  -35.3609   65.6732   61.1757 H   0  0  0  0  0  0  0  0  0  0  0  0
  -36.2782   63.5493   61.3334 H   0  0  0  0  0  0  0  0  0  0  0  0
  -38.6140   59.5693   65.1730 C   0  0  0  0  0  0  0  0  0  0  0  0
  -37.7495   60.7858   65.5263 C   0  0  0  0  0  0  0  0  0  0  0  0
  -40.0987   59.6333   65.5694 C   0  0  0  0  0  0  0  0  0  0  0  0
  -41.1429   59.4473   64.4494 C   0  0  0  0  0  0  0  0  0  0  0  0
  -41.8209   58.1647   64.6611 N   0  0  0  0  0  0  0  0  0  0  0  0
  -43.1401   57.9193   64.8782 C   0  0  0  0  0  0  0  0  0  0  0  0
  -40.9632   57.0561   64.6289 O   0  0  0  0  0  0  0  0  0  0  0  0
  -43.5568   56.7723   65.0385 O   0  0  0  0  0  0  0  0  0  0  0  0
  -41.4762   56.2460   64.7753 H   0  0  0  0  0  0  0  0  0  0  0  0
  -44.1176   59.0988   64.9157 C   0  0  0  0  0  0  0  0  0  0  0  0
  -45.1051   59.0689   66.0902 C   0  0  0  0  0  0  0  0  0  0  0  0
  -46.4847   59.5815   65.6340 C   0  0  0  0  0  0  0  0  0  0  0  0
  -46.6284   59.6815   64.1035 C   0  0  0  0  0  0  0  0  0  0  0  0
  -47.6792   60.6999   63.6231 C   0  0  0  0  0  0  0  0  0  0  0  0
  -48.7778   60.0611   62.7479 C   0  0  0  0  0  0  0  0  0  0  0  0
  -49.0296   58.5612   63.0274 C   0  0  0  0  0  0  0  0  0  0  0  0
  -50.5108   58.2174   63.2232 C   0  0  0  0  0  0  0  0  0  0  0  0
  -51.3227   58.0577   61.9340 C   0  0  0  0  0  0  0  0  0  0  0  0
  -50.5041   57.3484   60.8398 C   0  0  0  0  0  0  0  0  0  0  0  0
  -50.3286   58.1768   59.5580 C   0  0  0  0  0  0  0  0  0  0  0  0
  -48.9634   58.0606   58.8722 C   0  0  0  0  0  0  0  0  0  0  0  0
  -48.0090   57.0301   59.5256 C   0  0  0  0  0  0  0  0  0  0  0  0
  -47.2815   56.1809   58.4636 C   0  0  0  0  0  0  0  0  0  0  0  0
  -47.1155   56.7965   57.0690 C   0  0  0  0  0  0  0  0  0  0  0  0
 46 47  1  0  0  0
 46 48  1  0  0  0
 46 45  1  0  0  0
 47 49  2  0  0  0
 47 51  1  0  0  0
 19 20  2  0  0  0
 37 38  1  0  0  0
 37 39  1  0  0  0
 37 40  1  0  0  0
 37 41  1  0  0  0
 48 50  1  0  0  0
 38 29  1  0  0  0
 45 44  1  0  0  0
 25 27  1  0  0  0
 25 35  1  0  0  0
 25 28  1  0  0  0
 21 20  1  0  0  0
 21 22  1  0  0  0
 44 42  1  0  0  0
  2  1  1  0  0  0
  2  4  1  0  0  0
  2  5  1  0  0  0
 26 27  2  0  0  0
 42 43  2  0  0  0
 29 31  1  0  0  0
 29 36  1  0  0  0
  3  4  2  0  0  0
 43  1  1  0  0  0
  6  9  2  0  0  0
  6 10  1  0  0  0
  1 20  1  0  0  0
 30 36  2  0  0  0
  7  8  1  0  0  0
  7  9  1  0  0  0
 22 24  1  0  0  0
 22 23  1  0  0  0
 11 12  1  0  0  0
 11 18  1  0  0  0
 24 27  1  0  0  0
  4 10  1  0  0  0
 51 52  1  0  0  0
 52 53  1  0  0  0
 53 54  1  0  0  0
 54 55  1  0  0  0
 55 56  1  0  0  0
 56 57  1  0  0  0
 57 58  1  0  0  0
 58 59  1  0  0  0
 59 60  1  0  0  0
 60 61  1  0  0  0
 61 62  1  0  0  0
 62 63  1  0  0  0
 63 64  1  0  0  0
 64 65  1  0  0  0
 31 32  1  0  0  0
 32 33  1  0  0  0
 33 34  1  0  0  0
 34 35  1  0  0  0
 35 36  1  0  0  0
  8 10  1  0  0  0
  9 17  1  0  0  0
 12 13  2  0  0  0
 12 17  1  0  0  0
 13 14  1  0  0  0
 14 15  2  0  0  0
 15 16  1  0  0  0
 16 17  2  0  0  0
M  END
> <minimizedAffinity>
-9.47142

> <CNNscore>
0.0990057513

> <CNNaffinity>
7.0496382713

> <CNN_VS>
0.6979547143

> <CNNaffinity_variance>
0.6291336417

$$$$
