/media/chris/experiments/cd1a-new-docking/inputs/ligands/1xz0_ligand.pdb


 65 67  0  0  0  0  0  0  0  0999 V2000
  -35.5174   61.4661   64.3702 C   0  0  0  0  0  0  0  0  0  0  0  0
  -35.1825   62.3168   63.2264 N   0  0  0  0  0  0  0  0  0  0  0  0
  -36.2269   64.2757   63.7215 O   0  0  0  0  0  0  0  0  0  0  0  0
  -35.5328   63.5914   62.9811 C   0  0  0  0  0  0  0  0  0  0  0  0
  -34.6198   61.8945   62.5378 H   0  0  0  0  0  0  0  0  0  0  0  0
  -33.7259   63.9064   61.3030 N   0  0  0  0  0  0  0  0  0  0  0  0
  -33.8813   66.1162   61.0124 O   0  0  0  0  0  0  0  0  0  0  0  0
  -35.1868   65.7333   61.4431 C   0  0  0  0  0  0  0  0  0  0  0  0
  -33.0620   64.9308   60.9752 C   0  0  0  0  0  0  0  0  0  0  0  0
  -35.1329   64.1930   61.6417 C   0  0  0  0  0  0  0  0  0  0  0  0
  -31.7736   67.0865   59.5295 O   0  0  0  0  0  0  0  0  0  0  0  0
  -31.0516   66.0085   59.8585 C   0  0  0  0  0  0  0  0  0  0  0  0
  -29.6947   65.9522   59.5144 C   0  0  0  0  0  0  0  0  0  0  0  0
  -28.9175   64.8278   59.8401 C   0  0  0  0  0  0  0  0  0  0  0  0
  -29.4861   63.7510   60.5226 C   0  0  0  0  0  0  0  0  0  0  0  0
  -30.8380   63.8051   60.8738 C   0  0  0  0  0  0  0  0  0  0  0  0
  -31.6214   64.9268   60.5410 C   0  0  0  0  0  0  0  0  0  0  0  0
  -31.3709   67.7986   59.0727 H   0  0  0  0  0  0  0  0  0  0  0  0
  -33.2806   60.6174   64.4791 O   0  0  0  0  0  0  0  0  0  0  0  0
  -34.4724   60.3671   64.4059 C   0  0  0  0  0  0  0  0  0  0  0  0
  -34.8838   58.9648   64.2827 O   0  0  0  0  0  0  0  0  0  0  0  0
  -34.8241   58.2747   63.0201 C   0  0  0  0  0  0  0  0  0  0  0  0
  -33.5951   58.5986   62.1797 C   0  0  0  0  0  0  0  0  0  0  0  0
  -36.1055   58.5659   62.2536 C   0  0  0  0  0  0  0  0  0  0  0  0
  -38.3854   57.7221   61.9596 N   0  0  0  0  0  0  0  0  0  0  0  0
  -37.0977   57.0385   63.6887 O   0  0  0  0  0  0  0  0  0  0  0  0
  -37.2734   57.7264   62.7092 C   0  0  0  0  0  0  0  0  0  0  0  0
  -39.1176   57.1224   62.2306 H   0  0  0  0  0  0  0  0  0  0  0  0
  -40.6419   59.7996   61.2911 N   0  0  0  0  0  0  0  0  0  0  0  0
  -38.7335   60.9030   60.8371 O   0  0  0  0  0  0  0  0  0  0  0  0
  -41.3781   58.6071   61.7358 C   0  0  0  0  0  0  0  0  0  0  0  0
  -41.5077   57.5872   60.5888 C   0  0  0  0  0  0  0  0  0  0  0  0
  -40.7184   57.9192   59.3332 C   0  0  0  0  0  0  0  0  0  0  0  0
  -39.2034   57.8465   59.5418 C   0  0  0  0  0  0  0  0  0  0  0  0
  -38.5875   58.5481   60.7637 C   0  0  0  0  0  0  0  0  0  0  0  0
  -39.3355   59.8483   60.9849 C   0  0  0  0  0  0  0  0  0  0  0  0
  -42.1739   61.3905   59.6645 Si  0  0  0  0  0  0  0  0  0  0  0  0
  -41.3467   60.9610   61.1900 O   0  0  0  0  0  0  0  0  0  0  0  0
  -42.8319   62.6394   59.8181 H   0  0  0  0  0  0  0  0  0  0  0  0
  -43.1284   60.3887   59.3454 H   0  0  0  0  0  0  0  0  0  0  0  0
  -41.2185   61.4844   58.6182 H   0  0  0  0  0  0  0  0  0  0  0  0
  -37.3954   60.3210   65.8041 C   0  0  0  0  0  0  0  0  0  0  0  0
  -36.9711   60.9431   64.4681 C   0  0  0  0  0  0  0  0  0  0  0  0
  -38.6453   59.4249   65.7874 C   0  0  0  0  0  0  0  0  0  0  0  0
  -39.7551   59.7704   64.7734 C   0  0  0  0  0  0  0  0  0  0  0  0
  -41.0216   59.8937   65.5018 N   0  0  0  0  0  0  0  0  0  0  0  0
  -42.0332   58.9934   65.6183 C   0  0  0  0  0  0  0  0  0  0  0  0
  -41.1817   61.1214   66.1598 O   0  0  0  0  0  0  0  0  0  0  0  0
  -41.9665   57.8873   65.0825 O   0  0  0  0  0  0  0  0  0  0  0  0
  -42.0365   61.1333   66.6182 H   0  0  0  0  0  0  0  0  0  0  0  0
  -43.2766   59.3754   66.4284 C   0  0  0  0  0  0  0  0  0  0  0  0
  -44.5883   58.7814   65.8974 C   0  0  0  0  0  0  0  0  0  0  0  0
  -45.2021   59.7178   64.8387 C   0  0  0  0  0  0  0  0  0  0  0  0
  -46.3418   59.0690   64.0304 C   0  0  0  0  0  0  0  0  0  0  0  0
  -47.6226   59.9187   63.9317 C   0  0  0  0  0  0  0  0  0  0  0  0
  -48.5336   59.4970   62.7598 C   0  0  0  0  0  0  0  0  0  0  0  0
  -49.9012   60.2180   62.7185 C   0  0  0  0  0  0  0  0  0  0  0  0
  -51.0435   59.3303   62.2112 C   0  0  0  0  0  0  0  0  0  0  0  0
  -50.8028   57.8219   62.3274 C   0  0  0  0  0  0  0  0  0  0  0  0
  -50.7110   57.1598   60.9405 C   0  0  0  0  0  0  0  0  0  0  0  0
  -50.5470   58.1576   59.7840 C   0  0  0  0  0  0  0  0  0  0  0  0
  -49.1573   58.2081   59.1406 C   0  0  0  0  0  0  0  0  0  0  0  0
  -48.1491   57.1866   59.7234 C   0  0  0  0  0  0  0  0  0  0  0  0
  -47.2131   56.6305   58.6312 C   0  0  0  0  0  0  0  0  0  0  0  0
  -47.1309   57.4130   57.3151 C   0  0  0  0  0  0  0  0  0  0  0  0
 46 47  1  0  0  0
 46 48  1  0  0  0
 46 45  1  0  0  0
 47 49  2  0  0  0
 47 51  1  0  0  0
 19 20  2  0  0  0
 37 38  1  0  0  0
 37 39  1  0  0  0
 37 40  1  0  0  0
 37 41  1  0  0  0
 48 50  1  0  0  0
 38 29  1  0  0  0
 45 44  1  0  0  0
 25 27  1  0  0  0
 25 35  1  0  0  0
 25 28  1  0  0  0
 21 20  1  0  0  0
 21 22  1  0  0  0
 44 42  1  0  0  0
  2  1  1  0  0  0
  2  4  1  0  0  0
  2  5  1  0  0  0
 26 27  2  0  0  0
 42 43  2  0  0  0
 29 31  1  0  0  0
 29 36  1  0  0  0
  3  4  2  0  0  0
 43  1  1  0  0  0
  6  9  2  0  0  0
  6 10  1  0  0  0
  1 20  1  0  0  0
 30 36  2  0  0  0
  7  8  1  0  0  0
  7  9  1  0  0  0
 22 24  1  0  0  0
 22 23  1  0  0  0
 11 12  1  0  0  0
 11 18  1  0  0  0
 24 27  1  0  0  0
  4 10  1  0  0  0
 51 52  1  0  0  0
 52 53  1  0  0  0
 53 54  1  0  0  0
 54 55  1  0  0  0
 55 56  1  0  0  0
 56 57  1  0  0  0
 57 58  1  0  0  0
 58 59  1  0  0  0
 59 60  1  0  0  0
 60 61  1  0  0  0
 61 62  1  0  0  0
 62 63  1  0  0  0
 63 64  1  0  0  0
 64 65  1  0  0  0
 31 32  1  0  0  0
 32 33  1  0  0  0
 33 34  1  0  0  0
 34 35  1  0  0  0
 35 36  1  0  0  0
  8 10  1  0  0  0
  9 17  1  0  0  0
 12 13  2  0  0  0
 12 17  1  0  0  0
 13 14  1  0  0  0
 14 15  2  0  0  0
 15 16  1  0  0  0
 16 17  2  0  0  0
M  END
> <minimizedAffinity>
-9.56135

> <CNNscore>
0.4989364743

> <CNNaffinity>
7.6328229904

> <CNN_VS>
3.8082938194

> <CNNaffinity_variance>
0.4421072900

$$$$
/media/chris/experiments/cd1a-new-docking/inputs/ligands/1xz0_ligand.pdb


 65 67  0  0  0  0  0  0  0  0999 V2000
  -32.4156   62.6737   63.7486 C   0  0  0  0  0  0  0  0  0  0  0  0
  -31.3024   63.1724   62.9386 N   0  0  0  0  0  0  0  0  0  0  0  0
  -29.6055   63.3352   64.4443 O   0  0  0  0  0  0  0  0  0  0  0  0
  -30.0412   63.4571   63.3070 C   0  0  0  0  0  0  0  0  0  0  0  0
  -31.5070   63.3206   61.9871 H   0  0  0  0  0  0  0  0  0  0  0  0
  -29.7076   65.2830   61.6532 N   0  0  0  0  0  0  0  0  0  0  0  0
  -29.0843   64.0643   59.8874 O   0  0  0  0  0  0  0  0  0  0  0  0
  -28.7201   63.2583   61.0074 C   0  0  0  0  0  0  0  0  0  0  0  0
  -29.6930   65.2707   60.3894 C   0  0  0  0  0  0  0  0  0  0  0  0
  -29.1197   64.0768   62.2664 C   0  0  0  0  0  0  0  0  0  0  0  0
  -30.0455   65.0635   57.5206 O   0  0  0  0  0  0  0  0  0  0  0  0
  -30.3512   66.2173   58.1265 C   0  0  0  0  0  0  0  0  0  0  0  0
  -30.8468   67.2870   57.3696 C   0  0  0  0  0  0  0  0  0  0  0  0
  -31.1662   68.5114   57.9804 C   0  0  0  0  0  0  0  0  0  0  0  0
  -31.0030   68.6767   59.3568 C   0  0  0  0  0  0  0  0  0  0  0  0
  -30.5148   67.6104   60.1174 C   0  0  0  0  0  0  0  0  0  0  0  0
  -30.1857   66.3851   59.5067 C   0  0  0  0  0  0  0  0  0  0  0  0
  -30.1646   64.9741   56.5955 H   0  0  0  0  0  0  0  0  0  0  0  0
  -34.2051   62.7276   62.1580 O   0  0  0  0  0  0  0  0  0  0  0  0
  -33.4033   62.0508   62.7804 C   0  0  0  0  0  0  0  0  0  0  0  0
  -33.4542   60.5931   62.6269 O   0  0  0  0  0  0  0  0  0  0  0  0
  -34.4393   59.8010   63.3170 C   0  0  0  0  0  0  0  0  0  0  0  0
  -34.0041   59.3068   64.6910 C   0  0  0  0  0  0  0  0  0  0  0  0
  -34.8376   58.6409   62.4171 C   0  0  0  0  0  0  0  0  0  0  0  0
  -37.2050   58.0182   62.3569 N   0  0  0  0  0  0  0  0  0  0  0  0
  -35.7784   57.0569   63.8252 O   0  0  0  0  0  0  0  0  0  0  0  0
  -36.0117   57.8550   62.9465 C   0  0  0  0  0  0  0  0  0  0  0  0
  -37.9498   57.4543   62.6676 H   0  0  0  0  0  0  0  0  0  0  0  0
  -39.7041   59.8542   61.8686 N   0  0  0  0  0  0  0  0  0  0  0  0
  -37.9531   61.2557   61.6797 O   0  0  0  0  0  0  0  0  0  0  0  0
  -40.2823   58.5222   62.0992 C   0  0  0  0  0  0  0  0  0  0  0  0
  -40.2295   57.6750   60.8138 C   0  0  0  0  0  0  0  0  0  0  0  0
  -39.4513   58.2907   59.6626 C   0  0  0  0  0  0  0  0  0  0  0  0
  -37.9490   58.3893   59.9405 C   0  0  0  0  0  0  0  0  0  0  0  0
  -37.4789   58.9778   61.2811 C   0  0  0  0  0  0  0  0  0  0  0  0
  -38.4074   60.1203   61.6436 C   0  0  0  0  0  0  0  0  0  0  0  0
  -41.4924   61.3640   60.4381 Si  0  0  0  0  0  0  0  0  0  0  0  0
  -40.5596   60.9141   61.8952 O   0  0  0  0  0  0  0  0  0  0  0  0
  -42.3036   62.4935   60.7253 H   0  0  0  0  0  0  0  0  0  0  0  0
  -42.3172   60.2754   60.0494 H   0  0  0  0  0  0  0  0  0  0  0  0
  -40.5974   61.6803   59.3820 H   0  0  0  0  0  0  0  0  0  0  0  0
  -32.9241   63.3268   66.2404 C   0  0  0  0  0  0  0  0  0  0  0  0
  -33.0660   63.6589   64.7499 C   0  0  0  0  0  0  0  0  0  0  0  0
  -33.9025   64.0209   67.2030 C   0  0  0  0  0  0  0  0  0  0  0  0
  -35.3633   64.1863   66.7361 C   0  0  0  0  0  0  0  0  0  0  0  0
  -36.0252   62.8810   66.8247 N   0  0  0  0  0  0  0  0  0  0  0  0
  -36.4816   62.0830   65.8234 C   0  0  0  0  0  0  0  0  0  0  0  0
  -36.1959   62.4180   68.1370 O   0  0  0  0  0  0  0  0  0  0  0  0
  -36.3593   62.4092   64.6429 O   0  0  0  0  0  0  0  0  0  0  0  0
  -36.6375   61.5545   68.1203 H   0  0  0  0  0  0  0  0  0  0  0  0
  -37.1641   60.7590   66.1828 C   0  0  0  0  0  0  0  0  0  0  0  0
  -38.1207   60.2248   65.1080 C   0  0  0  0  0  0  0  0  0  0  0  0
  -39.2767   59.4487   65.7679 C   0  0  0  0  0  0  0  0  0  0  0  0
  -40.6480   60.1313   65.6046 C   0  0  0  0  0  0  0  0  0  0  0  0
  -41.8237   59.3707   66.2460 C   0  0  0  0  0  0  0  0  0  0  0  0
  -43.0151   59.1851   65.2832 C   0  0  0  0  0  0  0  0  0  0  0  0
  -44.3499   58.8242   65.9759 C   0  0  0  0  0  0  0  0  0  0  0  0
  -45.5244   58.6829   65.0009 C   0  0  0  0  0  0  0  0  0  0  0  0
  -46.4490   59.9009   64.9075 C   0  0  0  0  0  0  0  0  0  0  0  0
  -47.8734   59.4934   64.4889 C   0  0  0  0  0  0  0  0  0  0  0  0
  -48.8538   59.3612   65.6642 C   0  0  0  0  0  0  0  0  0  0  0  0
  -50.2736   58.9152   65.2996 C   0  0  0  0  0  0  0  0  0  0  0  0
  -50.3988   58.2785   63.8930 C   0  0  0  0  0  0  0  0  0  0  0  0
  -51.2143   59.1736   62.9380 C   0  0  0  0  0  0  0  0  0  0  0  0
  -52.0287   60.3097   63.5684 C   0  0  0  0  0  0  0  0  0  0  0  0
 46 47  1  0  0  0
 46 48  1  0  0  0
 46 45  1  0  0  0
 47 49  2  0  0  0
 47 51  1  0  0  0
 19 20  2  0  0  0
 37 38  1  0  0  0
 37 39  1  0  0  0
 37 40  1  0  0  0
 37 41  1  0  0  0
 48 50  1  0  0  0
 38 29  1  0  0  0
 45 44  1  0  0  0
 25 27  1  0  0  0
 25 35  1  0  0  0
 25 28  1  0  0  0
 21 20  1  0  0  0
 21 22  1  0  0  0
 44 42  1  0  0  0
  2  1  1  0  0  0
  2  4  1  0  0  0
  2  5  1  0  0  0
 26 27  2  0  0  0
 42 43  2  0  0  0
 29 31  1  0  0  0
 29 36  1  0  0  0
  3  4  2  0  0  0
 43  1  1  0  0  0
  6  9  2  0  0  0
  6 10  1  0  0  0
  1 20  1  0  0  0
 30 36  2  0  0  0
  7  8  1  0  0  0
  7  9  1  0  0  0
 22 24  1  0  0  0
 22 23  1  0  0  0
 11 12  1  0  0  0
 11 18  1  0  0  0
 24 27  1  0  0  0
  4 10  1  0  0  0
 51 52  1  0  0  0
 52 53  1  0  0  0
 53 54  1  0  0  0
 54 55  1  0  0  0
 55 56  1  0  0  0
 56 57  1  0  0  0
 57 58  1  0  0  0
 58 59  1  0  0  0
 59 60  1  0  0  0
 60 61  1  0  0  0
 61 62  1  0  0  0
 62 63  1  0  0  0
 63 64  1  0  0  0
 64 65  1  0  0  0
 31 32  1  0  0  0
 32 33  1  0  0  0
 33 34  1  0  0  0
 34 35  1  0  0  0
 35 36  1  0  0  0
  8 10  1  0  0  0
  9 17  1  0  0  0
 12 13  2  0  0  0
 12 17  1  0  0  0
 13 14  1  0  0  0
 14 15  2  0  0  0
 15 16  1  0  0  0
 16 17  2  0  0  0
M  END
> <minimizedAffinity>
-9.15827

> <CNNscore>
0.4846413136

> <CNNaffinity>
7.3638381958

> <CNN_VS>
3.5688202381

> <CNNaffinity_variance>
0.5106813908

$$$$
/media/chris/experiments/cd1a-new-docking/inputs/ligands/1xz0_ligand.pdb


 65 67  0  0  0  0  0  0  0  0999 V2000
  -36.5100   60.4313   64.9424 C   0  0  0  0  0  0  0  0  0  0  0  0
  -35.6643   61.5342   65.4033 N   0  0  0  0  0  0  0  0  0  0  0  0
  -36.5231   62.0166   67.4534 O   0  0  0  0  0  0  0  0  0  0  0  0
  -35.7142   62.2212   66.5579 C   0  0  0  0  0  0  0  0  0  0  0  0
  -34.9572   61.8128   64.7775 H   0  0  0  0  0  0  0  0  0  0  0  0
  -34.7953   64.2972   65.5451 N   0  0  0  0  0  0  0  0  0  0  0  0
  -32.6156   63.9215   65.8610 O   0  0  0  0  0  0  0  0  0  0  0  0
  -33.2483   63.1607   66.8892 C   0  0  0  0  0  0  0  0  0  0  0  0
  -33.6479   64.5641   65.0869 C   0  0  0  0  0  0  0  0  0  0  0  0
  -34.7735   63.4063   66.7208 C   0  0  0  0  0  0  0  0  0  0  0  0
  -31.2895   66.2279   64.8290 O   0  0  0  0  0  0  0  0  0  0  0  0
  -32.2021   66.2463   63.8500 C   0  0  0  0  0  0  0  0  0  0  0  0
  -31.9921   67.0507   62.7223 C   0  0  0  0  0  0  0  0  0  0  0  0
  -32.9394   67.0948   61.6855 C   0  0  0  0  0  0  0  0  0  0  0  0
  -34.1029   66.3272   61.7600 C   0  0  0  0  0  0  0  0  0  0  0  0
  -34.3141   65.5182   62.8801 C   0  0  0  0  0  0  0  0  0  0  0  0
  -33.3707   65.4787   63.9247 C   0  0  0  0  0  0  0  0  0  0  0  0
  -30.5147   66.7500   64.7572 H   0  0  0  0  0  0  0  0  0  0  0  0
  -36.3564   59.9358   62.6044 O   0  0  0  0  0  0  0  0  0  0  0  0
  -35.8376   59.8648   63.7064 C   0  0  0  0  0  0  0  0  0  0  0  0
  -34.5625   59.1510   63.8316 O   0  0  0  0  0  0  0  0  0  0  0  0
  -33.3807   59.6018   63.1432 C   0  0  0  0  0  0  0  0  0  0  0  0
  -32.2249   58.6091   63.1541 C   0  0  0  0  0  0  0  0  0  0  0  0
  -32.9616   60.9389   63.7357 C   0  0  0  0  0  0  0  0  0  0  0  0
  -31.7064   62.6101   62.4598 N   0  0  0  0  0  0  0  0  0  0  0  0
  -33.9212   62.3001   62.1223 O   0  0  0  0  0  0  0  0  0  0  0  0
  -32.8967   62.0468   62.7136 C   0  0  0  0  0  0  0  0  0  0  0  0
  -31.6635   63.2871   61.7464 H   0  0  0  0  0  0  0  0  0  0  0  0
  -29.1880   64.3912   63.0432 N   0  0  0  0  0  0  0  0  0  0  0  0
  -29.7033   63.5034   65.0462 O   0  0  0  0  0  0  0  0  0  0  0  0
  -29.4194   64.5653   61.6017 C   0  0  0  0  0  0  0  0  0  0  0  0
  -28.8233   63.3875   60.8078 C   0  0  0  0  0  0  0  0  0  0  0  0
  -28.3031   62.2345   61.6501 C   0  0  0  0  0  0  0  0  0  0  0  0
  -29.4145   61.4822   62.3868 C   0  0  0  0  0  0  0  0  0  0  0  0
  -30.4636   62.2884   63.1705 C   0  0  0  0  0  0  0  0  0  0  0  0
  -29.7611   63.4619   63.8248 C   0  0  0  0  0  0  0  0  0  0  0  0
  -28.7259   66.0030   65.2140 Si  0  0  0  0  0  0  0  0  0  0  0  0
  -28.3218   65.2564   63.6408 O   0  0  0  0  0  0  0  0  0  0  0  0
  -27.6668   66.8582   65.6180 H   0  0  0  0  0  0  0  0  0  0  0  0
  -28.9103   64.9856   66.1872 H   0  0  0  0  0  0  0  0  0  0  0  0
  -29.9216   66.7583   65.0862 H   0  0  0  0  0  0  0  0  0  0  0  0
  -39.0014   59.7106   65.3521 C   0  0  0  0  0  0  0  0  0  0  0  0
  -38.0182   60.7220   64.7499 C   0  0  0  0  0  0  0  0  0  0  0  0
  -40.4419   59.7371   64.8139 C   0  0  0  0  0  0  0  0  0  0  0  0
  -41.1870   58.3906   64.7083 C   0  0  0  0  0  0  0  0  0  0  0  0
  -42.5512   58.6552   64.2407 N   0  0  0  0  0  0  0  0  0  0  0  0
  -43.6273   59.0952   64.9451 C   0  0  0  0  0  0  0  0  0  0  0  0
  -42.7406   58.4123   62.8729 O   0  0  0  0  0  0  0  0  0  0  0  0
  -43.5430   59.3445   66.1474 O   0  0  0  0  0  0  0  0  0  0  0  0
  -43.6604   58.6072   62.6343 H   0  0  0  0  0  0  0  0  0  0  0  0
  -44.9655   59.2745   64.2203 C   0  0  0  0  0  0  0  0  0  0  0  0
  -46.1080   59.7808   65.1112 C   0  0  0  0  0  0  0  0  0  0  0  0
  -47.4471   59.6934   64.3540 C   0  0  0  0  0  0  0  0  0  0  0  0
  -48.5464   60.5982   64.9422 C   0  0  0  0  0  0  0  0  0  0  0  0
  -49.5270   59.8828   65.8902 C   0  0  0  0  0  0  0  0  0  0  0  0
  -50.8058   59.3974   65.1759 C   0  0  0  0  0  0  0  0  0  0  0  0
  -51.5134   60.4762   64.3232 C   0  0  0  0  0  0  0  0  0  0  0  0
  -51.8184   60.0193   62.8919 C   0  0  0  0  0  0  0  0  0  0  0  0
  -51.0919   58.7482   62.4407 C   0  0  0  0  0  0  0  0  0  0  0  0
  -49.9393   59.0741   61.4735 C   0  0  0  0  0  0  0  0  0  0  0  0
  -49.7912   58.0696   60.3205 C   0  0  0  0  0  0  0  0  0  0  0  0
  -48.6039   57.1068   60.4250 C   0  0  0  0  0  0  0  0  0  0  0  0
  -47.7743   56.9764   59.1233 C   0  0  0  0  0  0  0  0  0  0  0  0
  -48.3478   57.8597   57.9968 C   0  0  0  0  0  0  0  0  0  0  0  0
  -47.3432   58.5173   57.0431 C   0  0  0  0  0  0  0  0  0  0  0  0
 46 47  1  0  0  0
 46 48  1  0  0  0
 46 45  1  0  0  0
 47 49  2  0  0  0
 47 51  1  0  0  0
 19 20  2  0  0  0
 37 38  1  0  0  0
 37 39  1  0  0  0
 37 40  1  0  0  0
 37 41  1  0  0  0
 48 50  1  0  0  0
 38 29  1  0  0  0
 45 44  1  0  0  0
 25 27  1  0  0  0
 25 35  1  0  0  0
 25 28  1  0  0  0
 21 20  1  0  0  0
 21 22  1  0  0  0
 44 42  1  0  0  0
  2  1  1  0  0  0
  2  4  1  0  0  0
  2  5  1  0  0  0
 26 27  2  0  0  0
 42 43  2  0  0  0
 29 31  1  0  0  0
 29 36  1  0  0  0
  3  4  2  0  0  0
 43  1  1  0  0  0
  6  9  2  0  0  0
  6 10  1  0  0  0
  1 20  1  0  0  0
 30 36  2  0  0  0
  7  8  1  0  0  0
  7  9  1  0  0  0
 22 24  1  0  0  0
 22 23  1  0  0  0
 11 12  1  0  0  0
 11 18  1  0  0  0
 24 27  1  0  0  0
  4 10  1  0  0  0
 51 52  1  0  0  0
 52 53  1  0  0  0
 53 54  1  0  0  0
 54 55  1  0  0  0
 55 56  1  0  0  0
 56 57  1  0  0  0
 57 58  1  0  0  0
 58 59  1  0  0  0
 59 60  1  0  0  0
 60 61  1  0  0  0
 61 62  1  0  0  0
 62 63  1  0  0  0
 63 64  1  0  0  0
 64 65  1  0  0  0
 31 32  1  0  0  0
 32 33  1  0  0  0
 33 34  1  0  0  0
 34 35  1  0  0  0
 35 36  1  0  0  0
  8 10  1  0  0  0
  9 17  1  0  0  0
 12 13  2  0  0  0
 12 17  1  0  0  0
 13 14  1  0  0  0
 14 15  2  0  0  0
 15 16  1  0  0  0
 16 17  2  0  0  0
M  END
> <minimizedAffinity>
-9.59688

> <CNNscore>
0.3185511827

> <CNNaffinity>
6.5242676735

> <CNN_VS>
2.0783131123

> <CNNaffinity_variance>
0.1014493257

$$$$
/media/chris/experiments/cd1a-new-docking/inputs/ligands/1xz0_ligand.pdb


 65 67  0  0  0  0  0  0  0  0999 V2000
  -34.9598   61.3849   65.7021 C   0  0  0  0  0  0  0  0  0  0  0  0
  -34.1486   62.5375   65.3052 N   0  0  0  0  0  0  0  0  0  0  0  0
  -33.1166   63.1299   67.2436 O   0  0  0  0  0  0  0  0  0  0  0  0
  -33.3256   63.2969   66.0492 C   0  0  0  0  0  0  0  0  0  0  0  0
  -34.2156   62.7933   64.3569 H   0  0  0  0  0  0  0  0  0  0  0  0
  -32.0531   64.1797   64.1046 N   0  0  0  0  0  0  0  0  0  0  0  0
  -30.4558   65.2996   65.1939 O   0  0  0  0  0  0  0  0  0  0  0  0
  -31.5455   65.2717   66.1149 C   0  0  0  0  0  0  0  0  0  0  0  0
  -30.8626   64.5926   64.0053 C   0  0  0  0  0  0  0  0  0  0  0  0
  -32.6932   64.5146   65.3908 C   0  0  0  0  0  0  0  0  0  0  0  0
  -29.9296   62.0493   62.9767 O   0  0  0  0  0  0  0  0  0  0  0  0
  -29.5838   63.1712   62.3337 C   0  0  0  0  0  0  0  0  0  0  0  0
  -28.7979   63.0922   61.1765 C   0  0  0  0  0  0  0  0  0  0  0  0
  -28.4138   64.2557   60.4888 C   0  0  0  0  0  0  0  0  0  0  0  0
  -28.8196   65.5110   60.9449 C   0  0  0  0  0  0  0  0  0  0  0  0
  -29.6090   65.5948   62.0953 C   0  0  0  0  0  0  0  0  0  0  0  0
  -29.9882   64.4311   62.7915 C   0  0  0  0  0  0  0  0  0  0  0  0
  -29.6473   61.2170   62.6518 H   0  0  0  0  0  0  0  0  0  0  0  0
  -33.6834   59.3658   65.5302 O   0  0  0  0  0  0  0  0  0  0  0  0
  -34.3887   60.1870   64.9674 C   0  0  0  0  0  0  0  0  0  0  0  0
  -34.6252   60.0329   63.5282 O   0  0  0  0  0  0  0  0  0  0  0  0
  -34.8397   58.7366   62.9388 C   0  0  0  0  0  0  0  0  0  0  0  0
  -33.7325   58.2786   61.9976 C   0  0  0  0  0  0  0  0  0  0  0  0
  -36.1886   58.7472   62.2353 C   0  0  0  0  0  0  0  0  0  0  0  0
  -38.3787   57.6519   62.2464 N   0  0  0  0  0  0  0  0  0  0  0  0
  -36.7414   57.0106   63.6689 O   0  0  0  0  0  0  0  0  0  0  0  0
  -37.1600   57.7398   62.7991 C   0  0  0  0  0  0  0  0  0  0  0  0
  -38.9822   56.9487   62.5788 H   0  0  0  0  0  0  0  0  0  0  0  0
  -41.1804   59.0239   61.8956 N   0  0  0  0  0  0  0  0  0  0  0  0
  -39.7105   60.7003   61.5881 O   0  0  0  0  0  0  0  0  0  0  0  0
  -41.5065   57.6172   62.1726 C   0  0  0  0  0  0  0  0  0  0  0  0
  -41.3843   56.7673   60.8937 C   0  0  0  0  0  0  0  0  0  0  0  0
  -40.7924   57.4850   59.6919 C   0  0  0  0  0  0  0  0  0  0  0  0
  -39.3157   57.8443   59.8768 C   0  0  0  0  0  0  0  0  0  0  0  0
  -38.8760   58.5300   61.1811 C   0  0  0  0  0  0  0  0  0  0  0  0
  -39.9642   59.5035   61.5896 C   0  0  0  0  0  0  0  0  0  0  0  0
  -42.3340   61.0409   63.3531 Si  0  0  0  0  0  0  0  0  0  0  0  0
  -42.2023   59.9221   61.9651 O   0  0  0  0  0  0  0  0  0  0  0  0
  -43.4763   61.8681   63.1877 H   0  0  0  0  0  0  0  0  0  0  0  0
  -41.1693   61.8503   63.4209 H   0  0  0  0  0  0  0  0  0  0  0  0
  -42.4611   60.2929   64.5535 H   0  0  0  0  0  0  0  0  0  0  0  0
  -37.3124   60.2202   65.6499 C   0  0  0  0  0  0  0  0  0  0  0  0
  -36.4967   61.5167   65.5731 C   0  0  0  0  0  0  0  0  0  0  0  0
  -38.7482   60.2691   65.1005 C   0  0  0  0  0  0  0  0  0  0  0  0
  -39.6249   59.0139   65.2876 C   0  0  0  0  0  0  0  0  0  0  0  0
  -41.0126   59.4465   65.4794 N   0  0  0  0  0  0  0  0  0  0  0  0
  -42.1307   58.6902   65.6386 C   0  0  0  0  0  0  0  0  0  0  0  0
  -41.1768   60.8388   65.4973 O   0  0  0  0  0  0  0  0  0  0  0  0
  -42.0722   57.4608   65.6480 O   0  0  0  0  0  0  0  0  0  0  0  0
  -42.1141   61.0521   65.6271 H   0  0  0  0  0  0  0  0  0  0  0  0
  -43.4834   59.3913   65.8024 C   0  0  0  0  0  0  0  0  0  0  0  0
  -44.4380   59.2165   64.6134 C   0  0  0  0  0  0  0  0  0  0  0  0
  -45.8961   59.1678   65.1090 C   0  0  0  0  0  0  0  0  0  0  0  0
  -46.9294   59.4908   64.0130 C   0  0  0  0  0  0  0  0  0  0  0  0
  -48.0420   60.4633   64.4469 C   0  0  0  0  0  0  0  0  0  0  0  0
  -48.4361   60.3011   65.9300 C   0  0  0  0  0  0  0  0  0  0  0  0
  -49.9006   59.8606   66.1604 C   0  0  0  0  0  0  0  0  0  0  0  0
  -50.5110   59.1226   64.9633 C   0  0  0  0  0  0  0  0  0  0  0  0
  -51.5547   59.9136   64.1683 C   0  0  0  0  0  0  0  0  0  0  0  0
  -51.7250   59.3471   62.7469 C   0  0  0  0  0  0  0  0  0  0  0  0
  -50.8420   58.1245   62.4541 C   0  0  0  0  0  0  0  0  0  0  0  0
  -50.6294   57.7966   60.9725 C   0  0  0  0  0  0  0  0  0  0  0  0
  -49.2125   58.1317   60.4439 C   0  0  0  0  0  0  0  0  0  0  0  0
  -48.9407   57.4529   59.0861 C   0  0  0  0  0  0  0  0  0  0  0  0
  -48.0003   58.1788   58.1166 C   0  0  0  0  0  0  0  0  0  0  0  0
 46 47  1  0  0  0
 46 48  1  0  0  0
 46 45  1  0  0  0
 47 49  2  0  0  0
 47 51  1  0  0  0
 19 20  2  0  0  0
 37 38  1  0  0  0
 37 39  1  0  0  0
 37 40  1  0  0  0
 37 41  1  0  0  0
 48 50  1  0  0  0
 38 29  1  0  0  0
 45 44  1  0  0  0
 25 27  1  0  0  0
 25 35  1  0  0  0
 25 28  1  0  0  0
 21 20  1  0  0  0
 21 22  1  0  0  0
 44 42  1  0  0  0
  2  1  1  0  0  0
  2  4  1  0  0  0
  2  5  1  0  0  0
 26 27  2  0  0  0
 42 43  2  0  0  0
 29 31  1  0  0  0
 29 36  1  0  0  0
  3  4  2  0  0  0
 43  1  1  0  0  0
  6  9  2  0  0  0
  6 10  1  0  0  0
  1 20  1  0  0  0
 30 36  2  0  0  0
  7  8  1  0  0  0
  7  9  1  0  0  0
 22 24  1  0  0  0
 22 23  1  0  0  0
 11 12  1  0  0  0
 11 18  1  0  0  0
 24 27  1  0  0  0
  4 10  1  0  0  0
 51 52  1  0  0  0
 52 53  1  0  0  0
 53 54  1  0  0  0
 54 55  1  0  0  0
 55 56  1  0  0  0
 56 57  1  0  0  0
 57 58  1  0  0  0
 58 59  1  0  0  0
 59 60  1  0  0  0
 60 61  1  0  0  0
 61 62  1  0  0  0
 62 63  1  0  0  0
 63 64  1  0  0  0
 64 65  1  0  0  0
 31 32  1  0  0  0
 32 33  1  0  0  0
 33 34  1  0  0  0
 34 35  1  0  0  0
 35 36  1  0  0  0
  8 10  1  0  0  0
  9 17  1  0  0  0
 12 13  2  0  0  0
 12 17  1  0  0  0
 13 14  1  0  0  0
 14 15  2  0  0  0
 15 16  1  0  0  0
 16 17  2  0  0  0
M  END
> <minimizedAffinity>
-9.52978

> <CNNscore>
0.2953979671

> <CNNaffinity>
7.1051268578

> <CNN_VS>
2.0988399982

> <CNNaffinity_variance>
0.8899021149

$$$$
/media/chris/experiments/cd1a-new-docking/inputs/ligands/1xz0_ligand.pdb


 65 67  0  0  0  0  0  0  0  0999 V2000
  -41.1132   59.6252   64.0195 C   0  0  0  0  0  0  0  0  0  0  0  0
  -40.0651   59.0555   63.1703 N   0  0  0  0  0  0  0  0  0  0  0  0
  -39.9116   56.9116   63.9140 O   0  0  0  0  0  0  0  0  0  0  0  0
  -39.5554   57.8115   63.1647 C   0  0  0  0  0  0  0  0  0  0  0  0
  -39.6780   59.6725   62.5079 H   0  0  0  0  0  0  0  0  0  0  0  0
  -37.0947   57.5196   62.9646 N   0  0  0  0  0  0  0  0  0  0  0  0
  -36.7038   58.8970   61.2494 O   0  0  0  0  0  0  0  0  0  0  0  0
  -38.0656   58.5077   61.0745 C   0  0  0  0  0  0  0  0  0  0  0  0
  -36.2083   58.2518   62.4394 C   0  0  0  0  0  0  0  0  0  0  0  0
  -38.3799   57.5294   62.2403 C   0  0  0  0  0  0  0  0  0  0  0  0
  -35.3416   57.6049   65.1277 O   0  0  0  0  0  0  0  0  0  0  0  0
  -34.4368   58.0512   64.2481 C   0  0  0  0  0  0  0  0  0  0  0  0
  -33.0971   58.1797   64.6373 C   0  0  0  0  0  0  0  0  0  0  0  0
  -32.1300   58.6549   63.7355 C   0  0  0  0  0  0  0  0  0  0  0  0
  -32.4898   58.9974   62.4311 C   0  0  0  0  0  0  0  0  0  0  0  0
  -33.8240   58.8649   62.0359 C   0  0  0  0  0  0  0  0  0  0  0  0
  -34.7969   58.3974   62.9400 C   0  0  0  0  0  0  0  0  0  0  0  0
  -35.0774   57.3792   65.9979 H   0  0  0  0  0  0  0  0  0  0  0  0
  -40.8624   60.3327   66.2937 O   0  0  0  0  0  0  0  0  0  0  0  0
  -40.4035   60.3244   65.1633 C   0  0  0  0  0  0  0  0  0  0  0  0
  -39.1674   61.0713   64.9075 O   0  0  0  0  0  0  0  0  0  0  0  0
  -37.8843   60.4174   64.9030 C   0  0  0  0  0  0  0  0  0  0  0  0
  -37.6575   59.4614   66.0674 C   0  0  0  0  0  0  0  0  0  0  0  0
  -36.8023   61.4855   64.8509 C   0  0  0  0  0  0  0  0  0  0  0  0
  -35.2404   62.4247   63.2154 N   0  0  0  0  0  0  0  0  0  0  0  0
  -37.2869   61.6902   62.5925 O   0  0  0  0  0  0  0  0  0  0  0  0
  -36.4591   61.9147   63.4457 C   0  0  0  0  0  0  0  0  0  0  0  0
  -35.0038   62.6422   62.2848 H   0  0  0  0  0  0  0  0  0  0  0  0
  -33.5823   65.0183   63.8308 N   0  0  0  0  0  0  0  0  0  0  0  0
  -34.4305   64.4268   65.8299 O   0  0  0  0  0  0  0  0  0  0  0  0
  -33.4006   64.8157   62.3859 C   0  0  0  0  0  0  0  0  0  0  0  0
  -32.3029   63.7694   62.1159 C   0  0  0  0  0  0  0  0  0  0  0  0
  -31.7797   63.0459   63.3458 C   0  0  0  0  0  0  0  0  0  0  0  0
  -32.8233   62.1300   63.9906 C   0  0  0  0  0  0  0  0  0  0  0  0
  -34.2347   62.6814   64.2526 C   0  0  0  0  0  0  0  0  0  0  0  0
  -34.1002   64.1267   64.6907 C   0  0  0  0  0  0  0  0  0  0  0  0
  -33.0661   66.4583   66.1076 Si  0  0  0  0  0  0  0  0  0  0  0  0
  -33.1995   66.2223   64.3406 O   0  0  0  0  0  0  0  0  0  0  0  0
  -32.6531   67.7898   66.3775 H   0  0  0  0  0  0  0  0  0  0  0  0
  -32.1106   65.5501   66.6355 H   0  0  0  0  0  0  0  0  0  0  0  0
  -34.3286   66.2223   66.7133 H   0  0  0  0  0  0  0  0  0  0  0  0
  -42.7284   58.8267   65.9293 C   0  0  0  0  0  0  0  0  0  0  0  0
  -42.2496   58.6802   64.4798 C   0  0  0  0  0  0  0  0  0  0  0  0
  -43.5170   57.6472   66.5231 C   0  0  0  0  0  0  0  0  0  0  0  0
  -44.7136   57.1104   65.7111 C   0  0  0  0  0  0  0  0  0  0  0  0
  -45.6732   58.2039   65.5287 N   0  0  0  0  0  0  0  0  0  0  0  0
  -46.5336   58.7468   66.4301 C   0  0  0  0  0  0  0  0  0  0  0  0
  -45.6802   58.7443   64.2350 O   0  0  0  0  0  0  0  0  0  0  0  0
  -46.5815   58.3393   67.5905 O   0  0  0  0  0  0  0  0  0  0  0  0
  -46.3347   59.4587   64.1867 H   0  0  0  0  0  0  0  0  0  0  0  0
  -47.4600   59.8818   65.9808 C   0  0  0  0  0  0  0  0  0  0  0  0
  -48.9564   59.5847   66.1482 C   0  0  0  0  0  0  0  0  0  0  0  0
  -49.7862   60.5366   65.2653 C   0  0  0  0  0  0  0  0  0  0  0  0
  -51.2976   60.2401   65.2926 C   0  0  0  0  0  0  0  0  0  0  0  0
  -51.9807   60.2618   63.9124 C   0  0  0  0  0  0  0  0  0  0  0  0
  -51.0330   60.7118   62.7808 C   0  0  0  0  0  0  0  0  0  0  0  0
  -50.5993   59.5809   61.8192 C   0  0  0  0  0  0  0  0  0  0  0  0
  -51.1350   58.2013   62.2190 C   0  0  0  0  0  0  0  0  0  0  0  0
  -51.1641   57.1588   61.0969 C   0  0  0  0  0  0  0  0  0  0  0  0
  -49.7883   56.4923   60.9144 C   0  0  0  0  0  0  0  0  0  0  0  0
  -48.7452   57.3931   60.2357 C   0  0  0  0  0  0  0  0  0  0  0  0
  -48.7028   57.3263   58.7056 C   0  0  0  0  0  0  0  0  0  0  0  0
  -47.8447   56.1658   58.1431 C   0  0  0  0  0  0  0  0  0  0  0  0
  -47.2405   56.5237   56.7702 C   0  0  0  0  0  0  0  0  0  0  0  0
  -47.5385   57.9227   56.2177 C   0  0  0  0  0  0  0  0  0  0  0  0
 46 47  1  0  0  0
 46 48  1  0  0  0
 46 45  1  0  0  0
 47 49  2  0  0  0
 47 51  1  0  0  0
 19 20  2  0  0  0
 37 38  1  0  0  0
 37 39  1  0  0  0
 37 40  1  0  0  0
 37 41  1  0  0  0
 48 50  1  0  0  0
 38 29  1  0  0  0
 45 44  1  0  0  0
 25 27  1  0  0  0
 25 35  1  0  0  0
 25 28  1  0  0  0
 21 20  1  0  0  0
 21 22  1  0  0  0
 44 42  1  0  0  0
  2  1  1  0  0  0
  2  4  1  0  0  0
  2  5  1  0  0  0
 26 27  2  0  0  0
 42 43  2  0  0  0
 29 31  1  0  0  0
 29 36  1  0  0  0
  3  4  2  0  0  0
 43  1  1  0  0  0
  6  9  2  0  0  0
  6 10  1  0  0  0
  1 20  1  0  0  0
 30 36  2  0  0  0
  7  8  1  0  0  0
  7  9  1  0  0  0
 22 24  1  0  0  0
 22 23  1  0  0  0
 11 12  1  0  0  0
 11 18  1  0  0  0
 24 27  1  0  0  0
  4 10  1  0  0  0
 51 52  1  0  0  0
 52 53  1  0  0  0
 53 54  1  0  0  0
 54 55  1  0  0  0
 55 56  1  0  0  0
 56 57  1  0  0  0
 57 58  1  0  0  0
 58 59  1  0  0  0
 59 60  1  0  0  0
 60 61  1  0  0  0
 61 62  1  0  0  0
 62 63  1  0  0  0
 63 64  1  0  0  0
 64 65  1  0  0  0
 31 32  1  0  0  0
 32 33  1  0  0  0
 33 34  1  0  0  0
 34 35  1  0  0  0
 35 36  1  0  0  0
  8 10  1  0  0  0
  9 17  1  0  0  0
 12 13  2  0  0  0
 12 17  1  0  0  0
 13 14  1  0  0  0
 14 15  2  0  0  0
 15 16  1  0  0  0
 16 17  2  0  0  0
M  END
> <minimizedAffinity>
-9.99745

> <CNNscore>
0.2871012688

> <CNNaffinity>
7.1571912766

> <CNN_VS>
2.0548386574

> <CNNaffinity_variance>
0.3463710845

$$$$
/media/chris/experiments/cd1a-new-docking/inputs/ligands/1xz0_ligand.pdb


 65 67  0  0  0  0  0  0  0  0999 V2000
  -41.7316   58.0294   62.8833 C   0  0  0  0  0  0  0  0  0  0  0  0
  -40.7992   58.3787   63.9569 N   0  0  0  0  0  0  0  0  0  0  0  0
  -40.6232   60.6385   63.7677 O   0  0  0  0  0  0  0  0  0  0  0  0
  -40.3272   59.5851   64.3164 C   0  0  0  0  0  0  0  0  0  0  0  0
  -40.4706   57.6210   64.4926 H   0  0  0  0  0  0  0  0  0  0  0  0
  -38.5887   60.9456   65.4596 N   0  0  0  0  0  0  0  0  0  0  0  0
  -36.8938   59.4909   65.4031 O   0  0  0  0  0  0  0  0  0  0  0  0
  -38.0571   58.6658   65.3528 C   0  0  0  0  0  0  0  0  0  0  0  0
  -37.3273   60.8649   65.4503 C   0  0  0  0  0  0  0  0  0  0  0  0
  -39.2686   59.6373   65.4085 C   0  0  0  0  0  0  0  0  0  0  0  0
  -36.9395   62.8264   63.3530 O   0  0  0  0  0  0  0  0  0  0  0  0
  -36.2535   62.9586   64.4948 C   0  0  0  0  0  0  0  0  0  0  0  0
  -35.3815   64.0430   64.6573 C   0  0  0  0  0  0  0  0  0  0  0  0
  -34.6431   64.1990   65.8425 C   0  0  0  0  0  0  0  0  0  0  0  0
  -34.7758   63.2776   66.8827 C   0  0  0  0  0  0  0  0  0  0  0  0
  -35.6493   62.1975   66.7279 C   0  0  0  0  0  0  0  0  0  0  0  0
  -36.3840   62.0338   65.5379 C   0  0  0  0  0  0  0  0  0  0  0  0
  -36.8361   63.4578   62.6685 H   0  0  0  0  0  0  0  0  0  0  0  0
  -41.6104   59.2693   60.8379 O   0  0  0  0  0  0  0  0  0  0  0  0
  -41.0761   58.4690   61.5879 C   0  0  0  0  0  0  0  0  0  0  0  0
  -39.7986   57.8761   61.1788 O   0  0  0  0  0  0  0  0  0  0  0  0
  -38.7868   58.6591   60.5175 C   0  0  0  0  0  0  0  0  0  0  0  0
  -38.6136   58.3475   59.0361 C   0  0  0  0  0  0  0  0  0  0  0  0
  -37.4771   58.4855   61.2718 C   0  0  0  0  0  0  0  0  0  0  0  0
  -35.8092   59.7610   62.5317 N   0  0  0  0  0  0  0  0  0  0  0  0
  -37.7968   60.6766   61.9602 O   0  0  0  0  0  0  0  0  0  0  0  0
  -37.0363   59.7363   61.9911 C   0  0  0  0  0  0  0  0  0  0  0  0
  -35.5072   60.6030   62.9428 H   0  0  0  0  0  0  0  0  0  0  0  0
  -33.6979   58.9069   64.6921 N   0  0  0  0  0  0  0  0  0  0  0  0
  -34.8576   57.0208   64.2882 O   0  0  0  0  0  0  0  0  0  0  0  0
  -33.4158   60.3319   64.4644 C   0  0  0  0  0  0  0  0  0  0  0  0
  -32.5511   60.5217   63.2039 C   0  0  0  0  0  0  0  0  0  0  0  0
  -32.3291   59.2677   62.3745 C   0  0  0  0  0  0  0  0  0  0  0  0
  -33.6087   58.7575   61.7065 C   0  0  0  0  0  0  0  0  0  0  0  0
  -34.8850   58.6215   62.5534 C   0  0  0  0  0  0  0  0  0  0  0  0
  -34.4844   58.1296   63.9305 C   0  0  0  0  0  0  0  0  0  0  0  0
  -32.7498   59.2929   67.2369 Si  0  0  0  0  0  0  0  0  0  0  0  0
  -33.1165   58.3261   65.7787 O   0  0  0  0  0  0  0  0  0  0  0  0
  -32.1513   58.4600   68.2190 H   0  0  0  0  0  0  0  0  0  0  0  0
  -33.9518   59.8452   67.7533 H   0  0  0  0  0  0  0  0  0  0  0  0
  -31.8549   60.3417   66.8967 H   0  0  0  0  0  0  0  0  0  0  0  0
  -43.7677   58.5670   64.4516 C   0  0  0  0  0  0  0  0  0  0  0  0
  -43.1974   58.5053   63.0293 C   0  0  0  0  0  0  0  0  0  0  0  0
  -45.2994   58.6077   64.5848 C   0  0  0  0  0  0  0  0  0  0  0  0
  -45.9493   59.9677   64.9125 C   0  0  0  0  0  0  0  0  0  0  0  0
  -47.2224   59.7165   65.5951 N   0  0  0  0  0  0  0  0  0  0  0  0
  -48.4317   60.3038   65.3944 C   0  0  0  0  0  0  0  0  0  0  0  0
  -47.1506   58.7275   66.5863 O   0  0  0  0  0  0  0  0  0  0  0  0
  -48.5836   61.1717   64.5349 O   0  0  0  0  0  0  0  0  0  0  0  0
  -48.0236   58.6143   66.9938 H   0  0  0  0  0  0  0  0  0  0  0  0
  -49.6184   59.8743   66.2636 C   0  0  0  0  0  0  0  0  0  0  0  0
  -50.8292   59.3568   65.4752 C   0  0  0  0  0  0  0  0  0  0  0  0
  -50.4063   58.1887   64.5636 C   0  0  0  0  0  0  0  0  0  0  0  0
  -50.9591   58.2963   63.1298 C   0  0  0  0  0  0  0  0  0  0  0  0
  -51.5473   59.6737   62.7707 C   0  0  0  0  0  0  0  0  0  0  0  0
  -50.6250   60.4981   61.8482 C   0  0  0  0  0  0  0  0  0  0  0  0
  -49.3425   59.7605   61.3978 C   0  0  0  0  0  0  0  0  0  0  0  0
  -49.3347   59.4060   59.9063 C   0  0  0  0  0  0  0  0  0  0  0  0
  -49.8477   58.0039   59.5629 C   0  0  0  0  0  0  0  0  0  0  0  0
  -49.1791   56.9311   60.4417 C   0  0  0  0  0  0  0  0  0  0  0  0
  -48.4038   55.8695   59.6467 C   0  0  0  0  0  0  0  0  0  0  0  0
  -47.3479   56.4056   58.6744 C   0  0  0  0  0  0  0  0  0  0  0  0
  -47.6372   56.0923   57.1852 C   0  0  0  0  0  0  0  0  0  0  0  0
  -47.9568   57.3742   56.3898 C   0  0  0  0  0  0  0  0  0  0  0  0
  -47.1362   58.6263   56.7215 C   0  0  0  0  0  0  0  0  0  0  0  0
 46 47  1  0  0  0
 46 48  1  0  0  0
 46 45  1  0  0  0
 47 49  2  0  0  0
 47 51  1  0  0  0
 19 20  2  0  0  0
 37 38  1  0  0  0
 37 39  1  0  0  0
 37 40  1  0  0  0
 37 41  1  0  0  0
 48 50  1  0  0  0
 38 29  1  0  0  0
 45 44  1  0  0  0
 25 27  1  0  0  0
 25 35  1  0  0  0
 25 28  1  0  0  0
 21 20  1  0  0  0
 21 22  1  0  0  0
 44 42  1  0  0  0
  2  1  1  0  0  0
  2  4  1  0  0  0
  2  5  1  0  0  0
 26 27  2  0  0  0
 42 43  2  0  0  0
 29 31  1  0  0  0
 29 36  1  0  0  0
  3  4  2  0  0  0
 43  1  1  0  0  0
  6  9  2  0  0  0
  6 10  1  0  0  0
  1 20  1  0  0  0
 30 36  2  0  0  0
  7  8  1  0  0  0
  7  9  1  0  0  0
 22 24  1  0  0  0
 22 23  1  0  0  0
 11 12  1  0  0  0
 11 18  1  0  0  0
 24 27  1  0  0  0
  4 10  1  0  0  0
 51 52  1  0  0  0
 52 53  1  0  0  0
 53 54  1  0  0  0
 54 55  1  0  0  0
 55 56  1  0  0  0
 56 57  1  0  0  0
 57 58  1  0  0  0
 58 59  1  0  0  0
 59 60  1  0  0  0
 60 61  1  0  0  0
 61 62  1  0  0  0
 62 63  1  0  0  0
 63 64  1  0  0  0
 64 65  1  0  0  0
 31 32  1  0  0  0
 32 33  1  0  0  0
 33 34  1  0  0  0
 34 35  1  0  0  0
 35 36  1  0  0  0
  8 10  1  0  0  0
  9 17  1  0  0  0
 12 13  2  0  0  0
 12 17  1  0  0  0
 13 14  1  0  0  0
 14 15  2  0  0  0
 15 16  1  0  0  0
 16 17  2  0  0  0
M  END
> <minimizedAffinity>
-10.21759

> <CNNscore>
0.2786467075

> <CNNaffinity>
7.3966202736

> <CNN_VS>
2.0610439777

> <CNNaffinity_variance>
0.9051925540

$$$$
/media/chris/experiments/cd1a-new-docking/inputs/ligands/1xz0_ligand.pdb


 65 67  0  0  0  0  0  0  0  0999 V2000
  -36.8604   58.9436   63.5724 C   0  0  0  0  0  0  0  0  0  0  0  0
  -36.4107   60.1532   64.2642 N   0  0  0  0  0  0  0  0  0  0  0  0
  -38.2936   60.8705   65.3192 O   0  0  0  0  0  0  0  0  0  0  0  0
  -37.1065   60.9950   65.0482 C   0  0  0  0  0  0  0  0  0  0  0  0
  -35.4619   60.3833   64.1368 H   0  0  0  0  0  0  0  0  0  0  0  0
  -36.2105   63.2408   64.4705 N   0  0  0  0  0  0  0  0  0  0  0  0
  -34.1725   63.0607   65.3686 O   0  0  0  0  0  0  0  0  0  0  0  0
  -34.9638   62.1450   66.1248 C   0  0  0  0  0  0  0  0  0  0  0  0
  -35.0238   63.6655   64.3748 C   0  0  0  0  0  0  0  0  0  0  0  0
  -36.4021   62.2489   65.5456 C   0  0  0  0  0  0  0  0  0  0  0  0
  -36.0071   63.9443   61.6633 O   0  0  0  0  0  0  0  0  0  0  0  0
  -35.0810   64.8039   62.1053 C   0  0  0  0  0  0  0  0  0  0  0  0
  -34.6220   65.8226   61.2601 C   0  0  0  0  0  0  0  0  0  0  0  0
  -33.6437   66.7316   61.6971 C   0  0  0  0  0  0  0  0  0  0  0  0
  -33.1206   66.6383   62.9879 C   0  0  0  0  0  0  0  0  0  0  0  0
  -33.5800   65.6277   63.8372 C   0  0  0  0  0  0  0  0  0  0  0  0
  -34.5538   64.7099   63.3990 C   0  0  0  0  0  0  0  0  0  0  0  0
  -36.3455   64.0266   60.7935 H   0  0  0  0  0  0  0  0  0  0  0  0
  -35.4886   57.0164   63.1994 O   0  0  0  0  0  0  0  0  0  0  0  0
  -35.6075   58.2270   63.1061 C   0  0  0  0  0  0  0  0  0  0  0  0
  -34.4738   59.0008   62.5893 O   0  0  0  0  0  0  0  0  0  0  0  0
  -33.2199   59.0554   63.2954 C   0  0  0  0  0  0  0  0  0  0  0  0
  -33.3196   58.7548   64.7857 C   0  0  0  0  0  0  0  0  0  0  0  0
  -32.5913   60.4191   63.0513 C   0  0  0  0  0  0  0  0  0  0  0  0
  -30.4686   61.4868   62.4595 N   0  0  0  0  0  0  0  0  0  0  0  0
  -30.6184   59.2456   62.7240 O   0  0  0  0  0  0  0  0  0  0  0  0
  -31.1275   60.3425   62.6937 C   0  0  0  0  0  0  0  0  0  0  0  0
  -29.5004   61.4307   62.2899 H   0  0  0  0  0  0  0  0  0  0  0  0
  -29.8594   63.9770   60.6477 N   0  0  0  0  0  0  0  0  0  0  0  0
  -32.0930   63.7366   60.5104 O   0  0  0  0  0  0  0  0  0  0  0  0
  -28.5383   63.5724   61.1503 C   0  0  0  0  0  0  0  0  0  0  0  0
  -28.3033   64.1222   62.5699 C   0  0  0  0  0  0  0  0  0  0  0  0
  -29.5081   64.7859   63.2162 C   0  0  0  0  0  0  0  0  0  0  0  0
  -30.6374   63.8010   63.5300 C   0  0  0  0  0  0  0  0  0  0  0  0
  -31.0888   62.8165   62.4384 C   0  0  0  0  0  0  0  0  0  0  0  0
  -31.0430   63.5392   61.1063 C   0  0  0  0  0  0  0  0  0  0  0  0
  -31.3781   65.1162   58.6679 Si  0  0  0  0  0  0  0  0  0  0  0  0
  -29.8842   64.8687   59.6180 O   0  0  0  0  0  0  0  0  0  0  0  0
  -31.1429   66.0896   57.6611 H   0  0  0  0  0  0  0  0  0  0  0  0
  -32.4163   65.5647   59.5266 H   0  0  0  0  0  0  0  0  0  0  0  0
  -31.7617   63.8909   58.0613 H   0  0  0  0  0  0  0  0  0  0  0  0
  -38.6855   57.8493   62.0343 C   0  0  0  0  0  0  0  0  0  0  0  0
  -37.9278   59.1116   62.4640 C   0  0  0  0  0  0  0  0  0  0  0  0
  -39.4083   57.9008   60.6777 C   0  0  0  0  0  0  0  0  0  0  0  0
  -40.5326   58.9435   60.5094 C   0  0  0  0  0  0  0  0  0  0  0  0
  -41.6123   58.6104   61.4438 N   0  0  0  0  0  0  0  0  0  0  0  0
  -42.1315   59.3579   62.4534 C   0  0  0  0  0  0  0  0  0  0  0  0
  -42.1665   57.3384   61.2422 O   0  0  0  0  0  0  0  0  0  0  0  0
  -41.7107   60.4904   62.6890 O   0  0  0  0  0  0  0  0  0  0  0  0
  -42.8706   57.1860   61.8917 H   0  0  0  0  0  0  0  0  0  0  0  0
  -43.2561   58.7677   63.3108 C   0  0  0  0  0  0  0  0  0  0  0  0
  -44.3399   59.7749   63.7185 C   0  0  0  0  0  0  0  0  0  0  0  0
  -45.6301   59.0315   64.1146 C   0  0  0  0  0  0  0  0  0  0  0  0
  -46.7829   59.9713   64.5157 C   0  0  0  0  0  0  0  0  0  0  0  0
  -48.1897   59.3646   64.3575 C   0  0  0  0  0  0  0  0  0  0  0  0
  -49.2334   60.3894   63.8660 C   0  0  0  0  0  0  0  0  0  0  0  0
  -50.6800   59.8474   63.7930 C   0  0  0  0  0  0  0  0  0  0  0  0
  -50.7576   58.3664   63.4046 C   0  0  0  0  0  0  0  0  0  0  0  0
  -50.8558   58.0872   61.9014 C   0  0  0  0  0  0  0  0  0  0  0  0
  -49.5019   57.6341   61.3253 C   0  0  0  0  0  0  0  0  0  0  0  0
  -49.5996   57.0037   59.9278 C   0  0  0  0  0  0  0  0  0  0  0  0
  -48.4546   56.0618   59.5410 C   0  0  0  0  0  0  0  0  0  0  0  0
  -47.3028   56.7464   58.7637 C   0  0  0  0  0  0  0  0  0  0  0  0
  -47.7981   57.9913   58.0002 C   0  0  0  0  0  0  0  0  0  0  0  0
  -47.4327   58.0922   56.5144 C   0  0  0  0  0  0  0  0  0  0  0  0
 46 47  1  0  0  0
 46 48  1  0  0  0
 46 45  1  0  0  0
 47 49  2  0  0  0
 47 51  1  0  0  0
 19 20  2  0  0  0
 37 38  1  0  0  0
 37 39  1  0  0  0
 37 40  1  0  0  0
 37 41  1  0  0  0
 48 50  1  0  0  0
 38 29  1  0  0  0
 45 44  1  0  0  0
 25 27  1  0  0  0
 25 35  1  0  0  0
 25 28  1  0  0  0
 21 20  1  0  0  0
 21 22  1  0  0  0
 44 42  1  0  0  0
  2  1  1  0  0  0
  2  4  1  0  0  0
  2  5  1  0  0  0
 26 27  2  0  0  0
 42 43  2  0  0  0
 29 31  1  0  0  0
 29 36  1  0  0  0
  3  4  2  0  0  0
 43  1  1  0  0  0
  6  9  2  0  0  0
  6 10  1  0  0  0
  1 20  1  0  0  0
 30 36  2  0  0  0
  7  8  1  0  0  0
  7  9  1  0  0  0
 22 24  1  0  0  0
 22 23  1  0  0  0
 11 12  1  0  0  0
 11 18  1  0  0  0
 24 27  1  0  0  0
  4 10  1  0  0  0
 51 52  1  0  0  0
 52 53  1  0  0  0
 53 54  1  0  0  0
 54 55  1  0  0  0
 55 56  1  0  0  0
 56 57  1  0  0  0
 57 58  1  0  0  0
 58 59  1  0  0  0
 59 60  1  0  0  0
 60 61  1  0  0  0
 61 62  1  0  0  0
 62 63  1  0  0  0
 63 64  1  0  0  0
 64 65  1  0  0  0
 31 32  1  0  0  0
 32 33  1  0  0  0
 33 34  1  0  0  0
 34 35  1  0  0  0
 35 36  1  0  0  0
  8 10  1  0  0  0
  9 17  1  0  0  0
 12 13  2  0  0  0
 12 17  1  0  0  0
 13 14  1  0  0  0
 14 15  2  0  0  0
 15 16  1  0  0  0
 16 17  2  0  0  0
M  END
> <minimizedAffinity>
-9.54425

> <CNNscore>
0.2449945211

> <CNNaffinity>
6.7784891129

> <CNN_VS>
1.6606926918

> <CNNaffinity_variance>
0.5546693802

$$$$
/media/chris/experiments/cd1a-new-docking/inputs/ligands/1xz0_ligand.pdb


 65 67  0  0  0  0  0  0  0  0999 V2000
  -38.1732   60.1405   64.4884 C   0  0  0  0  0  0  0  0  0  0  0  0
  -37.5231   61.2723   65.1520 N   0  0  0  0  0  0  0  0  0  0  0  0
  -36.4512   62.3220   63.4425 O   0  0  0  0  0  0  0  0  0  0  0  0
  -36.7486   62.2376   64.6268 C   0  0  0  0  0  0  0  0  0  0  0  0
  -37.6752   61.3356   66.1226 H   0  0  0  0  0  0  0  0  0  0  0  0
  -34.8191   63.7406   65.0721 N   0  0  0  0  0  0  0  0  0  0  0  0
  -34.3215   63.0872   67.1499 O   0  0  0  0  0  0  0  0  0  0  0  0
  -35.7077   62.7762   67.0142 C   0  0  0  0  0  0  0  0  0  0  0  0
  -33.8716   63.6566   65.9044 C   0  0  0  0  0  0  0  0  0  0  0  0
  -36.1063   63.2321   65.5830 C   0  0  0  0  0  0  0  0  0  0  0  0
  -32.5713   65.7505   67.4281 O   0  0  0  0  0  0  0  0  0  0  0  0
  -31.8868   65.1439   66.4507 C   0  0  0  0  0  0  0  0  0  0  0  0
  -30.5610   65.5195   66.1975 C   0  0  0  0  0  0  0  0  0  0  0  0
  -29.8243   64.9045   65.1711 C   0  0  0  0  0  0  0  0  0  0  0  0
  -30.4019   63.9000   64.3928 C   0  0  0  0  0  0  0  0  0  0  0  0
  -31.7222   63.5172   64.6457 C   0  0  0  0  0  0  0  0  0  0  0  0
  -32.4658   64.1377   65.6678 C   0  0  0  0  0  0  0  0  0  0  0  0
  -32.1631   66.4213   67.9393 H   0  0  0  0  0  0  0  0  0  0  0  0
  -39.4962   58.6401   65.8051 O   0  0  0  0  0  0  0  0  0  0  0  0
  -39.3627   59.7647   65.3515 C   0  0  0  0  0  0  0  0  0  0  0  0
  -40.4224   60.7473   65.6012 O   0  0  0  0  0  0  0  0  0  0  0  0
  -41.8138   60.3947   65.4845 C   0  0  0  0  0  0  0  0  0  0  0  0
  -42.4435   59.8710   66.7693 C   0  0  0  0  0  0  0  0  0  0  0  0
  -41.9601   59.3894   64.3520 C   0  0  0  0  0  0  0  0  0  0  0  0
  -41.4927   59.7603   61.9771 N   0  0  0  0  0  0  0  0  0  0  0  0
  -43.2952   60.6930   62.9754 O   0  0  0  0  0  0  0  0  0  0  0  0
  -42.2831   60.0323   63.0258 C   0  0  0  0  0  0  0  0  0  0  0  0
  -41.7485   60.1333   61.1026 H   0  0  0  0  0  0  0  0  0  0  0  0
  -39.8474   58.3934   59.6795 N   0  0  0  0  0  0  0  0  0  0  0  0
  -38.2955   59.4984   60.8778 O   0  0  0  0  0  0  0  0  0  0  0  0
  -41.2335   57.9781   59.4186 C   0  0  0  0  0  0  0  0  0  0  0  0
  -41.6222   56.7846   60.3115 C   0  0  0  0  0  0  0  0  0  0  0  0
  -40.6023   56.4103   61.3742 C   0  0  0  0  0  0  0  0  0  0  0  0
  -40.4516   57.4774   62.4615 C   0  0  0  0  0  0  0  0  0  0  0  0
  -40.2738   58.9459   62.0412 C   0  0  0  0  0  0  0  0  0  0  0  0
  -39.3998   58.9771   60.8027 C   0  0  0  0  0  0  0  0  0  0  0  0
  -37.1979   58.4677   58.9737 Si  0  0  0  0  0  0  0  0  0  0  0  0
  -38.9382   58.1749   58.6887 O   0  0  0  0  0  0  0  0  0  0  0  0
  -36.4678   58.1669   57.7935 H   0  0  0  0  0  0  0  0  0  0  0  0
  -36.7459   57.6385   60.0342 H   0  0  0  0  0  0  0  0  0  0  0  0
  -36.9976   59.8302   59.3198 H   0  0  0  0  0  0  0  0  0  0  0  0
  -36.1482   58.5719   65.0653 C   0  0  0  0  0  0  0  0  0  0  0  0
  -37.2832   58.9349   64.1000 C   0  0  0  0  0  0  0  0  0  0  0  0
  -35.0161   57.6928   64.5073 C   0  0  0  0  0  0  0  0  0  0  0  0
  -34.6541   57.8596   63.0172 C   0  0  0  0  0  0  0  0  0  0  0  0
  -33.7534   59.0093   62.8886 N   0  0  0  0  0  0  0  0  0  0  0  0
  -32.3969   59.0467   62.9654 C   0  0  0  0  0  0  0  0  0  0  0  0
  -34.4124   60.2243   62.6535 O   0  0  0  0  0  0  0  0  0  0  0  0
  -31.7412   58.0227   63.1565 O   0  0  0  0  0  0  0  0  0  0  0  0
  -33.7590   60.9374   62.5796 H   0  0  0  0  0  0  0  0  0  0  0  0
  -31.6822   60.3940   62.8161 C   0  0  0  0  0  0  0  0  0  0  0  0
  -30.7166   60.4727   61.6258 C   0  0  0  0  0  0  0  0  0  0  0  0
  -29.3967   61.1394   62.0593 C   0  0  0  0  0  0  0  0  0  0  0  0
  -29.1055   62.4618   61.3248 C   0  0  0  0  0  0  0  0  0  0  0  0
  -30.1965   62.8958   60.3280 C   0  0  0  0  0  0  0  0  0  0  0  0
  -31.1476   63.9641   60.9068 C   0  0  0  0  0  0  0  0  0  0  0  0
  -31.4112   65.1648   59.9684 C   0  0  0  0  0  0  0  0  0  0  0  0
  -30.7423   66.4626   60.4358 C   0  0  0  0  0  0  0  0  0  0  0  0
  -31.5212   67.7470   60.1345 C   0  0  0  0  0  0  0  0  0  0  0  0
  -31.8952   68.4930   61.4283 C   0  0  0  0  0  0  0  0  0  0  0  0
  -33.2781   68.1206   61.9842 C   0  0  0  0  0  0  0  0  0  0  0  0
  -33.2941   67.0105   63.0402 C   0  0  0  0  0  0  0  0  0  0  0  0
  -33.9366   65.6852   62.5602 C   0  0  0  0  0  0  0  0  0  0  0  0
  -34.9632   65.9297   61.4357 C   0  0  0  0  0  0  0  0  0  0  0  0
  -35.7791   64.7223   60.9585 C   0  0  0  0  0  0  0  0  0  0  0  0
 46 47  1  0  0  0
 46 48  1  0  0  0
 46 45  1  0  0  0
 47 49  2  0  0  0
 47 51  1  0  0  0
 19 20  2  0  0  0
 37 38  1  0  0  0
 37 39  1  0  0  0
 37 40  1  0  0  0
 37 41  1  0  0  0
 48 50  1  0  0  0
 38 29  1  0  0  0
 45 44  1  0  0  0
 25 27  1  0  0  0
 25 35  1  0  0  0
 25 28  1  0  0  0
 21 20  1  0  0  0
 21 22  1  0  0  0
 44 42  1  0  0  0
  2  1  1  0  0  0
  2  4  1  0  0  0
  2  5  1  0  0  0
 26 27  2  0  0  0
 42 43  2  0  0  0
 29 31  1  0  0  0
 29 36  1  0  0  0
  3  4  2  0  0  0
 43  1  1  0  0  0
  6  9  2  0  0  0
  6 10  1  0  0  0
  1 20  1  0  0  0
 30 36  2  0  0  0
  7  8  1  0  0  0
  7  9  1  0  0  0
 22 24  1  0  0  0
 22 23  1  0  0  0
 11 12  1  0  0  0
 11 18  1  0  0  0
 24 27  1  0  0  0
  4 10  1  0  0  0
 51 52  1  0  0  0
 52 53  1  0  0  0
 53 54  1  0  0  0
 54 55  1  0  0  0
 55 56  1  0  0  0
 56 57  1  0  0  0
 57 58  1  0  0  0
 58 59  1  0  0  0
 59 60  1  0  0  0
 60 61  1  0  0  0
 61 62  1  0  0  0
 62 63  1  0  0  0
 63 64  1  0  0  0
 64 65  1  0  0  0
 31 32  1  0  0  0
 32 33  1  0  0  0
 33 34  1  0  0  0
 34 35  1  0  0  0
 35 36  1  0  0  0
  8 10  1  0  0  0
  9 17  1  0  0  0
 12 13  2  0  0  0
 12 17  1  0  0  0
 13 14  1  0  0  0
 14 15  2  0  0  0
 15 16  1  0  0  0
 16 17  2  0  0  0
M  END
> <minimizedAffinity>
-8.26719

> <CNNscore>
0.1936762929

> <CNNaffinity>
7.5852255821

> <CNN_VS>
1.4690784216

> <CNNaffinity_variance>
2.0401113033

$$$$
/media/chris/experiments/cd1a-new-docking/inputs/ligands/1xz0_ligand.pdb


 65 67  0  0  0  0  0  0  0  0999 V2000
  -36.7438   60.6911   65.1150 C   0  0  0  0  0  0  0  0  0  0  0  0
  -35.7426   61.6754   65.5308 N   0  0  0  0  0  0  0  0  0  0  0  0
  -36.9186   63.6220   65.5595 O   0  0  0  0  0  0  0  0  0  0  0  0
  -35.8764   63.0000   65.7178 C   0  0  0  0  0  0  0  0  0  0  0  0
  -34.8416   61.3153   65.6973 H   0  0  0  0  0  0  0  0  0  0  0  0
  -33.6959   63.8676   64.8977 N   0  0  0  0  0  0  0  0  0  0  0  0
  -32.3849   63.2053   66.5814 O   0  0  0  0  0  0  0  0  0  0  0  0
  -33.6764   63.3232   67.1769 C   0  0  0  0  0  0  0  0  0  0  0  0
  -32.5084   63.5441   65.1857 C   0  0  0  0  0  0  0  0  0  0  0  0
  -34.6243   63.8018   66.0423 C   0  0  0  0  0  0  0  0  0  0  0  0
  -32.5058   62.2697   62.5833 O   0  0  0  0  0  0  0  0  0  0  0  0
  -31.4155   62.9407   62.9740 C   0  0  0  0  0  0  0  0  0  0  0  0
  -30.3106   63.0262   62.1169 C   0  0  0  0  0  0  0  0  0  0  0  0
  -29.1508   63.7167   62.5075 C   0  0  0  0  0  0  0  0  0  0  0  0
  -29.0866   64.3381   63.7558 C   0  0  0  0  0  0  0  0  0  0  0  0
  -30.1887   64.2611   64.6120 C   0  0  0  0  0  0  0  0  0  0  0  0
  -31.3490   63.5624   64.2269 C   0  0  0  0  0  0  0  0  0  0  0  0
  -32.5277   61.8616   61.7401 H   0  0  0  0  0  0  0  0  0  0  0  0
  -37.7123   61.5496   63.1001 O   0  0  0  0  0  0  0  0  0  0  0  0
  -36.8744   60.8239   63.6097 C   0  0  0  0  0  0  0  0  0  0  0  0
  -36.0244   60.0156   62.7293 O   0  0  0  0  0  0  0  0  0  0  0  0
  -35.6073   58.6886   63.1022 C   0  0  0  0  0  0  0  0  0  0  0  0
  -34.1753   58.3430   62.7133 C   0  0  0  0  0  0  0  0  0  0  0  0
  -36.5927   57.6922   62.5099 C   0  0  0  0  0  0  0  0  0  0  0  0
  -38.8978   56.9862   62.9390 N   0  0  0  0  0  0  0  0  0  0  0  0
  -37.4295   57.2834   64.6335 O   0  0  0  0  0  0  0  0  0  0  0  0
  -37.7087   57.3267   63.4572 C   0  0  0  0  0  0  0  0  0  0  0  0
  -39.5997   56.6880   63.5616 H   0  0  0  0  0  0  0  0  0  0  0  0
  -39.6023   59.4242   61.0912 N   0  0  0  0  0  0  0  0  0  0  0  0
  -38.0131   58.3147   59.9470 O   0  0  0  0  0  0  0  0  0  0  0  0
  -40.4836   59.5953   62.2556 C   0  0  0  0  0  0  0  0  0  0  0  0
  -41.7333   58.7037   62.1290 C   0  0  0  0  0  0  0  0  0  0  0  0
  -41.7165   57.7244   60.9669 C   0  0  0  0  0  0  0  0  0  0  0  0
  -40.6604   56.6272   61.1239 C   0  0  0  0  0  0  0  0  0  0  0  0
  -39.2264   57.0266   61.5094 C   0  0  0  0  0  0  0  0  0  0  0  0
  -38.8926   58.3229   60.7974 C   0  0  0  0  0  0  0  0  0  0  0  0
  -37.9025   60.9140   59.5371 Si  0  0  0  0  0  0  0  0  0  0  0  0
  -39.4884   60.4815   60.2396 O   0  0  0  0  0  0  0  0  0  0  0  0
  -38.0523   62.0435   58.6897 H   0  0  0  0  0  0  0  0  0  0  0  0
  -37.4045   59.8189   58.7827 H   0  0  0  0  0  0  0  0  0  0  0  0
  -36.9909   61.2231   60.5812 H   0  0  0  0  0  0  0  0  0  0  0  0
  -39.0738   59.5564   65.5363 C   0  0  0  0  0  0  0  0  0  0  0  0
  -38.1015   60.6978   65.8584 C   0  0  0  0  0  0  0  0  0  0  0  0
  -40.5495   59.7740   65.9115 C   0  0  0  0  0  0  0  0  0  0  0  0
  -41.4867   58.5504   65.8522 C   0  0  0  0  0  0  0  0  0  0  0  0
  -42.8617   59.0318   65.6865 N   0  0  0  0  0  0  0  0  0  0  0  0
  -44.0295   58.4116   66.0012 C   0  0  0  0  0  0  0  0  0  0  0  0
  -42.9516   60.3127   65.1236 O   0  0  0  0  0  0  0  0  0  0  0  0
  -44.0386   57.2912   66.5108 O   0  0  0  0  0  0  0  0  0  0  0  0
  -43.8846   60.5659   65.0436 H   0  0  0  0  0  0  0  0  0  0  0  0
  -45.3523   59.1269   65.7063 C   0  0  0  0  0  0  0  0  0  0  0  0
  -46.2924   59.2476   66.9134 C   0  0  0  0  0  0  0  0  0  0  0  0
  -47.7362   59.4959   66.4360 C   0  0  0  0  0  0  0  0  0  0  0  0
  -47.9879   59.0533   64.9821 C   0  0  0  0  0  0  0  0  0  0  0  0
  -49.2259   58.1575   64.7894 C   0  0  0  0  0  0  0  0  0  0  0  0
  -50.4820   58.7099   65.4953 C   0  0  0  0  0  0  0  0  0  0  0  0
  -50.8532   60.1592   65.1036 C   0  0  0  0  0  0  0  0  0  0  0  0
  -51.9628   60.2409   64.0489 C   0  0  0  0  0  0  0  0  0  0  0  0
  -51.5923   59.7002   62.6642 C   0  0  0  0  0  0  0  0  0  0  0  0
  -50.4628   60.5268   62.0229 C   0  0  0  0  0  0  0  0  0  0  0  0
  -49.4076   59.6800   61.2953 C   0  0  0  0  0  0  0  0  0  0  0  0
  -49.8094   58.2330   60.9913 C   0  0  0  0  0  0  0  0  0  0  0  0
  -49.7792   57.8673   59.4863 C   0  0  0  0  0  0  0  0  0  0  0  0
  -48.3581   57.9970   58.9017 C   0  0  0  0  0  0  0  0  0  0  0  0
  -47.4812   56.7391   58.9086 C   0  0  0  0  0  0  0  0  0  0  0  0
 46 47  1  0  0  0
 46 48  1  0  0  0
 46 45  1  0  0  0
 47 49  2  0  0  0
 47 51  1  0  0  0
 19 20  2  0  0  0
 37 38  1  0  0  0
 37 39  1  0  0  0
 37 40  1  0  0  0
 37 41  1  0  0  0
 48 50  1  0  0  0
 38 29  1  0  0  0
 45 44  1  0  0  0
 25 27  1  0  0  0
 25 35  1  0  0  0
 25 28  1  0  0  0
 21 20  1  0  0  0
 21 22  1  0  0  0
 44 42  1  0  0  0
  2  1  1  0  0  0
  2  4  1  0  0  0
  2  5  1  0  0  0
 26 27  2  0  0  0
 42 43  2  0  0  0
 29 31  1  0  0  0
 29 36  1  0  0  0
  3  4  2  0  0  0
 43  1  1  0  0  0
  6  9  2  0  0  0
  6 10  1  0  0  0
  1 20  1  0  0  0
 30 36  2  0  0  0
  7  8  1  0  0  0
  7  9  1  0  0  0
 22 24  1  0  0  0
 22 23  1  0  0  0
 11 12  1  0  0  0
 11 18  1  0  0  0
 24 27  1  0  0  0
  4 10  1  0  0  0
 51 52  1  0  0  0
 52 53  1  0  0  0
 53 54  1  0  0  0
 54 55  1  0  0  0
 55 56  1  0  0  0
 56 57  1  0  0  0
 57 58  1  0  0  0
 58 59  1  0  0  0
 59 60  1  0  0  0
 60 61  1  0  0  0
 61 62  1  0  0  0
 62 63  1  0  0  0
 63 64  1  0  0  0
 64 65  1  0  0  0
 31 32  1  0  0  0
 32 33  1  0  0  0
 33 34  1  0  0  0
 34 35  1  0  0  0
 35 36  1  0  0  0
  8 10  1  0  0  0
  9 17  1  0  0  0
 12 13  2  0  0  0
 12 17  1  0  0  0
 13 14  1  0  0  0
 14 15  2  0  0  0
 15 16  1  0  0  0
 16 17  2  0  0  0
M  END
> <minimizedAffinity>
-9.52339

> <CNNscore>
0.1933371276

> <CNNaffinity>
7.1274137497

> <CNN_VS>
1.3779937029

> <CNNaffinity_variance>
1.0176374912

$$$$
