/media/chris/experiments/cd1a-new-docking/inputs/ligands/1xz0_ligand.pdb


 65 67  0  0  0  0  0  0  0  0999 V2000
  -41.0678   57.9548   63.1070 C   0  0  0  0  0  0  0  0  0  0  0  0
  -40.1966   58.4274   64.1849 N   0  0  0  0  0  0  0  0  0  0  0  0
  -40.1620   60.6791   63.8658 O   0  0  0  0  0  0  0  0  0  0  0  0
  -39.8165   59.6815   64.4851 C   0  0  0  0  0  0  0  0  0  0  0  0
  -39.8375   57.7257   64.7746 H   0  0  0  0  0  0  0  0  0  0  0  0
  -38.1591   61.1953   65.5536 N   0  0  0  0  0  0  0  0  0  0  0  0
  -36.4243   59.7943   65.6926 O   0  0  0  0  0  0  0  0  0  0  0  0
  -37.5620   58.9329   65.6807 C   0  0  0  0  0  0  0  0  0  0  0  0
  -36.8967   61.1527   65.5951 C   0  0  0  0  0  0  0  0  0  0  0  0
  -38.8008   59.8678   65.6031 C   0  0  0  0  0  0  0  0  0  0  0  0
  -36.1280   62.6155   67.9755 O   0  0  0  0  0  0  0  0  0  0  0  0
  -35.6410   63.0078   66.7919 C   0  0  0  0  0  0  0  0  0  0  0  0
  -34.7638   64.0985   66.7308 C   0  0  0  0  0  0  0  0  0  0  0  0
  -34.2465   64.5356   65.4997 C   0  0  0  0  0  0  0  0  0  0  0  0
  -34.5926   63.8805   64.3166 C   0  0  0  0  0  0  0  0  0  0  0  0
  -35.4624   62.7878   64.3730 C   0  0  0  0  0  0  0  0  0  0  0  0
  -35.9894   62.3530   65.6042 C   0  0  0  0  0  0  0  0  0  0  0  0
  -35.8807   63.0690   68.7573 H   0  0  0  0  0  0  0  0  0  0  0  0
  -39.6255   56.7594   61.6150 O   0  0  0  0  0  0  0  0  0  0  0  0
  -40.1885   57.8089   61.8796 C   0  0  0  0  0  0  0  0  0  0  0  0
  -39.9443   58.9681   61.0149 O   0  0  0  0  0  0  0  0  0  0  0  0
  -38.6394   59.2315   60.4658 C   0  0  0  0  0  0  0  0  0  0  0  0
  -38.3710   58.5619   59.1237 C   0  0  0  0  0  0  0  0  0  0  0  0
  -37.5954   58.8312   61.4974 C   0  0  0  0  0  0  0  0  0  0  0  0
  -35.6877   59.8740   62.6242 N   0  0  0  0  0  0  0  0  0  0  0  0
  -37.5700   61.0469   62.1803 O   0  0  0  0  0  0  0  0  0  0  0  0
  -36.9418   60.0131   62.1699 C   0  0  0  0  0  0  0  0  0  0  0  0
  -35.2478   60.6687   63.0036 H   0  0  0  0  0  0  0  0  0  0  0  0
  -33.4986   58.7900   64.5957 N   0  0  0  0  0  0  0  0  0  0  0  0
  -34.9328   57.0697   64.3750 O   0  0  0  0  0  0  0  0  0  0  0  0
  -33.0552   60.1584   64.2909 C   0  0  0  0  0  0  0  0  0  0  0  0
  -32.3062   60.2016   62.9457 C   0  0  0  0  0  0  0  0  0  0  0  0
  -32.3378   58.9111   62.1436 C   0  0  0  0  0  0  0  0  0  0  0  0
  -33.7352   58.5641   61.6231 C   0  0  0  0  0  0  0  0  0  0  0  0
  -34.9252   58.6206   62.5955 C   0  0  0  0  0  0  0  0  0  0  0  0
  -34.4546   58.1097   63.9432 C   0  0  0  0  0  0  0  0  0  0  0  0
  -32.7683   58.9594   67.2342 Si  0  0  0  0  0  0  0  0  0  0  0  0
  -32.8913   58.1600   65.6399 O   0  0  0  0  0  0  0  0  0  0  0  0
  -32.0975   58.1000   68.1441 H   0  0  0  0  0  0  0  0  0  0  0  0
  -34.0710   59.2426   67.7235 H   0  0  0  0  0  0  0  0  0  0  0  0
  -32.0388   60.1704   67.1016 H   0  0  0  0  0  0  0  0  0  0  0  0
  -43.2137   59.1207   64.0715 C   0  0  0  0  0  0  0  0  0  0  0  0
  -42.3718   58.7469   62.8453 C   0  0  0  0  0  0  0  0  0  0  0  0
  -44.6811   59.5041   63.8160 C   0  0  0  0  0  0  0  0  0  0  0  0
  -45.5936   59.6859   65.0464 C   0  0  0  0  0  0  0  0  0  0  0  0
  -46.8256   58.9234   64.8219 N   0  0  0  0  0  0  0  0  0  0  0  0
  -47.4234   58.0060   65.6275 C   0  0  0  0  0  0  0  0  0  0  0  0
  -47.4515   59.2014   63.5986 O   0  0  0  0  0  0  0  0  0  0  0  0
  -46.9461   57.7139   66.7238 O   0  0  0  0  0  0  0  0  0  0  0  0
  -48.2554   58.6647   63.5173 H   0  0  0  0  0  0  0  0  0  0  0  0
  -48.7103   57.3255   65.1494 C   0  0  0  0  0  0  0  0  0  0  0  0
  -50.0023   58.0141   65.6098 C   0  0  0  0  0  0  0  0  0  0  0  0
  -50.7709   58.5637   64.3927 C   0  0  0  0  0  0  0  0  0  0  0  0
  -51.1758   60.0429   64.5379 C   0  0  0  0  0  0  0  0  0  0  0  0
  -50.9776   60.8899   63.2669 C   0  0  0  0  0  0  0  0  0  0  0  0
  -50.8220   60.0330   61.9929 C   0  0  0  0  0  0  0  0  0  0  0  0
  -49.5562   60.3446   61.1608 C   0  0  0  0  0  0  0  0  0  0  0  0
  -49.4501   59.5129   59.8772 C   0  0  0  0  0  0  0  0  0  0  0  0
  -50.0117   58.0906   59.9693 C   0  0  0  0  0  0  0  0  0  0  0  0
  -48.9692   57.1116   60.5392 C   0  0  0  0  0  0  0  0  0  0  0  0
  -48.5368   56.0176   59.5512 C   0  0  0  0  0  0  0  0  0  0  0  0
  -47.3372   56.3602   58.6618 C   0  0  0  0  0  0  0  0  0  0  0  0
  -47.5440   56.0341   57.1616 C   0  0  0  0  0  0  0  0  0  0  0  0
  -47.8383   57.3069   56.3421 C   0  0  0  0  0  0  0  0  0  0  0  0
  -47.2585   58.6263   56.8662 C   0  0  0  0  0  0  0  0  0  0  0  0
 46 47  1  0  0  0
 46 48  1  0  0  0
 46 45  1  0  0  0
 47 49  2  0  0  0
 47 51  1  0  0  0
 19 20  2  0  0  0
 37 38  1  0  0  0
 37 39  1  0  0  0
 37 40  1  0  0  0
 37 41  1  0  0  0
 48 50  1  0  0  0
 38 29  1  0  0  0
 45 44  1  0  0  0
 25 27  1  0  0  0
 25 35  1  0  0  0
 25 28  1  0  0  0
 21 20  1  0  0  0
 21 22  1  0  0  0
 44 42  1  0  0  0
  2  1  1  0  0  0
  2  4  1  0  0  0
  2  5  1  0  0  0
 26 27  2  0  0  0
 42 43  2  0  0  0
 29 31  1  0  0  0
 29 36  1  0  0  0
  3  4  2  0  0  0
 43  1  1  0  0  0
  6  9  2  0  0  0
  6 10  1  0  0  0
  1 20  1  0  0  0
 30 36  2  0  0  0
  7  8  1  0  0  0
  7  9  1  0  0  0
 22 24  1  0  0  0
 22 23  1  0  0  0
 11 12  1  0  0  0
 11 18  1  0  0  0
 24 27  1  0  0  0
  4 10  1  0  0  0
 51 52  1  0  0  0
 52 53  1  0  0  0
 53 54  1  0  0  0
 54 55  1  0  0  0
 55 56  1  0  0  0
 56 57  1  0  0  0
 57 58  1  0  0  0
 58 59  1  0  0  0
 59 60  1  0  0  0
 60 61  1  0  0  0
 61 62  1  0  0  0
 62 63  1  0  0  0
 63 64  1  0  0  0
 64 65  1  0  0  0
 31 32  1  0  0  0
 32 33  1  0  0  0
 33 34  1  0  0  0
 34 35  1  0  0  0
 35 36  1  0  0  0
  8 10  1  0  0  0
  9 17  1  0  0  0
 12 13  2  0  0  0
 12 17  1  0  0  0
 13 14  1  0  0  0
 14 15  2  0  0  0
 15 16  1  0  0  0
 16 17  2  0  0  0
M  END
> <minimizedAffinity>
-10.05305

> <CNNscore>
0.2428068072

> <CNNaffinity>
7.5204229355

> <CNN_VS>
1.8260098696

> <CNNaffinity_variance>
0.6002575159

$$$$
/media/chris/experiments/cd1a-new-docking/inputs/ligands/1xz0_ligand.pdb


 65 67  0  0  0  0  0  0  0  0999 V2000
  -39.8238   58.5698   63.9033 C   0  0  0  0  0  0  0  0  0  0  0  0
  -39.1276   59.7322   64.4585 N   0  0  0  0  0  0  0  0  0  0  0  0
  -37.6363   58.7969   65.8987 O   0  0  0  0  0  0  0  0  0  0  0  0
  -38.1370   59.7787   65.3662 C   0  0  0  0  0  0  0  0  0  0  0  0
  -39.4283   60.6057   64.1179 H   0  0  0  0  0  0  0  0  0  0  0  0
  -37.3384   62.0448   64.7283 N   0  0  0  0  0  0  0  0  0  0  0  0
  -35.5491   62.1872   66.0587 O   0  0  0  0  0  0  0  0  0  0  0  0
  -36.4058   61.2655   66.7318 C   0  0  0  0  0  0  0  0  0  0  0  0
  -36.2041   62.5909   64.8396 C   0  0  0  0  0  0  0  0  0  0  0  0
  -37.6789   61.1474   65.8487 C   0  0  0  0  0  0  0  0  0  0  0  0
  -33.8202   64.1641   65.3287 O   0  0  0  0  0  0  0  0  0  0  0  0
  -34.4542   64.3006   64.1577 C   0  0  0  0  0  0  0  0  0  0  0  0
  -33.9471   65.1820   63.1939 C   0  0  0  0  0  0  0  0  0  0  0  0
  -34.5994   65.3502   61.9608 C   0  0  0  0  0  0  0  0  0  0  0  0
  -35.7609   64.6312   61.6735 C   0  0  0  0  0  0  0  0  0  0  0  0
  -36.2673   63.7459   62.6292 C   0  0  0  0  0  0  0  0  0  0  0  0
  -35.6208   63.5818   63.8692 C   0  0  0  0  0  0  0  0  0  0  0  0
  -33.0410   64.6556   65.4995 H   0  0  0  0  0  0  0  0  0  0  0  0
  -41.1766   59.8636   62.4096 O   0  0  0  0  0  0  0  0  0  0  0  0
  -40.3352   58.9896   62.5384 C   0  0  0  0  0  0  0  0  0  0  0  0
  -39.8664   58.2911   61.3369 O   0  0  0  0  0  0  0  0  0  0  0  0
  -38.8449   58.8551   60.4930 C   0  0  0  0  0  0  0  0  0  0  0  0
  -38.7973   58.2761   59.0844 C   0  0  0  0  0  0  0  0  0  0  0  0
  -37.5042   58.7014   61.1952 C   0  0  0  0  0  0  0  0  0  0  0  0
  -35.9073   59.9252   62.5911 N   0  0  0  0  0  0  0  0  0  0  0  0
  -37.7181   60.9526   61.7075 O   0  0  0  0  0  0  0  0  0  0  0  0
  -37.0523   59.9600   61.8939 C   0  0  0  0  0  0  0  0  0  0  0  0
  -35.5886   60.7670   62.9898 H   0  0  0  0  0  0  0  0  0  0  0  0
  -33.7204   59.3099   64.7575 N   0  0  0  0  0  0  0  0  0  0  0  0
  -35.0813   57.5189   64.8331 O   0  0  0  0  0  0  0  0  0  0  0  0
  -33.3244   60.6179   64.2152 C   0  0  0  0  0  0  0  0  0  0  0  0
  -32.5488   60.4485   62.8952 C   0  0  0  0  0  0  0  0  0  0  0  0
  -32.5127   59.0338   62.3409 C   0  0  0  0  0  0  0  0  0  0  0  0
  -33.8839   58.5395   61.8724 C   0  0  0  0  0  0  0  0  0  0  0  0
  -35.0959   58.7208   62.8015 C   0  0  0  0  0  0  0  0  0  0  0  0
  -34.6349   58.4828   64.2262 C   0  0  0  0  0  0  0  0  0  0  0  0
  -31.9624   57.5364   65.8923 Si  0  0  0  0  0  0  0  0  0  0  0  0
  -33.1116   58.9057   65.9073 O   0  0  0  0  0  0  0  0  0  0  0  0
  -31.4705   57.3169   67.2062 H   0  0  0  0  0  0  0  0  0  0  0  0
  -30.8787   57.8373   65.0254 H   0  0  0  0  0  0  0  0  0  0  0  0
  -32.6250   56.3673   65.4335 H   0  0  0  0  0  0  0  0  0  0  0  0
  -41.5221   56.5981   64.2533 C   0  0  0  0  0  0  0  0  0  0  0  0
  -40.8994   57.8938   64.7878 C   0  0  0  0  0  0  0  0  0  0  0  0
  -42.8588   56.1613   64.8762 C   0  0  0  0  0  0  0  0  0  0  0  0
  -43.4662   57.0683   65.9660 C   0  0  0  0  0  0  0  0  0  0  0  0
  -44.7646   57.5544   65.4888 N   0  0  0  0  0  0  0  0  0  0  0  0
  -45.0375   58.6084   64.6749 C   0  0  0  0  0  0  0  0  0  0  0  0
  -45.8567   56.8076   65.9526 O   0  0  0  0  0  0  0  0  0  0  0  0
  -44.1354   59.3075   64.2139 O   0  0  0  0  0  0  0  0  0  0  0  0
  -46.6785   57.1832   65.5997 H   0  0  0  0  0  0  0  0  0  0  0  0
  -46.4979   58.9261   64.3372 C   0  0  0  0  0  0  0  0  0  0  0  0
  -47.0999   60.0836   65.1452 C   0  0  0  0  0  0  0  0  0  0  0  0
  -48.0230   59.5335   66.2495 C   0  0  0  0  0  0  0  0  0  0  0  0
  -49.4362   60.1465   66.2316 C   0  0  0  0  0  0  0  0  0  0  0  0
  -50.5561   59.1650   65.8385 C   0  0  0  0  0  0  0  0  0  0  0  0
  -50.1387   58.1990   64.7098 C   0  0  0  0  0  0  0  0  0  0  0  0
  -50.8998   58.4003   63.3787 C   0  0  0  0  0  0  0  0  0  0  0  0
  -50.8420   59.8398   62.8547 C   0  0  0  0  0  0  0  0  0  0  0  0
  -49.4916   60.2727   62.2751 C   0  0  0  0  0  0  0  0  0  0  0  0
  -49.5441   60.3655   60.7392 C   0  0  0  0  0  0  0  0  0  0  0  0
  -49.7106   59.0084   60.0387 C   0  0  0  0  0  0  0  0  0  0  0  0
  -48.7580   58.7419   58.8687 C   0  0  0  0  0  0  0  0  0  0  0  0
  -48.0532   57.3635   58.9237 C   0  0  0  0  0  0  0  0  0  0  0  0
  -47.0712   57.1837   57.7482 C   0  0  0  0  0  0  0  0  0  0  0  0
  -47.2463   58.1138   56.5416 C   0  0  0  0  0  0  0  0  0  0  0  0
 46 47  1  0  0  0
 46 48  1  0  0  0
 46 45  1  0  0  0
 47 49  2  0  0  0
 47 51  1  0  0  0
 19 20  2  0  0  0
 37 38  1  0  0  0
 37 39  1  0  0  0
 37 40  1  0  0  0
 37 41  1  0  0  0
 48 50  1  0  0  0
 38 29  1  0  0  0
 45 44  1  0  0  0
 25 27  1  0  0  0
 25 35  1  0  0  0
 25 28  1  0  0  0
 21 20  1  0  0  0
 21 22  1  0  0  0
 44 42  1  0  0  0
  2  1  1  0  0  0
  2  4  1  0  0  0
  2  5  1  0  0  0
 26 27  2  0  0  0
 42 43  2  0  0  0
 29 31  1  0  0  0
 29 36  1  0  0  0
  3  4  2  0  0  0
 43  1  1  0  0  0
  6  9  2  0  0  0
  6 10  1  0  0  0
  1 20  1  0  0  0
 30 36  2  0  0  0
  7  8  1  0  0  0
  7  9  1  0  0  0
 22 24  1  0  0  0
 22 23  1  0  0  0
 11 12  1  0  0  0
 11 18  1  0  0  0
 24 27  1  0  0  0
  4 10  1  0  0  0
 51 52  1  0  0  0
 52 53  1  0  0  0
 53 54  1  0  0  0
 54 55  1  0  0  0
 55 56  1  0  0  0
 56 57  1  0  0  0
 57 58  1  0  0  0
 58 59  1  0  0  0
 59 60  1  0  0  0
 60 61  1  0  0  0
 61 62  1  0  0  0
 62 63  1  0  0  0
 63 64  1  0  0  0
 64 65  1  0  0  0
 31 32  1  0  0  0
 32 33  1  0  0  0
 33 34  1  0  0  0
 34 35  1  0  0  0
 35 36  1  0  0  0
  8 10  1  0  0  0
  9 17  1  0  0  0
 12 13  2  0  0  0
 12 17  1  0  0  0
 13 14  1  0  0  0
 14 15  2  0  0  0
 15 16  1  0  0  0
 16 17  2  0  0  0
M  END
> <minimizedAffinity>
-9.52916

> <CNNscore>
0.2254960388

> <CNNaffinity>
7.4340362549

> <CNN_VS>
1.6763457060

> <CNNaffinity_variance>
0.7026063800

$$$$
/media/chris/experiments/cd1a-new-docking/inputs/ligands/1xz0_ligand.pdb


 65 67  0  0  0  0  0  0  0  0999 V2000
  -40.6661   59.3946   64.1959 C   0  0  0  0  0  0  0  0  0  0  0  0
  -39.5537   58.9191   63.3709 N   0  0  0  0  0  0  0  0  0  0  0  0
  -40.5844   58.2491   61.4573 O   0  0  0  0  0  0  0  0  0  0  0  0
  -39.5729   58.4061   62.1284 C   0  0  0  0  0  0  0  0  0  0  0  0
  -38.6633   58.9845   63.7860 H   0  0  0  0  0  0  0  0  0  0  0  0
  -37.2317   57.7131   62.5959 N   0  0  0  0  0  0  0  0  0  0  0  0
  -36.1803   58.8999   61.0218 O   0  0  0  0  0  0  0  0  0  0  0  0
  -37.4959   58.7229   60.4979 C   0  0  0  0  0  0  0  0  0  0  0  0
  -36.1280   58.2598   62.3124 C   0  0  0  0  0  0  0  0  0  0  0  0
  -38.2639   57.8824   61.5555 C   0  0  0  0  0  0  0  0  0  0  0  0
  -33.4902   59.0832   61.4403 O   0  0  0  0  0  0  0  0  0  0  0  0
  -33.6457   58.6383   62.6932 C   0  0  0  0  0  0  0  0  0  0  0  0
  -32.5422   58.5956   63.5552 C   0  0  0  0  0  0  0  0  0  0  0  0
  -32.6774   58.1240   64.8719 C   0  0  0  0  0  0  0  0  0  0  0  0
  -33.9202   57.6988   65.3446 C   0  0  0  0  0  0  0  0  0  0  0  0
  -35.0255   57.7453   64.4904 C   0  0  0  0  0  0  0  0  0  0  0  0
  -34.8913   58.2093   63.1678 C   0  0  0  0  0  0  0  0  0  0  0  0
  -32.6469   59.3652   61.1448 H   0  0  0  0  0  0  0  0  0  0  0  0
  -40.7078   60.9360   66.0282 O   0  0  0  0  0  0  0  0  0  0  0  0
  -40.1169   60.5273   65.0422 C   0  0  0  0  0  0  0  0  0  0  0  0
  -38.8792   61.2042   64.6411 O   0  0  0  0  0  0  0  0  0  0  0  0
  -37.5933   60.7506   65.1040 C   0  0  0  0  0  0  0  0  0  0  0  0
  -37.6458   59.8378   66.3229 C   0  0  0  0  0  0  0  0  0  0  0  0
  -36.7215   61.9691   65.3678 C   0  0  0  0  0  0  0  0  0  0  0  0
  -34.4027   62.5693   64.8592 N   0  0  0  0  0  0  0  0  0  0  0  0
  -34.9085   60.6230   65.8943 O   0  0  0  0  0  0  0  0  0  0  0  0
  -35.2457   61.6556   65.3619 C   0  0  0  0  0  0  0  0  0  0  0  0
  -33.4378   62.3830   64.9180 H   0  0  0  0  0  0  0  0  0  0  0  0
  -33.9515   63.6104   61.9322 N   0  0  0  0  0  0  0  0  0  0  0  0
  -36.1540   63.9110   62.2839 O   0  0  0  0  0  0  0  0  0  0  0  0
  -32.6138   63.1814   62.3663 C   0  0  0  0  0  0  0  0  0  0  0  0
  -31.9417   64.2731   63.2201 C   0  0  0  0  0  0  0  0  0  0  0  0
  -32.8316   65.4492   63.5872 C   0  0  0  0  0  0  0  0  0  0  0  0
  -33.9641   65.0671   64.5440 C   0  0  0  0  0  0  0  0  0  0  0  0
  -34.8171   63.8273   64.2275 C   0  0  0  0  0  0  0  0  0  0  0  0
  -35.0223   63.7695   62.7264 C   0  0  0  0  0  0  0  0  0  0  0  0
  -35.7303   63.6777   59.8454 Si  0  0  0  0  0  0  0  0  0  0  0  0
  -34.1216   63.8592   60.6036 O   0  0  0  0  0  0  0  0  0  0  0  0
  -35.6408   63.9936   58.4639 H   0  0  0  0  0  0  0  0  0  0  0  0
  -36.6515   64.5573   60.4733 H   0  0  0  0  0  0  0  0  0  0  0  0
  -36.1765   62.3382   59.9967 H   0  0  0  0  0  0  0  0  0  0  0  0
  -42.0462   57.1610   64.2247 C   0  0  0  0  0  0  0  0  0  0  0  0
  -41.4530   58.3381   65.0088 C   0  0  0  0  0  0  0  0  0  0  0  0
  -43.1668   56.3626   64.9121 C   0  0  0  0  0  0  0  0  0  0  0  0
  -43.8033   56.9743   66.1770 C   0  0  0  0  0  0  0  0  0  0  0  0
  -45.0285   57.6762   65.7820 N   0  0  0  0  0  0  0  0  0  0  0  0
  -46.2082   57.7808   66.4492 C   0  0  0  0  0  0  0  0  0  0  0  0
  -44.9396   58.3197   64.5396 O   0  0  0  0  0  0  0  0  0  0  0  0
  -46.3651   57.2565   67.5517 O   0  0  0  0  0  0  0  0  0  0  0  0
  -45.7808   58.7609   64.3430 H   0  0  0  0  0  0  0  0  0  0  0  0
  -47.3579   58.5625   65.8050 C   0  0  0  0  0  0  0  0  0  0  0  0
  -47.4471   60.0327   66.2362 C   0  0  0  0  0  0  0  0  0  0  0  0
  -48.8281   60.6085   65.8681 C   0  0  0  0  0  0  0  0  0  0  0  0
  -49.9725   59.5839   65.9843 C   0  0  0  0  0  0  0  0  0  0  0  0
  -51.1772   59.8609   65.0656 C   0  0  0  0  0  0  0  0  0  0  0  0
  -50.8914   60.9539   64.0144 C   0  0  0  0  0  0  0  0  0  0  0  0
  -50.9772   60.4716   62.5475 C   0  0  0  0  0  0  0  0  0  0  0  0
  -50.1613   59.2028   62.2740 C   0  0  0  0  0  0  0  0  0  0  0  0
  -50.9845   57.9439   61.9836 C   0  0  0  0  0  0  0  0  0  0  0  0
  -50.7837   57.4642   60.5345 C   0  0  0  0  0  0  0  0  0  0  0  0
  -49.7311   56.3552   60.3859 C   0  0  0  0  0  0  0  0  0  0  0  0
  -48.3077   56.8264   60.0703 C   0  0  0  0  0  0  0  0  0  0  0  0
  -48.2227   57.8784   58.9364 C   0  0  0  0  0  0  0  0  0  0  0  0
  -47.5742   57.2898   57.6670 C   0  0  0  0  0  0  0  0  0  0  0  0
  -47.2794   58.2608   56.5173 C   0  0  0  0  0  0  0  0  0  0  0  0
 46 47  1  0  0  0
 46 48  1  0  0  0
 46 45  1  0  0  0
 47 49  2  0  0  0
 47 51  1  0  0  0
 19 20  2  0  0  0
 37 38  1  0  0  0
 37 39  1  0  0  0
 37 40  1  0  0  0
 37 41  1  0  0  0
 48 50  1  0  0  0
 38 29  1  0  0  0
 45 44  1  0  0  0
 25 27  1  0  0  0
 25 35  1  0  0  0
 25 28  1  0  0  0
 21 20  1  0  0  0
 21 22  1  0  0  0
 44 42  1  0  0  0
  2  1  1  0  0  0
  2  4  1  0  0  0
  2  5  1  0  0  0
 26 27  2  0  0  0
 42 43  2  0  0  0
 29 31  1  0  0  0
 29 36  1  0  0  0
  3  4  2  0  0  0
 43  1  1  0  0  0
  6  9  2  0  0  0
  6 10  1  0  0  0
  1 20  1  0  0  0
 30 36  2  0  0  0
  7  8  1  0  0  0
  7  9  1  0  0  0
 22 24  1  0  0  0
 22 23  1  0  0  0
 11 12  1  0  0  0
 11 18  1  0  0  0
 24 27  1  0  0  0
  4 10  1  0  0  0
 51 52  1  0  0  0
 52 53  1  0  0  0
 53 54  1  0  0  0
 54 55  1  0  0  0
 55 56  1  0  0  0
 56 57  1  0  0  0
 57 58  1  0  0  0
 58 59  1  0  0  0
 59 60  1  0  0  0
 60 61  1  0  0  0
 61 62  1  0  0  0
 62 63  1  0  0  0
 63 64  1  0  0  0
 64 65  1  0  0  0
 31 32  1  0  0  0
 32 33  1  0  0  0
 33 34  1  0  0  0
 34 35  1  0  0  0
 35 36  1  0  0  0
  8 10  1  0  0  0
  9 17  1  0  0  0
 12 13  2  0  0  0
 12 17  1  0  0  0
 13 14  1  0  0  0
 14 15  2  0  0  0
 15 16  1  0  0  0
 16 17  2  0  0  0
M  END
> <minimizedAffinity>
-9.41873

> <CNNscore>
0.2140156180

> <CNNaffinity>
7.1674423218

> <CNN_VS>
1.5339446068

> <CNNaffinity_variance>
0.4382745624

$$$$
/media/chris/experiments/cd1a-new-docking/inputs/ligands/1xz0_ligand.pdb


 65 67  0  0  0  0  0  0  0  0999 V2000
  -40.4558   58.7525   63.2407 C   0  0  0  0  0  0  0  0  0  0  0  0
  -39.1596   58.6187   63.9088 N   0  0  0  0  0  0  0  0  0  0  0  0
  -38.1634   56.9269   62.7606 O   0  0  0  0  0  0  0  0  0  0  0  0
  -38.1509   57.7688   63.6490 C   0  0  0  0  0  0  0  0  0  0  0  0
  -39.0046   59.2408   64.6560 H   0  0  0  0  0  0  0  0  0  0  0  0
  -36.7141   59.1120   65.1693 N   0  0  0  0  0  0  0  0  0  0  0  0
  -34.7064   58.5272   64.3826 O   0  0  0  0  0  0  0  0  0  0  0  0
  -35.5438   57.4225   64.0437 C   0  0  0  0  0  0  0  0  0  0  0  0
  -35.5204   59.5105   65.0523 C   0  0  0  0  0  0  0  0  0  0  0  0
  -36.9548   57.7768   64.5899 C   0  0  0  0  0  0  0  0  0  0  0  0
  -37.0040   61.3219   66.7596 O   0  0  0  0  0  0  0  0  0  0  0  0
  -35.7466   61.6357   66.4243 C   0  0  0  0  0  0  0  0  0  0  0  0
  -35.1728   62.8158   66.9151 C   0  0  0  0  0  0  0  0  0  0  0  0
  -33.8582   63.1723   66.5702 C   0  0  0  0  0  0  0  0  0  0  0  0
  -33.0988   62.3475   65.7385 C   0  0  0  0  0  0  0  0  0  0  0  0
  -33.6646   61.1659   65.2514 C   0  0  0  0  0  0  0  0  0  0  0  0
  -34.9847   60.8104   65.5881 C   0  0  0  0  0  0  0  0  0  0  0  0
  -37.4947   61.8896   67.3207 H   0  0  0  0  0  0  0  0  0  0  0  0
  -41.1914   60.2284   61.5042 O   0  0  0  0  0  0  0  0  0  0  0  0
  -40.3582   59.9846   62.3614 C   0  0  0  0  0  0  0  0  0  0  0  0
  -39.2038   60.8806   62.4860 O   0  0  0  0  0  0  0  0  0  0  0  0
  -38.1744   60.9206   61.4798 C   0  0  0  0  0  0  0  0  0  0  0  0
  -38.1247   59.6944   60.5767 C   0  0  0  0  0  0  0  0  0  0  0  0
  -36.8379   61.1484   62.1700 C   0  0  0  0  0  0  0  0  0  0  0  0
  -36.1208   63.3542   62.9553 N   0  0  0  0  0  0  0  0  0  0  0  0
  -37.6562   62.1472   64.0959 O   0  0  0  0  0  0  0  0  0  0  0  0
  -36.8750   62.2684   63.1803 C   0  0  0  0  0  0  0  0  0  0  0  0
  -36.2003   64.1053   63.5866 H   0  0  0  0  0  0  0  0  0  0  0  0
  -33.1422   64.3446   62.9202 N   0  0  0  0  0  0  0  0  0  0  0  0
  -33.0894   62.4183   61.7577 O   0  0  0  0  0  0  0  0  0  0  0  0
  -33.8516   65.3809   63.6850 C   0  0  0  0  0  0  0  0  0  0  0  0
  -34.5492   66.3755   62.7379 C   0  0  0  0  0  0  0  0  0  0  0  0
  -34.5248   65.9962   61.2664 C   0  0  0  0  0  0  0  0  0  0  0  0
  -35.3597   64.7512   60.9553 C   0  0  0  0  0  0  0  0  0  0  0  0
  -35.1854   63.5014   61.8343 C   0  0  0  0  0  0  0  0  0  0  0  0
  -33.7161   63.3772   62.1872 C   0  0  0  0  0  0  0  0  0  0  0  0
  -30.9286   65.3518   64.1887 Si  0  0  0  0  0  0  0  0  0  0  0  0
  -31.7808   64.3624   62.9678 O   0  0  0  0  0  0  0  0  0  0  0  0
  -29.5262   65.1976   64.0280 H   0  0  0  0  0  0  0  0  0  0  0  0
  -31.3054   64.9261   65.4900 H   0  0  0  0  0  0  0  0  0  0  0  0
  -31.2771   66.7178   64.0181 H   0  0  0  0  0  0  0  0  0  0  0  0
  -41.5415   58.2550   65.5791 C   0  0  0  0  0  0  0  0  0  0  0  0
  -41.7224   58.7239   64.1302 C   0  0  0  0  0  0  0  0  0  0  0  0
  -42.8085   57.8091   66.3284 C   0  0  0  0  0  0  0  0  0  0  0  0
  -43.8466   56.9826   65.5418 C   0  0  0  0  0  0  0  0  0  0  0  0
  -45.1764   57.5388   65.8104 N   0  0  0  0  0  0  0  0  0  0  0  0
  -45.7737   58.6309   65.2642 C   0  0  0  0  0  0  0  0  0  0  0  0
  -45.9096   56.8227   66.7669 O   0  0  0  0  0  0  0  0  0  0  0  0
  -45.2039   59.3073   64.4082 O   0  0  0  0  0  0  0  0  0  0  0  0
  -46.7739   57.2443   66.8939 H   0  0  0  0  0  0  0  0  0  0  0  0
  -47.1789   59.0209   65.7347 C   0  0  0  0  0  0  0  0  0  0  0  0
  -48.3179   58.4288   64.8936 C   0  0  0  0  0  0  0  0  0  0  0  0
  -49.6579   58.5770   65.6396 C   0  0  0  0  0  0  0  0  0  0  0  0
  -50.2000   60.0190   65.6496 C   0  0  0  0  0  0  0  0  0  0  0  0
  -49.9623   60.8026   64.3452 C   0  0  0  0  0  0  0  0  0  0  0  0
  -51.1777   60.7689   63.3949 C   0  0  0  0  0  0  0  0  0  0  0  0
  -50.8718   60.2220   61.9810 C   0  0  0  0  0  0  0  0  0  0  0  0
  -50.4985   58.7351   61.9699 C   0  0  0  0  0  0  0  0  0  0  0  0
  -49.0705   58.4212   61.5124 C   0  0  0  0  0  0  0  0  0  0  0  0
  -48.9220   58.5796   59.9882 C   0  0  0  0  0  0  0  0  0  0  0  0
  -49.3496   57.3395   59.1887 C   0  0  0  0  0  0  0  0  0  0  0  0
  -48.2735   56.2651   59.0008 C   0  0  0  0  0  0  0  0  0  0  0  0
  -47.8801   56.0103   57.5243 C   0  0  0  0  0  0  0  0  0  0  0  0
  -48.1762   57.2390   56.6406 C   0  0  0  0  0  0  0  0  0  0  0  0
  -47.0693   58.2927   56.5135 C   0  0  0  0  0  0  0  0  0  0  0  0
 46 47  1  0  0  0
 46 48  1  0  0  0
 46 45  1  0  0  0
 47 49  2  0  0  0
 47 51  1  0  0  0
 19 20  2  0  0  0
 37 38  1  0  0  0
 37 39  1  0  0  0
 37 40  1  0  0  0
 37 41  1  0  0  0
 48 50  1  0  0  0
 38 29  1  0  0  0
 45 44  1  0  0  0
 25 27  1  0  0  0
 25 35  1  0  0  0
 25 28  1  0  0  0
 21 20  1  0  0  0
 21 22  1  0  0  0
 44 42  1  0  0  0
  2  1  1  0  0  0
  2  4  1  0  0  0
  2  5  1  0  0  0
 26 27  2  0  0  0
 42 43  2  0  0  0
 29 31  1  0  0  0
 29 36  1  0  0  0
  3  4  2  0  0  0
 43  1  1  0  0  0
  6  9  2  0  0  0
  6 10  1  0  0  0
  1 20  1  0  0  0
 30 36  2  0  0  0
  7  8  1  0  0  0
  7  9  1  0  0  0
 22 24  1  0  0  0
 22 23  1  0  0  0
 11 12  1  0  0  0
 11 18  1  0  0  0
 24 27  1  0  0  0
  4 10  1  0  0  0
 51 52  1  0  0  0
 52 53  1  0  0  0
 53 54  1  0  0  0
 54 55  1  0  0  0
 55 56  1  0  0  0
 56 57  1  0  0  0
 57 58  1  0  0  0
 58 59  1  0  0  0
 59 60  1  0  0  0
 60 61  1  0  0  0
 61 62  1  0  0  0
 62 63  1  0  0  0
 63 64  1  0  0  0
 64 65  1  0  0  0
 31 32  1  0  0  0
 32 33  1  0  0  0
 33 34  1  0  0  0
 34 35  1  0  0  0
 35 36  1  0  0  0
  8 10  1  0  0  0
  9 17  1  0  0  0
 12 13  2  0  0  0
 12 17  1  0  0  0
 13 14  1  0  0  0
 14 15  2  0  0  0
 15 16  1  0  0  0
 16 17  2  0  0  0
M  END
> <minimizedAffinity>
-8.64833

> <CNNscore>
0.1814237088

> <CNNaffinity>
7.2278223038

> <CNN_VS>
1.3112983704

> <CNNaffinity_variance>
0.2975690961

$$$$
/media/chris/experiments/cd1a-new-docking/inputs/ligands/1xz0_ligand.pdb


 65 67  0  0  0  0  0  0  0  0999 V2000
  -42.1449   59.7106   62.2605 C   0  0  0  0  0  0  0  0  0  0  0  0
  -40.8669   59.2514   61.7128 N   0  0  0  0  0  0  0  0  0  0  0  0
  -41.4459   58.4470   59.6657 O   0  0  0  0  0  0  0  0  0  0  0  0
  -40.6050   58.6820   60.5235 C   0  0  0  0  0  0  0  0  0  0  0  0
  -40.0871   59.3777   62.3004 H   0  0  0  0  0  0  0  0  0  0  0  0
  -38.5149   57.7617   61.5056 N   0  0  0  0  0  0  0  0  0  0  0  0
  -37.0349   59.1600   60.5858 O   0  0  0  0  0  0  0  0  0  0  0  0
  -38.1330   59.1731   59.6745 C   0  0  0  0  0  0  0  0  0  0  0  0
  -37.3750   58.2804   61.6761 C   0  0  0  0  0  0  0  0  0  0  0  0
  -39.1862   58.1954   60.2656 C   0  0  0  0  0  0  0  0  0  0  0  0
  -34.5432   58.8938   61.7138 O   0  0  0  0  0  0  0  0  0  0  0  0
  -35.0939   58.3223   62.7918 C   0  0  0  0  0  0  0  0  0  0  0  0
  -34.2997   58.0497   63.9132 C   0  0  0  0  0  0  0  0  0  0  0  0
  -34.8518   57.4419   65.0534 C   0  0  0  0  0  0  0  0  0  0  0  0
  -36.2069   57.1087   65.0888 C   0  0  0  0  0  0  0  0  0  0  0  0
  -37.0049   57.3844   63.9748 C   0  0  0  0  0  0  0  0  0  0  0  0
  -36.4526   57.9855   62.8275 C   0  0  0  0  0  0  0  0  0  0  0  0
  -33.6316   59.1104   61.7127 H   0  0  0  0  0  0  0  0  0  0  0  0
  -42.1807   62.0136   62.9164 O   0  0  0  0  0  0  0  0  0  0  0  0
  -41.8234   60.8764   63.1762 C   0  0  0  0  0  0  0  0  0  0  0  0
  -41.0055   60.6594   64.3741 O   0  0  0  0  0  0  0  0  0  0  0  0
  -39.9384   59.6925   64.3877 C   0  0  0  0  0  0  0  0  0  0  0  0
  -40.2482   58.4195   65.1656 C   0  0  0  0  0  0  0  0  0  0  0  0
  -38.6846   60.3698   64.9203 C   0  0  0  0  0  0  0  0  0  0  0  0
  -36.8127   61.7837   64.2180 N   0  0  0  0  0  0  0  0  0  0  0  0
  -38.4688   61.2334   62.7793 O   0  0  0  0  0  0  0  0  0  0  0  0
  -37.9762   61.2066   63.8838 C   0  0  0  0  0  0  0  0  0  0  0  0
  -36.3271   62.2744   63.5161 H   0  0  0  0  0  0  0  0  0  0  0  0
  -34.7745   63.7342   65.5948 N   0  0  0  0  0  0  0  0  0  0  0  0
  -36.4123   63.4928   67.1194 O   0  0  0  0  0  0  0  0  0  0  0  0
  -34.1641   63.4477   64.2882 C   0  0  0  0  0  0  0  0  0  0  0  0
  -33.4165   62.1014   64.3194 C   0  0  0  0  0  0  0  0  0  0  0  0
  -33.6095   61.2812   65.5843 C   0  0  0  0  0  0  0  0  0  0  0  0
  -35.0396   60.7593   65.7468 C   0  0  0  0  0  0  0  0  0  0  0  0
  -36.2126   61.7354   65.5561 C   0  0  0  0  0  0  0  0  0  0  0  0
  -35.8084   63.0745   66.1411 C   0  0  0  0  0  0  0  0  0  0  0  0
  -34.9533   65.2282   67.8882 Si  0  0  0  0  0  0  0  0  0  0  0  0
  -34.2498   64.7679   66.3105 O   0  0  0  0  0  0  0  0  0  0  0  0
  -34.2309   66.3258   68.4265 H   0  0  0  0  0  0  0  0  0  0  0  0
  -34.8751   64.1266   68.7809 H   0  0  0  0  0  0  0  0  0  0  0  0
  -36.3128   65.5978   67.7105 H   0  0  0  0  0  0  0  0  0  0  0  0
  -43.8506   59.0784   64.1540 C   0  0  0  0  0  0  0  0  0  0  0  0
  -43.0655   58.6482   62.9088 C   0  0  0  0  0  0  0  0  0  0  0  0
  -44.4090   57.9562   65.0453 C   0  0  0  0  0  0  0  0  0  0  0  0
  -45.1580   58.3724   66.3280 C   0  0  0  0  0  0  0  0  0  0  0  0
  -46.5780   58.0499   66.1565 N   0  0  0  0  0  0  0  0  0  0  0  0
  -47.6235   58.8863   65.9221 C   0  0  0  0  0  0  0  0  0  0  0  0
  -46.8657   56.6811   66.2520 O   0  0  0  0  0  0  0  0  0  0  0  0
  -47.4555   60.1007   65.8117 O   0  0  0  0  0  0  0  0  0  0  0  0
  -47.8177   56.5414   66.1294 H   0  0  0  0  0  0  0  0  0  0  0  0
  -49.0326   58.2966   65.8012 C   0  0  0  0  0  0  0  0  0  0  0  0
  -49.4128   57.8440   64.3849 C   0  0  0  0  0  0  0  0  0  0  0  0
  -50.8232   58.3518   64.0285 C   0  0  0  0  0  0  0  0  0  0  0  0
  -50.9976   59.8700   64.2234 C   0  0  0  0  0  0  0  0  0  0  0  0
  -50.8543   60.7026   62.9357 C   0  0  0  0  0  0  0  0  0  0  0  0
  -49.5550   60.3935   62.1627 C   0  0  0  0  0  0  0  0  0  0  0  0
  -49.6615   60.5744   60.6304 C   0  0  0  0  0  0  0  0  0  0  0  0
  -49.5313   59.2609   59.8507 C   0  0  0  0  0  0  0  0  0  0  0  0
  -50.4435   58.1246   60.3235 C   0  0  0  0  0  0  0  0  0  0  0  0
  -49.6270   56.9465   60.8856 C   0  0  0  0  0  0  0  0  0  0  0  0
  -49.1208   55.9713   59.8119 C   0  0  0  0  0  0  0  0  0  0  0  0
  -47.6427   56.1078   59.4323 C   0  0  0  0  0  0  0  0  0  0  0  0
  -47.3900   56.2898   57.9148 C   0  0  0  0  0  0  0  0  0  0  0  0
  -47.8509   57.6785   57.4277 C   0  0  0  0  0  0  0  0  0  0  0  0
  -47.7271   57.9705   55.9274 C   0  0  0  0  0  0  0  0  0  0  0  0
 46 47  1  0  0  0
 46 48  1  0  0  0
 46 45  1  0  0  0
 47 49  2  0  0  0
 47 51  1  0  0  0
 19 20  2  0  0  0
 37 38  1  0  0  0
 37 39  1  0  0  0
 37 40  1  0  0  0
 37 41  1  0  0  0
 48 50  1  0  0  0
 38 29  1  0  0  0
 45 44  1  0  0  0
 25 27  1  0  0  0
 25 35  1  0  0  0
 25 28  1  0  0  0
 21 20  1  0  0  0
 21 22  1  0  0  0
 44 42  1  0  0  0
  2  1  1  0  0  0
  2  4  1  0  0  0
  2  5  1  0  0  0
 26 27  2  0  0  0
 42 43  2  0  0  0
 29 31  1  0  0  0
 29 36  1  0  0  0
  3  4  2  0  0  0
 43  1  1  0  0  0
  6  9  2  0  0  0
  6 10  1  0  0  0
  1 20  1  0  0  0
 30 36  2  0  0  0
  7  8  1  0  0  0
  7  9  1  0  0  0
 22 24  1  0  0  0
 22 23  1  0  0  0
 11 12  1  0  0  0
 11 18  1  0  0  0
 24 27  1  0  0  0
  4 10  1  0  0  0
 51 52  1  0  0  0
 52 53  1  0  0  0
 53 54  1  0  0  0
 54 55  1  0  0  0
 55 56  1  0  0  0
 56 57  1  0  0  0
 57 58  1  0  0  0
 58 59  1  0  0  0
 59 60  1  0  0  0
 60 61  1  0  0  0
 61 62  1  0  0  0
 62 63  1  0  0  0
 63 64  1  0  0  0
 64 65  1  0  0  0
 31 32  1  0  0  0
 32 33  1  0  0  0
 33 34  1  0  0  0
 34 35  1  0  0  0
 35 36  1  0  0  0
  8 10  1  0  0  0
  9 17  1  0  0  0
 12 13  2  0  0  0
 12 17  1  0  0  0
 13 14  1  0  0  0
 14 15  2  0  0  0
 15 16  1  0  0  0
 16 17  2  0  0  0
M  END
> <minimizedAffinity>
-10.02407

> <CNNscore>
0.1795943379

> <CNNaffinity>
7.4826555252

> <CNN_VS>
1.3438425064

> <CNNaffinity_variance>
0.9163070917

$$$$
/media/chris/experiments/cd1a-new-docking/inputs/ligands/1xz0_ligand.pdb


 65 67  0  0  0  0  0  0  0  0999 V2000
  -42.9254   58.6656   65.5878 C   0  0  0  0  0  0  0  0  0  0  0  0
  -42.2113   57.7529   64.6927 N   0  0  0  0  0  0  0  0  0  0  0  0
  -42.3652   55.7550   65.7686 O   0  0  0  0  0  0  0  0  0  0  0  0
  -41.9853   56.4342   64.8239 C   0  0  0  0  0  0  0  0  0  0  0  0
  -41.8437   58.1644   63.8773 H   0  0  0  0  0  0  0  0  0  0  0  0
  -40.2029   56.7140   63.1136 N   0  0  0  0  0  0  0  0  0  0  0  0
  -41.1632   55.6359   61.4085 O   0  0  0  0  0  0  0  0  0  0  0  0
  -41.7576   55.0486   62.5653 C   0  0  0  0  0  0  0  0  0  0  0  0
  -40.2410   56.6513   61.8519 C   0  0  0  0  0  0  0  0  0  0  0  0
  -41.1040   55.7574   63.7840 C   0  0  0  0  0  0  0  0  0  0  0  0
  -40.9035   57.1928   59.0833 O   0  0  0  0  0  0  0  0  0  0  0  0
  -39.7819   57.7167   59.5926 C   0  0  0  0  0  0  0  0  0  0  0  0
  -38.9664   58.5230   58.7879 C   0  0  0  0  0  0  0  0  0  0  0  0
  -37.7793   59.0770   59.2961 C   0  0  0  0  0  0  0  0  0  0  0  0
  -37.3993   58.8390   60.6180 C   0  0  0  0  0  0  0  0  0  0  0  0
  -38.2127   58.0404   61.4268 C   0  0  0  0  0  0  0  0  0  0  0  0
  -39.3984   57.4767   60.9178 C   0  0  0  0  0  0  0  0  0  0  0  0
  -41.1400   57.3672   58.1936 H   0  0  0  0  0  0  0  0  0  0  0  0
  -42.1476   60.1675   67.2833 O   0  0  0  0  0  0  0  0  0  0  0  0
  -41.8633   59.4345   66.3504 C   0  0  0  0  0  0  0  0  0  0  0  0
  -40.4613   59.3584   65.9261 O   0  0  0  0  0  0  0  0  0  0  0  0
  -39.8904   60.3450   65.0461 C   0  0  0  0  0  0  0  0  0  0  0  0
  -40.2134   60.1396   63.5713 C   0  0  0  0  0  0  0  0  0  0  0  0
  -38.3875   60.3825   65.2787 C   0  0  0  0  0  0  0  0  0  0  0  0
  -36.3508   60.3193   63.9208 N   0  0  0  0  0  0  0  0  0  0  0  0
  -38.1996   61.4103   63.2088 O   0  0  0  0  0  0  0  0  0  0  0  0
  -37.6060   60.7736   64.0488 C   0  0  0  0  0  0  0  0  0  0  0  0
  -35.8720   60.5270   63.0860 H   0  0  0  0  0  0  0  0  0  0  0  0
  -33.4690   59.0753   63.8706 N   0  0  0  0  0  0  0  0  0  0  0  0
  -33.5526   60.1773   65.8312 O   0  0  0  0  0  0  0  0  0  0  0  0
  -34.0680   58.6341   62.6023 C   0  0  0  0  0  0  0  0  0  0  0  0
  -34.9642   57.4008   62.8228 C   0  0  0  0  0  0  0  0  0  0  0  0
  -35.1923   57.0159   64.2753 C   0  0  0  0  0  0  0  0  0  0  0  0
  -36.0204   58.0483   65.0450 C   0  0  0  0  0  0  0  0  0  0  0  0
  -35.6407   59.5346   64.9372 C   0  0  0  0  0  0  0  0  0  0  0  0
  -34.1280   59.6310   64.8999 C   0  0  0  0  0  0  0  0  0  0  0  0
  -30.9880   59.8739   63.0161 Si  0  0  0  0  0  0  0  0  0  0  0  0
  -32.1233   58.9146   64.0093 O   0  0  0  0  0  0  0  0  0  0  0  0
  -29.6533   59.5216   63.3495 H   0  0  0  0  0  0  0  0  0  0  0  0
  -31.1896   61.2566   63.2690 H   0  0  0  0  0  0  0  0  0  0  0  0
  -31.2189   59.6056   61.6410 H   0  0  0  0  0  0  0  0  0  0  0  0
  -45.3214   57.6147   65.8087 C   0  0  0  0  0  0  0  0  0  0  0  0
  -44.0241   58.0601   66.4947 C   0  0  0  0  0  0  0  0  0  0  0  0
  -46.5546   57.4283   66.7088 C   0  0  0  0  0  0  0  0  0  0  0  0
  -47.1344   58.6846   67.3906 C   0  0  0  0  0  0  0  0  0  0  0  0
  -47.4832   59.6543   66.3476 N   0  0  0  0  0  0  0  0  0  0  0  0
  -48.7106   60.0976   65.9669 C   0  0  0  0  0  0  0  0  0  0  0  0
  -46.3761   60.1802   65.6670 O   0  0  0  0  0  0  0  0  0  0  0  0
  -49.7332   59.6961   66.5218 O   0  0  0  0  0  0  0  0  0  0  0  0
  -46.6792   60.8110   64.9953 H   0  0  0  0  0  0  0  0  0  0  0  0
  -48.8109   61.1104   64.8214 C   0  0  0  0  0  0  0  0  0  0  0  0
  -48.0811   60.6924   63.5376 C   0  0  0  0  0  0  0  0  0  0  0  0
  -48.6565   59.3635   63.0113 C   0  0  0  0  0  0  0  0  0  0  0  0
  -50.1932   59.3588   62.9029 C   0  0  0  0  0  0  0  0  0  0  0  0
  -50.7516   60.0977   61.6724 C   0  0  0  0  0  0  0  0  0  0  0  0
  -49.6496   60.5407   60.6871 C   0  0  0  0  0  0  0  0  0  0  0  0
  -49.3591   59.5304   59.5528 C   0  0  0  0  0  0  0  0  0  0  0  0
  -50.3808   58.3901   59.4753 C   0  0  0  0  0  0  0  0  0  0  0  0
  -49.9391   57.0694   60.1137 C   0  0  0  0  0  0  0  0  0  0  0  0
  -48.4053   56.9795   60.2129 C   0  0  0  0  0  0  0  0  0  0  0  0
  -47.7989   55.8022   59.4344 C   0  0  0  0  0  0  0  0  0  0  0  0
  -46.9466   56.1771   58.2176 C   0  0  0  0  0  0  0  0  0  0  0  0
  -47.6955   56.0875   56.8645 C   0  0  0  0  0  0  0  0  0  0  0  0
  -48.0346   57.4871   56.3127 C   0  0  0  0  0  0  0  0  0  0  0  0
  -47.1182   58.6442   56.7284 C   0  0  0  0  0  0  0  0  0  0  0  0
 46 47  1  0  0  0
 46 48  1  0  0  0
 46 45  1  0  0  0
 47 49  2  0  0  0
 47 51  1  0  0  0
 19 20  2  0  0  0
 37 38  1  0  0  0
 37 39  1  0  0  0
 37 40  1  0  0  0
 37 41  1  0  0  0
 48 50  1  0  0  0
 38 29  1  0  0  0
 45 44  1  0  0  0
 25 27  1  0  0  0
 25 35  1  0  0  0
 25 28  1  0  0  0
 21 20  1  0  0  0
 21 22  1  0  0  0
 44 42  1  0  0  0
  2  1  1  0  0  0
  2  4  1  0  0  0
  2  5  1  0  0  0
 26 27  2  0  0  0
 42 43  2  0  0  0
 29 31  1  0  0  0
 29 36  1  0  0  0
  3  4  2  0  0  0
 43  1  1  0  0  0
  6  9  2  0  0  0
  6 10  1  0  0  0
  1 20  1  0  0  0
 30 36  2  0  0  0
  7  8  1  0  0  0
  7  9  1  0  0  0
 22 24  1  0  0  0
 22 23  1  0  0  0
 11 12  1  0  0  0
 11 18  1  0  0  0
 24 27  1  0  0  0
  4 10  1  0  0  0
 51 52  1  0  0  0
 52 53  1  0  0  0
 53 54  1  0  0  0
 54 55  1  0  0  0
 55 56  1  0  0  0
 56 57  1  0  0  0
 57 58  1  0  0  0
 58 59  1  0  0  0
 59 60  1  0  0  0
 60 61  1  0  0  0
 61 62  1  0  0  0
 62 63  1  0  0  0
 63 64  1  0  0  0
 64 65  1  0  0  0
 31 32  1  0  0  0
 32 33  1  0  0  0
 33 34  1  0  0  0
 34 35  1  0  0  0
 35 36  1  0  0  0
  8 10  1  0  0  0
  9 17  1  0  0  0
 12 13  2  0  0  0
 12 17  1  0  0  0
 13 14  1  0  0  0
 14 15  2  0  0  0
 15 16  1  0  0  0
 16 17  2  0  0  0
M  END
> <minimizedAffinity>
-9.36785

> <CNNscore>
0.1743145287

> <CNNaffinity>
7.4505872726

> <CNN_VS>
1.2987456322

> <CNNaffinity_variance>
1.2216613293

$$$$
/media/chris/experiments/cd1a-new-docking/inputs/ligands/1xz0_ligand.pdb


 65 67  0  0  0  0  0  0  0  0999 V2000
  -40.9424   59.0587   63.4335 C   0  0  0  0  0  0  0  0  0  0  0  0
  -39.6583   58.9026   64.1197 N   0  0  0  0  0  0  0  0  0  0  0  0
  -39.0784   56.7563   63.6399 O   0  0  0  0  0  0  0  0  0  0  0  0
  -38.8500   57.8301   64.1811 C   0  0  0  0  0  0  0  0  0  0  0  0
  -39.3412   59.6976   64.6061 H   0  0  0  0  0  0  0  0  0  0  0  0
  -36.4846   58.5660   64.3895 N   0  0  0  0  0  0  0  0  0  0  0  0
  -35.5885   56.6847   65.1954 O   0  0  0  0  0  0  0  0  0  0  0  0
  -36.9559   56.6143   65.5977 C   0  0  0  0  0  0  0  0  0  0  0  0
  -35.4085   57.9060   64.4510 C   0  0  0  0  0  0  0  0  0  0  0  0
  -37.6199   57.9175   65.0729 C   0  0  0  0  0  0  0  0  0  0  0  0
  -35.0517   59.0268   61.8027 O   0  0  0  0  0  0  0  0  0  0  0  0
  -33.9828   58.8984   62.5983 C   0  0  0  0  0  0  0  0  0  0  0  0
  -32.7265   59.3203   62.1440 C   0  0  0  0  0  0  0  0  0  0  0  0
  -31.5877   59.1877   62.9562 C   0  0  0  0  0  0  0  0  0  0  0  0
  -31.6940   58.6406   64.2361 C   0  0  0  0  0  0  0  0  0  0  0  0
  -32.9463   58.2240   64.6964 C   0  0  0  0  0  0  0  0  0  0  0  0
  -34.0878   58.3476   63.8814 C   0  0  0  0  0  0  0  0  0  0  0  0
  -34.9573   59.3984   60.9478 H   0  0  0  0  0  0  0  0  0  0  0  0
  -41.6106   60.5636   61.6946 O   0  0  0  0  0  0  0  0  0  0  0  0
  -40.8321   60.3229   62.6026 C   0  0  0  0  0  0  0  0  0  0  0  0
  -39.7272   61.2579   62.8395 O   0  0  0  0  0  0  0  0  0  0  0  0
  -38.5035   61.1783   62.0845 C   0  0  0  0  0  0  0  0  0  0  0  0
  -38.4201   59.9864   61.1390 C   0  0  0  0  0  0  0  0  0  0  0  0
  -37.3366   61.1875   63.0605 C   0  0  0  0  0  0  0  0  0  0  0  0
  -35.4780   62.5881   63.8219 N   0  0  0  0  0  0  0  0  0  0  0  0
  -36.6558   63.1138   61.9640 O   0  0  0  0  0  0  0  0  0  0  0  0
  -36.4621   62.4099   62.9286 C   0  0  0  0  0  0  0  0  0  0  0  0
  -34.8735   63.3539   63.6900 H   0  0  0  0  0  0  0  0  0  0  0  0
  -35.8701   63.1525   66.8850 N   0  0  0  0  0  0  0  0  0  0  0  0
  -36.9156   61.1870   66.5549 O   0  0  0  0  0  0  0  0  0  0  0  0
  -35.0951   64.3074   66.4078 C   0  0  0  0  0  0  0  0  0  0  0  0
  -33.5974   63.9591   66.3179 C   0  0  0  0  0  0  0  0  0  0  0  0
  -33.2564   62.4961   66.5489 C   0  0  0  0  0  0  0  0  0  0  0  0
  -33.7778   61.5778   65.4404 C   0  0  0  0  0  0  0  0  0  0  0  0
  -35.2387   61.7222   64.9821 C   0  0  0  0  0  0  0  0  0  0  0  0
  -36.0870   62.0158   66.2041 C   0  0  0  0  0  0  0  0  0  0  0  0
  -36.5948   61.7997   69.1583 Si  0  0  0  0  0  0  0  0  0  0  0  0
  -36.4256   63.2487   68.1252 O   0  0  0  0  0  0  0  0  0  0  0  0
  -37.1984   62.1649   70.3907 H   0  0  0  0  0  0  0  0  0  0  0  0
  -35.3124   61.2425   69.4062 H   0  0  0  0  0  0  0  0  0  0  0  0
  -37.4081   60.8405   68.4989 H   0  0  0  0  0  0  0  0  0  0  0  0
  -42.0358   58.7655   65.8027 C   0  0  0  0  0  0  0  0  0  0  0  0
  -42.2249   58.9946   64.2981 C   0  0  0  0  0  0  0  0  0  0  0  0
  -43.2616   58.2718   66.5897 C   0  0  0  0  0  0  0  0  0  0  0  0
  -44.1677   57.2237   65.9116 C   0  0  0  0  0  0  0  0  0  0  0  0
  -45.5625   57.6420   66.0828 N   0  0  0  0  0  0  0  0  0  0  0  0
  -46.3263   58.4256   65.2764 C   0  0  0  0  0  0  0  0  0  0  0  0
  -46.1650   57.1487   67.2486 O   0  0  0  0  0  0  0  0  0  0  0  0
  -45.8780   58.8885   64.2277 O   0  0  0  0  0  0  0  0  0  0  0  0
  -47.0814   57.4630   67.2969 H   0  0  0  0  0  0  0  0  0  0  0  0
  -47.7676   58.7367   65.6935 C   0  0  0  0  0  0  0  0  0  0  0  0
  -48.7988   57.6926   65.2441 C   0  0  0  0  0  0  0  0  0  0  0  0
  -50.2017   58.3268   65.1845 C   0  0  0  0  0  0  0  0  0  0  0  0
  -50.2152   59.8247   65.5445 C   0  0  0  0  0  0  0  0  0  0  0  0
  -50.0389   60.7742   64.3448 C   0  0  0  0  0  0  0  0  0  0  0  0
  -51.1757   60.6497   63.3087 C   0  0  0  0  0  0  0  0  0  0  0  0
  -50.7097   60.2472   61.8901 C   0  0  0  0  0  0  0  0  0  0  0  0
  -49.3243   59.5913   61.8664 C   0  0  0  0  0  0  0  0  0  0  0  0
  -49.3149   58.0897   61.5629 C   0  0  0  0  0  0  0  0  0  0  0  0
  -50.2829   57.7429   60.4170 C   0  0  0  0  0  0  0  0  0  0  0  0
  -49.6795   57.9239   59.0159 C   0  0  0  0  0  0  0  0  0  0  0  0
  -48.1619   57.7385   58.9156 C   0  0  0  0  0  0  0  0  0  0  0  0
  -47.7245   56.3528   58.3788 C   0  0  0  0  0  0  0  0  0  0  0  0
  -47.3739   56.4130   56.8783 C   0  0  0  0  0  0  0  0  0  0  0  0
  -47.7300   57.7019   56.1276 C   0  0  0  0  0  0  0  0  0  0  0  0
 46 47  1  0  0  0
 46 48  1  0  0  0
 46 45  1  0  0  0
 47 49  2  0  0  0
 47 51  1  0  0  0
 19 20  2  0  0  0
 37 38  1  0  0  0
 37 39  1  0  0  0
 37 40  1  0  0  0
 37 41  1  0  0  0
 48 50  1  0  0  0
 38 29  1  0  0  0
 45 44  1  0  0  0
 25 27  1  0  0  0
 25 35  1  0  0  0
 25 28  1  0  0  0
 21 20  1  0  0  0
 21 22  1  0  0  0
 44 42  1  0  0  0
  2  1  1  0  0  0
  2  4  1  0  0  0
  2  5  1  0  0  0
 26 27  2  0  0  0
 42 43  2  0  0  0
 29 31  1  0  0  0
 29 36  1  0  0  0
  3  4  2  0  0  0
 43  1  1  0  0  0
  6  9  2  0  0  0
  6 10  1  0  0  0
  1 20  1  0  0  0
 30 36  2  0  0  0
  7  8  1  0  0  0
  7  9  1  0  0  0
 22 24  1  0  0  0
 22 23  1  0  0  0
 11 12  1  0  0  0
 11 18  1  0  0  0
 24 27  1  0  0  0
  4 10  1  0  0  0
 51 52  1  0  0  0
 52 53  1  0  0  0
 53 54  1  0  0  0
 54 55  1  0  0  0
 55 56  1  0  0  0
 56 57  1  0  0  0
 57 58  1  0  0  0
 58 59  1  0  0  0
 59 60  1  0  0  0
 60 61  1  0  0  0
 61 62  1  0  0  0
 62 63  1  0  0  0
 63 64  1  0  0  0
 64 65  1  0  0  0
 31 32  1  0  0  0
 32 33  1  0  0  0
 33 34  1  0  0  0
 34 35  1  0  0  0
 35 36  1  0  0  0
  8 10  1  0  0  0
  9 17  1  0  0  0
 12 13  2  0  0  0
 12 17  1  0  0  0
 13 14  1  0  0  0
 14 15  2  0  0  0
 15 16  1  0  0  0
 16 17  2  0  0  0
M  END
> <minimizedAffinity>
-9.24188

> <CNNscore>
0.1673071980

> <CNNaffinity>
7.4647979736

> <CNN_VS>
1.2489144802

> <CNNaffinity_variance>
0.2890216708

$$$$
/media/chris/experiments/cd1a-new-docking/inputs/ligands/1xz0_ligand.pdb


 65 67  0  0  0  0  0  0  0  0999 V2000
  -43.0310   58.3560   63.7172 C   0  0  0  0  0  0  0  0  0  0  0  0
  -44.2754   58.3375   64.4888 N   0  0  0  0  0  0  0  0  0  0  0  0
  -43.8044   56.8992   66.1866 O   0  0  0  0  0  0  0  0  0  0  0  0
  -44.5740   57.6548   65.6077 C   0  0  0  0  0  0  0  0  0  0  0  0
  -44.9974   58.9072   64.1375 H   0  0  0  0  0  0  0  0  0  0  0  0
  -46.9617   58.0907   65.0704 N   0  0  0  0  0  0  0  0  0  0  0  0
  -47.4393   59.5485   66.6947 O   0  0  0  0  0  0  0  0  0  0  0  0
  -46.3571   58.7845   67.2254 C   0  0  0  0  0  0  0  0  0  0  0  0
  -47.7207   59.0560   65.3695 C   0  0  0  0  0  0  0  0  0  0  0  0
  -46.0000   57.7392   66.1325 C   0  0  0  0  0  0  0  0  0  0  0  0
  -50.2560   60.0609   66.3491 O   0  0  0  0  0  0  0  0  0  0  0  0
  -50.0185   60.0840   65.0320 C   0  0  0  0  0  0  0  0  0  0  0  0
  -50.9860   60.6044   64.1626 C   0  0  0  0  0  0  0  0  0  0  0  0
  -50.7646   60.6311   62.7753 C   0  0  0  0  0  0  0  0  0  0  0  0
  -49.5688   60.1468   62.2424 C   0  0  0  0  0  0  0  0  0  0  0  0
  -48.5977   59.6324   63.1061 C   0  0  0  0  0  0  0  0  0  0  0  0
  -48.8203   59.5962   64.4960 C   0  0  0  0  0  0  0  0  0  0  0  0
  -51.0652   60.3928   66.6850 H   0  0  0  0  0  0  0  0  0  0  0  0
  -43.3762   60.6825   63.2661 O   0  0  0  0  0  0  0  0  0  0  0  0
  -42.6050   59.8091   63.6278 C   0  0  0  0  0  0  0  0  0  0  0  0
  -41.2159   60.1814   63.9155 O   0  0  0  0  0  0  0  0  0  0  0  0
  -40.5150   59.6402   65.0511 C   0  0  0  0  0  0  0  0  0  0  0  0
  -41.3558   59.5234   66.3164 C   0  0  0  0  0  0  0  0  0  0  0  0
  -39.2722   60.4833   65.2938 C   0  0  0  0  0  0  0  0  0  0  0  0
  -36.8634   60.2967   65.6928 N   0  0  0  0  0  0  0  0  0  0  0  0
  -38.1824   58.4613   65.6106 O   0  0  0  0  0  0  0  0  0  0  0  0
  -38.0294   59.6577   65.5183 C   0  0  0  0  0  0  0  0  0  0  0  0
  -36.0702   59.7524   65.9019 H   0  0  0  0  0  0  0  0  0  0  0  0
  -34.9435   61.9839   63.8703 N   0  0  0  0  0  0  0  0  0  0  0  0
  -36.9575   62.9444   63.5761 O   0  0  0  0  0  0  0  0  0  0  0  0
  -34.0615   60.9764   64.4778 C   0  0  0  0  0  0  0  0  0  0  0  0
  -33.6420   61.4041   65.8968 C   0  0  0  0  0  0  0  0  0  0  0  0
  -34.3450   62.6385   66.4370 C   0  0  0  0  0  0  0  0  0  0  0  0
  -35.8379   62.4137   66.6915 C   0  0  0  0  0  0  0  0  0  0  0  0
  -36.6866   61.7501   65.5941 C   0  0  0  0  0  0  0  0  0  0  0  0
  -36.2007   62.2607   64.2518 C   0  0  0  0  0  0  0  0  0  0  0  0
  -34.7877   64.4397   62.6586 Si  0  0  0  0  0  0  0  0  0  0  0  0
  -34.4431   62.6931   62.8201 O   0  0  0  0  0  0  0  0  0  0  0  0
  -34.1562   64.9407   61.4895 H   0  0  0  0  0  0  0  0  0  0  0  0
  -34.2902   65.1277   63.7969 H   0  0  0  0  0  0  0  0  0  0  0  0
  -36.1903   64.6385   62.5610 H   0  0  0  0  0  0  0  0  0  0  0  0
  -41.6673   57.1497   61.8252 C   0  0  0  0  0  0  0  0  0  0  0  0
  -43.0270   57.6234   62.3536 C   0  0  0  0  0  0  0  0  0  0  0  0
  -41.5795   56.8269   60.3240 C   0  0  0  0  0  0  0  0  0  0  0  0
  -41.4821   58.0151   59.3451 C   0  0  0  0  0  0  0  0  0  0  0  0
  -40.5104   58.9736   59.8806 N   0  0  0  0  0  0  0  0  0  0  0  0
  -39.1659   59.0274   59.6882 C   0  0  0  0  0  0  0  0  0  0  0  0
  -41.0770   59.9598   60.7002 O   0  0  0  0  0  0  0  0  0  0  0  0
  -38.5915   58.2072   58.9724 O   0  0  0  0  0  0  0  0  0  0  0  0
  -40.3807   60.5560   61.0174 H   0  0  0  0  0  0  0  0  0  0  0  0
  -38.3604   60.1293   60.3846 C   0  0  0  0  0  0  0  0  0  0  0  0
  -38.0953   59.8774   61.8751 C   0  0  0  0  0  0  0  0  0  0  0  0
  -37.2912   58.5756   62.0563 C   0  0  0  0  0  0  0  0  0  0  0  0
  -35.8139   58.8114   62.4237 C   0  0  0  0  0  0  0  0  0  0  0  0
  -35.1354   57.6303   63.1426 C   0  0  0  0  0  0  0  0  0  0  0  0
  -33.5972   57.6575   63.0211 C   0  0  0  0  0  0  0  0  0  0  0  0
  -33.0541   58.6523   61.9689 C   0  0  0  0  0  0  0  0  0  0  0  0
  -31.8237   59.4328   62.4456 C   0  0  0  0  0  0  0  0  0  0  0  0
  -31.5813   60.7701   61.7386 C   0  0  0  0  0  0  0  0  0  0  0  0
  -31.0472   61.8329   62.7161 C   0  0  0  0  0  0  0  0  0  0  0  0
  -31.1561   63.2725   62.1911 C   0  0  0  0  0  0  0  0  0  0  0  0
  -30.9280   64.3779   63.2273 C   0  0  0  0  0  0  0  0  0  0  0  0
  -32.1738   65.2554   63.5060 C   0  0  0  0  0  0  0  0  0  0  0  0
  -32.5040   65.3061   65.0115 C   0  0  0  0  0  0  0  0  0  0  0  0
  -31.3927   64.8970   65.9858 C   0  0  0  0  0  0  0  0  0  0  0  0
 46 47  1  0  0  0
 46 48  1  0  0  0
 46 45  1  0  0  0
 47 49  2  0  0  0
 47 51  1  0  0  0
 19 20  2  0  0  0
 37 38  1  0  0  0
 37 39  1  0  0  0
 37 40  1  0  0  0
 37 41  1  0  0  0
 48 50  1  0  0  0
 38 29  1  0  0  0
 45 44  1  0  0  0
 25 27  1  0  0  0
 25 35  1  0  0  0
 25 28  1  0  0  0
 21 20  1  0  0  0
 21 22  1  0  0  0
 44 42  1  0  0  0
  2  1  1  0  0  0
  2  4  1  0  0  0
  2  5  1  0  0  0
 26 27  2  0  0  0
 42 43  2  0  0  0
 29 31  1  0  0  0
 29 36  1  0  0  0
  3  4  2  0  0  0
 43  1  1  0  0  0
  6  9  2  0  0  0
  6 10  1  0  0  0
  1 20  1  0  0  0
 30 36  2  0  0  0
  7  8  1  0  0  0
  7  9  1  0  0  0
 22 24  1  0  0  0
 22 23  1  0  0  0
 11 12  1  0  0  0
 11 18  1  0  0  0
 24 27  1  0  0  0
  4 10  1  0  0  0
 51 52  1  0  0  0
 52 53  1  0  0  0
 53 54  1  0  0  0
 54 55  1  0  0  0
 55 56  1  0  0  0
 56 57  1  0  0  0
 57 58  1  0  0  0
 58 59  1  0  0  0
 59 60  1  0  0  0
 60 61  1  0  0  0
 61 62  1  0  0  0
 62 63  1  0  0  0
 63 64  1  0  0  0
 64 65  1  0  0  0
 31 32  1  0  0  0
 32 33  1  0  0  0
 33 34  1  0  0  0
 34 35  1  0  0  0
 35 36  1  0  0  0
  8 10  1  0  0  0
  9 17  1  0  0  0
 12 13  2  0  0  0
 12 17  1  0  0  0
 13 14  1  0  0  0
 14 15  2  0  0  0
 15 16  1  0  0  0
 16 17  2  0  0  0
M  END
> <minimizedAffinity>
-8.78937

> <CNNscore>
0.1635678411

> <CNNaffinity>
7.5021119118

> <CNN_VS>
1.2271043062

> <CNNaffinity_variance>
1.2839107513

$$$$
/media/chris/experiments/cd1a-new-docking/inputs/ligands/1xz0_ligand.pdb


 65 67  0  0  0  0  0  0  0  0999 V2000
  -42.3858   58.9936   62.0358 C   0  0  0  0  0  0  0  0  0  0  0  0
  -41.0467   58.7829   61.4821 N   0  0  0  0  0  0  0  0  0  0  0  0
  -41.4743   57.9445   59.4115 O   0  0  0  0  0  0  0  0  0  0  0  0
  -40.6882   58.3014   60.2792 C   0  0  0  0  0  0  0  0  0  0  0  0
  -40.3015   59.0293   62.0764 H   0  0  0  0  0  0  0  0  0  0  0  0
  -38.4772   57.6898   61.2369 N   0  0  0  0  0  0  0  0  0  0  0  0
  -37.2528   59.3752   60.4295 O   0  0  0  0  0  0  0  0  0  0  0  0
  -38.3318   59.2591   59.5028 C   0  0  0  0  0  0  0  0  0  0  0  0
  -37.4437   58.3830   61.4577 C   0  0  0  0  0  0  0  0  0  0  0  0
  -39.2057   58.0808   60.0151 C   0  0  0  0  0  0  0  0  0  0  0  0
  -38.1576   57.1753   63.9931 O   0  0  0  0  0  0  0  0  0  0  0  0
  -36.8933   57.5705   63.8001 C   0  0  0  0  0  0  0  0  0  0  0  0
  -35.9452   57.3788   64.8136 C   0  0  0  0  0  0  0  0  0  0  0  0
  -34.6141   57.7934   64.6391 C   0  0  0  0  0  0  0  0  0  0  0  0
  -34.2136   58.3955   63.4451 C   0  0  0  0  0  0  0  0  0  0  0  0
  -35.1543   58.5833   62.4285 C   0  0  0  0  0  0  0  0  0  0  0  0
  -36.4909   58.1769   62.6038 C   0  0  0  0  0  0  0  0  0  0  0  0
  -38.4039   56.7717   64.8021 H   0  0  0  0  0  0  0  0  0  0  0  0
  -43.3299   60.9525   63.0391 O   0  0  0  0  0  0  0  0  0  0  0  0
  -42.3273   60.2954   62.8122 C   0  0  0  0  0  0  0  0  0  0  0  0
  -41.0322   60.8261   63.2506 O   0  0  0  0  0  0  0  0  0  0  0  0
  -40.2525   60.1592   64.2609 C   0  0  0  0  0  0  0  0  0  0  0  0
  -40.8144   60.2749   65.6725 C   0  0  0  0  0  0  0  0  0  0  0  0
  -38.8273   60.6867   64.1926 C   0  0  0  0  0  0  0  0  0  0  0  0
  -37.0180   61.2163   65.7554 N   0  0  0  0  0  0  0  0  0  0  0  0
  -38.3988   59.4611   66.1137 O   0  0  0  0  0  0  0  0  0  0  0  0
  -38.0241   60.3896   65.4348 C   0  0  0  0  0  0  0  0  0  0  0  0
  -36.5415   61.0506   66.6007 H   0  0  0  0  0  0  0  0  0  0  0  0
  -34.2404   61.7811   64.4062 N   0  0  0  0  0  0  0  0  0  0  0  0
  -35.7270   62.1008   62.7470 O   0  0  0  0  0  0  0  0  0  0  0  0
  -33.8981   61.4476   65.7967 C   0  0  0  0  0  0  0  0  0  0  0  0
  -34.0837   62.6722   66.7124 C   0  0  0  0  0  0  0  0  0  0  0  0
  -34.7373   63.8784   66.0582 C   0  0  0  0  0  0  0  0  0  0  0  0
  -36.2033   63.6375   65.6885 C   0  0  0  0  0  0  0  0  0  0  0  0
  -36.5774   62.3502   64.9349 C   0  0  0  0  0  0  0  0  0  0  0  0
  -35.4714   62.0493   63.9423 C   0  0  0  0  0  0  0  0  0  0  0  0
  -33.5534   61.7852   61.7507 Si  0  0  0  0  0  0  0  0  0  0  0  0
  -33.2178   61.8110   63.5065 O   0  0  0  0  0  0  0  0  0  0  0  0
  -32.3281   61.8240   61.0340 H   0  0  0  0  0  0  0  0  0  0  0  0
  -34.3412   62.9142   61.4027 H   0  0  0  0  0  0  0  0  0  0  0  0
  -34.2573   60.5970   61.4207 H   0  0  0  0  0  0  0  0  0  0  0  0
  -43.5205   58.1409   64.2448 C   0  0  0  0  0  0  0  0  0  0  0  0
  -43.0208   57.8261   62.8294 C   0  0  0  0  0  0  0  0  0  0  0  0
  -43.7416   56.9445   65.1857 C   0  0  0  0  0  0  0  0  0  0  0  0
  -44.4039   57.2253   66.5502 C   0  0  0  0  0  0  0  0  0  0  0  0
  -45.8277   57.4925   66.3242 N   0  0  0  0  0  0  0  0  0  0  0  0
  -46.4614   58.6856   66.1738 C   0  0  0  0  0  0  0  0  0  0  0  0
  -46.6194   56.3374   66.2577 O   0  0  0  0  0  0  0  0  0  0  0  0
  -45.8381   59.7465   66.2060 O   0  0  0  0  0  0  0  0  0  0  0  0
  -47.5444   56.5876   66.1073 H   0  0  0  0  0  0  0  0  0  0  0  0
  -47.9797   58.6983   65.9673 C   0  0  0  0  0  0  0  0  0  0  0  0
  -48.6494   60.0482   66.2579 C   0  0  0  0  0  0  0  0  0  0  0  0
  -50.0772   60.0653   65.6789 C   0  0  0  0  0  0  0  0  0  0  0  0
  -50.5653   58.6831   65.2050 C   0  0  0  0  0  0  0  0  0  0  0  0
  -50.7524   58.5567   63.6816 C   0  0  0  0  0  0  0  0  0  0  0  0
  -50.4653   59.8737   62.9303 C   0  0  0  0  0  0  0  0  0  0  0  0
  -49.1904   59.8484   62.0552 C   0  0  0  0  0  0  0  0  0  0  0  0
  -49.4798   59.6629   60.5612 C   0  0  0  0  0  0  0  0  0  0  0  0
  -50.3838   58.4768   60.2108 C   0  0  0  0  0  0  0  0  0  0  0  0
  -49.6821   57.5017   59.2480 C   0  0  0  0  0  0  0  0  0  0  0  0
  -48.3877   56.8948   59.8104 C   0  0  0  0  0  0  0  0  0  0  0  0
  -47.2621   56.6700   58.7955 C   0  0  0  0  0  0  0  0  0  0  0  0
  -47.7355   56.0926   57.4382 C   0  0  0  0  0  0  0  0  0  0  0  0
  -47.7443   57.1723   56.3370 C   0  0  0  0  0  0  0  0  0  0  0  0
  -47.1129   58.5270   56.6802 C   0  0  0  0  0  0  0  0  0  0  0  0
 46 47  1  0  0  0
 46 48  1  0  0  0
 46 45  1  0  0  0
 47 49  2  0  0  0
 47 51  1  0  0  0
 19 20  2  0  0  0
 37 38  1  0  0  0
 37 39  1  0  0  0
 37 40  1  0  0  0
 37 41  1  0  0  0
 48 50  1  0  0  0
 38 29  1  0  0  0
 45 44  1  0  0  0
 25 27  1  0  0  0
 25 35  1  0  0  0
 25 28  1  0  0  0
 21 20  1  0  0  0
 21 22  1  0  0  0
 44 42  1  0  0  0
  2  1  1  0  0  0
  2  4  1  0  0  0
  2  5  1  0  0  0
 26 27  2  0  0  0
 42 43  2  0  0  0
 29 31  1  0  0  0
 29 36  1  0  0  0
  3  4  2  0  0  0
 43  1  1  0  0  0
  6  9  2  0  0  0
  6 10  1  0  0  0
  1 20  1  0  0  0
 30 36  2  0  0  0
  7  8  1  0  0  0
  7  9  1  0  0  0
 22 24  1  0  0  0
 22 23  1  0  0  0
 11 12  1  0  0  0
 11 18  1  0  0  0
 24 27  1  0  0  0
  4 10  1  0  0  0
 51 52  1  0  0  0
 52 53  1  0  0  0
 53 54  1  0  0  0
 54 55  1  0  0  0
 55 56  1  0  0  0
 56 57  1  0  0  0
 57 58  1  0  0  0
 58 59  1  0  0  0
 59 60  1  0  0  0
 60 61  1  0  0  0
 61 62  1  0  0  0
 62 63  1  0  0  0
 63 64  1  0  0  0
 64 65  1  0  0  0
 31 32  1  0  0  0
 32 33  1  0  0  0
 33 34  1  0  0  0
 34 35  1  0  0  0
 35 36  1  0  0  0
  8 10  1  0  0  0
  9 17  1  0  0  0
 12 13  2  0  0  0
 12 17  1  0  0  0
 13 14  1  0  0  0
 14 15  2  0  0  0
 15 16  1  0  0  0
 16 17  2  0  0  0
M  END
> <minimizedAffinity>
-10.33165

> <CNNscore>
0.1613181382

> <CNNaffinity>
7.5328254700

> <CNN_VS>
1.2151813507

> <CNNaffinity_variance>
0.9759672284

$$$$
