/media/chris/experiments/cd1a-new-docking/inputs/ligands/1xz0_ligand.pdb


 65 67  0  0  0  0  0  0  0  0999 V2000
  -42.1430   58.9723   65.2387 C   0  0  0  0  0  0  0  0  0  0  0  0
  -41.8788   57.5536   65.4870 N   0  0  0  0  0  0  0  0  0  0  0  0
  -41.7788   55.3424   64.9640 O   0  0  0  0  0  0  0  0  0  0  0  0
  -42.0155   56.5037   64.6585 C   0  0  0  0  0  0  0  0  0  0  0  0
  -41.5542   57.3374   66.3910 H   0  0  0  0  0  0  0  0  0  0  0  0
  -41.1928   56.9025   62.3468 N   0  0  0  0  0  0  0  0  0  0  0  0
  -42.3593   58.7445   61.8586 O   0  0  0  0  0  0  0  0  0  0  0  0
  -43.1500   58.0890   62.8493 C   0  0  0  0  0  0  0  0  0  0  0  0
  -41.1795   57.9470   61.6352 C   0  0  0  0  0  0  0  0  0  0  0  0
  -42.3841   56.7856   63.2090 C   0  0  0  0  0  0  0  0  0  0  0  0
  -38.9749   59.7551   62.1526 O   0  0  0  0  0  0  0  0  0  0  0  0
  -39.0608   59.1695   60.9520 C   0  0  0  0  0  0  0  0  0  0  0  0
  -38.0818   59.4280   59.9836 C   0  0  0  0  0  0  0  0  0  0  0  0
  -38.1545   58.8331   58.7127 C   0  0  0  0  0  0  0  0  0  0  0  0
  -39.2018   57.9650   58.3991 C   0  0  0  0  0  0  0  0  0  0  0  0
  -40.1774   57.6990   59.3639 C   0  0  0  0  0  0  0  0  0  0  0  0
  -40.1120   58.3004   60.6354 C   0  0  0  0  0  0  0  0  0  0  0  0
  -38.2622   60.3332   62.3420 H   0  0  0  0  0  0  0  0  0  0  0  0
  -40.8828   60.9407   65.7611 O   0  0  0  0  0  0  0  0  0  0  0  0
  -40.9042   59.7229   65.6889 C   0  0  0  0  0  0  0  0  0  0  0  0
  -39.6713   58.9857   65.9842 O   0  0  0  0  0  0  0  0  0  0  0  0
  -38.5131   59.0918   65.1350 C   0  0  0  0  0  0  0  0  0  0  0  0
  -37.7229   57.7985   64.9783 C   0  0  0  0  0  0  0  0  0  0  0  0
  -37.6315   60.2130   65.6644 C   0  0  0  0  0  0  0  0  0  0  0  0
  -35.9652   61.5558   64.4744 N   0  0  0  0  0  0  0  0  0  0  0  0
  -38.1485   61.6086   63.8862 O   0  0  0  0  0  0  0  0  0  0  0  0
  -37.2574   61.2231   64.6079 C   0  0  0  0  0  0  0  0  0  0  0  0
  -35.7235   62.1668   63.7412 H   0  0  0  0  0  0  0  0  0  0  0  0
  -33.0072   62.5619   64.7789 N   0  0  0  0  0  0  0  0  0  0  0  0
  -33.7679   62.4585   66.8945 O   0  0  0  0  0  0  0  0  0  0  0  0
  -33.1786   62.3983   63.3278 C   0  0  0  0  0  0  0  0  0  0  0  0
  -32.9935   60.9246   62.9197 C   0  0  0  0  0  0  0  0  0  0  0  0
  -32.8638   59.9435   64.0731 C   0  0  0  0  0  0  0  0  0  0  0  0
  -34.1531   59.8016   64.8863 C   0  0  0  0  0  0  0  0  0  0  0  0
  -34.8862   61.0735   65.3440 C   0  0  0  0  0  0  0  0  0  0  0  0
  -33.8425   62.1050   65.7256 C   0  0  0  0  0  0  0  0  0  0  0  0
  -31.7185   63.6910   66.9209 Si  0  0  0  0  0  0  0  0  0  0  0  0
  -31.9071   63.2465   65.1996 O   0  0  0  0  0  0  0  0  0  0  0  0
  -30.4970   64.3934   67.0973 H   0  0  0  0  0  0  0  0  0  0  0  0
  -31.7066   62.5140   67.7152 H   0  0  0  0  0  0  0  0  0  0  0  0
  -32.8021   64.5187   67.3174 H   0  0  0  0  0  0  0  0  0  0  0  0
  -44.6528   58.6013   65.9152 C   0  0  0  0  0  0  0  0  0  0  0  0
  -43.4616   59.5601   65.7973 C   0  0  0  0  0  0  0  0  0  0  0  0
  -46.0471   59.2379   66.0427 C   0  0  0  0  0  0  0  0  0  0  0  0
  -47.2428   58.2917   66.2755 C   0  0  0  0  0  0  0  0  0  0  0  0
  -48.4644   59.1003   66.3349 N   0  0  0  0  0  0  0  0  0  0  0  0
  -49.6590   58.8930   65.7202 C   0  0  0  0  0  0  0  0  0  0  0  0
  -48.3543   60.2378   67.1468 O   0  0  0  0  0  0  0  0  0  0  0  0
  -49.8433   57.9116   65.0007 O   0  0  0  0  0  0  0  0  0  0  0  0
  -49.1943   60.7228   67.1397 H   0  0  0  0  0  0  0  0  0  0  0  0
  -50.7869   59.9090   65.9291 C   0  0  0  0  0  0  0  0  0  0  0  0
  -50.9624   60.9095   64.7786 C   0  0  0  0  0  0  0  0  0  0  0  0
  -51.9248   60.3354   63.7212 C   0  0  0  0  0  0  0  0  0  0  0  0
  -51.2830   60.1694   62.3307 C   0  0  0  0  0  0  0  0  0  0  0  0
  -49.7456   60.2606   62.3189 C   0  0  0  0  0  0  0  0  0  0  0  0
  -49.1052   59.4515   61.1715 C   0  0  0  0  0  0  0  0  0  0  0  0
  -49.8918   59.4925   59.8406 C   0  0  0  0  0  0  0  0  0  0  0  0
  -50.1156   58.1079   59.2215 C   0  0  0  0  0  0  0  0  0  0  0  0
  -50.1151   56.9391   60.2118 C   0  0  0  0  0  0  0  0  0  0  0  0
  -48.9333   55.9865   59.9547 C   0  0  0  0  0  0  0  0  0  0  0  0
  -47.6481   56.6965   59.5030 C   0  0  0  0  0  0  0  0  0  0  0  0
  -46.9462   56.0902   58.2834 C   0  0  0  0  0  0  0  0  0  0  0  0
  -47.8373   55.9926   57.0201 C   0  0  0  0  0  0  0  0  0  0  0  0
  -48.1916   57.3888   56.4692 C   0  0  0  0  0  0  0  0  0  0  0  0
  -47.0975   58.4618   56.5259 C   0  0  0  0  0  0  0  0  0  0  0  0
 46 47  1  0  0  0
 46 48  1  0  0  0
 46 45  1  0  0  0
 47 49  2  0  0  0
 47 51  1  0  0  0
 19 20  2  0  0  0
 37 38  1  0  0  0
 37 39  1  0  0  0
 37 40  1  0  0  0
 37 41  1  0  0  0
 48 50  1  0  0  0
 38 29  1  0  0  0
 45 44  1  0  0  0
 25 27  1  0  0  0
 25 35  1  0  0  0
 25 28  1  0  0  0
 21 20  1  0  0  0
 21 22  1  0  0  0
 44 42  1  0  0  0
  2  1  1  0  0  0
  2  4  1  0  0  0
  2  5  1  0  0  0
 26 27  2  0  0  0
 42 43  2  0  0  0
 29 31  1  0  0  0
 29 36  1  0  0  0
  3  4  2  0  0  0
 43  1  1  0  0  0
  6  9  2  0  0  0
  6 10  1  0  0  0
  1 20  1  0  0  0
 30 36  2  0  0  0
  7  8  1  0  0  0
  7  9  1  0  0  0
 22 24  1  0  0  0
 22 23  1  0  0  0
 11 12  1  0  0  0
 11 18  1  0  0  0
 24 27  1  0  0  0
  4 10  1  0  0  0
 51 52  1  0  0  0
 52 53  1  0  0  0
 53 54  1  0  0  0
 54 55  1  0  0  0
 55 56  1  0  0  0
 56 57  1  0  0  0
 57 58  1  0  0  0
 58 59  1  0  0  0
 59 60  1  0  0  0
 60 61  1  0  0  0
 61 62  1  0  0  0
 62 63  1  0  0  0
 63 64  1  0  0  0
 64 65  1  0  0  0
 31 32  1  0  0  0
 32 33  1  0  0  0
 33 34  1  0  0  0
 34 35  1  0  0  0
 35 36  1  0  0  0
  8 10  1  0  0  0
  9 17  1  0  0  0
 12 13  2  0  0  0
 12 17  1  0  0  0
 13 14  1  0  0  0
 14 15  2  0  0  0
 15 16  1  0  0  0
 16 17  2  0  0  0
M  END
> <minimizedAffinity>
-10.65460

> <CNNscore>
0.2678276300

> <CNNaffinity>
7.5185875893

> <CNN_VS>
2.0136854649

> <CNNaffinity_variance>
0.8655953407

$$$$
/media/chris/experiments/cd1a-new-docking/inputs/ligands/1xz0_ligand.pdb


 65 67  0  0  0  0  0  0  0  0999 V2000
  -41.2297   57.3095   64.0235 C   0  0  0  0  0  0  0  0  0  0  0  0
  -41.3746   58.6682   63.4969 N   0  0  0  0  0  0  0  0  0  0  0  0
  -41.0302   60.9157   63.4400 O   0  0  0  0  0  0  0  0  0  0  0  0
  -40.8393   59.8171   63.9449 C   0  0  0  0  0  0  0  0  0  0  0  0
  -41.9464   58.7524   62.6999 H   0  0  0  0  0  0  0  0  0  0  0  0
  -39.0244   60.9607   65.2013 N   0  0  0  0  0  0  0  0  0  0  0  0
  -37.4991   59.3280   65.2029 O   0  0  0  0  0  0  0  0  0  0  0  0
  -38.7418   58.6377   65.0775 C   0  0  0  0  0  0  0  0  0  0  0  0
  -37.7808   60.7407   65.2546 C   0  0  0  0  0  0  0  0  0  0  0  0
  -39.8404   59.7367   65.0903 C   0  0  0  0  0  0  0  0  0  0  0  0
  -37.0761   62.6817   63.2217 O   0  0  0  0  0  0  0  0  0  0  0  0
  -36.4375   62.7183   64.3975 C   0  0  0  0  0  0  0  0  0  0  0  0
  -35.4610   63.6968   64.6252 C   0  0  0  0  0  0  0  0  0  0  0  0
  -34.7699   63.7505   65.8475 C   0  0  0  0  0  0  0  0  0  0  0  0
  -35.0546   62.8324   66.8597 C   0  0  0  0  0  0  0  0  0  0  0  0
  -36.0325   61.8583   66.6398 C   0  0  0  0  0  0  0  0  0  0  0  0
  -36.7206   61.7965   65.4128 C   0  0  0  0  0  0  0  0  0  0  0  0
  -36.8700   63.3090   62.5569 H   0  0  0  0  0  0  0  0  0  0  0  0
  -41.3130   55.5406   62.4112 O   0  0  0  0  0  0  0  0  0  0  0  0
  -40.6792   56.4676   62.8882 C   0  0  0  0  0  0  0  0  0  0  0  0
  -39.3248   56.7179   62.3843 O   0  0  0  0  0  0  0  0  0  0  0  0
  -39.0434   57.8284   61.5117 C   0  0  0  0  0  0  0  0  0  0  0  0
  -39.6055   57.6842   60.1029 C   0  0  0  0  0  0  0  0  0  0  0  0
  -37.5379   58.0456   61.4824 C   0  0  0  0  0  0  0  0  0  0  0  0
  -35.9338   59.5986   62.4878 N   0  0  0  0  0  0  0  0  0  0  0  0
  -37.8839   60.3349   61.6099 O   0  0  0  0  0  0  0  0  0  0  0  0
  -37.1303   59.4355   61.9047 C   0  0  0  0  0  0  0  0  0  0  0  0
  -35.6504   60.5169   62.7016 H   0  0  0  0  0  0  0  0  0  0  0  0
  -33.7656   59.4063   64.7498 N   0  0  0  0  0  0  0  0  0  0  0  0
  -34.9497   57.5048   64.9672 O   0  0  0  0  0  0  0  0  0  0  0  0
  -33.4804   60.6907   64.0934 C   0  0  0  0  0  0  0  0  0  0  0  0
  -32.6520   60.4764   62.8126 C   0  0  0  0  0  0  0  0  0  0  0  0
  -32.4634   59.0267   62.3971 C   0  0  0  0  0  0  0  0  0  0  0  0
  -33.7656   58.3582   61.9488 C   0  0  0  0  0  0  0  0  0  0  0  0
  -35.0173   58.5049   62.8299 C   0  0  0  0  0  0  0  0  0  0  0  0
  -34.5795   58.4472   64.2804 C   0  0  0  0  0  0  0  0  0  0  0  0
  -32.8279   57.5005   66.4854 Si  0  0  0  0  0  0  0  0  0  0  0  0
  -33.1563   59.1729   65.9457 O   0  0  0  0  0  0  0  0  0  0  0  0
  -32.1909   57.5291   67.7543 H   0  0  0  0  0  0  0  0  0  0  0  0
  -31.9805   56.8574   65.5448 H   0  0  0  0  0  0  0  0  0  0  0  0
  -34.0513   56.7867   66.5859 H   0  0  0  0  0  0  0  0  0  0  0  0
  -43.6842   57.5840   64.9145 C   0  0  0  0  0  0  0  0  0  0  0  0
  -42.4598   56.6809   64.7220 C   0  0  0  0  0  0  0  0  0  0  0  0
  -44.7184   57.1384   65.9622 C   0  0  0  0  0  0  0  0  0  0  0  0
  -45.6366   58.2232   66.5619 C   0  0  0  0  0  0  0  0  0  0  0  0
  -46.8222   58.3456   65.7082 N   0  0  0  0  0  0  0  0  0  0  0  0
  -47.8207   57.4480   65.4959 C   0  0  0  0  0  0  0  0  0  0  0  0
  -46.9108   59.5696   65.0304 O   0  0  0  0  0  0  0  0  0  0  0  0
  -47.8257   56.3551   66.0620 O   0  0  0  0  0  0  0  0  0  0  0  0
  -47.7146   59.5813   64.4876 H   0  0  0  0  0  0  0  0  0  0  0  0
  -48.9517   57.8116   64.5282 C   0  0  0  0  0  0  0  0  0  0  0  0
  -50.3304   57.9556   65.1870 C   0  0  0  0  0  0  0  0  0  0  0  0
  -50.4095   59.2849   65.9622 C   0  0  0  0  0  0  0  0  0  0  0  0
  -50.5272   60.5219   65.0518 C   0  0  0  0  0  0  0  0  0  0  0  0
  -51.8982   60.6884   64.3702 C   0  0  0  0  0  0  0  0  0  0  0  0
  -51.8655   60.3486   62.8653 C   0  0  0  0  0  0  0  0  0  0  0  0
  -50.4618   60.4246   62.2207 C   0  0  0  0  0  0  0  0  0  0  0  0
  -50.1932   59.3034   61.2102 C   0  0  0  0  0  0  0  0  0  0  0  0
  -51.0210   58.0298   61.4085 C   0  0  0  0  0  0  0  0  0  0  0  0
  -50.3221   56.8045   60.7917 C   0  0  0  0  0  0  0  0  0  0  0  0
  -48.8652   57.0616   60.3778 C   0  0  0  0  0  0  0  0  0  0  0  0
  -48.2033   55.9550   59.5502 C   0  0  0  0  0  0  0  0  0  0  0  0
  -47.3367   56.4718   58.3748 C   0  0  0  0  0  0  0  0  0  0  0  0
  -47.9963   57.6766   57.6735 C   0  0  0  0  0  0  0  0  0  0  0  0
  -47.1192   58.4982   56.7211 C   0  0  0  0  0  0  0  0  0  0  0  0
 46 47  1  0  0  0
 46 48  1  0  0  0
 46 45  1  0  0  0
 47 49  2  0  0  0
 47 51  1  0  0  0
 19 20  2  0  0  0
 37 38  1  0  0  0
 37 39  1  0  0  0
 37 40  1  0  0  0
 37 41  1  0  0  0
 48 50  1  0  0  0
 38 29  1  0  0  0
 45 44  1  0  0  0
 25 27  1  0  0  0
 25 35  1  0  0  0
 25 28  1  0  0  0
 21 20  1  0  0  0
 21 22  1  0  0  0
 44 42  1  0  0  0
  2  1  1  0  0  0
  2  4  1  0  0  0
  2  5  1  0  0  0
 26 27  2  0  0  0
 42 43  2  0  0  0
 29 31  1  0  0  0
 29 36  1  0  0  0
  3  4  2  0  0  0
 43  1  1  0  0  0
  6  9  2  0  0  0
  6 10  1  0  0  0
  1 20  1  0  0  0
 30 36  2  0  0  0
  7  8  1  0  0  0
  7  9  1  0  0  0
 22 24  1  0  0  0
 22 23  1  0  0  0
 11 12  1  0  0  0
 11 18  1  0  0  0
 24 27  1  0  0  0
  4 10  1  0  0  0
 51 52  1  0  0  0
 52 53  1  0  0  0
 53 54  1  0  0  0
 54 55  1  0  0  0
 55 56  1  0  0  0
 56 57  1  0  0  0
 57 58  1  0  0  0
 58 59  1  0  0  0
 59 60  1  0  0  0
 60 61  1  0  0  0
 61 62  1  0  0  0
 62 63  1  0  0  0
 63 64  1  0  0  0
 64 65  1  0  0  0
 31 32  1  0  0  0
 32 33  1  0  0  0
 33 34  1  0  0  0
 34 35  1  0  0  0
 35 36  1  0  0  0
  8 10  1  0  0  0
  9 17  1  0  0  0
 12 13  2  0  0  0
 12 17  1  0  0  0
 13 14  1  0  0  0
 14 15  2  0  0  0
 15 16  1  0  0  0
 16 17  2  0  0  0
M  END
> <minimizedAffinity>
-10.13062

> <CNNscore>
0.2571738958

> <CNNaffinity>
7.4673233032

> <CNN_VS>
1.9204006195

> <CNNaffinity_variance>
0.9122627378

$$$$
/media/chris/experiments/cd1a-new-docking/inputs/ligands/1xz0_ligand.pdb


 65 67  0  0  0  0  0  0  0  0999 V2000
  -42.3366   58.7154   65.4771 C   0  0  0  0  0  0  0  0  0  0  0  0
  -42.0418   57.2851   65.5846 N   0  0  0  0  0  0  0  0  0  0  0  0
  -41.8685   55.1437   64.8380 O   0  0  0  0  0  0  0  0  0  0  0  0
  -42.1274   56.3248   64.6477 C   0  0  0  0  0  0  0  0  0  0  0  0
  -41.7369   56.9832   66.4707 H   0  0  0  0  0  0  0  0  0  0  0  0
  -41.2517   56.9666   62.4113 N   0  0  0  0  0  0  0  0  0  0  0  0
  -42.4327   58.8343   62.0810 O   0  0  0  0  0  0  0  0  0  0  0  0
  -43.2387   58.0718   62.9785 C   0  0  0  0  0  0  0  0  0  0  0  0
  -41.2358   58.0782   61.8099 C   0  0  0  0  0  0  0  0  0  0  0  0
  -42.4629   56.7481   63.2249 C   0  0  0  0  0  0  0  0  0  0  0  0
  -39.6478   60.4697   62.2044 O   0  0  0  0  0  0  0  0  0  0  0  0
  -39.4035   59.7023   61.1353 C   0  0  0  0  0  0  0  0  0  0  0  0
  -38.3824   60.0595   60.2449 C   0  0  0  0  0  0  0  0  0  0  0  0
  -38.1125   59.2757   59.1104 C   0  0  0  0  0  0  0  0  0  0  0  0
  -38.8543   58.1203   58.8585 C   0  0  0  0  0  0  0  0  0  0  0  0
  -39.8699   57.7563   59.7471 C   0  0  0  0  0  0  0  0  0  0  0  0
  -40.1484   58.5444   60.8803 C   0  0  0  0  0  0  0  0  0  0  0  0
  -39.1362   61.2403   62.3548 H   0  0  0  0  0  0  0  0  0  0  0  0
  -40.9990   60.3524   66.6026 O   0  0  0  0  0  0  0  0  0  0  0  0
  -41.0431   59.4432   65.7903 C   0  0  0  0  0  0  0  0  0  0  0  0
  -39.8187   59.1028   65.0581 O   0  0  0  0  0  0  0  0  0  0  0  0
  -38.5244   59.5296   65.5234 C   0  0  0  0  0  0  0  0  0  0  0  0
  -37.9687   60.7561   64.8105 C   0  0  0  0  0  0  0  0  0  0  0  0
  -37.5657   58.3529   65.4195 C   0  0  0  0  0  0  0  0  0  0  0  0
  -35.9247   58.4305   63.6038 N   0  0  0  0  0  0  0  0  0  0  0  0
  -37.9221   57.4043   63.3339 O   0  0  0  0  0  0  0  0  0  0  0  0
  -37.1479   58.0511   64.0015 C   0  0  0  0  0  0  0  0  0  0  0  0
  -35.6378   58.1730   62.6979 H   0  0  0  0  0  0  0  0  0  0  0  0
  -33.4353   60.1451   62.7564 N   0  0  0  0  0  0  0  0  0  0  0  0
  -34.6016   61.5112   64.1123 O   0  0  0  0  0  0  0  0  0  0  0  0
  -33.2349   58.8630   62.0650 C   0  0  0  0  0  0  0  0  0  0  0  0
  -32.6186   57.8208   63.0171 C   0  0  0  0  0  0  0  0  0  0  0  0
  -32.5199   58.2493   64.4719 C   0  0  0  0  0  0  0  0  0  0  0  0
  -33.8864   58.4027   65.1448 C   0  0  0  0  0  0  0  0  0  0  0  0
  -34.9838   59.2026   64.4234 C   0  0  0  0  0  0  0  0  0  0  0  0
  -34.3275   60.3813   63.7316 C   0  0  0  0  0  0  0  0  0  0  0  0
  -33.1681   62.8735   62.6678 Si  0  0  0  0  0  0  0  0  0  0  0  0
  -32.6518   61.1889   62.3657 O   0  0  0  0  0  0  0  0  0  0  0  0
  -32.1835   63.7670   62.1689 H   0  0  0  0  0  0  0  0  0  0  0  0
  -33.3276   63.0766   64.0641 H   0  0  0  0  0  0  0  0  0  0  0  0
  -34.4032   63.1152   62.0102 H   0  0  0  0  0  0  0  0  0  0  0  0
  -44.7197   58.2788   66.4892 C   0  0  0  0  0  0  0  0  0  0  0  0
  -43.5567   59.2527   66.2639 C   0  0  0  0  0  0  0  0  0  0  0  0
  -46.0783   58.8940   66.8653 C   0  0  0  0  0  0  0  0  0  0  0  0
  -46.7864   59.7591   65.8025 C   0  0  0  0  0  0  0  0  0  0  0  0
  -48.2328   59.6683   66.0247 N   0  0  0  0  0  0  0  0  0  0  0  0
  -49.1425   58.8585   65.4211 C   0  0  0  0  0  0  0  0  0  0  0  0
  -48.7144   60.5509   67.0017 O   0  0  0  0  0  0  0  0  0  0  0  0
  -48.8008   58.0459   64.5620 O   0  0  0  0  0  0  0  0  0  0  0  0
  -49.6730   60.4371   67.0960 H   0  0  0  0  0  0  0  0  0  0  0  0
  -50.6174   58.9723   65.8207 C   0  0  0  0  0  0  0  0  0  0  0  0
  -51.3940   60.0691   65.0795 C   0  0  0  0  0  0  0  0  0  0  0  0
  -51.6418   59.6461   63.6188 C   0  0  0  0  0  0  0  0  0  0  0  0
  -51.1539   60.6811   62.5874 C   0  0  0  0  0  0  0  0  0  0  0  0
  -49.6430   60.6305   62.2933 C   0  0  0  0  0  0  0  0  0  0  0  0
  -49.2337   59.3938   61.4660 C   0  0  0  0  0  0  0  0  0  0  0  0
  -49.6821   59.4345   59.9865 C   0  0  0  0  0  0  0  0  0  0  0  0
  -50.2995   58.1184   59.4998 C   0  0  0  0  0  0  0  0  0  0  0  0
  -50.1212   56.9230   60.4411 C   0  0  0  0  0  0  0  0  0  0  0  0
  -49.0267   55.9670   59.9327 C   0  0  0  0  0  0  0  0  0  0  0  0
  -47.7389   56.6758   59.4865 C   0  0  0  0  0  0  0  0  0  0  0  0
  -46.9993   56.0330   58.3086 C   0  0  0  0  0  0  0  0  0  0  0  0
  -47.8133   55.9945   56.9912 C   0  0  0  0  0  0  0  0  0  0  0  0
  -48.1839   57.4135   56.5142 C   0  0  0  0  0  0  0  0  0  0  0  0
  -47.0724   58.4697   56.5302 C   0  0  0  0  0  0  0  0  0  0  0  0
 46 47  1  0  0  0
 46 48  1  0  0  0
 46 45  1  0  0  0
 47 49  2  0  0  0
 47 51  1  0  0  0
 19 20  2  0  0  0
 37 38  1  0  0  0
 37 39  1  0  0  0
 37 40  1  0  0  0
 37 41  1  0  0  0
 48 50  1  0  0  0
 38 29  1  0  0  0
 45 44  1  0  0  0
 25 27  1  0  0  0
 25 35  1  0  0  0
 25 28  1  0  0  0
 21 20  1  0  0  0
 21 22  1  0  0  0
 44 42  1  0  0  0
  2  1  1  0  0  0
  2  4  1  0  0  0
  2  5  1  0  0  0
 26 27  2  0  0  0
 42 43  2  0  0  0
 29 31  1  0  0  0
 29 36  1  0  0  0
  3  4  2  0  0  0
 43  1  1  0  0  0
  6  9  2  0  0  0
  6 10  1  0  0  0
  1 20  1  0  0  0
 30 36  2  0  0  0
  7  8  1  0  0  0
  7  9  1  0  0  0
 22 24  1  0  0  0
 22 23  1  0  0  0
 11 12  1  0  0  0
 11 18  1  0  0  0
 24 27  1  0  0  0
  4 10  1  0  0  0
 51 52  1  0  0  0
 52 53  1  0  0  0
 53 54  1  0  0  0
 54 55  1  0  0  0
 55 56  1  0  0  0
 56 57  1  0  0  0
 57 58  1  0  0  0
 58 59  1  0  0  0
 59 60  1  0  0  0
 60 61  1  0  0  0
 61 62  1  0  0  0
 62 63  1  0  0  0
 63 64  1  0  0  0
 64 65  1  0  0  0
 31 32  1  0  0  0
 32 33  1  0  0  0
 33 34  1  0  0  0
 34 35  1  0  0  0
 35 36  1  0  0  0
  8 10  1  0  0  0
  9 17  1  0  0  0
 12 13  2  0  0  0
 12 17  1  0  0  0
 13 14  1  0  0  0
 14 15  2  0  0  0
 15 16  1  0  0  0
 16 17  2  0  0  0
M  END
> <minimizedAffinity>
-10.86752

> <CNNscore>
0.2477123737

> <CNNaffinity>
7.6546125412

> <CNN_VS>
1.8961422443

> <CNNaffinity_variance>
1.1061351299

$$$$
/media/chris/experiments/cd1a-new-docking/inputs/ligands/1xz0_ligand.pdb


 65 67  0  0  0  0  0  0  0  0999 V2000
  -36.8399   60.6083   64.3463 C   0  0  0  0  0  0  0  0  0  0  0  0
  -35.4647   60.4323   64.8175 N   0  0  0  0  0  0  0  0  0  0  0  0
  -33.5634   59.2700   65.2724 O   0  0  0  0  0  0  0  0  0  0  0  0
  -34.7090   59.3208   64.8444 C   0  0  0  0  0  0  0  0  0  0  0  0
  -35.0310   61.2451   65.1647 H   0  0  0  0  0  0  0  0  0  0  0  0
  -35.9416   58.3495   62.9164 N   0  0  0  0  0  0  0  0  0  0  0  0
  -37.4602   57.1437   64.0263 O   0  0  0  0  0  0  0  0  0  0  0  0
  -36.3668   57.2433   64.9380 C   0  0  0  0  0  0  0  0  0  0  0  0
  -37.1060   57.8653   62.8298 C   0  0  0  0  0  0  0  0  0  0  0  0
  -35.2723   58.0627   64.1995 C   0  0  0  0  0  0  0  0  0  0  0  0
  -39.7361   56.6666   62.6239 O   0  0  0  0  0  0  0  0  0  0  0  0
  -39.2682   57.3770   61.5904 C   0  0  0  0  0  0  0  0  0  0  0  0
  -40.0601   57.5388   60.4460 C   0  0  0  0  0  0  0  0  0  0  0  0
  -39.5880   58.2720   59.3442 C   0  0  0  0  0  0  0  0  0  0  0  0
  -38.3225   58.8601   59.3782 C   0  0  0  0  0  0  0  0  0  0  0  0
  -37.5312   58.7069   60.5201 C   0  0  0  0  0  0  0  0  0  0  0  0
  -37.9980   57.9655   61.6224 C   0  0  0  0  0  0  0  0  0  0  0  0
  -40.5894   56.2819   62.5800 H   0  0  0  0  0  0  0  0  0  0  0  0
  -36.9194   61.9368   62.3552 O   0  0  0  0  0  0  0  0  0  0  0  0
  -36.8632   61.9135   63.5737 C   0  0  0  0  0  0  0  0  0  0  0  0
  -36.7483   63.1879   64.2905 O   0  0  0  0  0  0  0  0  0  0  0  0
  -35.5672   63.5195   65.0448 C   0  0  0  0  0  0  0  0  0  0  0  0
  -35.8351   63.9579   66.4792 C   0  0  0  0  0  0  0  0  0  0  0  0
  -34.7936   64.5837   64.2809 C   0  0  0  0  0  0  0  0  0  0  0  0
  -32.4590   64.0922   63.7298 N   0  0  0  0  0  0  0  0  0  0  0  0
  -33.0095   65.1663   65.6426 O   0  0  0  0  0  0  0  0  0  0  0  0
  -33.3231   64.6051   64.6178 C   0  0  0  0  0  0  0  0  0  0  0  0
  -31.4980   64.1684   63.9300 H   0  0  0  0  0  0  0  0  0  0  0  0
  -31.4188   61.4176   62.4574 N   0  0  0  0  0  0  0  0  0  0  0  0
  -33.6592   61.2110   62.4038 O   0  0  0  0  0  0  0  0  0  0  0  0
  -30.1903   62.1595   62.7772 C   0  0  0  0  0  0  0  0  0  0  0  0
  -29.8796   63.1974   61.6822 C   0  0  0  0  0  0  0  0  0  0  0  0
  -30.9609   63.3724   60.6287 C   0  0  0  0  0  0  0  0  0  0  0  0
  -32.2438   63.9953   61.1852 C   0  0  0  0  0  0  0  0  0  0  0  0
  -32.8447   63.4254   62.4809 C   0  0  0  0  0  0  0  0  0  0  0  0
  -32.6638   61.9202   62.4596 C   0  0  0  0  0  0  0  0  0  0  0  0
  -31.8303   59.4880   60.5519 Si  0  0  0  0  0  0  0  0  0  0  0  0
  -31.2819   60.0999   62.1395 O   0  0  0  0  0  0  0  0  0  0  0  0
  -31.5775   58.0931   60.4692 H   0  0  0  0  0  0  0  0  0  0  0  0
  -31.1261   60.1587   59.5171 H   0  0  0  0  0  0  0  0  0  0  0  0
  -33.2228   59.7260   60.4081 H   0  0  0  0  0  0  0  0  0  0  0  0
  -39.2351   59.7284   64.9648 C   0  0  0  0  0  0  0  0  0  0  0  0
  -37.9732   60.4872   65.3936 C   0  0  0  0  0  0  0  0  0  0  0  0
  -40.5058   59.9665   65.7980 C   0  0  0  0  0  0  0  0  0  0  0  0
  -41.4155   58.7512   66.0717 C   0  0  0  0  0  0  0  0  0  0  0  0
  -42.4859   58.7430   65.0697 N   0  0  0  0  0  0  0  0  0  0  0  0
  -43.7927   59.0894   65.2104 C   0  0  0  0  0  0  0  0  0  0  0  0
  -42.0731   58.3143   63.8004 O   0  0  0  0  0  0  0  0  0  0  0  0
  -44.2335   59.4885   66.2881 O   0  0  0  0  0  0  0  0  0  0  0  0
  -42.8277   58.3338   63.1912 H   0  0  0  0  0  0  0  0  0  0  0  0
  -44.7258   58.9713   64.0006 C   0  0  0  0  0  0  0  0  0  0  0  0
  -46.2194   58.9304   64.3514 C   0  0  0  0  0  0  0  0  0  0  0  0
  -46.8758   60.2861   64.0267 C   0  0  0  0  0  0  0  0  0  0  0  0
  -48.3697   60.1758   63.6674 C   0  0  0  0  0  0  0  0  0  0  0  0
  -49.3122   60.9676   64.5930 C   0  0  0  0  0  0  0  0  0  0  0  0
  -50.7332   60.3692   64.6565 C   0  0  0  0  0  0  0  0  0  0  0  0
  -51.5865   60.6064   63.3888 C   0  0  0  0  0  0  0  0  0  0  0  0
  -52.0625   59.3104   62.7225 C   0  0  0  0  0  0  0  0  0  0  0  0
  -51.0659   58.1476   62.7641 C   0  0  0  0  0  0  0  0  0  0  0  0
  -50.8537   57.5403   61.3654 C   0  0  0  0  0  0  0  0  0  0  0  0
  -49.4462   57.7693   60.7941 C   0  0  0  0  0  0  0  0  0  0  0  0
  -48.9083   56.6597   59.8848 C   0  0  0  0  0  0  0  0  0  0  0  0
  -47.6639   57.0642   59.0556 C   0  0  0  0  0  0  0  0  0  0  0  0
  -48.0003   58.1701   58.0347 C   0  0  0  0  0  0  0  0  0  0  0  0
  -47.1411   58.2363   56.7663 C   0  0  0  0  0  0  0  0  0  0  0  0
 46 47  1  0  0  0
 46 48  1  0  0  0
 46 45  1  0  0  0
 47 49  2  0  0  0
 47 51  1  0  0  0
 19 20  2  0  0  0
 37 38  1  0  0  0
 37 39  1  0  0  0
 37 40  1  0  0  0
 37 41  1  0  0  0
 48 50  1  0  0  0
 38 29  1  0  0  0
 45 44  1  0  0  0
 25 27  1  0  0  0
 25 35  1  0  0  0
 25 28  1  0  0  0
 21 20  1  0  0  0
 21 22  1  0  0  0
 44 42  1  0  0  0
  2  1  1  0  0  0
  2  4  1  0  0  0
  2  5  1  0  0  0
 26 27  2  0  0  0
 42 43  2  0  0  0
 29 31  1  0  0  0
 29 36  1  0  0  0
  3  4  2  0  0  0
 43  1  1  0  0  0
  6  9  2  0  0  0
  6 10  1  0  0  0
  1 20  1  0  0  0
 30 36  2  0  0  0
  7  8  1  0  0  0
  7  9  1  0  0  0
 22 24  1  0  0  0
 22 23  1  0  0  0
 11 12  1  0  0  0
 11 18  1  0  0  0
 24 27  1  0  0  0
  4 10  1  0  0  0
 51 52  1  0  0  0
 52 53  1  0  0  0
 53 54  1  0  0  0
 54 55  1  0  0  0
 55 56  1  0  0  0
 56 57  1  0  0  0
 57 58  1  0  0  0
 58 59  1  0  0  0
 59 60  1  0  0  0
 60 61  1  0  0  0
 61 62  1  0  0  0
 62 63  1  0  0  0
 63 64  1  0  0  0
 64 65  1  0  0  0
 31 32  1  0  0  0
 32 33  1  0  0  0
 33 34  1  0  0  0
 34 35  1  0  0  0
 35 36  1  0  0  0
  8 10  1  0  0  0
  9 17  1  0  0  0
 12 13  2  0  0  0
 12 17  1  0  0  0
 13 14  1  0  0  0
 14 15  2  0  0  0
 15 16  1  0  0  0
 16 17  2  0  0  0
M  END
> <minimizedAffinity>
-10.43731

> <CNNscore>
0.2259204537

> <CNNaffinity>
7.0265693665

> <CNN_VS>
1.5874457359

> <CNNaffinity_variance>
0.5768468976

$$$$
/media/chris/experiments/cd1a-new-docking/inputs/ligands/1xz0_ligand.pdb


 65 67  0  0  0  0  0  0  0  0999 V2000
  -36.3689   61.6082   63.9255 C   0  0  0  0  0  0  0  0  0  0  0  0
  -35.2826   61.1060   64.7692 N   0  0  0  0  0  0  0  0  0  0  0  0
  -33.6394   59.6607   65.3889 O   0  0  0  0  0  0  0  0  0  0  0  0
  -34.5237   60.0068   64.6167 C   0  0  0  0  0  0  0  0  0  0  0  0
  -35.0784   61.6521   65.5625 H   0  0  0  0  0  0  0  0  0  0  0  0
  -36.0042   59.4411   62.7015 N   0  0  0  0  0  0  0  0  0  0  0  0
  -35.9018   57.2117   62.8093 O   0  0  0  0  0  0  0  0  0  0  0  0
  -34.6811   57.6417   63.4107 C   0  0  0  0  0  0  0  0  0  0  0  0
  -36.6438   58.3864   62.4254 C   0  0  0  0  0  0  0  0  0  0  0  0
  -34.6984   59.1940   63.3420 C   0  0  0  0  0  0  0  0  0  0  0  0
  -37.7961   60.5810   60.9245 O   0  0  0  0  0  0  0  0  0  0  0  0
  -38.4739   59.4297   61.0069 C   0  0  0  0  0  0  0  0  0  0  0  0
  -39.7090   59.3049   60.3572 C   0  0  0  0  0  0  0  0  0  0  0  0
  -40.4442   58.1101   60.4362 C   0  0  0  0  0  0  0  0  0  0  0  0
  -39.9479   57.0229   61.1576 C   0  0  0  0  0  0  0  0  0  0  0  0
  -38.7133   57.1402   61.8021 C   0  0  0  0  0  0  0  0  0  0  0  0
  -37.9783   58.3392   61.7321 C   0  0  0  0  0  0  0  0  0  0  0  0
  -38.1476   61.2974   60.4333 H   0  0  0  0  0  0  0  0  0  0  0  0
  -36.1529   63.9190   64.5164 O   0  0  0  0  0  0  0  0  0  0  0  0
  -36.0562   63.0665   63.6489 C   0  0  0  0  0  0  0  0  0  0  0  0
  -35.6917   63.4902   62.2930 O   0  0  0  0  0  0  0  0  0  0  0  0
  -35.4412   64.8740   61.9824 C   0  0  0  0  0  0  0  0  0  0  0  0
  -36.2377   65.4110   60.7998 C   0  0  0  0  0  0  0  0  0  0  0  0
  -33.9463   65.0532   61.7641 C   0  0  0  0  0  0  0  0  0  0  0  0
  -32.2667   65.9380   63.3107 N   0  0  0  0  0  0  0  0  0  0  0  0
  -33.8711   67.2711   62.4366 O   0  0  0  0  0  0  0  0  0  0  0  0
  -33.3596   66.1834   62.5734 C   0  0  0  0  0  0  0  0  0  0  0  0
  -31.8546   66.6964   63.7844 H   0  0  0  0  0  0  0  0  0  0  0  0
  -32.4366   63.8744   65.6702 N   0  0  0  0  0  0  0  0  0  0  0  0
  -32.8800   62.6448   63.8381 O   0  0  0  0  0  0  0  0  0  0  0  0
  -32.1049   65.1443   66.3329 C   0  0  0  0  0  0  0  0  0  0  0  0
  -30.5938   65.4286   66.2413 C   0  0  0  0  0  0  0  0  0  0  0  0
  -29.8068   64.4752   65.3573 C   0  0  0  0  0  0  0  0  0  0  0  0
  -30.1603   64.6050   63.8734 C   0  0  0  0  0  0  0  0  0  0  0  0
  -31.6418   64.6189   63.4614 C   0  0  0  0  0  0  0  0  0  0  0  0
  -32.3850   63.6400   64.3492 C   0  0  0  0  0  0  0  0  0  0  0  0
  -33.1111   63.1064   68.2156 Si  0  0  0  0  0  0  0  0  0  0  0  0
  -32.8415   62.8466   66.4676 O   0  0  0  0  0  0  0  0  0  0  0  0
  -33.5253   61.8884   68.8169 H   0  0  0  0  0  0  0  0  0  0  0  0
  -34.1181   64.0908   68.3981 H   0  0  0  0  0  0  0  0  0  0  0  0
  -31.9040   63.5463   68.8205 H   0  0  0  0  0  0  0  0  0  0  0  0
  -38.0120   60.3341   65.5289 C   0  0  0  0  0  0  0  0  0  0  0  0
  -37.8187   61.3659   64.4109 C   0  0  0  0  0  0  0  0  0  0  0  0
  -39.4305   59.7697   65.7158 C   0  0  0  0  0  0  0  0  0  0  0  0
  -39.7854   58.4723   64.9608 C   0  0  0  0  0  0  0  0  0  0  0  0
  -40.9858   58.7218   64.1568 N   0  0  0  0  0  0  0  0  0  0  0  0
  -42.0569   57.9125   63.9437 C   0  0  0  0  0  0  0  0  0  0  0  0
  -41.0024   59.9780   63.5346 O   0  0  0  0  0  0  0  0  0  0  0  0
  -42.1272   56.7989   64.4632 O   0  0  0  0  0  0  0  0  0  0  0  0
  -41.8204   60.0745   63.0225 H   0  0  0  0  0  0  0  0  0  0  0  0
  -43.1881   58.4032   63.0340 C   0  0  0  0  0  0  0  0  0  0  0  0
  -44.5830   58.3561   63.6724 C   0  0  0  0  0  0  0  0  0  0  0  0
  -44.8943   59.6986   64.3617 C   0  0  0  0  0  0  0  0  0  0  0  0
  -45.8094   59.5601   65.5932 C   0  0  0  0  0  0  0  0  0  0  0  0
  -47.1441   58.8408   65.3228 C   0  0  0  0  0  0  0  0  0  0  0  0
  -48.2290   59.7815   64.7576 C   0  0  0  0  0  0  0  0  0  0  0  0
  -49.4089   60.0517   65.7201 C   0  0  0  0  0  0  0  0  0  0  0  0
  -50.7278   59.4192   65.2609 C   0  0  0  0  0  0  0  0  0  0  0  0
  -51.6228   60.3193   64.4031 C   0  0  0  0  0  0  0  0  0  0  0  0
  -51.8211   59.7335   62.9933 C   0  0  0  0  0  0  0  0  0  0  0  0
  -51.0240   58.4456   62.7364 C   0  0  0  0  0  0  0  0  0  0  0  0
  -51.4883   57.6021   61.5446 C   0  0  0  0  0  0  0  0  0  0  0  0
  -50.3396   57.1003   60.6345 C   0  0  0  0  0  0  0  0  0  0  0  0
  -50.1540   58.0118   59.4044 C   0  0  0  0  0  0  0  0  0  0  0  0
  -48.7528   58.0740   58.7846 C   0  0  0  0  0  0  0  0  0  0  0  0
 46 47  1  0  0  0
 46 48  1  0  0  0
 46 45  1  0  0  0
 47 49  2  0  0  0
 47 51  1  0  0  0
 19 20  2  0  0  0
 37 38  1  0  0  0
 37 39  1  0  0  0
 37 40  1  0  0  0
 37 41  1  0  0  0
 48 50  1  0  0  0
 38 29  1  0  0  0
 45 44  1  0  0  0
 25 27  1  0  0  0
 25 35  1  0  0  0
 25 28  1  0  0  0
 21 20  1  0  0  0
 21 22  1  0  0  0
 44 42  1  0  0  0
  2  1  1  0  0  0
  2  4  1  0  0  0
  2  5  1  0  0  0
 26 27  2  0  0  0
 42 43  2  0  0  0
 29 31  1  0  0  0
 29 36  1  0  0  0
  3  4  2  0  0  0
 43  1  1  0  0  0
  6  9  2  0  0  0
  6 10  1  0  0  0
  1 20  1  0  0  0
 30 36  2  0  0  0
  7  8  1  0  0  0
  7  9  1  0  0  0
 22 24  1  0  0  0
 22 23  1  0  0  0
 11 12  1  0  0  0
 11 18  1  0  0  0
 24 27  1  0  0  0
  4 10  1  0  0  0
 51 52  1  0  0  0
 52 53  1  0  0  0
 53 54  1  0  0  0
 54 55  1  0  0  0
 55 56  1  0  0  0
 56 57  1  0  0  0
 57 58  1  0  0  0
 58 59  1  0  0  0
 59 60  1  0  0  0
 60 61  1  0  0  0
 61 62  1  0  0  0
 62 63  1  0  0  0
 63 64  1  0  0  0
 64 65  1  0  0  0
 31 32  1  0  0  0
 32 33  1  0  0  0
 33 34  1  0  0  0
 34 35  1  0  0  0
 35 36  1  0  0  0
  8 10  1  0  0  0
  9 17  1  0  0  0
 12 13  2  0  0  0
 12 17  1  0  0  0
 13 14  1  0  0  0
 14 15  2  0  0  0
 15 16  1  0  0  0
 16 17  2  0  0  0
M  END
> <minimizedAffinity>
-9.90682

> <CNNscore>
0.2226670384

> <CNNaffinity>
7.1338605881

> <CNN_VS>
1.5884755850

> <CNNaffinity_variance>
0.4140629768

$$$$
/media/chris/experiments/cd1a-new-docking/inputs/ligands/1xz0_ligand.pdb


 65 67  0  0  0  0  0  0  0  0999 V2000
  -41.4227   57.2182   63.0896 C   0  0  0  0  0  0  0  0  0  0  0  0
  -40.1985   56.8176   63.7859 N   0  0  0  0  0  0  0  0  0  0  0  0
  -38.2426   57.1536   64.8971 O   0  0  0  0  0  0  0  0  0  0  0  0
  -39.2451   57.5847   64.3426 C   0  0  0  0  0  0  0  0  0  0  0  0
  -40.0526   55.8465   63.8567 H   0  0  0  0  0  0  0  0  0  0  0  0
  -38.2164   59.8471   64.2862 N   0  0  0  0  0  0  0  0  0  0  0  0
  -39.2136   60.7443   66.0731 O   0  0  0  0  0  0  0  0  0  0  0  0
  -40.1229   59.7316   65.6438 C   0  0  0  0  0  0  0  0  0  0  0  0
  -38.0763   60.7219   65.1878 C   0  0  0  0  0  0  0  0  0  0  0  0
  -39.4776   59.0881   64.3852 C   0  0  0  0  0  0  0  0  0  0  0  0
  -37.2910   62.6229   63.1467 O   0  0  0  0  0  0  0  0  0  0  0  0
  -36.5923   62.5759   64.2875 C   0  0  0  0  0  0  0  0  0  0  0  0
  -35.5146   63.4510   64.4763 C   0  0  0  0  0  0  0  0  0  0  0  0
  -34.7598   63.4150   65.6609 C   0  0  0  0  0  0  0  0  0  0  0  0
  -35.0803   62.5102   66.6744 C   0  0  0  0  0  0  0  0  0  0  0  0
  -36.1585   61.6394   66.4934 C   0  0  0  0  0  0  0  0  0  0  0  0
  -36.9114   61.6671   65.3038 C   0  0  0  0  0  0  0  0  0  0  0  0
  -37.0591   63.2397   62.4804 H   0  0  0  0  0  0  0  0  0  0  0  0
  -41.5743   59.0302   61.5310 O   0  0  0  0  0  0  0  0  0  0  0  0
  -40.9833   58.0217   61.8804 C   0  0  0  0  0  0  0  0  0  0  0  0
  -39.8624   57.5513   61.0598 O   0  0  0  0  0  0  0  0  0  0  0  0
  -38.9791   58.4758   60.3972 C   0  0  0  0  0  0  0  0  0  0  0  0
  -38.8548   58.2646   58.8934 C   0  0  0  0  0  0  0  0  0  0  0  0
  -37.6189   58.4089   61.0753 C   0  0  0  0  0  0  0  0  0  0  0  0
  -36.0445   59.7742   62.3610 N   0  0  0  0  0  0  0  0  0  0  0  0
  -37.7879   60.7135   61.2684 O   0  0  0  0  0  0  0  0  0  0  0  0
  -37.1591   59.7402   61.6162 C   0  0  0  0  0  0  0  0  0  0  0  0
  -35.7178   60.6550   62.6557 H   0  0  0  0  0  0  0  0  0  0  0  0
  -33.8232   59.4576   64.5565 N   0  0  0  0  0  0  0  0  0  0  0  0
  -35.2536   57.7729   64.9819 O   0  0  0  0  0  0  0  0  0  0  0  0
  -33.3895   60.6280   63.7794 C   0  0  0  0  0  0  0  0  0  0  0  0
  -32.6599   60.1900   62.4955 C   0  0  0  0  0  0  0  0  0  0  0  0
  -32.6981   58.6989   62.2042 C   0  0  0  0  0  0  0  0  0  0  0  0
  -34.1012   58.1916   61.8614 C   0  0  0  0  0  0  0  0  0  0  0  0
  -35.2774   58.5913   62.7678 C   0  0  0  0  0  0  0  0  0  0  0  0
  -34.7857   58.5913   64.2020 C   0  0  0  0  0  0  0  0  0  0  0  0
  -33.1771   57.6048   66.4731 Si  0  0  0  0  0  0  0  0  0  0  0  0
  -33.1986   59.2383   65.7473 O   0  0  0  0  0  0  0  0  0  0  0  0
  -32.4685   57.6427   67.7031 H   0  0  0  0  0  0  0  0  0  0  0  0
  -32.5361   56.7007   65.5853 H   0  0  0  0  0  0  0  0  0  0  0  0
  -34.5095   57.1734   66.7075 H   0  0  0  0  0  0  0  0  0  0  0  0
  -43.2532   57.0466   64.9641 C   0  0  0  0  0  0  0  0  0  0  0  0
  -42.5251   57.9106   63.9271 C   0  0  0  0  0  0  0  0  0  0  0  0
  -44.6043   57.5707   65.4797 C   0  0  0  0  0  0  0  0  0  0  0  0
  -44.8178   59.0983   65.4902 C   0  0  0  0  0  0  0  0  0  0  0  0
  -46.1309   59.3750   66.0809 N   0  0  0  0  0  0  0  0  0  0  0  0
  -47.2459   59.8806   65.4903 C   0  0  0  0  0  0  0  0  0  0  0  0
  -46.2176   59.0639   67.4452 O   0  0  0  0  0  0  0  0  0  0  0  0
  -47.2582   60.1680   64.2936 O   0  0  0  0  0  0  0  0  0  0  0  0
  -47.1085   59.2710   67.7681 H   0  0  0  0  0  0  0  0  0  0  0  0
  -48.5020   60.0981   66.3406 C   0  0  0  0  0  0  0  0  0  0  0  0
  -49.8021   59.6033   65.6921 C   0  0  0  0  0  0  0  0  0  0  0  0
  -50.4099   60.7133   64.8131 C   0  0  0  0  0  0  0  0  0  0  0  0
  -51.9047   60.5043   64.5045 C   0  0  0  0  0  0  0  0  0  0  0  0
  -52.2123   60.1379   63.0407 C   0  0  0  0  0  0  0  0  0  0  0  0
  -51.0002   59.5254   62.3078 C   0  0  0  0  0  0  0  0  0  0  0  0
  -50.9799   57.9793   62.2826 C   0  0  0  0  0  0  0  0  0  0  0  0
  -51.1297   57.3902   60.8751 C   0  0  0  0  0  0  0  0  0  0  0  0
  -50.2058   57.9913   59.8112 C   0  0  0  0  0  0  0  0  0  0  0  0
  -48.7342   57.6225   60.0729 C   0  0  0  0  0  0  0  0  0  0  0  0
  -48.3444   56.2233   59.5726 C   0  0  0  0  0  0  0  0  0  0  0  0
  -47.2480   56.1803   58.5032 C   0  0  0  0  0  0  0  0  0  0  0  0
  -47.7740   55.9739   57.0609 C   0  0  0  0  0  0  0  0  0  0  0  0
  -48.0565   57.3205   56.3643 C   0  0  0  0  0  0  0  0  0  0  0  0
  -47.0984   58.4791   56.6661 C   0  0  0  0  0  0  0  0  0  0  0  0
 46 47  1  0  0  0
 46 48  1  0  0  0
 46 45  1  0  0  0
 47 49  2  0  0  0
 47 51  1  0  0  0
 19 20  2  0  0  0
 37 38  1  0  0  0
 37 39  1  0  0  0
 37 40  1  0  0  0
 37 41  1  0  0  0
 48 50  1  0  0  0
 38 29  1  0  0  0
 45 44  1  0  0  0
 25 27  1  0  0  0
 25 35  1  0  0  0
 25 28  1  0  0  0
 21 20  1  0  0  0
 21 22  1  0  0  0
 44 42  1  0  0  0
  2  1  1  0  0  0
  2  4  1  0  0  0
  2  5  1  0  0  0
 26 27  2  0  0  0
 42 43  2  0  0  0
 29 31  1  0  0  0
 29 36  1  0  0  0
  3  4  2  0  0  0
 43  1  1  0  0  0
  6  9  2  0  0  0
  6 10  1  0  0  0
  1 20  1  0  0  0
 30 36  2  0  0  0
  7  8  1  0  0  0
  7  9  1  0  0  0
 22 24  1  0  0  0
 22 23  1  0  0  0
 11 12  1  0  0  0
 11 18  1  0  0  0
 24 27  1  0  0  0
  4 10  1  0  0  0
 51 52  1  0  0  0
 52 53  1  0  0  0
 53 54  1  0  0  0
 54 55  1  0  0  0
 55 56  1  0  0  0
 56 57  1  0  0  0
 57 58  1  0  0  0
 58 59  1  0  0  0
 59 60  1  0  0  0
 60 61  1  0  0  0
 61 62  1  0  0  0
 62 63  1  0  0  0
 63 64  1  0  0  0
 64 65  1  0  0  0
 31 32  1  0  0  0
 32 33  1  0  0  0
 33 34  1  0  0  0
 34 35  1  0  0  0
 35 36  1  0  0  0
  8 10  1  0  0  0
  9 17  1  0  0  0
 12 13  2  0  0  0
 12 17  1  0  0  0
 13 14  1  0  0  0
 14 15  2  0  0  0
 15 16  1  0  0  0
 16 17  2  0  0  0
M  END
> <minimizedAffinity>
-9.80135

> <CNNscore>
0.1970087886

> <CNNaffinity>
7.4139986038

> <CNN_VS>
1.4606229067

> <CNNaffinity_variance>
0.7880313396

$$$$
/media/chris/experiments/cd1a-new-docking/inputs/ligands/1xz0_ligand.pdb


 65 67  0  0  0  0  0  0  0  0999 V2000
  -37.5924   58.2056   63.2111 C   0  0  0  0  0  0  0  0  0  0  0  0
  -37.5884   58.0544   61.7546 N   0  0  0  0  0  0  0  0  0  0  0  0
  -37.9602   58.6950   59.6042 O   0  0  0  0  0  0  0  0  0  0  0  0
  -37.9917   58.9187   60.8071 C   0  0  0  0  0  0  0  0  0  0  0  0
  -37.2402   57.1960   61.4212 H   0  0  0  0  0  0  0  0  0  0  0  0
  -37.3077   61.0500   61.8886 N   0  0  0  0  0  0  0  0  0  0  0  0
  -38.9798   61.2664   63.3547 O   0  0  0  0  0  0  0  0  0  0  0  0
  -39.5404   60.4751   62.3078 C   0  0  0  0  0  0  0  0  0  0  0  0
  -37.6094   61.5505   63.0094 C   0  0  0  0  0  0  0  0  0  0  0  0
  -38.4140   60.3122   61.2498 C   0  0  0  0  0  0  0  0  0  0  0  0
  -37.1774   61.1529   65.8470 O   0  0  0  0  0  0  0  0  0  0  0  0
  -36.5130   62.1342   65.2246 C   0  0  0  0  0  0  0  0  0  0  0  0
  -35.6172   62.9319   65.9487 C   0  0  0  0  0  0  0  0  0  0  0  0
  -34.9148   63.9741   65.3205 C   0  0  0  0  0  0  0  0  0  0  0  0
  -35.0928   64.2242   63.9587 C   0  0  0  0  0  0  0  0  0  0  0  0
  -35.9805   63.4271   63.2306 C   0  0  0  0  0  0  0  0  0  0  0  0
  -36.6923   62.3875   63.8592 C   0  0  0  0  0  0  0  0  0  0  0  0
  -37.0412   61.0018   66.7617 H   0  0  0  0  0  0  0  0  0  0  0  0
  -35.6169   56.8530   63.2692 O   0  0  0  0  0  0  0  0  0  0  0  0
  -36.1967   57.8439   63.6822 C   0  0  0  0  0  0  0  0  0  0  0  0
  -35.5397   58.6580   64.7101 O   0  0  0  0  0  0  0  0  0  0  0  0
  -34.1963   59.1462   64.5338 C   0  0  0  0  0  0  0  0  0  0  0  0
  -33.6369   59.9050   65.7308 C   0  0  0  0  0  0  0  0  0  0  0  0
  -34.1580   60.0005   63.2755 C   0  0  0  0  0  0  0  0  0  0  0  0
  -32.1787   60.7451   62.0410 N   0  0  0  0  0  0  0  0  0  0  0  0
  -32.7353   58.5556   62.1508 O   0  0  0  0  0  0  0  0  0  0  0  0
  -32.9608   59.7173   62.4020 C   0  0  0  0  0  0  0  0  0  0  0  0
  -31.3655   60.5418   61.5247 H   0  0  0  0  0  0  0  0  0  0  0  0
  -30.9375   63.3694   60.8464 N   0  0  0  0  0  0  0  0  0  0  0  0
  -33.1579   63.7238   60.7494 O   0  0  0  0  0  0  0  0  0  0  0  0
  -29.7675   62.5452   61.1835 C   0  0  0  0  0  0  0  0  0  0  0  0
  -29.4304   62.6641   62.6818 C   0  0  0  0  0  0  0  0  0  0  0  0
  -30.4452   63.4279   63.5164 C   0  0  0  0  0  0  0  0  0  0  0  0
  -31.7890   62.7041   63.6350 C   0  0  0  0  0  0  0  0  0  0  0  0
  -32.4496   62.1512   62.3612 C   0  0  0  0  0  0  0  0  0  0  0  0
  -32.2010   63.1382   61.2374 C   0  0  0  0  0  0  0  0  0  0  0  0
  -32.0751   65.5370   59.6091 Si  0  0  0  0  0  0  0  0  0  0  0  0
  -30.7212   64.4600   60.0591 O   0  0  0  0  0  0  0  0  0  0  0  0
  -31.5897   66.5909   58.7905 H   0  0  0  0  0  0  0  0  0  0  0  0
  -32.6584   66.0806   60.7842 H   0  0  0  0  0  0  0  0  0  0  0  0
  -33.0529   64.7950   58.8950 H   0  0  0  0  0  0  0  0  0  0  0  0
  -39.9417   57.0331   63.1967 C   0  0  0  0  0  0  0  0  0  0  0  0
  -38.7175   57.4915   63.9987 C   0  0  0  0  0  0  0  0  0  0  0  0
  -41.2216   56.7310   63.9944 C   0  0  0  0  0  0  0  0  0  0  0  0
  -42.5702   57.0984   63.3419 C   0  0  0  0  0  0  0  0  0  0  0  0
  -43.2351   58.0933   64.1891 N   0  0  0  0  0  0  0  0  0  0  0  0
  -44.1275   57.9009   65.1962 C   0  0  0  0  0  0  0  0  0  0  0  0
  -42.8803   59.4176   63.8962 O   0  0  0  0  0  0  0  0  0  0  0  0
  -44.4822   56.7692   65.5254 O   0  0  0  0  0  0  0  0  0  0  0  0
  -43.3549   60.0187   64.4914 H   0  0  0  0  0  0  0  0  0  0  0  0
  -44.6999   59.1221   65.9235 C   0  0  0  0  0  0  0  0  0  0  0  0
  -46.0334   58.8681   66.6397 C   0  0  0  0  0  0  0  0  0  0  0  0
  -47.2075   59.2926   65.7368 C   0  0  0  0  0  0  0  0  0  0  0  0
  -48.3015   60.0818   66.4807 C   0  0  0  0  0  0  0  0  0  0  0  0
  -49.6610   60.1299   65.7587 C   0  0  0  0  0  0  0  0  0  0  0  0
  -50.3365   58.7461   65.6584 C   0  0  0  0  0  0  0  0  0  0  0  0
  -50.1476   58.0370   64.2970 C   0  0  0  0  0  0  0  0  0  0  0  0
  -49.9065   59.0053   63.1332 C   0  0  0  0  0  0  0  0  0  0  0  0
  -50.9498   58.9558   62.0124 C   0  0  0  0  0  0  0  0  0  0  0  0
  -51.2733   57.5053   61.6107 C   0  0  0  0  0  0  0  0  0  0  0  0
  -50.1744   56.8306   60.7758 C   0  0  0  0  0  0  0  0  0  0  0  0
  -49.2169   57.7781   60.0456 C   0  0  0  0  0  0  0  0  0  0  0  0
  -48.9477   57.3964   58.5687 C   0  0  0  0  0  0  0  0  0  0  0  0
  -47.9540   58.3713   57.9051 C   0  0  0  0  0  0  0  0  0  0  0  0
  -47.4325   57.9986   56.5121 C   0  0  0  0  0  0  0  0  0  0  0  0
 46 47  1  0  0  0
 46 48  1  0  0  0
 46 45  1  0  0  0
 47 49  2  0  0  0
 47 51  1  0  0  0
 19 20  2  0  0  0
 37 38  1  0  0  0
 37 39  1  0  0  0
 37 40  1  0  0  0
 37 41  1  0  0  0
 48 50  1  0  0  0
 38 29  1  0  0  0
 45 44  1  0  0  0
 25 27  1  0  0  0
 25 35  1  0  0  0
 25 28  1  0  0  0
 21 20  1  0  0  0
 21 22  1  0  0  0
 44 42  1  0  0  0
  2  1  1  0  0  0
  2  4  1  0  0  0
  2  5  1  0  0  0
 26 27  2  0  0  0
 42 43  2  0  0  0
 29 31  1  0  0  0
 29 36  1  0  0  0
  3  4  2  0  0  0
 43  1  1  0  0  0
  6  9  2  0  0  0
  6 10  1  0  0  0
  1 20  1  0  0  0
 30 36  2  0  0  0
  7  8  1  0  0  0
  7  9  1  0  0  0
 22 24  1  0  0  0
 22 23  1  0  0  0
 11 12  1  0  0  0
 11 18  1  0  0  0
 24 27  1  0  0  0
  4 10  1  0  0  0
 51 52  1  0  0  0
 52 53  1  0  0  0
 53 54  1  0  0  0
 54 55  1  0  0  0
 55 56  1  0  0  0
 56 57  1  0  0  0
 57 58  1  0  0  0
 58 59  1  0  0  0
 59 60  1  0  0  0
 60 61  1  0  0  0
 61 62  1  0  0  0
 62 63  1  0  0  0
 63 64  1  0  0  0
 64 65  1  0  0  0
 31 32  1  0  0  0
 32 33  1  0  0  0
 33 34  1  0  0  0
 34 35  1  0  0  0
 35 36  1  0  0  0
  8 10  1  0  0  0
  9 17  1  0  0  0
 12 13  2  0  0  0
 12 17  1  0  0  0
 13 14  1  0  0  0
 14 15  2  0  0  0
 15 16  1  0  0  0
 16 17  2  0  0  0
M  END
> <minimizedAffinity>
-9.73104

> <CNNscore>
0.1930889487

> <CNNaffinity>
6.6284132004

> <CNN_VS>
1.2798733711

> <CNNaffinity_variance>
0.7136144638

$$$$
/media/chris/experiments/cd1a-new-docking/inputs/ligands/1xz0_ligand.pdb


 65 67  0  0  0  0  0  0  0  0999 V2000
  -42.2291   58.9499   65.1270 C   0  0  0  0  0  0  0  0  0  0  0  0
  -41.9887   57.5542   65.4988 N   0  0  0  0  0  0  0  0  0  0  0  0
  -41.8451   55.3117   65.1470 O   0  0  0  0  0  0  0  0  0  0  0  0
  -42.0533   56.4468   64.7392 C   0  0  0  0  0  0  0  0  0  0  0  0
  -41.7445   57.4052   66.4408 H   0  0  0  0  0  0  0  0  0  0  0  0
  -41.0314   56.7331   62.4912 N   0  0  0  0  0  0  0  0  0  0  0  0
  -42.2104   58.4917   61.7774 O   0  0  0  0  0  0  0  0  0  0  0  0
  -43.0674   57.8678   62.7328 C   0  0  0  0  0  0  0  0  0  0  0  0
  -40.9877   57.7306   61.7162 C   0  0  0  0  0  0  0  0  0  0  0  0
  -42.2937   56.6220   63.2467 C   0  0  0  0  0  0  0  0  0  0  0  0
  -41.2055   57.9612   58.8358 O   0  0  0  0  0  0  0  0  0  0  0  0
  -40.0170   58.1777   59.4123 C   0  0  0  0  0  0  0  0  0  0  0  0
  -38.9154   58.5245   58.6192 C   0  0  0  0  0  0  0  0  0  0  0  0
  -37.6551   58.7477   59.1991 C   0  0  0  0  0  0  0  0  0  0  0  0
  -37.4845   58.6363   60.5801 C   0  0  0  0  0  0  0  0  0  0  0  0
  -38.5818   58.2967   61.3763 C   0  0  0  0  0  0  0  0  0  0  0  0
  -39.8440   58.0639   60.7971 C   0  0  0  0  0  0  0  0  0  0  0  0
  -41.2976   58.0432   57.9069 H   0  0  0  0  0  0  0  0  0  0  0  0
  -40.9864   59.8968   66.9421 O   0  0  0  0  0  0  0  0  0  0  0  0
  -41.0968   59.7554   65.7353 C   0  0  0  0  0  0  0  0  0  0  0  0
  -40.1403   60.4440   64.8625 O   0  0  0  0  0  0  0  0  0  0  0  0
  -38.9445   59.7899   64.3978 C   0  0  0  0  0  0  0  0  0  0  0  0
  -38.6518   58.4545   65.0706 C   0  0  0  0  0  0  0  0  0  0  0  0
  -37.7778   60.7529   64.5588 C   0  0  0  0  0  0  0  0  0  0  0  0
  -35.8428   61.1733   63.1183 N   0  0  0  0  0  0  0  0  0  0  0  0
  -37.9538   61.4335   62.3491 O   0  0  0  0  0  0  0  0  0  0  0  0
  -37.1780   61.1838   63.2431 C   0  0  0  0  0  0  0  0  0  0  0  0
  -35.4639   61.3947   62.2370 H   0  0  0  0  0  0  0  0  0  0  0  0
  -33.0161   59.8115   63.0190 N   0  0  0  0  0  0  0  0  0  0  0  0
  -32.6877   61.6582   64.2628 O   0  0  0  0  0  0  0  0  0  0  0  0
  -33.8714   58.9112   62.2317 C   0  0  0  0  0  0  0  0  0  0  0  0
  -34.6674   57.9697   63.1550 C   0  0  0  0  0  0  0  0  0  0  0  0
  -34.5584   58.2728   64.6403 C   0  0  0  0  0  0  0  0  0  0  0  0
  -35.2185   59.5977   65.0309 C   0  0  0  0  0  0  0  0  0  0  0  0
  -34.9067   60.8553   64.2027 C   0  0  0  0  0  0  0  0  0  0  0  0
  -33.4428   60.8082   63.8110 C   0  0  0  0  0  0  0  0  0  0  0  0
  -30.8156   59.9030   61.3841 Si  0  0  0  0  0  0  0  0  0  0  0  0
  -31.6698   59.6230   62.9293 O   0  0  0  0  0  0  0  0  0  0  0  0
  -29.4307   59.6386   61.5542 H   0  0  0  0  0  0  0  0  0  0  0  0
  -30.9938   61.2534   60.9827 H   0  0  0  0  0  0  0  0  0  0  0  0
  -31.3435   59.0395   60.3881 H   0  0  0  0  0  0  0  0  0  0  0  0
  -44.4458   58.8598   66.5314 C   0  0  0  0  0  0  0  0  0  0  0  0
  -43.6326   59.5338   65.4195 C   0  0  0  0  0  0  0  0  0  0  0  0
  -45.9609   59.1244   66.5420 C   0  0  0  0  0  0  0  0  0  0  0  0
  -46.5757   59.7910   65.2942 C   0  0  0  0  0  0  0  0  0  0  0  0
  -47.9890   59.4085   65.2177 N   0  0  0  0  0  0  0  0  0  0  0  0
  -49.0197   59.7740   66.0251 C   0  0  0  0  0  0  0  0  0  0  0  0
  -48.2879   58.5464   64.1534 O   0  0  0  0  0  0  0  0  0  0  0  0
  -48.8453   60.5381   66.9742 O   0  0  0  0  0  0  0  0  0  0  0  0
  -49.2347   58.3360   64.1637 H   0  0  0  0  0  0  0  0  0  0  0  0
  -50.4177   59.2139   65.7428 C   0  0  0  0  0  0  0  0  0  0  0  0
  -51.4678   60.2751   65.3869 C   0  0  0  0  0  0  0  0  0  0  0  0
  -51.0018   61.0909   64.1657 C   0  0  0  0  0  0  0  0  0  0  0  0
  -51.8791   60.8838   62.9164 C   0  0  0  0  0  0  0  0  0  0  0  0
  -52.2691   59.4193   62.6423 C   0  0  0  0  0  0  0  0  0  0  0  0
  -51.0705   58.5505   62.2067 C   0  0  0  0  0  0  0  0  0  0  0  0
  -51.4221   57.4304   61.2000 C   0  0  0  0  0  0  0  0  0  0  0  0
  -50.3767   56.3105   61.1439 C   0  0  0  0  0  0  0  0  0  0  0  0
  -49.4202   56.3658   59.9485 C   0  0  0  0  0  0  0  0  0  0  0  0
  -49.6526   57.6307   59.1021 C   0  0  0  0  0  0  0  0  0  0  0  0
  -48.4924   58.6362   59.1537 C   0  0  0  0  0  0  0  0  0  0  0  0
  -48.0017   59.1563   57.7985 C   0  0  0  0  0  0  0  0  0  0  0  0
  -47.0154   58.2077   57.0726 C   0  0  0  0  0  0  0  0  0  0  0  0
  -47.7621   57.1427   56.2439 C   0  0  0  0  0  0  0  0  0  0  0  0
  -47.6440   55.6858   56.7076 C   0  0  0  0  0  0  0  0  0  0  0  0
 46 47  1  0  0  0
 46 48  1  0  0  0
 46 45  1  0  0  0
 47 49  2  0  0  0
 47 51  1  0  0  0
 19 20  2  0  0  0
 37 38  1  0  0  0
 37 39  1  0  0  0
 37 40  1  0  0  0
 37 41  1  0  0  0
 48 50  1  0  0  0
 38 29  1  0  0  0
 45 44  1  0  0  0
 25 27  1  0  0  0
 25 35  1  0  0  0
 25 28  1  0  0  0
 21 20  1  0  0  0
 21 22  1  0  0  0
 44 42  1  0  0  0
  2  1  1  0  0  0
  2  4  1  0  0  0
  2  5  1  0  0  0
 26 27  2  0  0  0
 42 43  2  0  0  0
 29 31  1  0  0  0
 29 36  1  0  0  0
  3  4  2  0  0  0
 43  1  1  0  0  0
  6  9  2  0  0  0
  6 10  1  0  0  0
  1 20  1  0  0  0
 30 36  2  0  0  0
  7  8  1  0  0  0
  7  9  1  0  0  0
 22 24  1  0  0  0
 22 23  1  0  0  0
 11 12  1  0  0  0
 11 18  1  0  0  0
 24 27  1  0  0  0
  4 10  1  0  0  0
 51 52  1  0  0  0
 52 53  1  0  0  0
 53 54  1  0  0  0
 54 55  1  0  0  0
 55 56  1  0  0  0
 56 57  1  0  0  0
 57 58  1  0  0  0
 58 59  1  0  0  0
 59 60  1  0  0  0
 60 61  1  0  0  0
 61 62  1  0  0  0
 62 63  1  0  0  0
 63 64  1  0  0  0
 64 65  1  0  0  0
 31 32  1  0  0  0
 32 33  1  0  0  0
 33 34  1  0  0  0
 34 35  1  0  0  0
 35 36  1  0  0  0
  8 10  1  0  0  0
  9 17  1  0  0  0
 12 13  2  0  0  0
 12 17  1  0  0  0
 13 14  1  0  0  0
 14 15  2  0  0  0
 15 16  1  0  0  0
 16 17  2  0  0  0
M  END
> <minimizedAffinity>
-10.03716

> <CNNscore>
0.1762055755

> <CNNaffinity>
7.4800772667

> <CNN_VS>
1.3180313110

> <CNNaffinity_variance>
0.7686566114

$$$$
/media/chris/experiments/cd1a-new-docking/inputs/ligands/1xz0_ligand.pdb


 65 67  0  0  0  0  0  0  0  0999 V2000
  -36.4094   61.2775   64.1459 C   0  0  0  0  0  0  0  0  0  0  0  0
  -35.1326   60.9078   64.7602 N   0  0  0  0  0  0  0  0  0  0  0  0
  -33.2441   59.6690   65.0278 O   0  0  0  0  0  0  0  0  0  0  0  0
  -34.2921   59.9079   64.4424 C   0  0  0  0  0  0  0  0  0  0  0  0
  -34.8488   61.4730   65.5147 H   0  0  0  0  0  0  0  0  0  0  0  0
  -35.9398   59.3926   62.6537 N   0  0  0  0  0  0  0  0  0  0  0  0
  -35.9560   57.1635   62.8058 O   0  0  0  0  0  0  0  0  0  0  0  0
  -34.6718   57.5332   63.3066 C   0  0  0  0  0  0  0  0  0  0  0  0
  -36.6567   58.3718   62.4495 C   0  0  0  0  0  0  0  0  0  0  0  0
  -34.6063   59.0824   63.2031 C   0  0  0  0  0  0  0  0  0  0  0  0
  -37.8323   60.6408   61.0833 O   0  0  0  0  0  0  0  0  0  0  0  0
  -38.5453   59.5132   61.1923 C   0  0  0  0  0  0  0  0  0  0  0  0
  -39.8285   59.4483   60.6338 C   0  0  0  0  0  0  0  0  0  0  0  0
  -40.6006   58.2794   60.7428 C   0  0  0  0  0  0  0  0  0  0  0  0
  -40.0942   57.1586   61.4031 C   0  0  0  0  0  0  0  0  0  0  0  0
  -38.8121   57.2162   61.9565 C   0  0  0  0  0  0  0  0  0  0  0  0
  -38.0393   58.3890   61.8564 C   0  0  0  0  0  0  0  0  0  0  0  0
  -38.1914   61.3806   60.6342 H   0  0  0  0  0  0  0  0  0  0  0  0
  -36.2168   62.8867   62.3827 O   0  0  0  0  0  0  0  0  0  0  0  0
  -36.2248   62.6744   63.5841 C   0  0  0  0  0  0  0  0  0  0  0  0
  -35.9814   63.7999   64.4923 O   0  0  0  0  0  0  0  0  0  0  0  0
  -35.3712   63.6038   65.7819 C   0  0  0  0  0  0  0  0  0  0  0  0
  -36.2273   64.0489   66.9611 C   0  0  0  0  0  0  0  0  0  0  0  0
  -34.0225   64.3076   65.7861 C   0  0  0  0  0  0  0  0  0  0  0  0
  -31.8084   63.5558   65.0593 N   0  0  0  0  0  0  0  0  0  0  0  0
  -32.9072   62.5111   66.7376 O   0  0  0  0  0  0  0  0  0  0  0  0
  -32.8559   63.3547   65.8721 C   0  0  0  0  0  0  0  0  0  0  0  0
  -31.0261   62.9677   65.1671 H   0  0  0  0  0  0  0  0  0  0  0  0
  -32.3461   63.3614   61.9726 N   0  0  0  0  0  0  0  0  0  0  0  0
  -33.5755   65.1283   62.6295 O   0  0  0  0  0  0  0  0  0  0  0  0
  -31.4182   62.2530   62.2415 C   0  0  0  0  0  0  0  0  0  0  0  0
  -29.9650   62.7604   62.2997 C   0  0  0  0  0  0  0  0  0  0  0  0
  -29.8032   64.2710   62.2581 C   0  0  0  0  0  0  0  0  0  0  0  0
  -30.3447   64.9658   63.5102 C   0  0  0  0  0  0  0  0  0  0  0  0
  -31.7458   64.5903   64.0206 C   0  0  0  0  0  0  0  0  0  0  0  0
  -32.6388   64.3639   62.8165 C   0  0  0  0  0  0  0  0  0  0  0  0
  -34.7493   63.5247   60.6606 Si  0  0  0  0  0  0  0  0  0  0  0  0
  -32.9716   63.3662   60.7624 O   0  0  0  0  0  0  0  0  0  0  0  0
  -35.1494   63.5022   59.2983 H   0  0  0  0  0  0  0  0  0  0  0  0
  -35.1497   64.7525   61.2512 H   0  0  0  0  0  0  0  0  0  0  0  0
  -35.3611   62.4454   61.3515 H   0  0  0  0  0  0  0  0  0  0  0  0
  -38.1597   59.6871   65.2866 C   0  0  0  0  0  0  0  0  0  0  0  0
  -37.6866   61.1187   65.0060 C   0  0  0  0  0  0  0  0  0  0  0  0
  -39.6175   59.5145   65.7454 C   0  0  0  0  0  0  0  0  0  0  0  0
  -40.7040   59.4456   64.6526 C   0  0  0  0  0  0  0  0  0  0  0  0
  -42.0161   59.4715   65.3063 N   0  0  0  0  0  0  0  0  0  0  0  0
  -43.2151   59.0357   64.8370 C   0  0  0  0  0  0  0  0  0  0  0  0
  -41.9994   60.0279   66.5930 O   0  0  0  0  0  0  0  0  0  0  0  0
  -43.3147   58.5229   63.7226 O   0  0  0  0  0  0  0  0  0  0  0  0
  -42.8956   60.0129   66.9635 H   0  0  0  0  0  0  0  0  0  0  0  0
  -44.4590   59.1965   65.7173 C   0  0  0  0  0  0  0  0  0  0  0  0
  -45.7492   58.6365   65.1029 C   0  0  0  0  0  0  0  0  0  0  0  0
  -46.7644   59.7736   64.8781 C   0  0  0  0  0  0  0  0  0  0  0  0
  -48.0508   59.3174   64.1639 C   0  0  0  0  0  0  0  0  0  0  0  0
  -48.8192   58.1928   64.8828 C   0  0  0  0  0  0  0  0  0  0  0  0
  -50.0958   58.6949   65.5895 C   0  0  0  0  0  0  0  0  0  0  0  0
  -50.4608   60.1667   65.2857 C   0  0  0  0  0  0  0  0  0  0  0  0
  -51.7243   60.3178   64.4307 C   0  0  0  0  0  0  0  0  0  0  0  0
  -51.4946   60.8359   63.0073 C   0  0  0  0  0  0  0  0  0  0  0  0
  -50.9250   59.7347   62.0946 C   0  0  0  0  0  0  0  0  0  0  0  0
  -51.5643   58.3546   62.3103 C   0  0  0  0  0  0  0  0  0  0  0  0
  -51.3089   57.3229   61.2067 C   0  0  0  0  0  0  0  0  0  0  0  0
  -50.3659   57.8160   60.0810 C   0  0  0  0  0  0  0  0  0  0  0  0
  -48.9168   57.3401   60.3088 C   0  0  0  0  0  0  0  0  0  0  0  0
  -47.9688   57.3822   59.1042 C   0  0  0  0  0  0  0  0  0  0  0  0
 46 47  1  0  0  0
 46 48  1  0  0  0
 46 45  1  0  0  0
 47 49  2  0  0  0
 47 51  1  0  0  0
 19 20  2  0  0  0
 37 38  1  0  0  0
 37 39  1  0  0  0
 37 40  1  0  0  0
 37 41  1  0  0  0
 48 50  1  0  0  0
 38 29  1  0  0  0
 45 44  1  0  0  0
 25 27  1  0  0  0
 25 35  1  0  0  0
 25 28  1  0  0  0
 21 20  1  0  0  0
 21 22  1  0  0  0
 44 42  1  0  0  0
  2  1  1  0  0  0
  2  4  1  0  0  0
  2  5  1  0  0  0
 26 27  2  0  0  0
 42 43  2  0  0  0
 29 31  1  0  0  0
 29 36  1  0  0  0
  3  4  2  0  0  0
 43  1  1  0  0  0
  6  9  2  0  0  0
  6 10  1  0  0  0
  1 20  1  0  0  0
 30 36  2  0  0  0
  7  8  1  0  0  0
  7  9  1  0  0  0
 22 24  1  0  0  0
 22 23  1  0  0  0
 11 12  1  0  0  0
 11 18  1  0  0  0
 24 27  1  0  0  0
  4 10  1  0  0  0
 51 52  1  0  0  0
 52 53  1  0  0  0
 53 54  1  0  0  0
 54 55  1  0  0  0
 55 56  1  0  0  0
 56 57  1  0  0  0
 57 58  1  0  0  0
 58 59  1  0  0  0
 59 60  1  0  0  0
 60 61  1  0  0  0
 61 62  1  0  0  0
 62 63  1  0  0  0
 63 64  1  0  0  0
 64 65  1  0  0  0
 31 32  1  0  0  0
 32 33  1  0  0  0
 33 34  1  0  0  0
 34 35  1  0  0  0
 35 36  1  0  0  0
  8 10  1  0  0  0
  9 17  1  0  0  0
 12 13  2  0  0  0
 12 17  1  0  0  0
 13 14  1  0  0  0
 14 15  2  0  0  0
 15 16  1  0  0  0
 16 17  2  0  0  0
M  END
> <minimizedAffinity>
-9.71350

> <CNNscore>
0.1696200520

> <CNNaffinity>
6.9585103989

> <CNN_VS>
1.1803028584

> <CNNaffinity_variance>
0.5410549045

$$$$
