/media/chris/experiments/cd1a-new-docking/inputs/ligands/1xz0_ligand.pdb


 65 67  0  0  0  0  0  0  0  0999 V2000
  -40.5768   59.3614   64.8666 C   0  0  0  0  0  0  0  0  0  0  0  0
  -39.2374   59.5371   65.4316 N   0  0  0  0  0  0  0  0  0  0  0  0
  -38.3466   61.1811   64.1368 O   0  0  0  0  0  0  0  0  0  0  0  0
  -38.2600   60.3820   65.0599 C   0  0  0  0  0  0  0  0  0  0  0  0
  -39.0215   58.9521   66.1935 H   0  0  0  0  0  0  0  0  0  0  0  0
  -36.3645   61.5827   66.1302 N   0  0  0  0  0  0  0  0  0  0  0  0
  -34.6641   60.6007   65.0642 O   0  0  0  0  0  0  0  0  0  0  0  0
  -35.7094   59.6304   65.0118 C   0  0  0  0  0  0  0  0  0  0  0  0
  -35.1712   61.7607   65.7535 C   0  0  0  0  0  0  0  0  0  0  0  0
  -36.9143   60.2644   65.7608 C   0  0  0  0  0  0  0  0  0  0  0  0
  -36.0680   64.0148   67.3384 O   0  0  0  0  0  0  0  0  0  0  0  0
  -34.8341   64.0409   66.8200 C   0  0  0  0  0  0  0  0  0  0  0  0
  -34.0025   65.1412   67.0661 C   0  0  0  0  0  0  0  0  0  0  0  0
  -32.7068   65.1968   66.5255 C   0  0  0  0  0  0  0  0  0  0  0  0
  -32.2242   64.1479   65.7409 C   0  0  0  0  0  0  0  0  0  0  0  0
  -33.0477   63.0451   65.4978 C   0  0  0  0  0  0  0  0  0  0  0  0
  -34.3498   62.9905   66.0309 C   0  0  0  0  0  0  0  0  0  0  0  0
  -36.3707   64.7292   67.8637 H   0  0  0  0  0  0  0  0  0  0  0  0
  -41.1730   61.3247   66.1017 O   0  0  0  0  0  0  0  0  0  0  0  0
  -41.3054   60.6750   65.0775 C   0  0  0  0  0  0  0  0  0  0  0  0
  -42.2484   61.1576   64.0631 O   0  0  0  0  0  0  0  0  0  0  0  0
  -42.1241   60.7725   62.6811 C   0  0  0  0  0  0  0  0  0  0  0  0
  -42.4831   61.8676   61.6845 C   0  0  0  0  0  0  0  0  0  0  0  0
  -42.9656   59.5258   62.4534 C   0  0  0  0  0  0  0  0  0  0  0  0
  -41.1327   58.6198   61.1058 N   0  0  0  0  0  0  0  0  0  0  0  0
  -42.4713   57.2640   62.3246 O   0  0  0  0  0  0  0  0  0  0  0  0
  -42.1694   58.3621   61.9164 C   0  0  0  0  0  0  0  0  0  0  0  0
  -40.9831   59.5552   60.8376 H   0  0  0  0  0  0  0  0  0  0  0  0
  -38.0756   58.1938   61.6778 N   0  0  0  0  0  0  0  0  0  0  0  0
  -38.9776   56.1557   61.9907 O   0  0  0  0  0  0  0  0  0  0  0  0
  -38.1778   59.6213   61.3405 C   0  0  0  0  0  0  0  0  0  0  0  0
  -38.2110   59.8194   59.8133 C   0  0  0  0  0  0  0  0  0  0  0  0
  -38.3183   58.5428   58.9957 C   0  0  0  0  0  0  0  0  0  0  0  0
  -39.6632   57.8321   59.1693 C   0  0  0  0  0  0  0  0  0  0  0  0
  -40.2056   57.6061   60.5903 C   0  0  0  0  0  0  0  0  0  0  0  0
  -39.0337   57.2717   61.4924 C   0  0  0  0  0  0  0  0  0  0  0  0
  -35.3545   58.5262   61.7741 Si  0  0  0  0  0  0  0  0  0  0  0  0
  -36.9075   57.7715   62.2374 O   0  0  0  0  0  0  0  0  0  0  0  0
  -34.2961   57.9112   62.4939 H   0  0  0  0  0  0  0  0  0  0  0  0
  -35.3921   59.9123   62.0797 H   0  0  0  0  0  0  0  0  0  0  0  0
  -35.1418   58.3542   60.3807 H   0  0  0  0  0  0  0  0  0  0  0  0
  -42.8846   58.3292   65.5757 C   0  0  0  0  0  0  0  0  0  0  0  0
  -41.3860   58.1231   65.3228 C   0  0  0  0  0  0  0  0  0  0  0  0
  -43.5986   57.2642   66.4253 C   0  0  0  0  0  0  0  0  0  0  0  0
  -45.0215   56.8493   65.9976 C   0  0  0  0  0  0  0  0  0  0  0  0
  -45.9798   57.7300   66.6727 N   0  0  0  0  0  0  0  0  0  0  0  0
  -46.5965   58.8457   66.2010 C   0  0  0  0  0  0  0  0  0  0  0  0
  -46.2827   57.3408   67.9851 O   0  0  0  0  0  0  0  0  0  0  0  0
  -47.3849   59.4816   66.9002 O   0  0  0  0  0  0  0  0  0  0  0  0
  -46.9189   57.9645   68.3687 H   0  0  0  0  0  0  0  0  0  0  0  0
  -46.3020   59.3070   64.7698 C   0  0  0  0  0  0  0  0  0  0  0  0
  -47.5248   59.3218   63.8424 C   0  0  0  0  0  0  0  0  0  0  0  0
  -48.0247   60.7665   63.6497 C   0  0  0  0  0  0  0  0  0  0  0  0
  -49.4708   60.9864   64.1328 C   0  0  0  0  0  0  0  0  0  0  0  0
  -50.1371   59.7423   64.7496 C   0  0  0  0  0  0  0  0  0  0  0  0
  -51.1763   59.0914   63.8128 C   0  0  0  0  0  0  0  0  0  0  0  0
  -50.5955   58.0311   62.8483 C   0  0  0  0  0  0  0  0  0  0  0  0
  -50.9384   58.2920   61.3770 C   0  0  0  0  0  0  0  0  0  0  0  0
  -50.0374   59.3050   60.6636 C   0  0  0  0  0  0  0  0  0  0  0  0
  -48.9039   58.6029   59.8937 C   0  0  0  0  0  0  0  0  0  0  0  0
  -49.3148   57.2620   59.2667 C   0  0  0  0  0  0  0  0  0  0  0  0
  -48.2767   56.1387   59.3579 C   0  0  0  0  0  0  0  0  0  0  0  0
  -47.1198   56.2572   58.3345 C   0  0  0  0  0  0  0  0  0  0  0  0
  -47.6434   56.6143   56.9286 C   0  0  0  0  0  0  0  0  0  0  0  0
  -47.3244   58.0173   56.3984 C   0  0  0  0  0  0  0  0  0  0  0  0
 46 47  1  0  0  0
 46 48  1  0  0  0
 46 45  1  0  0  0
 47 49  2  0  0  0
 47 51  1  0  0  0
 19 20  2  0  0  0
 37 38  1  0  0  0
 37 39  1  0  0  0
 37 40  1  0  0  0
 37 41  1  0  0  0
 48 50  1  0  0  0
 38 29  1  0  0  0
 45 44  1  0  0  0
 25 27  1  0  0  0
 25 35  1  0  0  0
 25 28  1  0  0  0
 21 20  1  0  0  0
 21 22  1  0  0  0
 44 42  1  0  0  0
  2  1  1  0  0  0
  2  4  1  0  0  0
  2  5  1  0  0  0
 26 27  2  0  0  0
 42 43  2  0  0  0
 29 31  1  0  0  0
 29 36  1  0  0  0
  3  4  2  0  0  0
 43  1  1  0  0  0
  6  9  2  0  0  0
  6 10  1  0  0  0
  1 20  1  0  0  0
 30 36  2  0  0  0
  7  8  1  0  0  0
  7  9  1  0  0  0
 22 24  1  0  0  0
 22 23  1  0  0  0
 11 12  1  0  0  0
 11 18  1  0  0  0
 24 27  1  0  0  0
  4 10  1  0  0  0
 51 52  1  0  0  0
 52 53  1  0  0  0
 53 54  1  0  0  0
 54 55  1  0  0  0
 55 56  1  0  0  0
 56 57  1  0  0  0
 57 58  1  0  0  0
 58 59  1  0  0  0
 59 60  1  0  0  0
 60 61  1  0  0  0
 61 62  1  0  0  0
 62 63  1  0  0  0
 63 64  1  0  0  0
 64 65  1  0  0  0
 31 32  1  0  0  0
 32 33  1  0  0  0
 33 34  1  0  0  0
 34 35  1  0  0  0
 35 36  1  0  0  0
  8 10  1  0  0  0
  9 17  1  0  0  0
 12 13  2  0  0  0
 12 17  1  0  0  0
 13 14  1  0  0  0
 14 15  2  0  0  0
 15 16  1  0  0  0
 16 17  2  0  0  0
M  END
> <minimizedAffinity>
-10.04667

> <CNNscore>
0.2121170461

> <CNNaffinity>
7.5989904404

> <CNN_VS>
1.6118754148

> <CNNaffinity_variance>
1.6035299301

$$$$
/media/chris/experiments/cd1a-new-docking/inputs/ligands/1xz0_ligand.pdb


 65 67  0  0  0  0  0  0  0  0999 V2000
  -40.9771   59.0636   65.3182 C   0  0  0  0  0  0  0  0  0  0  0  0
  -39.5668   58.8076   65.6178 N   0  0  0  0  0  0  0  0  0  0  0  0
  -38.4778   60.0066   64.0212 O   0  0  0  0  0  0  0  0  0  0  0  0
  -38.4668   59.2634   64.9936 C   0  0  0  0  0  0  0  0  0  0  0  0
  -39.4002   58.2163   66.3872 H   0  0  0  0  0  0  0  0  0  0  0  0
  -35.9943   59.4847   64.8611 N   0  0  0  0  0  0  0  0  0  0  0  0
  -35.4604   57.3546   64.4490 O   0  0  0  0  0  0  0  0  0  0  0  0
  -36.7116   57.2701   65.1305 C   0  0  0  0  0  0  0  0  0  0  0  0
  -35.1192   58.7493   64.3217 C   0  0  0  0  0  0  0  0  0  0  0  0
  -37.1168   58.7345   65.4560 C   0  0  0  0  0  0  0  0  0  0  0  0
  -34.8589   61.2682   62.9130 O   0  0  0  0  0  0  0  0  0  0  0  0
  -33.7841   60.4783   63.0261 C   0  0  0  0  0  0  0  0  0  0  0  0
  -32.5614   60.8898   62.4798 C   0  0  0  0  0  0  0  0  0  0  0  0
  -31.4211   60.0747   62.5770 C   0  0  0  0  0  0  0  0  0  0  0  0
  -31.4882   58.8429   63.2305 C   0  0  0  0  0  0  0  0  0  0  0  0
  -32.7041   58.4308   63.7828 C   0  0  0  0  0  0  0  0  0  0  0  0
  -33.8507   59.2415   63.6793 C   0  0  0  0  0  0  0  0  0  0  0  0
  -34.7906   62.0919   62.4715 H   0  0  0  0  0  0  0  0  0  0  0  0
  -41.2135   61.3273   66.0634 O   0  0  0  0  0  0  0  0  0  0  0  0
  -41.1066   60.5618   65.1194 C   0  0  0  0  0  0  0  0  0  0  0  0
  -41.1744   61.1148   63.7627 O   0  0  0  0  0  0  0  0  0  0  0  0
  -42.4125   61.1477   63.0280 C   0  0  0  0  0  0  0  0  0  0  0  0
  -43.1057   59.7973   62.8959 C   0  0  0  0  0  0  0  0  0  0  0  0
  -42.1436   61.7625   61.6628 C   0  0  0  0  0  0  0  0  0  0  0  0
  -40.5119   59.9760   61.2861 N   0  0  0  0  0  0  0  0  0  0  0  0
  -41.6442   60.9097   59.5652 O   0  0  0  0  0  0  0  0  0  0  0  0
  -41.3716   60.8497   60.7423 C   0  0  0  0  0  0  0  0  0  0  0  0
  -40.3682   60.0206   62.2591 H   0  0  0  0  0  0  0  0  0  0  0  0
  -41.1781   56.9516   60.7721 N   0  0  0  0  0  0  0  0  0  0  0  0
  -40.7040   57.7605   58.7260 O   0  0  0  0  0  0  0  0  0  0  0  0
  -41.3337   57.1070   62.2259 C   0  0  0  0  0  0  0  0  0  0  0  0
  -39.9661   57.0362   62.9310 C   0  0  0  0  0  0  0  0  0  0  0  0
  -38.7600   57.0110   62.0066 C   0  0  0  0  0  0  0  0  0  0  0  0
  -38.5629   58.3237   61.2438 C   0  0  0  0  0  0  0  0  0  0  0  0
  -39.7702   58.9580   60.5333 C   0  0  0  0  0  0  0  0  0  0  0  0
  -40.6079   57.8406   59.9430 C   0  0  0  0  0  0  0  0  0  0  0  0
  -42.1181   54.4187   61.2463 Si  0  0  0  0  0  0  0  0  0  0  0  0
  -41.6648   55.8074   60.2156 O   0  0  0  0  0  0  0  0  0  0  0  0
  -42.5931   53.3585   60.4298 H   0  0  0  0  0  0  0  0  0  0  0  0
  -43.1391   54.8139   62.1506 H   0  0  0  0  0  0  0  0  0  0  0  0
  -40.9820   53.9809   61.9770 H   0  0  0  0  0  0  0  0  0  0  0  0
  -42.9502   57.3806   65.7286 C   0  0  0  0  0  0  0  0  0  0  0  0
  -42.0301   58.4731   66.2871 C   0  0  0  0  0  0  0  0  0  0  0  0
  -44.2482   57.1014   66.5051 C   0  0  0  0  0  0  0  0  0  0  0  0
  -45.3160   58.2143   66.5296 C   0  0  0  0  0  0  0  0  0  0  0  0
  -46.6044   57.6239   66.1538 N   0  0  0  0  0  0  0  0  0  0  0  0
  -47.7411   58.2429   65.7387 C   0  0  0  0  0  0  0  0  0  0  0  0
  -46.6369   56.2252   66.2447 O   0  0  0  0  0  0  0  0  0  0  0  0
  -48.7509   57.5981   65.4566 O   0  0  0  0  0  0  0  0  0  0  0  0
  -47.5141   55.9045   65.9828 H   0  0  0  0  0  0  0  0  0  0  0  0
  -47.7521   59.7704   65.6177 C   0  0  0  0  0  0  0  0  0  0  0  0
  -47.4321   60.2990   64.2128 C   0  0  0  0  0  0  0  0  0  0  0  0
  -48.6455   61.0606   63.6454 C   0  0  0  0  0  0  0  0  0  0  0  0
  -49.8957   60.9806   64.5419 C   0  0  0  0  0  0  0  0  0  0  0  0
  -51.1673   60.4872   63.8267 C   0  0  0  0  0  0  0  0  0  0  0  0
  -51.1743   58.9608   63.5999 C   0  0  0  0  0  0  0  0  0  0  0  0
  -50.7920   58.5233   62.1666 C   0  0  0  0  0  0  0  0  0  0  0  0
  -50.5497   59.6998   61.2140 C   0  0  0  0  0  0  0  0  0  0  0  0
  -49.3690   59.5321   60.2522 C   0  0  0  0  0  0  0  0  0  0  0  0
  -49.4451   58.1914   59.4991 C   0  0  0  0  0  0  0  0  0  0  0  0
  -48.2075   57.3008   59.6869 C   0  0  0  0  0  0  0  0  0  0  0  0
  -48.1107   56.0902   58.7527 C   0  0  0  0  0  0  0  0  0  0  0  0
  -46.9402   56.1598   57.7405 C   0  0  0  0  0  0  0  0  0  0  0  0
  -46.8467   57.5499   57.0795 C   0  0  0  0  0  0  0  0  0  0  0  0
  -47.9067   57.8972   56.0272 C   0  0  0  0  0  0  0  0  0  0  0  0
 46 47  1  0  0  0
 46 48  1  0  0  0
 46 45  1  0  0  0
 47 49  2  0  0  0
 47 51  1  0  0  0
 19 20  2  0  0  0
 37 38  1  0  0  0
 37 39  1  0  0  0
 37 40  1  0  0  0
 37 41  1  0  0  0
 48 50  1  0  0  0
 38 29  1  0  0  0
 45 44  1  0  0  0
 25 27  1  0  0  0
 25 35  1  0  0  0
 25 28  1  0  0  0
 21 20  1  0  0  0
 21 22  1  0  0  0
 44 42  1  0  0  0
  2  1  1  0  0  0
  2  4  1  0  0  0
  2  5  1  0  0  0
 26 27  2  0  0  0
 42 43  2  0  0  0
 29 31  1  0  0  0
 29 36  1  0  0  0
  3  4  2  0  0  0
 43  1  1  0  0  0
  6  9  2  0  0  0
  6 10  1  0  0  0
  1 20  1  0  0  0
 30 36  2  0  0  0
  7  8  1  0  0  0
  7  9  1  0  0  0
 22 24  1  0  0  0
 22 23  1  0  0  0
 11 12  1  0  0  0
 11 18  1  0  0  0
 24 27  1  0  0  0
  4 10  1  0  0  0
 51 52  1  0  0  0
 52 53  1  0  0  0
 53 54  1  0  0  0
 54 55  1  0  0  0
 55 56  1  0  0  0
 56 57  1  0  0  0
 57 58  1  0  0  0
 58 59  1  0  0  0
 59 60  1  0  0  0
 60 61  1  0  0  0
 61 62  1  0  0  0
 62 63  1  0  0  0
 63 64  1  0  0  0
 64 65  1  0  0  0
 31 32  1  0  0  0
 32 33  1  0  0  0
 33 34  1  0  0  0
 34 35  1  0  0  0
 35 36  1  0  0  0
  8 10  1  0  0  0
  9 17  1  0  0  0
 12 13  2  0  0  0
 12 17  1  0  0  0
 13 14  1  0  0  0
 14 15  2  0  0  0
 15 16  1  0  0  0
 16 17  2  0  0  0
M  END
> <minimizedAffinity>
-9.86952

> <CNNscore>
0.1668727547

> <CNNaffinity>
7.7543640137

> <CNN_VS>
1.2939920425

> <CNNaffinity_variance>
2.3088078499

$$$$
/media/chris/experiments/cd1a-new-docking/inputs/ligands/1xz0_ligand.pdb


 65 67  0  0  0  0  0  0  0  0999 V2000
  -41.2332   59.2653   64.4069 C   0  0  0  0  0  0  0  0  0  0  0  0
  -40.1591   58.7938   63.5305 N   0  0  0  0  0  0  0  0  0  0  0  0
  -41.2880   57.7836   61.8340 O   0  0  0  0  0  0  0  0  0  0  0  0
  -40.2404   58.1229   62.3683 C   0  0  0  0  0  0  0  0  0  0  0  0
  -39.2457   58.9975   63.8364 H   0  0  0  0  0  0  0  0  0  0  0  0
  -37.8248   57.6302   62.6879 N   0  0  0  0  0  0  0  0  0  0  0  0
  -36.9884   58.7792   60.9639 O   0  0  0  0  0  0  0  0  0  0  0  0
  -38.3227   58.4747   60.5595 C   0  0  0  0  0  0  0  0  0  0  0  0
  -36.7903   58.2331   62.2832 C   0  0  0  0  0  0  0  0  0  0  0  0
  -38.9426   57.6554   61.7254 C   0  0  0  0  0  0  0  0  0  0  0  0
  -36.3438   57.1443   64.9312 O   0  0  0  0  0  0  0  0  0  0  0  0
  -35.3336   57.7655   64.3104 C   0  0  0  0  0  0  0  0  0  0  0  0
  -34.0867   57.8614   64.9419 C   0  0  0  0  0  0  0  0  0  0  0  0
  -33.0133   58.5166   64.3153 C   0  0  0  0  0  0  0  0  0  0  0  0
  -33.1718   59.0749   63.0457 C   0  0  0  0  0  0  0  0  0  0  0  0
  -34.4120   58.9764   62.4089 C   0  0  0  0  0  0  0  0  0  0  0  0
  -35.4921   58.3280   63.0380 C   0  0  0  0  0  0  0  0  0  0  0  0
  -36.2145   56.7752   65.7827 H   0  0  0  0  0  0  0  0  0  0  0  0
  -41.0529   60.4101   66.5026 O   0  0  0  0  0  0  0  0  0  0  0  0
  -40.5929   60.2296   65.3871 C   0  0  0  0  0  0  0  0  0  0  0  0
  -39.4299   61.0231   64.9761 O   0  0  0  0  0  0  0  0  0  0  0  0
  -38.1160   60.4397   64.8940 C   0  0  0  0  0  0  0  0  0  0  0  0
  -37.5314   60.0065   66.2327 C   0  0  0  0  0  0  0  0  0  0  0  0
  -37.1973   61.4249   64.1870 C   0  0  0  0  0  0  0  0  0  0  0  0
  -34.8404   62.0891   64.1863 N   0  0  0  0  0  0  0  0  0  0  0  0
  -35.8657   61.4121   66.0852 O   0  0  0  0  0  0  0  0  0  0  0  0
  -35.8781   61.6182   64.8932 C   0  0  0  0  0  0  0  0  0  0  0  0
  -34.9668   62.2177   63.2184 H   0  0  0  0  0  0  0  0  0  0  0  0
  -33.4744   64.8841   64.6070 N   0  0  0  0  0  0  0  0  0  0  0  0
  -33.2619   63.8677   66.6038 O   0  0  0  0  0  0  0  0  0  0  0  0
  -33.9194   64.9141   63.2059 C   0  0  0  0  0  0  0  0  0  0  0  0
  -32.9140   64.1800   62.2989 C   0  0  0  0  0  0  0  0  0  0  0  0
  -31.8049   63.4383   63.0266 C   0  0  0  0  0  0  0  0  0  0  0  0
  -32.3143   62.2391   63.8306 C   0  0  0  0  0  0  0  0  0  0  0  0
  -33.5299   62.4263   64.7536 C   0  0  0  0  0  0  0  0  0  0  0  0
  -33.4266   63.7970   65.3936 C   0  0  0  0  0  0  0  0  0  0  0  0
  -33.0575   66.2749   66.9342 Si  0  0  0  0  0  0  0  0  0  0  0  0
  -33.0846   66.0670   65.1588 O   0  0  0  0  0  0  0  0  0  0  0  0
  -32.6178   67.5876   67.2504 H   0  0  0  0  0  0  0  0  0  0  0  0
  -32.1696   65.3270   67.5082 H   0  0  0  0  0  0  0  0  0  0  0  0
  -34.3637   66.0751   67.4541 H   0  0  0  0  0  0  0  0  0  0  0  0
  -43.6407   58.4089   65.0110 C   0  0  0  0  0  0  0  0  0  0  0  0
  -42.1238   58.1944   65.0824 C   0  0  0  0  0  0  0  0  0  0  0  0
  -44.5012   57.6266   66.0177 C   0  0  0  0  0  0  0  0  0  0  0  0
  -45.7095   58.3566   66.6393 C   0  0  0  0  0  0  0  0  0  0  0  0
  -46.9351   57.7523   66.1080 N   0  0  0  0  0  0  0  0  0  0  0  0
  -48.0798   58.3588   65.6965 C   0  0  0  0  0  0  0  0  0  0  0  0
  -46.8891   56.3535   66.0240 O   0  0  0  0  0  0  0  0  0  0  0  0
  -49.0303   57.7033   65.2700 O   0  0  0  0  0  0  0  0  0  0  0  0
  -47.7281   56.0233   65.6662 H   0  0  0  0  0  0  0  0  0  0  0  0
  -48.1751   59.8867   65.7636 C   0  0  0  0  0  0  0  0  0  0  0  0
  -48.6104   60.5546   64.4521 C   0  0  0  0  0  0  0  0  0  0  0  0
  -50.0808   61.0045   64.5506 C   0  0  0  0  0  0  0  0  0  0  0  0
  -50.9191   60.6424   63.3100 C   0  0  0  0  0  0  0  0  0  0  0  0
  -50.2001   59.7377   62.2918 C   0  0  0  0  0  0  0  0  0  0  0  0
  -49.8602   60.4677   60.9755 C   0  0  0  0  0  0  0  0  0  0  0  0
  -49.2798   59.5573   59.8682 C   0  0  0  0  0  0  0  0  0  0  0  0
  -50.2570   58.4756   59.3934 C   0  0  0  0  0  0  0  0  0  0  0  0
  -50.0328   57.0822   59.9893 C   0  0  0  0  0  0  0  0  0  0  0  0
  -48.5422   56.8303   60.2814 C   0  0  0  0  0  0  0  0  0  0  0  0
  -47.9079   55.7495   59.3928 C   0  0  0  0  0  0  0  0  0  0  0  0
  -47.1152   56.2612   58.1855 C   0  0  0  0  0  0  0  0  0  0  0  0
  -47.9026   56.2385   56.8517 C   0  0  0  0  0  0  0  0  0  0  0  0
  -47.8205   57.5956   56.1239 C   0  0  0  0  0  0  0  0  0  0  0  0
  -47.2562   58.7814   56.9156 C   0  0  0  0  0  0  0  0  0  0  0  0
 46 47  1  0  0  0
 46 48  1  0  0  0
 46 45  1  0  0  0
 47 49  2  0  0  0
 47 51  1  0  0  0
 19 20  2  0  0  0
 37 38  1  0  0  0
 37 39  1  0  0  0
 37 40  1  0  0  0
 37 41  1  0  0  0
 48 50  1  0  0  0
 38 29  1  0  0  0
 45 44  1  0  0  0
 25 27  1  0  0  0
 25 35  1  0  0  0
 25 28  1  0  0  0
 21 20  1  0  0  0
 21 22  1  0  0  0
 44 42  1  0  0  0
  2  1  1  0  0  0
  2  4  1  0  0  0
  2  5  1  0  0  0
 26 27  2  0  0  0
 42 43  2  0  0  0
 29 31  1  0  0  0
 29 36  1  0  0  0
  3  4  2  0  0  0
 43  1  1  0  0  0
  6  9  2  0  0  0
  6 10  1  0  0  0
  1 20  1  0  0  0
 30 36  2  0  0  0
  7  8  1  0  0  0
  7  9  1  0  0  0
 22 24  1  0  0  0
 22 23  1  0  0  0
 11 12  1  0  0  0
 11 18  1  0  0  0
 24 27  1  0  0  0
  4 10  1  0  0  0
 51 52  1  0  0  0
 52 53  1  0  0  0
 53 54  1  0  0  0
 54 55  1  0  0  0
 55 56  1  0  0  0
 56 57  1  0  0  0
 57 58  1  0  0  0
 58 59  1  0  0  0
 59 60  1  0  0  0
 60 61  1  0  0  0
 61 62  1  0  0  0
 62 63  1  0  0  0
 63 64  1  0  0  0
 64 65  1  0  0  0
 31 32  1  0  0  0
 32 33  1  0  0  0
 33 34  1  0  0  0
 34 35  1  0  0  0
 35 36  1  0  0  0
  8 10  1  0  0  0
  9 17  1  0  0  0
 12 13  2  0  0  0
 12 17  1  0  0  0
 13 14  1  0  0  0
 14 15  2  0  0  0
 15 16  1  0  0  0
 16 17  2  0  0  0
M  END
> <minimizedAffinity>
-9.68117

> <CNNscore>
0.1610905081

> <CNNaffinity>
7.1668701172

> <CNN_VS>
1.1545147896

> <CNNaffinity_variance>
0.3091444075

$$$$
/media/chris/experiments/cd1a-new-docking/inputs/ligands/1xz0_ligand.pdb


 65 67  0  0  0  0  0  0  0  0999 V2000
  -40.6389   58.5101   63.0984 C   0  0  0  0  0  0  0  0  0  0  0  0
  -39.2759   58.3613   63.6124 N   0  0  0  0  0  0  0  0  0  0  0  0
  -38.3943   56.7521   62.2685 O   0  0  0  0  0  0  0  0  0  0  0  0
  -38.2929   57.5440   63.1963 C   0  0  0  0  0  0  0  0  0  0  0  0
  -39.0462   58.9438   64.3722 H   0  0  0  0  0  0  0  0  0  0  0  0
  -36.8585   58.7125   64.8567 N   0  0  0  0  0  0  0  0  0  0  0  0
  -34.9053   58.6245   63.7753 O   0  0  0  0  0  0  0  0  0  0  0  0
  -35.6344   57.5111   63.2600 C   0  0  0  0  0  0  0  0  0  0  0  0
  -35.7468   59.3006   64.7307 C   0  0  0  0  0  0  0  0  0  0  0  0
  -37.0008   57.5198   64.0000 C   0  0  0  0  0  0  0  0  0  0  0  0
  -37.5458   61.0528   66.1765 O   0  0  0  0  0  0  0  0  0  0  0  0
  -36.2328   61.3119   66.2033 C   0  0  0  0  0  0  0  0  0  0  0  0
  -35.7575   62.4065   66.9373 C   0  0  0  0  0  0  0  0  0  0  0  0
  -34.3851   62.7051   66.9736 C   0  0  0  0  0  0  0  0  0  0  0  0
  -33.4710   61.9064   66.2842 C   0  0  0  0  0  0  0  0  0  0  0  0
  -33.9394   60.8095   65.5557 C   0  0  0  0  0  0  0  0  0  0  0  0
  -35.3152   60.5129   65.5103 C   0  0  0  0  0  0  0  0  0  0  0  0
  -38.1413   61.6014   66.6481 H   0  0  0  0  0  0  0  0  0  0  0  0
  -41.0580   58.9051   60.7739 O   0  0  0  0  0  0  0  0  0  0  0  0
  -40.5241   59.2886   61.8017 C   0  0  0  0  0  0  0  0  0  0  0  0
  -39.6987   60.4998   61.7482 O   0  0  0  0  0  0  0  0  0  0  0  0
  -38.5234   60.5695   60.9190 C   0  0  0  0  0  0  0  0  0  0  0  0
  -38.4147   59.4592   59.8811 C   0  0  0  0  0  0  0  0  0  0  0  0
  -37.3000   60.5976   61.8228 C   0  0  0  0  0  0  0  0  0  0  0  0
  -36.4220   62.8665   62.1009 N   0  0  0  0  0  0  0  0  0  0  0  0
  -37.8319   61.9620   63.6206 O   0  0  0  0  0  0  0  0  0  0  0  0
  -37.1726   61.8786   62.6097 C   0  0  0  0  0  0  0  0  0  0  0  0
  -35.9267   62.6833   61.2700 H   0  0  0  0  0  0  0  0  0  0  0  0
  -34.4772   65.2204   61.3716 N   0  0  0  0  0  0  0  0  0  0  0  0
  -36.5055   66.1928   61.4467 O   0  0  0  0  0  0  0  0  0  0  0  0
  -33.5917   64.0526   61.4911 C   0  0  0  0  0  0  0  0  0  0  0  0
  -33.2494   63.7770   62.9674 C   0  0  0  0  0  0  0  0  0  0  0  0
  -34.0144   64.6153   63.9783 C   0  0  0  0  0  0  0  0  0  0  0  0
  -35.5093   64.2871   64.0189 C   0  0  0  0  0  0  0  0  0  0  0  0
  -36.2869   64.2013   62.6951 C   0  0  0  0  0  0  0  0  0  0  0  0
  -35.7582   65.2795   61.7694 C   0  0  0  0  0  0  0  0  0  0  0  0
  -32.3893   66.2685   59.9343 Si  0  0  0  0  0  0  0  0  0  0  0  0
  -33.9533   66.3391   60.7973 O   0  0  0  0  0  0  0  0  0  0  0  0
  -32.0676   67.5570   59.4315 H   0  0  0  0  0  0  0  0  0  0  0  0
  -32.4849   65.3497   58.8558 H   0  0  0  0  0  0  0  0  0  0  0  0
  -31.3732   65.8427   60.8301 H   0  0  0  0  0  0  0  0  0  0  0  0
  -41.4076   58.9686   65.5669 C   0  0  0  0  0  0  0  0  0  0  0  0
  -41.7083   59.0718   64.0665 C   0  0  0  0  0  0  0  0  0  0  0  0
  -42.6019   59.1082   66.5260 C   0  0  0  0  0  0  0  0  0  0  0  0
  -43.9875   59.3750   65.9028 C   0  0  0  0  0  0  0  0  0  0  0  0
  -44.8263   58.1928   66.1230 N   0  0  0  0  0  0  0  0  0  0  0  0
  -46.1756   58.0685   66.0156 C   0  0  0  0  0  0  0  0  0  0  0  0
  -44.1081   57.0473   66.4939 O   0  0  0  0  0  0  0  0  0  0  0  0
  -46.7359   56.9950   66.2355 O   0  0  0  0  0  0  0  0  0  0  0  0
  -44.7226   56.3078   66.6222 H   0  0  0  0  0  0  0  0  0  0  0  0
  -47.0029   59.2918   65.6068 C   0  0  0  0  0  0  0  0  0  0  0  0
  -48.0150   59.7564   66.6629 C   0  0  0  0  0  0  0  0  0  0  0  0
  -49.4342   59.7751   66.0629 C   0  0  0  0  0  0  0  0  0  0  0  0
  -49.7336   58.5677   65.1543 C   0  0  0  0  0  0  0  0  0  0  0  0
  -50.7152   58.8587   64.0037 C   0  0  0  0  0  0  0  0  0  0  0  0
  -50.4507   60.2155   63.3179 C   0  0  0  0  0  0  0  0  0  0  0  0
  -49.3058   60.1966   62.2783 C   0  0  0  0  0  0  0  0  0  0  0  0
  -49.7920   60.3515   60.8326 C   0  0  0  0  0  0  0  0  0  0  0  0
  -49.1812   59.3705   59.8269 C   0  0  0  0  0  0  0  0  0  0  0  0
  -50.0288   58.0910   59.7057 C   0  0  0  0  0  0  0  0  0  0  0  0
  -49.2018   56.7967   59.6781 C   0  0  0  0  0  0  0  0  0  0  0  0
  -47.7333   56.9537   59.2697 C   0  0  0  0  0  0  0  0  0  0  0  0
  -47.3185   56.0990   58.0462 C   0  0  0  0  0  0  0  0  0  0  0  0
  -47.4264   56.9013   56.7337 C   0  0  0  0  0  0  0  0  0  0  0  0
  -47.2496   58.4217   56.8262 C   0  0  0  0  0  0  0  0  0  0  0  0
 46 47  1  0  0  0
 46 48  1  0  0  0
 46 45  1  0  0  0
 47 49  2  0  0  0
 47 51  1  0  0  0
 19 20  2  0  0  0
 37 38  1  0  0  0
 37 39  1  0  0  0
 37 40  1  0  0  0
 37 41  1  0  0  0
 48 50  1  0  0  0
 38 29  1  0  0  0
 45 44  1  0  0  0
 25 27  1  0  0  0
 25 35  1  0  0  0
 25 28  1  0  0  0
 21 20  1  0  0  0
 21 22  1  0  0  0
 44 42  1  0  0  0
  2  1  1  0  0  0
  2  4  1  0  0  0
  2  5  1  0  0  0
 26 27  2  0  0  0
 42 43  2  0  0  0
 29 31  1  0  0  0
 29 36  1  0  0  0
  3  4  2  0  0  0
 43  1  1  0  0  0
  6  9  2  0  0  0
  6 10  1  0  0  0
  1 20  1  0  0  0
 30 36  2  0  0  0
  7  8  1  0  0  0
  7  9  1  0  0  0
 22 24  1  0  0  0
 22 23  1  0  0  0
 11 12  1  0  0  0
 11 18  1  0  0  0
 24 27  1  0  0  0
  4 10  1  0  0  0
 51 52  1  0  0  0
 52 53  1  0  0  0
 53 54  1  0  0  0
 54 55  1  0  0  0
 55 56  1  0  0  0
 56 57  1  0  0  0
 57 58  1  0  0  0
 58 59  1  0  0  0
 59 60  1  0  0  0
 60 61  1  0  0  0
 61 62  1  0  0  0
 62 63  1  0  0  0
 63 64  1  0  0  0
 64 65  1  0  0  0
 31 32  1  0  0  0
 32 33  1  0  0  0
 33 34  1  0  0  0
 34 35  1  0  0  0
 35 36  1  0  0  0
  8 10  1  0  0  0
  9 17  1  0  0  0
 12 13  2  0  0  0
 12 17  1  0  0  0
 13 14  1  0  0  0
 14 15  2  0  0  0
 15 16  1  0  0  0
 16 17  2  0  0  0
M  END
> <minimizedAffinity>
-9.56985

> <CNNscore>
0.1585925519

> <CNNaffinity>
7.1795783043

> <CNN_VS>
1.1386276484

> <CNNaffinity_variance>
0.4992411733

$$$$
/media/chris/experiments/cd1a-new-docking/inputs/ligands/1xz0_ligand.pdb


 65 67  0  0  0  0  0  0  0  0999 V2000
  -41.0984   58.4880   63.4388 C   0  0  0  0  0  0  0  0  0  0  0  0
  -39.7936   58.5558   64.0998 N   0  0  0  0  0  0  0  0  0  0  0  0
  -38.7828   56.6291   63.4371 O   0  0  0  0  0  0  0  0  0  0  0  0
  -38.7743   57.6799   64.0647 C   0  0  0  0  0  0  0  0  0  0  0  0
  -39.6407   59.3584   64.6491 H   0  0  0  0  0  0  0  0  0  0  0  0
  -36.4657   58.5913   64.2057 N   0  0  0  0  0  0  0  0  0  0  0  0
  -35.4644   56.8854   65.2447 O   0  0  0  0  0  0  0  0  0  0  0  0
  -36.8316   56.7736   65.6388 C   0  0  0  0  0  0  0  0  0  0  0  0
  -35.3504   58.0166   64.3585 C   0  0  0  0  0  0  0  0  0  0  0  0
  -37.5689   57.9564   64.9517 C   0  0  0  0  0  0  0  0  0  0  0  0
  -32.8365   58.1824   65.7901 O   0  0  0  0  0  0  0  0  0  0  0  0
  -32.8638   58.5149   64.4938 C   0  0  0  0  0  0  0  0  0  0  0  0
  -31.6825   58.9173   63.8569 C   0  0  0  0  0  0  0  0  0  0  0  0
  -31.6866   59.2804   62.4996 C   0  0  0  0  0  0  0  0  0  0  0  0
  -32.8704   59.2356   61.7610 C   0  0  0  0  0  0  0  0  0  0  0  0
  -34.0502   58.8288   62.3902 C   0  0  0  0  0  0  0  0  0  0  0  0
  -34.0509   58.4727   63.7525 C   0  0  0  0  0  0  0  0  0  0  0  0
  -32.0302   58.2181   66.2661 H   0  0  0  0  0  0  0  0  0  0  0  0
  -41.7008   59.9252   61.6202 O   0  0  0  0  0  0  0  0  0  0  0  0
  -40.9145   59.1055   62.0655 C   0  0  0  0  0  0  0  0  0  0  0  0
  -39.8059   58.6674   61.2110 O   0  0  0  0  0  0  0  0  0  0  0  0
  -38.8856   59.6130   60.6343 C   0  0  0  0  0  0  0  0  0  0  0  0
  -38.4568   59.2894   59.2084 C   0  0  0  0  0  0  0  0  0  0  0  0
  -37.6812   59.7330   61.5558 C   0  0  0  0  0  0  0  0  0  0  0  0
  -36.6333   61.6138   62.7222 N   0  0  0  0  0  0  0  0  0  0  0  0
  -38.8566   61.2299   62.8802 O   0  0  0  0  0  0  0  0  0  0  0  0
  -37.7570   60.9232   62.4799 C   0  0  0  0  0  0  0  0  0  0  0  0
  -35.7929   61.2677   62.3437 H   0  0  0  0  0  0  0  0  0  0  0  0
  -34.3872   63.8014   62.8775 N   0  0  0  0  0  0  0  0  0  0  0  0
  -36.2743   64.9810   62.5417 O   0  0  0  0  0  0  0  0  0  0  0  0
  -33.6630   62.5356   63.0652 C   0  0  0  0  0  0  0  0  0  0  0  0
  -33.7704   62.0577   64.5256 C   0  0  0  0  0  0  0  0  0  0  0  0
  -34.7212   62.8567   65.4015 C   0  0  0  0  0  0  0  0  0  0  0  0
  -36.1882   62.6962   64.9939 C   0  0  0  0  0  0  0  0  0  0  0  0
  -36.5680   62.8490   63.5116 C   0  0  0  0  0  0  0  0  0  0  0  0
  -35.7199   63.9588   62.9217 C   0  0  0  0  0  0  0  0  0  0  0  0
  -33.4484   66.1781   63.8745 Si  0  0  0  0  0  0  0  0  0  0  0  0
  -33.6390   64.9120   62.6269 O   0  0  0  0  0  0  0  0  0  0  0  0
  -32.6288   67.2215   63.3686 H   0  0  0  0  0  0  0  0  0  0  0  0
  -32.8417   65.6171   65.0293 H   0  0  0  0  0  0  0  0  0  0  0  0
  -34.7234   66.7013   64.2165 H   0  0  0  0  0  0  0  0  0  0  0  0
  -42.1484   59.2498   65.7217 C   0  0  0  0  0  0  0  0  0  0  0  0
  -42.3185   59.0457   64.2112 C   0  0  0  0  0  0  0  0  0  0  0  0
  -43.4350   59.3765   66.5549 C   0  0  0  0  0  0  0  0  0  0  0  0
  -44.7679   59.5097   65.7899 C   0  0  0  0  0  0  0  0  0  0  0  0
  -45.5651   58.3053   66.0418 N   0  0  0  0  0  0  0  0  0  0  0  0
  -46.8958   58.1041   65.8510 C   0  0  0  0  0  0  0  0  0  0  0  0
  -44.8239   57.2286   66.5488 O   0  0  0  0  0  0  0  0  0  0  0  0
  -47.4206   57.0222   66.1135 O   0  0  0  0  0  0  0  0  0  0  0  0
  -45.4114   56.4700   66.6908 H   0  0  0  0  0  0  0  0  0  0  0  0
  -47.7466   59.2498   65.2927 C   0  0  0  0  0  0  0  0  0  0  0  0
  -48.5794   59.9944   66.3451 C   0  0  0  0  0  0  0  0  0  0  0  0
  -50.0559   60.0503   65.9080 C   0  0  0  0  0  0  0  0  0  0  0  0
  -50.6204   58.6847   65.4727 C   0  0  0  0  0  0  0  0  0  0  0  0
  -50.9636   58.5805   63.9749 C   0  0  0  0  0  0  0  0  0  0  0  0
  -51.1603   59.9577   63.3071 C   0  0  0  0  0  0  0  0  0  0  0  0
  -50.2877   60.1928   62.0521 C   0  0  0  0  0  0  0  0  0  0  0  0
  -49.0077   59.3492   62.0324 C   0  0  0  0  0  0  0  0  0  0  0  0
  -49.0853   58.0593   61.2096 C   0  0  0  0  0  0  0  0  0  0  0  0
  -50.1550   58.1608   60.1070 C   0  0  0  0  0  0  0  0  0  0  0  0
  -49.5822   58.1538   58.6815 C   0  0  0  0  0  0  0  0  0  0  0  0
  -48.0589   58.2811   58.5756 C   0  0  0  0  0  0  0  0  0  0  0  0
  -47.5345   58.4571   57.1288 C   0  0  0  0  0  0  0  0  0  0  0  0
  -47.9038   57.2500   56.2430 C   0  0  0  0  0  0  0  0  0  0  0  0
  -47.4695   55.8634   56.7332 C   0  0  0  0  0  0  0  0  0  0  0  0
 46 47  1  0  0  0
 46 48  1  0  0  0
 46 45  1  0  0  0
 47 49  2  0  0  0
 47 51  1  0  0  0
 19 20  2  0  0  0
 37 38  1  0  0  0
 37 39  1  0  0  0
 37 40  1  0  0  0
 37 41  1  0  0  0
 48 50  1  0  0  0
 38 29  1  0  0  0
 45 44  1  0  0  0
 25 27  1  0  0  0
 25 35  1  0  0  0
 25 28  1  0  0  0
 21 20  1  0  0  0
 21 22  1  0  0  0
 44 42  1  0  0  0
  2  1  1  0  0  0
  2  4  1  0  0  0
  2  5  1  0  0  0
 26 27  2  0  0  0
 42 43  2  0  0  0
 29 31  1  0  0  0
 29 36  1  0  0  0
  3  4  2  0  0  0
 43  1  1  0  0  0
  6  9  2  0  0  0
  6 10  1  0  0  0
  1 20  1  0  0  0
 30 36  2  0  0  0
  7  8  1  0  0  0
  7  9  1  0  0  0
 22 24  1  0  0  0
 22 23  1  0  0  0
 11 12  1  0  0  0
 11 18  1  0  0  0
 24 27  1  0  0  0
  4 10  1  0  0  0
 51 52  1  0  0  0
 52 53  1  0  0  0
 53 54  1  0  0  0
 54 55  1  0  0  0
 55 56  1  0  0  0
 56 57  1  0  0  0
 57 58  1  0  0  0
 58 59  1  0  0  0
 59 60  1  0  0  0
 60 61  1  0  0  0
 61 62  1  0  0  0
 62 63  1  0  0  0
 63 64  1  0  0  0
 64 65  1  0  0  0
 31 32  1  0  0  0
 32 33  1  0  0  0
 33 34  1  0  0  0
 34 35  1  0  0  0
 35 36  1  0  0  0
  8 10  1  0  0  0
  9 17  1  0  0  0
 12 13  2  0  0  0
 12 17  1  0  0  0
 13 14  1  0  0  0
 14 15  2  0  0  0
 15 16  1  0  0  0
 16 17  2  0  0  0
M  END
> <minimizedAffinity>
-9.17909

> <CNNscore>
0.1527869105

> <CNNaffinity>
7.3331346512

> <CNN_VS>
1.1204069853

> <CNNaffinity_variance>
0.2927548885

$$$$
/media/chris/experiments/cd1a-new-docking/inputs/ligands/1xz0_ligand.pdb


 65 67  0  0  0  0  0  0  0  0999 V2000
  -36.5546   60.4502   64.4821 C   0  0  0  0  0  0  0  0  0  0  0  0
  -37.1754   60.1583   63.1885 N   0  0  0  0  0  0  0  0  0  0  0  0
  -37.0542   62.1518   62.1003 O   0  0  0  0  0  0  0  0  0  0  0  0
  -37.3777   60.9719   62.1376 C   0  0  0  0  0  0  0  0  0  0  0  0
  -37.4900   59.2327   63.0714 H   0  0  0  0  0  0  0  0  0  0  0  0
  -39.2584   59.5338   61.3792 N   0  0  0  0  0  0  0  0  0  0  0  0
  -38.1896   58.3217   59.8363 O   0  0  0  0  0  0  0  0  0  0  0  0
  -37.4402   59.5346   59.9008 C   0  0  0  0  0  0  0  0  0  0  0  0
  -39.2677   58.4165   60.7884 C   0  0  0  0  0  0  0  0  0  0  0  0
  -38.1602   60.4223   60.9536 C   0  0  0  0  0  0  0  0  0  0  0  0
  -41.5269   57.9428   59.0367 O   0  0  0  0  0  0  0  0  0  0  0  0
  -41.3574   57.1477   60.1001 C   0  0  0  0  0  0  0  0  0  0  0  0
  -42.2591   56.1011   60.3333 C   0  0  0  0  0  0  0  0  0  0  0  0
  -42.1084   55.2586   61.4476 C   0  0  0  0  0  0  0  0  0  0  0  0
  -41.0483   55.4469   62.3360 C   0  0  0  0  0  0  0  0  0  0  0  0
  -40.1423   56.4857   62.1043 C   0  0  0  0  0  0  0  0  0  0  0  0
  -40.2958   57.3371   60.9933 C   0  0  0  0  0  0  0  0  0  0  0  0
  -42.2447   57.7970   58.4524 H   0  0  0  0  0  0  0  0  0  0  0  0
  -35.3785   58.4203   64.9633 O   0  0  0  0  0  0  0  0  0  0  0  0
  -35.3196   59.5740   64.5710 C   0  0  0  0  0  0  0  0  0  0  0  0
  -34.0034   60.1327   64.2446 O   0  0  0  0  0  0  0  0  0  0  0  0
  -33.3429   59.8190   63.0041 C   0  0  0  0  0  0  0  0  0  0  0  0
  -32.4365   58.5956   63.0618 C   0  0  0  0  0  0  0  0  0  0  0  0
  -32.5753   61.0495   62.5450 C   0  0  0  0  0  0  0  0  0  0  0  0
  -33.6322   62.7892   63.9062 N   0  0  0  0  0  0  0  0  0  0  0  0
  -33.6450   62.9006   61.6473 O   0  0  0  0  0  0  0  0  0  0  0  0
  -33.3681   62.3266   62.6755 C   0  0  0  0  0  0  0  0  0  0  0  0
  -33.3597   62.2337   64.6720 H   0  0  0  0  0  0  0  0  0  0  0  0
  -33.3842   64.6915   66.3911 N   0  0  0  0  0  0  0  0  0  0  0  0
  -33.1189   66.0629   64.6264 O   0  0  0  0  0  0  0  0  0  0  0  0
  -33.6172   63.3651   66.9816 C   0  0  0  0  0  0  0  0  0  0  0  0
  -35.1181   63.0193   66.9697 C   0  0  0  0  0  0  0  0  0  0  0  0
  -36.0026   63.9943   66.2102 C   0  0  0  0  0  0  0  0  0  0  0  0
  -35.7474   63.9829   64.7007 C   0  0  0  0  0  0  0  0  0  0  0  0
  -34.2986   64.0649   64.1919 C   0  0  0  0  0  0  0  0  0  0  0  0
  -33.5363   65.0134   65.0965 C   0  0  0  0  0  0  0  0  0  0  0  0
  -33.9406   66.1218   68.6645 Si  0  0  0  0  0  0  0  0  0  0  0  0
  -32.9675   65.6793   67.2316 O   0  0  0  0  0  0  0  0  0  0  0  0
  -33.2938   67.1706   69.3703 H   0  0  0  0  0  0  0  0  0  0  0  0
  -34.0737   64.9915   69.5136 H   0  0  0  0  0  0  0  0  0  0  0  0
  -35.2271   66.5548   68.2477 H   0  0  0  0  0  0  0  0  0  0  0  0
  -38.7232   59.5205   65.6340 C   0  0  0  0  0  0  0  0  0  0  0  0
  -37.4569   60.3795   65.7379 C   0  0  0  0  0  0  0  0  0  0  0  0
  -39.8252   59.7786   66.6756 C   0  0  0  0  0  0  0  0  0  0  0  0
  -41.0961   60.5122   66.1999 C   0  0  0  0  0  0  0  0  0  0  0  0
  -41.3622   60.1189   64.8128 N   0  0  0  0  0  0  0  0  0  0  0  0
  -42.3290   59.2965   64.3266 C   0  0  0  0  0  0  0  0  0  0  0  0
  -40.4809   60.6867   63.8818 O   0  0  0  0  0  0  0  0  0  0  0  0
  -42.4214   59.0647   63.1214 O   0  0  0  0  0  0  0  0  0  0  0  0
  -40.7143   60.3851   62.9899 H   0  0  0  0  0  0  0  0  0  0  0  0
  -43.3199   58.6571   65.3051 C   0  0  0  0  0  0  0  0  0  0  0  0
  -44.7681   59.1412   65.1503 C   0  0  0  0  0  0  0  0  0  0  0  0
  -45.5386   58.9337   66.4685 C   0  0  0  0  0  0  0  0  0  0  0  0
  -47.0652   59.0734   66.3170 C   0  0  0  0  0  0  0  0  0  0  0  0
  -47.5157   59.9007   65.0986 C   0  0  0  0  0  0  0  0  0  0  0  0
  -47.9941   59.0245   63.9219 C   0  0  0  0  0  0  0  0  0  0  0  0
  -49.1253   58.0323   64.2791 C   0  0  0  0  0  0  0  0  0  0  0  0
  -50.5097   58.4890   63.8045 C   0  0  0  0  0  0  0  0  0  0  0  0
  -50.8628   58.1186   62.3605 C   0  0  0  0  0  0  0  0  0  0  0  0
  -50.5402   59.2704   61.3911 C   0  0  0  0  0  0  0  0  0  0  0  0
  -49.3596   58.9813   60.4517 C   0  0  0  0  0  0  0  0  0  0  0  0
  -48.9291   57.5139   60.3559 C   0  0  0  0  0  0  0  0  0  0  0  0
  -47.8908   57.2270   59.2428 C   0  0  0  0  0  0  0  0  0  0  0  0
  -48.0709   58.1791   58.0431 C   0  0  0  0  0  0  0  0  0  0  0  0
  -47.1151   57.9995   56.8574 C   0  0  0  0  0  0  0  0  0  0  0  0
 46 47  1  0  0  0
 46 48  1  0  0  0
 46 45  1  0  0  0
 47 49  2  0  0  0
 47 51  1  0  0  0
 19 20  2  0  0  0
 37 38  1  0  0  0
 37 39  1  0  0  0
 37 40  1  0  0  0
 37 41  1  0  0  0
 48 50  1  0  0  0
 38 29  1  0  0  0
 45 44  1  0  0  0
 25 27  1  0  0  0
 25 35  1  0  0  0
 25 28  1  0  0  0
 21 20  1  0  0  0
 21 22  1  0  0  0
 44 42  1  0  0  0
  2  1  1  0  0  0
  2  4  1  0  0  0
  2  5  1  0  0  0
 26 27  2  0  0  0
 42 43  2  0  0  0
 29 31  1  0  0  0
 29 36  1  0  0  0
  3  4  2  0  0  0
 43  1  1  0  0  0
  6  9  2  0  0  0
  6 10  1  0  0  0
  1 20  1  0  0  0
 30 36  2  0  0  0
  7  8  1  0  0  0
  7  9  1  0  0  0
 22 24  1  0  0  0
 22 23  1  0  0  0
 11 12  1  0  0  0
 11 18  1  0  0  0
 24 27  1  0  0  0
  4 10  1  0  0  0
 51 52  1  0  0  0
 52 53  1  0  0  0
 53 54  1  0  0  0
 54 55  1  0  0  0
 55 56  1  0  0  0
 56 57  1  0  0  0
 57 58  1  0  0  0
 58 59  1  0  0  0
 59 60  1  0  0  0
 60 61  1  0  0  0
 61 62  1  0  0  0
 62 63  1  0  0  0
 63 64  1  0  0  0
 64 65  1  0  0  0
 31 32  1  0  0  0
 32 33  1  0  0  0
 33 34  1  0  0  0
 34 35  1  0  0  0
 35 36  1  0  0  0
  8 10  1  0  0  0
  9 17  1  0  0  0
 12 13  2  0  0  0
 12 17  1  0  0  0
 13 14  1  0  0  0
 14 15  2  0  0  0
 15 16  1  0  0  0
 16 17  2  0  0  0
M  END
> <minimizedAffinity>
-8.64937

> <CNNscore>
0.1360130012

> <CNNaffinity>
7.2290625572

> <CNN_VS>
0.9832465053

> <CNNaffinity_variance>
0.2451820374

$$$$
/media/chris/experiments/cd1a-new-docking/inputs/ligands/1xz0_ligand.pdb


 65 67  0  0  0  0  0  0  0  0999 V2000
  -40.2007   57.8775   64.8252 C   0  0  0  0  0  0  0  0  0  0  0  0
  -38.9036   58.4487   65.1931 N   0  0  0  0  0  0  0  0  0  0  0  0
  -39.4282   60.5871   65.7630 O   0  0  0  0  0  0  0  0  0  0  0  0
  -38.6081   59.6907   65.6142 C   0  0  0  0  0  0  0  0  0  0  0  0
  -38.1373   57.8345   65.1217 H   0  0  0  0  0  0  0  0  0  0  0  0
  -36.8448   61.4321   65.4181 N   0  0  0  0  0  0  0  0  0  0  0  0
  -35.2840   60.2492   64.3427 O   0  0  0  0  0  0  0  0  0  0  0  0
  -36.0483   59.2620   65.0341 C   0  0  0  0  0  0  0  0  0  0  0  0
  -35.8616   61.5381   64.6309 C   0  0  0  0  0  0  0  0  0  0  0  0
  -37.1412   60.0426   65.8157 C   0  0  0  0  0  0  0  0  0  0  0  0
  -36.8528   62.9035   62.2751 O   0  0  0  0  0  0  0  0  0  0  0  0
  -35.8467   63.4548   62.9648 C   0  0  0  0  0  0  0  0  0  0  0  0
  -35.3090   64.6789   62.5462 C   0  0  0  0  0  0  0  0  0  0  0  0
  -34.2465   65.2735   63.2475 C   0  0  0  0  0  0  0  0  0  0  0  0
  -33.7162   64.6555   64.3814 C   0  0  0  0  0  0  0  0  0  0  0  0
  -34.2535   63.4373   64.8066 C   0  0  0  0  0  0  0  0  0  0  0  0
  -35.3124   62.8347   64.1008 C   0  0  0  0  0  0  0  0  0  0  0  0
  -37.1945   63.3368   61.5178 H   0  0  0  0  0  0  0  0  0  0  0  0
  -38.9901   57.1264   62.9002 O   0  0  0  0  0  0  0  0  0  0  0  0
  -40.0713   57.4144   63.3865 C   0  0  0  0  0  0  0  0  0  0  0  0
  -41.2571   57.3703   62.5246 O   0  0  0  0  0  0  0  0  0  0  0  0
  -41.7611   56.1247   62.0068 C   0  0  0  0  0  0  0  0  0  0  0  0
  -41.0882   54.8833   62.5791 C   0  0  0  0  0  0  0  0  0  0  0  0
  -41.6531   56.1575   60.4897 C   0  0  0  0  0  0  0  0  0  0  0  0
  -41.4093   58.5699   60.1470 N   0  0  0  0  0  0  0  0  0  0  0  0
  -39.7887   57.1268   59.5095 O   0  0  0  0  0  0  0  0  0  0  0  0
  -40.8831   57.3485   59.9749 C   0  0  0  0  0  0  0  0  0  0  0  0
  -42.3117   58.6285   60.5365 H   0  0  0  0  0  0  0  0  0  0  0  0
  -40.0546   60.7240   61.9853 N   0  0  0  0  0  0  0  0  0  0  0  0
  -38.5058   60.3021   60.4078 O   0  0  0  0  0  0  0  0  0  0  0  0
  -41.3748   60.5145   62.5980 C   0  0  0  0  0  0  0  0  0  0  0  0
  -42.4534   61.3302   61.8606 C   0  0  0  0  0  0  0  0  0  0  0  0
  -41.9912   62.0123   60.5836 C   0  0  0  0  0  0  0  0  0  0  0  0
  -41.6427   61.0225   59.4687 C   0  0  0  0  0  0  0  0  0  0  0  0
  -40.7353   59.8250   59.7959 C   0  0  0  0  0  0  0  0  0  0  0  0
  -39.6737   60.2932   60.7720 C   0  0  0  0  0  0  0  0  0  0  0  0
  -37.4640   60.7887   62.8846 Si  0  0  0  0  0  0  0  0  0  0  0  0
  -39.1328   61.4083   62.7187 O   0  0  0  0  0  0  0  0  0  0  0  0
  -36.7070   61.6785   63.6918 H   0  0  0  0  0  0  0  0  0  0  0  0
  -36.8662   60.6895   61.6004 H   0  0  0  0  0  0  0  0  0  0  0  0
  -37.4937   59.5062   63.4933 H   0  0  0  0  0  0  0  0  0  0  0  0
  -42.8091   58.0111   65.0943 C   0  0  0  0  0  0  0  0  0  0  0  0
  -41.4594   58.7393   65.0885 C   0  0  0  0  0  0  0  0  0  0  0  0
  -44.0671   58.8782   64.9174 C   0  0  0  0  0  0  0  0  0  0  0  0
  -44.9722   59.0790   66.1503 C   0  0  0  0  0  0  0  0  0  0  0  0
  -45.8476   57.9093   66.2735 N   0  0  0  0  0  0  0  0  0  0  0  0
  -47.1461   57.7686   65.8971 C   0  0  0  0  0  0  0  0  0  0  0  0
  -45.2312   56.7975   66.8647 O   0  0  0  0  0  0  0  0  0  0  0  0
  -47.7483   56.7092   66.0703 O   0  0  0  0  0  0  0  0  0  0  0  0
  -45.8647   56.0647   66.9140 H   0  0  0  0  0  0  0  0  0  0  0  0
  -47.8609   58.9545   65.2408 C   0  0  0  0  0  0  0  0  0  0  0  0
  -48.8687   59.6714   66.1496 C   0  0  0  0  0  0  0  0  0  0  0  0
  -50.3021   59.2212   65.8078 C   0  0  0  0  0  0  0  0  0  0  0  0
  -50.4110   58.4889   64.4569 C   0  0  0  0  0  0  0  0  0  0  0  0
  -51.1741   59.2643   63.3667 C   0  0  0  0  0  0  0  0  0  0  0  0
  -50.3739   60.4603   62.8096 C   0  0  0  0  0  0  0  0  0  0  0  0
  -49.1992   60.0704   61.8823 C   0  0  0  0  0  0  0  0  0  0  0  0
  -49.5126   60.2502   60.3924 C   0  0  0  0  0  0  0  0  0  0  0  0
  -49.3246   58.9998   59.5274 C   0  0  0  0  0  0  0  0  0  0  0  0
  -49.8359   57.7381   60.2465 C   0  0  0  0  0  0  0  0  0  0  0  0
  -48.8665   56.5482   60.1807 C   0  0  0  0  0  0  0  0  0  0  0  0
  -47.6531   56.7281   59.2626 C   0  0  0  0  0  0  0  0  0  0  0  0
  -47.8030   56.0615   57.8724 C   0  0  0  0  0  0  0  0  0  0  0  0
  -47.0279   56.8365   56.7875 C   0  0  0  0  0  0  0  0  0  0  0  0
  -47.2317   58.3553   56.7320 C   0  0  0  0  0  0  0  0  0  0  0  0
 46 47  1  0  0  0
 46 48  1  0  0  0
 46 45  1  0  0  0
 47 49  2  0  0  0
 47 51  1  0  0  0
 19 20  2  0  0  0
 37 38  1  0  0  0
 37 39  1  0  0  0
 37 40  1  0  0  0
 37 41  1  0  0  0
 48 50  1  0  0  0
 38 29  1  0  0  0
 45 44  1  0  0  0
 25 27  1  0  0  0
 25 35  1  0  0  0
 25 28  1  0  0  0
 21 20  1  0  0  0
 21 22  1  0  0  0
 44 42  1  0  0  0
  2  1  1  0  0  0
  2  4  1  0  0  0
  2  5  1  0  0  0
 26 27  2  0  0  0
 42 43  2  0  0  0
 29 31  1  0  0  0
 29 36  1  0  0  0
  3  4  2  0  0  0
 43  1  1  0  0  0
  6  9  2  0  0  0
  6 10  1  0  0  0
  1 20  1  0  0  0
 30 36  2  0  0  0
  7  8  1  0  0  0
  7  9  1  0  0  0
 22 24  1  0  0  0
 22 23  1  0  0  0
 11 12  1  0  0  0
 11 18  1  0  0  0
 24 27  1  0  0  0
  4 10  1  0  0  0
 51 52  1  0  0  0
 52 53  1  0  0  0
 53 54  1  0  0  0
 54 55  1  0  0  0
 55 56  1  0  0  0
 56 57  1  0  0  0
 57 58  1  0  0  0
 58 59  1  0  0  0
 59 60  1  0  0  0
 60 61  1  0  0  0
 61 62  1  0  0  0
 62 63  1  0  0  0
 63 64  1  0  0  0
 64 65  1  0  0  0
 31 32  1  0  0  0
 32 33  1  0  0  0
 33 34  1  0  0  0
 34 35  1  0  0  0
 35 36  1  0  0  0
  8 10  1  0  0  0
  9 17  1  0  0  0
 12 13  2  0  0  0
 12 17  1  0  0  0
 13 14  1  0  0  0
 14 15  2  0  0  0
 15 16  1  0  0  0
 16 17  2  0  0  0
M  END
> <minimizedAffinity>
-9.74205

> <CNNscore>
0.1280745119

> <CNNaffinity>
7.5574851036

> <CNN_VS>
0.9679211974

> <CNNaffinity_variance>
1.6825441122

$$$$
/media/chris/experiments/cd1a-new-docking/inputs/ligands/1xz0_ligand.pdb


 65 67  0  0  0  0  0  0  0  0999 V2000
  -41.1737   59.6550   65.1135 C   0  0  0  0  0  0  0  0  0  0  0  0
  -39.8439   59.0893   65.3495 N   0  0  0  0  0  0  0  0  0  0  0  0
  -38.5569   60.9324   65.6957 O   0  0  0  0  0  0  0  0  0  0  0  0
  -38.6846   59.7180   65.6106 C   0  0  0  0  0  0  0  0  0  0  0  0
  -39.7911   58.1069   65.3114 H   0  0  0  0  0  0  0  0  0  0  0  0
  -36.2370   59.5929   65.1939 N   0  0  0  0  0  0  0  0  0  0  0  0
  -36.1532   57.6446   64.1035 O   0  0  0  0  0  0  0  0  0  0  0  0
  -37.3308   57.5410   64.9031 C   0  0  0  0  0  0  0  0  0  0  0  0
  -35.5685   58.9403   64.3426 C   0  0  0  0  0  0  0  0  0  0  0  0
  -37.4219   58.8730   65.6982 C   0  0  0  0  0  0  0  0  0  0  0  0
  -33.8470   57.2851   62.7013 O   0  0  0  0  0  0  0  0  0  0  0  0
  -33.5125   58.5660   62.8993 C   0  0  0  0  0  0  0  0  0  0  0  0
  -32.3550   59.0802   62.3004 C   0  0  0  0  0  0  0  0  0  0  0  0
  -31.9773   60.4186   62.5005 C   0  0  0  0  0  0  0  0  0  0  0  0
  -32.7582   61.2610   63.2938 C   0  0  0  0  0  0  0  0  0  0  0  0
  -33.9172   60.7544   63.8884 C   0  0  0  0  0  0  0  0  0  0  0  0
  -34.2937   59.4112   63.6968 C   0  0  0  0  0  0  0  0  0  0  0  0
  -33.3090   56.7381   62.1634 H   0  0  0  0  0  0  0  0  0  0  0  0
  -41.9635   57.3993   64.9613 O   0  0  0  0  0  0  0  0  0  0  0  0
  -42.1651   58.5341   65.3613 C   0  0  0  0  0  0  0  0  0  0  0  0
  -43.4344   58.8190   66.0388 O   0  0  0  0  0  0  0  0  0  0  0  0
  -44.6985   58.5090   65.4227 C   0  0  0  0  0  0  0  0  0  0  0  0
  -45.0761   59.4195   64.2608 C   0  0  0  0  0  0  0  0  0  0  0  0
  -45.7724   58.5201   66.5001 C   0  0  0  0  0  0  0  0  0  0  0  0
  -48.0703   58.7178   65.6774 N   0  0  0  0  0  0  0  0  0  0  0  0
  -47.1015   56.6953   65.9708 O   0  0  0  0  0  0  0  0  0  0  0  0
  -47.0727   57.9022   66.0486 C   0  0  0  0  0  0  0  0  0  0  0  0
  -47.9340   59.6867   65.7870 H   0  0  0  0  0  0  0  0  0  0  0  0
  -49.3963   59.3335   62.8993 N   0  0  0  0  0  0  0  0  0  0  0  0
  -49.5224   57.0936   63.0788 O   0  0  0  0  0  0  0  0  0  0  0  0
  -49.0168   60.6581   63.4126 C   0  0  0  0  0  0  0  0  0  0  0  0
  -50.0684   61.1775   64.4111 C   0  0  0  0  0  0  0  0  0  0  0  0
  -51.1473   60.1785   64.7953 C   0  0  0  0  0  0  0  0  0  0  0  0
  -50.6092   59.0011   65.6128 C   0  0  0  0  0  0  0  0  0  0  0  0
  -49.3507   58.2682   65.1192 C   0  0  0  0  0  0  0  0  0  0  0  0
  -49.4147   58.1922   63.6063 C   0  0  0  0  0  0  0  0  0  0  0  0
  -49.2947   57.8339   60.6048 Si  0  0  0  0  0  0  0  0  0  0  0  0
  -49.7519   59.2563   61.5865 O   0  0  0  0  0  0  0  0  0  0  0  0
  -49.7809   57.9968   59.2806 H   0  0  0  0  0  0  0  0  0  0  0  0
  -49.8599   56.6632   61.1760 H   0  0  0  0  0  0  0  0  0  0  0  0
  -47.8802   57.7121   60.5781 H   0  0  0  0  0  0  0  0  0  0  0  0
  -41.8868   59.5632   62.5882 C   0  0  0  0  0  0  0  0  0  0  0  0
  -41.4035   60.4023   63.7775 C   0  0  0  0  0  0  0  0  0  0  0  0
  -41.7035   60.1726   61.1879 C   0  0  0  0  0  0  0  0  0  0  0  0
  -41.1371   59.2578   60.0824 C   0  0  0  0  0  0  0  0  0  0  0  0
  -40.1191   58.3891   60.6811 N   0  0  0  0  0  0  0  0  0  0  0  0
  -38.8649   58.7033   61.1007 C   0  0  0  0  0  0  0  0  0  0  0  0
  -40.5254   57.0554   60.8291 O   0  0  0  0  0  0  0  0  0  0  0  0
  -38.1238   57.8500   61.5881 O   0  0  0  0  0  0  0  0  0  0  0  0
  -39.8068   56.5410   61.2290 H   0  0  0  0  0  0  0  0  0  0  0  0
  -38.3781   60.1499   60.9652 C   0  0  0  0  0  0  0  0  0  0  0  0
  -38.1160   60.8601   62.3003 C   0  0  0  0  0  0  0  0  0  0  0  0
  -36.9319   61.8355   62.1566 C   0  0  0  0  0  0  0  0  0  0  0  0
  -36.7015   62.7107   63.4032 C   0  0  0  0  0  0  0  0  0  0  0  0
  -36.0702   64.0855   63.1139 C   0  0  0  0  0  0  0  0  0  0  0  0
  -35.0773   64.0533   61.9331 C   0  0  0  0  0  0  0  0  0  0  0  0
  -34.5651   65.4429   61.4874 C   0  0  0  0  0  0  0  0  0  0  0  0
  -33.1004   65.7011   61.8591 C   0  0  0  0  0  0  0  0  0  0  0  0
  -32.6207   65.0208   63.1453 C   0  0  0  0  0  0  0  0  0  0  0  0
  -32.8271   65.9294   64.3710 C   0  0  0  0  0  0  0  0  0  0  0  0
  -32.2174   65.3741   65.6671 C   0  0  0  0  0  0  0  0  0  0  0  0
  -33.2158   64.8157   66.6865 C   0  0  0  0  0  0  0  0  0  0  0  0
  -33.3401   63.2717   66.6750 C   0  0  0  0  0  0  0  0  0  0  0  0
  -34.8145   62.8239   66.6137 C   0  0  0  0  0  0  0  0  0  0  0  0
  -35.8834   63.9082   66.7955 C   0  0  0  0  0  0  0  0  0  0  0  0
 46 47  1  0  0  0
 46 48  1  0  0  0
 46 45  1  0  0  0
 47 49  2  0  0  0
 47 51  1  0  0  0
 19 20  2  0  0  0
 37 38  1  0  0  0
 37 39  1  0  0  0
 37 40  1  0  0  0
 37 41  1  0  0  0
 48 50  1  0  0  0
 38 29  1  0  0  0
 45 44  1  0  0  0
 25 27  1  0  0  0
 25 35  1  0  0  0
 25 28  1  0  0  0
 21 20  1  0  0  0
 21 22  1  0  0  0
 44 42  1  0  0  0
  2  1  1  0  0  0
  2  4  1  0  0  0
  2  5  1  0  0  0
 26 27  2  0  0  0
 42 43  2  0  0  0
 29 31  1  0  0  0
 29 36  1  0  0  0
  3  4  2  0  0  0
 43  1  1  0  0  0
  6  9  2  0  0  0
  6 10  1  0  0  0
  1 20  1  0  0  0
 30 36  2  0  0  0
  7  8  1  0  0  0
  7  9  1  0  0  0
 22 24  1  0  0  0
 22 23  1  0  0  0
 11 12  1  0  0  0
 11 18  1  0  0  0
 24 27  1  0  0  0
  4 10  1  0  0  0
 51 52  1  0  0  0
 52 53  1  0  0  0
 53 54  1  0  0  0
 54 55  1  0  0  0
 55 56  1  0  0  0
 56 57  1  0  0  0
 57 58  1  0  0  0
 58 59  1  0  0  0
 59 60  1  0  0  0
 60 61  1  0  0  0
 61 62  1  0  0  0
 62 63  1  0  0  0
 63 64  1  0  0  0
 64 65  1  0  0  0
 31 32  1  0  0  0
 32 33  1  0  0  0
 33 34  1  0  0  0
 34 35  1  0  0  0
 35 36  1  0  0  0
  8 10  1  0  0  0
  9 17  1  0  0  0
 12 13  2  0  0  0
 12 17  1  0  0  0
 13 14  1  0  0  0
 14 15  2  0  0  0
 15 16  1  0  0  0
 16 17  2  0  0  0
M  END
> <minimizedAffinity>
-8.36614

> <CNNscore>
0.1091712192

> <CNNaffinity>
7.2823181152

> <CNN_VS>
0.7950195670

> <CNNaffinity_variance>
1.1274802685

$$$$
/media/chris/experiments/cd1a-new-docking/inputs/ligands/1xz0_ligand.pdb


 65 67  0  0  0  0  0  0  0  0999 V2000
  -38.1105   60.1609   65.7740 C   0  0  0  0  0  0  0  0  0  0  0  0
  -37.3026   61.3141   65.3723 N   0  0  0  0  0  0  0  0  0  0  0  0
  -36.4170   62.0302   67.3410 O   0  0  0  0  0  0  0  0  0  0  0  0
  -36.5495   62.1317   66.1285 C   0  0  0  0  0  0  0  0  0  0  0  0
  -37.3122   61.5205   64.4097 H   0  0  0  0  0  0  0  0  0  0  0  0
  -35.0728   62.9373   64.2980 N   0  0  0  0  0  0  0  0  0  0  0  0
  -33.7105   64.2535   65.4829 O   0  0  0  0  0  0  0  0  0  0  0  0
  -34.9143   64.2256   66.2491 C   0  0  0  0  0  0  0  0  0  0  0  0
  -33.9063   63.4234   64.3208 C   0  0  0  0  0  0  0  0  0  0  0  0
  -35.9041   63.3321   65.4512 C   0  0  0  0  0  0  0  0  0  0  0  0
  -32.0521   65.4642   63.4298 O   0  0  0  0  0  0  0  0  0  0  0  0
  -31.9841   64.2461   62.8791 C   0  0  0  0  0  0  0  0  0  0  0  0
  -31.0150   63.9804   61.9029 C   0  0  0  0  0  0  0  0  0  0  0  0
  -30.9292   62.7128   61.3029 C   0  0  0  0  0  0  0  0  0  0  0  0
  -31.8053   61.6933   61.6796 C   0  0  0  0  0  0  0  0  0  0  0  0
  -32.7697   61.9515   62.6576 C   0  0  0  0  0  0  0  0  0  0  0  0
  -32.8638   63.2234   63.2544 C   0  0  0  0  0  0  0  0  0  0  0  0
  -31.4527   66.1332   63.1630 H   0  0  0  0  0  0  0  0  0  0  0  0
  -37.8834   57.8287   65.2795 O   0  0  0  0  0  0  0  0  0  0  0  0
  -37.3567   58.9287   65.3110 C   0  0  0  0  0  0  0  0  0  0  0  0
  -35.9383   59.0328   64.9525 O   0  0  0  0  0  0  0  0  0  0  0  0
  -35.1004   57.8651   64.8635 C   0  0  0  0  0  0  0  0  0  0  0  0
  -33.6380   58.1075   65.2158 C   0  0  0  0  0  0  0  0  0  0  0  0
  -35.2387   57.2812   63.4655 C   0  0  0  0  0  0  0  0  0  0  0  0
  -37.0013   58.3080   62.1108 N   0  0  0  0  0  0  0  0  0  0  0  0
  -34.8769   59.0818   62.0501 O   0  0  0  0  0  0  0  0  0  0  0  0
  -35.7024   58.2902   62.4441 C   0  0  0  0  0  0  0  0  0  0  0  0
  -37.5815   57.6109   62.4938 H   0  0  0  0  0  0  0  0  0  0  0  0
  -39.9849   59.2602   61.8970 N   0  0  0  0  0  0  0  0  0  0  0  0
  -38.8077   61.1757   61.9993 O   0  0  0  0  0  0  0  0  0  0  0  0
  -40.0784   57.7929   61.8750 C   0  0  0  0  0  0  0  0  0  0  0  0
  -39.7953   57.2499   60.4617 C   0  0  0  0  0  0  0  0  0  0  0  0
  -39.3098   58.2806   59.4558 C   0  0  0  0  0  0  0  0  0  0  0  0
  -37.9163   58.8246   59.7814 C   0  0  0  0  0  0  0  0  0  0  0  0
  -37.6186   59.2931   61.2155 C   0  0  0  0  0  0  0  0  0  0  0  0
  -38.8598   59.9785   61.7527 C   0  0  0  0  0  0  0  0  0  0  0  0
  -41.1457   61.4684   63.0372 Si  0  0  0  0  0  0  0  0  0  0  0  0
  -41.1425   59.9519   62.0905 O   0  0  0  0  0  0  0  0  0  0  0  0
  -42.4654   61.9899   63.0911 H   0  0  0  0  0  0  0  0  0  0  0  0
  -40.2875   62.4150   62.4176 H   0  0  0  0  0  0  0  0  0  0  0  0
  -40.6868   61.2048   64.3548 H   0  0  0  0  0  0  0  0  0  0  0  0
  -40.6237   59.8820   66.4815 C   0  0  0  0  0  0  0  0  0  0  0  0
  -39.6049   60.1621   65.3699 C   0  0  0  0  0  0  0  0  0  0  0  0
  -42.0332   59.4527   66.0400 C   0  0  0  0  0  0  0  0  0  0  0  0
  -42.1373   58.3847   64.9319 C   0  0  0  0  0  0  0  0  0  0  0  0
  -43.2087   57.4510   65.2922 N   0  0  0  0  0  0  0  0  0  0  0  0
  -44.5458   57.6770   65.3849 C   0  0  0  0  0  0  0  0  0  0  0  0
  -42.7606   56.1527   65.5740 O   0  0  0  0  0  0  0  0  0  0  0  0
  -45.3234   56.7773   65.7024 O   0  0  0  0  0  0  0  0  0  0  0  0
  -43.5180   55.5918   65.8033 H   0  0  0  0  0  0  0  0  0  0  0  0
  -45.0840   59.0789   65.0801 C   0  0  0  0  0  0  0  0  0  0  0  0
  -46.4628   59.3760   65.6854 C   0  0  0  0  0  0  0  0  0  0  0  0
  -47.3278   60.1527   64.6741 C   0  0  0  0  0  0  0  0  0  0  0  0
  -48.5681   60.8132   65.3053 C   0  0  0  0  0  0  0  0  0  0  0  0
  -49.4525   59.8598   66.1304 C   0  0  0  0  0  0  0  0  0  0  0  0
  -50.7071   59.3908   65.3639 C   0  0  0  0  0  0  0  0  0  0  0  0
  -50.4503   58.2542   64.3471 C   0  0  0  0  0  0  0  0  0  0  0  0
  -50.9653   58.5687   62.9378 C   0  0  0  0  0  0  0  0  0  0  0  0
  -50.7907   60.0218   62.4851 C   0  0  0  0  0  0  0  0  0  0  0  0
  -49.4889   60.2073   61.6843 C   0  0  0  0  0  0  0  0  0  0  0  0
  -49.6281   59.8902   60.1877 C   0  0  0  0  0  0  0  0  0  0  0  0
  -49.0287   58.5559   59.7314 C   0  0  0  0  0  0  0  0  0  0  0  0
  -48.2056   58.6430   58.4221 C   0  0  0  0  0  0  0  0  0  0  0  0
  -47.9235   57.2440   57.8377 C   0  0  0  0  0  0  0  0  0  0  0  0
  -47.3323   56.1951   58.7873 C   0  0  0  0  0  0  0  0  0  0  0  0
 46 47  1  0  0  0
 46 48  1  0  0  0
 46 45  1  0  0  0
 47 49  2  0  0  0
 47 51  1  0  0  0
 19 20  2  0  0  0
 37 38  1  0  0  0
 37 39  1  0  0  0
 37 40  1  0  0  0
 37 41  1  0  0  0
 48 50  1  0  0  0
 38 29  1  0  0  0
 45 44  1  0  0  0
 25 27  1  0  0  0
 25 35  1  0  0  0
 25 28  1  0  0  0
 21 20  1  0  0  0
 21 22  1  0  0  0
 44 42  1  0  0  0
  2  1  1  0  0  0
  2  4  1  0  0  0
  2  5  1  0  0  0
 26 27  2  0  0  0
 42 43  2  0  0  0
 29 31  1  0  0  0
 29 36  1  0  0  0
  3  4  2  0  0  0
 43  1  1  0  0  0
  6  9  2  0  0  0
  6 10  1  0  0  0
  1 20  1  0  0  0
 30 36  2  0  0  0
  7  8  1  0  0  0
  7  9  1  0  0  0
 22 24  1  0  0  0
 22 23  1  0  0  0
 11 12  1  0  0  0
 11 18  1  0  0  0
 24 27  1  0  0  0
  4 10  1  0  0  0
 51 52  1  0  0  0
 52 53  1  0  0  0
 53 54  1  0  0  0
 54 55  1  0  0  0
 55 56  1  0  0  0
 56 57  1  0  0  0
 57 58  1  0  0  0
 58 59  1  0  0  0
 59 60  1  0  0  0
 60 61  1  0  0  0
 61 62  1  0  0  0
 62 63  1  0  0  0
 63 64  1  0  0  0
 64 65  1  0  0  0
 31 32  1  0  0  0
 32 33  1  0  0  0
 33 34  1  0  0  0
 34 35  1  0  0  0
 35 36  1  0  0  0
  8 10  1  0  0  0
  9 17  1  0  0  0
 12 13  2  0  0  0
 12 17  1  0  0  0
 13 14  1  0  0  0
 14 15  2  0  0  0
 15 16  1  0  0  0
 16 17  2  0  0  0
M  END
> <minimizedAffinity>
-9.54311

> <CNNscore>
0.1037447006

> <CNNaffinity>
7.5325822830

> <CNN_VS>
0.7814654708

> <CNNaffinity_variance>
0.3880007565

$$$$
